0:0
     RDKit          3D

 52 55  0  0  0  0  0  0  0  0999 V2000
   65.6520   32.9100   50.1070 C   0  0  0  0  0  0  0  0  0  0  0  0
   64.5620   33.2440   49.2580 O   0  0  0  0  0  0  0  0  0  0  0  0
   63.4560   32.4110   49.0200 C   0  0  0  0  0  0  0  0  0  0  0  0
   62.9560   31.5310   50.0000 C   0  0  0  0  0  0  0  0  0  0  0  0
   61.8390   30.7350   49.7320 C   0  0  0  0  0  0  0  0  0  0  0  0
   61.2210   30.7800   48.4710 C   0  0  0  0  0  0  0  0  0  0  0  0
   60.0630   29.9910   48.1630 N   0  0  0  0  0  0  0  0  0  0  0  0
   59.7960   28.6530   48.6080 C   0  0  0  0  0  0  0  0  0  0  0  0
   60.0910   28.3040   49.7850 O   0  0  0  0  0  0  0  0  0  0  0  0
   59.1780   27.6720   47.6370 C   0  0  2  0  0  0  0  0  0  0  0  0
   60.1850   27.3470   46.5080 C   0  0  0  0  0  0  0  0  0  0  0  0
   59.4730   26.7030   45.3160 C   0  0  0  0  0  0  0  0  0  0  0  0
   58.5090   27.7180   44.6770 C   0  0  0  0  0  0  0  0  0  0  0  0
   57.8440   28.5490   45.6910 N   0  0  0  0  0  0  0  0  0  0  0  0
   57.0190   29.6390   45.2480 C   0  0  0  0  0  0  0  0  0  0  0  0
   55.8450   29.4110   44.8520 O   0  0  0  0  0  0  0  0  0  0  0  0
   57.5420   31.0210   45.2380 C   0  0  0  0  0  0  0  0  0  0  0  0
   57.4430   31.8060   44.0790 C   0  0  0  0  0  0  0  0  0  0  0  0
   57.9310   33.1120   44.0830 C   0  0  0  0  0  0  0  0  0  0  0  0
   58.5360   33.6260   45.2340 C   0  0  0  0  0  0  0  0  0  0  0  0
   59.0380   34.9350   45.2650 C   0  0  0  0  0  0  0  0  0  0  0  0
   59.6440   35.4250   46.4260 C   0  0  0  0  0  0  0  0  0  0  0  0
   59.7530   34.6130   47.5600 C   0  0  0  0  0  0  0  0  0  0  0  0
   59.2580   33.3070   47.5390 C   0  0  0  0  0  0  0  0  0  0  0  0
   58.6420   32.8040   46.3800 C   0  0  0  0  0  0  0  0  0  0  0  0
   58.1440   31.5340   46.3540 N   0  0  0  0  0  0  0  0  0  0  0  0
   57.7830   28.1140   47.0950 C   0  0  0  0  0  0  0  0  0  0  0  0
   61.7130   31.6600   47.5010 C   0  0  0  0  0  0  0  0  0  0  0  0
   62.8240   32.4670   47.7680 C   0  0  0  0  0  0  0  0  0  0  0  0
   63.4110   33.5620   46.5220 Cl  0  0  0  0  0  0  0  0  0  0  0  0
   65.3409   33.0053   51.1578 H   0  0  0  0  0  0  0  0  0  0  0  0
   65.9662   31.8744   49.9101 H   0  0  0  0  0  0  0  0  0  0  0  0
   66.4924   33.5918   49.9101 H   0  0  0  0  0  0  0  0  0  0  0  0
   63.4478   31.4701   50.9821 H   0  0  0  0  0  0  0  0  0  0  0  0
   61.4415   30.0696   50.5125 H   0  0  0  0  0  0  0  0  0  0  0  0
   58.9661   26.7474   48.1940 H   0  0  0  0  0  0  0  0  0  0  0  0
   60.6707   28.2774   46.1787 H   0  0  0  0  0  0  0  0  0  0  0  0
   60.9345   26.6412   46.8954 H   0  0  0  0  0  0  0  0  0  0  0  0
   60.2188   26.3882   44.5712 H   0  0  0  0  0  0  0  0  0  0  0  0
   58.9035   25.8277   45.6616 H   0  0  0  0  0  0  0  0  0  0  0  0
   59.0773   28.3707   43.9980 H   0  0  0  0  0  0  0  0  0  0  0  0
   57.7352   27.1589   44.1305 H   0  0  0  0  0  0  0  0  0  0  0  0
   56.9818   31.3922   43.1701 H   0  0  0  0  0  0  0  0  0  0  0  0
   57.8402   33.7369   43.1823 H   0  0  0  0  0  0  0  0  0  0  0  0
   58.9550   35.5767   44.3755 H   0  0  0  0  0  0  0  0  0  0  0  0
   60.0364   36.4524   46.4477 H   0  0  0  0  0  0  0  0  0  0  0  0
   60.2299   35.0042   48.4708 H   0  0  0  0  0  0  0  0  0  0  0  0
   59.3505   32.6707   48.4315 H   0  0  0  0  0  0  0  0  0  0  0  0
   58.2410   30.9290   47.2040 H   0  0  0  0  0  0  0  0  0  0  0  0
   57.4129   28.9486   47.7086 H   0  0  0  0  0  0  0  0  0  0  0  0
   57.1091   27.2464   47.1504 H   0  0  0  0  0  0  0  0  0  0  0  0
   61.2214   31.7179   46.5187 H   0  0  0  0  0  0  0  0  0  0  0  0
  1  2  1  0
  2  3  1  0
  3  4  2  0
  4  5  1  0
  5  6  2  0
  6  7  1  0
  7  8  1  0
  8  9  2  0
  8 10  1  0
 10 11  1  0
 11 12  1  0
 12 13  1  0
 13 14  1  0
 14 15  1  0
 15 16  2  0
 15 17  1  0
 17 18  2  0
 18 19  1  0
 19 20  2  0
 20 21  1  0
 21 22  2  0
 22 23  1  0
 23 24  2  0
 24 25  1  0
 25 26  2  0
 14 27  1  0
  6 28  1  0
 28 29  2  0
 29 30  1  0
 29  3  1  0
 27 10  1  0
 26 17  1  0
 25 20  1  0
  1 31  1  0
  1 32  1  0
  1 33  1  0
  4 34  1  0
  5 35  1  0
 10 36  1  1
 11 37  1  0
 11 38  1  0
 12 39  1  0
 12 40  1  0
 13 41  1  0
 13 42  1  0
 18 43  1  0
 19 44  1  0
 21 45  1  0
 22 46  1  0
 23 47  1  0
 24 48  1  0
 26 49  1  0
 27 50  1  0
 27 51  1  0
 28 52  1  0
M  CHG  2   7  -1  26   1
M  END
>  <UniqueID>  (1) 
1

>  <SMILES>  (1) 
COc1ccc([N-]C(=O)[C@@H]2CCCN(C(=O)c3ccc4ccccc4[nH+]3)C2)cc1Cl

>  <Energy>  (1) 
69.05704339903993

>  <Genealogy>  (1) 
COc1ccc([N-]C(=O)C2CCCN(C(=O)c3ccc4ccccc4[nH+]3)C2)cc1Cl (protonated)
COc1ccc([N-]C(=O)[C@@H]2CCCN(C(=O)c3ccc4ccccc4[nH+]3)C2)cc1Cl (chirality)
COc1ccc([N-]C(=O)[C@@H]2CCCN(C(=O)c3ccc4ccccc4[nH+]3)C2)cc1Cl (3D coordinates assigned)
COc1ccc([N-]C(=O)[C@@H]2CCCN(C(=O)c3ccc4ccccc4[nH+]3)C2)cc1Cl (nonaromatic ring conformer: 69.05704339903993 kcal/mol)

>  <smiles>  (1) 
COc1ccc(NC(=O)C2CCCN(C(=O)c3ccc4ccccc4n3)C2)cc1Cl

>  <score_type>  (1) 
oracle

>  <origin>  (1) 
adg

>  <m_score__min__energy>  (1) 
-8.5

>  <m_primary>  (1) 
energy

$$$$
1:0
     RDKit          3D

 25 26  0  0  0  0  0  0  0  0999 V2000
   56.6380   29.3930   43.6320 C   0  0  0  0  0  0  0  0  0  0  0  0
   56.7010   30.0910   44.8720 O   0  0  0  0  0  0  0  0  0  0  0  0
   57.3870   31.2980   45.0720 C   0  0  0  0  0  0  0  0  0  0  0  0
   57.5720   32.1400   43.9730 C   0  0  0  0  0  0  0  0  0  0  0  0
   58.2450   33.3510   44.1110 C   0  0  0  0  0  0  0  0  0  0  0  0
   58.7500   33.7410   45.3590 C   0  0  0  0  0  0  0  0  0  0  0  0
   59.4260   34.9560   45.4940 C   0  0  0  0  0  0  0  0  0  0  0  0
   59.9230   35.3360   46.7330 C   0  0  0  0  0  0  0  0  0  0  0  0
   59.7450   34.5020   47.8340 C   0  0  0  0  0  0  0  0  0  0  0  0
   59.0840   33.3070   47.7170 N   0  0  0  0  0  0  0  0  0  0  0  0
   58.9330   32.4780   48.9240 C   0  0  0  0  0  0  0  0  0  0  0  0
   58.5790   32.9070   46.4950 C   0  0  0  0  0  0  0  0  0  0  0  0
   57.8920   31.6810   46.3300 C   0  0  0  0  0  0  0  0  0  0  0  0
   56.5406   28.3141   43.8231 H   0  0  0  0  0  0  0  0  0  0  0  0
   55.7679   29.7437   43.0576 H   0  0  0  0  0  0  0  0  0  0  0  0
   57.5569   29.5822   43.0576 H   0  0  0  0  0  0  0  0  0  0  0  0
   57.1819   31.8432   42.9882 H   0  0  0  0  0  0  0  0  0  0  0  0
   58.3810   34.0046   43.2367 H   0  0  0  0  0  0  0  0  0  0  0  0
   59.5641   35.6101   44.6204 H   0  0  0  0  0  0  0  0  0  0  0  0
   60.4554   36.2921   46.8448 H   0  0  0  0  0  0  0  0  0  0  0  0
   60.1414   34.8073   48.8136 H   0  0  0  0  0  0  0  0  0  0  0  0
   59.0478   33.1081   49.8183 H   0  0  0  0  0  0  0  0  0  0  0  0
   57.9356   32.0142   48.9278 H   0  0  0  0  0  0  0  0  0  0  0  0
   59.7028   31.6923   48.9278 H   0  0  0  0  0  0  0  0  0  0  0  0
   57.7503   31.0178   47.1961 H   0  0  0  0  0  0  0  0  0  0  0  0
  1  2  1  0
  2  3  1  0
  3  4  2  0
  4  5  1  0
  5  6  2  0
  6  7  1  0
  7  8  2  0
  8  9  1  0
  9 10  2  0
 10 11  1  0
 10 12  1  0
 12 13  2  0
 13  3  1  0
 12  6  1  0
  1 14  1  0
  1 15  1  0
  1 16  1  0
  4 17  1  0
  5 18  1  0
  7 19  1  0
  8 20  1  0
  9 21  1  0
 11 22  1  0
 11 23  1  0
 11 24  1  0
 13 25  1  0
M  CHG  1  10   1
M  END
>  <UniqueID>  (2) 
2

>  <SMILES>  (2) 
COc1ccc2ccc[n+](C)c2c1

>  <Energy>  (2) 
31.745929796251037

>  <Genealogy>  (2) 
COc1ccc2ccc[n+](C)c2c1 (3D coordinates assigned)
COc1ccc2ccc[n+](C)c2c1 (optimized conformer: 31.745929796251037 kcal/mol)

>  <smiles>  (2) 
COc1ccc2ccc[n+](C)c2c1

>  <score_type>  (2) 
oracle

>  <origin>  (2) 
adg

>  <m_score__min__energy>  (2) 
-3.9300000000000002

>  <m_primary>  (2) 
energy

$$$$
2:0
     RDKit          3D

 44 46  0  0  0  0  0  0  0  0999 V2000
   60.7680   26.7590   47.5850 C   0  0  0  0  0  0  0  0  0  0  0  0
   59.6400   27.3950   46.8960 N   0  0  0  0  0  0  0  0  0  0  0  0
   58.4610   26.8450   46.4770 C   0  0  0  0  0  0  0  0  0  0  0  0
   58.1530   25.3500   46.4710 C   0  0  0  0  0  0  0  0  0  0  0  0
   57.2040   24.9100   45.4100 N   0  0  1  0  0  0  0  0  0  0  0  0
   57.7590   25.0870   44.0430 C   0  0  0  0  0  0  0  0  0  0  0  0
   56.8940   24.3830   42.9950 C   0  0  0  0  0  0  0  0  0  0  0  0
   56.8770   22.8600   43.2310 C   0  0  0  0  0  0  0  0  0  0  0  0
   57.1680   22.4760   44.7030 C   0  0  2  0  0  0  0  0  0  0  0  0
   56.5910   21.0850   45.0190 C   0  0  0  0  0  0  0  0  0  0  0  0
   56.1920   20.4360   43.8410 O   0  0  0  0  0  0  0  0  0  0  0  0
   56.6110   23.5600   45.6550 C   0  0  0  0  0  0  0  0  0  0  0  0
   57.5960   27.8660   46.0300 C   0  0  0  0  0  0  0  0  0  0  0  0
   56.1800   27.7580   45.6060 C   0  0  0  0  0  0  0  0  0  0  0  0
   55.6690   28.6410   44.8690 O   0  0  0  0  0  0  0  0  0  0  0  0
   55.3900   26.6920   46.0150 O   0  0  0  0  0  0  0  0  0  0  0  0
   58.3230   29.0420   46.1330 C   0  0  0  0  0  0  0  0  0  0  0  0
   57.9780   30.3690   45.8510 C   0  0  0  0  0  0  0  0  0  0  0  0
   58.9320   31.3710   46.0940 C   0  0  0  0  0  0  0  0  0  0  0  0
   58.5130   33.1960   45.7170 Br  0  0  0  0  0  0  0  0  0  0  0  0
   60.1970   31.0370   46.6210 C   0  0  0  0  0  0  0  0  0  0  0  0
   60.5130   29.7000   46.9150 C   0  0  0  0  0  0  0  0  0  0  0  0
   59.5480   28.7200   46.6570 C   0  0  0  0  0  0  0  0  0  0  0  0
   60.6256   26.8393   48.6728 H   0  0  0  0  0  0  0  0  0  0  0  0
   60.8210   25.6980   47.2994 H   0  0  0  0  0  0  0  0  0  0  0  0
   61.7033   27.2627   47.2994 H   0  0  0  0  0  0  0  0  0  0  0  0
   59.0990   24.8066   46.3302 H   0  0  0  0  0  0  0  0  0  0  0  0
   57.6647   25.1314   47.4321 H   0  0  0  0  0  0  0  0  0  0  0  0
   56.4040   25.5860   45.4720 H   0  0  0  0  0  0  0  0  0  0  0  0
   57.8009   26.1612   43.8098 H   0  0  0  0  0  0  0  0  0  0  0  0
   58.7651   24.6431   44.0171 H   0  0  0  0  0  0  0  0  0  0  0  0
   55.8659   24.7690   43.0580 H   0  0  0  0  0  0  0  0  0  0  0  0
   57.3173   24.5802   41.9990 H   0  0  0  0  0  0  0  0  0  0  0  0
   55.8844   22.4732   42.9568 H   0  0  0  0  0  0  0  0  0  0  0  0
   57.6725   22.4206   42.6113 H   0  0  0  0  0  0  0  0  0  0  0  0
   58.2561   22.4231   44.8556 H   0  0  0  0  0  0  0  0  0  0  0  0
   57.3601   20.4804   45.5219 H   0  0  0  0  0  0  0  0  0  0  0  0
   55.7139   21.2052   45.6719 H   0  0  0  0  0  0  0  0  0  0  0  0
   56.7750   19.6390   43.7370 H   0  0  0  0  0  0  0  0  0  0  0  0
   55.5219   23.6244   45.5146 H   0  0  0  0  0  0  0  0  0  0  0  0
   56.8748   23.2650   46.6813 H   0  0  0  0  0  0  0  0  0  0  0  0
   56.9853   30.6207   45.4494 H   0  0  0  0  0  0  0  0  0  0  0  0
   60.9400   31.8275   46.8028 H   0  0  0  0  0  0  0  0  0  0  0  0
   61.4927   29.4308   47.3367 H   0  0  0  0  0  0  0  0  0  0  0  0
  1  2  1  0
  2  3  1  0
  3  4  1  0
  4  5  1  0
  5  6  1  0
  6  7  1  0
  7  8  1  0
  8  9  1  0
  9 10  1  0
 10 11  1  0
  9 12  1  0
  3 13  2  0
 13 14  1  0
 14 15  2  0
 14 16  1  0
 13 17  1  0
 17 18  2  0
 18 19  1  0
 19 20  1  0
 19 21  2  0
 21 22  1  0
 22 23  2  0
 23  2  1  0
 12  5  1  0
 23 17  1  0
  1 24  1  0
  1 25  1  0
  1 26  1  0
  4 27  1  0
  4 28  1  0
  5 29  1  6
  6 30  1  0
  6 31  1  0
  7 32  1  0
  7 33  1  0
  8 34  1  0
  8 35  1  0
  9 36  1  6
 10 37  1  0
 10 38  1  0
 11 39  1  0
 12 40  1  0
 12 41  1  0
 18 42  1  0
 21 43  1  0
 22 44  1  0
M  CHG  2   5   1  16  -1
M  END
>  <UniqueID>  (3) 
3

>  <SMILES>  (3) 
Cn1c(C[N@H+]2CCC[C@H](CO)C2)c(C(=O)[O-])c2cc(Br)ccc21

>  <Energy>  (3) 
94.07416922926186

>  <Genealogy>  (3) 
Cn1c(C[NH+]2CCCC(CO)C2)c(C(=O)[O-])c2cc(Br)ccc21 (protonated)
Cn1c(C[N@H+]2CCC[C@H](CO)C2)c(C(=O)[O-])c2cc(Br)ccc21 (chirality)
Cn1c(C[N@H+]2CCC[C@H](CO)C2)c(C(=O)[O-])c2cc(Br)ccc21 (3D coordinates assigned)
Cn1c(C[N@H+]2CCC[C@H](CO)C2)c(C(=O)[O-])c2cc(Br)ccc21 (nonaromatic ring conformer: 94.07416922926186 kcal/mol)

>  <smiles>  (3) 
Cn1c(CN2CCCC(CO)C2)c(C(=O)O)c2cc(Br)ccc21

>  <score_type>  (3) 
oracle

>  <origin>  (3) 
adg

>  <m_score__min__energy>  (3) 
-8.7799999999999994

>  <m_primary>  (3) 
energy

$$$$
3:0
     RDKit          3D

 32 34  0  0  0  0  0  0  0  0999 V2000
   58.5770   32.0230   48.3260 C   0  0  0  0  0  0  0  0  0  0  0  0
   58.4390   32.2120   46.8440 C   0  0  0  0  0  0  0  0  0  0  0  0
   57.7600   31.2770   46.1280 N   0  0  0  0  0  0  0  0  0  0  0  0
   57.6050   31.3880   44.7850 C   0  0  0  0  0  0  0  0  0  0  0  0
   56.9010   30.4060   44.0770 C   0  0  0  0  0  0  0  0  0  0  0  0
   56.7460   30.5190   42.6930 C   0  0  0  0  0  0  0  0  0  0  0  0
   57.2920   31.6110   42.0130 C   0  0  0  0  0  0  0  0  0  0  0  0
   57.9950   32.5960   42.7110 C   0  0  0  0  0  0  0  0  0  0  0  0
   58.1560   32.4920   44.1060 C   0  0  0  0  0  0  0  0  0  0  0  0
   58.8490   33.4540   44.8590 C   0  0  0  0  0  0  0  0  0  0  0  0
   59.3570   34.4600   44.2890 O   0  0  0  0  0  0  0  0  0  0  0  0
   58.9660   33.3090   46.2130 N   0  0  0  0  0  0  0  0  0  0  0  0
   59.6610   34.2860   46.9520 N   0  0  0  0  0  0  0  0  0  0  0  0
   61.0310   34.1090   47.3510 C   0  0  0  0  0  0  0  0  0  0  0  0
   61.4160   34.2090   48.7010 C   0  0  0  0  0  0  0  0  0  0  0  0
   62.7540   34.0340   49.0670 C   0  0  0  0  0  0  0  0  0  0  0  0
   63.7180   33.7630   48.0910 C   0  0  0  0  0  0  0  0  0  0  0  0
   63.3440   33.6680   46.7490 C   0  0  0  0  0  0  0  0  0  0  0  0
   62.0070   33.8420   46.3790 C   0  0  0  0  0  0  0  0  0  0  0  0
   58.0066   32.8041   48.8499 H   0  0  0  0  0  0  0  0  0  0  0  0
   58.1874   31.0335   48.6073 H   0  0  0  0  0  0  0  0  0  0  0  0
   59.6381   32.0928   48.6073 H   0  0  0  0  0  0  0  0  0  0  0  0
   56.4701   29.5459   44.6104 H   0  0  0  0  0  0  0  0  0  0  0  0
   56.1932   29.7470   42.1376 H   0  0  0  0  0  0  0  0  0  0  0  0
   57.1677   31.6953   40.9233 H   0  0  0  0  0  0  0  0  0  0  0  0
   58.4230   33.4532   42.1706 H   0  0  0  0  0  0  0  0  0  0  0  0
   59.1360   35.1280   47.2790 H   0  0  0  0  0  0  0  0  0  0  0  0
   60.6612   34.4257   49.4713 H   0  0  0  0  0  0  0  0  0  0  0  0
   63.0487   34.1096   50.1241 H   0  0  0  0  0  0  0  0  0  0  0  0
   64.7703   33.6247   48.3802 H   0  0  0  0  0  0  0  0  0  0  0  0
   64.1028   33.4558   45.9814 H   0  0  0  0  0  0  0  0  0  0  0  0
   61.7187   33.7692   45.3200 H   0  0  0  0  0  0  0  0  0  0  0  0
  1  2  1  0
  2  3  2  0
  3  4  1  0
  4  5  2  0
  5  6  1  0
  6  7  2  0
  7  8  1  0
  8  9  2  0
  9 10  1  0
 10 11  2  0
 10 12  1  0
 12 13  1  0
 13 14  1  0
 14 15  2  0
 15 16  1  0
 16 17  2  0
 17 18  1  0
 18 19  2  0
 12  2  1  0
 19 14  1  0
  9  4  1  0
  1 20  1  0
  1 21  1  0
  1 22  1  0
  5 23  1  0
  6 24  1  0
  7 25  1  0
  8 26  1  0
 13 27  1  0
 15 28  1  0
 16 29  1  0
 17 30  1  0
 18 31  1  0
 19 32  1  0
M  END
>  <UniqueID>  (4) 
4

>  <SMILES>  (4) 
Cc1nc2ccccc2c(=O)n1Nc1ccccc1

>  <Energy>  (4) 
46.299410191618854

>  <Genealogy>  (4) 
Cc1nc2ccccc2c(=O)n1Nc1ccccc1 (3D coordinates assigned)
Cc1nc2ccccc2c(=O)n1Nc1ccccc1 (optimized conformer: 46.299410191618854 kcal/mol)

>  <smiles>  (4) 
Cc1nc2ccccc2c(=O)n1Nc1ccccc1

>  <score_type>  (4) 
oracle

>  <origin>  (4) 
adg

>  <m_score__min__energy>  (4) 
-6.9500000000000002

>  <m_primary>  (4) 
energy

$$$$
4:0
     RDKit          3D

 33 35  0  0  0  0  0  0  0  0999 V2000
   60.3961   29.8888   48.5372 H   0  0  0  0  0  0  0  0  0  0  0  0
   59.9860   29.6710   47.5400 C   0  0  0  0  0  0  0  0  0  0  0  0
   58.6890   29.3070   47.3490 N   0  0  0  0  0  0  0  0  0  0  0  0
   58.4220   29.0820   46.0470 C   0  0  0  0  0  0  0  0  0  0  0  0
   57.2340   28.7570   45.6300 N   0  0  0  0  0  0  0  0  0  0  0  0
   56.3620   29.5980   44.8640 C   0  0  0  0  0  0  0  0  0  0  0  0
   55.1300   29.3370   44.8420 O   0  0  0  0  0  0  0  0  0  0  0  0
   56.8830   30.7060   44.0420 C   0  0  0  0  0  0  0  0  0  0  0  0
   57.0880   30.7170   42.6710 C   0  0  0  0  0  0  0  0  0  0  0  0
   56.9211   29.8711   41.9880 H   0  0  0  0  0  0  0  0  0  0  0  0
   57.5270   31.9420   42.3180 N   0  0  0  0  0  0  0  0  0  0  0  0
   57.7720   32.4010   40.9570 C   0  0  0  0  0  0  0  0  0  0  0  0
   58.2898   33.3711   40.9848 H   0  0  0  0  0  0  0  0  0  0  0  0
   58.3979   31.6663   40.4293 H   0  0  0  0  0  0  0  0  0  0  0  0
   56.8132   32.5121   40.4293 H   0  0  0  0  0  0  0  0  0  0  0  0
   57.5830   32.7180   43.3890 N   0  0  0  0  0  0  0  0  0  0  0  0
   57.8370   33.7310   43.3790 H   0  0  0  0  0  0  0  0  0  0  0  0
   57.2050   31.9870   44.4540 C   0  0  0  0  0  0  0  0  0  0  0  0
   57.1020   32.4660   45.7660 O   0  0  0  0  0  0  0  0  0  0  0  0
   58.1100   33.1750   46.4300 C   0  0  0  0  0  0  0  0  0  0  0  0
   58.6160   32.6570   47.6290 C   0  0  0  0  0  0  0  0  0  0  0  0
   58.2161   31.7135   48.0290 H   0  0  0  0  0  0  0  0  0  0  0  0
   59.6260   33.3320   48.3200 C   0  0  0  0  0  0  0  0  0  0  0  0
   60.0113   32.9240   49.2661 H   0  0  0  0  0  0  0  0  0  0  0  0
   60.1470   34.5240   47.8110 C   0  0  0  0  0  0  0  0  0  0  0  0
   60.9350   35.0594   48.3608 H   0  0  0  0  0  0  0  0  0  0  0  0
   59.6660   35.0360   46.6020 C   0  0  0  0  0  0  0  0  0  0  0  0
   60.0840   35.9692   46.1965 H   0  0  0  0  0  0  0  0  0  0  0  0
   58.6550   34.3650   45.9070 C   0  0  0  0  0  0  0  0  0  0  0  0
   58.2470   34.8460   44.7060 F   0  0  0  0  0  0  0  0  0  0  0  0
   59.7780   29.3470   45.0770 S   0  0  0  0  0  0  0  0  0  0  0  0
   60.7560   29.7480   46.3850 C   0  0  0  0  0  0  0  0  0  0  0  0
   61.8198   30.0233   46.3353 H   0  0  0  0  0  0  0  0  0  0  0  0
  1  2  1  0
  2  3  1  0
  3  4  1  0
  4  5  2  0
  5  6  1  0
  6  7  2  0
  6  8  1  0
  8  9  2  0
  9 10  1  0
  9 11  1  0
 11 12  1  0
 12 13  1  0
 12 14  1  0
 12 15  1  0
 11 16  1  0
 16 17  1  0
 16 18  2  0
 18 19  1  0
 19 20  1  0
 20 21  2  0
 21 22  1  0
 21 23  1  0
 23 24  1  0
 23 25  2  0
 25 26  1  0
 25 27  1  0
 27 28  1  0
 27 29  2  0
 29 30  1  0
  4 31  1  0
 31 32  1  0
 32 33  1  0
 32  2  2  0
 18  8  1  0
 29 20  1  0
M  CHG  2   3  -1  16   1
M  END
>  <UniqueID>  (5) 
5

>  <SMILES>  (5) 
Cn1cc(C(=O)/N=c2/[n-]ccs2)c(Oc2ccccc2F)[nH+]1

>  <Energy>  (5) 
108.90723797343485

>  <Genealogy>  (5) 
Cn1cc(C(=O)N=c2[n-]ccs2)c(Oc2ccccc2F)[nH+]1 (protonated)
Cn1cc(C(=O)/N=c2/[n-]ccs2)c(Oc2ccccc2F)[nH+]1 (cis-trans isomerization)
Cn1cc(C(=O)/N=c2/[n-]ccs2)c(Oc2ccccc2F)[nH+]1 (3D coordinates assigned)
Cn1cc(C(=O)/N=c2/[n-]ccs2)c(Oc2ccccc2F)[nH+]1 (optimized conformer: 108.90723797343485 kcal/mol)

>  <smiles>  (5) 
Cn1cc(C(=O)N=c2[nH]ccs2)c(Oc2ccccc2F)n1

>  <score_type>  (5) 
oracle

>  <origin>  (5) 
adg

>  <m_score__min__energy>  (5) 
-8.3200000000000003

>  <m_primary>  (5) 
energy

$$$$
5:0
     RDKit          3D

 33 35  0  0  0  0  0  0  0  0999 V2000
   62.9980   34.0490   50.2670 C   0  0  0  0  0  0  0  0  0  0  0  0
   62.0750   33.9780   49.0780 C   0  0  0  0  0  0  0  0  0  0  0  0
   60.7010   34.2030   49.2580 C   0  0  0  0  0  0  0  0  0  0  0  0
   59.8220   34.1450   48.1760 C   0  0  0  0  0  0  0  0  0  0  0  0
   60.2970   33.8530   46.8900 C   0  0  0  0  0  0  0  0  0  0  0  0
   59.3560   33.7990   45.7480 C   0  0  0  0  0  0  0  0  0  0  0  0
   59.2810   34.7870   44.9660 O   0  0  0  0  0  0  0  0  0  0  0  0
   58.5160   32.6180   45.4740 C   0  0  0  0  0  0  0  0  0  0  0  0
   58.1320   31.6550   46.4010 C   0  0  0  0  0  0  0  0  0  0  0  0
   57.3960   30.7260   45.8170 O   0  0  0  0  0  0  0  0  0  0  0  0
   57.2970   31.0340   44.5470 C   0  0  0  0  0  0  0  0  0  0  0  0
   56.6280   30.3210   43.5540 C   0  0  0  0  0  0  0  0  0  0  0  0
   56.6810   30.8170   42.2390 C   0  0  0  0  0  0  0  0  0  0  0  0
   57.4030   31.9970   41.9480 C   0  0  0  0  0  0  0  0  0  0  0  0
   58.0690   32.6950   42.9720 C   0  0  0  0  0  0  0  0  0  0  0  0
   57.9770   32.1930   44.2730 C   0  0  0  0  0  0  0  0  0  0  0  0
   61.6740   33.6550   46.6970 C   0  0  0  0  0  0  0  0  0  0  0  0
   62.5700   33.7120   47.7790 C   0  0  0  0  0  0  0  0  0  0  0  0
   64.0370   33.4740   47.5360 C   0  0  0  0  0  0  0  0  0  0  0  0
   62.4067   34.0035   51.1934 H   0  0  0  0  0  0  0  0  0  0  0  0
   63.6994   33.2022   50.2378 H   0  0  0  0  0  0  0  0  0  0  0  0
   63.5617   34.9932   50.2378 H   0  0  0  0  0  0  0  0  0  0  0  0
   60.3133   34.4274   50.2627 H   0  0  0  0  0  0  0  0  0  0  0  0
   58.7491   34.3297   48.3332 H   0  0  0  0  0  0  0  0  0  0  0  0
   58.4022   31.6653   47.4672 H   0  0  0  0  0  0  0  0  0  0  0  0
   56.0760   29.3995   43.7911 H   0  0  0  0  0  0  0  0  0  0  0  0
   56.1574   30.2835   41.4320 H   0  0  0  0  0  0  0  0  0  0  0  0
   57.4443   32.3717   40.9146 H   0  0  0  0  0  0  0  0  0  0  0  0
   58.6441   33.6073   42.7554 H   0  0  0  0  0  0  0  0  0  0  0  0
   62.0566   33.4526   45.6857 H   0  0  0  0  0  0  0  0  0  0  0  0
   64.5594   33.3893   48.5003 H   0  0  0  0  0  0  0  0  0  0  0  0
   64.1678   32.5429   46.9651 H   0  0  0  0  0  0  0  0  0  0  0  0
   64.4554   34.3160   46.9651 H   0  0  0  0  0  0  0  0  0  0  0  0
  1  2  1  0
  2  3  2  0
  3  4  1  0
  4  5  2  0
  5  6  1  0
  6  7  2  0
  6  8  1  0
  8  9  2  0
  9 10  1  0
 10 11  1  0
 11 12  2  0
 12 13  1  0
 13 14  2  0
 14 15  1  0
 15 16  2  0
  5 17  1  0
 17 18  2  0
 18 19  1  0
 18  2  1  0
 16  8  1  0
 16 11  1  0
  1 20  1  0
  1 21  1  0
  1 22  1  0
  3 23  1  0
  4 24  1  0
  9 25  1  0
 12 26  1  0
 13 27  1  0
 14 28  1  0
 15 29  1  0
 17 30  1  0
 19 31  1  0
 19 32  1  0
 19 33  1  0
M  END
>  <UniqueID>  (6) 
6

>  <SMILES>  (6) 
Cc1ccc(C(=O)c2coc3ccccc23)cc1C

>  <Energy>  (6) 
75.21046955692913

>  <Genealogy>  (6) 
Cc1ccc(C(=O)c2coc3ccccc23)cc1C (3D coordinates assigned)
Cc1ccc(C(=O)c2coc3ccccc23)cc1C (optimized conformer: 75.21046955692913 kcal/mol)

>  <smiles>  (6) 
Cc1ccc(C(=O)c2coc3ccccc23)cc1C

>  <score_type>  (6) 
oracle

>  <origin>  (6) 
adg

>  <m_score__min__energy>  (6) 
-7.71

>  <m_primary>  (6) 
energy

$$$$
6:0
     RDKit          3D

 45 48  0  0  0  0  0  0  0  0999 V2000
   57.0250   34.2240   44.8820 C   0  0  0  0  0  0  0  0  0  0  0  0
   58.0530   33.2440   45.3920 C   0  0  0  0  0  0  0  0  0  0  0  0
   59.1450   33.7230   46.1280 C   0  0  0  0  0  0  0  0  0  0  0  0
   60.1310   32.8440   46.6250 C   0  0  0  0  0  0  0  0  0  0  0  0
   61.2710   33.3470   47.3950 N   0  0  0  0  0  0  0  0  0  0  0  0
   62.6090   33.3700   46.7460 C   0  0  0  0  0  0  0  0  0  0  0  0
   63.7690   33.8760   47.6180 C   0  0  0  0  0  0  0  0  0  0  0  0
   63.4810   33.6770   49.0300 N   0  0  0  0  0  0  0  0  0  0  0  0
   64.1170   32.6410   49.8050 C   0  0  0  0  0  0  0  0  0  0  0  0
   63.3630   31.5970   50.3700 C   0  0  0  0  0  0  0  0  0  0  0  0
   63.9910   30.6000   51.1230 C   0  0  0  0  0  0  0  0  0  0  0  0
   65.3730   30.6360   51.3190 C   0  0  0  0  0  0  0  0  0  0  0  0
   66.1310   31.6680   50.7620 C   0  0  0  0  0  0  0  0  0  0  0  0
   65.5070   32.6680   50.0080 C   0  0  0  0  0  0  0  0  0  0  0  0
   62.2700   34.3290   49.4990 C   0  0  0  0  0  0  0  0  0  0  0  0
   61.0700   33.6720   48.8290 C   0  0  0  0  0  0  0  0  0  0  0  0
   59.9870   31.5030   46.3760 N   0  0  0  0  0  0  0  0  0  0  0  0
   58.9380   30.9970   45.6650 C   0  0  0  0  0  0  0  0  0  0  0  0
   58.8450   29.6110   45.4410 C   0  0  0  0  0  0  0  0  0  0  0  0
   57.7770   29.0820   44.7160 C   0  0  0  0  0  0  0  0  0  0  0  0
   56.7920   29.9270   44.2070 C   0  0  0  0  0  0  0  0  0  0  0  0
   56.8670   31.3050   44.4210 C   0  0  0  0  0  0  0  0  0  0  0  0
   57.9400   31.8580   45.1520 C   0  0  0  0  0  0  0  0  0  0  0  0
   56.5215   34.7040   45.7342 H   0  0  0  0  0  0  0  0  0  0  0  0
   57.5218   34.9913   44.2700 H   0  0  0  0  0  0  0  0  0  0  0  0
   56.2823   33.6911   44.2700 H   0  0  0  0  0  0  0  0  0  0  0  0
   59.2352   34.8021   46.3216 H   0  0  0  0  0  0  0  0  0  0  0  0
   62.8478   32.3439   46.4295 H   0  0  0  0  0  0  0  0  0  0  0  0
   62.5253   34.0873   45.9162 H   0  0  0  0  0  0  0  0  0  0  0  0
   64.6840   33.3247   47.3557 H   0  0  0  0  0  0  0  0  0  0  0  0
   63.9035   34.9522   47.4346 H   0  0  0  0  0  0  0  0  0  0  0  0
   62.2739   31.5645   50.2189 H   0  0  0  0  0  0  0  0  0  0  0  0
   63.3953   29.7860   51.5617 H   0  0  0  0  0  0  0  0  0  0  0  0
   65.8648   29.8511   51.9124 H   0  0  0  0  0  0  0  0  0  0  0  0
   67.2198   31.6949   50.9161 H   0  0  0  0  0  0  0  0  0  0  0  0
   66.1079   33.4796   49.5719 H   0  0  0  0  0  0  0  0  0  0  0  0
   62.1900   34.2199   50.5906 H   0  0  0  0  0  0  0  0  0  0  0  0
   62.2996   35.3995   49.2477 H   0  0  0  0  0  0  0  0  0  0  0  0
   60.8450   32.7383   49.3652 H   0  0  0  0  0  0  0  0  0  0  0  0
   60.2473   34.4008   48.8736 H   0  0  0  0  0  0  0  0  0  0  0  0
   60.6910   30.8210   46.7310 H   0  0  0  0  0  0  0  0  0  0  0  0
   59.6198   28.9400   45.8403 H   0  0  0  0  0  0  0  0  0  0  0  0
   57.7121   27.9972   44.5458 H   0  0  0  0  0  0  0  0  0  0  0  0
   55.9521   29.5066   43.6344 H   0  0  0  0  0  0  0  0  0  0  0  0
   56.0843   31.9639   44.0170 H   0  0  0  0  0  0  0  0  0  0  0  0
  1  2  1  0
  2  3  2  0
  3  4  1  0
  4  5  1  0
  5  6  1  0
  6  7  1  0
  7  8  1  0
  8  9  1  0
  9 10  2  0
 10 11  1  0
 11 12  2  0
 12 13  1  0
 13 14  2  0
  8 15  1  0
 15 16  1  0
  4 17  2  0
 17 18  1  0
 18 19  2  0
 19 20  1  0
 20 21  2  0
 21 22  1  0
 22 23  2  0
 23  2  1  0
 16  5  1  0
 23 18  1  0
 14  9  1  0
  1 24  1  0
  1 25  1  0
  1 26  1  0
  3 27  1  0
  6 28  1  0
  6 29  1  0
  7 30  1  0
  7 31  1  0
 10 32  1  0
 11 33  1  0
 12 34  1  0
 13 35  1  0
 14 36  1  0
 15 37  1  0
 15 38  1  0
 16 39  1  0
 16 40  1  0
 17 41  1  0
 19 42  1  0
 20 43  1  0
 21 44  1  0
 22 45  1  0
M  CHG  1  17   1
M  END
>  <UniqueID>  (7) 
7

>  <SMILES>  (7) 
Cc1cc(N2CCN(c3ccccc3)CC2)[nH+]c2ccccc12

>  <Energy>  (7) 
66.75965523193803

>  <Genealogy>  (7) 
Cc1cc(N2CCN(c3ccccc3)CC2)[nH+]c2ccccc12 (protonated)
Cc1cc(N2CCN(c3ccccc3)CC2)[nH+]c2ccccc12 (3D coordinates assigned)
Cc1cc(N2CCN(c3ccccc3)CC2)[nH+]c2ccccc12 (nonaromatic ring conformer: 66.75965523193803 kcal/mol)

>  <smiles>  (7) 
Cc1cc(N2CCN(c3ccccc3)CC2)nc2ccccc12

>  <score_type>  (7) 
oracle

>  <origin>  (7) 
adg

>  <m_score__min__energy>  (7) 
-6.1900000000000004

>  <m_primary>  (7) 
energy

$$$$
7:0
     RDKit          3D

 42 43  0  0  0  0  0  0  0  0999 V2000
   59.4799   27.6333   47.9719 H   0  0  0  0  0  0  0  0  0  0  0  0
   58.7390   27.8490   47.1880 C   0  0  0  0  0  0  0  0  0  0  0  0
   57.6240   27.0850   47.0940 N   0  0  0  0  0  0  0  0  0  0  0  0
   56.6770   27.3090   46.1500 C   0  0  0  0  0  0  0  0  0  0  0  0
   55.5050   26.4820   46.0850 N   0  0  0  0  0  0  0  0  0  0  0  0
   54.5940   26.8610   46.4310 H   0  0  0  0  0  0  0  0  0  0  0  0
   55.5390   25.0990   45.6130 C   0  0  0  0  0  0  0  0  0  0  0  0
   54.6859   24.9255   44.9406 H   0  0  0  0  0  0  0  0  0  0  0  0
   55.4821   24.4266   46.4817 H   0  0  0  0  0  0  0  0  0  0  0  0
   56.8350   24.8200   44.8600 C   0  0  0  0  0  0  0  0  0  0  0  0
   57.6474   24.6451   45.5807 H   0  0  0  0  0  0  0  0  0  0  0  0
   56.7073   23.9288   44.2280 H   0  0  0  0  0  0  0  0  0  0  0  0
   57.0853   25.6848   44.2280 H   0  0  0  0  0  0  0  0  0  0  0  0
   56.8520   28.3500   45.2350 C   0  0  0  0  0  0  0  0  0  0  0  0
   56.0758   28.5433   44.4800 H   0  0  0  0  0  0  0  0  0  0  0  0
   58.0040   29.1540   45.2640 C   0  0  0  0  0  0  0  0  0  0  0  0
   58.1080   30.0150   44.2810 N   0  0  0  0  0  0  0  0  0  0  0  0
   57.2300   30.8790   43.4790 C   0  0  0  0  0  0  0  0  0  0  0  0
   56.5796   31.3909   44.2036 H   0  0  0  0  0  0  0  0  0  0  0  0
   56.2680   30.0940   42.5800 C   0  0  0  0  0  0  0  0  0  0  0  0
   55.5667   29.5217   43.2050 H   0  0  0  0  0  0  0  0  0  0  0  0
   55.7057   30.7944   41.9450 H   0  0  0  0  0  0  0  0  0  0  0  0
   56.8413   29.4026   41.9450 H   0  0  0  0  0  0  0  0  0  0  0  0
   57.9690   32.0210   42.7700 C   0  0  0  0  0  0  0  0  0  0  0  0
   58.4061   32.6964   43.5202 H   0  0  0  0  0  0  0  0  0  0  0  0
   58.7695   31.6048   42.1407 H   0  0  0  0  0  0  0  0  0  0  0  0
   57.2614   32.5807   42.1407 H   0  0  0  0  0  0  0  0  0  0  0  0
   58.9620   28.9140   46.2970 C   0  0  0  0  0  0  0  0  0  0  0  0
   60.1190   29.7650   46.6090 C   0  0  0  0  0  0  0  0  0  0  0  0
   61.2290   29.4780   46.0950 O   0  0  0  0  0  0  0  0  0  0  0  0
   59.9740   31.0420   47.2530 N   0  0  0  0  0  0  0  0  0  0  0  0
   59.4380   32.2650   46.7200 C   0  0  0  0  0  0  0  0  0  0  0  0
   60.2460   33.3680   46.3810 C   0  0  0  0  0  0  0  0  0  0  0  0
   61.3341   33.3172   46.5339 H   0  0  0  0  0  0  0  0  0  0  0  0
   59.6710   34.5270   45.8510 C   0  0  0  0  0  0  0  0  0  0  0  0
   60.3066   35.3884   45.5980 H   0  0  0  0  0  0  0  0  0  0  0  0
   58.2920   34.5940   45.6420 C   0  0  0  0  0  0  0  0  0  0  0  0
   57.8408   35.5101   45.2330 H   0  0  0  0  0  0  0  0  0  0  0  0
   57.4860   33.4960   45.9530 C   0  0  0  0  0  0  0  0  0  0  0  0
   56.4006   33.5447   45.7809 H   0  0  0  0  0  0  0  0  0  0  0  0
   58.0580   32.3350   46.4830 C   0  0  0  0  0  0  0  0  0  0  0  0
   57.4199   31.4697   46.7158 H   0  0  0  0  0  0  0  0  0  0  0  0
  1  2  1  0
  2  3  1  0
  3  4  1  0
  4  5  1  0
  5  6  1  0
  5  7  1  0
  7  8  1  0
  7  9  1  0
  7 10  1  0
 10 11  1  0
 10 12  1  0
 10 13  1  0
  4 14  2  0
 14 15  1  0
 14 16  1  0
 16 17  2  0
 17 18  1  0
 18 19  1  0
 18 20  1  0
 20 21  1  0
 20 22  1  0
 20 23  1  0
 18 24  1  0
 24 25  1  0
 24 26  1  0
 24 27  1  0
 16 28  1  0
 28 29  1  0
 29 30  2  0
 29 31  1  0
 31 32  1  0
 32 33  2  0
 33 34  1  0
 33 35  1  0
 35 36  1  0
 35 37  2  0
 37 38  1  0
 37 39  1  0
 39 40  1  0
 39 41  2  0
 41 42  1  0
 28  2  2  0
 41 32  1  0
M  CHG  2   3  -1  31  -1
M  END
>  <UniqueID>  (8) 
8

>  <SMILES>  (8) 
CCNc1c/c(=N/C(C)C)c(C(=O)[N-]c2ccccc2)c[n-]1

>  <Energy>  (8) 
67.51777309376223

>  <Genealogy>  (8) 
CCNc1cc(=NC(C)C)c(C(=O)[N-]c2ccccc2)c[n-]1 (protonated)
CCNc1c/c(=N/C(C)C)c(C(=O)[N-]c2ccccc2)c[n-]1 (cis-trans isomerization)
CCNc1c/c(=N/C(C)C)c(C(=O)[N-]c2ccccc2)c[n-]1 (3D coordinates assigned)
CCNc1c/c(=N/C(C)C)c(C(=O)[N-]c2ccccc2)c[n-]1 (optimized conformer: 67.51777309376223 kcal/mol)

>  <smiles>  (8) 
CCNc1cc(=NC(C)C)c(C(=O)Nc2ccccc2)c[nH]1

>  <score_type>  (8) 
oracle

>  <origin>  (8) 
adg

>  <m_score__min__energy>  (8) 
-10.529999999999999

>  <m_primary>  (8) 
energy

$$$$
8:0
     RDKit          3D

 59 63  0  0  0  0  0  0  0  0999 V2000
   57.7270   24.1130   47.9460 O   0  0  0  0  0  0  0  0  0  0  0  0
   57.7710   23.7290   46.7510 C   0  0  0  0  0  0  0  0  0  0  0  0
   57.3660   22.4020   46.3530 N   0  0  0  0  0  0  0  0  0  0  0  0
   57.1080   22.2320   45.0960 C   0  0  0  0  0  0  0  0  0  0  0  0
   56.3680   23.0970   44.3730 N   0  0  0  0  0  0  0  0  0  0  0  0
   56.0790   22.9580   43.0800 C   0  0  0  0  0  0  0  0  0  0  0  0
   56.5600   21.8500   42.3970 C   0  0  0  0  0  0  0  0  0  0  0  0
   57.3120   20.9570   43.1060 C   0  0  0  0  0  0  0  0  0  0  0  0
   57.5710   21.1510   44.4060 N   0  0  0  0  0  0  0  0  0  0  0  0
   58.2320   24.5940   45.6910 N   0  0  0  0  0  0  0  0  0  0  0  0
   58.6340   25.8980   46.0560 C   0  0  0  0  0  0  0  0  0  0  0  0
   59.9650   26.1410   46.3160 C   0  0  0  0  0  0  0  0  0  0  0  0
   60.3910   27.3990   46.6740 C   0  0  0  0  0  0  0  0  0  0  0  0
   59.4620   28.4120   46.7670 C   0  0  0  0  0  0  0  0  0  0  0  0
   59.9360   29.7350   47.1440 C   0  0  0  0  0  0  0  0  0  0  0  0
   61.0550   29.9070   47.9050 N   0  0  0  0  0  0  0  0  0  0  0  0
   61.4910   31.1300   48.2500 C   0  0  0  0  0  0  0  0  0  0  0  0
   62.6490   31.3590   49.0390 N   0  0  0  0  0  0  0  0  0  0  0  0
   63.7860   32.1300   48.5150 C   0  0  0  0  0  0  0  0  0  0  0  0
   64.2140   33.1790   49.5200 C   0  0  0  0  0  0  0  0  0  0  0  0
   64.5260   32.5080   50.6960 O   0  0  0  0  0  0  0  0  0  0  0  0
   63.4680   31.8720   51.2910 C   0  0  0  0  0  0  0  0  0  0  0  0
   62.7940   30.8630   50.3890 C   0  0  0  0  0  0  0  0  0  0  0  0
   60.7970   32.2290   47.8290 N   0  0  0  0  0  0  0  0  0  0  0  0
   59.6850   32.0940   47.0740 C   0  0  0  0  0  0  0  0  0  0  0  0
   58.9720   33.2420   46.6390 N   0  0  0  0  0  0  0  0  0  0  0  0
   57.5030   33.2650   46.5640 C   0  0  0  0  0  0  0  0  0  0  0  0
   57.0590   33.8380   45.2290 C   0  0  0  0  0  0  0  0  0  0  0  0
   57.7880   34.9700   44.8890 O   0  0  0  0  0  0  0  0  0  0  0  0
   59.1490   34.7700   44.8330 C   0  0  0  0  0  0  0  0  0  0  0  0
   59.6380   34.4660   46.2380 C   0  0  0  0  0  0  0  0  0  0  0  0
   59.3050   30.8590   46.7670 N   0  0  0  0  0  0  0  0  0  0  0  0
   58.1510   28.1530   46.5060 C   0  0  0  0  0  0  0  0  0  0  0  0
   57.6630   26.9020   46.1410 C   0  0  0  0  0  0  0  0  0  0  0  0
   55.4677   23.7110   42.5611 H   0  0  0  0  0  0  0  0  0  0  0  0
   56.3447   21.6972   41.3292 H   0  0  0  0  0  0  0  0  0  0  0  0
   57.7112   20.0646   42.6017 H   0  0  0  0  0  0  0  0  0  0  0  0
   58.1470   20.4620   44.9370 H   0  0  0  0  0  0  0  0  0  0  0  0
   58.2530   24.2300   44.7040 H   0  0  0  0  0  0  0  0  0  0  0  0
   60.6940   25.3211   46.2365 H   0  0  0  0  0  0  0  0  0  0  0  0
   61.4536   27.5925   46.8821 H   0  0  0  0  0  0  0  0  0  0  0  0
   64.6276   31.4491   48.3197 H   0  0  0  0  0  0  0  0  0  0  0  0
   63.4824   32.6287   47.5828 H   0  0  0  0  0  0  0  0  0  0  0  0
   65.0960   33.7212   49.1484 H   0  0  0  0  0  0  0  0  0  0  0  0
   63.4130   33.9142   49.6869 H   0  0  0  0  0  0  0  0  0  0  0  0
   63.8336   31.3498   52.1875 H   0  0  0  0  0  0  0  0  0  0  0  0
   62.7207   32.6412   51.5358 H   0  0  0  0  0  0  0  0  0  0  0  0
   63.3995   29.9449   50.3674 H   0  0  0  0  0  0  0  0  0  0  0  0
   61.7887   30.6657   50.7895 H   0  0  0  0  0  0  0  0  0  0  0  0
   57.1171   32.2401   46.6668 H   0  0  0  0  0  0  0  0  0  0  0  0
   57.1102   33.8951   47.3756 H   0  0  0  0  0  0  0  0  0  0  0  0
   57.2000   33.0754   44.4489 H   0  0  0  0  0  0  0  0  0  0  0  0
   56.0002   34.1240   45.3132 H   0  0  0  0  0  0  0  0  0  0  0  0
   59.3746   33.9233   44.1681 H   0  0  0  0  0  0  0  0  0  0  0  0
   59.6506   35.6666   44.4400 H   0  0  0  0  0  0  0  0  0  0  0  0
   60.7290   34.3256   46.2406 H   0  0  0  0  0  0  0  0  0  0  0  0
   59.4129   35.2913   46.9295 H   0  0  0  0  0  0  0  0  0  0  0  0
   57.4340   28.9831   46.5887 H   0  0  0  0  0  0  0  0  0  0  0  0
   56.5983   26.7170   45.9356 H   0  0  0  0  0  0  0  0  0  0  0  0
  1  2  2  0
  2  3  1  0
  3  4  2  3
  4  5  1  0
  5  6  2  0
  6  7  1  0
  7  8  2  0
  8  9  1  0
  2 10  1  0
 10 11  1  0
 11 12  2  0
 12 13  1  0
 13 14  2  0
 14 15  1  0
 15 16  2  0
 16 17  1  0
 17 18  1  0
 18 19  1  0
 19 20  1  0
 20 21  1  0
 21 22  1  0
 22 23  1  0
 17 24  2  0
 24 25  1  0
 25 26  1  0
 26 27  1  0
 27 28  1  0
 28 29  1  0
 29 30  1  0
 30 31  1  0
 25 32  2  0
 14 33  1  0
 33 34  2  0
  9  4  1  0
 34 11  1  0
 32 15  1  0
 23 18  1  0
 31 26  1  0
  6 35  1  0
  7 36  1  0
  8 37  1  0
  9 38  1  0
 10 39  1  0
 12 40  1  0
 13 41  1  0
 19 42  1  0
 19 43  1  0
 20 44  1  0
 20 45  1  0
 22 46  1  0
 22 47  1  0
 23 48  1  0
 23 49  1  0
 27 50  1  0
 27 51  1  0
 28 52  1  0
 28 53  1  0
 30 54  1  0
 30 55  1  0
 31 56  1  0
 31 57  1  0
 33 58  1  0
 34 59  1  0
M  END
>  <smiles>  (9) 
O=C(N=c1nccc[nH]1)Nc1ccc(-c2nc(N3CCOCC3)nc(N3CCOCC3)n2)cc1

>  <score_type>  (9) 
oracle

>  <origin>  (9) 
adg

>  <m_score__min__energy>  (9) 
-8.1099999999999994

>  <m_primary>  (9) 
energy

$$$$
9:0
     RDKit          3D

 40 43  0  0  0  0  0  0  0  0999 V2000
   55.7106   28.6793   43.6285 H   0  0  0  0  0  0  0  0  0  0  0  0
   56.3220   29.3260   44.2750 C   0  0  0  0  0  0  0  0  0  0  0  0
   57.0000   28.7730   45.3710 C   0  0  0  0  0  0  0  0  0  0  0  0
   56.8730   27.3260   45.6280 C   0  0  0  0  0  0  0  0  0  0  0  0
   57.9010   26.4080   45.5340 C   0  0  0  0  0  0  0  0  0  0  0  0
   58.9550   26.6181   45.2994 H   0  0  0  0  0  0  0  0  0  0  0  0
   57.3390   25.1730   45.7940 C   0  0  0  0  0  0  0  0  0  0  0  0
   57.8610   24.2051   45.8179 H   0  0  0  0  0  0  0  0  0  0  0  0
   55.9940   25.3910   46.0180 C   0  0  0  0  0  0  0  0  0  0  0  0
   55.2587   24.6067   46.2508 H   0  0  0  0  0  0  0  0  0  0  0  0
   55.7140   26.7020   45.9100 N   0  0  0  0  0  0  0  0  0  0  0  0
   54.7680   27.1380   45.9910 H   0  0  0  0  0  0  0  0  0  0  0  0
   57.8000   29.6240   46.1750 C   0  0  0  0  0  0  0  0  0  0  0  0
   58.6250   29.1190   47.2430 N   0  0  0  0  0  0  0  0  0  0  0  0
   58.6480   29.8260   48.0150 H   0  0  0  0  0  0  0  0  0  0  0  0
   58.2210   28.2460   47.6460 H   0  0  0  0  0  0  0  0  0  0  0  0
   59.9680   28.8260   46.7200 C   0  0  0  0  0  0  0  0  0  0  0  0
   60.1352   27.9184   47.3186 H   0  0  0  0  0  0  0  0  0  0  0  0
   60.1900   29.2040   45.2620 C   0  0  0  0  0  0  0  0  0  0  0  0
   60.8492   28.5916   44.6291 H   0  0  0  0  0  0  0  0  0  0  0  0
   59.5350   29.3912   44.3983 H   0  0  0  0  0  0  0  0  0  0  0  0
   60.7820   30.0630   46.3710 C   0  0  0  0  0  0  0  0  0  0  0  0
   61.8690   30.0715   46.5392 H   0  0  0  0  0  0  0  0  0  0  0  0
   60.7319   31.1284   46.6402 H   0  0  0  0  0  0  0  0  0  0  0  0
   57.8800   30.9480   45.8610 N   0  0  0  0  0  0  0  0  0  0  0  0
   57.2080   31.5000   44.8140 C   0  0  0  0  0  0  0  0  0  0  0  0
   57.3050   32.7710   44.5530 N   0  0  0  0  0  0  0  0  0  0  0  0
   58.5490   33.5380   44.5890 C   0  0  0  0  0  0  0  0  0  0  0  0
   59.3935   32.8522   44.7521 H   0  0  0  0  0  0  0  0  0  0  0  0
   58.6715   34.0659   43.6318 H   0  0  0  0  0  0  0  0  0  0  0  0
   58.5070   34.5690   45.7260 C   0  0  0  0  0  0  0  0  0  0  0  0
   57.6732   35.1524   45.3083 H   0  0  0  0  0  0  0  0  0  0  0  0
   59.8520   34.9090   46.3490 C   0  0  0  0  0  0  0  0  0  0  0  0
   60.7744   34.4725   45.9384 H   0  0  0  0  0  0  0  0  0  0  0  0
   60.3924   35.8406   46.5727 H   0  0  0  0  0  0  0  0  0  0  0  0
   58.8640   34.0300   47.1030 C   0  0  0  0  0  0  0  0  0  0  0  0
   59.0723   32.9583   47.2372 H   0  0  0  0  0  0  0  0  0  0  0  0
   58.3945   34.0631   48.0972 H   0  0  0  0  0  0  0  0  0  0  0  0
   56.4170   30.6880   43.9990 C   0  0  0  0  0  0  0  0  0  0  0  0
   55.8733   31.1202   43.1460 H   0  0  0  0  0  0  0  0  0  0  0  0
  1  2  1  0
  2  3  1  0
  3  4  1  0
  4  5  2  0
  5  6  1  0
  5  7  1  0
  7  8  1  0
  7  9  2  0
  9 10  1  0
  9 11  1  0
 11 12  1  0
  3 13  2  0
 13 14  1  0
 14 15  1  0
 14 16  1  0
 14 17  1  0
 17 18  1  0
 17 19  1  0
 19 20  1  0
 19 21  1  0
 19 22  1  0
 22 23  1  0
 22 24  1  0
 13 25  1  0
 25 26  1  0
 26 27  2  0
 27 28  1  0
 28 29  1  0
 28 30  1  0
 28 31  1  0
 31 32  1  0
 31 33  1  0
 33 34  1  0
 33 35  1  0
 33 36  1  0
 36 37  1  0
 36 38  1  0
 26 39  1  0
 39 40  1  0
 39  2  2  0
 11  4  1  0
 22 17  1  0
 36 31  1  0
M  CHG  2  14   1  25  -1
M  END
>  <UniqueID>  (10) 
9

>  <SMILES>  (10) 
c1c[nH]c(-c2cc/c(=N/CC3CC3)[n-]c2[NH2+]C2CC2)c1

>  <Energy>  (10) 
602.2861412420275

>  <Genealogy>  (10) 
c1c[nH]c(-c2ccc(=NCC3CC3)[n-]c2[NH2+]C2CC2)c1 (protonated)
c1c[nH]c(-c2cc/c(=N/CC3CC3)[n-]c2[NH2+]C2CC2)c1 (cis-trans isomerization)
c1c[nH]c(-c2cc/c(=N/CC3CC3)[n-]c2[NH2+]C2CC2)c1 (3D coordinates assigned)
c1c[nH]c(-c2cc/c(=N/CC3CC3)[n-]c2[NH2+]C2CC2)c1 (nonaromatic ring conformer: 602.2861412420275 kcal/mol)

>  <smiles>  (10) 
c1c[nH]c(-c2ccc(=NCC3CC3)[nH]c2NC2CC2)c1

>  <score_type>  (10) 
oracle

>  <origin>  (10) 
adg

>  <m_score__min__energy>  (10) 
-7.0700000000000003

>  <m_primary>  (10) 
energy

$$$$
10:0
     RDKit          3D

 53 55  0  0  0  0  0  0  0  0999 V2000
   58.9270   29.3370   48.7940 C   0  0  0  0  0  0  0  0  0  0  0  0
   58.5130   29.7700   47.5030 O   0  0  0  0  0  0  0  0  0  0  0  0
   58.4120   28.9360   46.3780 C   0  0  0  0  0  0  0  0  0  0  0  0
   58.8760   27.6050   46.3910 C   0  0  0  0  0  0  0  0  0  0  0  0
   58.7610   26.8080   45.2510 C   0  0  0  0  0  0  0  0  0  0  0  0
   58.1720   27.3210   44.0950 C   0  0  0  0  0  0  0  0  0  0  0  0
   57.7030   28.6370   44.0730 C   0  0  0  0  0  0  0  0  0  0  0  0
   57.8370   29.4610   45.2080 C   0  0  0  0  0  0  0  0  0  0  0  0
   57.3980   30.7950   45.2280 O   0  0  0  0  0  0  0  0  0  0  0  0
   57.2600   31.6530   44.0940 C   0  0  0  0  0  0  0  0  0  0  0  0
   57.3950   33.1230   44.5030 C   0  0  0  0  0  0  0  0  0  0  0  0
   57.4350   33.2740   45.9220 O   0  0  0  0  0  0  0  0  0  0  0  0
   58.5980   33.3650   46.7050 C   0  0  0  0  0  0  0  0  0  0  0  0
   59.1610   34.5960   47.0790 C   0  0  0  0  0  0  0  0  0  0  0  0
   60.3360   34.6170   47.8300 C   0  0  0  0  0  0  0  0  0  0  0  0
   60.9570   33.4170   48.2060 C   0  0  0  0  0  0  0  0  0  0  0  0
   62.1730   33.4350   48.9830 N   0  0  0  0  0  0  0  0  0  0  0  0
   62.4310   34.3110   50.1240 C   0  0  0  0  0  0  0  0  0  0  0  0
   63.7810   33.8470   50.7230 C   0  0  0  0  0  0  0  0  0  0  0  0
   64.2740   32.8030   49.8320 N   0  0  0  0  0  0  0  0  0  0  0  0
   65.5410   32.0860   50.0160 C   0  0  0  0  0  0  0  0  0  0  0  0
   65.4520   31.1300   51.2080 C   0  0  0  0  0  0  0  0  0  0  0  0
   66.7030   33.0700   50.1720 C   0  0  0  0  0  0  0  0  0  0  0  0
   63.3030   32.5960   48.8240 C   0  0  0  0  0  0  0  0  0  0  0  0
   63.4560   31.7990   47.8600 O   0  0  0  0  0  0  0  0  0  0  0  0
   60.3480   32.2090   47.8350 C   0  0  0  0  0  0  0  0  0  0  0  0
   59.2020   32.2100   47.1020 N   0  0  0  0  0  0  0  0  0  0  0  0
   58.3835   29.9054   49.5631 H   0  0  0  0  0  0  0  0  0  0  0  0
   58.7095   28.2648   48.9083 H   0  0  0  0  0  0  0  0  0  0  0  0
   60.0079   29.5061   48.9083 H   0  0  0  0  0  0  0  0  0  0  0  0
   59.3308   27.1926   47.3037 H   0  0  0  0  0  0  0  0  0  0  0  0
   59.1354   25.7737   45.2640 H   0  0  0  0  0  0  0  0  0  0  0  0
   58.0767   26.6888   43.1999 H   0  0  0  0  0  0  0  0  0  0  0  0
   57.2262   29.0322   43.1639 H   0  0  0  0  0  0  0  0  0  0  0  0
   58.0428   31.4096   43.3605 H   0  0  0  0  0  0  0  0  0  0  0  0
   56.2628   31.4996   43.6557 H   0  0  0  0  0  0  0  0  0  0  0  0
   58.3236   33.5284   44.0749 H   0  0  0  0  0  0  0  0  0  0  0  0
   56.5167   33.6666   44.1246 H   0  0  0  0  0  0  0  0  0  0  0  0
   58.6780   35.5384   46.7813 H   0  0  0  0  0  0  0  0  0  0  0  0
   60.7777   35.5791   48.1288 H   0  0  0  0  0  0  0  0  0  0  0  0
   62.4993   35.3581   49.7940 H   0  0  0  0  0  0  0  0  0  0  0  0
   61.6209   34.2546   50.8660 H   0  0  0  0  0  0  0  0  0  0  0  0
   64.4918   34.6857   50.7603 H   0  0  0  0  0  0  0  0  0  0  0  0
   63.6612   33.4773   51.7521 H   0  0  0  0  0  0  0  0  0  0  0  0
   65.7344   31.4826   49.1168 H   0  0  0  0  0  0  0  0  0  0  0  0
   65.5055   31.7052   52.1441 H   0  0  0  0  0  0  0  0  0  0  0  0
   64.4990   30.5821   51.1683 H   0  0  0  0  0  0  0  0  0  0  0  0
   66.2875   30.4156   51.1683 H   0  0  0  0  0  0  0  0  0  0  0  0
   66.9007   33.2374   51.2411 H   0  0  0  0  0  0  0  0  0  0  0  0
   67.6021   32.6545   49.6935 H   0  0  0  0  0  0  0  0  0  0  0  0
   66.4413   34.0253   49.6935 H   0  0  0  0  0  0  0  0  0  0  0  0
   60.8006   31.2536   48.1391 H   0  0  0  0  0  0  0  0  0  0  0  0
   58.7750   31.2940   46.8330 H   0  0  0  0  0  0  0  0  0  0  0  0
  1  2  1  0
  2  3  1  0
  3  4  2  0
  4  5  1  0
  5  6  2  0
  6  7  1  0
  7  8  2  0
  8  9  1  0
  9 10  1  0
 10 11  1  0
 11 12  1  0
 12 13  1  0
 13 14  2  0
 14 15  1  0
 15 16  2  0
 16 17  1  0
 17 18  1  0
 18 19  1  0
 19 20  1  0
 20 21  1  0
 21 22  1  0
 21 23  1  0
 20 24  1  0
 24 25  2  0
 16 26  1  0
 26 27  2  0
  8  3  1  0
 27 13  1  0
 24 17  1  0
  1 28  1  0
  1 29  1  0
  1 30  1  0
  4 31  1  0
  5 32  1  0
  6 33  1  0
  7 34  1  0
 10 35  1  0
 10 36  1  0
 11 37  1  0
 11 38  1  0
 14 39  1  0
 15 40  1  0
 18 41  1  0
 18 42  1  0
 19 43  1  0
 19 44  1  0
 21 45  1  0
 22 46  1  0
 22 47  1  0
 22 48  1  0
 23 49  1  0
 23 50  1  0
 23 51  1  0
 26 52  1  0
 27 53  1  0
M  CHG  1  27   1
M  END
>  <UniqueID>  (11) 
10

>  <SMILES>  (11) 
COc1ccccc1OCCOc1ccc(N2CCN(C(C)C)C2=O)c[nH+]1

>  <Energy>  (11) 
64.23334399497924

>  <Genealogy>  (11) 
COc1ccccc1OCCOc1ccc(N2CCN(C(C)C)C2=O)c[nH+]1 (protonated)
COc1ccccc1OCCOc1ccc(N2CCN(C(C)C)C2=O)c[nH+]1 (3D coordinates assigned)
COc1ccccc1OCCOc1ccc(N2CCN(C(C)C)C2=O)c[nH+]1 (nonaromatic ring conformer: 64.23334399497924 kcal/mol)

>  <smiles>  (11) 
COc1ccccc1OCCOc1ccc(N2CCN(C(C)C)C2=O)cn1

>  <score_type>  (11) 
oracle

>  <origin>  (11) 
adg

>  <m_score__min__energy>  (11) 
-6.7699999999999996

>  <m_primary>  (11) 
energy

$$$$
11:0
     RDKit          3D

 52 54  0  0  0  0  0  0  0  0999 V2000
   64.9956   32.3960   49.1754 H   0  0  0  0  0  0  0  0  0  0  0  0
   64.0560   32.5970   48.6400 C   0  0  0  0  0  0  0  0  0  0  0  0
   64.0520   33.4250   47.5640 N   0  0  0  0  0  0  0  0  0  0  0  0
   62.9120   33.6970   46.8730 C   0  0  0  0  0  0  0  0  0  0  0  0
   62.9467   34.3702   46.0038 H   0  0  0  0  0  0  0  0  0  0  0  0
   61.6890   33.1220   47.2640 C   0  0  0  0  0  0  0  0  0  0  0  0
   60.4380   33.4110   46.5170 C   0  0  0  0  0  0  0  0  0  0  0  0
   60.1540   34.7180   46.0800 C   0  0  0  0  0  0  0  0  0  0  0  0
   60.8566   35.5342   46.3040 H   0  0  0  0  0  0  0  0  0  0  0  0
   58.9860   34.9850   45.3640 C   0  0  0  0  0  0  0  0  0  0  0  0
   58.7756   36.0087   45.0207 H   0  0  0  0  0  0  0  0  0  0  0  0
   58.0840   33.9580   45.0820 C   0  0  0  0  0  0  0  0  0  0  0  0
   57.1709   34.1743   44.5080 H   0  0  0  0  0  0  0  0  0  0  0  0
   58.3350   32.6530   45.5260 C   0  0  0  0  0  0  0  0  0  0  0  0
   57.3970   31.6110   45.2130 N   0  0  0  0  0  0  0  0  0  0  0  0
   57.0220   31.0410   46.0040 H   0  0  0  0  0  0  0  0  0  0  0  0
   57.1130   31.1670   43.8760 C   0  0  0  0  0  0  0  0  0  0  0  0
   57.7160   31.6690   42.8890 O   0  0  0  0  0  0  0  0  0  0  0  0
   56.1580   30.0300   43.6490 C   0  0  0  0  0  0  0  0  0  0  0  0
   56.3843   29.5618   42.6797 H   0  0  0  0  0  0  0  0  0  0  0  0
   55.1344   30.4327   43.6613 H   0  0  0  0  0  0  0  0  0  0  0  0
   56.2700   28.9690   44.7530 C   0  0  0  0  0  0  0  0  0  0  0  0
   55.5355   28.1743   44.5557 H   0  0  0  0  0  0  0  0  0  0  0  0
   56.0773   29.4641   45.7162 H   0  0  0  0  0  0  0  0  0  0  0  0
   57.6700   28.3420   44.8190 C   0  0  0  0  0  0  0  0  0  0  0  0
   58.4215   29.1449   44.8430 H   0  0  0  0  0  0  0  0  0  0  0  0
   57.8080   27.7063   43.9320 H   0  0  0  0  0  0  0  0  0  0  0  0
   57.8310   27.4700   46.0690 C   0  0  0  0  0  0  0  0  0  0  0  0
   58.2169   28.0874   46.8935 H   0  0  0  0  0  0  0  0  0  0  0  0
   58.5334   26.6538   45.8446 H   0  0  0  0  0  0  0  0  0  0  0  0
   56.5470   26.8930   46.4610 N   0  0  0  0  0  0  0  0  0  0  0  0
   55.9780   25.8740   45.8840 C   0  0  0  0  0  0  0  0  0  0  0  0
   54.6320   25.6790   45.9760 N   0  0  0  0  0  0  0  0  0  0  0  0
   54.0160   24.6240   45.3790 C   0  0  0  0  0  0  0  0  0  0  0  0
   52.9272   24.4983   45.4725 H   0  0  0  0  0  0  0  0  0  0  0  0
   54.7640   23.7010   44.6480 C   0  0  0  0  0  0  0  0  0  0  0  0
   54.2701   22.8419   44.1706 H   0  0  0  0  0  0  0  0  0  0  0  0
   56.1500   23.8760   44.5260 C   0  0  0  0  0  0  0  0  0  0  0  0
   56.9810   22.8710   43.7700 C   0  0  0  0  0  0  0  0  0  0  0  0
   57.4261   22.1625   44.4841 H   0  0  0  0  0  0  0  0  0  0  0  0
   57.7669   23.4095   43.2201 H   0  0  0  0  0  0  0  0  0  0  0  0
   56.1650   22.1320   42.8100 N   0  0  0  0  0  0  0  0  0  0  0  0
   56.2500   22.5900   41.8730 H   0  0  0  0  0  0  0  0  0  0  0  0
   56.5430   21.1610   42.7220 H   0  0  0  0  0  0  0  0  0  0  0  0
   56.7600   24.9670   45.1610 C   0  0  0  0  0  0  0  0  0  0  0  0
   57.8485   25.1091   45.0910 H   0  0  0  0  0  0  0  0  0  0  0  0
   59.5220   32.3810   46.2290 C   0  0  0  0  0  0  0  0  0  0  0  0
   59.7372   31.3534   46.5572 H   0  0  0  0  0  0  0  0  0  0  0  0
   61.6840   32.2640   48.3780 C   0  0  0  0  0  0  0  0  0  0  0  0
   60.7433   31.7986   48.7075 H   0  0  0  0  0  0  0  0  0  0  0  0
   62.8690   32.0010   49.0670 C   0  0  0  0  0  0  0  0  0  0  0  0
   62.8671   31.3300   49.9386 H   0  0  0  0  0  0  0  0  0  0  0  0
  1  2  1  0
  2  3  2  0
  3  4  1  0
  4  5  1  0
  4  6  2  0
  6  7  1  0
  7  8  2  0
  8  9  1  0
  8 10  1  0
 10 11  1  0
 10 12  2  0
 12 13  1  0
 12 14  1  0
 14 15  1  0
 15 16  1  0
 15 17  1  0
 17 18  2  0
 17 19  1  0
 19 20  1  0
 19 21  1  0
 19 22  1  0
 22 23  1  0
 22 24  1  0
 22 25  1  0
 25 26  1  0
 25 27  1  0
 25 28  1  0
 28 29  1  0
 28 30  1  0
 28 31  1  0
 31 32  2  0
 32 33  1  0
 33 34  1  0
 34 35  1  0
 34 36  2  0
 36 37  1  0
 36 38  1  0
 38 39  1  0
 39 40  1  0
 39 41  1  0
 39 42  1  0
 42 43  1  0
 42 44  1  0
 38 45  2  0
 45 46  1  0
 14 47  2  0
 47 48  1  0
  6 49  1  0
 49 50  1  0
 49 51  2  0
 51 52  1  0
 51  2  1  0
 47  7  1  0
 45 32  1  0
M  CHG  1  33  -1
M  END
>  <UniqueID>  (12) 
11

>  <SMILES>  (12) 
NCc1cc[n-]/c(=N\CCCCC(=O)Nc2cccc(-c3cccnc3)c2)c1

>  <Energy>  (12) 
55.02782273204032

>  <Genealogy>  (12) 
NCc1cc[n-]c(=NCCCCC(=O)Nc2cccc(-c3cccnc3)c2)c1 (protonated)
NCc1cc[n-]/c(=N\CCCCC(=O)Nc2cccc(-c3cccnc3)c2)c1 (cis-trans isomerization)
NCc1cc[n-]/c(=N\CCCCC(=O)Nc2cccc(-c3cccnc3)c2)c1 (3D coordinates assigned)
NCc1cc[n-]/c(=N\CCCCC(=O)Nc2cccc(-c3cccnc3)c2)c1 (optimized conformer: 55.02782273204032 kcal/mol)

>  <smiles>  (12) 
NCc1cc[nH]c(=NCCCCC(=O)Nc2cccc(-c3cccnc3)c2)c1

>  <score_type>  (12) 
oracle

>  <origin>  (12) 
adg

>  <m_score__min__energy>  (12) 
-12.029999999999999

>  <m_primary>  (12) 
energy

$$$$
12:0
     RDKit          3D

 37 40  0  0  0  0  0  0  0  0999 V2000
   55.2120   29.7470   43.6070 N   0  0  0  0  0  0  0  0  0  0  0  0
   56.1840   29.6950   44.2320 C   0  0  0  0  0  0  0  0  0  0  0  0
   57.3920   29.6310   45.0110 C   0  0  0  0  0  0  0  0  0  0  0  0
   57.8940   28.3880   45.4460 C   0  0  0  0  0  0  0  0  0  0  0  0
   59.0630   28.3280   46.2210 C   0  0  0  0  0  0  0  0  0  0  0  0
   59.6830   26.7890   46.7920 Cl  0  0  0  0  0  0  0  0  0  0  0  0
   59.7030   29.5310   46.5270 C   0  0  0  0  0  0  0  0  0  0  0  0
   60.8090   29.6600   47.2870 N   0  0  0  0  0  0  0  0  0  0  0  0
   61.0290   30.9970   47.3110 C   0  0  0  0  0  0  0  0  0  0  0  0
   62.1850   31.6000   48.0060 C   0  0  0  0  0  0  0  0  0  0  0  0
   62.9990   32.5500   47.3680 C   0  0  0  0  0  0  0  0  0  0  0  0
   64.0980   33.1010   48.0330 C   0  0  0  0  0  0  0  0  0  0  0  0
   64.4160   32.6910   49.3360 C   0  0  0  0  0  0  0  0  0  0  0  0
   65.5760   33.3100   50.0660 C   0  0  0  0  0  0  0  0  0  0  0  0
   66.7460   32.5840   49.8120 O   0  0  0  0  0  0  0  0  0  0  0  0
   63.6090   31.7360   49.9730 C   0  0  0  0  0  0  0  0  0  0  0  0
   62.5090   31.1860   49.3070 C   0  0  0  0  0  0  0  0  0  0  0  0
   60.0460   31.6510   46.5690 C   0  0  0  0  0  0  0  0  0  0  0  0
   59.8470   33.1060   46.4310 C   0  0  0  0  0  0  0  0  0  0  0  0
   59.4850   33.7750   45.2680 C   0  0  0  0  0  0  0  0  0  0  0  0
   59.3690   35.1590   45.4430 C   0  0  0  0  0  0  0  0  0  0  0  0
   59.6360   35.5830   46.7380 C   0  0  0  0  0  0  0  0  0  0  0  0
   60.0180   34.2350   47.6670 S   0  0  0  0  0  0  0  0  0  0  0  0
   59.2200   30.7040   46.0830 N   0  0  0  0  0  0  0  0  0  0  0  0
   58.0770   30.8090   45.3520 C   0  0  0  0  0  0  0  0  0  0  0  0
   57.3674   27.4605   45.1770 H   0  0  0  0  0  0  0  0  0  0  0  0
   62.7703   32.8625   46.3384 H   0  0  0  0  0  0  0  0  0  0  0  0
   64.7166   33.8601   47.5319 H   0  0  0  0  0  0  0  0  0  0  0  0
   65.7096   34.3470   49.7242 H   0  0  0  0  0  0  0  0  0  0  0  0
   65.3706   33.2961   51.1466 H   0  0  0  0  0  0  0  0  0  0  0  0
   66.9660   32.7250   48.8540 H   0  0  0  0  0  0  0  0  0  0  0  0
   63.8424   31.4187   51.0001 H   0  0  0  0  0  0  0  0  0  0  0  0
   61.8935   30.4235   49.8066 H   0  0  0  0  0  0  0  0  0  0  0  0
   59.3077   33.2686   44.3077 H   0  0  0  0  0  0  0  0  0  0  0  0
   59.0921   35.8466   44.6303 H   0  0  0  0  0  0  0  0  0  0  0  0
   59.6032   36.6230   47.0949 H   0  0  0  0  0  0  0  0  0  0  0  0
   57.6987   31.7923   45.0359 H   0  0  0  0  0  0  0  0  0  0  0  0
  1  2  3  0
  2  3  1  0
  3  4  1  0
  4  5  2  0
  5  6  1  0
  5  7  1  0
  7  8  2  0
  8  9  1  0
  9 10  1  0
 10 11  2  0
 11 12  1  0
 12 13  2  0
 13 14  1  0
 14 15  1  0
 13 16  1  0
 16 17  2  0
  9 18  2  0
 18 19  1  0
 19 20  2  0
 20 21  1  0
 21 22  2  0
 22 23  1  0
 18 24  1  0
 24 25  1  0
 25  3  2  0
 24  7  1  0
 17 10  1  0
 23 19  1  0
  4 26  1  0
 11 27  1  0
 12 28  1  0
 14 29  1  0
 14 30  1  0
 15 31  1  0
 16 32  1  0
 17 33  1  0
 20 34  1  0
 21 35  1  0
 22 36  1  0
 25 37  1  0
M  END
>  <UniqueID>  (13) 
12

>  <SMILES>  (13) 
N#Cc1cc(Cl)c2nc(-c3ccc(CO)cc3)c(-c3cccs3)n2c1

>  <Energy>  (13) 
109.44024578577317

>  <Genealogy>  (13) 
N#Cc1cc(Cl)c2nc(-c3ccc(CO)cc3)c(-c3cccs3)n2c1 (3D coordinates assigned)
N#Cc1cc(Cl)c2nc(-c3ccc(CO)cc3)c(-c3cccs3)n2c1 (optimized conformer: 109.44024578577317 kcal/mol)

>  <smiles>  (13) 
N#Cc1cc(Cl)c2nc(-c3ccc(CO)cc3)c(-c3cccs3)n2c1

>  <score_type>  (13) 
oracle

>  <origin>  (13) 
adg

>  <m_score__min__energy>  (13) 
-7.7800000000000002

>  <m_primary>  (13) 
energy

$$$$
13:0
     RDKit          3D

 41 44  0  0  0  0  0  0  0  0999 V2000
   63.5830   33.0340   46.9010 C   0  0  0  0  0  0  0  0  0  0  0  0
   63.1540   32.2730   48.1280 C   0  0  0  0  0  0  0  0  0  0  0  0
   64.0980   31.9750   49.1270 C   0  0  0  0  0  0  0  0  0  0  0  0
   63.7220   31.2650   50.2680 C   0  0  0  0  0  0  0  0  0  0  0  0
   62.4020   30.8390   50.4260 C   0  0  0  0  0  0  0  0  0  0  0  0
   61.4550   31.1190   49.4390 C   0  0  0  0  0  0  0  0  0  0  0  0
   61.8220   31.8260   48.2840 C   0  0  0  0  0  0  0  0  0  0  0  0
   60.7940   32.0910   47.2530 C   0  0  0  0  0  0  0  0  0  0  0  0
   60.5270   33.4230   46.9190 C   0  0  0  0  0  0  0  0  0  0  0  0
   59.5890   33.7330   45.9370 C   0  0  0  0  0  0  0  0  0  0  0  0
   59.2850   35.4090   45.5190 Cl  0  0  0  0  0  0  0  0  0  0  0  0
   58.8950   32.7160   45.2820 C   0  0  0  0  0  0  0  0  0  0  0  0
   59.1200   31.3590   45.6050 C   0  0  0  0  0  0  0  0  0  0  0  0
   58.4080   30.3100   44.9580 C   0  0  0  0  0  0  0  0  0  0  0  0
   58.7270   28.9660   45.2630 C   0  0  0  0  0  0  0  0  0  0  0  0
   59.6690   28.6780   46.2540 C   0  0  0  0  0  0  0  0  0  0  0  0
   60.3390   29.6990   46.9160 C   0  0  0  0  0  0  0  0  0  0  0  0
   60.0910   31.0460   46.5990 C   0  0  0  0  0  0  0  0  0  0  0  0
   58.0030   27.8150   44.6000 C   0  0  0  0  0  0  0  0  0  0  0  0
   57.4070   28.2090   43.3180 N   0  0  0  0  0  0  0  0  0  0  0  0
   56.5420   29.3790   43.4920 C   0  0  0  0  0  0  0  0  0  0  0  0
   57.3650   30.6090   43.8930 C   0  0  0  0  0  0  0  0  0  0  0  0
   64.1023   33.9552   47.2038 H   0  0  0  0  0  0  0  0  0  0  0  0
   64.2624   32.4102   46.3016 H   0  0  0  0  0  0  0  0  0  0  0  0
   62.6976   33.2923   46.3016 H   0  0  0  0  0  0  0  0  0  0  0  0
   65.1408   32.3041   49.0080 H   0  0  0  0  0  0  0  0  0  0  0  0
   64.4676   31.0404   51.0449 H   0  0  0  0  0  0  0  0  0  0  0  0
   62.1079   30.2827   51.3282 H   0  0  0  0  0  0  0  0  0  0  0  0
   60.4154   30.7834   49.5676 H   0  0  0  0  0  0  0  0  0  0  0  0
   61.0625   34.2327   47.4364 H   0  0  0  0  0  0  0  0  0  0  0  0
   58.1623   32.9739   44.5031 H   0  0  0  0  0  0  0  0  0  0  0  0
   59.8825   27.6305   46.5130 H   0  0  0  0  0  0  0  0  0  0  0  0
   61.0722   29.4506   47.6975 H   0  0  0  0  0  0  0  0  0  0  0  0
   58.7191   26.9989   44.4234 H   0  0  0  0  0  0  0  0  0  0  0  0
   57.1912   27.4925   45.2685 H   0  0  0  0  0  0  0  0  0  0  0  0
   58.1610   28.4180   42.6200 H   0  0  0  0  0  0  0  0  0  0  0  0
   56.8310   27.4130   42.9560 H   0  0  0  0  0  0  0  0  0  0  0  0
   56.0210   29.5864   42.5457 H   0  0  0  0  0  0  0  0  0  0  0  0
   55.8155   29.1652   44.2898 H   0  0  0  0  0  0  0  0  0  0  0  0
   57.8782   30.9930   42.9990 H   0  0  0  0  0  0  0  0  0  0  0  0
   56.6667   31.3458   44.3168 H   0  0  0  0  0  0  0  0  0  0  0  0
  1  2  1  0
  2  3  2  0
  3  4  1  0
  4  5  2  0
  5  6  1  0
  6  7  2  0
  7  8  1  0
  8  9  2  0
  9 10  1  0
 10 11  1  0
 10 12  2  0
 12 13  1  0
 13 14  2  0
 14 15  1  0
 15 16  2  0
 16 17  1  0
 17 18  2  0
 15 19  1  0
 19 20  1  0
 20 21  1  0
 21 22  1  0
  7  2  1  0
 18  8  1  0
 18 13  1  0
 22 14  1  0
  1 23  1  0
  1 24  1  0
  1 25  1  0
  3 26  1  0
  4 27  1  0
  5 28  1  0
  6 29  1  0
  9 30  1  0
 12 31  1  0
 16 32  1  0
 17 33  1  0
 19 34  1  0
 19 35  1  0
 20 36  1  0
 20 37  1  0
 21 38  1  0
 21 39  1  0
 22 40  1  0
 22 41  1  0
M  CHG  1  20   1
M  END
>  <UniqueID>  (14) 
13

>  <SMILES>  (14) 
Cc1ccccc1-c1cc(Cl)cc2c3c(ccc12)C[NH2+]CC3

>  <Energy>  (14) 
61.44554817159056

>  <Genealogy>  (14) 
Cc1ccccc1-c1cc(Cl)cc2c3c(ccc12)C[NH2+]CC3 (protonated)
Cc1ccccc1-c1cc(Cl)cc2c3c(ccc12)C[NH2+]CC3 (3D coordinates assigned)
Cc1ccccc1-c1cc(Cl)cc2c3c(ccc12)C[NH2+]CC3 (nonaromatic ring conformer: 61.44554817159056 kcal/mol)

>  <smiles>  (14) 
Cc1ccccc1-c1cc(Cl)cc2c3c(ccc12)CNCC3

>  <score_type>  (14) 
oracle

>  <origin>  (14) 
adg

>  <m_score__min__energy>  (14) 
-7.25

>  <m_primary>  (14) 
energy

$$$$
14:0
     RDKit          3D

 54 59  0  0  0  0  0  0  0  0999 V2000
   63.6150   32.6910   47.1190 C   0  0  0  0  0  0  0  0  0  0  0  0
   62.8260   31.5400   47.1920 C   0  0  0  0  0  0  0  0  0  0  0  0
   61.6050   31.5690   47.8730 C   0  0  0  0  0  0  0  0  0  0  0  0
   61.1700   32.7520   48.4960 C   0  0  0  0  0  0  0  0  0  0  0  0
   59.8470   32.7830   49.2140 C   0  0  0  0  0  0  0  0  0  0  0  0
   58.9130   33.6140   48.5220 O   0  0  0  0  0  0  0  0  0  0  0  0
   58.6610   33.5760   47.1410 C   0  0  0  0  0  0  0  0  0  0  0  0
   59.1930   34.5950   46.3430 C   0  0  0  0  0  0  0  0  0  0  0  0
   58.9810   34.5990   44.9630 C   0  0  0  0  0  0  0  0  0  0  0  0
   58.2350   33.5820   44.3650 C   0  0  0  0  0  0  0  0  0  0  0  0
   57.6940   32.5500   45.1480 C   0  0  0  0  0  0  0  0  0  0  0  0
   56.8920   31.4550   44.4960 C   0  0  0  0  0  0  0  0  0  0  0  0
   57.0410   30.2300   45.2130 O   0  0  0  0  0  0  0  0  0  0  0  0
   58.2450   29.5260   45.3660 C   0  0  0  0  0  0  0  0  0  0  0  0
   59.5190   30.0940   45.1130 C   0  0  0  0  0  0  0  0  0  0  0  0
   60.6920   29.3250   45.2870 C   0  0  0  0  0  0  0  0  0  0  0  0
   60.6150   27.9880   45.7120 C   0  0  0  0  0  0  0  0  0  0  0  0
   59.3530   27.4560   45.9560 C   0  0  0  0  0  0  0  0  0  0  0  0
   59.0600   26.2420   46.3540 O   0  0  0  0  0  0  0  0  0  0  0  0
   57.7460   26.1670   46.4550 C   0  0  0  0  0  0  0  0  0  0  0  0
   57.0310   24.9580   46.8760 C   0  0  0  0  0  0  0  0  0  0  0  0
   57.6580   23.8840   47.4280 N   0  0  0  0  0  0  0  0  0  0  0  0
   56.6350   23.0480   47.6460 C   0  0  0  0  0  0  0  0  0  0  0  0
   56.7050   21.8090   48.1910 N   0  0  0  0  0  0  0  0  0  0  0  0
   55.5520   21.0890   48.3420 C   0  0  0  0  0  0  0  0  0  0  0  0
   54.3090   21.6310   47.9350 C   0  0  0  0  0  0  0  0  0  0  0  0
   54.2600   22.9190   47.3710 C   0  0  0  0  0  0  0  0  0  0  0  0
   55.4640   23.6020   47.2440 C   0  0  0  0  0  0  0  0  0  0  0  0
   55.6810   24.8270   46.7450 N   0  0  0  0  0  0  0  0  0  0  0  0
   57.1530   27.3790   46.1100 C   0  0  0  0  0  0  0  0  0  0  0  0
   58.2140   28.1970   45.7910 C   0  0  0  0  0  0  0  0  0  0  0  0
   57.8970   32.5580   46.5370 C   0  0  0  0  0  0  0  0  0  0  0  0
   61.9670   33.9060   48.4130 C   0  0  0  0  0  0  0  0  0  0  0  0
   63.1870   33.8720   47.7310 C   0  0  0  0  0  0  0  0  0  0  0  0
   64.5734   32.6673   46.5796 H   0  0  0  0  0  0  0  0  0  0  0  0
   63.1658   30.6099   46.7131 H   0  0  0  0  0  0  0  0  0  0  0  0
   60.9827   30.6632   47.9215 H   0  0  0  0  0  0  0  0  0  0  0  0
   59.4450   31.7608   49.2735 H   0  0  0  0  0  0  0  0  0  0  0  0
   60.0031   33.1926   50.2229 H   0  0  0  0  0  0  0  0  0  0  0  0
   59.7830   35.3993   46.8067 H   0  0  0  0  0  0  0  0  0  0  0  0
   59.4029   35.4056   44.3455 H   0  0  0  0  0  0  0  0  0  0  0  0
   58.0706   33.5892   43.2774 H   0  0  0  0  0  0  0  0  0  0  0  0
   55.8300   31.7414   44.4859 H   0  0  0  0  0  0  0  0  0  0  0  0
   57.2565   31.3116   43.4681 H   0  0  0  0  0  0  0  0  0  0  0  0
   59.5951   31.1394   44.7793 H   0  0  0  0  0  0  0  0  0  0  0  0
   61.6746   29.7776   45.0878 H   0  0  0  0  0  0  0  0  0  0  0  0
   61.5229   27.3818   45.8474 H   0  0  0  0  0  0  0  0  0  0  0  0
   55.5907   20.0819   48.7827 H   0  0  0  0  0  0  0  0  0  0  0  0
   53.3850   21.0473   48.0593 H   0  0  0  0  0  0  0  0  0  0  0  0
   53.3096   23.3664   47.0445 H   0  0  0  0  0  0  0  0  0  0  0  0
   56.0813   27.6265   46.0956 H   0  0  0  0  0  0  0  0  0  0  0  0
   57.4566   31.7641   47.1580 H   0  0  0  0  0  0  0  0  0  0  0  0
   61.6298   34.8399   48.8864 H   0  0  0  0  0  0  0  0  0  0  0  0
   63.8109   34.7763   47.6761 H   0  0  0  0  0  0  0  0  0  0  0  0
  1  2  2  0
  2  3  1  0
  3  4  2  0
  4  5  1  0
  5  6  1  0
  6  7  1  0
  7  8  2  0
  8  9  1  0
  9 10  2  0
 10 11  1  0
 11 12  1  0
 12 13  1  0
 13 14  1  0
 14 15  2  0
 15 16  1  0
 16 17  2  0
 17 18  1  0
 18 19  1  0
 19 20  1  0
 20 21  1  0
 21 22  2  0
 22 23  1  0
 23 24  2  0
 24 25  1  0
 25 26  2  0
 26 27  1  0
 27 28  2  0
 28 29  1  0
 20 30  2  0
 30 31  1  0
 11 32  2  0
  4 33  1  0
 33 34  2  0
 34  1  1  0
 32  7  1  0
 31 14  1  0
 31 18  2  0
 29 21  1  0
 28 23  1  0
  1 35  1  0
  2 36  1  0
  3 37  1  0
  5 38  1  0
  5 39  1  0
  8 40  1  0
  9 41  1  0
 10 42  1  0
 12 43  1  0
 12 44  1  0
 15 45  1  0
 16 46  1  0
 17 47  1  0
 25 48  1  0
 26 49  1  0
 27 50  1  0
 30 51  1  0
 32 52  1  0
 33 53  1  0
 34 54  1  0
M  CHG  1  29  -1
M  END
>  <UniqueID>  (15) 
14

>  <SMILES>  (15) 
c1ccc(COc2cccc(COc3cccc4oc(-c5nc6ncccc6[n-]5)cc34)c2)cc1

>  <Energy>  (15) 
129.45957007424045

>  <Genealogy>  (15) 
c1ccc(COc2cccc(COc3cccc4oc(-c5nc6ncccc6[n-]5)cc34)c2)cc1 (protonated)
c1ccc(COc2cccc(COc3cccc4oc(-c5nc6ncccc6[n-]5)cc34)c2)cc1 (3D coordinates assigned)
c1ccc(COc2cccc(COc3cccc4oc(-c5nc6ncccc6[n-]5)cc34)c2)cc1 (optimized conformer: 129.45957007424045 kcal/mol)

>  <smiles>  (15) 
c1ccc(COc2cccc(COc3cccc4oc(-c5nc6ncccc6[nH]5)cc34)c2)cc1

>  <score_type>  (15) 
oracle

>  <origin>  (15) 
adg

>  <m_score__min__energy>  (15) 
-11.67

>  <m_primary>  (15) 
energy

$$$$
15:0
     RDKit          3D

 34 36  0  0  0  0  0  0  0  0999 V2000
   56.2720   29.6370   42.6230 C   0  0  0  0  0  0  0  0  0  0  0  0
   56.3810   30.1080   44.0440 C   0  0  0  0  0  0  0  0  0  0  0  0
   55.5120   29.7160   44.8690 O   0  0  0  0  0  0  0  0  0  0  0  0
   57.4380   31.0020   44.4690 N   0  0  0  0  0  0  0  0  0  0  0  0
   58.6790   30.4380   45.0500 C   0  0  0  0  0  0  0  0  0  0  0  0
   59.2080   31.3010   46.2050 C   0  0  0  0  0  0  0  0  0  0  0  0
   59.2390   32.7360   45.7820 C   0  0  0  0  0  0  0  0  0  0  0  0
   58.3710   33.2410   44.8500 C   0  0  0  0  0  0  0  0  0  0  0  0
   58.5150   34.6140   44.9060 C   0  0  0  0  0  0  0  0  0  0  0  0
   59.4260   34.8980   45.8580 N   0  0  0  0  0  0  0  0  0  0  0  0
   59.8630   33.7660   46.3940 N   0  0  0  0  0  0  0  0  0  0  0  0
   60.7860   33.7040   47.4920 C   0  0  0  0  0  0  0  0  0  0  0  0
   60.3240   33.8730   48.8070 C   0  0  0  0  0  0  0  0  0  0  0  0
   61.2200   33.8300   49.8800 C   0  0  0  0  0  0  0  0  0  0  0  0
   62.5840   33.6320   49.6440 C   0  0  0  0  0  0  0  0  0  0  0  0
   63.0540   33.4820   48.3370 C   0  0  0  0  0  0  0  0  0  0  0  0
   64.3790   33.3080   48.1080 F   0  0  0  0  0  0  0  0  0  0  0  0
   62.1600   33.5240   47.2630 C   0  0  0  0  0  0  0  0  0  0  0  0
   57.3980   32.4240   44.0620 C   0  0  0  0  0  0  0  0  0  0  0  0
   56.0240   28.5654   42.6099 H   0  0  0  0  0  0  0  0  0  0  0  0
   55.4810   30.2027   42.1089 H   0  0  0  0  0  0  0  0  0  0  0  0
   57.2311   29.7977   42.1089 H   0  0  0  0  0  0  0  0  0  0  0  0
   58.4682   29.4267   45.4280 H   0  0  0  0  0  0  0  0  0  0  0  0
   59.4459   30.4120   44.2619 H   0  0  0  0  0  0  0  0  0  0  0  0
   58.5477   31.1902   47.0777 H   0  0  0  0  0  0  0  0  0  0  0  0
   60.2245   30.9750   46.4705 H   0  0  0  0  0  0  0  0  0  0  0  0
   57.9803   35.3464   44.2833 H   0  0  0  0  0  0  0  0  0  0  0  0
   59.7290   35.8550   46.1480 H   0  0  0  0  0  0  0  0  0  0  0  0
   59.2530   34.0399   48.9941 H   0  0  0  0  0  0  0  0  0  0  0  0
   60.8518   33.9519   50.9094 H   0  0  0  0  0  0  0  0  0  0  0  0
   63.2878   33.5943   50.4885 H   0  0  0  0  0  0  0  0  0  0  0  0
   62.5342   33.4156   46.2343 H   0  0  0  0  0  0  0  0  0  0  0  0
   56.3837   32.8160   44.2278 H   0  0  0  0  0  0  0  0  0  0  0  0
   57.6707   32.4890   42.9983 H   0  0  0  0  0  0  0  0  0  0  0  0
  1  2  1  0
  2  3  2  0
  2  4  1  0
  4  5  1  0
  5  6  1  0
  6  7  1  0
  7  8  2  0
  8  9  1  0
  9 10  2  0
 10 11  1  0
 11 12  1  0
 12 13  2  0
 13 14  1  0
 14 15  2  0
 15 16  1  0
 16 17  1  0
 16 18  2  0
  8 19  1  0
 19  4  1  0
 11  7  1  0
 18 12  1  0
  1 20  1  0
  1 21  1  0
  1 22  1  0
  5 23  1  0
  5 24  1  0
  6 25  1  0
  6 26  1  0
  9 27  1  0
 10 28  1  0
 13 29  1  0
 14 30  1  0
 15 31  1  0
 18 32  1  0
 19 33  1  0
 19 34  1  0
M  CHG  1  10   1
M  END
>  <UniqueID>  (16) 
15

>  <SMILES>  (16) 
CC(=O)N1CCc2c(c[nH+]n2-c2cccc(F)c2)C1

>  <Energy>  (16) 
75.08407986665887

>  <Genealogy>  (16) 
CC(=O)N1CCc2c(c[nH+]n2-c2cccc(F)c2)C1 (protonated)
CC(=O)N1CCc2c(c[nH+]n2-c2cccc(F)c2)C1 (3D coordinates assigned)
CC(=O)N1CCc2c(c[nH+]n2-c2cccc(F)c2)C1 (nonaromatic ring conformer: 75.08407986665887 kcal/mol)

>  <smiles>  (16) 
CC(=O)N1CCc2c(cnn2-c2cccc(F)c2)C1

>  <score_type>  (16) 
oracle

>  <origin>  (16) 
adg

>  <m_score__min__energy>  (16) 
-5.9400000000000004

>  <m_primary>  (16) 
energy

$$$$
16:0
     RDKit          3D

 46 48  0  0  0  0  0  0  0  0999 V2000
   57.4840   28.4110   45.8020 H   0  0  0  0  0  0  0  0  0  0  0  0
   57.3910   29.3180   46.3000 N   0  0  0  0  0  0  0  0  0  0  0  0
   57.8090   30.4940   45.9180 C   0  0  0  0  0  0  0  0  0  0  0  0
   57.1450   31.0780   44.8200 C   0  0  0  0  0  0  0  0  0  0  0  0
   56.1410   30.3570   44.0680 N   0  0  0  0  0  0  0  0  0  0  0  0
   56.1880   30.3250   42.8180 O   0  0  0  0  0  0  0  0  0  0  0  0
   55.1880   29.5940   44.7070 O   0  0  0  0  0  0  0  0  0  0  0  0
   57.4040   32.4060   44.5100 C   0  0  0  0  0  0  0  0  0  0  0  0
   56.8224   32.9039   43.7202 H   0  0  0  0  0  0  0  0  0  0  0  0
   58.3890   33.1120   45.1860 C   0  0  0  0  0  0  0  0  0  0  0  0
   58.5670   34.4690   44.8770 C   0  0  0  0  0  0  0  0  0  0  0  0
   57.9217   34.9479   44.1258 H   0  0  0  0  0  0  0  0  0  0  0  0
   59.5500   35.2090   45.5120 C   0  0  0  0  0  0  0  0  0  0  0  0
   59.6328   36.2900   45.3260 H   0  0  0  0  0  0  0  0  0  0  0  0
   60.4290   34.5850   46.3820 C   0  0  0  0  0  0  0  0  0  0  0  0
   61.2209   35.1767   46.8646 H   0  0  0  0  0  0  0  0  0  0  0  0
   60.3290   33.2080   46.6610 C   0  0  0  0  0  0  0  0  0  0  0  0
   61.5480   32.6140   47.3230 C   0  0  0  0  0  0  0  0  0  0  0  0
   61.4352   32.6690   48.4158 H   0  0  0  0  0  0  0  0  0  0  0  0
   61.6553   31.5626   47.0179 H   0  0  0  0  0  0  0  0  0  0  0  0
   62.4421   33.1774   47.0179 H   0  0  0  0  0  0  0  0  0  0  0  0
   59.1910   32.4600   46.1660 C   0  0  0  0  0  0  0  0  0  0  0  0
   58.8120   31.1850   46.6000 N   0  0  0  0  0  0  0  0  0  0  0  0
   59.2980   30.6280   47.8890 C   0  0  0  0  0  0  0  0  0  0  0  0
   59.6399   31.4577   48.5252 H   0  0  0  0  0  0  0  0  0  0  0  0
   58.4639   30.0803   48.3519 H   0  0  0  0  0  0  0  0  0  0  0  0
   60.4690   29.6310   47.7010 C   0  0  0  0  0  0  0  0  0  0  0  0
   61.3945   30.0970   48.0702 H   0  0  0  0  0  0  0  0  0  0  0  0
   60.2301   28.7173   48.2650 H   0  0  0  0  0  0  0  0  0  0  0  0
   60.6640   29.2410   46.2290 C   0  0  0  0  0  0  0  0  0  0  0  0
   60.5783   30.1425   45.6046 H   0  0  0  0  0  0  0  0  0  0  0  0
   61.6592   28.7856   46.1182 H   0  0  0  0  0  0  0  0  0  0  0  0
   59.6470   28.2560   45.7970 N   0  0  0  0  0  0  0  0  0  0  0  0
   59.9980   26.9060   46.2830 C   0  0  0  0  0  0  0  0  0  0  0  0
   61.0019   26.6410   45.9198 H   0  0  0  0  0  0  0  0  0  0  0  0
   59.9792   26.9096   47.3828 H   0  0  0  0  0  0  0  0  0  0  0  0
   58.9820   25.8620   45.7720 C   0  0  0  0  0  0  0  0  0  0  0  0
   59.5109   25.1245   45.1505 H   0  0  0  0  0  0  0  0  0  0  0  0
   58.5166   25.3809   46.6449 H   0  0  0  0  0  0  0  0  0  0  0  0
   57.9570   26.4620   45.0000 O   0  0  0  0  0  0  0  0  0  0  0  0
   58.5260   27.1250   43.8870 C   0  0  0  0  0  0  0  0  0  0  0  0
   59.0676   26.3908   43.2725 H   0  0  0  0  0  0  0  0  0  0  0  0
   57.7132   27.5939   43.3130 H   0  0  0  0  0  0  0  0  0  0  0  0
   59.5080   28.2320   44.3270 C   0  0  0  0  0  0  0  0  0  0  0  0
   60.4924   28.0413   43.8748 H   0  0  0  0  0  0  0  0  0  0  0  0
   59.1154   29.2042   43.9941 H   0  0  0  0  0  0  0  0  0  0  0  0
  1  2  1  0
  2  3  2  0
  3  4  1  0
  4  5  1  0
  5  6  2  0
  5  7  1  0
  4  8  2  0
  8  9  1  0
  8 10  1  0
 10 11  2  0
 11 12  1  0
 11 13  1  0
 13 14  1  0
 13 15  2  0
 15 16  1  0
 15 17  1  0
 17 18  1  0
 18 19  1  0
 18 20  1  0
 18 21  1  0
 17 22  2  0
 22 23  1  0
 23 24  1  0
 24 25  1  0
 24 26  1  0
 24 27  1  0
 27 28  1  0
 27 29  1  0
 27 30  1  0
 30 31  1  0
 30 32  1  0
 30 33  1  0
 33 34  1  0
 34 35  1  0
 34 36  1  0
 34 37  1  0
 37 38  1  0
 37 39  1  0
 37 40  1  0
 40 41  1  0
 41 42  1  0
 41 43  1  0
 41 44  1  0
 44 45  1  0
 44 46  1  0
 23  3  1  0
 44 33  1  0
 22 10  1  0
M  CHG  2   5   1   7  -1
M  END
>  <UniqueID>  (17) 
16

>  <SMILES>  (17) 
[H]/N=c1/c([N+](=O)[O-])cc2cccc(C)c2n1CCCN1CCOCC1

>  <Energy>  (17) 
90.55766044631363

>  <Genealogy>  (17) 
[H]/N=c1/c([N+](=O)[O-])cc2cccc(C)c2n1CCCN1CCOCC1 (cis-trans isomerization)
[H]/N=c1/c([N+](=O)[O-])cc2cccc(C)c2n1CCCN1CCOCC1 (3D coordinates assigned)
[H]/N=c1/c([N+](=O)[O-])cc2cccc(C)c2n1CCCN1CCOCC1 (nonaromatic ring conformer: 90.55766044631363 kcal/mol)

>  <smiles>  (17) 
Cc1cccc2cc([N+](=O)[O-])c(=N)n(CCCN3CCOCC3)c12

>  <score_type>  (17) 
oracle

>  <origin>  (17) 
adg

>  <m_score__min__energy>  (17) 
-7.0700000000000003

>  <m_primary>  (17) 
energy

$$$$
17:0
     RDKit          3D

 27 28  0  0  0  0  0  0  0  0999 V2000
   57.0180   29.0970   42.8720 C   0  0  0  0  0  0  0  0  0  0  0  0
   56.5150   29.5690   44.5200 S   0  0  0  0  0  0  0  0  0  0  0  0
   56.2050   28.2960   45.2660 O   0  0  0  0  0  0  0  0  0  0  0  0
   55.3410   30.4840   44.5040 O   0  0  0  0  0  0  0  0  0  0  0  0
   57.8960   30.3620   45.2880 C   0  0  0  0  0  0  0  0  0  0  0  0
   58.9520   29.5820   45.7110 C   0  0  0  0  0  0  0  0  0  0  0  0
   60.0430   30.1960   46.3160 C   0  0  0  0  0  0  0  0  0  0  0  0
   60.0790   31.5640   46.4970 C   0  0  0  0  0  0  0  0  0  0  0  0
   61.2650   32.1230   47.1420 C   0  0  0  0  0  0  0  0  0  0  0  0
   61.2300   33.2470   47.9400 C   0  0  0  0  0  0  0  0  0  0  0  0
   62.4170   33.6770   48.4930 C   0  0  0  0  0  0  0  0  0  0  0  0
   63.6220   33.0390   48.2840 C   0  0  0  0  0  0  0  0  0  0  0  0
   64.6790   33.4560   48.8020 O   0  0  0  0  0  0  0  0  0  0  0  0
   63.5880   31.9390   47.4880 N   0  0  0  0  0  0  0  0  0  0  0  0
   62.4440   31.5090   46.9450 N   0  0  0  0  0  0  0  0  0  0  0  0
   59.0170   32.3000   46.0670 C   0  0  0  0  0  0  0  0  0  0  0  0
   57.9050   31.7270   45.4540 C   0  0  0  0  0  0  0  0  0  0  0  0
   57.8189   28.3455   42.9342 H   0  0  0  0  0  0  0  0  0  0  0  0
   56.1578   28.6725   42.3336 H   0  0  0  0  0  0  0  0  0  0  0  0
   57.3870   29.9824   42.3336 H   0  0  0  0  0  0  0  0  0  0  0  0
   58.9314   28.4910   45.5719 H   0  0  0  0  0  0  0  0  0  0  0  0
   60.8904   29.5823   46.6556 H   0  0  0  0  0  0  0  0  0  0  0  0
   60.2875   33.7819   48.1287 H   0  0  0  0  0  0  0  0  0  0  0  0
   62.4027   34.5723   49.1319 H   0  0  0  0  0  0  0  0  0  0  0  0
   64.5020   31.4540   47.3290 H   0  0  0  0  0  0  0  0  0  0  0  0
   59.0381   33.3905   46.2094 H   0  0  0  0  0  0  0  0  0  0  0  0
   57.0618   32.3462   45.1139 H   0  0  0  0  0  0  0  0  0  0  0  0
  1  2  1  0
  2  3  2  0
  2  4  2  0
  2  5  1  0
  5  6  2  0
  6  7  1  0
  7  8  2  0
  8  9  1  0
  9 10  1  0
 10 11  2  0
 11 12  1  0
 12 13  2  0
 12 14  1  0
 14 15  1  0
  8 16  1  0
 16 17  2  0
 17  5  1  0
 15  9  2  0
  1 18  1  0
  1 19  1  0
  1 20  1  0
  6 21  1  0
  7 22  1  0
 10 23  1  0
 11 24  1  0
 14 25  1  0
 16 26  1  0
 17 27  1  0
M  END
>  <smiles>  (18) 
CS(=O)(=O)c1ccc(-c2ccc(=O)[nH]n2)cc1

>  <score_type>  (18) 
oracle

>  <origin>  (18) 
adg

>  <m_score__min__energy>  (18) 
-6.8700000000000001

>  <m_primary>  (18) 
energy

$$$$
18:0
     RDKit          3D

 27 28  0  0  0  0  0  0  0  0999 V2000
   59.2590   35.5550   44.8620 O   0  0  0  0  0  0  0  0  0  0  0  0
   59.3440   34.5930   45.6700 C   0  0  0  0  0  0  0  0  0  0  0  0
   60.1320   34.7610   46.8560 N   0  0  0  0  0  0  0  0  0  0  0  0
   61.2760   33.9770   47.2330 C   0  0  0  0  0  0  0  0  0  0  0  0
   62.3830   33.8440   46.3750 C   0  0  0  0  0  0  0  0  0  0  0  0
   63.4790   33.0650   46.7540 C   0  0  0  0  0  0  0  0  0  0  0  0
   63.4740   32.4020   47.9840 C   0  0  0  0  0  0  0  0  0  0  0  0
   62.3700   32.5090   48.8320 C   0  0  0  0  0  0  0  0  0  0  0  0
   61.2680   33.2890   48.4590 C   0  0  0  0  0  0  0  0  0  0  0  0
   59.7750   33.4150   49.6490 Br  0  0  0  0  0  0  0  0  0  0  0  0
   58.6760   33.3100   45.3440 C   0  0  0  0  0  0  0  0  0  0  0  0
   58.6740   32.2610   46.2770 C   0  0  0  0  0  0  0  0  0  0  0  0
   58.0450   31.0490   45.9800 C   0  0  0  0  0  0  0  0  0  0  0  0
   57.3960   30.8630   44.7470 C   0  0  0  0  0  0  0  0  0  0  0  0
   56.7490   29.6160   44.4360 N   0  0  0  0  0  0  0  0  0  0  0  0
   57.3380   28.7430   43.7640 O   0  0  0  0  0  0  0  0  0  0  0  0
   55.4690   29.3630   44.8730 O   0  0  0  0  0  0  0  0  0  0  0  0
   57.3860   31.9200   43.8200 C   0  0  0  0  0  0  0  0  0  0  0  0
   58.0150   33.1320   44.1180 C   0  0  0  0  0  0  0  0  0  0  0  0
   62.3856   34.3557   45.4013 H   0  0  0  0  0  0  0  0  0  0  0  0
   64.3464   32.9735   46.0838 H   0  0  0  0  0  0  0  0  0  0  0  0
   64.3408   31.7951   48.2845 H   0  0  0  0  0  0  0  0  0  0  0  0
   62.3656   31.9791   49.7960 H   0  0  0  0  0  0  0  0  0  0  0  0
   59.1713   32.3941   47.2491 H   0  0  0  0  0  0  0  0  0  0  0  0
   58.0578   30.2331   46.7177 H   0  0  0  0  0  0  0  0  0  0  0  0
   56.8790   31.7920   42.8522 H   0  0  0  0  0  0  0  0  0  0  0  0
   57.9920   33.9530   43.3863 H   0  0  0  0  0  0  0  0  0  0  0  0
  1  2  2  0
  2  3  1  0
  3  4  1  0
  4  5  2  0
  5  6  1  0
  6  7  2  0
  7  8  1  0
  8  9  2  0
  9 10  1  0
  2 11  1  0
 11 12  2  0
 12 13  1  0
 13 14  2  0
 14 15  1  0
 15 16  2  0
 15 17  1  0
 14 18  1  0
 18 19  2  0
  9  4  1  0
 19 11  1  0
  5 20  1  0
  6 21  1  0
  7 22  1  0
  8 23  1  0
 12 24  1  0
 13 25  1  0
 18 26  1  0
 19 27  1  0
M  CHG  3   3  -1  15   1  17  -1
M  END
>  <UniqueID>  (19) 
17

>  <SMILES>  (19) 
O=C([N-]c1ccccc1Br)c1ccc([N+](=O)[O-])cc1

>  <Energy>  (19) 
36.40944114367803

>  <Genealogy>  (19) 
O=C([N-]c1ccccc1Br)c1ccc([N+](=O)[O-])cc1 (protonated)
O=C([N-]c1ccccc1Br)c1ccc([N+](=O)[O-])cc1 (3D coordinates assigned)
O=C([N-]c1ccccc1Br)c1ccc([N+](=O)[O-])cc1 (optimized conformer: 36.40944114367803 kcal/mol)

>  <smiles>  (19) 
O=C(Nc1ccccc1Br)c1ccc([N+](=O)[O-])cc1

>  <score_type>  (19) 
oracle

>  <origin>  (19) 
adg

>  <m_score__min__energy>  (19) 
-8.6999999999999993

>  <m_primary>  (19) 
energy

$$$$
19:0
     RDKit          3D

 39 41  0  0  0  0  0  0  0  0999 V2000
   60.7510   27.5330   48.1540 C   0  0  0  0  0  0  0  0  0  0  0  0
   59.6080   28.0340   47.3300 C   0  0  0  0  0  0  0  0  0  0  0  0
   58.5360   27.1910   47.0250 C   0  0  0  0  0  0  0  0  0  0  0  0
   57.4640   27.6610   46.2470 C   0  0  0  0  0  0  0  0  0  0  0  0
   56.3330   26.7100   45.9460 C   0  0  0  0  0  0  0  0  0  0  0  0
   57.4910   29.0060   45.7790 C   0  0  0  0  0  0  0  0  0  0  0  0
   56.4780   29.6080   44.9900 C   0  0  0  0  0  0  0  0  0  0  0  0
   55.4480   28.9780   44.6400 O   0  0  0  0  0  0  0  0  0  0  0  0
   56.6100   30.9000   44.5940 N   0  0  0  0  0  0  0  0  0  0  0  0
   57.6940   31.6410   44.9310 C   0  0  0  0  0  0  0  0  0  0  0  0
   57.8260   33.3360   44.3680 S   0  0  0  0  0  0  0  0  0  0  0  0
   57.7660   34.0580   46.0440 C   0  0  0  0  0  0  0  0  0  0  0  0
   59.1360   34.1380   46.6490 C   0  0  0  0  0  0  0  0  0  0  0  0
   59.3820   35.0320   47.5020 O   0  0  0  0  0  0  0  0  0  0  0  0
   60.1630   33.2300   46.2230 N   0  0  0  0  0  0  0  0  0  0  0  0
   61.3880   33.0010   46.9420 C   0  0  0  0  0  0  0  0  0  0  0  0
   61.4270   32.0110   47.9350 C   0  0  0  0  0  0  0  0  0  0  0  0
   62.5980   31.7870   48.6670 C   0  0  0  0  0  0  0  0  0  0  0  0
   63.7350   32.5610   48.4230 C   0  0  0  0  0  0  0  0  0  0  0  0
   64.8680   32.3460   49.1360 F   0  0  0  0  0  0  0  0  0  0  0  0
   63.7000   33.5650   47.4510 C   0  0  0  0  0  0  0  0  0  0  0  0
   62.5320   33.7900   46.7160 C   0  0  0  0  0  0  0  0  0  0  0  0
   58.6780   31.0980   45.6880 N   0  0  0  0  0  0  0  0  0  0  0  0
   58.6050   29.8130   46.1170 C   0  0  0  0  0  0  0  0  0  0  0  0
   59.6150   29.3110   46.8710 N   0  0  0  0  0  0  0  0  0  0  0  0
   60.5079   27.6396   49.2215 H   0  0  0  0  0  0  0  0  0  0  0  0
   60.9324   26.4729   47.9233 H   0  0  0  0  0  0  0  0  0  0  0  0
   61.6535   28.1181   47.9233 H   0  0  0  0  0  0  0  0  0  0  0  0
   58.5312   26.1552   47.3954 H   0  0  0  0  0  0  0  0  0  0  0  0
   55.8996   26.3456   46.8890 H   0  0  0  0  0  0  0  0  0  0  0  0
   55.5592   27.2328   45.3647 H   0  0  0  0  0  0  0  0  0  0  0  0
   56.7152   25.8580   45.3647 H   0  0  0  0  0  0  0  0  0  0  0  0
   57.3407   35.0707   45.9835 H   0  0  0  0  0  0  0  0  0  0  0  0
   57.1416   33.4126   46.6793 H   0  0  0  0  0  0  0  0  0  0  0  0
   60.0300   32.7400   45.3100 H   0  0  0  0  0  0  0  0  0  0  0  0
   60.5309   31.4067   48.1395 H   0  0  0  0  0  0  0  0  0  0  0  0
   62.6234   31.0005   49.4356 H   0  0  0  0  0  0  0  0  0  0  0  0
   64.5931   34.1793   47.2640 H   0  0  0  0  0  0  0  0  0  0  0  0
   62.5068   34.5868   45.9580 H   0  0  0  0  0  0  0  0  0  0  0  0
  1  2  1  0
  2  3  2  0
  3  4  1  0
  4  5  1  0
  4  6  2  0
  6  7  1  0
  7  8  2  0
  7  9  1  0
  9 10  2  0
 10 11  1  0
 11 12  1  0
 12 13  1  0
 13 14  2  0
 13 15  1  0
 15 16  1  0
 16 17  2  0
 17 18  1  0
 18 19  2  0
 19 20  1  0
 19 21  1  0
 21 22  2  0
 10 23  1  0
 23 24  1  0
 24 25  2  0
 25  2  1  0
 24  6  1  0
 22 16  1  0
  1 26  1  0
  1 27  1  0
  1 28  1  0
  3 29  1  0
  5 30  1  0
  5 31  1  0
  5 32  1  0
 12 33  1  0
 12 34  1  0
 15 35  1  0
 17 36  1  0
 18 37  1  0
 21 38  1  0
 22 39  1  0
M  CHG  1  23  -1
M  END
>  <UniqueID>  (20) 
18

>  <SMILES>  (20) 
Cc1cc(C)c2c(=O)nc(SCC(=O)Nc3ccc(F)cc3)[n-]c2n1

>  <Energy>  (20) 
46.34239212162079

>  <Genealogy>  (20) 
Cc1cc(C)c2c(=O)nc(SCC(=O)Nc3ccc(F)cc3)[n-]c2n1 (protonated)
Cc1cc(C)c2c(=O)nc(SCC(=O)Nc3ccc(F)cc3)[n-]c2n1 (3D coordinates assigned)
Cc1cc(C)c2c(=O)nc(SCC(=O)Nc3ccc(F)cc3)[n-]c2n1 (optimized conformer: 46.34239212162079 kcal/mol)

>  <smiles>  (20) 
Cc1cc(C)c2c(=O)nc(SCC(=O)Nc3ccc(F)cc3)[nH]c2n1

>  <score_type>  (20) 
oracle

>  <origin>  (20) 
adg

>  <m_score__min__energy>  (20) 
-9.3699999999999992

>  <m_primary>  (20) 
energy

$$$$
20:0
     RDKit          3D

 46 48  0  0  0  0  0  0  0  0999 V2000
   59.2710   33.1240   50.6520 C   0  0  0  0  0  0  0  0  0  0  0  0
   60.0000   34.1730   50.0250 O   0  0  0  0  0  0  0  0  0  0  0  0
   60.9130   33.9920   48.9720 C   0  0  0  0  0  0  0  0  0  0  0  0
   62.2890   33.7990   49.2100 C   0  0  0  0  0  0  0  0  0  0  0  0
   63.1740   33.6300   48.1430 C   0  0  0  0  0  0  0  0  0  0  0  0
   62.7010   33.6540   46.8310 C   0  0  0  0  0  0  0  0  0  0  0  0
   61.3410   33.8430   46.5810 C   0  0  0  0  0  0  0  0  0  0  0  0
   60.4370   34.0070   47.6440 C   0  0  0  0  0  0  0  0  0  0  0  0
   58.9760   34.2610   47.3490 C   0  0  0  0  0  0  0  0  0  0  0  0
   58.5680   33.5440   46.1270 N   0  0  0  0  0  0  0  0  0  0  0  0
   58.1510   32.2460   46.2460 C   0  0  0  0  0  0  0  0  0  0  0  0
   57.8000   31.4900   45.1170 C   0  0  0  0  0  0  0  0  0  0  0  0
   57.3790   30.0750   45.2520 C   0  0  0  0  0  0  0  0  0  0  0  0
   56.2300   29.7270   44.8680 O   0  0  0  0  0  0  0  0  0  0  0  0
   58.2530   29.0910   45.8370 N   0  0  0  0  0  0  0  0  0  0  0  0
   57.9970   27.6710   45.5760 C   0  0  0  0  0  0  0  0  0  0  0  0
   59.2290   29.4960   46.8240 C   0  0  0  0  0  0  0  0  0  0  0  0
   60.4560   30.0720   46.4410 C   0  0  0  0  0  0  0  0  0  0  0  0
   61.3880   30.4660   47.4070 C   0  0  0  0  0  0  0  0  0  0  0  0
   61.1050   30.2940   48.7640 C   0  0  0  0  0  0  0  0  0  0  0  0
   59.8910   29.7290   49.1580 C   0  0  0  0  0  0  0  0  0  0  0  0
   58.9570   29.3330   48.1970 C   0  0  0  0  0  0  0  0  0  0  0  0
   57.8390   32.1060   43.8610 C   0  0  0  0  0  0  0  0  0  0  0  0
   58.2450   33.4320   43.7480 C   0  0  0  0  0  0  0  0  0  0  0  0
   58.6130   34.1450   44.8920 C   0  0  0  0  0  0  0  0  0  0  0  0
   58.9830   35.3450   44.7670 O   0  0  0  0  0  0  0  0  0  0  0  0
   59.3439   33.2290   51.7446 H   0  0  0  0  0  0  0  0  0  0  0  0
   58.2152   33.1786   50.3481 H   0  0  0  0  0  0  0  0  0  0  0  0
   59.6903   32.1535   50.3481 H   0  0  0  0  0  0  0  0  0  0  0  0
   62.6679   33.7814   50.2425 H   0  0  0  0  0  0  0  0  0  0  0  0
   64.2459   33.4777   48.3375 H   0  0  0  0  0  0  0  0  0  0  0  0
   63.4008   33.5238   45.9923 H   0  0  0  0  0  0  0  0  0  0  0  0
   60.9742   33.8637   45.5442 H   0  0  0  0  0  0  0  0  0  0  0  0
   58.3684   33.9094   48.1959 H   0  0  0  0  0  0  0  0  0  0  0  0
   58.8240   35.3399   47.1981 H   0  0  0  0  0  0  0  0  0  0  0  0
   58.0899   31.7873   47.2439 H   0  0  0  0  0  0  0  0  0  0  0  0
   57.9002   27.1342   46.5313 H   0  0  0  0  0  0  0  0  0  0  0  0
   57.0655   27.5661   45.0005 H   0  0  0  0  0  0  0  0  0  0  0  0
   58.8333   27.2474   45.0005 H   0  0  0  0  0  0  0  0  0  0  0  0
   60.6832   30.2131   45.3740 H   0  0  0  0  0  0  0  0  0  0  0  0
   62.3448   30.9118   47.0976 H   0  0  0  0  0  0  0  0  0  0  0  0
   61.8391   30.6039   49.5224 H   0  0  0  0  0  0  0  0  0  0  0  0
   59.6691   29.5952   50.2270 H   0  0  0  0  0  0  0  0  0  0  0  0
   58.0015   28.8904   48.5149 H   0  0  0  0  0  0  0  0  0  0  0  0
   57.5485   31.5416   42.9626 H   0  0  0  0  0  0  0  0  0  0  0  0
   58.2762   33.9174   42.7614 H   0  0  0  0  0  0  0  0  0  0  0  0
  1  2  1  0
  2  3  1  0
  3  4  2  0
  4  5  1  0
  5  6  2  0
  6  7  1  0
  7  8  2  0
  8  9  1  0
  9 10  1  0
 10 11  1  0
 11 12  2  0
 12 13  1  0
 13 14  2  0
 13 15  1  0
 15 16  1  0
 15 17  1  0
 17 18  2  0
 18 19  1  0
 19 20  2  0
 20 21  1  0
 21 22  2  0
 12 23  1  0
 23 24  2  0
 24 25  1  0
 25 26  2  0
  8  3  1  0
 25 10  1  0
 22 17  1  0
  1 27  1  0
  1 28  1  0
  1 29  1  0
  4 30  1  0
  5 31  1  0
  6 32  1  0
  7 33  1  0
  9 34  1  0
  9 35  1  0
 11 36  1  0
 16 37  1  0
 16 38  1  0
 16 39  1  0
 18 40  1  0
 19 41  1  0
 20 42  1  0
 21 43  1  0
 22 44  1  0
 23 45  1  0
 24 46  1  0
M  END
>  <UniqueID>  (21) 
19

>  <SMILES>  (21) 
COc1ccccc1Cn1cc(C(=O)N(C)c2ccccc2)ccc1=O

>  <Energy>  (21) 
58.998417788123135

>  <Genealogy>  (21) 
COc1ccccc1Cn1cc(C(=O)N(C)c2ccccc2)ccc1=O (3D coordinates assigned)
COc1ccccc1Cn1cc(C(=O)N(C)c2ccccc2)ccc1=O (optimized conformer: 58.998417788123135 kcal/mol)

>  <smiles>  (21) 
COc1ccccc1Cn1cc(C(=O)N(C)c2ccccc2)ccc1=O

>  <score_type>  (21) 
oracle

>  <origin>  (21) 
adg

>  <m_score__min__energy>  (21) 
-8.5

>  <m_primary>  (21) 
energy

$$$$
21:0
     RDKit          3D

 48 48  0  0  0  0  0  0  0  0999 V2000
   59.6080   34.9680   45.6410 C   0  0  0  0  0  0  0  0  0  0  0  0
   58.9090   34.8730   47.0000 C   0  0  0  0  0  0  0  0  0  0  0  0
   57.8380   33.7750   47.0360 C   0  0  0  0  0  0  0  0  0  0  0  0
   57.4020   33.3780   45.6540 C   0  0  0  0  0  0  0  0  0  0  0  0
   56.9300   34.2530   44.8780 O   0  0  0  0  0  0  0  0  0  0  0  0
   57.4900   32.0090   45.2340 N   0  0  0  0  0  0  0  0  0  0  0  0
   57.0260   31.5890   43.9120 C   0  0  0  0  0  0  0  0  0  0  0  0
   56.3890   30.1970   43.9640 C   0  0  0  0  0  0  0  0  0  0  0  0
   56.7060   29.5280   45.2360 N   0  0  0  0  0  0  0  0  0  0  0  0
   58.0220   28.8600   45.2240 C   0  0  0  0  0  0  0  0  0  0  0  0
   58.8910   29.2400   46.4460 C   0  0  2  0  0  0  0  0  0  0  0  0
   58.1440   29.9560   47.3950 O   0  0  0  0  0  0  0  0  0  0  0  0
   60.1380   30.0330   46.0130 C   0  0  0  0  0  0  0  0  0  0  0  0
   60.0030   31.4150   46.3500 O   0  0  0  0  0  0  0  0  0  0  0  0
   60.8480   32.1540   47.1960 C   0  0  0  0  0  0  0  0  0  0  0  0
   62.0480   32.7420   46.7470 C   0  0  0  0  0  0  0  0  0  0  0  0
   62.8580   33.4570   47.6320 C   0  0  0  0  0  0  0  0  0  0  0  0
   62.4860   33.5900   48.9700 C   0  0  0  0  0  0  0  0  0  0  0  0
   61.3030   33.0080   49.4290 C   0  0  0  0  0  0  0  0  0  0  0  0
   60.4770   32.2850   48.5460 C   0  0  0  0  0  0  0  0  0  0  0  0
   59.2780   31.6890   48.9690 O   0  0  0  0  0  0  0  0  0  0  0  0
   58.6110   31.9980   50.1890 C   0  0  0  0  0  0  0  0  0  0  0  0
   60.6875   35.1147   45.7934 H   0  0  0  0  0  0  0  0  0  0  0  0
   59.4403   34.0388   45.0767 H   0  0  0  0  0  0  0  0  0  0  0  0
   59.1984   35.8187   45.0767 H   0  0  0  0  0  0  0  0  0  0  0  0
   59.6636   34.6547   47.7700 H   0  0  0  0  0  0  0  0  0  0  0  0
   58.4075   35.8344   47.1851 H   0  0  0  0  0  0  0  0  0  0  0  0
   58.2496   32.8923   47.5472 H   0  0  0  0  0  0  0  0  0  0  0  0
   56.9617   34.1684   47.5721 H   0  0  0  0  0  0  0  0  0  0  0  0
   57.8880   31.3060   45.8970 H   0  0  0  0  0  0  0  0  0  0  0  0
   56.2806   32.3111   43.5474 H   0  0  0  0  0  0  0  0  0  0  0  0
   57.8924   31.5501   43.2353 H   0  0  0  0  0  0  0  0  0  0  0  0
   55.2975   30.2955   43.8698 H   0  0  0  0  0  0  0  0  0  0  0  0
   56.7900   29.5930   43.1367 H   0  0  0  0  0  0  0  0  0  0  0  0
   56.6580   30.2280   46.0120 H   0  0  0  0  0  0  0  0  0  0  0  0
   57.8649   27.7713   45.2279 H   0  0  0  0  0  0  0  0  0  0  0  0
   58.5552   29.1888   44.3198 H   0  0  0  0  0  0  0  0  0  0  0  0
   59.2311   28.3070   46.9192 H   0  0  0  0  0  0  0  0  0  0  0  0
   58.7090   30.7040   47.7180 H   0  0  0  0  0  0  0  0  0  0  0  0
   61.0217   29.6221   46.5231 H   0  0  0  0  0  0  0  0  0  0  0  0
   60.2502   29.9455   44.9222 H   0  0  0  0  0  0  0  0  0  0  0  0
   62.3480   32.6371   45.6939 H   0  0  0  0  0  0  0  0  0  0  0  0
   63.7910   33.9161   47.2734 H   0  0  0  0  0  0  0  0  0  0  0  0
   63.1258   34.1543   49.6644 H   0  0  0  0  0  0  0  0  0  0  0  0
   61.0144   33.1144   50.4851 H   0  0  0  0  0  0  0  0  0  0  0  0
   59.2453   31.7041   51.0383 H   0  0  0  0  0  0  0  0  0  0  0  0
   58.4138   33.0792   50.2354 H   0  0  0  0  0  0  0  0  0  0  0  0
   57.6588   31.4493   50.2354 H   0  0  0  0  0  0  0  0  0  0  0  0
  1  2  1  0
  2  3  1  0
  3  4  1  0
  4  5  2  0
  4  6  1  0
  6  7  1  0
  7  8  1  0
  8  9  1  0
  9 10  1  0
 10 11  1  0
 11 12  1  0
 11 13  1  0
 13 14  1  0
 14 15  1  0
 15 16  2  0
 16 17  1  0
 17 18  2  0
 18 19  1  0
 19 20  2  0
 20 21  1  0
 21 22  1  0
 20 15  1  0
  1 23  1  0
  1 24  1  0
  1 25  1  0
  2 26  1  0
  2 27  1  0
  3 28  1  0
  3 29  1  0
  6 30  1  0
  7 31  1  0
  7 32  1  0
  8 33  1  0
  8 34  1  0
  9 35  1  0
 10 36  1  0
 10 37  1  0
 11 38  1  1
 12 39  1  0
 13 40  1  0
 13 41  1  0
 16 42  1  0
 17 43  1  0
 18 44  1  0
 19 45  1  0
 22 46  1  0
 22 47  1  0
 22 48  1  0
M  END
>  <UniqueID>  (22) 
20

>  <SMILES>  (22) 
CCCC(=O)NCCNC[C@H](O)COc1ccccc1OC

>  <Energy>  (22) 
36.909172393369175

>  <Genealogy>  (22) 
CCCC(=O)NCCNC[C@H](O)COc1ccccc1OC (chirality)
CCCC(=O)NCCNC[C@H](O)COc1ccccc1OC (3D coordinates assigned)
CCCC(=O)NCCNC[C@H](O)COc1ccccc1OC (optimized conformer: 36.909172393369175 kcal/mol)

>  <smiles>  (22) 
CCCC(=O)NCCNCC(O)COc1ccccc1OC

>  <score_type>  (22) 
oracle

>  <origin>  (22) 
adg

>  <m_score__min__energy>  (22) 
-4.9500000000000002

>  <m_primary>  (22) 
energy

$$$$
22:0
     RDKit          3D

 59 63  0  0  0  0  0  0  0  0999 V2000
   58.0980   26.9030   45.3470 C   0  0  0  0  0  0  0  0  0  0  0  0
   58.1070   28.2530   46.0800 C   0  0  0  0  0  0  0  0  0  0  0  0
   58.0660   29.5060   45.1380 C   0  0  1  0  0  0  0  0  0  0  0  0
   58.6360   29.1830   43.8890 O   0  0  0  0  0  0  0  0  0  0  0  0
   56.6250   29.9090   44.8560 C   0  0  0  0  0  0  0  0  0  0  0  0
   55.6760   29.0850   44.9520 O   0  0  0  0  0  0  0  0  0  0  0  0
   56.3470   31.2030   44.4110 O   0  0  0  0  0  0  0  0  0  0  0  0
   57.3870   32.1330   44.1310 C   0  0  0  0  0  0  0  0  0  0  0  0
   58.4590   32.0320   45.1860 C   0  0  0  0  0  0  0  0  0  0  0  0
   58.7710   30.7510   45.7270 C   0  0  0  0  0  0  0  0  0  0  0  0
   59.7560   30.6690   46.7380 C   0  0  0  0  0  0  0  0  0  0  0  0
   60.3950   31.8370   47.1430 C   0  0  0  0  0  0  0  0  0  0  0  0
   60.1050   33.0340   46.5930 N   0  0  0  0  0  0  0  0  0  0  0  0
   59.1630   33.1740   45.6250 C   0  0  0  0  0  0  0  0  0  0  0  0
   58.9250   34.3110   45.1350 O   0  0  0  0  0  0  0  0  0  0  0  0
   60.9300   34.0930   47.1930 C   0  0  0  0  0  0  0  0  0  0  0  0
   61.7490   33.3300   48.1910 C   0  0  0  0  0  0  0  0  0  0  0  0
   62.7250   33.7810   49.0730 C   0  0  0  0  0  0  0  0  0  0  0  0
   63.3520   32.8350   49.9180 C   0  0  0  0  0  0  0  0  0  0  0  0
   64.3430   33.2180   50.8490 C   0  0  0  0  0  0  0  0  0  0  0  0
   64.7050   34.5630   50.9840 O   0  0  0  0  0  0  0  0  0  0  0  0
   64.3000   35.3420   52.1030 C   0  0  0  0  0  0  0  0  0  0  0  0
   64.9920   32.2320   51.6310 C   0  0  0  0  0  0  0  0  0  0  0  0
   66.0120   32.5910   52.5910 N   0  0  0  0  0  0  0  0  0  0  0  0
   67.2710   31.8930   52.2800 C   0  0  0  0  0  0  0  0  0  0  0  0
   68.4930   32.8190   52.4090 C   0  0  0  0  0  0  0  0  0  0  0  0
   68.4290   34.0450   51.4860 C   0  0  0  0  0  0  0  0  0  0  0  0
   67.3180   34.8470   51.7880 O   0  0  0  0  0  0  0  0  0  0  0  0
   64.6150   30.8840   51.4970 C   0  0  0  0  0  0  0  0  0  0  0  0
   63.6160   30.5040   50.6020 C   0  0  0  0  0  0  0  0  0  0  0  0
   62.9820   31.4610   49.8100 C   0  0  0  0  0  0  0  0  0  0  0  0
   62.0170   31.0700   48.9240 N   0  0  0  0  0  0  0  0  0  0  0  0
   61.4180   32.0010   48.1440 C   0  0  0  0  0  0  0  0  0  0  0  0
   58.0926   26.0859   46.0835 H   0  0  0  0  0  0  0  0  0  0  0  0
   57.1994   26.8342   44.7163 H   0  0  0  0  0  0  0  0  0  0  0  0
   58.9956   26.8222   44.7163 H   0  0  0  0  0  0  0  0  0  0  0  0
   57.2281   28.2910   46.7404 H   0  0  0  0  0  0  0  0  0  0  0  0
   59.0597   28.3048   46.6275 H   0  0  0  0  0  0  0  0  0  0  0  0
   58.1690   29.7070   43.1840 H   0  0  0  0  0  0  0  0  0  0  0  0
   57.8218   31.9091   43.1457 H   0  0  0  0  0  0  0  0  0  0  0  0
   56.9728   33.1521   44.1300 H   0  0  0  0  0  0  0  0  0  0  0  0
   60.0120   29.7018   47.1951 H   0  0  0  0  0  0  0  0  0  0  0  0
   61.5688   34.5762   46.4390 H   0  0  0  0  0  0  0  0  0  0  0  0
   60.3437   34.9113   47.6365 H   0  0  0  0  0  0  0  0  0  0  0  0
   63.0022   34.8448   49.1127 H   0  0  0  0  0  0  0  0  0  0  0  0
   64.5720   34.8189   53.0317 H   0  0  0  0  0  0  0  0  0  0  0  0
   64.8043   36.3191   52.0714 H   0  0  0  0  0  0  0  0  0  0  0  0
   63.2105   35.4905   52.0714 H   0  0  0  0  0  0  0  0  0  0  0  0
   66.1650   33.6250   52.5450 H   0  0  0  0  0  0  0  0  0  0  0  0
   65.7020   32.3610   53.5630 H   0  0  0  0  0  0  0  0  0  0  0  0
   67.3902   31.0494   52.9758 H   0  0  0  0  0  0  0  0  0  0  0  0
   67.2174   31.5459   51.2376 H   0  0  0  0  0  0  0  0  0  0  0  0
   68.5570   33.1690   53.4499 H   0  0  0  0  0  0  0  0  0  0  0  0
   69.3763   32.2345   52.1121 H   0  0  0  0  0  0  0  0  0  0  0  0
   69.3461   34.6389   51.6134 H   0  0  0  0  0  0  0  0  0  0  0  0
   68.3358   33.6958   50.4471 H   0  0  0  0  0  0  0  0  0  0  0  0
   66.8200   34.9710   50.9380 H   0  0  0  0  0  0  0  0  0  0  0  0
   65.1157   30.1180   52.1074 H   0  0  0  0  0  0  0  0  0  0  0  0
   63.3268   29.4458   50.5202 H   0  0  0  0  0  0  0  0  0  0  0  0
  1  2  1  0
  2  3  1  0
  3  4  1  6
  3  5  1  0
  5  6  2  0
  5  7  1  0
  7  8  1  0
  8  9  1  0
  9 10  2  0
 10 11  1  0
 11 12  2  0
 12 13  1  0
 13 14  1  0
 14 15  2  0
 13 16  1  0
 16 17  1  0
 17 18  2  0
 18 19  1  0
 19 20  2  0
 20 21  1  0
 21 22  1  0
 20 23  1  0
 23 24  1  0
 24 25  1  0
 25 26  1  0
 26 27  1  0
 27 28  1  0
 23 29  2  0
 29 30  1  0
 30 31  2  0
 31 32  1  0
 32 33  2  0
 10  3  1  0
 33 12  1  0
 14  9  1  0
 33 17  1  0
 31 19  1  0
  1 34  1  0
  1 35  1  0
  1 36  1  0
  2 37  1  0
  2 38  1  0
  4 39  1  0
  8 40  1  0
  8 41  1  0
 11 42  1  0
 16 43  1  0
 16 44  1  0
 18 45  1  0
 22 46  1  0
 22 47  1  0
 22 48  1  0
 24 49  1  0
 24 50  1  0
 25 51  1  0
 25 52  1  0
 26 53  1  0
 26 54  1  0
 27 55  1  0
 27 56  1  0
 28 57  1  0
 29 58  1  0
 30 59  1  0
M  CHG  1  24   1
M  END
>  <UniqueID>  (23) 
21

>  <SMILES>  (23) 
CC[C@@]1(O)C(=O)OCc2c1cc1n(c2=O)Cc2cc3c(OC)c([NH2+]CCCO)ccc3nc2-1

>  <Energy>  (23) 
110.36004265977232

>  <Genealogy>  (23) 
CCC1(O)C(=O)OCc2c1cc1n(c2=O)Cc2cc3c(OC)c([NH2+]CCCO)ccc3nc2-1 (protonated)
CC[C@@]1(O)C(=O)OCc2c1cc1n(c2=O)Cc2cc3c(OC)c([NH2+]CCCO)ccc3nc2-1 (chirality)
CC[C@@]1(O)C(=O)OCc2c1cc1n(c2=O)Cc2cc3c(OC)c([NH2+]CCCO)ccc3nc2-1 (3D coordinates assigned)
CC[C@@]1(O)C(=O)OCc2c1cc1n(c2=O)Cc2cc3c(OC)c([NH2+]CCCO)ccc3nc2-1 (nonaromatic ring conformer: 110.36004265977232 kcal/mol)

>  <smiles>  (23) 
CCC1(O)C(=O)OCc2c1cc1n(c2=O)Cc2cc3c(OC)c(NCCCO)ccc3nc2-1

>  <score_type>  (23) 
oracle

>  <origin>  (23) 
adg

>  <m_score__min__energy>  (23) 
-5.9800000000000004

>  <m_primary>  (23) 
energy

$$$$
23:0
     RDKit          3D

 37 39  0  0  0  0  0  0  0  0999 V2000
   59.3200   34.8600   45.5390 C   0  0  0  0  0  0  0  0  0  0  0  0
   58.6690   33.5570   45.1800 C   0  0  0  0  0  0  0  0  0  0  0  0
   58.4280   33.2350   43.8370 C   0  0  0  0  0  0  0  0  0  0  0  0
   57.8420   32.0120   43.5000 C   0  0  0  0  0  0  0  0  0  0  0  0
   57.4830   31.0990   44.5030 C   0  0  0  0  0  0  0  0  0  0  0  0
   56.6890   29.5740   44.0900 S   0  0  0  0  0  0  0  0  0  0  0  0
   56.1390   29.6920   42.6970 O   0  0  0  0  0  0  0  0  0  0  0  0
   55.5290   29.3530   45.0220 O   0  0  0  0  0  0  0  0  0  0  0  0
   57.7640   28.1900   44.1510 N   0  0  0  0  0  0  0  0  0  0  0  0
   57.4340   27.2350   45.2410 C   0  0  0  0  0  0  0  0  0  0  0  0
   57.7800   27.7530   46.6560 C   0  0  0  0  0  0  0  0  0  0  0  0
   59.0630   28.5240   46.6370 C   0  0  0  0  0  0  0  0  0  0  0  0
   59.6800   28.9250   45.4900 C   0  0  0  0  0  0  0  0  0  0  0  0
   60.7400   29.7110   45.8910 C   0  0  0  0  0  0  0  0  0  0  0  0
   60.7250   29.8000   47.2390 N   0  0  0  0  0  0  0  0  0  0  0  0
   59.7070   29.0720   47.6840 N   0  0  0  0  0  0  0  0  0  0  0  0
   59.2970   29.0190   49.0810 C   0  0  0  0  0  0  0  0  0  0  0  0
   59.1920   28.5760   44.1210 C   0  0  0  0  0  0  0  0  0  0  0  0
   57.7760   31.3990   45.8410 C   0  0  0  0  0  0  0  0  0  0  0  0
   58.3630   32.6220   46.1790 C   0  0  0  0  0  0  0  0  0  0  0  0
   59.3682   34.9565   46.6337 H   0  0  0  0  0  0  0  0  0  0  0  0
   60.3380   34.8881   45.1233 H   0  0  0  0  0  0  0  0  0  0  0  0
   58.7311   35.6909   45.1233 H   0  0  0  0  0  0  0  0  0  0  0  0
   58.7013   33.9480   43.0452 H   0  0  0  0  0  0  0  0  0  0  0  0
   57.6614   31.7640   42.4437 H   0  0  0  0  0  0  0  0  0  0  0  0
   56.3546   27.0263   45.2032 H   0  0  0  0  0  0  0  0  0  0  0  0
   58.0450   26.3359   45.0727 H   0  0  0  0  0  0  0  0  0  0  0  0
   56.9700   28.4082   47.0090 H   0  0  0  0  0  0  0  0  0  0  0  0
   57.8945   26.8915   47.3303 H   0  0  0  0  0  0  0  0  0  0  0  0
   61.4749   30.1861   45.2245 H   0  0  0  0  0  0  0  0  0  0  0  0
   60.1801   29.1332   49.7269 H   0  0  0  0  0  0  0  0  0  0  0  0
   58.5855   29.8326   49.2855 H   0  0  0  0  0  0  0  0  0  0  0  0
   58.8158   28.0512   49.2855 H   0  0  0  0  0  0  0  0  0  0  0  0
   59.3155   29.4478   43.4617 H   0  0  0  0  0  0  0  0  0  0  0  0
   59.7781   27.7241   43.7460 H   0  0  0  0  0  0  0  0  0  0  0  0
   57.5427   30.6680   46.6291 H   0  0  0  0  0  0  0  0  0  0  0  0
   58.5854   32.8514   47.2316 H   0  0  0  0  0  0  0  0  0  0  0  0
  1  2  1  0
  2  3  2  0
  3  4  1  0
  4  5  2  0
  5  6  1  0
  6  7  2  0
  6  8  2  0
  6  9  1  0
  9 10  1  0
 10 11  1  0
 11 12  1  0
 12 13  2  0
 13 14  1  0
 14 15  2  0
 15 16  1  0
 16 17  1  0
 13 18  1  0
  5 19  1  0
 19 20  2  0
 20  2  1  0
 18  9  1  0
 16 12  1  0
  1 21  1  0
  1 22  1  0
  1 23  1  0
  3 24  1  0
  4 25  1  0
 10 26  1  0
 10 27  1  0
 11 28  1  0
 11 29  1  0
 14 30  1  0
 17 31  1  0
 17 32  1  0
 17 33  1  0
 18 34  1  0
 18 35  1  0
 19 36  1  0
 20 37  1  0
M  END
>  <UniqueID>  (24) 
22

>  <SMILES>  (24) 
Cc1ccc(S(=O)(=O)N2CCc3c(cnn3C)C2)cc1

>  <Energy>  (24) 
72.1595978102386

>  <Genealogy>  (24) 
Cc1ccc(S(=O)(=O)N2CCc3c(cnn3C)C2)cc1 (3D coordinates assigned)
Cc1ccc(S(=O)(=O)N2CCc3c(cnn3C)C2)cc1 (nonaromatic ring conformer: 72.1595978102386 kcal/mol)

>  <smiles>  (24) 
Cc1ccc(S(=O)(=O)N2CCc3c(cnn3C)C2)cc1

>  <score_type>  (24) 
oracle

>  <origin>  (24) 
adg

>  <m_score__min__energy>  (24) 
-7.5199999999999996

>  <m_primary>  (24) 
energy

$$$$
24:0
     RDKit          3D

 35 36  0  0  0  0  0  0  0  0999 V2000
   60.9050   30.8330   47.1270 C   0  0  0  0  0  0  0  0  0  0  0  0
   60.4630   29.6510   47.9660 C   0  0  0  0  0  0  0  0  0  0  0  0
   59.6980   28.7130   47.1340 N   0  0  0  0  0  0  0  0  0  0  0  0
   58.6160   28.0270   47.7810 C   0  0  0  0  0  0  0  0  0  0  0  0
   60.1120   28.5720   45.8040 C   0  0  0  0  0  0  0  0  0  0  0  0
   61.0510   27.7430   45.5600 O   0  0  0  0  0  0  0  0  0  0  0  0
   59.5520   29.3130   44.6470 C   0  0  0  0  0  0  0  0  0  0  0  0
   58.0940   29.3630   44.7550 N   0  0  0  0  0  0  0  0  0  0  0  0
   57.3380   30.4450   44.9200 C   0  0  0  0  0  0  0  0  0  0  0  0
   57.7830   31.8280   45.0010 C   0  0  0  0  0  0  0  0  0  0  0  0
   58.1620   32.5760   43.9050 C   0  0  0  0  0  0  0  0  0  0  0  0
   58.5720   33.8790   44.1330 C   0  0  0  0  0  0  0  0  0  0  0  0
   58.6070   34.4320   45.4130 C   0  0  0  0  0  0  0  0  0  0  0  0
   58.2240   33.6740   46.5130 C   0  0  0  0  0  0  0  0  0  0  0  0
   57.8170   32.3780   46.2830 C   0  0  0  0  0  0  0  0  0  0  0  0
   56.0260   30.0730   44.9900 N   0  0  0  0  0  0  0  0  0  0  0  0
   56.0050   28.7410   44.8610 N   0  0  0  0  0  0  0  0  0  0  0  0
   57.2690   28.3100   44.7190 C   0  0  0  0  0  0  0  0  0  0  0  0
   57.7270   26.7250   44.5410 S   0  0  0  0  0  0  0  0  0  0  0  0
   61.2131   31.6568   47.7876 H   0  0  0  0  0  0  0  0  0  0  0  0
   61.7526   30.5355   46.4922 H   0  0  0  0  0  0  0  0  0  0  0  0
   60.0701   31.1647   46.4922 H   0  0  0  0  0  0  0  0  0  0  0  0
   61.3480   29.1405   48.3737 H   0  0  0  0  0  0  0  0  0  0  0  0
   59.8292   30.0066   48.7917 H   0  0  0  0  0  0  0  0  0  0  0  0
   58.7344   28.1021   48.8720 H   0  0  0  0  0  0  0  0  0  0  0  0
   57.6612   28.4851   47.4834 H   0  0  0  0  0  0  0  0  0  0  0  0
   58.6231   26.9680   47.4834 H   0  0  0  0  0  0  0  0  0  0  0  0
   59.9538   30.3370   44.6390 H   0  0  0  0  0  0  0  0  0  0  0  0
   59.8317   28.8002   43.7149 H   0  0  0  0  0  0  0  0  0  0  0  0
   58.1393   32.1536   42.8896 H   0  0  0  0  0  0  0  0  0  0  0  0
   58.8799   34.4977   43.2772 H   0  0  0  0  0  0  0  0  0  0  0  0
   58.9388   35.4715   45.5522 H   0  0  0  0  0  0  0  0  0  0  0  0
   58.2450   34.0933   47.5298 H   0  0  0  0  0  0  0  0  0  0  0  0
   57.5090   31.7571   47.1372 H   0  0  0  0  0  0  0  0  0  0  0  0
   55.1500   28.1140   44.8720 H   0  0  0  0  0  0  0  0  0  0  0  0
  1  2  1  0
  2  3  1  0
  3  4  1  0
  3  5  1  0
  5  6  2  0
  5  7  1  0
  7  8  1  0
  8  9  1  0
  9 10  1  0
 10 11  2  0
 11 12  1  0
 12 13  2  0
 13 14  1  0
 14 15  2  0
  9 16  2  0
 16 17  1  0
 17 18  1  0
 18 19  2  0
 18  8  1  0
 15 10  1  0
  1 20  1  0
  1 21  1  0
  1 22  1  0
  2 23  1  0
  2 24  1  0
  4 25  1  0
  4 26  1  0
  4 27  1  0
  7 28  1  0
  7 29  1  0
 11 30  1  0
 12 31  1  0
 13 32  1  0
 14 33  1  0
 15 34  1  0
 17 35  1  0
M  END
>  <smiles>  (25) 
CCN(C)C(=O)Cn1c(-c2ccccc2)n[nH]c1=S

>  <score_type>  (25) 
oracle

>  <origin>  (25) 
adg

>  <m_score__min__energy>  (25) 
-6.5599999999999996

>  <m_primary>  (25) 
energy

$$$$
25:0
     RDKit          3D

 38 41  0  0  1  0  0  0  0  0999 V2000
   66.1490   32.4860   50.8720 C   0  0  0  0  0  0  0  0  0  0  0  0
   64.8770   33.1730   50.5110 C   0  0  0  0  0  0  0  0  0  0  0  0
   64.3090   34.1760   51.2290 N   0  0  0  0  0  0  0  0  0  0  0  0
   63.1610   34.5550   50.5980 C   0  0  0  0  0  0  0  0  0  0  0  0
   63.0380   33.7720   49.4890 N   0  0  0  0  0  0  0  0  0  0  0  0
   61.9400   33.9030   48.5920 C   0  0  0  0  0  0  0  0  0  0  0  0
   60.7020   34.1560   49.1840 C   0  0  0  0  0  0  0  0  0  0  0  0
   59.6120   34.2890   48.3480 C   0  0  0  0  0  0  0  0  0  0  0  0
   59.7360   34.1770   46.9720 C   0  0  0  0  0  0  0  0  0  0  0  0
   58.5420   34.3340   46.2150 N   0  0  0  0  0  0  0  0  0  0  0  0
   58.1670   33.3330   45.4910 C   0  0  0  0  0  0  0  0  0  0  0  0
   58.1670   33.5350   44.1500 N   0  0  0  0  0  0  0  0  0  0  0  0
   57.7910   32.5490   43.3120 C   0  0  0  0  0  0  0  0  0  0  0  0
   57.7860   32.7220   42.0380 N   0  0  0  0  0  0  0  0  0  0  0  0
   57.4030   31.3220   43.8130 C   0  0  0  0  0  0  0  0  0  0  0  0
   57.0260   30.3360   42.9270 C   0  0  0  0  0  0  0  0  0  0  0  0
   56.6380   29.1050   43.4650 C   0  0  0  0  0  0  0  0  0  0  0  0
   56.6610   28.9680   44.8240 C   0  0  0  0  0  0  0  0  0  0  0  0
   57.0300   29.9330   45.6830 N   0  0  0  0  0  0  0  0  0  0  0  0
   57.4070   31.1280   45.1840 C   0  0  0  0  0  0  0  0  0  0  0  0
   57.7940   32.1470   46.0030 N   0  0  0  0  0  0  0  0  0  0  0  0
   60.9650   33.9270   46.3950 C   0  0  0  0  0  0  0  0  0  0  0  0
   62.0810   33.7880   47.2180 C   0  0  0  0  0  0  0  0  0  0  0  0
   63.6530   33.4720   46.5340 Cl  0  0  0  0  0  0  0  0  0  0  0  0
   64.0680   32.9570   49.4540 N   0  0  0  0  0  0  0  0  0  0  0  0
   66.2409   32.4363   51.9670 H   0  0  0  0  0  0  0  0  0  0  0  0
   66.1457   31.4670   50.4577 H   0  0  0  0  0  0  0  0  0  0  0  0
   66.9994   33.0475   50.4577 H   0  0  0  0  0  0  0  0  0  0  0  0
   62.4659   35.3433   50.9225 H   0  0  0  0  0  0  0  0  0  0  0  0
   60.5988   34.2460   50.2754 H   0  0  0  0  0  0  0  0  0  0  0  0
   58.6219   34.4885   48.7837 H   0  0  0  0  0  0  0  0  0  0  0  0
   58.4480   34.4290   43.7410 H   0  0  0  0  0  0  0  0  0  0  0  0
   57.0050   33.1430   41.5090 H   0  0  0  0  0  0  0  0  0  0  0  0
   57.0301   30.5103   41.8409 H   0  0  0  0  0  0  0  0  0  0  0  0
   56.3246   28.2744   42.8154 H   0  0  0  0  0  0  0  0  0  0  0  0
   56.3557   27.9987   45.2450 H   0  0  0  0  0  0  0  0  0  0  0  0
   57.8000   32.0090   47.0510 H   0  0  0  0  0  0  0  0  0  0  0  0
   61.0618   33.8389   45.3028 H   0  0  0  0  0  0  0  0  0  0  0  0
  1  2  1  0
  2  3  1  0
  3  4  2  0
  4  5  1  0
  5  6  1  0
  6  7  2  0
  7  8  1  0
  8  9  2  0
  9 10  1  0
 10 11  2  0
 11 12  1  0
 12 13  1  0
 13 14  2  3
 13 15  1  0
 15 16  2  0
 16 17  1  0
 17 18  2  0
 18 19  1  0
 19 20  2  0
 20 21  1  0
  9 22  1  0
 22 23  2  0
 23 24  1  0
  5 25  1  0
 25  2  2  0
 23  6  1  0
 21 11  1  0
 20 15  1  0
  1 26  1  0
  1 27  1  0
  1 28  1  0
  4 29  1  0
  7 30  1  0
  8 31  1  0
 12 32  1  0
 14 33  1  0
 16 34  1  0
 17 35  1  0
 18 36  1  0
 21 37  1  0
 22 38  1  0
M  END
>  <smiles>  (26) 
Cc1ncn(-c2ccc(N=c3[nH]c(=N)c4cccnc4[nH]3)cc2Cl)n1

>  <score_type>  (26) 
oracle

>  <origin>  (26) 
adg

>  <m_score__min__energy>  (26) 
-7.6100000000000003

>  <m_primary>  (26) 
energy

$$$$
26:0
     RDKit          3D

 38 41  0  0  0  0  0  0  0  0999 V2000
   63.3940   33.9500   46.5660 C   0  0  0  0  0  0  0  0  0  0  0  0
   63.1490   33.4990   47.9470 N   0  0  0  0  0  0  0  0  0  0  0  0
   63.3850   32.0470   48.0990 C   0  0  0  0  0  0  0  0  0  0  0  0
   62.3240   31.2150   47.3610 C   0  0  0  0  0  0  0  0  0  0  0  0
   60.9930   31.8070   47.5330 N   0  0  0  0  0  0  0  0  0  0  0  0
   59.9750   31.5760   46.5460 C   0  0  0  0  0  0  0  0  0  0  0  0
   59.6680   30.3000   46.1610 N   0  0  0  0  0  0  0  0  0  0  0  0
   58.6860   30.0480   45.2440 C   0  0  0  0  0  0  0  0  0  0  0  0
   58.3950   28.7690   44.8840 N   0  0  0  0  0  0  0  0  0  0  0  0
   57.4220   28.4860   43.9750 C   0  0  0  0  0  0  0  0  0  0  0  0
   56.6900   29.5200   43.3850 C   0  0  0  0  0  0  0  0  0  0  0  0
   56.9610   30.8450   43.7310 C   0  0  0  0  0  0  0  0  0  0  0  0
   57.9670   31.1230   44.6710 C   0  0  0  0  0  0  0  0  0  0  0  0
   58.2950   32.3880   45.0610 N   0  0  0  0  0  0  0  0  0  0  0  0
   57.8070   33.5810   44.6630 C   0  0  0  0  0  0  0  0  0  0  0  0
   58.4850   34.5940   45.3190 C   0  0  0  0  0  0  0  0  0  0  0  0
   59.4200   33.9930   46.1480 C   0  0  0  0  0  0  0  0  0  0  0  0
   59.2630   32.6320   45.9640 C   0  0  0  0  0  0  0  0  0  0  0  0
   60.7860   32.8100   48.5780 C   0  0  0  0  0  0  0  0  0  0  0  0
   61.8220   33.9430   48.4480 C   0  0  0  0  0  0  0  0  0  0  0  0
   63.9190   34.9165   46.5836 H   0  0  0  0  0  0  0  0  0  0  0  0
   64.0122   33.2064   46.0417 H   0  0  0  0  0  0  0  0  0  0  0  0
   62.4337   34.0639   46.0417 H   0  0  0  0  0  0  0  0  0  0  0  0
   64.3765   31.8029   47.6900 H   0  0  0  0  0  0  0  0  0  0  0  0
   63.3272   31.8019   49.1698 H   0  0  0  0  0  0  0  0  0  0  0  0
   62.5701   31.1837   46.2893 H   0  0  0  0  0  0  0  0  0  0  0  0
   62.3167   30.1977   47.7793 H   0  0  0  0  0  0  0  0  0  0  0  0
   60.1860   29.4980   46.5850 H   0  0  0  0  0  0  0  0  0  0  0  0
   57.2114   27.4409   43.7042 H   0  0  0  0  0  0  0  0  0  0  0  0
   55.9035   29.2907   42.6509 H   0  0  0  0  0  0  0  0  0  0  0  0
   56.3908   31.6654   43.2708 H   0  0  0  0  0  0  0  0  0  0  0  0
   56.9977   33.7260   43.9322 H   0  0  0  0  0  0  0  0  0  0  0  0
   58.3139   35.6745   45.2040 H   0  0  0  0  0  0  0  0  0  0  0  0
   60.1375   34.4949   46.8137 H   0  0  0  0  0  0  0  0  0  0  0  0
   59.7744   33.2310   48.4810 H   0  0  0  0  0  0  0  0  0  0  0  0
   60.9032   32.3305   49.5610 H   0  0  0  0  0  0  0  0  0  0  0  0
   61.4244   34.6961   47.7517 H   0  0  0  0  0  0  0  0  0  0  0  0
   61.9831   34.3424   49.4602 H   0  0  0  0  0  0  0  0  0  0  0  0
  1  2  1  0
  2  3  1  0
  3  4  1  0
  4  5  1  0
  5  6  1  0
  6  7  2  0
  7  8  1  0
  8  9  2  0
  9 10  1  0
 10 11  2  0
 11 12  1  0
 12 13  2  0
 13 14  1  0
 14 15  1  0
 15 16  2  0
 16 17  1  0
 17 18  2  0
  5 19  1  0
 19 20  1  0
 20  2  1  0
 18  6  1  0
 13  8  1  0
 18 14  1  0
  1 21  1  0
  1 22  1  0
  1 23  1  0
  3 24  1  0
  3 25  1  0
  4 26  1  0
  4 27  1  0
  7 28  1  0
 10 29  1  0
 11 30  1  0
 12 31  1  0
 15 32  1  0
 16 33  1  0
 17 34  1  0
 19 35  1  0
 19 36  1  0
 20 37  1  0
 20 38  1  0
M  CHG  1   7   1
M  END
>  <UniqueID>  (27) 
23

>  <SMILES>  (27) 
CN1CCN(c2[nH+]c3ncccc3n3cccc23)CC1

>  <Energy>  (27) 
90.02431494227592

>  <Genealogy>  (27) 
CN1CCN(c2[nH+]c3ncccc3n3cccc23)CC1 (protonated)
CN1CCN(c2[nH+]c3ncccc3n3cccc23)CC1 (3D coordinates assigned)
CN1CCN(c2[nH+]c3ncccc3n3cccc23)CC1 (nonaromatic ring conformer: 90.02431494227592 kcal/mol)

>  <smiles>  (27) 
CN1CCN(c2nc3ncccc3n3cccc23)CC1

>  <score_type>  (27) 
oracle

>  <origin>  (27) 
adg

>  <m_score__min__energy>  (27) 
-5.3899999999999997

>  <m_primary>  (27) 
energy

$$$$
27:0
     RDKit          3D

 27 29  0  0  0  0  0  0  0  0999 V2000
   58.2350   28.7130   46.0780 C   0  0  0  0  0  0  0  0  0  0  0  0
   58.0260   30.1520   45.7300 C   0  0  0  0  0  0  0  0  0  0  0  0
   58.8850   31.1430   46.2410 C   0  0  0  0  0  0  0  0  0  0  0  0
   58.6520   32.4310   45.8770 N   0  0  0  0  0  0  0  0  0  0  0  0
   59.3010   33.5800   46.1680 C   0  0  0  0  0  0  0  0  0  0  0  0
   60.4510   33.7320   47.0850 C   0  0  0  0  0  0  0  0  0  0  0  0
   60.2440   34.0980   48.4240 C   0  0  0  0  0  0  0  0  0  0  0  0
   61.3000   34.2190   49.2720 N   0  0  0  0  0  0  0  0  0  0  0  0
   62.5760   33.9830   48.8650 C   0  0  0  0  0  0  0  0  0  0  0  0
   62.8260   33.5970   47.5480 C   0  0  0  0  0  0  0  0  0  0  0  0
   64.0950   33.3410   47.1400 F   0  0  0  0  0  0  0  0  0  0  0  0
   61.7590   33.4650   46.6570 C   0  0  0  0  0  0  0  0  0  0  0  0
   58.6890   34.6040   45.4550 C   0  0  0  0  0  0  0  0  0  0  0  0
   57.6620   34.0900   44.7420 N   0  0  0  0  0  0  0  0  0  0  0  0
   57.6740   32.7740   45.0230 C   0  0  0  0  0  0  0  0  0  0  0  0
   56.8230   31.8070   44.4990 C   0  0  0  0  0  0  0  0  0  0  0  0
   57.0230   30.5090   44.8700 N   0  0  0  0  0  0  0  0  0  0  0  0
   58.2516   28.5990   47.1719 H   0  0  0  0  0  0  0  0  0  0  0  0
   57.4148   28.1116   45.6590 H   0  0  0  0  0  0  0  0  0  0  0  0
   59.1924   28.3698   45.6590 H   0  0  0  0  0  0  0  0  0  0  0  0
   59.7168   30.8834   46.9123 H   0  0  0  0  0  0  0  0  0  0  0  0
   59.2237   34.2877   48.7888 H   0  0  0  0  0  0  0  0  0  0  0  0
   63.4099   34.0963   49.5734 H   0  0  0  0  0  0  0  0  0  0  0  0
   61.9448   33.1515   45.6191 H   0  0  0  0  0  0  0  0  0  0  0  0
   58.9914   35.6615   45.4687 H   0  0  0  0  0  0  0  0  0  0  0  0
   57.0130   34.6040   44.1060 H   0  0  0  0  0  0  0  0  0  0  0  0
   56.0132   32.0801   43.8065 H   0  0  0  0  0  0  0  0  0  0  0  0
  1  2  1  0
  2  3  2  0
  3  4  1  0
  4  5  1  0
  5  6  1  0
  6  7  2  0
  7  8  1  0
  8  9  2  0
  9 10  1  0
 10 11  1  0
 10 12  2  0
  5 13  2  0
 13 14  1  0
 14 15  2  0
 15 16  1  0
 16 17  2  0
 17  2  1  0
 15  4  1  0
 12  6  1  0
  1 18  1  0
  1 19  1  0
  1 20  1  0
  3 21  1  0
  7 22  1  0
  9 23  1  0
 12 24  1  0
 13 25  1  0
 14 26  1  0
 16 27  1  0
M  CHG  1  14   1
M  END
>  <UniqueID>  (28) 
24

>  <SMILES>  (28) 
Cc1cn2c(-c3cncc(F)c3)c[nH+]c2cn1

>  <Energy>  (28) 
72.33667800327093

>  <Genealogy>  (28) 
Cc1cn2c(-c3cncc(F)c3)c[nH+]c2cn1 (protonated)
Cc1cn2c(-c3cncc(F)c3)c[nH+]c2cn1 (3D coordinates assigned)
Cc1cn2c(-c3cncc(F)c3)c[nH+]c2cn1 (optimized conformer: 72.33667800327093 kcal/mol)

>  <smiles>  (28) 
Cc1cn2c(-c3cncc(F)c3)cnc2cn1

>  <score_type>  (28) 
oracle

>  <origin>  (28) 
adg

>  <m_score__min__energy>  (28) 
-4.3700000000000001

>  <m_primary>  (28) 
energy

$$$$
28:0
     RDKit          3D

 35 36  0  0  0  0  0  0  0  0999 V2000
   59.2230   34.8150   45.2430 C   0  0  0  0  0  0  0  0  0  0  0  0
   59.7020   33.5740   46.0090 C   0  0  0  0  0  0  0  0  0  0  0  0
   58.9090   32.3480   45.7450 N   0  0  0  0  0  0  0  0  0  0  0  0
   58.9430   31.3660   46.8520 C   0  0  0  0  0  0  0  0  0  0  0  0
   59.0290   29.9660   46.3180 C   0  0  0  0  0  0  0  0  0  0  0  0
   59.9940   29.6170   45.3620 C   0  0  0  0  0  0  0  0  0  0  0  0
   60.0280   28.3090   44.8700 C   0  0  0  0  0  0  0  0  0  0  0  0
   59.1040   27.3700   45.3290 C   0  0  0  0  0  0  0  0  0  0  0  0
   58.1540   27.7550   46.2780 C   0  0  0  0  0  0  0  0  0  0  0  0
   58.1350   29.0310   46.7450 N   0  0  0  0  0  0  0  0  0  0  0  0
   57.5280   32.6490   45.3170 C   0  0  0  0  0  0  0  0  0  0  0  0
   57.0170   31.5610   44.4180 C   0  0  0  0  0  0  0  0  0  0  0  0
   56.2580   30.5380   44.8640 N   0  0  0  0  0  0  0  0  0  0  0  0
   56.0490   29.7770   43.7700 C   0  0  0  0  0  0  0  0  0  0  0  0
   56.6830   30.3420   42.6860 C   0  0  0  0  0  0  0  0  0  0  0  0
   57.2810   31.4730   43.0960 N   0  0  0  0  0  0  0  0  0  0  0  0
   58.1340   32.3420   42.2910 C   0  0  0  0  0  0  0  0  0  0  0  0
   58.9222   35.5942   45.9588 H   0  0  0  0  0  0  0  0  0  0  0  0
   60.0397   35.1934   44.6107 H   0  0  0  0  0  0  0  0  0  0  0  0
   58.3639   34.5466   44.6107 H   0  0  0  0  0  0  0  0  0  0  0  0
   60.7463   33.3762   45.7254 H   0  0  0  0  0  0  0  0  0  0  0  0
   59.5843   33.8002   47.0790 H   0  0  0  0  0  0  0  0  0  0  0  0
   59.8205   31.5655   47.4846 H   0  0  0  0  0  0  0  0  0  0  0  0
   58.0182   31.4638   47.4395 H   0  0  0  0  0  0  0  0  0  0  0  0
   60.7166   30.3647   45.0031 H   0  0  0  0  0  0  0  0  0  0  0  0
   60.7817   28.0207   44.1225 H   0  0  0  0  0  0  0  0  0  0  0  0
   59.1233   26.3383   44.9480 H   0  0  0  0  0  0  0  0  0  0  0  0
   57.4200   27.0240   46.6479 H   0  0  0  0  0  0  0  0  0  0  0  0
   56.8805   32.7226   46.2032 H   0  0  0  0  0  0  0  0  0  0  0  0
   57.5213   33.6021   44.7679 H   0  0  0  0  0  0  0  0  0  0  0  0
   55.4618   28.8471   43.7473 H   0  0  0  0  0  0  0  0  0  0  0  0
   56.6973   29.9379   41.6630 H   0  0  0  0  0  0  0  0  0  0  0  0
   58.7489   32.9684   42.9539 H   0  0  0  0  0  0  0  0  0  0  0  0
   58.7889   31.7270   41.6562 H   0  0  0  0  0  0  0  0  0  0  0  0
   57.5070   32.9854   41.6562 H   0  0  0  0  0  0  0  0  0  0  0  0
  1  2  1  0
  2  3  1  0
  3  4  1  0
  4  5  1  0
  5  6  2  0
  6  7  1  0
  7  8  2  0
  8  9  1  0
  9 10  2  0
  3 11  1  0
 11 12  1  0
 12 13  2  0
 13 14  1  0
 14 15  2  0
 15 16  1  0
 16 17  1  0
 10  5  1  0
 16 12  1  0
  1 18  1  0
  1 19  1  0
  1 20  1  0
  2 21  1  0
  2 22  1  0
  4 23  1  0
  4 24  1  0
  6 25  1  0
  7 26  1  0
  8 27  1  0
  9 28  1  0
 11 29  1  0
 11 30  1  0
 14 31  1  0
 15 32  1  0
 17 33  1  0
 17 34  1  0
 17 35  1  0
M  END
>  <UniqueID>  (29) 
25

>  <SMILES>  (29) 
CCN(Cc1ccccn1)Cc1nccn1C

>  <Energy>  (29) 
64.64049669843477

>  <Genealogy>  (29) 
CCN(Cc1ccccn1)Cc1nccn1C (3D coordinates assigned)
CCN(Cc1ccccn1)Cc1nccn1C (optimized conformer: 64.64049669843477 kcal/mol)

>  <smiles>  (29) 
CCN(Cc1ccccn1)Cc1nccn1C

>  <score_type>  (29) 
oracle

>  <origin>  (29) 
adg

>  <m_score__min__energy>  (29) 
-5.7400000000000002

>  <m_primary>  (29) 
energy

$$$$
29:0
     RDKit          3D

 37 39  0  0  0  0  0  0  0  0999 V2000
   55.5960   26.7070   45.9910 O   0  0  0  0  0  0  0  0  0  0  0  0
   56.8120   26.9140   45.7310 C   0  0  0  0  0  0  0  0  0  0  0  0
   57.6540   25.7470   45.3820 C   0  0  0  0  0  0  0  0  0  0  0  0
   57.3670   24.4630   45.6430 C   0  0  0  0  0  0  0  0  0  0  0  0
   57.2130   23.4050   44.6310 C   0  0  0  0  0  0  0  0  0  0  0  0
   58.0390   22.2980   44.5050 C   0  0  0  0  0  0  0  0  0  0  0  0
   57.7030   21.4740   43.4260 C   0  0  0  0  0  0  0  0  0  0  0  0
   56.6320   21.9420   42.6780 C   0  0  0  0  0  0  0  0  0  0  0  0
   56.1090   23.3870   43.3600 S   0  0  0  0  0  0  0  0  0  0  0  0
   57.3080   28.3140   45.6800 C   0  0  0  0  0  0  0  0  0  0  0  0
   58.5760   28.6450   46.1750 C   0  0  0  0  0  0  0  0  0  0  0  0
   59.0090   29.9320   46.1560 N   0  0  0  0  0  0  0  0  0  0  0  0
   58.2230   30.9310   45.6530 C   0  0  0  0  0  0  0  0  0  0  0  0
   58.6730   32.3020   45.6470 N   0  0  0  0  0  0  0  0  0  0  0  0
   58.3970   33.1750   44.4970 C   0  0  0  0  0  0  0  0  0  0  0  0
   58.4080   34.6440   44.9330 C   0  0  0  0  0  0  0  0  0  0  0  0
   59.5950   34.9480   45.6410 O   0  0  0  0  0  0  0  0  0  0  0  0
   59.6120   34.2330   46.8620 C   0  0  0  0  0  0  0  0  0  0  0  0
   59.6980   32.7230   46.6120 C   0  0  0  0  0  0  0  0  0  0  0  0
   56.9960   30.6230   45.1520 N   0  0  0  0  0  0  0  0  0  0  0  0
   56.5230   29.3520   45.1500 C   0  0  0  0  0  0  0  0  0  0  0  0
   55.3720   29.1220   44.6910 O   0  0  0  0  0  0  0  0  0  0  0  0
   58.6011   25.9517   44.8613 H   0  0  0  0  0  0  0  0  0  0  0  0
   57.2363   24.1778   46.6973 H   0  0  0  0  0  0  0  0  0  0  0  0
   58.8764   22.0886   45.1869 H   0  0  0  0  0  0  0  0  0  0  0  0
   58.2379   20.5417   43.1921 H   0  0  0  0  0  0  0  0  0  0  0  0
   56.2002   21.4526   41.7926 H   0  0  0  0  0  0  0  0  0  0  0  0
   59.2259   27.8564   46.5822 H   0  0  0  0  0  0  0  0  0  0  0  0
   59.9490   30.1410   46.5590 H   0  0  0  0  0  0  0  0  0  0  0  0
   59.1683   33.0183   43.7285 H   0  0  0  0  0  0  0  0  0  0  0  0
   57.4053   32.9290   44.0895 H   0  0  0  0  0  0  0  0  0  0  0  0
   58.3452   35.2855   44.0416 H   0  0  0  0  0  0  0  0  0  0  0  0
   57.5470   34.8226   45.5940 H   0  0  0  0  0  0  0  0  0  0  0  0
   60.4840   34.5502   47.4527 H   0  0  0  0  0  0  0  0  0  0  0  0
   58.6802   34.4460   47.4064 H   0  0  0  0  0  0  0  0  0  0  0  0
   60.6933   32.4783   46.2127 H   0  0  0  0  0  0  0  0  0  0  0  0
   59.5303   32.1949   47.5623 H   0  0  0  0  0  0  0  0  0  0  0  0
  1  2  2  0
  2  3  1  0
  3  4  2  3
  4  5  1  0
  5  6  2  0
  6  7  1  0
  7  8  2  0
  8  9  1  0
  2 10  1  0
 10 11  2  0
 11 12  1  0
 12 13  1  0
 13 14  1  0
 14 15  1  0
 15 16  1  0
 16 17  1  0
 17 18  1  0
 18 19  1  0
 13 20  2  0
 20 21  1  0
 21 22  2  0
  9  5  1  0
 21 10  1  0
 19 14  1  0
  3 23  1  0
  4 24  1  0
  6 25  1  0
  7 26  1  0
  8 27  1  0
 11 28  1  0
 12 29  1  0
 15 30  1  0
 15 31  1  0
 16 32  1  0
 16 33  1  0
 18 34  1  0
 18 35  1  0
 19 36  1  0
 19 37  1  0
M  END
>  <UniqueID>  (30) 
26

>  <SMILES>  (30) 
O=C(C=Cc1cccs1)c1c[nH]c(N2CCOCC2)nc1=O

>  <Energy>  (30) 
79.7182339100078

>  <Genealogy>  (30) 
O=C(C=Cc1cccs1)c1c[nH]c(N2CCOCC2)nc1=O (3D coordinates assigned)
O=C(C=Cc1cccs1)c1c[nH]c(N2CCOCC2)nc1=O (nonaromatic ring conformer: 79.7182339100078 kcal/mol)

>  <smiles>  (30) 
O=C(C=Cc1cccs1)c1c[nH]c(N2CCOCC2)nc1=O

>  <score_type>  (30) 
oracle

>  <origin>  (30) 
adg

>  <m_score__min__energy>  (30) 
-7.79

>  <m_primary>  (30) 
energy

$$$$
30:0
     RDKit          3D

 40 43  0  0  0  0  0  0  0  0999 V2000
   54.5480   27.8620   53.5720 O   0  0  0  0  0  0  0  0  0  0  0  0
   54.7500   28.9460   52.9600 C   0  0  0  0  0  0  0  0  0  0  0  0
   56.0620   29.3330   52.6850 C   0  0  0  0  0  0  0  0  0  0  0  0
   56.2980   30.5380   52.0030 C   0  0  0  0  0  0  0  0  0  0  0  0
   57.6720   31.0010   51.6820 C   0  0  0  0  0  0  0  0  0  0  0  0
   58.6350   30.1370   51.1280 C   0  0  0  0  0  0  0  0  0  0  0  0
   59.9240   30.5980   50.8460 C   0  0  0  0  0  0  0  0  0  0  0  0
   60.2840   31.9210   51.1300 C   0  0  0  0  0  0  0  0  0  0  0  0
   61.6090   32.3790   50.8060 N   0  0  0  0  0  0  0  0  0  0  0  0
   62.0180   32.8270   49.5030 C   0  0  0  0  0  0  0  0  0  0  0  0
   61.0650   33.3770   48.6320 C   0  0  0  0  0  0  0  0  0  0  0  0
   61.4360   33.7950   47.3500 C   0  0  0  0  0  0  0  0  0  0  0  0
   62.7600   33.6530   46.9230 C   0  0  0  0  0  0  0  0  0  0  0  0
   63.7110   33.0860   47.7750 C   0  0  0  0  0  0  0  0  0  0  0  0
   63.3440   32.6670   49.0570 C   0  0  0  0  0  0  0  0  0  0  0  0
   59.3240   32.7900   51.6720 C   0  0  0  0  0  0  0  0  0  0  0  0
   58.0350   32.3310   51.9560 C   0  0  0  0  0  0  0  0  0  0  0  0
   55.2650   31.2860   51.6180 O   0  0  0  0  0  0  0  0  0  0  0  0
   53.9990   30.9590   51.8560 C   0  0  0  0  0  0  0  0  0  0  0  0
   52.9810   31.8110   51.4160 C   0  0  0  0  0  0  0  0  0  0  0  0
   51.6440   31.4900   51.6560 C   0  0  0  0  0  0  0  0  0  0  0  0
   50.6380   32.3410   51.2160 O   0  0  0  0  0  0  0  0  0  0  0  0
   51.3160   30.3160   52.3380 C   0  0  0  0  0  0  0  0  0  0  0  0
   52.3230   29.4480   52.7870 C   0  0  0  0  0  0  0  0  0  0  0  0
   51.9670   28.2820   53.4650 O   0  0  0  0  0  0  0  0  0  0  0  0
   53.6810   29.7660   52.5470 C   0  0  0  0  0  0  0  0  0  0  0  0
   56.9045   28.6997   52.9997 H   0  0  0  0  0  0  0  0  0  0  0  0
   58.3711   29.0905   50.9152 H   0  0  0  0  0  0  0  0  0  0  0  0
   60.6614   29.9161   50.3974 H   0  0  0  0  0  0  0  0  0  0  0  0
   62.3220   32.3870   51.5720 H   0  0  0  0  0  0  0  0  0  0  0  0
   60.0200   33.4800   48.9596 H   0  0  0  0  0  0  0  0  0  0  0  0
   60.6858   34.2358   46.6771 H   0  0  0  0  0  0  0  0  0  0  0  0
   63.0526   33.9876   45.9168 H   0  0  0  0  0  0  0  0  0  0  0  0
   64.7510   32.9690   47.4362 H   0  0  0  0  0  0  0  0  0  0  0  0
   64.0938   32.2106   49.7199 H   0  0  0  0  0  0  0  0  0  0  0  0
   59.5879   33.8385   51.8744 H   0  0  0  0  0  0  0  0  0  0  0  0
   57.2975   33.0170   52.3981 H   0  0  0  0  0  0  0  0  0  0  0  0
   53.2347   32.7370   50.8791 H   0  0  0  0  0  0  0  0  0  0  0  0
   50.2602   30.0700   52.5246 H   0  0  0  0  0  0  0  0  0  0  0  0
   52.5510   27.4530   53.4410 H   0  0  0  0  0  0  0  0  0  0  0  0
  1  2  2  0
  2  3  1  0
  3  4  2  0
  4  5  1  0
  5  6  2  0
  6  7  1  0
  7  8  2  0
  8  9  1  0
  9 10  1  0
 10 11  2  0
 11 12  1  0
 12 13  2  0
 13 14  1  0
 14 15  2  0
  8 16  1  0
 16 17  2  0
  4 18  1  0
 18 19  1  0
 19 20  2  0
 20 21  1  0
 21 22  1  0
 21 23  2  0
 23 24  1  0
 24 25  1  0
 24 26  2  0
 26  2  1  0
 17  5  1  0
 26 19  1  0
 15 10  1  0
  3 27  1  0
  6 28  1  0
  7 29  1  0
  9 30  1  0
 11 31  1  0
 12 32  1  0
 13 33  1  0
 14 34  1  0
 15 35  1  0
 16 36  1  0
 17 37  1  0
 20 38  1  0
 23 39  1  0
 25 40  1  0
M  CHG  1  22  -1
M  END
>  <UniqueID>  (31) 
27

>  <SMILES>  (31) 
O=c1cc(-c2ccc(Nc3ccccc3)cc2)oc2cc([O-])cc(O)c12

>  <Energy>  (31) 
60.55627097314154

>  <Genealogy>  (31) 
O=c1cc(-c2ccc(Nc3ccccc3)cc2)oc2cc([O-])cc(O)c12 (protonated)
O=c1cc(-c2ccc(Nc3ccccc3)cc2)oc2cc([O-])cc(O)c12 (3D coordinates assigned)
O=c1cc(-c2ccc(Nc3ccccc3)cc2)oc2cc([O-])cc(O)c12 (optimized conformer: 60.55627097314154 kcal/mol)

>  <smiles>  (31) 
O=c1cc(-c2ccc(Nc3ccccc3)cc2)oc2cc(O)cc(O)c12

>  <score_type>  (31) 
oracle

>  <origin>  (31) 
adg

>  <m_score__min__energy>  (31) 
-11.01

>  <m_primary>  (31) 
energy

$$$$
31:0
     RDKit          3D

 46 48  0  0  0  0  0  0  0  0999 V2000
   58.1640   27.1470   43.4570 C   0  0  0  0  0  0  0  0  0  0  0  0
   58.3650   28.4720   44.1090 C   0  0  0  0  0  0  0  0  0  0  0  0
   59.5170   28.8420   44.7100 N   0  0  0  0  0  0  0  0  0  0  0  0
   59.4850   30.0910   45.1730 N   0  0  0  0  0  0  0  0  0  0  0  0
   58.3190   30.7340   44.9270 C   0  0  0  0  0  0  0  0  0  0  0  0
   58.0160   32.0700   45.3710 N   0  0  0  0  0  0  0  0  0  0  0  0
   57.9520   32.3560   46.8080 C   0  0  0  0  0  0  0  0  0  0  0  0
   58.0390   33.8690   47.0970 C   0  0  0  0  0  0  0  0  0  0  0  0
   58.9890   34.5840   46.2090 N   0  0  0  0  0  0  0  0  0  0  0  0
   60.3490   34.7700   46.7620 C   0  0  0  0  0  0  0  0  0  0  0  0
   61.3250   33.6460   46.3590 C   0  0  0  0  0  0  0  0  0  0  0  0
   62.4890   33.4770   47.3520 C   0  0  0  0  0  0  0  0  0  0  0  0
   62.5430   32.0940   48.0270 C   0  0  0  0  0  0  0  0  0  0  0  0
   61.2360   31.6900   48.5600 N   0  0  0  0  0  0  0  0  0  0  0  0
   60.5820   32.4010   49.6490 C   0  0  0  0  0  0  0  0  0  0  0  0
   58.9500   31.6320   49.9480 S   0  0  0  0  0  0  0  0  0  0  0  0
   59.3220   30.1820   48.9080 C   0  0  0  0  0  0  0  0  0  0  0  0
   60.5830   30.4800   48.1980 C   0  0  0  0  0  0  0  0  0  0  0  0
   61.0540   29.6970   47.3300 O   0  0  0  0  0  0  0  0  0  0  0  0
   58.9740   34.2160   44.7710 C   0  0  0  0  0  0  0  0  0  0  0  0
   57.8970   33.1880   44.4350 C   0  0  0  0  0  0  0  0  0  0  0  0
   57.2390   29.7260   44.1110 S   0  0  0  0  0  0  0  0  0  0  0  0
   58.0465   26.3724   44.2292 H   0  0  0  0  0  0  0  0  0  0  0  0
   57.2606   27.1800   42.8303 H   0  0  0  0  0  0  0  0  0  0  0  0
   59.0366   26.9106   42.8303 H   0  0  0  0  0  0  0  0  0  0  0  0
   60.2890   30.4970   45.6990 H   0  0  0  0  0  0  0  0  0  0  0  0
   57.0008   31.9720   47.2052 H   0  0  0  0  0  0  0  0  0  0  0  0
   58.8098   31.8662   47.2920 H   0  0  0  0  0  0  0  0  0  0  0  0
   57.0391   34.3077   46.9636 H   0  0  0  0  0  0  0  0  0  0  0  0
   58.4083   33.9826   48.1269 H   0  0  0  0  0  0  0  0  0  0  0  0
   60.7477   35.7277   46.3961 H   0  0  0  0  0  0  0  0  0  0  0  0
   60.2625   34.7517   47.8584 H   0  0  0  0  0  0  0  0  0  0  0  0
   60.7675   32.6991   46.3076 H   0  0  0  0  0  0  0  0  0  0  0  0
   61.7590   33.9196   45.3860 H   0  0  0  0  0  0  0  0  0  0  0  0
   63.4324   33.6333   46.8084 H   0  0  0  0  0  0  0  0  0  0  0  0
   62.3330   34.2151   48.1525 H   0  0  0  0  0  0  0  0  0  0  0  0
   62.8696   31.3497   47.2858 H   0  0  0  0  0  0  0  0  0  0  0  0
   63.2489   32.1543   48.8685 H   0  0  0  0  0  0  0  0  0  0  0  0
   61.1966   32.3324   50.5587 H   0  0  0  0  0  0  0  0  0  0  0  0
   60.4559   33.4612   49.3844 H   0  0  0  0  0  0  0  0  0  0  0  0
   59.4429   29.2866   49.5354 H   0  0  0  0  0  0  0  0  0  0  0  0
   58.5055   29.9850   48.1978 H   0  0  0  0  0  0  0  0  0  0  0  0
   58.7906   35.1239   44.1777 H   0  0  0  0  0  0  0  0  0  0  0  0
   59.9486   33.7641   44.5345 H   0  0  0  0  0  0  0  0  0  0  0  0
   56.9022   33.6478   44.5303 H   0  0  0  0  0  0  0  0  0  0  0  0
   58.0250   32.8310   43.4024 H   0  0  0  0  0  0  0  0  0  0  0  0
  1  2  1  0
  2  3  2  0
  3  4  1  0
  4  5  2  0
  5  6  1  0
  6  7  1  0
  7  8  1  0
  8  9  1  0
  9 10  1  0
 10 11  1  0
 11 12  1  0
 12 13  1  0
 13 14  1  0
 14 15  1  0
 15 16  1  0
 16 17  1  0
 17 18  1  0
 18 19  2  0
  9 20  1  0
 20 21  1  0
  5 22  1  0
 22  2  1  0
 21  6  1  0
 18 14  1  0
  1 23  1  0
  1 24  1  0
  1 25  1  0
  4 26  1  0
  7 27  1  0
  7 28  1  0
  8 29  1  0
  8 30  1  0
 10 31  1  0
 10 32  1  0
 11 33  1  0
 11 34  1  0
 12 35  1  0
 12 36  1  0
 13 37  1  0
 13 38  1  0
 15 39  1  0
 15 40  1  0
 17 41  1  0
 17 42  1  0
 20 43  1  0
 20 44  1  0
 21 45  1  0
 21 46  1  0
M  CHG  1   4   1
M  END
>  <UniqueID>  (32) 
28

>  <SMILES>  (32) 
Cc1n[nH+]c(N2CCN(CCCCN3CSCC3=O)CC2)s1

>  <Energy>  (32) 
81.76901209303551

>  <Genealogy>  (32) 
Cc1n[nH+]c(N2CCN(CCCCN3CSCC3=O)CC2)s1 (protonated)
Cc1n[nH+]c(N2CCN(CCCCN3CSCC3=O)CC2)s1 (3D coordinates assigned)
Cc1n[nH+]c(N2CCN(CCCCN3CSCC3=O)CC2)s1 (nonaromatic ring conformer: 81.76901209303551 kcal/mol)

>  <smiles>  (32) 
Cc1nnc(N2CCN(CCCCN3CSCC3=O)CC2)s1

>  <score_type>  (32) 
oracle

>  <origin>  (32) 
adg

>  <m_score__min__energy>  (32) 
-6.5599999999999996

>  <m_primary>  (32) 
energy

$$$$
32:0
     RDKit          3D

 25 25  0  0  0  0  0  0  0  0999 V2000
   59.3530   27.9080   44.9170 C   0  0  0  0  0  0  0  0  0  0  0  0
   58.0010   27.3720   44.4520 C   0  0  0  0  0  0  0  0  0  0  0  0
   57.4790   28.1660   43.3310 N   0  0  0  0  0  0  0  0  0  0  0  0
   57.0920   29.4690   43.8020 C   0  0  0  0  0  0  0  0  0  0  0  0
   55.5540   29.7170   44.3380 S   0  0  0  0  0  0  0  0  0  0  0  0
   58.0230   30.5620   43.7120 N   0  0  0  0  0  0  0  0  0  0  0  0
   58.0040   31.7220   44.5600 C   0  0  0  0  0  0  0  0  0  0  0  0
   58.1460   31.5650   45.9470 C   0  0  0  0  0  0  0  0  0  0  0  0
   58.0990   32.6780   46.7930 C   0  0  0  0  0  0  0  0  0  0  0  0
   57.8920   33.9530   46.2610 C   0  0  0  0  0  0  0  0  0  0  0  0
   57.7240   34.1160   44.8830 C   0  0  0  0  0  0  0  0  0  0  0  0
   57.7720   33.0060   44.0350 C   0  0  0  0  0  0  0  0  0  0  0  0
   59.3841   27.9203   46.0165 H   0  0  0  0  0  0  0  0  0  0  0  0
   60.1555   27.2600   44.5347 H   0  0  0  0  0  0  0  0  0  0  0  0
   59.4935   28.9298   44.5347 H   0  0  0  0  0  0  0  0  0  0  0  0
   58.1197   26.3273   44.1288 H   0  0  0  0  0  0  0  0  0  0  0  0
   57.2906   27.4370   45.2893 H   0  0  0  0  0  0  0  0  0  0  0  0
   56.6570   27.6780   42.9030 H   0  0  0  0  0  0  0  0  0  0  0  0
   58.2190   28.2740   42.5980 H   0  0  0  0  0  0  0  0  0  0  0  0
   58.7600   30.5110   42.9730 H   0  0  0  0  0  0  0  0  0  0  0  0
   58.2951   30.5612   46.3714 H   0  0  0  0  0  0  0  0  0  0  0  0
   58.2251   32.5492   47.8781 H   0  0  0  0  0  0  0  0  0  0  0  0
   57.8612   34.8284   46.9264 H   0  0  0  0  0  0  0  0  0  0  0  0
   57.5538   35.1193   44.4653 H   0  0  0  0  0  0  0  0  0  0  0  0
   57.6277   33.1372   42.9524 H   0  0  0  0  0  0  0  0  0  0  0  0
  1  2  1  0
  2  3  1  0
  3  4  1  0
  4  5  2  0
  4  6  1  0
  6  7  1  0
  7  8  2  0
  8  9  1  0
  9 10  2  0
 10 11  1  0
 11 12  2  0
 12  7  1  0
  1 13  1  0
  1 14  1  0
  1 15  1  0
  2 16  1  0
  2 17  1  0
  3 18  1  0
  3 19  1  0
  6 20  1  0
  8 21  1  0
  9 22  1  0
 10 23  1  0
 11 24  1  0
 12 25  1  0
M  CHG  1   3   1
M  END
>  <UniqueID>  (33) 
29

>  <SMILES>  (33) 
CC[NH2+]C(=S)Nc1ccccc1

>  <Energy>  (33) 
25.06297386892931

>  <Genealogy>  (33) 
CC[NH2+]C(=S)Nc1ccccc1 (protonated)
CC[NH2+]C(=S)Nc1ccccc1 (3D coordinates assigned)
CC[NH2+]C(=S)Nc1ccccc1 (optimized conformer: 25.06297386892931 kcal/mol)

>  <smiles>  (33) 
CCNC(=S)Nc1ccccc1

>  <score_type>  (33) 
oracle

>  <origin>  (33) 
adg

>  <m_score__min__energy>  (33) 
-4.5899999999999999

>  <m_primary>  (33) 
energy

$$$$
33:0
     RDKit          3D

119125  0  0  0  0  0  0  0  0999 V2000
   56.8230   34.1970   45.1350 C   0  0  0  0  0  0  0  0  0  0  0  0
   58.2120   33.6730   45.4250 C   0  0  0  0  0  0  0  0  0  0  0  0
   58.3810   32.2410   45.8870 C   0  0  0  0  0  0  0  0  0  0  0  0
   59.3250   34.4240   45.2680 C   0  0  0  0  0  0  0  0  0  0  0  0
   60.3530   34.6770   46.3400 C   0  0  0  0  0  0  0  0  0  0  0  0
   61.4320   33.5810   46.3190 C   0  0  0  0  0  0  0  0  0  0  0  0
   62.6030   33.8270   47.3250 C   0  0  2  0  0  0  0  0  0  0  0  0
   63.7310   32.8150   47.0660 C   0  0  0  0  0  0  0  0  0  0  0  0
   62.1620   33.8330   48.8370 C   0  0  2  0  0  0  0  0  0  0  0  0
   63.3540   33.8600   49.7710 C   0  0  0  0  0  0  0  0  0  0  0  0
   62.7980   33.5520   51.1380 C   0  0  0  0  0  0  0  0  0  0  0  0
   61.6200   32.5540   50.9430 C   0  0  2  0  0  0  0  0  0  0  0  0
   60.4420   33.0710   51.8420 C   0  0  0  0  0  0  0  0  0  0  0  0
   62.1050   31.1030   51.4020 C   0  0  1  0  0  0  0  0  0  0  0  0
   62.2770   30.9500   52.9430 C   0  0  0  0  0  0  0  0  0  0  0  0
   62.5010   29.5000   53.4470 C   0  0  0  0  0  0  0  0  0  0  0  0
   62.5080   28.4070   52.3450 C   0  0  1  0  0  0  0  0  0  0  0  0
   62.6960   26.9120   52.8600 C   0  0  0  0  0  0  0  0  0  0  0  0
   63.1700   26.8550   54.3280 C   0  0  0  0  0  0  0  0  0  0  0  0
   63.8090   26.2220   52.0280 C   0  0  0  0  0  0  0  0  0  0  0  0
   61.3550   26.0980   52.7360 C   0  0  2  0  0  0  0  0  0  0  0  0
   61.5560   24.7460   53.1310 O   0  0  0  0  0  0  0  0  0  0  0  0
   60.3590   23.9850   53.1950 C   0  0  2  0  0  0  0  0  0  0  0  0
   60.3890   23.2120   54.5230 C   0  0  0  0  0  0  0  0  0  0  0  0
   61.5770   22.2230   54.6130 C   0  0  0  0  0  0  0  0  0  0  0  0
   62.0250   21.6900   53.2400 C   0  0  0  0  0  0  0  0  0  0  0  0
   60.8530   21.6020   52.2730 C   0  0  0  0  0  0  0  0  0  0  0  0
   60.2410   23.0000   51.9850 C   0  0  1  0  0  0  0  0  0  0  0  0
   58.7810   22.8760   51.4510 C   0  0  0  0  0  0  0  0  0  0  0  0
   57.7940   22.4330   52.4970 C   0  0  0  0  0  0  0  0  0  0  0  0
   57.8120   21.2440   52.9190 O   0  0  0  0  0  0  0  0  0  0  0  0
   56.9630   23.3980   53.0810 O   0  0  0  0  0  0  0  0  0  0  0  0
   57.0590   23.8080   54.4460 C   0  0  0  0  0  0  0  0  0  0  0  0
   56.4760   25.2080   54.6520 C   0  0  0  0  0  0  0  0  0  0  0  0
   57.5440   26.2600   54.7220 C   0  0  0  0  0  0  0  0  0  0  0  0
   58.7410   26.0310   55.4100 C   0  0  0  0  0  0  0  0  0  0  0  0
   59.7090   27.0430   55.4960 C   0  0  0  0  0  0  0  0  0  0  0  0
   59.5020   28.2670   54.8600 C   0  0  0  0  0  0  0  0  0  0  0  0
   58.3190   28.4930   54.1490 C   0  0  0  0  0  0  0  0  0  0  0  0
   57.3490   27.4910   54.0750 C   0  0  0  0  0  0  0  0  0  0  0  0
   60.8460   26.0340   51.2860 C   0  0  0  0  0  0  0  0  0  0  0  0
   60.9660   27.3450   50.4830 C   0  0  0  0  0  0  0  0  0  0  0  0
   61.2940   28.5600   51.3750 C   0  0  1  0  0  0  0  0  0  0  0  0
   60.0650   29.4640   51.6500 C   0  0  0  0  0  0  0  0  0  0  0  0
   61.2150   29.9930   50.7700 C   0  0  1  0  0  0  0  0  0  0  0  0
   60.9660   30.0800   49.2520 C   0  0  0  0  0  0  0  0  0  0  0  0
   61.6690   31.3010   48.6530 C   0  0  0  0  0  0  0  0  0  0  0  0
   61.2920   32.6340   49.3700 C   0  0  2  0  0  0  0  0  0  0  0  0
   59.7920   32.9090   49.0680 C   0  0  0  0  0  0  0  0  0  0  0  0
   56.3003   34.3942   46.0826 H   0  0  0  0  0  0  0  0  0  0  0  0
   56.8963   35.1293   44.5558 H   0  0  0  0  0  0  0  0  0  0  0  0
   56.2623   33.4486   44.5558 H   0  0  0  0  0  0  0  0  0  0  0  0
   58.3848   32.2085   46.9865 H   0  0  0  0  0  0  0  0  0  0  0  0
   57.5485   31.6318   45.5051 H   0  0  0  0  0  0  0  0  0  0  0  0
   59.3324   31.8424   45.5051 H   0  0  0  0  0  0  0  0  0  0  0  0
   59.4927   34.8851   44.2835 H   0  0  0  0  0  0  0  0  0  0  0  0
   60.8261   35.6545   46.1648 H   0  0  0  0  0  0  0  0  0  0  0  0
   59.8549   34.6679   47.3207 H   0  0  0  0  0  0  0  0  0  0  0  0
   60.9561   32.6214   46.5692 H   0  0  0  0  0  0  0  0  0  0  0  0
   61.8710   33.5839   45.3104 H   0  0  0  0  0  0  0  0  0  0  0  0
   62.9737   34.8459   47.1393 H   0  0  0  0  0  0  0  0  0  0  0  0
   64.1301   32.4570   48.0265 H   0  0  0  0  0  0  0  0  0  0  0  0
   63.3352   31.9634   46.4931 H   0  0  0  0  0  0  0  0  0  0  0  0
   64.5348   33.3005   46.4931 H   0  0  0  0  0  0  0  0  0  0  0  0
   61.5384   34.7392   48.8428 H   0  0  0  0  0  0  0  0  0  0  0  0
   64.0920   33.0997   49.4754 H   0  0  0  0  0  0  0  0  0  0  0  0
   63.8698   34.8313   49.7483 H   0  0  0  0  0  0  0  0  0  0  0  0
   63.5768   33.0970   51.7676 H   0  0  0  0  0  0  0  0  0  0  0  0
   62.4525   34.4708   51.6345 H   0  0  0  0  0  0  0  0  0  0  0  0
   60.7108   32.9530   52.9021 H   0  0  0  0  0  0  0  0  0  0  0  0
   60.2557   34.1336   51.6270 H   0  0  0  0  0  0  0  0  0  0  0  0
   59.5339   32.4887   51.6270 H   0  0  0  0  0  0  0  0  0  0  0  0
   63.1239   30.9735   51.0081 H   0  0  0  0  0  0  0  0  0  0  0  0
   63.1442   31.5535   53.2492 H   0  0  0  0  0  0  0  0  0  0  0  0
   61.3277   31.2823   53.3883 H   0  0  0  0  0  0  0  0  0  0  0  0
   63.4710   29.4665   53.9647 H   0  0  0  0  0  0  0  0  0  0  0  0
   61.6449   29.2692   54.0980 H   0  0  0  0  0  0  0  0  0  0  0  0
   63.4286   28.5965   51.7735 H   0  0  0  0  0  0  0  0  0  0  0  0
   62.3034   26.9592   54.9974 H   0  0  0  0  0  0  0  0  0  0  0  0
   63.6649   25.8909   54.5163 H   0  0  0  0  0  0  0  0  0  0  0  0
   63.8794   27.6743   54.5163 H   0  0  0  0  0  0  0  0  0  0  0  0
   64.5447   25.7659   52.7067 H   0  0  0  0  0  0  0  0  0  0  0  0
   63.3625   25.4421   51.3937 H   0  0  0  0  0  0  0  0  0  0  0  0
   64.3089   26.9688   51.3937 H   0  0  0  0  0  0  0  0  0  0  0  0
   60.6291   26.6180   53.3784 H   0  0  0  0  0  0  0  0  0  0  0  0
   59.4832   24.6487   53.1442 H   0  0  0  0  0  0  0  0  0  0  0  0
   60.4693   23.9343   55.3487 H   0  0  0  0  0  0  0  0  0  0  0  0
   59.4618   22.6235   54.5855 H   0  0  0  0  0  0  0  0  0  0  0  0
   62.4274   22.7392   55.0825 H   0  0  0  0  0  0  0  0  0  0  0  0
   61.2406   21.3597   55.2059 H   0  0  0  0  0  0  0  0  0  0  0  0
   62.7841   22.3678   52.8226 H   0  0  0  0  0  0  0  0  0  0  0  0
   62.4391   20.6802   53.3773 H   0  0  0  0  0  0  0  0  0  0  0  0
   61.2035   21.1643   51.3267 H   0  0  0  0  0  0  0  0  0  0  0  0
   60.0750   20.9747   52.7326 H   0  0  0  0  0  0  0  0  0  0  0  0
   60.8459   23.4538   51.1862 H   0  0  0  0  0  0  0  0  0  0  0  0
   58.4657   23.8580   51.0687 H   0  0  0  0  0  0  0  0  0  0  0  0
   58.7882   22.1051   50.6664 H   0  0  0  0  0  0  0  0  0  0  0  0
   56.5055   23.0941   55.0737 H   0  0  0  0  0  0  0  0  0  0  0  0
   58.1225   23.8318   54.7259 H   0  0  0  0  0  0  0  0  0  0  0  0
   55.8046   25.4397   53.8121 H   0  0  0  0  0  0  0  0  0  0  0  0
   55.9340   25.2116   55.6092 H   0  0  0  0  0  0  0  0  0  0  0  0
   58.9233   25.0554   55.8844 H   0  0  0  0  0  0  0  0  0  0  0  0
   60.6336   26.8707   56.0665 H   0  0  0  0  0  0  0  0  0  0  0  0
   60.2685   29.0539   54.9176 H   0  0  0  0  0  0  0  0  0  0  0  0
   58.1528   29.4585   53.6488 H   0  0  0  0  0  0  0  0  0  0  0  0
   56.4247   27.6675   53.5053 H   0  0  0  0  0  0  0  0  0  0  0  0
   61.4217   25.2593   50.7584 H   0  0  0  0  0  0  0  0  0  0  0  0
   59.7696   25.8175   51.3526 H   0  0  0  0  0  0  0  0  0  0  0  0
   61.7664   27.2292   49.7374 H   0  0  0  0  0  0  0  0  0  0  0  0
   59.9923   27.5344   50.0075 H   0  0  0  0  0  0  0  0  0  0  0  0
   59.0931   29.2218   51.1954 H   0  0  0  0  0  0  0  0  0  0  0  0
   59.5541   29.8228   52.5557 H   0  0  0  0  0  0  0  0  0  0  0  0
   61.3526   29.1696   48.7707 H   0  0  0  0  0  0  0  0  0  0  0  0
   59.8841   30.1764   49.0779 H   0  0  0  0  0  0  0  0  0  0  0  0
   62.7562   31.1545   48.7344 H   0  0  0  0  0  0  0  0  0  0  0  0
   61.3435   31.3872   47.6058 H   0  0  0  0  0  0  0  0  0  0  0  0
   59.2401   33.0102   50.0141 H   0  0  0  0  0  0  0  0  0  0  0  0
   59.6993   33.8391   48.4881 H   0  0  0  0  0  0  0  0  0  0  0  0
   59.3753   32.0723   48.4881 H   0  0  0  0  0  0  0  0  0  0  0  0
  1  2  1  0
  2  3  1  0
  2  4  2  3
  4  5  1  0
  5  6  1  0
  6  7  1  0
  7  8  1  0
  7  9  1  0
  9 10  1  0
 10 11  1  0
 11 12  1  0
 12 13  1  1
 12 14  1  0
 14 15  1  0
 15 16  1  0
 16 17  1  0
 17 18  1  0
 18 19  1  0
 18 20  1  0
 18 21  1  0
 21 22  1  0
 22 23  1  0
 23 24  1  0
 24 25  1  0
 25 26  1  0
 26 27  1  0
 27 28  1  0
 28 29  1  0
 29 30  1  0
 30 31  2  0
 30 32  1  0
 32 33  1  0
 33 34  1  0
 34 35  1  0
 35 36  2  0
 36 37  1  0
 37 38  2  0
 38 39  1  0
 39 40  2  0
 21 41  1  0
 41 42  1  0
 43 42  1  6
 43 44  1  0
 45 44  1  1
 45 46  1  0
 46 47  1  0
 47 48  1  0
 48 49  1  1
 48  9  1  0
 48 12  1  0
 45 14  1  0
 43 17  1  0
 28 23  1  0
 40 35  1  0
 45 43  1  0
  1 50  1  0
  1 51  1  0
  1 52  1  0
  3 53  1  0
  3 54  1  0
  3 55  1  0
  4 56  1  0
  5 57  1  0
  5 58  1  0
  6 59  1  0
  6 60  1  0
  7 61  1  6
  8 62  1  0
  8 63  1  0
  8 64  1  0
  9 65  1  6
 10 66  1  0
 10 67  1  0
 11 68  1  0
 11 69  1  0
 13 70  1  0
 13 71  1  0
 13 72  1  0
 14 73  1  6
 15 74  1  0
 15 75  1  0
 16 76  1  0
 16 77  1  0
 17 78  1  6
 19 79  1  0
 19 80  1  0
 19 81  1  0
 20 82  1  0
 20 83  1  0
 20 84  1  0
 21 85  1  1
 23 86  1  1
 24 87  1  0
 24 88  1  0
 25 89  1  0
 25 90  1  0
 26 91  1  0
 26 92  1  0
 27 93  1  0
 27 94  1  0
 28 95  1  6
 29 96  1  0
 29 97  1  0
 33 98  1  0
 33 99  1  0
 34100  1  0
 34101  1  0
 36102  1  0
 37103  1  0
 38104  1  0
 39105  1  0
 40106  1  0
 41107  1  0
 41108  1  0
 42109  1  0
 42110  1  0
 44111  1  0
 44112  1  0
 46113  1  0
 46114  1  0
 47115  1  0
 47116  1  0
 49117  1  0
 49118  1  0
 49119  1  0
M  END
>  <UniqueID>  (34) 
30

>  <SMILES>  (34) 
CC(C)=CCC[C@H](C)[C@@H]1CCC2(C)C3CCC4C(C)(C)C(OC5CCCCC5CC(=O)OCCc5ccccc5)CCC45CC35CCC12C

>  <Energy>  (34) 
446.0803536258797

>  <Genealogy>  (34) 
CC(C)=CCC[C@H](C)[C@@H]1CCC2(C)C3CCC4C(C)(C)C(OC5CCCCC5CC(=O)OCCc5ccccc5)CCC45CC35CCC12C (chirality)
CC(C)=CCC[C@H](C)[C@@H]1CCC2(C)C3CCC4C(C)(C)C(OC5CCCCC5CC(=O)OCCc5ccccc5)CCC45CC35CCC12C (3D coordinates assigned)
CC(C)=CCC[C@H](C)[C@@H]1CCC2(C)C3CCC4C(C)(C)C(OC5CCCCC5CC(=O)OCCc5ccccc5)CCC45CC35CCC12C (nonaromatic ring conformer: 446.0803536258797 kcal/mol)

>  <smiles>  (34) 
CC(C)=CCCC(C)C1CCC2(C)C3CCC4C(C)(C)C(OC5CCCCC5CC(=O)OCCc5ccccc5)CCC45CC35CCC12C

>  <score_type>  (34) 
oracle

>  <origin>  (34) 
adg

>  <m_score__min__energy>  (34) 
-12.119999999999999

>  <m_primary>  (34) 
energy

$$$$
34:0
     RDKit          3D

 30 32  0  0  0  0  0  0  0  0999 V2000
   56.2630   29.9820   43.1920 C   0  0  0  0  0  0  0  0  0  0  0  0
   56.2650   30.5070   44.5160 O   0  0  0  0  0  0  0  0  0  0  0  0
   57.4240   30.8480   45.2290 C   0  0  0  0  0  0  0  0  0  0  0  0
   57.7930   32.1830   45.4770 C   0  0  0  0  0  0  0  0  0  0  0  0
   58.9590   32.4720   46.1930 C   0  0  0  0  0  0  0  0  0  0  0  0
   59.7770   31.4360   46.6760 C   0  0  0  0  0  0  0  0  0  0  0  0
   60.9770   31.7360   47.4150 N   0  0  0  0  0  0  0  0  0  0  0  0
   61.8750   32.7130   47.1210 C   0  0  0  0  0  0  0  0  0  0  0  0
   62.8690   32.6620   48.0740 C   0  0  0  0  0  0  0  0  0  0  0  0
   64.0220   33.4190   48.2610 C   0  0  0  0  0  0  0  0  0  0  0  0
   64.8420   33.0920   49.3600 C   0  0  0  0  0  0  0  0  0  0  0  0
   64.4900   32.0330   50.2290 C   0  0  0  0  0  0  0  0  0  0  0  0
   63.3140   31.2890   50.0090 C   0  0  0  0  0  0  0  0  0  0  0  0
   62.5260   31.6390   48.9150 C   0  0  0  0  0  0  0  0  0  0  0  0
   61.3740   31.0850   48.5060 N   0  0  0  0  0  0  0  0  0  0  0  0
   59.4040   30.1040   46.4230 C   0  0  0  0  0  0  0  0  0  0  0  0
   58.2380   29.8160   45.7080 C   0  0  0  0  0  0  0  0  0  0  0  0
   56.2588   28.8828   43.2334 H   0  0  0  0  0  0  0  0  0  0  0  0
   55.3662   30.3323   42.6600 H   0  0  0  0  0  0  0  0  0  0  0  0
   57.1625   30.3255   42.6600 H   0  0  0  0  0  0  0  0  0  0  0  0
   57.1612   33.0034   45.1058 H   0  0  0  0  0  0  0  0  0  0  0  0
   59.2385   33.5194   46.3799 H   0  0  0  0  0  0  0  0  0  0  0  0
   61.8186   33.4159   46.2767 H   0  0  0  0  0  0  0  0  0  0  0  0
   64.2832   34.2405   47.5777 H   0  0  0  0  0  0  0  0  0  0  0  0
   65.7629   33.6650   49.5432 H   0  0  0  0  0  0  0  0  0  0  0  0
   65.1391   31.7885   51.0828 H   0  0  0  0  0  0  0  0  0  0  0  0
   63.0287   30.4624   50.6764 H   0  0  0  0  0  0  0  0  0  0  0  0
   60.8880   30.2710   48.9440 H   0  0  0  0  0  0  0  0  0  0  0  0
   60.0352   29.2817   46.7909 H   0  0  0  0  0  0  0  0  0  0  0  0
   57.9580   28.7689   45.5203 H   0  0  0  0  0  0  0  0  0  0  0  0
  1  2  1  0
  2  3  1  0
  3  4  2  0
  4  5  1  0
  5  6  2  0
  6  7  1  0
  7  8  1  0
  8  9  2  0
  9 10  1  0
 10 11  2  0
 11 12  1  0
 12 13  2  0
 13 14  1  0
 14 15  2  0
  6 16  1  0
 16 17  2  0
 17  3  1  0
 15  7  1  0
 14  9  1  0
  1 18  1  0
  1 19  1  0
  1 20  1  0
  4 21  1  0
  5 22  1  0
  8 23  1  0
 10 24  1  0
 11 25  1  0
 12 26  1  0
 13 27  1  0
 15 28  1  0
 16 29  1  0
 17 30  1  0
M  CHG  1  15   1
M  END
>  <UniqueID>  (35) 
31

>  <SMILES>  (35) 
COc1ccc(-n2cc3ccccc3[nH+]2)cc1

>  <Energy>  (35) 
74.44134120335502

>  <Genealogy>  (35) 
COc1ccc(-n2cc3ccccc3[nH+]2)cc1 (protonated)
COc1ccc(-n2cc3ccccc3[nH+]2)cc1 (3D coordinates assigned)
COc1ccc(-n2cc3ccccc3[nH+]2)cc1 (optimized conformer: 74.44134120335502 kcal/mol)

>  <smiles>  (35) 
COc1ccc(-n2cc3ccccc3n2)cc1

>  <score_type>  (35) 
oracle

>  <origin>  (35) 
adg

>  <m_score__min__energy>  (35) 
-4.5899999999999999

>  <m_primary>  (35) 
energy

$$$$
35:0
     RDKit          3D

 33 35  0  0  0  0  0  0  0  0999 V2000
   59.5240   34.8938   46.6216 H   0  0  0  0  0  0  0  0  0  0  0  0
   58.9840   34.0670   46.1370 C   0  0  0  0  0  0  0  0  0  0  0  0
   58.4460   34.2380   44.8590 C   0  0  0  0  0  0  0  0  0  0  0  0
   58.5655   35.1990   44.3372 H   0  0  0  0  0  0  0  0  0  0  0  0
   57.7560   33.1900   44.2420 C   0  0  0  0  0  0  0  0  0  0  0  0
   57.3363   33.3279   43.2346 H   0  0  0  0  0  0  0  0  0  0  0  0
   57.5970   31.9610   44.9050 C   0  0  0  0  0  0  0  0  0  0  0  0
   56.8550   30.8250   44.2480 C   0  0  0  0  0  0  0  0  0  0  0  0
   56.1663   31.2321   43.4931 H   0  0  0  0  0  0  0  0  0  0  0  0
   56.2944   30.2756   45.0187 H   0  0  0  0  0  0  0  0  0  0  0  0
   57.7900   29.9040   43.5990 N   0  0  0  0  0  0  0  0  0  0  0  0
   58.1520   30.1710   42.6560 H   0  0  0  0  0  0  0  0  0  0  0  0
   58.1860   28.7800   44.1290 C   0  0  0  0  0  0  0  0  0  0  0  0
   59.2290   28.6660   45.5760 S   0  0  0  0  0  0  0  0  0  0  0  0
   58.5840   26.9720   45.8270 C   0  0  1  0  0  0  0  0  0  0  0  0
   59.3654   26.3402   46.2744 H   0  0  0  0  0  0  0  0  0  0  0  0
   57.3790   26.9950   46.7770 C   0  0  0  0  0  0  0  0  0  0  0  0
   56.9003   27.9853   46.7633 H   0  0  0  0  0  0  0  0  0  0  0  0
   57.6806   26.7929   47.8154 H   0  0  0  0  0  0  0  0  0  0  0  0
   56.2630   25.7660   46.1770 S   0  0  0  0  0  0  0  0  0  0  0  0
   56.2210   24.5700   47.0860 O   0  0  0  0  0  0  0  0  0  0  0  0
   54.8840   26.3300   45.9760 O   0  0  0  0  0  0  0  0  0  0  0  0
   57.0320   25.3800   44.6370 C   0  0  0  0  0  0  0  0  0  0  0  0
   56.3041   25.4610   43.8163 H   0  0  0  0  0  0  0  0  0  0  0  0
   57.4214   24.3513   44.6298 H   0  0  0  0  0  0  0  0  0  0  0  0
   58.1560   26.4040   44.4530 C   0  0  1  0  0  0  0  0  0  0  0  0
   58.9876   25.8833   43.9557 H   0  0  0  0  0  0  0  0  0  0  0  0
   57.7200   27.5310   43.6460 N   0  0  0  0  0  0  0  0  0  0  0  0
   57.2390   27.4210   42.7240 H   0  0  0  0  0  0  0  0  0  0  0  0
   58.1470   31.7940   46.1860 C   0  0  0  0  0  0  0  0  0  0  0  0
   58.0356   30.8327   46.7089 H   0  0  0  0  0  0  0  0  0  0  0  0
   58.8360   32.8450   46.8000 C   0  0  0  0  0  0  0  0  0  0  0  0
   59.2617   32.7100   47.8053 H   0  0  0  0  0  0  0  0  0  0  0  0
  1  2  1  0
  2  3  2  0
  3  4  1  0
  3  5  1  0
  5  6  1  0
  5  7  2  0
  7  8  1  0
  8  9  1  0
  8 10  1  0
  8 11  1  0
 11 12  1  0
 11 13  2  0
 13 14  1  0
 14 15  1  0
 15 16  1  1
 15 17  1  0
 17 18  1  0
 17 19  1  0
 17 20  1  0
 20 21  2  0
 20 22  2  0
 20 23  1  0
 23 24  1  0
 23 25  1  0
 23 26  1  0
 26 27  1  6
 26 28  1  0
 28 29  1  0
  7 30  1  0
 30 31  1  0
 30 32  2  0
 32 33  1  0
 32  2  1  0
 28 13  1  0
 26 15  1  0
M  CHG  1  11   1
M  END
>  <UniqueID>  (36) 
32

>  <SMILES>  (36) 
O=S1(=O)C[C@@H]2S/C(=[NH+]\Cc3ccccc3)N[C@@H]2C1

>  <Energy>  (36) 
38.296373870957154

>  <Genealogy>  (36) 
O=S1(=O)CC2NC(=[NH+]Cc3ccccc3)SC2C1 (protonated)
O=S1(=O)C[C@@H]2SC(=[NH+]Cc3ccccc3)N[C@@H]2C1 (chirality)
O=S1(=O)C[C@@H]2S/C(=[NH+]\Cc3ccccc3)N[C@@H]2C1 (cis-trans isomerization)
O=S1(=O)C[C@@H]2S/C(=[NH+]\Cc3ccccc3)N[C@@H]2C1 (3D coordinates assigned)
O=S1(=O)C[C@@H]2S/C(=[NH+]\Cc3ccccc3)N[C@@H]2C1 (nonaromatic ring conformer: 38.296373870957154 kcal/mol)

>  <smiles>  (36) 
O=S1(=O)CC2NC(=NCc3ccccc3)SC2C1

>  <score_type>  (36) 
oracle

>  <origin>  (36) 
adg

>  <m_score__min__energy>  (36) 
-6.8399999999999999

>  <m_primary>  (36) 
energy

$$$$
36:0
     RDKit          3D

 32 33  0  0  0  0  0  0  0  0999 V2000
   57.1259   31.5902   43.4002 H   0  0  0  0  0  0  0  0  0  0  0  0
   57.7480   32.0330   44.1920 C   0  0  0  0  0  0  0  0  0  0  0  0
   58.0910   33.3860   44.1290 C   0  0  0  0  0  0  0  0  0  0  0  0
   57.7459   33.9984   43.2829 H   0  0  0  0  0  0  0  0  0  0  0  0
   58.8720   33.9680   45.1370 C   0  0  0  0  0  0  0  0  0  0  0  0
   59.2720   35.4110   45.0480 C   0  0  0  0  0  0  0  0  0  0  0  0
   59.3862   35.8230   46.0615 H   0  0  0  0  0  0  0  0  0  0  0  0
   60.2271   35.4942   44.5086 H   0  0  0  0  0  0  0  0  0  0  0  0
   58.4960   35.9740   44.5086 H   0  0  0  0  0  0  0  0  0  0  0  0
   59.3320   33.1710   46.1960 C   0  0  0  0  0  0  0  0  0  0  0  0
   59.9650   33.6137   46.9792 H   0  0  0  0  0  0  0  0  0  0  0  0
   58.9900   31.8170   46.2610 C   0  0  0  0  0  0  0  0  0  0  0  0
   59.3475   31.2035   47.1011 H   0  0  0  0  0  0  0  0  0  0  0  0
   58.1920   31.2330   45.2600 C   0  0  0  0  0  0  0  0  0  0  0  0
   57.8270   29.7940   45.3280 C   0  0  0  0  0  0  0  0  0  0  0  0
   58.8140   28.8100   45.4790 C   0  0  0  0  0  0  0  0  0  0  0  0
   59.8720   29.1029   45.5490 H   0  0  0  0  0  0  0  0  0  0  0  0
   58.4620   27.4610   45.5410 C   0  0  0  0  0  0  0  0  0  0  0  0
   59.2401   26.6911   45.6494 H   0  0  0  0  0  0  0  0  0  0  0  0
   57.1040   27.0900   45.4640 C   0  0  0  0  0  0  0  0  0  0  0  0
   56.7090   25.8460   45.5110 N   0  0  0  0  0  0  0  0  0  0  0  0
   55.4530   25.3200   45.9620 C   0  0  0  0  0  0  0  0  0  0  0  0
   54.3990   25.9680   45.7230 O   0  0  0  0  0  0  0  0  0  0  0  0
   55.3960   24.1360   46.7670 N   0  0  0  0  0  0  0  0  0  0  0  0
   56.4870   23.7200   47.6340 C   0  0  0  0  0  0  0  0  0  0  0  0
   56.1844   23.8354   48.6852 H   0  0  0  0  0  0  0  0  0  0  0  0
   56.7309   22.6658   47.4363 H   0  0  0  0  0  0  0  0  0  0  0  0
   57.3709   24.3442   47.4363 H   0  0  0  0  0  0  0  0  0  0  0  0
   56.1640   28.0640   45.2940 N   0  0  0  0  0  0  0  0  0  0  0  0
   55.1550   27.7990   45.2220 H   0  0  0  0  0  0  0  0  0  0  0  0
   56.4890   29.3840   45.2310 C   0  0  0  0  0  0  0  0  0  0  0  0
   55.6960   30.1356   45.1030 H   0  0  0  0  0  0  0  0  0  0  0  0
  1  2  1  0
  2  3  2  0
  3  4  1  0
  3  5  1  0
  5  6  1  0
  6  7  1  0
  6  8  1  0
  6  9  1  0
  5 10  2  0
 10 11  1  0
 10 12  1  0
 12 13  1  0
 12 14  2  0
 14 15  1  0
 15 16  1  0
 16 17  1  0
 16 18  2  0
 18 19  1  0
 18 20  1  0
 20 21  2  0
 21 22  1  0
 22 23  2  0
 22 24  1  0
 24 25  1  0
 25 26  1  0
 25 27  1  0
 25 28  1  0
 20 29  1  0
 29 30  1  0
 29 31  1  0
 31 32  1  0
 14  2  1  0
 31 15  2  0
M  CHG  1  24  -1
M  END
>  <UniqueID>  (37) 
33

>  <SMILES>  (37) 
C[N-]C(=O)/N=c1\ccc(-c2ccc(C)cc2)c[nH]1

>  <Energy>  (37) 
42.26590771216904

>  <Genealogy>  (37) 
C[N-]C(=O)N=c1ccc(-c2ccc(C)cc2)c[nH]1 (protonated)
C[N-]C(=O)/N=c1\ccc(-c2ccc(C)cc2)c[nH]1 (cis-trans isomerization)
C[N-]C(=O)/N=c1\ccc(-c2ccc(C)cc2)c[nH]1 (3D coordinates assigned)
C[N-]C(=O)/N=c1\ccc(-c2ccc(C)cc2)c[nH]1 (optimized conformer: 42.26590771216904 kcal/mol)

>  <smiles>  (37) 
CNC(=O)N=c1ccc(-c2ccc(C)cc2)c[nH]1

>  <score_type>  (37) 
oracle

>  <origin>  (37) 
adg

>  <m_score__min__energy>  (37) 
-8.75

>  <m_primary>  (37) 
energy

$$$$
37:0
     RDKit          3D

 36 38  0  0  0  0  0  0  0  0999 V2000
   56.9910   25.5570   46.8620 C   0  0  0  0  0  0  0  0  0  0  0  0
   56.1590   26.4760   46.0320 C   0  0  0  0  0  0  0  0  0  0  0  0
   54.9080   26.3270   45.9960 O   0  0  0  0  0  0  0  0  0  0  0  0
   56.7920   27.4880   45.2460 N   0  0  0  0  0  0  0  0  0  0  0  0
   56.3020   28.8590   45.1820 C   0  0  0  0  0  0  0  0  0  0  0  0
   57.0090   29.6310   44.0630 C   0  0  0  0  0  0  0  0  0  0  0  0
   58.4080   30.1820   44.4410 C   0  0  0  0  0  0  0  0  0  0  0  0
   58.2380   31.5980   44.9590 C   0  0  0  0  0  0  0  0  0  0  0  0
   58.0430   32.6630   44.0620 C   0  0  0  0  0  0  0  0  0  0  0  0
   57.7530   33.9430   44.5430 C   0  0  0  0  0  0  0  0  0  0  0  0
   57.6410   34.1680   45.9180 C   0  0  0  0  0  0  0  0  0  0  0  0
   57.8330   33.1160   46.8180 C   0  0  0  0  0  0  0  0  0  0  0  0
   58.1430   31.8360   46.3440 C   0  0  0  0  0  0  0  0  0  0  0  0
   58.3940   30.8060   47.2540 O   0  0  0  0  0  0  0  0  0  0  0  0
   58.9660   29.5980   46.8460 C   0  0  0  0  0  0  0  0  0  0  0  0
   59.4670   28.7120   47.8060 C   0  0  0  0  0  0  0  0  0  0  0  0
   60.1370   27.5530   47.4080 C   0  0  0  0  0  0  0  0  0  0  0  0
   60.3100   27.2760   46.0490 C   0  0  0  0  0  0  0  0  0  0  0  0
   59.7910   28.1440   45.0850 C   0  0  0  0  0  0  0  0  0  0  0  0
   59.0870   29.2980   45.4740 C   0  0  0  0  0  0  0  0  0  0  0  0
   56.8082   25.7589   47.9278 H   0  0  0  0  0  0  0  0  0  0  0  0
   56.7233   24.5145   46.6351 H   0  0  0  0  0  0  0  0  0  0  0  0
   58.0549   25.7201   46.6351 H   0  0  0  0  0  0  0  0  0  0  0  0
   55.2197   28.8476   44.9858 H   0  0  0  0  0  0  0  0  0  0  0  0
   56.5087   29.3554   46.1416 H   0  0  0  0  0  0  0  0  0  0  0  0
   57.1275   28.9559   43.2027 H   0  0  0  0  0  0  0  0  0  0  0  0
   56.3794   30.5057   43.8427 H   0  0  0  0  0  0  0  0  0  0  0  0
   59.0567   30.1864   43.5527 H   0  0  0  0  0  0  0  0  0  0  0  0
   58.1189   32.4884   42.9786 H   0  0  0  0  0  0  0  0  0  0  0  0
   57.6126   34.7753   43.8377 H   0  0  0  0  0  0  0  0  0  0  0  0
   57.4015   35.1743   46.2922 H   0  0  0  0  0  0  0  0  0  0  0  0
   57.7404   33.2941   47.8995 H   0  0  0  0  0  0  0  0  0  0  0  0
   59.3329   28.9286   48.8761 H   0  0  0  0  0  0  0  0  0  0  0  0
   60.5289   26.8575   48.1648 H   0  0  0  0  0  0  0  0  0  0  0  0
   60.8557   26.3730   45.7379 H   0  0  0  0  0  0  0  0  0  0  0  0
   59.9336   27.9239   44.0167 H   0  0  0  0  0  0  0  0  0  0  0  0
  1  2  1  0
  2  3  2  0
  2  4  1  0
  4  5  1  0
  5  6  1  0
  6  7  1  0
  7  8  1  0
  8  9  2  0
  9 10  1  0
 10 11  2  0
 11 12  1  0
 12 13  2  0
 13 14  1  0
 14 15  1  0
 15 16  2  0
 16 17  1  0
 17 18  2  0
 18 19  1  0
 19 20  2  0
 20  7  1  0
 13  8  1  0
 20 15  1  0
  1 21  1  0
  1 22  1  0
  1 23  1  0
  5 24  1  0
  5 25  1  0
  6 26  1  0
  6 27  1  0
  7 28  1  0
  9 29  1  0
 10 30  1  0
 11 31  1  0
 12 32  1  0
 16 33  1  0
 17 34  1  0
 18 35  1  0
 19 36  1  0
M  CHG  1   4  -1
M  END
>  <UniqueID>  (38) 
34

>  <SMILES>  (38) 
CC(=O)[N-]CCC1c2ccccc2Oc2ccccc21

>  <Energy>  (38) 
36.200119357911035

>  <Genealogy>  (38) 
CC(=O)[N-]CCC1c2ccccc2Oc2ccccc21 (protonated)
CC(=O)[N-]CCC1c2ccccc2Oc2ccccc21 (3D coordinates assigned)
CC(=O)[N-]CCC1c2ccccc2Oc2ccccc21 (nonaromatic ring conformer: 36.200119357911035 kcal/mol)

>  <smiles>  (38) 
CC(=O)NCCC1c2ccccc2Oc2ccccc21

>  <score_type>  (38) 
oracle

>  <origin>  (38) 
adg

>  <m_score__min__energy>  (38) 
-9.4900000000000002

>  <m_primary>  (38) 
energy

$$$$
38:0
     RDKit          3D

 65 68  0  0  0  0  0  0  0  0999 V2000
   58.4960   34.5650   52.8470 C   0  0  0  0  0  0  0  0  0  0  0  0
   58.9500   33.3110   52.1190 C   0  0  0  0  0  0  0  0  0  0  0  0
   60.4410   33.3820   51.6320 C   0  0  0  0  0  0  0  0  0  0  0  0
   60.6200   33.0560   50.2080 N   0  0  0  0  0  0  0  0  0  0  0  0
   61.0780   31.8040   49.8470 C   0  0  0  0  0  0  0  0  0  0  0  0
   61.5640   30.9870   50.6860 O   0  0  0  0  0  0  0  0  0  0  0  0
   61.0600   31.4660   48.5160 C   0  0  0  0  0  0  0  0  0  0  0  0
   60.5720   30.3280   48.0580 N   0  0  0  0  0  0  0  0  0  0  0  0
   60.3690   30.4470   46.7510 C   0  0  0  0  0  0  0  0  0  0  0  0
   59.1220   30.0970   45.9640 C   0  0  0  0  0  0  0  0  0  0  0  0
   58.8990   30.7810   44.7650 C   0  0  0  0  0  0  0  0  0  0  0  0
   57.7210   30.6090   44.0160 C   0  0  0  0  0  0  0  0  0  0  0  0
   56.7630   29.6860   44.4120 C   0  0  0  0  0  0  0  0  0  0  0  0
   56.9930   28.9080   45.5530 C   0  0  0  0  0  0  0  0  0  0  0  0
   58.1920   29.0570   46.3110 C   0  0  0  0  0  0  0  0  0  0  0  0
   58.3550   28.2520   47.5090 N   0  0  0  0  0  0  0  0  0  0  0  0
   58.9420   26.8890   47.5220 C   0  0  0  0  0  0  0  0  0  0  0  0
   58.1320   25.9850   46.6140 C   0  0  0  0  0  0  0  0  0  0  0  0
   58.7880   25.1190   45.7220 C   0  0  0  0  0  0  0  0  0  0  0  0
   58.0300   24.3330   44.8470 C   0  0  0  0  0  0  0  0  0  0  0  0
   56.6240   24.4320   44.8270 C   0  0  0  0  0  0  0  0  0  0  0  0
   55.8360   23.7850   43.8690 O   0  0  0  0  0  0  0  0  0  0  0  0
   56.2990   22.7880   42.9680 C   0  0  0  0  0  0  0  0  0  0  0  0
   55.9680   25.2700   45.7410 C   0  0  0  0  0  0  0  0  0  0  0  0
   54.5700   25.3540   45.6680 O   0  0  0  0  0  0  0  0  0  0  0  0
   53.6800   24.2230   45.5830 C   0  0  0  0  0  0  0  0  0  0  0  0
   56.7290   26.0230   46.6560 C   0  0  0  0  0  0  0  0  0  0  0  0
   60.7590   31.7010   46.3880 N   0  0  0  0  0  0  0  0  0  0  0  0
   60.9650   32.3840   47.5520 C   0  0  0  0  0  0  0  0  0  0  0  0
   60.2950   33.5490   47.8700 N   0  0  0  0  0  0  0  0  0  0  0  0
   59.4030   34.2130   46.8630 C   0  0  0  0  0  0  0  0  0  0  0  0
   58.0260   33.5300   46.8170 C   0  0  0  0  0  0  0  0  0  0  0  0
   57.2690   33.8450   45.5200 C   0  0  0  0  0  0  0  0  0  0  0  0
   60.1480   33.8930   49.2110 C   0  0  0  0  0  0  0  0  0  0  0  0
   59.4970   34.9250   49.5280 O   0  0  0  0  0  0  0  0  0  0  0  0
   58.5556   34.4004   53.9330 H   0  0  0  0  0  0  0  0  0  0  0  0
   59.1464   35.4070   52.5675 H   0  0  0  0  0  0  0  0  0  0  0  0
   57.4574   34.7955   52.5675 H   0  0  0  0  0  0  0  0  0  0  0  0
   58.8457   32.4542   52.8009 H   0  0  0  0  0  0  0  0  0  0  0  0
   58.3191   33.2071   51.2239 H   0  0  0  0  0  0  0  0  0  0  0  0
   60.8128   34.4031   51.8028 H   0  0  0  0  0  0  0  0  0  0  0  0
   61.0000   32.6274   52.2048 H   0  0  0  0  0  0  0  0  0  0  0  0
   59.6686   31.4750   44.3962 H   0  0  0  0  0  0  0  0  0  0  0  0
   57.5577   31.2105   43.1096 H   0  0  0  0  0  0  0  0  0  0  0  0
   55.8335   29.5671   43.8358 H   0  0  0  0  0  0  0  0  0  0  0  0
   56.2390   28.1721   45.8691 H   0  0  0  0  0  0  0  0  0  0  0  0
   58.1000   28.6150   48.4590 H   0  0  0  0  0  0  0  0  0  0  0  0
   59.9812   26.9332   47.1641 H   0  0  0  0  0  0  0  0  0  0  0  0
   58.9257   26.4910   48.5473 H   0  0  0  0  0  0  0  0  0  0  0  0
   59.8864   25.0598   45.7119 H   0  0  0  0  0  0  0  0  0  0  0  0
   58.5362   23.6310   44.1681 H   0  0  0  0  0  0  0  0  0  0  0  0
   56.6953   21.9345   43.5377 H   0  0  0  0  0  0  0  0  0  0  0  0
   55.4654   22.4506   42.3345 H   0  0  0  0  0  0  0  0  0  0  0  0
   57.0946   23.2072   42.3345 H   0  0  0  0  0  0  0  0  0  0  0  0
   53.4158   23.8873   46.5967 H   0  0  0  0  0  0  0  0  0  0  0  0
   52.7667   24.5148   45.0437 H   0  0  0  0  0  0  0  0  0  0  0  0
   54.1784   23.4040   45.0437 H   0  0  0  0  0  0  0  0  0  0  0  0
   56.2212   26.6447   47.4081 H   0  0  0  0  0  0  0  0  0  0  0  0
   59.2721   35.2698   47.1389 H   0  0  0  0  0  0  0  0  0  0  0  0
   59.8701   34.1307   45.8705 H   0  0  0  0  0  0  0  0  0  0  0  0
   58.1672   32.4415   46.8899 H   0  0  0  0  0  0  0  0  0  0  0  0
   57.4298   33.9121   47.6588 H   0  0  0  0  0  0  0  0  0  0  0  0
   56.2788   34.2571   45.7642 H   0  0  0  0  0  0  0  0  0  0  0  0
   57.8378   34.5811   44.9330 H   0  0  0  0  0  0  0  0  0  0  0  0
   57.1477   32.9227   44.9330 H   0  0  0  0  0  0  0  0  0  0  0  0
  1  2  1  0
  2  3  1  0
  3  4  1  0
  4  5  1  0
  5  6  2  0
  5  7  1  0
  7  8  1  0
  8  9  1  0
  9 10  1  0
 10 11  2  0
 11 12  1  0
 12 13  2  0
 13 14  1  0
 14 15  2  0
 15 16  1  0
 16 17  1  0
 17 18  1  0
 18 19  2  0
 19 20  1  0
 20 21  2  0
 21 22  1  0
 22 23  1  0
 21 24  1  0
 24 25  1  0
 25 26  1  0
 24 27  2  0
  9 28  2  0
 28 29  1  0
 29 30  1  0
 30 31  1  0
 31 32  1  0
 32 33  1  0
 30 34  1  0
 34 35  2  0
 34  4  1  0
 29  7  2  0
 15 10  1  0
 27 18  1  0
  1 36  1  0
  1 37  1  0
  1 38  1  0
  2 39  1  0
  2 40  1  0
  3 41  1  0
  3 42  1  0
 11 43  1  0
 12 44  1  0
 13 45  1  0
 14 46  1  0
 16 47  1  0
 17 48  1  0
 17 49  1  0
 19 50  1  0
 20 51  1  0
 23 52  1  0
 23 53  1  0
 23 54  1  0
 26 55  1  0
 26 56  1  0
 26 57  1  0
 27 58  1  0
 31 59  1  0
 31 60  1  0
 32 61  1  0
 32 62  1  0
 33 63  1  0
 33 64  1  0
 33 65  1  0
M  CHG  1   8  -1
M  END
>  <UniqueID>  (39) 
35

>  <SMILES>  (39) 
CCCn1c(=O)c2[n-]c(-c3ccccc3NCc3ccc(OC)c(OC)c3)nc2n(CCC)c1=O

>  <Energy>  (39) 
189.41325846971003

>  <Genealogy>  (39) 
CCCn1c(=O)c2[n-]c(-c3ccccc3NCc3ccc(OC)c(OC)c3)nc2n(CCC)c1=O (protonated)
CCCn1c(=O)c2[n-]c(-c3ccccc3NCc3ccc(OC)c(OC)c3)nc2n(CCC)c1=O (3D coordinates assigned)
CCCn1c(=O)c2[n-]c(-c3ccccc3NCc3ccc(OC)c(OC)c3)nc2n(CCC)c1=O (optimized conformer: 189.41325846971003 kcal/mol)

>  <smiles>  (39) 
CCCn1c(=O)c2[nH]c(-c3ccccc3NCc3ccc(OC)c(OC)c3)nc2n(CCC)c1=O

>  <score_type>  (39) 
oracle

>  <origin>  (39) 
adg

>  <m_score__min__energy>  (39) 
-8.9199999999999999

>  <m_primary>  (39) 
energy

$$$$
39:0
     RDKit          3D

 40 41  0  0  0  0  0  0  0  0999 V2000
   63.7250   32.8330   48.1880 C   0  0  0  0  0  0  0  0  0  0  0  0
   62.6020   32.7740   47.1590 C   0  0  0  0  0  0  0  0  0  0  0  0
   61.9160   31.4020   47.1680 C   0  0  0  0  0  0  0  0  0  0  0  0
   61.1520   31.1250   48.4710 C   0  0  0  0  0  0  0  0  0  0  0  0
   59.4800   31.7780   48.4540 S   0  0  0  0  0  0  0  0  0  0  0  0
   59.1930   32.4280   49.7780 O   0  0  0  0  0  0  0  0  0  0  0  0
   58.5430   30.6160   48.2760 O   0  0  0  0  0  0  0  0  0  0  0  0
   59.2940   33.0010   47.1740 C   0  0  0  0  0  0  0  0  0  0  0  0
   59.5710   34.3370   47.5120 C   0  0  0  0  0  0  0  0  0  0  0  0
   59.5530   35.3410   46.5430 C   0  0  0  0  0  0  0  0  0  0  0  0
   59.2520   35.0270   45.2190 C   0  0  0  0  0  0  0  0  0  0  0  0
   58.9420   33.7150   44.8660 C   0  0  0  0  0  0  0  0  0  0  0  0
   58.9320   32.6960   45.8340 C   0  0  0  0  0  0  0  0  0  0  0  0
   58.5280   31.3480   45.4030 C   0  0  0  0  0  0  0  0  0  0  0  0
   59.4000   30.4590   45.2050 O   0  0  0  0  0  0  0  0  0  0  0  0
   57.1410   31.0410   45.2530 N   0  0  0  0  0  0  0  0  0  0  0  0
   56.6010   29.5720   44.5180 S   0  0  0  0  0  0  0  0  0  0  0  0
   55.1420   29.3670   44.8160 O   0  0  0  0  0  0  0  0  0  0  0  0
   56.7940   29.6540   43.0300 O   0  0  0  0  0  0  0  0  0  0  0  0
   57.5490   28.2450   45.1550 C   0  0  0  0  0  0  0  0  0  0  0  0
   57.9200   28.0910   46.4810 C   0  0  0  0  0  0  0  0  0  0  0  0
   58.6360   26.9120   46.7140 C   0  0  0  0  0  0  0  0  0  0  0  0
   58.8240   26.1410   45.5730 C   0  0  0  0  0  0  0  0  0  0  0  0
   58.0980   26.9250   44.2740 S   0  0  0  0  0  0  0  0  0  0  0  0
   63.2960   32.8105   49.2006 H   0  0  0  0  0  0  0  0  0  0  0  0
   64.3918   31.9687   48.0530 H   0  0  0  0  0  0  0  0  0  0  0  0
   64.2976   33.7625   48.0530 H   0  0  0  0  0  0  0  0  0  0  0  0
   61.8579   33.5492   47.3945 H   0  0  0  0  0  0  0  0  0  0  0  0
   63.0333   32.9423   46.1612 H   0  0  0  0  0  0  0  0  0  0  0  0
   61.2061   31.3589   46.3288 H   0  0  0  0  0  0  0  0  0  0  0  0
   62.7029   30.6387   47.0778 H   0  0  0  0  0  0  0  0  0  0  0  0
   61.1021   30.0368   48.6239 H   0  0  0  0  0  0  0  0  0  0  0  0
   61.6944   31.6287   49.2847 H   0  0  0  0  0  0  0  0  0  0  0  0
   59.8053   34.5948   48.5554 H   0  0  0  0  0  0  0  0  0  0  0  0
   59.7765   36.3807   46.8243 H   0  0  0  0  0  0  0  0  0  0  0  0
   59.2591   35.8154   44.4520 H   0  0  0  0  0  0  0  0  0  0  0  0
   58.7028   33.4745   43.8196 H   0  0  0  0  0  0  0  0  0  0  0  0
   57.6769   28.8197   47.2683 H   0  0  0  0  0  0  0  0  0  0  0  0
   59.0141   26.6227   47.7056 H   0  0  0  0  0  0  0  0  0  0  0  0
   59.3576   25.1802   45.5272 H   0  0  0  0  0  0  0  0  0  0  0  0
  1  2  1  0
  2  3  1  0
  3  4  1  0
  4  5  1  0
  5  6  2  0
  5  7  2  0
  5  8  1  0
  8  9  2  0
  9 10  1  0
 10 11  2  0
 11 12  1  0
 12 13  2  0
 13 14  1  0
 14 15  2  0
 14 16  1  0
 16 17  1  0
 17 18  2  0
 17 19  2  0
 17 20  1  0
 20 21  2  0
 21 22  1  0
 22 23  2  0
 23 24  1  0
 13  8  1  0
 24 20  1  0
  1 25  1  0
  1 26  1  0
  1 27  1  0
  2 28  1  0
  2 29  1  0
  3 30  1  0
  3 31  1  0
  4 32  1  0
  4 33  1  0
  9 34  1  0
 10 35  1  0
 11 36  1  0
 12 37  1  0
 21 38  1  0
 22 39  1  0
 23 40  1  0
M  CHG  1  16  -1
M  END
>  <UniqueID>  (40) 
36

>  <SMILES>  (40) 
CCCCS(=O)(=O)c1ccccc1C(=O)[N-]S(=O)(=O)c1cccs1

>  <Energy>  (40) 
65.79700986770798

>  <Genealogy>  (40) 
CCCCS(=O)(=O)c1ccccc1C(=O)[N-]S(=O)(=O)c1cccs1 (protonated)
CCCCS(=O)(=O)c1ccccc1C(=O)[N-]S(=O)(=O)c1cccs1 (3D coordinates assigned)
CCCCS(=O)(=O)c1ccccc1C(=O)[N-]S(=O)(=O)c1cccs1 (optimized conformer: 65.79700986770798 kcal/mol)

>  <smiles>  (40) 
CCCCS(=O)(=O)c1ccccc1C(=O)NS(=O)(=O)c1cccs1

>  <score_type>  (40) 
oracle

>  <origin>  (40) 
adg

>  <m_score__min__energy>  (40) 
-10.74

>  <m_primary>  (40) 
energy

$$$$
40:0
     RDKit          3D

 48 50  0  0  0  0  0  0  0  0999 V2000
   64.1680   33.0630   48.5770 C   0  0  0  0  0  0  0  0  0  0  0  0
   63.3530   33.6970   47.4460 C   0  0  0  0  0  0  0  0  0  0  0  0
   61.8910   33.5300   47.6210 N   0  0  0  0  0  0  0  0  0  0  0  0
   61.4810   33.7190   49.0330 C   0  0  0  0  0  0  0  0  0  0  0  0
   60.0320   34.2090   49.1560 C   0  0  0  0  0  0  0  0  0  0  0  0
   61.3440   32.2950   47.0700 C   0  0  0  0  0  0  0  0  0  0  0  0
   62.0630   31.2560   47.1320 O   0  0  0  0  0  0  0  0  0  0  0  0
   59.9970   32.1600   46.4170 C   0  0  0  0  0  0  0  0  0  0  0  0
   59.2560   33.2650   45.8980 C   0  0  0  0  0  0  0  0  0  0  0  0
   57.9710   33.0850   45.3550 C   0  0  0  0  0  0  0  0  0  0  0  0
   57.4660   31.7970   45.2830 C   0  0  0  0  0  0  0  0  0  0  0  0
   56.2720   31.4110   44.8010 N   0  0  0  0  0  0  0  0  0  0  0  0
   56.2320   30.0820   44.8660 N   0  0  0  0  0  0  0  0  0  0  0  0
   57.3970   29.6340   45.3910 C   0  0  0  0  0  0  0  0  0  0  0  0
   57.7290   28.2380   45.5060 N   0  0  0  0  0  0  0  0  0  0  0  0
   57.8190   27.4600   44.2610 C   0  0  0  0  0  0  0  0  0  0  0  0
   57.8890   25.9270   44.4770 C   0  0  0  0  0  0  0  0  0  0  0  0
   57.9570   25.5300   45.8960 N   0  0  0  0  0  0  0  0  0  0  0  0
   58.3540   24.1160   46.0030 C   0  0  0  0  0  0  0  0  0  0  0  0
   58.9120   26.3770   46.6200 C   0  0  0  0  0  0  0  0  0  0  0  0
   58.3030   27.7620   46.7720 C   0  0  0  0  0  0  0  0  0  0  0  0
   58.2000   30.7180   45.6790 C   0  0  0  0  0  0  0  0  0  0  0  0
   59.4520   30.8560   46.2740 C   0  0  0  0  0  0  0  0  0  0  0  0
   63.7586   33.3815   49.5470 H   0  0  0  0  0  0  0  0  0  0  0  0
   64.1139   31.9672   48.4982 H   0  0  0  0  0  0  0  0  0  0  0  0
   65.2169   33.3850   48.4982 H   0  0  0  0  0  0  0  0  0  0  0  0
   63.5810   34.7725   47.4101 H   0  0  0  0  0  0  0  0  0  0  0  0
   63.6329   33.1862   46.5129 H   0  0  0  0  0  0  0  0  0  0  0  0
   61.4690   34.3240   47.0810 H   0  0  0  0  0  0  0  0  0  0  0  0
   61.5761   32.7587   49.5609 H   0  0  0  0  0  0  0  0  0  0  0  0
   62.1350   34.4854   49.4745 H   0  0  0  0  0  0  0  0  0  0  0  0
   59.7645   34.2995   50.2191 H   0  0  0  0  0  0  0  0  0  0  0  0
   59.9341   35.1902   48.6685 H   0  0  0  0  0  0  0  0  0  0  0  0
   59.3587   33.4886   48.6685 H   0  0  0  0  0  0  0  0  0  0  0  0
   59.6970   34.2724   45.9233 H   0  0  0  0  0  0  0  0  0  0  0  0
   57.3833   33.9433   44.9974 H   0  0  0  0  0  0  0  0  0  0  0  0
   56.9321   27.6826   43.6496 H   0  0  0  0  0  0  0  0  0  0  0  0
   58.7582   27.7545   43.7699 H   0  0  0  0  0  0  0  0  0  0  0  0
   56.9916   25.4724   44.0319 H   0  0  0  0  0  0  0  0  0  0  0  0
   58.8170   25.5776   44.0009 H   0  0  0  0  0  0  0  0  0  0  0  0
   58.4325   23.8365   47.0640 H   0  0  0  0  0  0  0  0  0  0  0  0
   57.5983   23.4849   45.5125 H   0  0  0  0  0  0  0  0  0  0  0  0
   59.3277   23.9704   45.5125 H   0  0  0  0  0  0  0  0  0  0  0  0
   59.1116   25.9476   47.6128 H   0  0  0  0  0  0  0  0  0  0  0  0
   59.8598   26.4388   46.0651 H   0  0  0  0  0  0  0  0  0  0  0  0
   57.5090   27.7222   47.5322 H   0  0  0  0  0  0  0  0  0  0  0  0
   59.0989   28.4585   47.0744 H   0  0  0  0  0  0  0  0  0  0  0  0
   60.0069   29.9738   46.6257 H   0  0  0  0  0  0  0  0  0  0  0  0
  1  2  1  0
  2  3  1  0
  3  4  1  0
  4  5  1  0
  3  6  1  0
  6  7  2  0
  6  8  1  0
  8  9  2  0
  9 10  1  0
 10 11  2  0
 11 12  1  0
 12 13  1  0
 13 14  2  0
 14 15  1  0
 15 16  1  0
 16 17  1  0
 17 18  1  0
 18 19  1  0
 18 20  1  0
 20 21  1  0
 14 22  1  0
 22 23  2  0
 23  8  1  0
 22 11  1  0
 21 15  1  0
  1 24  1  0
  1 25  1  0
  1 26  1  0
  2 27  1  0
  2 28  1  0
  3 29  1  0
  4 30  1  0
  4 31  1  0
  5 32  1  0
  5 33  1  0
  5 34  1  0
  9 35  1  0
 10 36  1  0
 16 37  1  0
 16 38  1  0
 17 39  1  0
 17 40  1  0
 19 41  1  0
 19 42  1  0
 19 43  1  0
 20 44  1  0
 20 45  1  0
 21 46  1  0
 21 47  1  0
 23 48  1  0
M  CHG  2   3   1  12  -1
M  END
>  <UniqueID>  (41) 
37

>  <SMILES>  (41) 
CC[NH+](CC)C(=O)c1ccc2[n-]nc(N3CCN(C)CC3)c2c1

>  <Energy>  (41) 
105.51555746382341

>  <Genealogy>  (41) 
CC[NH+](CC)C(=O)c1ccc2[n-]nc(N3CCN(C)CC3)c2c1 (protonated)
CC[NH+](CC)C(=O)c1ccc2[n-]nc(N3CCN(C)CC3)c2c1 (3D coordinates assigned)
CC[NH+](CC)C(=O)c1ccc2[n-]nc(N3CCN(C)CC3)c2c1 (nonaromatic ring conformer: 105.51555746382341 kcal/mol)

>  <smiles>  (41) 
CCN(CC)C(=O)c1ccc2[nH]nc(N3CCN(C)CC3)c2c1

>  <score_type>  (41) 
oracle

>  <origin>  (41) 
adg

>  <m_score__min__energy>  (41) 
-7.04

>  <m_primary>  (41) 
energy

$$$$
41:0
     RDKit          3D

 36 38  0  0  1  0  0  0  0  0999 V2000
   59.0760   22.6480   44.9420 C   0  0  0  0  0  0  0  0  0  0  0  0
   59.6080   23.6410   45.7750 O   0  0  0  0  0  0  0  0  0  0  0  0
   59.1120   24.9140   45.9220 C   0  0  0  0  0  0  0  0  0  0  0  0
   59.8810   26.0240   46.1440 C   0  0  0  0  0  0  0  0  0  0  0  0
   59.3560   27.3010   46.2880 C   0  0  0  0  0  0  0  0  0  0  0  0
   58.0030   27.4340   46.2000 C   0  0  0  0  0  0  0  0  0  0  0  0
   57.3850   28.7310   46.3400 N   0  0  0  0  0  0  0  0  0  0  0  0
   57.2270   29.4240   45.2410 C   0  0  0  0  0  0  0  0  0  0  0  0
   56.6380   28.8330   44.1850 N   0  0  0  0  0  0  0  0  0  0  0  0
   56.4400   29.4890   43.0070 C   0  0  0  0  0  0  0  0  0  0  0  0
   56.8440   30.7860   42.8770 N   0  0  0  0  0  0  0  0  0  0  0  0
   57.4390   31.3850   43.9380 C   0  0  0  0  0  0  0  0  0  0  0  0
   57.8490   32.7060   43.7980 C   0  0  0  0  0  0  0  0  0  0  0  0
   58.4640   33.3620   44.8630 C   0  0  0  0  0  0  0  0  0  0  0  0
   58.6490   32.6640   46.0460 C   0  0  0  0  0  0  0  0  0  0  0  0
   58.2520   31.3530   46.2110 C   0  0  0  0  0  0  0  0  0  0  0  0
   57.6470   30.7350   45.1360 C   0  0  0  0  0  0  0  0  0  0  0  0
   57.1700   26.3320   45.9740 C   0  0  0  0  0  0  0  0  0  0  0  0
   55.8020   26.5550   45.8970 O   0  0  0  0  0  0  0  0  0  0  0  0
   54.9840   25.4040   45.6340 C   0  0  0  0  0  0  0  0  0  0  0  0
   57.7430   25.0830   45.8380 C   0  0  0  0  0  0  0  0  0  0  0  0
   58.6456   21.8446   45.5579 H   0  0  0  0  0  0  0  0  0  0  0  0
   58.2907   23.0840   44.3071 H   0  0  0  0  0  0  0  0  0  0  0  0
   59.8741   22.2357   44.3071 H   0  0  0  0  0  0  0  0  0  0  0  0
   60.9716   25.8978   46.2119 H   0  0  0  0  0  0  0  0  0  0  0  0
   60.0061   28.1703   46.4659 H   0  0  0  0  0  0  0  0  0  0  0  0
   56.2970   27.8380   44.2040 H   0  0  0  0  0  0  0  0  0  0  0  0
   55.9561   28.9747   42.1636 H   0  0  0  0  0  0  0  0  0  0  0  0
   57.6880   33.2337   42.8464 H   0  0  0  0  0  0  0  0  0  0  0  0
   58.7941   34.4069   44.7670 H   0  0  0  0  0  0  0  0  0  0  0  0
   59.1332   33.1774   46.8898 H   0  0  0  0  0  0  0  0  0  0  0  0
   58.4114   30.8220   47.1611 H   0  0  0  0  0  0  0  0  0  0  0  0
   54.6652   24.9554   46.5864 H   0  0  0  0  0  0  0  0  0  0  0  0
   54.0981   25.7079   45.0571 H   0  0  0  0  0  0  0  0  0  0  0  0
   55.5623   24.6673   45.0571 H   0  0  0  0  0  0  0  0  0  0  0  0
   57.0996   24.2087   45.6600 H   0  0  0  0  0  0  0  0  0  0  0  0
  1  2  1  0
  2  3  1  0
  3  4  2  0
  4  5  1  0
  5  6  2  0
  6  7  1  0
  7  8  2  0
  8  9  1  0
  9 10  1  0
 10 11  2  0
 11 12  1  0
 12 13  2  0
 13 14  1  0
 14 15  2  0
 15 16  1  0
 16 17  2  0
  6 18  1  0
 18 19  1  0
 19 20  1  0
 18 21  2  0
 21  3  1  0
 17  8  1  0
 17 12  1  0
  1 22  1  0
  1 23  1  0
  1 24  1  0
  4 25  1  0
  5 26  1  0
  9 27  1  0
 10 28  1  0
 13 29  1  0
 14 30  1  0
 15 31  1  0
 16 32  1  0
 20 33  1  0
 20 34  1  0
 20 35  1  0
 21 36  1  0
M  END
>  <smiles>  (42) 
COc1ccc(N=c2[nH]cnc3ccccc23)c(OC)c1

>  <score_type>  (42) 
oracle

>  <origin>  (42) 
adg

>  <m_score__min__energy>  (42) 
-6.8099999999999996

>  <m_primary>  (42) 
energy

$$$$
42:0
     RDKit          3D

 46 48  0  0  0  0  0  0  0  0999 V2000
   58.5477   32.7673   47.2047 H   0  0  0  0  0  0  0  0  0  0  0  0
   58.5620   32.7890   46.1050 C   0  0  0  0  0  0  0  0  0  0  0  0
   59.6019   32.7337   45.7507 H   0  0  0  0  0  0  0  0  0  0  0  0
   58.1032   33.7238   45.7507 H   0  0  0  0  0  0  0  0  0  0  0  0
   57.7910   31.6220   45.5730 C   0  0  0  0  0  0  0  0  0  0  0  0
   56.6550   31.7480   44.8630 N   0  0  0  0  0  0  0  0  0  0  0  0
   56.2680   30.5260   44.5330 N   0  0  0  0  0  0  0  0  0  0  0  0
   57.1630   29.6670   45.0600 C   0  0  0  0  0  0  0  0  0  0  0  0
   57.1110   28.1870   44.8020 C   0  0  0  0  0  0  0  0  0  0  0  0
   56.6165   28.0149   43.8346 H   0  0  0  0  0  0  0  0  0  0  0  0
   58.1450   27.8118   44.8006 H   0  0  0  0  0  0  0  0  0  0  0  0
   56.3780   27.4630   45.8380 N   0  0  0  0  0  0  0  0  0  0  0  0
   56.0270   26.2140   45.9900 C   0  0  0  0  0  0  0  0  0  0  0  0
   54.7820   25.8270   45.6200 N   0  0  0  0  0  0  0  0  0  0  0  0
   54.7500   24.5240   45.9360 C   0  0  0  0  0  0  0  0  0  0  0  0
   55.9290   24.1330   46.4730 C   0  0  0  0  0  0  0  0  0  0  0  0
   56.1090   22.7950   46.8370 C   0  0  0  0  0  0  0  0  0  0  0  0
   57.1890   22.4080   47.3620 O   0  0  0  0  0  0  0  0  0  0  0  0
   55.0790   21.9090   46.6160 N   0  0  0  0  0  0  0  0  0  0  0  0
   55.2320   20.4970   47.0070 C   0  0  0  0  0  0  0  0  0  0  0  0
   55.2404   20.4192   48.1042 H   0  0  0  0  0  0  0  0  0  0  0  0
   54.3920   19.9120   46.6044 H   0  0  0  0  0  0  0  0  0  0  0  0
   56.1778   20.1055   46.6044 H   0  0  0  0  0  0  0  0  0  0  0  0
   53.8790   22.3510   46.0900 C   0  0  0  0  0  0  0  0  0  0  0  0
   52.9290   21.5350   45.9170 O   0  0  0  0  0  0  0  0  0  0  0  0
   53.7050   23.6740   45.7520 N   0  0  0  0  0  0  0  0  0  0  0  0
   52.4520   24.1420   45.1430 C   0  0  0  0  0  0  0  0  0  0  0  0
   51.7368   24.4091   45.9349 H   0  0  0  0  0  0  0  0  0  0  0  0
   52.6549   25.0250   44.5191 H   0  0  0  0  0  0  0  0  0  0  0  0
   52.0264   23.3422   44.5191 H   0  0  0  0  0  0  0  0  0  0  0  0
   56.7750   25.1910   46.5310 N   0  0  0  0  0  0  0  0  0  0  0  0
   58.1960   25.1250   46.9040 C   0  0  0  0  0  0  0  0  0  0  0  0
   58.3369   24.3316   47.6528 H   0  0  0  0  0  0  0  0  0  0  0  0
   58.7896   24.9078   46.0038 H   0  0  0  0  0  0  0  0  0  0  0  0
   58.6590   26.4560   47.4900 C   0  0  0  0  0  0  0  0  0  0  0  0
   58.6394   26.3997   48.5884 H   0  0  0  0  0  0  0  0  0  0  0  0
   59.6839   26.6687   47.1520 H   0  0  0  0  0  0  0  0  0  0  0  0
   57.9874   27.2589   47.1520 H   0  0  0  0  0  0  0  0  0  0  0  0
   58.1450   30.3270   45.7180 N   0  0  0  0  0  0  0  0  0  0  0  0
   59.3890   29.8040   46.2940 C   0  0  0  0  0  0  0  0  0  0  0  0
   59.1447   29.0785   47.0839 H   0  0  0  0  0  0  0  0  0  0  0  0
   59.9660   30.6419   46.7124 H   0  0  0  0  0  0  0  0  0  0  0  0
   60.2270   29.1160   45.2240 C   0  0  0  0  0  0  0  0  0  0  0  0
   60.9917   28.4882   45.7046 H   0  0  0  0  0  0  0  0  0  0  0  0
   59.5773   28.4874   44.5974 H   0  0  0  0  0  0  0  0  0  0  0  0
   60.7171   29.8757   44.5974 H   0  0  0  0  0  0  0  0  0  0  0  0
  1  2  1  0
  2  3  1  0
  2  4  1  0
  2  5  1  0
  5  6  2  0
  6  7  1  0
  7  8  2  0
  8  9  1  0
  9 10  1  0
  9 11  1  0
  9 12  1  0
 12 13  2  0
 13 14  1  0
 14 15  1  0
 15 16  2  0
 16 17  1  0
 17 18  2  0
 17 19  1  0
 19 20  1  0
 20 21  1  0
 20 22  1  0
 20 23  1  0
 19 24  1  0
 24 25  2  0
 24 26  1  0
 26 27  1  0
 27 28  1  0
 27 29  1  0
 27 30  1  0
 16 31  1  0
 31 32  1  0
 32 33  1  0
 32 34  1  0
 32 35  1  0
 35 36  1  0
 35 37  1  0
 35 38  1  0
  8 39  1  0
 39 40  1  0
 40 41  1  0
 40 42  1  0
 40 43  1  0
 43 44  1  0
 43 45  1  0
 43 46  1  0
 39  5  1  0
 31 13  1  0
 26 15  1  0
M  CHG  1  14  -1
M  END
>  <UniqueID>  (43) 
38

>  <SMILES>  (43) 
CCn1c(C)nnc1C/N=c1/[n-]c2c(c(=O)n(C)c(=O)n2C)n1CC

>  <Energy>  (43) 
131.5088091391571

>  <Genealogy>  (43) 
CCn1c(C)nnc1CN=c1[n-]c2c(c(=O)n(C)c(=O)n2C)n1CC (protonated)
CCn1c(C)nnc1C/N=c1/[n-]c2c(c(=O)n(C)c(=O)n2C)n1CC (cis-trans isomerization)
CCn1c(C)nnc1C/N=c1/[n-]c2c(c(=O)n(C)c(=O)n2C)n1CC (3D coordinates assigned)
CCn1c(C)nnc1C/N=c1/[n-]c2c(c(=O)n(C)c(=O)n2C)n1CC (optimized conformer: 131.5088091391571 kcal/mol)

>  <smiles>  (43) 
CCn1c(C)nnc1CN=c1[nH]c2c(c(=O)n(C)c(=O)n2C)n1CC

>  <score_type>  (43) 
oracle

>  <origin>  (43) 
adg

>  <m_score__min__energy>  (43) 
-9.2400000000000002

>  <m_primary>  (43) 
energy

$$$$
43:0
     RDKit          3D

 57 59  0  0  0  0  0  0  0  0999 V2000
   61.1140   30.5030   49.5520 C   0  0  0  0  0  0  0  0  0  0  0  0
   61.3940   31.5340   48.4550 C   0  0  0  0  0  0  0  0  0  0  0  0
   61.0890   32.9200   48.8840 N   0  0  0  0  0  0  0  0  0  0  0  0
   62.0930   33.8870   48.3750 C   0  0  0  0  0  0  0  0  0  0  0  0
   62.8240   33.4380   47.1020 C   0  0  0  0  0  0  0  0  0  0  0  0
   59.4480   33.3880   48.4680 S   0  0  0  0  0  0  0  0  0  0  0  0
   59.3160   34.8830   48.5430 O   0  0  0  0  0  0  0  0  0  0  0  0
   58.4690   32.7760   49.4340 O   0  0  0  0  0  0  0  0  0  0  0  0
   59.0440   32.9040   46.8200 C   0  0  0  0  0  0  0  0  0  0  0  0
   59.0420   33.8350   45.7770 C   0  0  0  0  0  0  0  0  0  0  0  0
   58.7160   33.4340   44.4810 C   0  0  0  0  0  0  0  0  0  0  0  0
   58.3780   32.0980   44.2060 C   0  0  0  0  0  0  0  0  0  0  0  0
   58.3560   31.1590   45.2630 C   0  0  0  0  0  0  0  0  0  0  0  0
   58.7080   31.5720   46.5580 C   0  0  0  0  0  0  0  0  0  0  0  0
   57.9510   29.7950   45.0410 N   0  0  0  0  0  0  0  0  0  0  0  0
   58.8000   28.6760   45.4730 C   0  0  0  0  0  0  0  0  0  0  0  0
   58.5430   28.3110   46.9050 C   0  0  0  0  0  0  0  0  0  0  0  0
   59.1600   28.9080   47.8280 O   0  0  0  0  0  0  0  0  0  0  0  0
   57.6680   27.2140   47.2050 N   0  0  0  0  0  0  0  0  0  0  0  0
   57.4480   26.0710   46.3680 C   0  0  0  0  0  0  0  0  0  0  0  0
   58.5320   25.2330   46.0770 C   0  0  0  0  0  0  0  0  0  0  0  0
   58.3600   24.1090   45.2630 C   0  0  0  0  0  0  0  0  0  0  0  0
   57.1070   23.8260   44.7160 C   0  0  0  0  0  0  0  0  0  0  0  0
   56.0270   24.6740   44.9710 C   0  0  0  0  0  0  0  0  0  0  0  0
   56.1920   25.7990   45.7880 C   0  0  0  0  0  0  0  0  0  0  0  0
   55.1440   26.6400   45.9610 F   0  0  0  0  0  0  0  0  0  0  0  0
   56.6790   29.5240   44.4400 C   0  0  0  0  0  0  0  0  0  0  0  0
   55.7420   29.0550   45.1410 O   0  0  0  0  0  0  0  0  0  0  0  0
   56.4680   29.7440   42.9740 C   0  0  0  0  0  0  0  0  0  0  0  0
   56.6610   31.2100   42.5800 C   0  0  0  0  0  0  0  0  0  0  0  0
   58.1080   31.6830   42.7790 C   0  0  0  0  0  0  0  0  0  0  0  0
   61.2417   30.9731   50.5382 H   0  0  0  0  0  0  0  0  0  0  0  0
   60.0828   30.1330   49.4529 H   0  0  0  0  0  0  0  0  0  0  0  0
   61.8163   29.6622   49.4529 H   0  0  0  0  0  0  0  0  0  0  0  0
   62.4576   31.4762   48.1804 H   0  0  0  0  0  0  0  0  0  0  0  0
   60.7413   31.2981   47.6016 H   0  0  0  0  0  0  0  0  0  0  0  0
   61.1530   32.9620   49.9280 H   0  0  0  0  0  0  0  0  0  0  0  0
   61.5779   34.8346   48.1588 H   0  0  0  0  0  0  0  0  0  0  0  0
   62.8597   33.9818   49.1580 H   0  0  0  0  0  0  0  0  0  0  0  0
   63.7314   32.8806   47.3775 H   0  0  0  0  0  0  0  0  0  0  0  0
   62.1621   32.7905   46.5081 H   0  0  0  0  0  0  0  0  0  0  0  0
   63.1023   34.3211   46.5081 H   0  0  0  0  0  0  0  0  0  0  0  0
   59.2979   34.8857   45.9785 H   0  0  0  0  0  0  0  0  0  0  0  0
   58.7236   34.1720   43.6653 H   0  0  0  0  0  0  0  0  0  0  0  0
   58.7196   30.8381   47.3773 H   0  0  0  0  0  0  0  0  0  0  0  0
   58.5900   27.8024   44.8384 H   0  0  0  0  0  0  0  0  0  0  0  0
   59.8516   28.9848   45.3793 H   0  0  0  0  0  0  0  0  0  0  0  0
   59.5252   25.4606   46.4915 H   0  0  0  0  0  0  0  0  0  0  0  0
   59.2131   23.4469   45.0534 H   0  0  0  0  0  0  0  0  0  0  0  0
   56.9705   22.9357   44.0846 H   0  0  0  0  0  0  0  0  0  0  0  0
   55.0435   24.4573   44.5285 H   0  0  0  0  0  0  0  0  0  0  0  0
   57.1884   29.1284   42.4153 H   0  0  0  0  0  0  0  0  0  0  0  0
   55.4324   29.4615   42.7339 H   0  0  0  0  0  0  0  0  0  0  0  0
   56.3928   31.3293   41.5199 H   0  0  0  0  0  0  0  0  0  0  0  0
   56.0160   31.8200   43.2296 H   0  0  0  0  0  0  0  0  0  0  0  0
   58.7896   30.8615   42.5133 H   0  0  0  0  0  0  0  0  0  0  0  0
   58.2699   32.5596   42.1345 H   0  0  0  0  0  0  0  0  0  0  0  0
  1  2  1  0
  2  3  1  0
  3  4  1  0
  4  5  1  0
  3  6  1  0
  6  7  2  0
  6  8  2  0
  6  9  1  0
  9 10  2  0
 10 11  1  0
 11 12  2  0
 12 13  1  0
 13 14  2  0
 13 15  1  0
 15 16  1  0
 16 17  1  0
 17 18  2  0
 17 19  1  0
 19 20  1  0
 20 21  2  0
 21 22  1  0
 22 23  2  0
 23 24  1  0
 24 25  2  0
 25 26  1  0
 15 27  1  0
 27 28  2  0
 27 29  1  0
 29 30  1  0
 30 31  1  0
 14  9  1  0
 25 20  1  0
 31 12  1  0
  1 32  1  0
  1 33  1  0
  1 34  1  0
  2 35  1  0
  2 36  1  0
  3 37  1  0
  4 38  1  0
  4 39  1  0
  5 40  1  0
  5 41  1  0
  5 42  1  0
 10 43  1  0
 11 44  1  0
 14 45  1  0
 16 46  1  0
 16 47  1  0
 21 48  1  0
 22 49  1  0
 23 50  1  0
 24 51  1  0
 29 52  1  0
 29 53  1  0
 30 54  1  0
 30 55  1  0
 31 56  1  0
 31 57  1  0
M  CHG  2   3   1  19  -1
M  END
>  <UniqueID>  (44) 
39

>  <SMILES>  (44) 
CC[NH+](CC)S(=O)(=O)c1ccc2c(c1)N(CC(=O)[N-]c1ccccc1F)C(=O)CCC2

>  <Energy>  (44) 
73.84529584590243

>  <Genealogy>  (44) 
CC[NH+](CC)S(=O)(=O)c1ccc2c(c1)N(CC(=O)[N-]c1ccccc1F)C(=O)CCC2 (protonated)
CC[NH+](CC)S(=O)(=O)c1ccc2c(c1)N(CC(=O)[N-]c1ccccc1F)C(=O)CCC2 (3D coordinates assigned)
CC[NH+](CC)S(=O)(=O)c1ccc2c(c1)N(CC(=O)[N-]c1ccccc1F)C(=O)CCC2 (nonaromatic ring conformer: 73.84529584590243 kcal/mol)

>  <smiles>  (44) 
CCN(CC)S(=O)(=O)c1ccc2c(c1)N(CC(=O)Nc1ccccc1F)C(=O)CCC2

>  <score_type>  (44) 
oracle

>  <origin>  (44) 
adg

>  <m_score__min__energy>  (44) 
-7.6200000000000001

>  <m_primary>  (44) 
energy

$$$$
44:0
     RDKit          3D

 43 45  0  0  0  0  0  0  0  0999 V2000
   56.6250   30.8170   43.9550 C   0  0  0  0  0  0  0  0  0  0  0  0
   57.3460   31.0100   45.2260 N   0  0  0  0  0  0  0  0  0  0  0  0
   57.3450   32.4390   45.6150 C   0  0  0  0  0  0  0  0  0  0  0  0
   57.8730   33.3150   44.4720 C   0  0  0  0  0  0  0  0  0  0  0  0
   58.7580   34.3250   44.9580 O   0  0  0  0  0  0  0  0  0  0  0  0
   59.5900   34.2180   46.0840 C   0  0  0  0  0  0  0  0  0  0  0  0
   59.0410   34.5190   47.3360 C   0  0  0  0  0  0  0  0  0  0  0  0
   59.8170   34.4440   48.4940 C   0  0  0  0  0  0  0  0  0  0  0  0
   61.1620   34.0590   48.4160 C   0  0  0  0  0  0  0  0  0  0  0  0
   61.9530   33.9840   49.5740 C   0  0  0  0  0  0  0  0  0  0  0  0
   63.2910   33.5900   49.4840 C   0  0  0  0  0  0  0  0  0  0  0  0
   63.8470   33.2660   48.2430 C   0  0  0  0  0  0  0  0  0  0  0  0
   63.0710   33.3430   47.0830 C   0  0  0  0  0  0  0  0  0  0  0  0
   61.7270   33.7420   47.1580 C   0  0  0  0  0  0  0  0  0  0  0  0
   60.9420   33.8320   46.0000 C   0  0  0  0  0  0  0  0  0  0  0  0
   58.7250   30.4910   45.1060 C   0  0  0  0  0  0  0  0  0  0  0  0
   59.4090   30.5000   46.4480 C   0  0  0  0  0  0  0  0  0  0  0  0
   58.6430   30.5280   47.6260 C   0  0  0  0  0  0  0  0  0  0  0  0
   59.2710   30.5090   48.8750 C   0  0  0  0  0  0  0  0  0  0  0  0
   60.6660   30.4680   48.9590 C   0  0  0  0  0  0  0  0  0  0  0  0
   61.5200   30.3860   50.6650 Br  0  0  0  0  0  0  0  0  0  0  0  0
   61.4350   30.4660   47.7900 C   0  0  0  0  0  0  0  0  0  0  0  0
   60.8110   30.4810   46.5400 C   0  0  0  0  0  0  0  0  0  0  0  0
   55.5818   30.5377   44.1640 H   0  0  0  0  0  0  0  0  0  0  0  0
   56.6453   31.7522   43.3762 H   0  0  0  0  0  0  0  0  0  0  0  0
   57.1098   30.0170   43.3762 H   0  0  0  0  0  0  0  0  0  0  0  0
   56.3172   32.7456   45.8591 H   0  0  0  0  0  0  0  0  0  0  0  0
   58.0005   32.5669   46.4890 H   0  0  0  0  0  0  0  0  0  0  0  0
   58.4135   32.6802   43.7544 H   0  0  0  0  0  0  0  0  0  0  0  0
   57.0166   33.8075   43.9882 H   0  0  0  0  0  0  0  0  0  0  0  0
   57.9850   34.8184   47.4083 H   0  0  0  0  0  0  0  0  0  0  0  0
   59.3716   34.6877   49.4698 H   0  0  0  0  0  0  0  0  0  0  0  0
   61.5191   34.2356   50.5530 H   0  0  0  0  0  0  0  0  0  0  0  0
   63.9085   33.5347   50.3926 H   0  0  0  0  0  0  0  0  0  0  0  0
   64.8985   32.9494   48.1792 H   0  0  0  0  0  0  0  0  0  0  0  0
   63.5145   33.0903   46.1086 H   0  0  0  0  0  0  0  0  0  0  0  0
   61.3845   33.5998   45.0200 H   0  0  0  0  0  0  0  0  0  0  0  0
   58.6921   29.4603   44.7230 H   0  0  0  0  0  0  0  0  0  0  0  0
   59.2889   31.1340   44.4142 H   0  0  0  0  0  0  0  0  0  0  0  0
   57.5453   30.5650   47.5651 H   0  0  0  0  0  0  0  0  0  0  0  0
   58.6662   30.5263   49.7936 H   0  0  0  0  0  0  0  0  0  0  0  0
   62.5330   30.4526   47.8553 H   0  0  0  0  0  0  0  0  0  0  0  0
   61.4199   30.4779   45.6239 H   0  0  0  0  0  0  0  0  0  0  0  0
  1  2  1  0
  2  3  1  0
  3  4  1  0
  4  5  1  0
  5  6  1  0
  6  7  2  0
  7  8  1  0
  8  9  2  0
  9 10  1  0
 10 11  2  0
 11 12  1  0
 12 13  2  0
 13 14  1  0
 14 15  2  0
  2 16  1  0
 16 17  1  0
 17 18  2  0
 18 19  1  0
 19 20  2  0
 20 21  1  0
 20 22  1  0
 22 23  2  0
 15  6  1  0
 23 17  1  0
 14  9  1  0
  1 24  1  0
  1 25  1  0
  1 26  1  0
  3 27  1  0
  3 28  1  0
  4 29  1  0
  4 30  1  0
  7 31  1  0
  8 32  1  0
 10 33  1  0
 11 34  1  0
 12 35  1  0
 13 36  1  0
 15 37  1  0
 16 38  1  0
 16 39  1  0
 18 40  1  0
 19 41  1  0
 22 42  1  0
 23 43  1  0
M  END
>  <UniqueID>  (45) 
40

>  <SMILES>  (45) 
CN(CCOc1ccc2ccccc2c1)Cc1ccc(Br)cc1

>  <Energy>  (45) 
41.91675791915746

>  <Genealogy>  (45) 
CN(CCOc1ccc2ccccc2c1)Cc1ccc(Br)cc1 (3D coordinates assigned)
CN(CCOc1ccc2ccccc2c1)Cc1ccc(Br)cc1 (optimized conformer: 41.91675791915746 kcal/mol)

>  <smiles>  (45) 
CN(CCOc1ccc2ccccc2c1)Cc1ccc(Br)cc1

>  <score_type>  (45) 
oracle

>  <origin>  (45) 
adg

>  <m_score__min__energy>  (45) 
-7.5499999999999998

>  <m_primary>  (45) 
energy

$$$$
45:0
     RDKit          3D

 24 26  0  0  0  0  0  0  0  0999 V2000
   60.2920   34.4570   47.8930 C   0  0  0  0  0  0  0  0  0  0  0  0
   60.6720   33.1680   47.5080 C   0  0  0  0  0  0  0  0  0  0  0  0
   60.0880   32.5710   46.3860 C   0  0  0  0  0  0  0  0  0  0  0  0
   59.1240   33.2650   45.6350 C   0  0  0  0  0  0  0  0  0  0  0  0
   58.5060   32.6550   44.4890 N   0  0  0  0  0  0  0  0  0  0  0  0
   58.5880   33.1180   43.2430 N   0  0  0  0  0  0  0  0  0  0  0  0
   57.9170   32.3560   42.3830 N   0  0  0  0  0  0  0  0  0  0  0  0
   57.3920   31.3650   43.1270 C   0  0  0  0  0  0  0  0  0  0  0  0
   56.6320   30.2760   42.7180 C   0  0  0  0  0  0  0  0  0  0  0  0
   56.2600   29.3530   43.7140 C   0  0  0  0  0  0  0  0  0  0  0  0
   56.6560   29.5370   45.0150 N   0  0  0  0  0  0  0  0  0  0  0  0
   57.4050   30.6120   45.4030 C   0  0  0  0  0  0  0  0  0  0  0  0
   57.7540   31.5420   44.4260 C   0  0  0  0  0  0  0  0  0  0  0  0
   58.7360   34.5540   46.0390 C   0  0  0  0  0  0  0  0  0  0  0  0
   59.3230   35.1470   47.1610 C   0  0  0  0  0  0  0  0  0  0  0  0
   60.7560   34.9278   48.7722 H   0  0  0  0  0  0  0  0  0  0  0  0
   61.4311   32.6227   48.0880 H   0  0  0  0  0  0  0  0  0  0  0  0
   60.3846   31.5539   46.0902 H   0  0  0  0  0  0  0  0  0  0  0  0
   59.1040   33.9830   42.9670 H   0  0  0  0  0  0  0  0  0  0  0  0
   56.3355   30.1416   41.6673 H   0  0  0  0  0  0  0  0  0  0  0  0
   55.6479   28.4787   43.4476 H   0  0  0  0  0  0  0  0  0  0  0  0
   57.7210   30.7386   46.4490 H   0  0  0  0  0  0  0  0  0  0  0  0
   57.9677   35.0984   45.4704 H   0  0  0  0  0  0  0  0  0  0  0  0
   59.0210   36.1592   47.4679 H   0  0  0  0  0  0  0  0  0  0  0  0
  1  2  2  0
  2  3  1  0
  3  4  2  0
  4  5  1  0
  5  6  1  0
  6  7  2  0
  7  8  1  0
  8  9  2  0
  9 10  1  0
 10 11  2  0
 11 12  1  0
 12 13  2  0
  4 14  1  0
 14 15  2  0
 15  1  1  0
 13  5  1  0
 13  8  1  0
  1 16  1  0
  2 17  1  0
  3 18  1  0
  6 19  1  0
  9 20  1  0
 10 21  1  0
 12 22  1  0
 14 23  1  0
 15 24  1  0
M  CHG  1   6   1
M  END
>  <UniqueID>  (46) 
41

>  <SMILES>  (46) 
c1ccc(-n2[nH+]nc3ccncc32)cc1

>  <Energy>  (46) 
78.42836546883859

>  <Genealogy>  (46) 
c1ccc(-n2[nH+]nc3ccncc32)cc1 (protonated)
c1ccc(-n2[nH+]nc3ccncc32)cc1 (3D coordinates assigned)
c1ccc(-n2[nH+]nc3ccncc32)cc1 (optimized conformer: 78.42836546883859 kcal/mol)

>  <smiles>  (46) 
c1ccc(-n2nnc3ccncc32)cc1

>  <score_type>  (46) 
oracle

>  <origin>  (46) 
adg

>  <m_score__min__energy>  (46) 
-4.9199999999999999

>  <m_primary>  (46) 
energy

$$$$
46:0
     RDKit          3D

 34 36  0  0  0  0  0  0  0  0999 V2000
   55.5220   27.0880   45.7400 F   0  0  0  0  0  0  0  0  0  0  0  0
   56.9040   27.0280   45.6950 C   0  0  0  0  0  0  0  0  0  0  0  0
   57.4230   27.4670   46.9000 F   0  0  0  0  0  0  0  0  0  0  0  0
   57.4340   27.8790   44.5420 C   0  0  0  0  0  0  0  0  0  0  0  0
   57.6100   29.3110   44.9560 C   0  0  0  0  0  0  0  0  0  0  0  0
   56.6350   30.2440   44.8690 N   0  0  0  0  0  0  0  0  0  0  0  0
   57.1180   31.3760   45.3730 N   0  0  0  0  0  0  0  0  0  0  0  0
   58.3780   31.1070   45.7640 C   0  0  0  0  0  0  0  0  0  0  0  0
   59.2760   31.9890   46.3650 C   0  0  0  0  0  0  0  0  0  0  0  0
   58.7950   33.6440   46.7180 Cl  0  0  0  0  0  0  0  0  0  0  0  0
   60.5520   31.4850   46.7110 C   0  0  0  0  0  0  0  0  0  0  0  0
   61.5370   32.3290   47.3270 N   0  0  0  0  0  0  0  0  0  0  0  0
   62.1200   31.9350   48.6110 C   0  0  0  0  0  0  0  0  0  0  0  0
   63.2490   32.8920   49.0060 C   0  0  0  0  0  0  0  0  0  0  0  0
   64.1190   33.1530   47.8520 N   0  0  0  0  0  0  0  0  0  0  0  0
   63.4200   33.8330   46.7420 C   0  0  0  0  0  0  0  0  0  0  0  0
   61.8920   33.6170   46.7240 C   0  0  0  0  0  0  0  0  0  0  0  0
   60.8670   30.1310   46.4510 C   0  0  0  0  0  0  0  0  0  0  0  0
   59.9180   29.2980   45.8430 C   0  0  0  0  0  0  0  0  0  0  0  0
   58.7120   29.8330   45.5240 N   0  0  0  0  0  0  0  0  0  0  0  0
   57.2176   25.9873   45.5262 H   0  0  0  0  0  0  0  0  0  0  0  0
   58.4056   27.4779   44.2179 H   0  0  0  0  0  0  0  0  0  0  0  0
   56.7038   27.8428   43.7201 H   0  0  0  0  0  0  0  0  0  0  0  0
   61.3389   31.9581   49.3852 H   0  0  0  0  0  0  0  0  0  0  0  0
   62.5321   30.9195   48.5170 H   0  0  0  0  0  0  0  0  0  0  0  0
   62.8156   33.8404   49.3563 H   0  0  0  0  0  0  0  0  0  0  0  0
   63.8449   32.4326   49.8084 H   0  0  0  0  0  0  0  0  0  0  0  0
   64.4920   32.2360   47.5050 H   0  0  0  0  0  0  0  0  0  0  0  0
   63.6140   34.9127   46.8232 H   0  0  0  0  0  0  0  0  0  0  0  0
   63.8100   33.3964   45.8107 H   0  0  0  0  0  0  0  0  0  0  0  0
   61.4076   34.4255   47.2911 H   0  0  0  0  0  0  0  0  0  0  0  0
   61.5495   33.6211   45.6787 H   0  0  0  0  0  0  0  0  0  0  0  0
   61.8549   29.7325   46.7254 H   0  0  0  0  0  0  0  0  0  0  0  0
   60.1437   28.2425   45.6307 H   0  0  0  0  0  0  0  0  0  0  0  0
  1  2  1  0
  2  3  1  0
  2  4  1  0
  4  5  1  0
  5  6  2  0
  6  7  1  0
  7  8  2  0
  8  9  1  0
  9 10  1  0
  9 11  2  0
 11 12  1  0
 12 13  1  0
 13 14  1  0
 14 15  1  0
 15 16  1  0
 16 17  1  0
 11 18  1  0
 18 19  2  0
 19 20  1  0
 20  5  1  0
 20  8  1  0
 17 12  1  0
  2 21  1  0
  4 22  1  0
  4 23  1  0
 13 24  1  0
 13 25  1  0
 14 26  1  0
 14 27  1  0
 15 28  1  0
 16 29  1  0
 16 30  1  0
 17 31  1  0
 17 32  1  0
 18 33  1  0
 19 34  1  0
M  END
>  <UniqueID>  (47) 
42

>  <SMILES>  (47) 
FC(F)Cc1nnc2c(Cl)c(N3CCNCC3)ccn12

>  <Energy>  (47) 
82.78924790256166

>  <Genealogy>  (47) 
FC(F)Cc1nnc2c(Cl)c(N3CCNCC3)ccn12 (3D coordinates assigned)
FC(F)Cc1nnc2c(Cl)c(N3CCNCC3)ccn12 (nonaromatic ring conformer: 82.78924790256166 kcal/mol)

>  <smiles>  (47) 
FC(F)Cc1nnc2c(Cl)c(N3CCNCC3)ccn12

>  <score_type>  (47) 
oracle

>  <origin>  (47) 
adg

>  <m_score__min__energy>  (47) 
-7.2199999999999998

>  <m_primary>  (47) 
energy

$$$$
47:0
     RDKit          3D

 54 56  0  0  0  0  0  0  0  0999 V2000
   63.2970   32.0020   47.1250 C   0  0  0  0  0  0  0  0  0  0  0  0
   64.0780   33.1320   47.7860 C   0  0  0  0  0  0  0  0  0  0  0  0
   64.1290   32.9470   49.2380 N   0  0  0  0  0  0  0  0  0  0  0  0
   64.9250   32.0840   49.8910 C   0  0  0  0  0  0  0  0  0  0  0  0
   64.6340   32.1630   51.2340 C   0  0  0  0  0  0  0  0  0  0  0  0
   63.6530   33.0660   51.4330 N   0  0  0  0  0  0  0  0  0  0  0  0
   63.3690   33.5280   50.1970 C   0  0  0  0  0  0  0  0  0  0  0  0
   62.2810   34.5310   49.9430 C   0  0  0  0  0  0  0  0  0  0  0  0
   61.6590   34.2980   48.6410 N   0  0  0  0  0  0  0  0  0  0  0  0
   60.2940   33.8700   48.5260 C   0  0  0  0  0  0  0  0  0  0  0  0
   59.5790   33.7740   49.5610 O   0  0  0  0  0  0  0  0  0  0  0  0
   59.7210   33.5950   47.2360 N   0  0  0  0  0  0  0  0  0  0  0  0
   60.2440   34.2370   46.0300 C   0  0  0  0  0  0  0  0  0  0  0  0
   59.1080   34.8700   45.2200 C   0  0  0  0  0  0  0  0  0  0  0  0
   57.7500   34.1500   45.3650 C   0  0  0  0  0  0  0  0  0  0  0  0
   57.8180   32.6860   45.8650 C   0  0  1  0  0  0  0  0  0  0  0  0
   58.0300   31.6250   44.7500 C   0  0  0  0  0  0  0  0  0  0  0  0
   58.2790   30.2090   45.2210 C   0  0  0  0  0  0  0  0  0  0  0  0
   59.5860   29.8210   45.5650 C   0  0  0  0  0  0  0  0  0  0  0  0
   59.8500   28.5250   46.0100 C   0  0  0  0  0  0  0  0  0  0  0  0
   58.8160   27.5940   46.0990 C   0  0  0  0  0  0  0  0  0  0  0  0
   57.5190   27.9510   45.7290 C   0  0  0  0  0  0  0  0  0  0  0  0
   57.2360   29.2550   45.2750 C   0  0  0  0  0  0  0  0  0  0  0  0
   55.9440   29.6260   44.8680 O   0  0  0  0  0  0  0  0  0  0  0  0
   55.5180   29.7240   43.5140 C   0  0  0  0  0  0  0  0  0  0  0  0
   58.7350   32.5140   47.1050 C   0  0  0  0  0  0  0  0  0  0  0  0
   62.8535   31.3603   47.9005 H   0  0  0  0  0  0  0  0  0  0  0  0
   62.4981   32.4258   46.4987 H   0  0  0  0  0  0  0  0  0  0  0  0
   63.9758   31.4045   46.4987 H   0  0  0  0  0  0  0  0  0  0  0  0
   65.1032   33.1435   47.3874 H   0  0  0  0  0  0  0  0  0  0  0  0
   63.5729   34.0847   47.5688 H   0  0  0  0  0  0  0  0  0  0  0  0
   65.6790   31.4277   49.4318 H   0  0  0  0  0  0  0  0  0  0  0  0
   65.1269   31.5783   52.0246 H   0  0  0  0  0  0  0  0  0  0  0  0
   61.5170   34.4424   50.7295 H   0  0  0  0  0  0  0  0  0  0  0  0
   62.7202   35.5395   49.9504 H   0  0  0  0  0  0  0  0  0  0  0  0
   62.2070   34.4820   47.7710 H   0  0  0  0  0  0  0  0  0  0  0  0
   60.9613   35.0193   46.3190 H   0  0  0  0  0  0  0  0  0  0  0  0
   60.7402   33.4759   45.4099 H   0  0  0  0  0  0  0  0  0  0  0  0
   58.9842   35.9106   45.5544 H   0  0  0  0  0  0  0  0  0  0  0  0
   59.3946   34.7940   44.1607 H   0  0  0  0  0  0  0  0  0  0  0  0
   57.1379   34.7226   46.0773 H   0  0  0  0  0  0  0  0  0  0  0  0
   57.3255   34.1020   44.3513 H   0  0  0  0  0  0  0  0  0  0  0  0
   56.8028   32.4607   46.2237 H   0  0  0  0  0  0  0  0  0  0  0  0
   57.1296   31.6161   44.1182 H   0  0  0  0  0  0  0  0  0  0  0  0
   58.9467   31.9278   44.2228 H   0  0  0  0  0  0  0  0  0  0  0  0
   60.4087   30.5464   45.4825 H   0  0  0  0  0  0  0  0  0  0  0  0
   60.8741   28.2379   46.2906 H   0  0  0  0  0  0  0  0  0  0  0  0
   59.0231   26.5763   46.4615 H   0  0  0  0  0  0  0  0  0  0  0  0
   56.7101   27.2082   45.7922 H   0  0  0  0  0  0  0  0  0  0  0  0
   54.4464   29.9705   43.4837 H   0  0  0  0  0  0  0  0  0  0  0  0
   56.0905   30.5139   43.0058 H   0  0  0  0  0  0  0  0  0  0  0  0
   55.6878   28.7633   43.0058 H   0  0  0  0  0  0  0  0  0  0  0  0
   58.1068   32.4996   48.0078 H   0  0  0  0  0  0  0  0  0  0  0  0
   59.2895   31.5723   46.9798 H   0  0  0  0  0  0  0  0  0  0  0  0
  1  2  1  0
  2  3  1  0
  3  4  1  0
  4  5  2  0
  5  6  1  0
  6  7  2  0
  7  8  1  0
  8  9  1  0
  9 10  1  0
 10 11  2  0
 10 12  1  0
 12 13  1  0
 13 14  1  0
 14 15  1  0
 15 16  1  0
 16 17  1  0
 17 18  1  0
 18 19  2  0
 19 20  1  0
 20 21  2  0
 21 22  1  0
 22 23  2  0
 23 24  1  0
 24 25  1  0
 16 26  1  0
  7  3  1  0
 26 12  1  0
 23 18  1  0
  1 27  1  0
  1 28  1  0
  1 29  1  0
  2 30  1  0
  2 31  1  0
  4 32  1  0
  5 33  1  0
  8 34  1  0
  8 35  1  0
  9 36  1  0
 13 37  1  0
 13 38  1  0
 14 39  1  0
 14 40  1  0
 15 41  1  0
 15 42  1  0
 16 43  1  1
 17 44  1  0
 17 45  1  0
 19 46  1  0
 20 47  1  0
 21 48  1  0
 22 49  1  0
 25 50  1  0
 25 51  1  0
 25 52  1  0
 26 53  1  0
 26 54  1  0
M  END
>  <UniqueID>  (48) 
43

>  <SMILES>  (48) 
CCn1ccnc1CNC(=O)N1CCC[C@@H](Cc2ccccc2OC)C1

>  <Energy>  (48) 
86.34188604517593

>  <Genealogy>  (48) 
CCn1ccnc1CNC(=O)N1CCC[C@@H](Cc2ccccc2OC)C1 (chirality)
CCn1ccnc1CNC(=O)N1CCC[C@@H](Cc2ccccc2OC)C1 (3D coordinates assigned)
CCn1ccnc1CNC(=O)N1CCC[C@@H](Cc2ccccc2OC)C1 (nonaromatic ring conformer: 86.34188604517593 kcal/mol)

>  <smiles>  (48) 
CCn1ccnc1CNC(=O)N1CCCC(Cc2ccccc2OC)C1

>  <score_type>  (48) 
oracle

>  <origin>  (48) 
adg

>  <m_score__min__energy>  (48) 
-7.8200000000000003

>  <m_primary>  (48) 
energy

$$$$
48:0
     RDKit          3D

 47 51  0  0  0  0  0  0  0  0999 V2000
   60.3000   32.8540   46.9090 C   0  0  0  0  0  0  0  0  0  0  0  0
   60.9730   32.2060   48.0830 C   0  0  0  0  0  0  0  0  0  0  0  0
   62.3670   32.2680   48.2130 C   0  0  0  0  0  0  0  0  0  0  0  0
   63.0010   31.6320   49.2790 C   0  0  0  0  0  0  0  0  0  0  0  0
   62.2530   30.9190   50.2190 C   0  0  0  0  0  0  0  0  0  0  0  0
   60.8530   30.8360   50.1050 C   0  0  0  0  0  0  0  0  0  0  0  0
   60.0760   30.0720   51.1170 C   0  0  0  0  0  0  0  0  0  0  0  0
   60.6400   29.1890   52.0470 C   0  0  0  0  0  0  0  0  0  0  0  0
   59.4000   28.5350   52.9770 S   0  0  0  0  0  0  0  0  0  0  0  0
   58.2060   29.3920   52.1650 C   0  0  0  0  0  0  0  0  0  0  0  0
   56.8070   29.3100   52.4480 N   0  0  0  0  0  0  0  0  0  0  0  0
   56.2540   28.3200   53.1310 N   0  0  0  0  0  0  0  0  0  0  0  0
   54.9380   28.5940   53.1900 C   0  0  0  0  0  0  0  0  0  0  0  0
   53.9450   27.6840   53.7960 C   0  0  0  0  0  0  0  0  0  0  0  0
   52.6950   27.4660   53.1900 C   0  0  0  0  0  0  0  0  0  0  0  0
   51.7730   26.5890   53.7700 C   0  0  0  0  0  0  0  0  0  0  0  0
   52.0960   25.9110   54.9480 C   0  0  0  0  0  0  0  0  0  0  0  0
   51.1780   25.0400   55.5240 O   0  0  0  0  0  0  0  0  0  0  0  0
   53.3450   26.1030   55.5440 C   0  0  0  0  0  0  0  0  0  0  0  0
   54.2700   26.9800   54.9680 C   0  0  0  0  0  0  0  0  0  0  0  0
   54.7300   29.7960   52.5210 C   0  0  0  0  0  0  0  0  0  0  0  0
   53.4860   30.5810   52.3830 C   0  0  0  0  0  0  0  0  0  0  0  0
   52.6790   30.8120   53.5090 C   0  0  0  0  0  0  0  0  0  0  0  0
   51.4880   31.5360   53.3890 C   0  0  0  0  0  0  0  0  0  0  0  0
   51.0850   32.0200   52.1410 C   0  0  0  0  0  0  0  0  0  0  0  0
   49.9030   32.7400   52.0230 O   0  0  0  0  0  0  0  0  0  0  0  0
   51.8710   31.7750   51.0110 C   0  0  0  0  0  0  0  0  0  0  0  0
   53.0620   31.0520   51.1280 C   0  0  0  0  0  0  0  0  0  0  0  0
   55.9240   30.2170   52.0630 N   0  0  0  0  0  0  0  0  0  0  0  0
   58.7180   30.1720   51.1920 N   0  0  0  0  0  0  0  0  0  0  0  0
   60.2220   31.4760   49.0190 C   0  0  0  0  0  0  0  0  0  0  0  0
   59.5510   33.5752   47.2679 H   0  0  0  0  0  0  0  0  0  0  0  0
   61.0508   33.3779   46.2992 H   0  0  0  0  0  0  0  0  0  0  0  0
   59.8049   32.0839   46.2992 H   0  0  0  0  0  0  0  0  0  0  0  0
   62.9627   32.8204   47.4714 H   0  0  0  0  0  0  0  0  0  0  0  0
   64.0947   31.6918   49.3805 H   0  0  0  0  0  0  0  0  0  0  0  0
   62.7627   30.4183   51.0553 H   0  0  0  0  0  0  0  0  0  0  0  0
   61.7112   28.9620   52.1514 H   0  0  0  0  0  0  0  0  0  0  0  0
   52.4412   27.9877   52.2554 H   0  0  0  0  0  0  0  0  0  0  0  0
   50.7918   26.4327   53.2979 H   0  0  0  0  0  0  0  0  0  0  0  0
   53.6013   25.5636   56.4677 H   0  0  0  0  0  0  0  0  0  0  0  0
   55.2564   27.1193   55.4346 H   0  0  0  0  0  0  0  0  0  0  0  0
   52.9851   30.4215   54.4907 H   0  0  0  0  0  0  0  0  0  0  0  0
   50.8679   31.7247   54.2777 H   0  0  0  0  0  0  0  0  0  0  0  0
   51.5518   32.1518   50.0281 H   0  0  0  0  0  0  0  0  0  0  0  0
   53.6702   30.8507   50.2338 H   0  0  0  0  0  0  0  0  0  0  0  0
   59.1305   31.4030   48.9034 H   0  0  0  0  0  0  0  0  0  0  0  0
  1  2  1  0
  2  3  2  0
  3  4  1  0
  4  5  2  0
  5  6  1  0
  6  7  1  0
  7  8  2  0
  8  9  1  0
  9 10  1  0
 10 11  1  0
 11 12  1  0
 12 13  2  0
 13 14  1  0
 14 15  2  0
 15 16  1  0
 16 17  2  0
 17 18  1  0
 17 19  1  0
 19 20  2  0
 13 21  1  0
 21 22  1  0
 22 23  2  0
 23 24  1  0
 24 25  2  0
 25 26  1  0
 25 27  1  0
 27 28  2  0
 21 29  2  0
 10 30  2  0
  6 31  2  0
 31  2  1  0
 30  7  1  0
 29 11  1  0
 20 14  1  0
 28 22  1  0
  1 32  1  0
  1 33  1  0
  1 34  1  0
  3 35  1  0
  4 36  1  0
  5 37  1  0
  8 38  1  0
 15 39  1  0
 16 40  1  0
 19 41  1  0
 20 42  1  0
 23 43  1  0
 24 44  1  0
 27 45  1  0
 28 46  1  0
 31 47  1  0
M  CHG  2  18  -1  26  -1
M  END
>  <UniqueID>  (49) 
44

>  <SMILES>  (49) 
Cc1cccc(-c2csc(-n3nc(-c4ccc([O-])cc4)c(-c4ccc([O-])cc4)n3)n2)c1

>  <Energy>  (49) 
126.57541383317952

>  <Genealogy>  (49) 
Cc1cccc(-c2csc(-n3nc(-c4ccc([O-])cc4)c(-c4ccc([O-])cc4)n3)n2)c1 (protonated)
Cc1cccc(-c2csc(-n3nc(-c4ccc([O-])cc4)c(-c4ccc([O-])cc4)n3)n2)c1 (3D coordinates assigned)
Cc1cccc(-c2csc(-n3nc(-c4ccc([O-])cc4)c(-c4ccc([O-])cc4)n3)n2)c1 (optimized conformer: 126.57541383317952 kcal/mol)

>  <smiles>  (49) 
Cc1cccc(-c2csc(-n3nc(-c4ccc(O)cc4)c(-c4ccc(O)cc4)n3)n2)c1

>  <score_type>  (49) 
oracle

>  <origin>  (49) 
adg

>  <m_score__min__energy>  (49) 
-12.26

>  <m_primary>  (49) 
energy

$$$$
49:0
     RDKit          3D

 32 33  0  0  0  0  0  0  0  0999 V2000
   57.3720   33.1180   45.5320 Cl  0  0  0  0  0  0  0  0  0  0  0  0
   57.7270   31.4780   45.0180 C   0  0  0  0  0  0  0  0  0  0  0  0
   58.8730   30.8290   45.4890 C   0  0  0  0  0  0  0  0  0  0  0  0
   59.1580   29.5230   45.0790 C   0  0  0  0  0  0  0  0  0  0  0  0
   58.2970   28.8570   44.1910 C   0  0  0  0  0  0  0  0  0  0  0  0
   58.6210   27.4620   43.7130 C   0  0  0  0  0  0  0  0  0  0  0  0
   57.4380   26.5800   43.7170 N   0  0  0  0  0  0  0  0  0  0  0  0
   57.6180   25.3620   44.5580 C   0  0  0  0  0  0  0  0  0  0  0  0
   57.9070   25.7360   46.0260 C   0  0  0  0  0  0  0  0  0  0  0  0
   56.6650   26.3600   46.7050 C   0  0  0  0  0  0  0  0  0  0  0  0
   55.4540   26.1190   46.0050 O   0  0  0  0  0  0  0  0  0  0  0  0
   55.3660   24.7600   45.6290 C   0  0  0  0  0  0  0  0  0  0  0  0
   56.3730   24.4360   44.5090 C   0  0  0  0  0  0  0  0  0  0  0  0
   57.1500   29.5150   43.7200 C   0  0  0  0  0  0  0  0  0  0  0  0
   56.8660   30.8210   44.1330 C   0  0  0  0  0  0  0  0  0  0  0  0
   59.5512   31.3469   46.1831 H   0  0  0  0  0  0  0  0  0  0  0  0
   60.0594   29.0154   45.4530 H   0  0  0  0  0  0  0  0  0  0  0  0
   59.0142   27.5218   42.6874 H   0  0  0  0  0  0  0  0  0  0  0  0
   59.3627   27.0335   44.4031 H   0  0  0  0  0  0  0  0  0  0  0  0
   56.6460   27.1560   44.0870 H   0  0  0  0  0  0  0  0  0  0  0  0
   57.1820   26.3290   42.7330 H   0  0  0  0  0  0  0  0  0  0  0  0
   58.4793   24.8198   44.1407 H   0  0  0  0  0  0  0  0  0  0  0  0
   58.1974   24.8286   46.5759 H   0  0  0  0  0  0  0  0  0  0  0  0
   58.7188   26.4782   46.0406 H   0  0  0  0  0  0  0  0  0  0  0  0
   56.5723   25.9373   47.7163 H   0  0  0  0  0  0  0  0  0  0  0  0
   56.8182   27.4492   46.7195 H   0  0  0  0  0  0  0  0  0  0  0  0
   55.5837   24.1291   46.5034 H   0  0  0  0  0  0  0  0  0  0  0  0
   54.3497   24.5620   45.2576 H   0  0  0  0  0  0  0  0  0  0  0  0
   56.7025   23.3923   44.6192 H   0  0  0  0  0  0  0  0  0  0  0  0
   55.8697   24.5956   43.5440 H   0  0  0  0  0  0  0  0  0  0  0  0
   56.4715   29.0014   43.0230 H   0  0  0  0  0  0  0  0  0  0  0  0
   55.9652   31.3314   43.7616 H   0  0  0  0  0  0  0  0  0  0  0  0
  1  2  1  0
  2  3  2  0
  3  4  1  0
  4  5  2  0
  5  6  1  0
  6  7  1  0
  7  8  1  0
  8  9  1  0
  9 10  1  0
 10 11  1  0
 11 12  1  0
 12 13  1  0
  5 14  1  0
 14 15  2  0
 15  2  1  0
 13  8  1  0
  3 16  1  0
  4 17  1  0
  6 18  1  0
  6 19  1  0
  7 20  1  0
  7 21  1  0
  8 22  1  0
  9 23  1  0
  9 24  1  0
 10 25  1  0
 10 26  1  0
 12 27  1  0
 12 28  1  0
 13 29  1  0
 13 30  1  0
 14 31  1  0
 15 32  1  0
M  CHG  1   7   1
M  END
>  <UniqueID>  (50) 
45

>  <SMILES>  (50) 
Clc1ccc(C[NH2+]C2CCOCC2)cc1

>  <Energy>  (50) 
41.05129044826325

>  <Genealogy>  (50) 
Clc1ccc(C[NH2+]C2CCOCC2)cc1 (protonated)
Clc1ccc(C[NH2+]C2CCOCC2)cc1 (3D coordinates assigned)
Clc1ccc(C[NH2+]C2CCOCC2)cc1 (nonaromatic ring conformer: 41.05129044826325 kcal/mol)

>  <smiles>  (50) 
Clc1ccc(CNC2CCOCC2)cc1

>  <score_type>  (50) 
oracle

>  <origin>  (50) 
adg

>  <m_score__min__energy>  (50) 
-5.1100000000000003

>  <m_primary>  (50) 
energy

$$$$
