0:0
     RDKit          3D

 32 33  0  0  0  0  0  0  0  0999 V2000
   58.9260   32.0980   47.7390 C   0  0  0  0  0  0  0  0  0  0  0  0
   58.9190   31.6390   46.2860 C   0  0  0  0  0  0  0  0  0  0  0  0
   57.8960   32.4010   45.4090 C   0  0  0  0  0  0  0  0  0  0  0  0
   56.6430   31.6330   45.2270 N   0  0  0  0  0  0  0  0  0  0  0  0
   56.7140   30.0680   44.4500 S   0  0  0  0  0  0  0  0  0  0  0  0
   56.8310   30.2380   42.9600 O   0  0  0  0  0  0  0  0  0  0  0  0
   55.4140   29.3640   44.7170 O   0  0  0  0  0  0  0  0  0  0  0  0
   58.0090   29.0330   45.0580 C   0  0  0  0  0  0  0  0  0  0  0  0
   57.8440   28.2650   46.2180 C   0  0  0  0  0  0  0  0  0  0  0  0
   58.8920   27.4700   46.6840 C   0  0  0  0  0  0  0  0  0  0  0  0
   60.1060   27.4660   45.9960 C   0  0  0  0  0  0  0  0  0  0  0  0
   61.1320   26.6990   46.4400 F   0  0  0  0  0  0  0  0  0  0  0  0
   60.2660   28.2420   44.8890 N   0  0  0  0  0  0  0  0  0  0  0  0
   59.2560   29.0240   44.4190 C   0  0  0  0  0  0  0  0  0  0  0  0
   57.5690   33.7670   46.0320 C   0  0  0  0  0  0  0  0  0  0  0  0
   58.2220   34.4760   44.8570 C   0  0  0  0  0  0  0  0  0  0  0  0
   58.5170   33.1370   44.2020 C   0  0  0  0  0  0  0  0  0  0  0  0
   58.9126   31.2197   48.4011 H   0  0  0  0  0  0  0  0  0  0  0  0
   59.8333   32.6892   47.9324 H   0  0  0  0  0  0  0  0  0  0  0  0
   58.0372   32.7165   47.9324 H   0  0  0  0  0  0  0  0  0  0  0  0
   59.9236   31.7944   45.8657 H   0  0  0  0  0  0  0  0  0  0  0  0
   58.6274   30.5784   46.2804 H   0  0  0  0  0  0  0  0  0  0  0  0
   56.8880   28.2886   46.7617 H   0  0  0  0  0  0  0  0  0  0  0  0
   58.7623   26.8524   47.5850 H   0  0  0  0  0  0  0  0  0  0  0  0
   61.1830   28.2390   44.3900 H   0  0  0  0  0  0  0  0  0  0  0  0
   59.4198   29.6531   43.5316 H   0  0  0  0  0  0  0  0  0  0  0  0
   56.4918   33.9664   46.1316 H   0  0  0  0  0  0  0  0  0  0  0  0
   57.8872   33.9949   47.0600 H   0  0  0  0  0  0  0  0  0  0  0  0
   57.5355   35.1145   44.2815 H   0  0  0  0  0  0  0  0  0  0  0  0
   59.0327   35.1996   45.0278 H   0  0  0  0  0  0  0  0  0  0  0  0
   57.9822   32.9743   43.2546 H   0  0  0  0  0  0  0  0  0  0  0  0
   59.5376   32.8951   43.8706 H   0  0  0  0  0  0  0  0  0  0  0  0
  1  2  1  0
  2  3  1  0
  3  4  1  0
  4  5  1  0
  5  6  2  0
  5  7  2  0
  5  8  1  0
  8  9  2  0
  9 10  1  0
 10 11  2  0
 11 12  1  0
 11 13  1  0
 13 14  2  0
  3 15  1  0
 15 16  1  0
 16 17  1  0
 17  3  1  0
 14  8  1  0
  1 18  1  0
  1 19  1  0
  1 20  1  0
  2 21  1  0
  2 22  1  0
  9 23  1  0
 10 24  1  0
 13 25  1  0
 14 26  1  0
 15 27  1  0
 15 28  1  0
 16 29  1  0
 16 30  1  0
 17 31  1  0
 17 32  1  0
M  CHG  2   4  -1  13   1
M  END
>  <UniqueID>  (1) 
1

>  <SMILES>  (1) 
CCC1([N-]S(=O)(=O)c2ccc(F)[nH+]c2)CCC1

>  <Energy>  (1) 
99.07447689845563

>  <Genealogy>  (1) 
CCC1([N-]S(=O)(=O)c2ccc(F)[nH+]c2)CCC1 (protonated)
CCC1([N-]S(=O)(=O)c2ccc(F)[nH+]c2)CCC1 (3D coordinates assigned)
CCC1([N-]S(=O)(=O)c2ccc(F)[nH+]c2)CCC1 (nonaromatic ring conformer: 99.07447689845563 kcal/mol)

>  <smiles>  (1) 
CCC1(NS(=O)(=O)c2ccc(F)nc2)CCC1

>  <score_type>  (1) 
oracle

>  <origin>  (1) 
adg

>  <m_score__min__energy>  (1) 
-6.8399999999999999

>  <m_primary>  (1) 
energy

$$$$
1:0
     RDKit          3D

 20 21  0  0  0  0  0  0  0  0999 V2000
   62.6000   33.6990   46.6500 C   0  0  0  0  0  0  0  0  0  0  0  0
   62.1030   33.8170   47.7580 C   0  0  0  0  0  0  0  0  0  0  0  0
   61.4830   33.9440   49.0910 C   0  0  0  0  0  0  0  0  0  0  0  0
   59.6830   34.1820   48.9130 S   0  0  0  0  0  0  0  0  0  0  0  0
   59.1140   33.6030   47.3280 C   0  0  0  0  0  0  0  0  0  0  0  0
   59.2990   34.1240   46.1070 N   0  0  0  0  0  0  0  0  0  0  0  0
   58.6750   33.3180   45.2280 C   0  0  0  0  0  0  0  0  0  0  0  0
   58.5140   33.3300   43.8430 C   0  0  0  0  0  0  0  0  0  0  0  0
   57.7920   32.3280   43.1920 C   0  0  0  0  0  0  0  0  0  0  0  0
   57.5720   32.3440   41.2860 Br  0  0  0  0  0  0  0  0  0  0  0  0
   57.2280   31.3050   43.9280 C   0  0  0  0  0  0  0  0  0  0  0  0
   57.3920   31.3060   45.2640 N   0  0  0  0  0  0  0  0  0  0  0  0
   58.0870   32.2720   45.8970 C   0  0  0  0  0  0  0  0  0  0  0  0
   58.3700   32.4640   47.2020 N   0  0  0  0  0  0  0  0  0  0  0  0
   63.0481   33.5926   45.6511 H   0  0  0  0  0  0  0  0  0  0  0  0
   61.6751   33.0299   49.6720 H   0  0  0  0  0  0  0  0  0  0  0  0
   61.9149   34.8111   49.6121 H   0  0  0  0  0  0  0  0  0  0  0  0
   58.9634   34.1426   43.2534 H   0  0  0  0  0  0  0  0  0  0  0  0
   56.6566   30.5059   43.4330 H   0  0  0  0  0  0  0  0  0  0  0  0
   58.0560   31.8240   47.9910 H   0  0  0  0  0  0  0  0  0  0  0  0
  1  2  3  0
  2  3  1  0
  3  4  1  0
  4  5  1  0
  5  6  2  0
  6  7  1  0
  7  8  2  0
  8  9  1  0
  9 10  1  0
  9 11  2  0
 11 12  1  0
 12 13  2  0
 13 14  1  0
 14  5  1  0
 13  7  1  0
  1 15  1  0
  3 16  1  0
  3 17  1  0
  8 18  1  0
 11 19  1  0
 14 20  1  0
M  END
>  <smiles>  (2) 
C#CCSc1nc2cc(Br)cnc2[nH]1

>  <score_type>  (2) 
oracle

>  <origin>  (2) 
adg

>  <m_score__min__energy>  (2) 
-5.5499999999999998

>  <m_primary>  (2) 
energy

$$$$
2:0
     RDKit          3D

 32 34  0  0  0  0  0  0  0  0999 V2000
   57.6700   31.4250   42.8850 C   0  0  0  0  0  0  0  0  0  0  0  0
   57.1720   30.5340   43.8370 C   0  0  0  0  0  0  0  0  0  0  0  0
   57.0580   30.9190   45.1350 N   0  0  0  0  0  0  0  0  0  0  0  0
   57.4230   32.1630   45.5480 C   0  0  0  0  0  0  0  0  0  0  0  0
   57.9380   33.0890   44.6270 C   0  0  0  0  0  0  0  0  0  0  0  0
   58.3390   34.4730   45.0630 C   0  0  0  0  0  0  0  0  0  0  0  0
   59.7100   34.4740   45.5740 N   0  0  0  0  0  0  0  0  0  0  0  0
   60.0510   34.1540   46.9370 C   0  0  0  0  0  0  0  0  0  0  0  0
   59.0530   34.1550   47.9270 C   0  0  0  0  0  0  0  0  0  0  0  0
   59.3450   33.7920   49.2410 C   0  0  0  0  0  0  0  0  0  0  0  0
   60.6390   33.4180   49.5960 C   0  0  0  0  0  0  0  0  0  0  0  0
   61.6590   33.4140   48.6370 C   0  0  0  0  0  0  0  0  0  0  0  0
   62.9630   33.0460   49.0040 C   0  0  0  0  0  0  0  0  0  0  0  0
   63.9910   33.0600   48.0600 C   0  0  0  0  0  0  0  0  0  0  0  0
   63.7300   33.4490   46.7470 C   0  0  0  0  0  0  0  0  0  0  0  0
   62.4370   33.8160   46.3630 C   0  0  0  0  0  0  0  0  0  0  0  0
   61.3770   33.7890   47.2950 C   0  0  0  0  0  0  0  0  0  0  0  0
   58.0500   32.7080   43.2810 C   0  0  0  0  0  0  0  0  0  0  0  0
   57.7621   31.1187   41.8325 H   0  0  0  0  0  0  0  0  0  0  0  0
   56.8716   29.5195   43.5362 H   0  0  0  0  0  0  0  0  0  0  0  0
   57.3143   32.4438   46.6060 H   0  0  0  0  0  0  0  0  0  0  0  0
   58.2729   35.1563   44.2035 H   0  0  0  0  0  0  0  0  0  0  0  0
   57.6613   34.8032   45.8641 H   0  0  0  0  0  0  0  0  0  0  0  0
   60.4740   34.6590   44.8860 H   0  0  0  0  0  0  0  0  0  0  0  0
   58.0263   34.4466   47.6609 H   0  0  0  0  0  0  0  0  0  0  0  0
   58.5498   33.8010   50.0010 H   0  0  0  0  0  0  0  0  0  0  0  0
   60.8601   33.1249   50.6329 H   0  0  0  0  0  0  0  0  0  0  0  0
   63.1757   32.7452   50.0405 H   0  0  0  0  0  0  0  0  0  0  0  0
   65.0091   32.7635   48.3526 H   0  0  0  0  0  0  0  0  0  0  0  0
   64.5458   33.4672   46.0093 H   0  0  0  0  0  0  0  0  0  0  0  0
   62.2439   34.1284   45.3261 H   0  0  0  0  0  0  0  0  0  0  0  0
   58.4374   33.4208   42.5381 H   0  0  0  0  0  0  0  0  0  0  0  0
  1  2  2  0
  2  3  1  0
  3  4  2  0
  4  5  1  0
  5  6  1  0
  6  7  1  0
  7  8  1  0
  8  9  2  0
  9 10  1  0
 10 11  2  0
 11 12  1  0
 12 13  2  0
 13 14  1  0
 14 15  2  0
 15 16  1  0
 16 17  2  0
  5 18  2  0
 18  1  1  0
 17  8  1  0
 17 12  1  0
  1 19  1  0
  2 20  1  0
  4 21  1  0
  6 22  1  0
  6 23  1  0
  7 24  1  0
  9 25  1  0
 10 26  1  0
 11 27  1  0
 13 28  1  0
 14 29  1  0
 15 30  1  0
 16 31  1  0
 18 32  1  0
M  END
>  <UniqueID>  (3) 
2

>  <SMILES>  (3) 
c1cncc(CNc2cccc3ccccc23)c1

>  <Energy>  (3) 
42.57184081761945

>  <Genealogy>  (3) 
c1cncc(CNc2cccc3ccccc23)c1 (3D coordinates assigned)
c1cncc(CNc2cccc3ccccc23)c1 (optimized conformer: 42.57184081761945 kcal/mol)

>  <smiles>  (3) 
c1cncc(CNc2cccc3ccccc23)c1

>  <score_type>  (3) 
oracle

>  <origin>  (3) 
adg

>  <m_score__min__energy>  (3) 
-7.1100000000000003

>  <m_primary>  (3) 
energy

$$$$
3:0
     RDKit          3D

 58 61  0  0  0  0  0  0  0  0999 V2000
   56.6320   29.8400   43.4940 C   0  0  0  0  0  0  0  0  0  0  0  0
   56.6640   30.3350   44.8300 O   0  0  0  0  0  0  0  0  0  0  0  0
   57.3920   31.4610   45.2410 C   0  0  0  0  0  0  0  0  0  0  0  0
   57.2580   32.6410   44.5030 C   0  0  0  0  0  0  0  0  0  0  0  0
   57.9520   33.7950   44.8720 C   0  0  0  0  0  0  0  0  0  0  0  0
   58.7970   33.7850   45.9920 C   0  0  0  0  0  0  0  0  0  0  0  0
   59.4790   34.9500   46.3720 C   0  0  0  0  0  0  0  0  0  0  0  0
   60.3130   34.9420   47.4930 C   0  0  0  0  0  0  0  0  0  0  0  0
   60.4790   33.7730   48.2360 C   0  0  0  0  0  0  0  0  0  0  0  0
   59.8140   32.5950   47.8690 C   0  0  0  0  0  0  0  0  0  0  0  0
   60.0270   31.4110   48.6480 N   0  0  0  0  0  0  0  0  0  0  0  0
   61.3750   30.8560   48.7890 C   0  0  0  0  0  0  0  0  0  0  0  0
   61.6200   30.4150   50.2430 C   0  0  0  0  0  0  0  0  0  0  0  0
   60.4410   29.7650   50.8920 N   0  0  0  0  0  0  0  0  0  0  0  0
   60.8260   28.6090   51.7490 C   0  0  0  0  0  0  0  0  0  0  0  0
   60.0230   28.4500   53.0600 C   0  0  0  0  0  0  0  0  0  0  0  0
   59.3480   29.6510   53.4330 O   0  0  0  0  0  0  0  0  0  0  0  0
   58.0380   30.0080   53.0670 C   0  0  0  0  0  0  0  0  0  0  0  0
   56.9220   29.1990   53.3630 C   0  0  0  0  0  0  0  0  0  0  0  0
   55.6400   29.5990   52.9760 C   0  0  0  0  0  0  0  0  0  0  0  0
   55.4580   30.8000   52.2920 C   0  0  0  0  0  0  0  0  0  0  0  0
   56.5560   31.6060   51.9860 C   0  0  0  0  0  0  0  0  0  0  0  0
   57.8540   31.2140   52.3690 C   0  0  0  0  0  0  0  0  0  0  0  0
   58.9860   31.9890   52.0710 O   0  0  0  0  0  0  0  0  0  0  0  0
   58.9880   33.4110   51.9790 C   0  0  0  0  0  0  0  0  0  0  0  0
   59.3310   29.4510   49.9610 C   0  0  0  0  0  0  0  0  0  0  0  0
   58.8750   30.7150   49.2240 C   0  0  0  0  0  0  0  0  0  0  0  0
   58.9560   32.5930   46.7440 C   0  0  0  0  0  0  0  0  0  0  0  0
   58.2430   31.4410   46.3640 C   0  0  0  0  0  0  0  0  0  0  0  0
   56.5610   28.7424   43.5112 H   0  0  0  0  0  0  0  0  0  0  0  0
   55.7589   30.2557   42.9698 H   0  0  0  0  0  0  0  0  0  0  0  0
   57.5514   30.1398   42.9698 H   0  0  0  0  0  0  0  0  0  0  0  0
   56.5990   32.6604   43.6225 H   0  0  0  0  0  0  0  0  0  0  0  0
   57.8357   34.7161   44.2820 H   0  0  0  0  0  0  0  0  0  0  0  0
   59.3570   35.8728   45.7858 H   0  0  0  0  0  0  0  0  0  0  0  0
   60.8403   35.8603   47.7906 H   0  0  0  0  0  0  0  0  0  0  0  0
   61.1373   33.7757   49.1173 H   0  0  0  0  0  0  0  0  0  0  0  0
   61.4814   29.9869   48.1231 H   0  0  0  0  0  0  0  0  0  0  0  0
   62.1106   31.6283   48.5199 H   0  0  0  0  0  0  0  0  0  0  0  0
   62.4559   29.7000   50.2506 H   0  0  0  0  0  0  0  0  0  0  0  0
   61.8350   31.3274   50.8185 H   0  0  0  0  0  0  0  0  0  0  0  0
   60.0520   30.4770   51.5590 H   0  0  0  0  0  0  0  0  0  0  0  0
   60.6931   27.6909   51.1578 H   0  0  0  0  0  0  0  0  0  0  0  0
   61.8659   28.7958   52.0551 H   0  0  0  0  0  0  0  0  0  0  0  0
   59.2770   27.6533   52.9230 H   0  0  0  0  0  0  0  0  0  0  0  0
   60.7345   28.2021   53.8614 H   0  0  0  0  0  0  0  0  0  0  0  0
   57.0608   28.2494   53.9006 H   0  0  0  0  0  0  0  0  0  0  0  0
   54.7727   28.9648   53.2117 H   0  0  0  0  0  0  0  0  0  0  0  0
   54.4469   31.1133   51.9927 H   0  0  0  0  0  0  0  0  0  0  0  0
   56.4071   32.5513   51.4435 H   0  0  0  0  0  0  0  0  0  0  0  0
   58.9886   33.8439   52.9903 H   0  0  0  0  0  0  0  0  0  0  0  0
   59.8866   33.7422   51.4379 H   0  0  0  0  0  0  0  0  0  0  0  0
   58.0903   33.7447   51.4379 H   0  0  0  0  0  0  0  0  0  0  0  0
   59.6740   28.7075   49.2264 H   0  0  0  0  0  0  0  0  0  0  0  0
   58.4846   29.0509   50.5385 H   0  0  0  0  0  0  0  0  0  0  0  0
   58.1805   30.4346   48.4184 H   0  0  0  0  0  0  0  0  0  0  0  0
   58.3732   31.3843   49.9384 H   0  0  0  0  0  0  0  0  0  0  0  0
   58.3509   30.5159   46.9492 H   0  0  0  0  0  0  0  0  0  0  0  0
  1  2  1  0
  2  3  1  0
  3  4  2  0
  4  5  1  0
  5  6  2  0
  6  7  1  0
  7  8  2  0
  8  9  1  0
  9 10  2  0
 10 11  1  0
 11 12  1  0
 12 13  1  0
 13 14  1  0
 14 15  1  0
 15 16  1  0
 16 17  1  0
 17 18  1  0
 18 19  2  0
 19 20  1  0
 20 21  2  0
 21 22  1  0
 22 23  2  0
 23 24  1  0
 24 25  1  0
 14 26  1  0
 26 27  1  0
 10 28  1  0
 28 29  2  0
 29  3  1  0
 28  6  1  0
 27 11  1  0
 23 18  1  0
  1 30  1  0
  1 31  1  0
  1 32  1  0
  4 33  1  0
  5 34  1  0
  7 35  1  0
  8 36  1  0
  9 37  1  0
 12 38  1  0
 12 39  1  0
 13 40  1  0
 13 41  1  0
 14 42  1  0
 15 43  1  0
 15 44  1  0
 16 45  1  0
 16 46  1  0
 19 47  1  0
 20 48  1  0
 21 49  1  0
 22 50  1  0
 25 51  1  0
 25 52  1  0
 25 53  1  0
 26 54  1  0
 26 55  1  0
 27 56  1  0
 27 57  1  0
 29 58  1  0
M  CHG  1  14   1
M  END
>  <UniqueID>  (4) 
3

>  <SMILES>  (4) 
COc1ccc2cccc(N3CC[NH+](CCOc4ccccc4OC)CC3)c2c1

>  <Energy>  (4) 
78.80495284764702

>  <Genealogy>  (4) 
COc1ccc2cccc(N3CC[NH+](CCOc4ccccc4OC)CC3)c2c1 (protonated)
COc1ccc2cccc(N3CC[NH+](CCOc4ccccc4OC)CC3)c2c1 (3D coordinates assigned)
COc1ccc2cccc(N3CC[NH+](CCOc4ccccc4OC)CC3)c2c1 (nonaromatic ring conformer: 78.80495284764702 kcal/mol)

>  <smiles>  (4) 
COc1ccc2cccc(N3CCN(CCOc4ccccc4OC)CC3)c2c1

>  <score_type>  (4) 
oracle

>  <origin>  (4) 
adg

>  <m_score__min__energy>  (4) 
-5.4199999999999999

>  <m_primary>  (4) 
energy

$$$$
4:0
     RDKit          3D

 39 41  0  0  0  0  0  0  0  0999 V2000
   57.3860   32.3390   40.8090 C   0  0  0  0  0  0  0  0  0  0  0  0
   57.8200   32.4830   42.2630 C   0  0  0  0  0  0  0  0  0  0  0  0
   57.1610   31.4730   43.0930 N   0  0  0  0  0  0  0  0  0  0  0  0
   56.7100   30.2810   42.6710 C   0  0  0  0  0  0  0  0  0  0  0  0
   56.2300   29.5920   43.7610 C   0  0  0  0  0  0  0  0  0  0  0  0
   56.3870   30.3400   44.8730 N   0  0  0  0  0  0  0  0  0  0  0  0
   56.9680   31.4760   44.4320 C   0  0  0  0  0  0  0  0  0  0  0  0
   57.2980   32.6260   45.3480 C   0  0  0  0  0  0  0  0  0  0  0  0
   58.7000   33.0700   45.1800 N   0  0  1  0  0  0  0  0  0  0  0  0
   58.8420   34.5400   45.2720 C   0  0  0  0  0  0  0  0  0  0  0  0
   60.0430   34.8340   46.1530 C   0  0  0  0  0  0  0  0  0  0  0  0
   60.1080   33.6280   47.0850 C   0  0  1  0  0  0  0  0  0  0  0  0
   61.4850   33.3940   47.6590 C   0  0  0  0  0  0  0  0  0  0  0  0
   61.4540   34.1920   48.9520 C   0  0  0  0  0  0  0  0  0  0  0  0
   60.1150   34.4410   49.3270 O   0  0  0  0  0  0  0  0  0  0  0  0
   59.2830   33.8500   48.3560 C   0  0  0  0  0  0  0  0  0  0  0  0
   59.5840   32.4810   46.2120 C   0  0  0  0  0  0  0  0  0  0  0  0
   56.3426   31.9928   40.7704 H   0  0  0  0  0  0  0  0  0  0  0  0
   57.4682   33.3126   40.3037 H   0  0  0  0  0  0  0  0  0  0  0  0
   58.0339   31.6077   40.3037 H   0  0  0  0  0  0  0  0  0  0  0  0
   58.9102   32.3531   42.3307 H   0  0  0  0  0  0  0  0  0  0  0  0
   57.5362   33.4827   42.6235 H   0  0  0  0  0  0  0  0  0  0  0  0
   56.7221   29.9178   41.6328 H   0  0  0  0  0  0  0  0  0  0  0  0
   55.7864   28.5859   43.7306 H   0  0  0  0  0  0  0  0  0  0  0  0
   56.6271   33.4676   45.1207 H   0  0  0  0  0  0  0  0  0  0  0  0
   57.1656   32.2883   46.3865 H   0  0  0  0  0  0  0  0  0  0  0  0
   59.0410   32.7600   44.2380 H   0  0  0  0  0  0  0  0  0  0  0  0
   58.9999   34.9645   44.2696 H   0  0  0  0  0  0  0  0  0  0  0  0
   57.9327   34.9888   45.6983 H   0  0  0  0  0  0  0  0  0  0  0  0
   60.9605   34.9156   45.5518 H   0  0  0  0  0  0  0  0  0  0  0  0
   59.9532   35.7877   46.6937 H   0  0  0  0  0  0  0  0  0  0  0  0
   61.6547   32.3254   47.8574 H   0  0  0  0  0  0  0  0  0  0  0  0
   62.2958   33.6977   46.9805 H   0  0  0  0  0  0  0  0  0  0  0  0
   61.9557   33.6201   49.7465 H   0  0  0  0  0  0  0  0  0  0  0  0
   61.9736   35.1497   48.8010 H   0  0  0  0  0  0  0  0  0  0  0  0
   58.9053   32.8859   48.7272 H   0  0  0  0  0  0  0  0  0  0  0  0
   58.4264   34.5060   48.1415 H   0  0  0  0  0  0  0  0  0  0  0  0
   60.4258   31.9606   45.7319 H   0  0  0  0  0  0  0  0  0  0  0  0
   59.0313   31.7524   46.8232 H   0  0  0  0  0  0  0  0  0  0  0  0
  1  2  1  0
  2  3  1  0
  3  4  1  0
  4  5  2  0
  5  6  1  0
  6  7  2  0
  7  8  1  0
  8  9  1  0
  9 10  1  0
 10 11  1  0
 12 11  1  6
 12 13  1  0
 13 14  1  0
 14 15  1  0
 15 16  1  0
 12 17  1  0
  7  3  1  0
 17  9  1  0
 16 12  1  0
  1 18  1  0
  1 19  1  0
  1 20  1  0
  2 21  1  0
  2 22  1  0
  4 23  1  0
  5 24  1  0
  8 25  1  0
  8 26  1  0
  9 27  1  6
 10 28  1  0
 10 29  1  0
 11 30  1  0
 11 31  1  0
 13 32  1  0
 13 33  1  0
 14 34  1  0
 14 35  1  0
 16 36  1  0
 16 37  1  0
 17 38  1  0
 17 39  1  0
M  CHG  1   9   1
M  END
>  <UniqueID>  (5) 
4

>  <SMILES>  (5) 
CCn1ccnc1C[N@H+]1CC[C@]2(CCOC2)C1

>  <Energy>  (5) 
72.30008774381069

>  <Genealogy>  (5) 
CCn1ccnc1C[NH+]1CCC2(CCOC2)C1 (protonated)
CCn1ccnc1C[N@H+]1CC[C@]2(CCOC2)C1 (chirality)
CCn1ccnc1C[N@H+]1CC[C@]2(CCOC2)C1 (3D coordinates assigned)
CCn1ccnc1C[N@H+]1CC[C@]2(CCOC2)C1 (nonaromatic ring conformer: 72.30008774381069 kcal/mol)

>  <smiles>  (5) 
CCn1ccnc1CN1CCC2(CCOC2)C1

>  <score_type>  (5) 
oracle

>  <origin>  (5) 
adg

>  <m_score__min__energy>  (5) 
-5.1299999999999999

>  <m_primary>  (5) 
energy

$$$$
5:0
     RDKit          3D

 48 51  0  0  0  0  0  0  0  0999 V2000
   61.8100   30.4350   50.8650 C   0  0  0  0  0  0  0  0  0  0  0  0
   62.1530   30.4310   49.4830 O   0  0  0  0  0  0  0  0  0  0  0  0
   62.4480   31.5800   48.7300 C   0  0  0  0  0  0  0  0  0  0  0  0
   63.4480   32.4900   49.1300 C   0  0  0  0  0  0  0  0  0  0  0  0
   63.7440   33.6070   48.3450 C   0  0  0  0  0  0  0  0  0  0  0  0
   63.0510   33.8300   47.1570 C   0  0  0  0  0  0  0  0  0  0  0  0
   62.0530   32.9420   46.7510 C   0  0  0  0  0  0  0  0  0  0  0  0
   61.7370   31.8180   47.5330 C   0  0  0  0  0  0  0  0  0  0  0  0
   60.6630   30.8960   47.0900 C   0  0  0  0  0  0  0  0  0  0  0  0
   59.5990   31.3810   46.3190 C   0  0  0  0  0  0  0  0  0  0  0  0
   58.5880   30.5160   45.8790 C   0  0  0  0  0  0  0  0  0  0  0  0
   57.5350   31.0740   45.0020 C   0  0  0  0  0  0  0  0  0  0  0  0
   56.4410   30.4650   44.8570 O   0  0  0  0  0  0  0  0  0  0  0  0
   57.7910   32.2830   44.2710 N   0  0  0  0  0  0  0  0  0  0  0  0
   57.8070   33.6390   44.8280 C   0  0  0  0  0  0  0  0  0  0  0  0
   59.1980   34.2740   44.7550 C   0  0  0  0  0  0  0  0  0  0  0  0
   59.3790   35.0150   46.0690 C   0  0  0  0  0  0  0  0  0  0  0  0
   58.5360   34.2610   47.0820 C   0  0  0  0  0  0  0  0  0  0  0  0
   57.3700   33.6710   46.2980 C   0  0  0  0  0  0  0  0  0  0  0  0
   58.6340   29.1530   46.2640 C   0  0  0  0  0  0  0  0  0  0  0  0
   57.6120   28.2340   45.9400 C   0  0  0  0  0  0  0  0  0  0  0  0
   57.7040   26.8990   46.3400 C   0  0  0  0  0  0  0  0  0  0  0  0
   58.8000   26.4590   47.0790 C   0  0  0  0  0  0  0  0  0  0  0  0
   59.8080   27.3560   47.4350 C   0  0  0  0  0  0  0  0  0  0  0  0
   59.7320   28.7030   47.0440 C   0  0  0  0  0  0  0  0  0  0  0  0
   60.7050   29.5770   47.4290 N   0  0  0  0  0  0  0  0  0  0  0  0
   62.7282   30.4243   51.4707 H   0  0  0  0  0  0  0  0  0  0  0  0
   61.2289   31.3400   51.0960 H   0  0  0  0  0  0  0  0  0  0  0  0
   61.2080   29.5438   51.0960 H   0  0  0  0  0  0  0  0  0  0  0  0
   63.9989   32.3192   50.0667 H   0  0  0  0  0  0  0  0  0  0  0  0
   64.5255   34.3117   48.6653 H   0  0  0  0  0  0  0  0  0  0  0  0
   63.2906   34.7071   46.5379 H   0  0  0  0  0  0  0  0  0  0  0  0
   61.5099   33.1236   45.8118 H   0  0  0  0  0  0  0  0  0  0  0  0
   59.5566   32.4485   46.0570 H   0  0  0  0  0  0  0  0  0  0  0  0
   57.0951   34.2074   44.2115 H   0  0  0  0  0  0  0  0  0  0  0  0
   59.9690   33.4975   44.6428 H   0  0  0  0  0  0  0  0  0  0  0  0
   59.2924   34.9485   43.8912 H   0  0  0  0  0  0  0  0  0  0  0  0
   60.4370   35.0100   46.3701 H   0  0  0  0  0  0  0  0  0  0  0  0
   59.0728   36.0684   45.9879 H   0  0  0  0  0  0  0  0  0  0  0  0
   59.1264   33.4599   47.5506 H   0  0  0  0  0  0  0  0  0  0  0  0
   58.1869   34.9220   47.8890 H   0  0  0  0  0  0  0  0  0  0  0  0
   57.1505   32.6528   46.6517 H   0  0  0  0  0  0  0  0  0  0  0  0
   56.4575   34.2711   46.4293 H   0  0  0  0  0  0  0  0  0  0  0  0
   56.7358   28.5725   45.3676 H   0  0  0  0  0  0  0  0  0  0  0  0
   56.9066   26.1910   46.0700 H   0  0  0  0  0  0  0  0  0  0  0  0
   58.8708   25.4039   47.3820 H   0  0  0  0  0  0  0  0  0  0  0  0
   60.6675   27.0060   48.0256 H   0  0  0  0  0  0  0  0  0  0  0  0
   61.4920   29.2330   48.0250 H   0  0  0  0  0  0  0  0  0  0  0  0
  1  2  1  0
  2  3  1  0
  3  4  2  0
  4  5  1  0
  5  6  2  0
  6  7  1  0
  7  8  2  0
  8  9  1  0
  9 10  2  0
 10 11  1  0
 11 12  1  0
 12 13  2  0
 12 14  1  0
 14 15  1  0
 15 16  1  0
 16 17  1  0
 17 18  1  0
 18 19  1  0
 11 20  2  0
 20 21  1  0
 21 22  2  0
 22 23  1  0
 23 24  2  0
 24 25  1  0
 25 26  2  0
  8  3  1  0
 26  9  1  0
 19 15  1  0
 25 20  1  0
  1 27  1  0
  1 28  1  0
  1 29  1  0
  4 30  1  0
  5 31  1  0
  6 32  1  0
  7 33  1  0
 10 34  1  0
 15 35  1  0
 16 36  1  0
 16 37  1  0
 17 38  1  0
 17 39  1  0
 18 40  1  0
 18 41  1  0
 19 42  1  0
 19 43  1  0
 21 44  1  0
 22 45  1  0
 23 46  1  0
 24 47  1  0
 26 48  1  0
M  CHG  2  14  -1  26   1
M  END
>  <UniqueID>  (6) 
5

>  <SMILES>  (6) 
COc1ccccc1-c1cc(C(=O)[N-]C2CCCC2)c2ccccc2[nH+]1

>  <Energy>  (6) 
66.76140116159219

>  <Genealogy>  (6) 
COc1ccccc1-c1cc(C(=O)[N-]C2CCCC2)c2ccccc2[nH+]1 (protonated)
COc1ccccc1-c1cc(C(=O)[N-]C2CCCC2)c2ccccc2[nH+]1 (3D coordinates assigned)
COc1ccccc1-c1cc(C(=O)[N-]C2CCCC2)c2ccccc2[nH+]1 (nonaromatic ring conformer: 66.76140116159219 kcal/mol)

>  <smiles>  (6) 
COc1ccccc1-c1cc(C(=O)NC2CCCC2)c2ccccc2n1

>  <score_type>  (6) 
oracle

>  <origin>  (6) 
adg

>  <m_score__min__energy>  (6) 
-8.0999999999999996

>  <m_primary>  (6) 
energy

$$$$
6:0
     RDKit          3D

 43 46  0  0  0  0  0  0  0  0999 V2000
   55.9770   26.7040   46.3530 O   0  0  0  0  0  0  0  0  0  0  0  0
   57.3550   26.5670   45.7710 S   0  0  0  0  0  0  0  0  0  0  0  0
   57.6780   25.1090   45.6070 O   0  0  0  0  0  0  0  0  0  0  0  0
   57.4070   27.3410   44.2170 N   0  0  0  0  0  0  0  0  0  0  0  0
   57.4340   28.7680   44.0350 C   0  0  0  0  0  0  0  0  0  0  0  0
   56.6600   29.3450   43.0180 C   0  0  0  0  0  0  0  0  0  0  0  0
   56.6410   30.7300   42.8430 C   0  0  0  0  0  0  0  0  0  0  0  0
   57.3870   31.5560   43.6860 C   0  0  0  0  0  0  0  0  0  0  0  0
   58.1780   31.0010   44.7070 C   0  0  0  0  0  0  0  0  0  0  0  0
   58.9450   31.8670   45.6380 C   0  0  0  0  0  0  0  0  0  0  0  0
   58.6050   33.1490   46.0660 C   0  0  0  0  0  0  0  0  0  0  0  0
   59.5140   33.7010   46.9780 C   0  0  0  0  0  0  0  0  0  0  0  0
   60.5860   32.8610   47.2860 C   0  0  0  0  0  0  0  0  0  0  0  0
   61.7090   33.1440   48.2180 C   0  0  0  0  0  0  0  0  0  0  0  0
   62.9950   32.6270   47.9590 C   0  0  0  0  0  0  0  0  0  0  0  0
   64.0550   32.8860   48.8310 C   0  0  0  0  0  0  0  0  0  0  0  0
   63.8500   33.6640   49.9720 C   0  0  0  0  0  0  0  0  0  0  0  0
   62.5840   34.1850   50.2420 C   0  0  0  0  0  0  0  0  0  0  0  0
   61.5190   33.9290   49.3730 C   0  0  0  0  0  0  0  0  0  0  0  0
   60.3790   31.4370   46.4100 S   0  0  0  0  0  0  0  0  0  0  0  0
   58.2130   29.6040   44.8570 C   0  0  0  0  0  0  0  0  0  0  0  0
   58.5080   27.3180   46.8660 C   0  0  0  0  0  0  0  0  0  0  0  0
   59.7830   26.7640   47.0360 C   0  0  0  0  0  0  0  0  0  0  0  0
   60.6610   27.3440   47.9540 C   0  0  0  0  0  0  0  0  0  0  0  0
   60.2610   28.4630   48.6880 C   0  0  0  0  0  0  0  0  0  0  0  0
   58.9810   28.9880   48.4890 C   0  0  0  0  0  0  0  0  0  0  0  0
   58.1410   28.4080   47.5920 N   0  0  0  0  0  0  0  0  0  0  0  0
   57.3020   26.7250   43.3800 H   0  0  0  0  0  0  0  0  0  0  0  0
   56.0638   28.7021   42.3537 H   0  0  0  0  0  0  0  0  0  0  0  0
   56.0359   31.1722   42.0378 H   0  0  0  0  0  0  0  0  0  0  0  0
   57.3556   32.6472   43.5505 H   0  0  0  0  0  0  0  0  0  0  0  0
   57.7054   33.6788   45.7195 H   0  0  0  0  0  0  0  0  0  0  0  0
   59.3941   34.7047   47.4119 H   0  0  0  0  0  0  0  0  0  0  0  0
   63.1651   32.0139   47.0617 H   0  0  0  0  0  0  0  0  0  0  0  0
   65.0534   32.4761   48.6183 H   0  0  0  0  0  0  0  0  0  0  0  0
   64.6860   33.8662   50.6577 H   0  0  0  0  0  0  0  0  0  0  0  0
   62.4235   34.7986   51.1407 H   0  0  0  0  0  0  0  0  0  0  0  0
   60.5242   34.3439   49.5927 H   0  0  0  0  0  0  0  0  0  0  0  0
   58.8584   29.1575   45.6278 H   0  0  0  0  0  0  0  0  0  0  0  0
   60.0891   25.8826   46.4534 H   0  0  0  0  0  0  0  0  0  0  0  0
   61.6658   26.9204   48.0988 H   0  0  0  0  0  0  0  0  0  0  0  0
   60.9454   28.9257   49.4143 H   0  0  0  0  0  0  0  0  0  0  0  0
   58.6537   29.8704   49.0583 H   0  0  0  0  0  0  0  0  0  0  0  0
  1  2  2  0
  2  3  2  0
  2  4  1  0
  4  5  1  0
  5  6  2  0
  6  7  1  0
  7  8  2  0
  8  9  1  0
  9 10  1  0
 10 11  2  0
 11 12  1  0
 12 13  2  0
 13 14  1  0
 14 15  2  0
 15 16  1  0
 16 17  2  0
 17 18  1  0
 18 19  2  0
 13 20  1  0
  9 21  2  0
  2 22  1  0
 22 23  2  0
 23 24  1  0
 24 25  2  0
 25 26  1  0
 26 27  2  0
 21  5  1  0
 27 22  1  0
 20 10  1  0
 19 14  1  0
  4 28  1  0
  6 29  1  0
  7 30  1  0
  8 31  1  0
 11 32  1  0
 12 33  1  0
 15 34  1  0
 16 35  1  0
 17 36  1  0
 18 37  1  0
 19 38  1  0
 21 39  1  0
 23 40  1  0
 24 41  1  0
 25 42  1  0
 26 43  1  0
M  END
>  <UniqueID>  (7) 
6

>  <SMILES>  (7) 
O=S(=O)(Nc1cccc(-c2ccc(-c3ccccc3)s2)c1)c1ccccn1

>  <Energy>  (7) 
80.78635889011926

>  <Genealogy>  (7) 
O=S(=O)(Nc1cccc(-c2ccc(-c3ccccc3)s2)c1)c1ccccn1 (3D coordinates assigned)
O=S(=O)(Nc1cccc(-c2ccc(-c3ccccc3)s2)c1)c1ccccn1 (optimized conformer: 80.78635889011926 kcal/mol)

>  <smiles>  (7) 
O=S(=O)(Nc1cccc(-c2ccc(-c3ccccc3)s2)c1)c1ccccn1

>  <score_type>  (7) 
oracle

>  <origin>  (7) 
adg

>  <m_score__min__energy>  (7) 
-9.7599999999999998

>  <m_primary>  (7) 
energy

$$$$
7:0
     RDKit          3D

 53 56  0  0  0  0  0  0  0  0999 V2000
   55.6020   23.2950   47.5890 C   0  0  0  0  0  0  0  0  0  0  0  0
   55.1890   24.3440   46.7190 O   0  0  0  0  0  0  0  0  0  0  0  0
   56.0570   25.0940   45.9120 C   0  0  0  0  0  0  0  0  0  0  0  0
   56.7480   24.4370   44.8890 C   0  0  0  0  0  0  0  0  0  0  0  0
   57.6400   25.1370   44.0740 C   0  0  0  0  0  0  0  0  0  0  0  0
   57.8470   26.5050   44.2700 C   0  0  0  0  0  0  0  0  0  0  0  0
   57.1400   27.1920   45.2750 C   0  0  0  0  0  0  0  0  0  0  0  0
   57.3610   28.5890   45.5380 N   0  0  0  0  0  0  0  0  0  0  0  0
   56.7900   29.6730   44.7830 C   0  0  0  0  0  0  0  0  0  0  0  0
   55.8060   29.4700   44.0220 O   0  0  0  0  0  0  0  0  0  0  0  0
   57.3580   31.0360   44.8830 C   0  0  0  0  0  0  0  0  0  0  0  0
   57.5380   31.7990   43.7250 C   0  0  0  0  0  0  0  0  0  0  0  0
   58.1380   33.0540   43.7970 C   0  0  0  0  0  0  0  0  0  0  0  0
   58.5850   33.5640   45.0220 C   0  0  0  0  0  0  0  0  0  0  0  0
   58.4490   32.7920   46.2060 C   0  0  0  0  0  0  0  0  0  0  0  0
   57.7690   31.5580   46.1200 C   0  0  0  0  0  0  0  0  0  0  0  0
   59.0920   33.1990   47.4470 N   0  0  0  0  0  0  0  0  0  0  0  0
   59.3600   32.0640   48.7560 S   0  0  0  0  0  0  0  0  0  0  0  0
   58.1300   32.0310   49.6190 O   0  0  0  0  0  0  0  0  0  0  0  0
   60.5320   32.4870   49.5990 O   0  0  0  0  0  0  0  0  0  0  0  0
   59.7090   30.4480   48.1410 C   0  0  0  0  0  0  0  0  0  0  0  0
   60.4970   30.2840   46.9920 C   0  0  0  0  0  0  0  0  0  0  0  0
   60.7090   29.0080   46.4640 C   0  0  0  0  0  0  0  0  0  0  0  0
   60.1430   27.8820   47.0820 C   0  0  0  0  0  0  0  0  0  0  0  0
   60.3700   26.5080   46.5220 C   0  0  0  0  0  0  0  0  0  0  0  0
   59.4040   28.0430   48.2640 C   0  0  0  0  0  0  0  0  0  0  0  0
   59.1830   29.3200   48.7860 C   0  0  0  0  0  0  0  0  0  0  0  0
   59.6130   34.5620   47.6010 C   0  0  0  0  0  0  0  0  0  0  0  0
   60.4130   34.9650   46.3730 C   0  0  0  0  0  0  0  0  0  0  0  0
   59.2490   35.2390   45.0140 S   0  0  0  0  0  0  0  0  0  0  0  0
   56.2580   26.4760   46.1010 C   0  0  0  0  0  0  0  0  0  0  0  0
   55.4762   23.6145   48.6341 H   0  0  0  0  0  0  0  0  0  0  0  0
   54.9887   22.4011   47.4025 H   0  0  0  0  0  0  0  0  0  0  0  0
   56.6601   23.0591   47.4025 H   0  0  0  0  0  0  0  0  0  0  0  0
   56.5877   23.3611   44.7252 H   0  0  0  0  0  0  0  0  0  0  0  0
   58.1816   24.6097   43.2749 H   0  0  0  0  0  0  0  0  0  0  0  0
   58.5649   27.0470   43.6368 H   0  0  0  0  0  0  0  0  0  0  0  0
   58.0020   28.8200   46.3260 H   0  0  0  0  0  0  0  0  0  0  0  0
   57.2043   31.4064   42.7531 H   0  0  0  0  0  0  0  0  0  0  0  0
   58.2620   33.6510   42.8814 H   0  0  0  0  0  0  0  0  0  0  0  0
   57.5569   30.9941   47.0403 H   0  0  0  0  0  0  0  0  0  0  0  0
   60.9487   31.1614   46.5060 H   0  0  0  0  0  0  0  0  0  0  0  0
   61.3226   28.8852   45.5594 H   0  0  0  0  0  0  0  0  0  0  0  0
   60.4885   25.7906   47.3474 H   0  0  0  0  0  0  0  0  0  0  0  0
   59.5078   26.2168   45.9041 H   0  0  0  0  0  0  0  0  0  0  0  0
   61.2800   26.5096   45.9041 H   0  0  0  0  0  0  0  0  0  0  0  0
   58.9975   27.1613   48.7811 H   0  0  0  0  0  0  0  0  0  0  0  0
   58.5938   29.4408   49.7070 H   0  0  0  0  0  0  0  0  0  0  0  0
   58.7720   35.2591   47.7306 H   0  0  0  0  0  0  0  0  0  0  0  0
   60.2706   34.5954   48.4822 H   0  0  0  0  0  0  0  0  0  0  0  0
   60.9719   35.8899   46.5783 H   0  0  0  0  0  0  0  0  0  0  0  0
   61.1313   34.1752   46.1082 H   0  0  0  0  0  0  0  0  0  0  0  0
   55.7184   26.9996   46.9040 H   0  0  0  0  0  0  0  0  0  0  0  0
  1  2  1  0
  2  3  1  0
  3  4  2  0
  4  5  1  0
  5  6  2  0
  6  7  1  0
  7  8  1  0
  8  9  1  0
  9 10  2  0
  9 11  1  0
 11 12  2  0
 12 13  1  0
 13 14  2  0
 14 15  1  0
 15 16  2  0
 15 17  1  0
 17 18  1  0
 18 19  2  0
 18 20  2  0
 18 21  1  0
 21 22  2  0
 22 23  1  0
 23 24  2  0
 24 25  1  0
 24 26  1  0
 26 27  2  0
 17 28  1  0
 28 29  1  0
 29 30  1  0
  7 31  2  0
 31  3  1  0
 16 11  1  0
 27 21  1  0
 30 14  1  0
  1 32  1  0
  1 33  1  0
  1 34  1  0
  4 35  1  0
  5 36  1  0
  6 37  1  0
  8 38  1  0
 12 39  1  0
 13 40  1  0
 16 41  1  0
 22 42  1  0
 23 43  1  0
 25 44  1  0
 25 45  1  0
 25 46  1  0
 26 47  1  0
 27 48  1  0
 28 49  1  0
 28 50  1  0
 29 51  1  0
 29 52  1  0
 31 53  1  0
M  END
>  <UniqueID>  (8) 
7

>  <SMILES>  (8) 
COc1cccc(NC(=O)c2ccc3c(c2)N(S(=O)(=O)c2ccc(C)cc2)CCS3)c1

>  <Energy>  (8) 
69.63805539656302

>  <Genealogy>  (8) 
COc1cccc(NC(=O)c2ccc3c(c2)N(S(=O)(=O)c2ccc(C)cc2)CCS3)c1 (3D coordinates assigned)
COc1cccc(NC(=O)c2ccc3c(c2)N(S(=O)(=O)c2ccc(C)cc2)CCS3)c1 (nonaromatic ring conformer: 69.63805539656302 kcal/mol)

>  <smiles>  (8) 
COc1cccc(NC(=O)c2ccc3c(c2)N(S(=O)(=O)c2ccc(C)cc2)CCS3)c1

>  <score_type>  (8) 
oracle

>  <origin>  (8) 
adg

>  <m_score__min__energy>  (8) 
-9.4000000000000004

>  <m_primary>  (8) 
energy

$$$$
8:0
     RDKit          3D

 49 51  0  0  0  0  0  0  0  0999 V2000
   51.9310   24.0640   44.6980 C   0  0  0  0  0  0  0  0  0  0  0  0
   53.0240   23.1580   44.5830 O   0  0  0  0  0  0  0  0  0  0  0  0
   54.3710   23.5230   44.7090 C   0  0  0  0  0  0  0  0  0  0  0  0
   55.3060   23.3330   43.6740 C   0  0  0  0  0  0  0  0  0  0  0  0
   56.6400   23.7130   43.8490 C   0  0  0  0  0  0  0  0  0  0  0  0
   57.0590   24.2980   45.0540 C   0  0  0  0  0  0  0  0  0  0  0  0
   58.5020   24.6750   45.2560 C   0  0  0  0  0  0  0  0  0  0  0  0
   58.6290   25.6960   46.4100 C   0  0  0  0  0  0  0  0  0  0  0  0
   59.1280   27.0370   46.0080 N   0  0  0  0  0  0  0  0  0  0  0  0
   58.7960   27.3900   44.5970 C   0  0  0  0  0  0  0  0  0  0  0  0
   57.6900   28.4490   44.4840 C   0  0  0  0  0  0  0  0  0  0  0  0
   58.0470   29.6400   45.2640 N   0  0  0  0  0  0  0  0  0  0  0  0
   57.3750   30.8880   44.9990 C   0  0  0  0  0  0  0  0  0  0  0  0
   56.2090   30.8710   44.5140 O   0  0  0  0  0  0  0  0  0  0  0  0
   58.0160   32.1910   45.2830 C   0  0  0  0  0  0  0  0  0  0  0  0
   58.1130   32.6540   46.6070 C   0  0  0  0  0  0  0  0  0  0  0  0
   58.7080   33.8890   46.8810 C   0  0  0  0  0  0  0  0  0  0  0  0
   59.2000   34.6770   45.8370 C   0  0  0  0  0  0  0  0  0  0  0  0
   59.7760   35.8760   46.1050 F   0  0  0  0  0  0  0  0  0  0  0  0
   59.0910   34.2340   44.5170 C   0  0  0  0  0  0  0  0  0  0  0  0
   58.4970   32.9990   44.2380 C   0  0  0  0  0  0  0  0  0  0  0  0
   58.9240   29.4940   46.4330 C   0  0  0  0  0  0  0  0  0  0  0  0
   58.7880   28.0820   47.0110 C   0  0  0  0  0  0  0  0  0  0  0  0
   56.1300   24.4750   46.0910 C   0  0  0  0  0  0  0  0  0  0  0  0
   54.7960   24.0940   45.9150 C   0  0  0  0  0  0  0  0  0  0  0  0
   51.7141   24.2438   45.7613 H   0  0  0  0  0  0  0  0  0  0  0  0
   52.1906   25.0154   44.2108 H   0  0  0  0  0  0  0  0  0  0  0  0
   51.0442   23.6325   44.2108 H   0  0  0  0  0  0  0  0  0  0  0  0
   54.9854   22.8833   42.7227 H   0  0  0  0  0  0  0  0  0  0  0  0
   57.3653   23.5526   43.0377 H   0  0  0  0  0  0  0  0  0  0  0  0
   59.0823   23.7736   45.5025 H   0  0  0  0  0  0  0  0  0  0  0  0
   58.8882   25.1280   44.3310 H   0  0  0  0  0  0  0  0  0  0  0  0
   57.6353   25.8234   46.8642 H   0  0  0  0  0  0  0  0  0  0  0  0
   59.3762   25.2846   47.1046 H   0  0  0  0  0  0  0  0  0  0  0  0
   60.1730   26.9530   46.0400 H   0  0  0  0  0  0  0  0  0  0  0  0
   59.7031   27.7783   44.1108 H   0  0  0  0  0  0  0  0  0  0  0  0
   58.4255   26.4763   44.1094 H   0  0  0  0  0  0  0  0  0  0  0  0
   57.5631   28.7307   43.4283 H   0  0  0  0  0  0  0  0  0  0  0  0
   56.7513   28.0309   44.8766 H   0  0  0  0  0  0  0  0  0  0  0  0
   57.7188   32.0415   47.4313 H   0  0  0  0  0  0  0  0  0  0  0  0
   58.7890   34.2411   47.9200 H   0  0  0  0  0  0  0  0  0  0  0  0
   59.4730   34.8576   43.6953 H   0  0  0  0  0  0  0  0  0  0  0  0
   58.4058   32.6583   43.1961 H   0  0  0  0  0  0  0  0  0  0  0  0
   59.9675   29.6657   46.1303 H   0  0  0  0  0  0  0  0  0  0  0  0
   58.6342   30.2290   47.1983 H   0  0  0  0  0  0  0  0  0  0  0  0
   59.4661   27.9831   47.8715 H   0  0  0  0  0  0  0  0  0  0  0  0
   57.7403   27.9367   47.3131 H   0  0  0  0  0  0  0  0  0  0  0  0
   56.4525   24.9152   47.0461 H   0  0  0  0  0  0  0  0  0  0  0  0
   54.0740   24.2442   46.7312 H   0  0  0  0  0  0  0  0  0  0  0  0
  1  2  1  0
  2  3  1  0
  3  4  2  0
  4  5  1  0
  5  6  2  0
  6  7  1  0
  7  8  1  0
  8  9  1  0
  9 10  1  0
 10 11  1  0
 11 12  1  0
 12 13  1  0
 13 14  2  0
 13 15  1  0
 15 16  2  0
 16 17  1  0
 17 18  2  0
 18 19  1  0
 18 20  1  0
 20 21  2  0
 12 22  1  0
 22 23  1  0
  6 24  1  0
 24 25  2  0
 25  3  1  0
 23  9  1  0
 21 15  1  0
  1 26  1  0
  1 27  1  0
  1 28  1  0
  4 29  1  0
  5 30  1  0
  7 31  1  0
  7 32  1  0
  8 33  1  0
  8 34  1  0
  9 35  1  0
 10 36  1  0
 10 37  1  0
 11 38  1  0
 11 39  1  0
 16 40  1  0
 17 41  1  0
 20 42  1  0
 21 43  1  0
 22 44  1  0
 22 45  1  0
 23 46  1  0
 23 47  1  0
 24 48  1  0
 25 49  1  0
M  CHG  1   9   1
M  END
>  <UniqueID>  (9) 
8

>  <SMILES>  (9) 
COc1ccc(CC[NH+]2CCN(C(=O)c3ccc(F)cc3)CC2)cc1

>  <Energy>  (9) 
63.12302297679395

>  <Genealogy>  (9) 
COc1ccc(CC[NH+]2CCN(C(=O)c3ccc(F)cc3)CC2)cc1 (protonated)
COc1ccc(CC[NH+]2CCN(C(=O)c3ccc(F)cc3)CC2)cc1 (3D coordinates assigned)
COc1ccc(CC[NH+]2CCN(C(=O)c3ccc(F)cc3)CC2)cc1 (nonaromatic ring conformer: 63.12302297679395 kcal/mol)

>  <smiles>  (9) 
COc1ccc(CCN2CCN(C(=O)c3ccc(F)cc3)CC2)cc1

>  <score_type>  (9) 
oracle

>  <origin>  (9) 
adg

>  <m_score__min__energy>  (9) 
-6.2699999999999996

>  <m_primary>  (9) 
energy

$$$$
9:0
     RDKit          3D

 52 55  0  0  0  0  0  0  0  0999 V2000
   57.0070   27.3460   45.6130 C   0  0  0  0  0  0  0  0  0  0  0  0
   56.3480   28.5580   45.2600 O   0  0  0  0  0  0  0  0  0  0  0  0
   57.0000   29.7800   45.0430 C   0  0  0  0  0  0  0  0  0  0  0  0
   56.7670   30.4520   43.8380 C   0  0  0  0  0  0  0  0  0  0  0  0
   57.3960   31.6700   43.5740 C   0  0  0  0  0  0  0  0  0  0  0  0
   58.2610   32.2330   44.5140 C   0  0  0  0  0  0  0  0  0  0  0  0
   58.4980   31.5830   45.7370 C   0  0  0  0  0  0  0  0  0  0  0  0
   59.4260   32.1560   46.7420 C   0  0  0  0  0  0  0  0  0  0  0  0
   60.7590   32.0280   46.5380 N   0  0  0  0  0  0  0  0  0  0  0  0
   61.6660   32.5120   47.4160 C   0  0  0  0  0  0  0  0  0  0  0  0
   63.0310   32.3510   47.1500 C   0  0  0  0  0  0  0  0  0  0  0  0
   63.9820   32.8390   48.0460 C   0  0  0  0  0  0  0  0  0  0  0  0
   63.5740   33.4900   49.2090 C   0  0  0  0  0  0  0  0  0  0  0  0
   62.2130   33.6580   49.4840 C   0  0  0  0  0  0  0  0  0  0  0  0
   61.2280   33.1710   48.5900 C   0  0  0  0  0  0  0  0  0  0  0  0
   59.8720   33.3040   48.8240 N   0  0  0  0  0  0  0  0  0  0  0  0
   59.3620   33.9390   50.0630 C   0  0  0  0  0  0  0  0  0  0  0  0
   58.8630   32.8980   51.0260 C   0  0  0  0  0  0  0  0  0  0  0  0
   59.6120   32.5150   51.9640 O   0  0  0  0  0  0  0  0  0  0  0  0
   57.5530   32.3320   50.8590 N   0  0  0  0  0  0  0  0  0  0  0  0
   57.0290   31.2780   51.6830 C   0  0  0  0  0  0  0  0  0  0  0  0
   55.7950   31.4280   52.3420 C   0  0  0  0  0  0  0  0  0  0  0  0
   55.2800   30.3910   53.1220 C   0  0  0  0  0  0  0  0  0  0  0  0
   55.9830   29.1920   53.2430 C   0  0  0  0  0  0  0  0  0  0  0  0
   57.2010   29.0230   52.5800 C   0  0  0  0  0  0  0  0  0  0  0  0
   57.7320   30.0620   51.7910 C   0  0  0  0  0  0  0  0  0  0  0  0
   58.9550   29.9290   51.1130 O   0  0  0  0  0  0  0  0  0  0  0  0
   59.0820   29.6890   49.7150 C   0  0  0  0  0  0  0  0  0  0  0  0
   58.9710   32.7930   47.9140 C   0  0  0  0  0  0  0  0  0  0  0  0
   57.7290   32.8590   48.1370 O   0  0  0  0  0  0  0  0  0  0  0  0
   57.8750   30.3490   45.9910 C   0  0  0  0  0  0  0  0  0  0  0  0
   57.0539   27.2598   46.7086 H   0  0  0  0  0  0  0  0  0  0  0  0
   56.4490   26.4920   45.2015 H   0  0  0  0  0  0  0  0  0  0  0  0
   58.0271   27.3500   45.2015 H   0  0  0  0  0  0  0  0  0  0  0  0
   56.0835   30.0176   43.0936 H   0  0  0  0  0  0  0  0  0  0  0  0
   57.2093   32.1880   42.6217 H   0  0  0  0  0  0  0  0  0  0  0  0
   58.7591   33.1893   44.2964 H   0  0  0  0  0  0  0  0  0  0  0  0
   63.3543   31.8383   46.2320 H   0  0  0  0  0  0  0  0  0  0  0  0
   65.0538   32.7101   47.8349 H   0  0  0  0  0  0  0  0  0  0  0  0
   64.3262   33.8735   49.9141 H   0  0  0  0  0  0  0  0  0  0  0  0
   61.9040   34.1741   50.4049 H   0  0  0  0  0  0  0  0  0  0  0  0
   60.1740   34.5099   50.5370 H   0  0  0  0  0  0  0  0  0  0  0  0
   58.5286   34.6074   49.8010 H   0  0  0  0  0  0  0  0  0  0  0  0
   57.0070   32.6020   50.0100 H   0  0  0  0  0  0  0  0  0  0  0  0
   55.2326   32.3681   52.2420 H   0  0  0  0  0  0  0  0  0  0  0  0
   54.3190   30.5194   53.6417 H   0  0  0  0  0  0  0  0  0  0  0  0
   55.5774   28.3780   53.8618 H   0  0  0  0  0  0  0  0  0  0  0  0
   57.7483   28.0735   52.6746 H   0  0  0  0  0  0  0  0  0  0  0  0
   59.5909   28.7274   49.5528 H   0  0  0  0  0  0  0  0  0  0  0  0
   58.0828   29.6571   49.2562 H   0  0  0  0  0  0  0  0  0  0  0  0
   59.6705   30.4972   49.2562 H   0  0  0  0  0  0  0  0  0  0  0  0
   58.0716   29.8230   46.9369 H   0  0  0  0  0  0  0  0  0  0  0  0
  1  2  1  0
  2  3  1  0
  3  4  2  0
  4  5  1  0
  5  6  2  0
  6  7  1  0
  7  8  1  0
  8  9  2  0
  9 10  1  0
 10 11  2  0
 11 12  1  0
 12 13  2  0
 13 14  1  0
 14 15  2  0
 15 16  1  0
 16 17  1  0
 17 18  1  0
 18 19  2  0
 18 20  1  0
 20 21  1  0
 21 22  2  0
 22 23  1  0
 23 24  2  0
 24 25  1  0
 25 26  2  0
 26 27  1  0
 27 28  1  0
 16 29  1  0
 29 30  2  0
  7 31  2  0
 31  3  1  0
 29  8  1  0
 15 10  1  0
 26 21  1  0
  1 32  1  0
  1 33  1  0
  1 34  1  0
  4 35  1  0
  5 36  1  0
  6 37  1  0
 11 38  1  0
 12 39  1  0
 13 40  1  0
 14 41  1  0
 17 42  1  0
 17 43  1  0
 20 44  1  0
 22 45  1  0
 23 46  1  0
 24 47  1  0
 25 48  1  0
 28 49  1  0
 28 50  1  0
 28 51  1  0
 31 52  1  0
M  END
>  <UniqueID>  (10) 
9

>  <SMILES>  (10) 
COc1cccc(-c2nc3ccccc3n(CC(=O)Nc3ccccc3OC)c2=O)c1

>  <Energy>  (10) 
74.21640175393863

>  <Genealogy>  (10) 
COc1cccc(-c2nc3ccccc3n(CC(=O)Nc3ccccc3OC)c2=O)c1 (3D coordinates assigned)
COc1cccc(-c2nc3ccccc3n(CC(=O)Nc3ccccc3OC)c2=O)c1 (optimized conformer: 74.21640175393863 kcal/mol)

>  <smiles>  (10) 
COc1cccc(-c2nc3ccccc3n(CC(=O)Nc3ccccc3OC)c2=O)c1

>  <score_type>  (10) 
oracle

>  <origin>  (10) 
adg

>  <m_score__min__energy>  (10) 
-8.0199999999999996

>  <m_primary>  (10) 
energy

$$$$
10:0
     RDKit          3D

 33 36  0  0  0  0  0  0  0  0999 V2000
   59.4650   34.9310   49.1930 O   0  0  0  0  0  0  0  0  0  0  0  0
   59.9470   34.1520   48.3260 C   0  0  0  0  0  0  0  0  0  0  0  0
   59.1250   33.6540   47.3140 C   0  0  0  0  0  0  0  0  0  0  0  0
   59.6670   32.7850   46.3550 C   0  0  0  0  0  0  0  0  0  0  0  0
   58.8250   32.2460   45.2630 C   0  0  0  0  0  0  0  0  0  0  0  0
   58.5150   33.0880   44.1790 C   0  0  0  0  0  0  0  0  0  0  0  0
   57.7800   32.6140   43.0940 C   0  0  0  0  0  0  0  0  0  0  0  0
   57.3410   31.2930   43.0640 C   0  0  0  0  0  0  0  0  0  0  0  0
   57.6210   30.4310   44.1330 C   0  0  0  0  0  0  0  0  0  0  0  0
   57.1610   29.1050   44.1010 C   0  0  0  0  0  0  0  0  0  0  0  0
   57.4140   28.2470   45.1720 C   0  0  0  0  0  0  0  0  0  0  0  0
   58.1170   28.7050   46.2860 C   0  0  0  0  0  0  0  0  0  0  0  0
   58.5840   30.0210   46.3330 C   0  0  0  0  0  0  0  0  0  0  0  0
   58.3620   30.9020   45.2520 C   0  0  0  0  0  0  0  0  0  0  0  0
   60.9550   32.4520   46.4130 O   0  0  0  0  0  0  0  0  0  0  0  0
   61.7760   32.9010   47.3590 C   0  0  0  0  0  0  0  0  0  0  0  0
   63.1160   32.5020   47.3580 C   0  0  0  0  0  0  0  0  0  0  0  0
   63.9870   32.9690   48.3470 C   0  0  0  0  0  0  0  0  0  0  0  0
   63.5220   33.8340   49.3410 C   0  0  0  0  0  0  0  0  0  0  0  0
   62.1840   34.2400   49.3520 C   0  0  0  0  0  0  0  0  0  0  0  0
   61.2990   33.7770   48.3600 C   0  0  0  0  0  0  0  0  0  0  0  0
   58.0637   33.9397   47.2687 H   0  0  0  0  0  0  0  0  0  0  0  0
   58.8571   34.1334   44.1882 H   0  0  0  0  0  0  0  0  0  0  0  0
   57.5453   33.2874   42.2565 H   0  0  0  0  0  0  0  0  0  0  0  0
   56.7721   30.9244   42.1977 H   0  0  0  0  0  0  0  0  0  0  0  0
   56.5990   28.7410   43.2283 H   0  0  0  0  0  0  0  0  0  0  0  0
   57.0580   27.2068   45.1375 H   0  0  0  0  0  0  0  0  0  0  0  0
   58.3047   28.0270   47.1316 H   0  0  0  0  0  0  0  0  0  0  0  0
   59.1297   30.3741   47.2204 H   0  0  0  0  0  0  0  0  0  0  0  0
   63.4855   31.8198   46.5782 H   0  0  0  0  0  0  0  0  0  0  0  0
   65.0411   32.6546   48.3426 H   0  0  0  0  0  0  0  0  0  0  0  0
   64.2111   34.1969   50.1178 H   0  0  0  0  0  0  0  0  0  0  0  0
   61.8228   34.9215   50.1362 H   0  0  0  0  0  0  0  0  0  0  0  0
  1  2  2  0
  2  3  1  0
  3  4  2  0
  4  5  1  0
  5  6  2  0
  6  7  1  0
  7  8  2  0
  8  9  1  0
  9 10  2  0
 10 11  1  0
 11 12  2  0
 12 13  1  0
 13 14  2  0
  4 15  1  0
 15 16  1  0
 16 17  2  0
 17 18  1  0
 18 19  2  0
 19 20  1  0
 20 21  2  0
 21  2  1  0
 14  5  1  0
 21 16  1  0
 14  9  1  0
  3 22  1  0
  6 23  1  0
  7 24  1  0
  8 25  1  0
 10 26  1  0
 11 27  1  0
 12 28  1  0
 13 29  1  0
 17 30  1  0
 18 31  1  0
 19 32  1  0
 20 33  1  0
M  END
>  <UniqueID>  (11) 
10

>  <SMILES>  (11) 
O=c1cc(-c2cccc3ccccc23)oc2ccccc12

>  <Energy>  (11) 
53.87747626365378

>  <Genealogy>  (11) 
O=c1cc(-c2cccc3ccccc23)oc2ccccc12 (3D coordinates assigned)
O=c1cc(-c2cccc3ccccc23)oc2ccccc12 (optimized conformer: 53.87747626365378 kcal/mol)

>  <smiles>  (11) 
O=c1cc(-c2cccc3ccccc23)oc2ccccc12

>  <score_type>  (11) 
oracle

>  <origin>  (11) 
adg

>  <m_score__min__energy>  (11) 
-7.5099999999999998

>  <m_primary>  (11) 
energy

$$$$
11:0
     RDKit          3D

 36 37  0  0  0  0  0  0  0  0999 V2000
   56.2720   29.7120   42.6240 C   0  0  0  0  0  0  0  0  0  0  0  0
   56.6720   29.8270   44.3540 S   0  0  0  0  0  0  0  0  0  0  0  0
   55.8190   28.8720   45.1380 O   0  0  0  0  0  0  0  0  0  0  0  0
   56.3930   31.2290   44.8180 O   0  0  0  0  0  0  0  0  0  0  0  0
   58.3420   29.4680   44.6310 N   0  0  0  0  0  0  0  0  0  0  0  0
   58.7600   28.5610   45.6530 C   0  0  0  0  0  0  0  0  0  0  0  0
   58.5720   27.1840   45.4680 C   0  0  0  0  0  0  0  0  0  0  0  0
   58.9320   26.2810   46.4680 C   0  0  0  0  0  0  0  0  0  0  0  0
   59.4890   26.7450   47.6600 C   0  0  0  0  0  0  0  0  0  0  0  0
   59.6950   28.1130   47.8540 C   0  0  0  0  0  0  0  0  0  0  0  0
   60.2590   28.5330   49.0170 F   0  0  0  0  0  0  0  0  0  0  0  0
   59.3480   29.0370   46.8480 C   0  0  0  0  0  0  0  0  0  0  0  0
   59.5660   30.4850   47.0750 C   0  0  0  0  0  0  0  0  0  0  0  0
   60.5940   30.8670   47.6960 O   0  0  0  0  0  0  0  0  0  0  0  0
   58.6310   31.4540   46.5770 N   0  0  0  0  0  0  0  0  0  0  0  0
   58.7130   32.8730   46.9500 C   0  0  0  0  0  0  0  0  0  0  0  0
   57.3880   33.5790   46.6690 C   0  0  0  0  0  0  0  0  0  0  0  0
   57.5030   34.1800   45.2700 C   0  0  0  0  0  0  0  0  0  0  0  0
   58.9620   34.0410   44.8420 C   0  0  0  0  0  0  0  0  0  0  0  0
   59.7280   33.6080   46.0810 C   0  0  0  0  0  0  0  0  0  0  0  0
   55.2205   29.4097   42.5101 H   0  0  0  0  0  0  0  0  0  0  0  0
   56.4259   30.6908   42.1462 H   0  0  0  0  0  0  0  0  0  0  0  0
   56.9223   28.9644   42.1462 H   0  0  0  0  0  0  0  0  0  0  0  0
   58.1376   26.8134   44.5278 H   0  0  0  0  0  0  0  0  0  0  0  0
   58.7767   25.2026   46.3168 H   0  0  0  0  0  0  0  0  0  0  0  0
   59.7669   26.0313   48.4496 H   0  0  0  0  0  0  0  0  0  0  0  0
   57.9120   31.1420   45.8850 H   0  0  0  0  0  0  0  0  0  0  0  0
   58.9855   32.8957   48.0155 H   0  0  0  0  0  0  0  0  0  0  0  0
   56.5583   32.8577   46.7054 H   0  0  0  0  0  0  0  0  0  0  0  0
   57.1856   34.3569   47.4199 H   0  0  0  0  0  0  0  0  0  0  0  0
   56.8509   33.6363   44.5707 H   0  0  0  0  0  0  0  0  0  0  0  0
   57.1931   35.2354   45.2699 H   0  0  0  0  0  0  0  0  0  0  0  0
   59.0567   33.2827   44.0508 H   0  0  0  0  0  0  0  0  0  0  0  0
   59.3533   34.9868   44.4390 H   0  0  0  0  0  0  0  0  0  0  0  0
   60.5561   32.9380   45.8066 H   0  0  0  0  0  0  0  0  0  0  0  0
   60.1715   34.4659   46.6077 H   0  0  0  0  0  0  0  0  0  0  0  0
  1  2  1  0
  2  3  2  0
  2  4  2  0
  2  5  1  0
  5  6  1  0
  6  7  2  0
  7  8  1  0
  8  9  2  0
  9 10  1  0
 10 11  1  0
 10 12  2  0
 12 13  1  0
 13 14  2  0
 13 15  1  0
 15 16  1  0
 16 17  1  0
 17 18  1  0
 18 19  1  0
 19 20  1  0
 12  6  1  0
 20 16  1  0
  1 21  1  0
  1 22  1  0
  1 23  1  0
  7 24  1  0
  8 25  1  0
  9 26  1  0
 15 27  1  0
 16 28  1  0
 17 29  1  0
 17 30  1  0
 18 31  1  0
 18 32  1  0
 19 33  1  0
 19 34  1  0
 20 35  1  0
 20 36  1  0
M  CHG  1   5  -1
M  END
>  <UniqueID>  (12) 
11

>  <SMILES>  (12) 
CS(=O)(=O)[N-]c1cccc(F)c1C(=O)NC1CCCC1

>  <Energy>  (12) 
42.35887203622954

>  <Genealogy>  (12) 
CS(=O)(=O)[N-]c1cccc(F)c1C(=O)NC1CCCC1 (protonated)
CS(=O)(=O)[N-]c1cccc(F)c1C(=O)NC1CCCC1 (3D coordinates assigned)
CS(=O)(=O)[N-]c1cccc(F)c1C(=O)NC1CCCC1 (nonaromatic ring conformer: 42.35887203622954 kcal/mol)

>  <smiles>  (12) 
CS(=O)(=O)Nc1cccc(F)c1C(=O)NC1CCCC1

>  <score_type>  (12) 
oracle

>  <origin>  (12) 
adg

>  <m_score__min__energy>  (12) 
-8.3100000000000005

>  <m_primary>  (12) 
energy

$$$$
12:0
     RDKit          3D

 49 51  0  0  0  0  0  0  0  0999 V2000
   56.8130   28.5420   45.2590 C   0  0  0  0  0  0  0  0  0  0  0  0
   55.5180   28.9610   44.8810 O   0  0  0  0  0  0  0  0  0  0  0  0
   55.5760   29.7010   43.6780 C   0  0  0  0  0  0  0  0  0  0  0  0
   56.5240   30.8490   43.8180 C   0  0  0  0  0  0  0  0  0  0  0  0
   57.3560   31.2660   42.8420 N   0  0  0  0  0  0  0  0  0  0  0  0
   58.0310   32.2740   43.3660 N   0  0  0  0  0  0  0  0  0  0  0  0
   57.6000   32.4390   44.6300 C   0  0  0  0  0  0  0  0  0  0  0  0
   58.1080   33.4760   45.5960 C   0  0  0  0  0  0  0  0  0  0  0  0
   57.8600   33.0330   47.0510 C   0  0  0  0  0  0  0  0  0  0  0  0
   58.7870   33.8030   47.9980 C   0  0  0  0  0  0  0  0  0  0  0  0
   60.2140   33.4810   47.7520 N   0  0  0  0  0  0  0  0  0  0  0  0
   61.0890   34.5390   48.2960 C   0  0  0  0  0  0  0  0  0  0  0  0
   62.2800   33.9340   49.0080 C   0  0  0  0  0  0  0  0  0  0  0  0
   62.2420   33.8060   50.4080 C   0  0  0  0  0  0  0  0  0  0  0  0
   63.3260   33.2610   51.1090 C   0  0  0  0  0  0  0  0  0  0  0  0
   63.2880   33.1710   52.6060 C   0  0  0  0  0  0  0  0  0  0  0  0
   64.4740   32.8700   50.4090 C   0  0  0  0  0  0  0  0  0  0  0  0
   64.5260   32.9890   49.0200 C   0  0  0  0  0  0  0  0  0  0  0  0
   63.4350   33.5100   48.3030 C   0  0  0  0  0  0  0  0  0  0  0  0
   63.5390   33.6360   46.8040 C   0  0  0  0  0  0  0  0  0  0  0  0
   60.5370   33.1490   46.3380 C   0  0  0  0  0  0  0  0  0  0  0  0
   59.5940   33.8270   45.3310 C   0  0  0  0  0  0  0  0  0  0  0  0
   56.6710   31.5580   44.9150 O   0  0  0  0  0  0  0  0  0  0  0  0
   56.8851   28.5187   46.3564 H   0  0  0  0  0  0  0  0  0  0  0  0
   57.0047   27.5360   44.8575 H   0  0  0  0  0  0  0  0  0  0  0  0
   57.5576   29.2451   44.8575 H   0  0  0  0  0  0  0  0  0  0  0  0
   55.9191   29.0446   42.8647 H   0  0  0  0  0  0  0  0  0  0  0  0
   54.5732   30.0917   43.4504 H   0  0  0  0  0  0  0  0  0  0  0  0
   58.7660   32.8200   42.8660 H   0  0  0  0  0  0  0  0  0  0  0  0
   57.5386   34.4030   45.4334 H   0  0  0  0  0  0  0  0  0  0  0  0
   56.8131   33.2366   47.3205 H   0  0  0  0  0  0  0  0  0  0  0  0
   58.0654   31.9561   47.1408 H   0  0  0  0  0  0  0  0  0  0  0  0
   58.6340   34.8818   47.8473 H   0  0  0  0  0  0  0  0  0  0  0  0
   58.5426   33.5102   49.0298 H   0  0  0  0  0  0  0  0  0  0  0  0
   61.4453   35.1729   47.4706 H   0  0  0  0  0  0  0  0  0  0  0  0
   60.5133   35.1388   49.0163 H   0  0  0  0  0  0  0  0  0  0  0  0
   61.3501   34.1379   50.9597 H   0  0  0  0  0  0  0  0  0  0  0  0
   63.6813   34.1024   53.0394 H   0  0  0  0  0  0  0  0  0  0  0  0
   62.2500   33.0217   52.9381 H   0  0  0  0  0  0  0  0  0  0  0  0
   63.9048   32.3229   52.9381 H   0  0  0  0  0  0  0  0  0  0  0  0
   65.3387   32.4672   50.9568 H   0  0  0  0  0  0  0  0  0  0  0  0
   65.4304   32.6717   48.4801 H   0  0  0  0  0  0  0  0  0  0  0  0
   64.2206   34.4618   46.5519 H   0  0  0  0  0  0  0  0  0  0  0  0
   63.9288   32.6974   46.3833 H   0  0  0  0  0  0  0  0  0  0  0  0
   62.5435   33.8408   46.3833 H   0  0  0  0  0  0  0  0  0  0  0  0
   61.5666   33.4744   46.1280 H   0  0  0  0  0  0  0  0  0  0  0  0
   60.4176   32.0619   46.2199 H   0  0  0  0  0  0  0  0  0  0  0  0
   59.7197   34.9172   45.4059 H   0  0  0  0  0  0  0  0  0  0  0  0
   59.8538   33.4633   44.3259 H   0  0  0  0  0  0  0  0  0  0  0  0
  1  2  1  0
  2  3  1  0
  3  4  1  0
  4  5  2  0
  5  6  1  0
  6  7  2  0
  7  8  1  0
  8  9  1  0
  9 10  1  0
 10 11  1  0
 11 12  1  0
 12 13  1  0
 13 14  2  0
 14 15  1  0
 15 16  1  0
 15 17  2  0
 17 18  1  0
 18 19  2  0
 19 20  1  0
 11 21  1  0
 21 22  1  0
  7 23  1  0
 23  4  1  0
 22  8  1  0
 19 13  1  0
  1 24  1  0
  1 25  1  0
  1 26  1  0
  3 27  1  0
  3 28  1  0
  6 29  1  0
  8 30  1  0
  9 31  1  0
  9 32  1  0
 10 33  1  0
 10 34  1  0
 12 35  1  0
 12 36  1  0
 14 37  1  0
 16 38  1  0
 16 39  1  0
 16 40  1  0
 17 41  1  0
 18 42  1  0
 20 43  1  0
 20 44  1  0
 20 45  1  0
 21 46  1  0
 21 47  1  0
 22 48  1  0
 22 49  1  0
M  CHG  1   6   1
M  END
>  <UniqueID>  (13) 
12

>  <SMILES>  (13) 
COCc1n[nH+]c(C2CCN(Cc3cc(C)ccc3C)CC2)o1

>  <Energy>  (13) 
92.9635560254933

>  <Genealogy>  (13) 
COCc1n[nH+]c(C2CCN(Cc3cc(C)ccc3C)CC2)o1 (protonated)
COCc1n[nH+]c(C2CCN(Cc3cc(C)ccc3C)CC2)o1 (3D coordinates assigned)
COCc1n[nH+]c(C2CCN(Cc3cc(C)ccc3C)CC2)o1 (nonaromatic ring conformer: 92.9635560254933 kcal/mol)

>  <smiles>  (13) 
COCc1nnc(C2CCN(Cc3cc(C)ccc3C)CC2)o1

>  <score_type>  (13) 
oracle

>  <origin>  (13) 
adg

>  <m_score__min__energy>  (13) 
-6.9900000000000002

>  <m_primary>  (13) 
energy

$$$$
13:0
     RDKit          3D

 36 38  0  0  0  0  0  0  0  0999 V2000
   57.4260   31.6620   42.2390 C   0  0  0  0  0  0  0  0  0  0  0  0
   57.7290   32.0750   43.6500 C   0  0  0  0  0  0  0  0  0  0  0  0
   58.3310   33.2790   43.8530 N   0  0  0  0  0  0  0  0  0  0  0  0
   58.6720   33.7050   45.0970 C   0  0  0  0  0  0  0  0  0  0  0  0
   59.2920   34.9450   45.2810 C   0  0  0  0  0  0  0  0  0  0  0  0
   59.6470   35.3610   46.5700 C   0  0  0  0  0  0  0  0  0  0  0  0
   59.3850   34.5380   47.6720 C   0  0  0  0  0  0  0  0  0  0  0  0
   58.7650   33.2960   47.4900 C   0  0  0  0  0  0  0  0  0  0  0  0
   58.4080   32.8780   46.2040 C   0  0  0  0  0  0  0  0  0  0  0  0
   57.7970   31.6820   46.0080 N   0  0  0  0  0  0  0  0  0  0  0  0
   57.4280   31.2610   44.7680 C   0  0  0  0  0  0  0  0  0  0  0  0
   56.7390   29.9600   44.6500 C   0  0  0  0  0  0  0  0  0  0  0  0
   55.4860   29.9300   44.7810 O   0  0  0  0  0  0  0  0  0  0  0  0
   57.4580   28.7460   44.3480 N   0  0  0  0  0  0  0  0  0  0  0  0
   57.3940   28.1980   42.9880 C   0  0  0  0  0  0  0  0  0  0  0  0
   58.1990   28.0450   45.3730 C   0  0  0  0  0  0  0  0  0  0  0  0
   59.5870   28.2410   45.5100 C   0  0  0  0  0  0  0  0  0  0  0  0
   60.3040   27.5670   46.5040 C   0  0  0  0  0  0  0  0  0  0  0  0
   59.6470   26.6840   47.3640 C   0  0  0  0  0  0  0  0  0  0  0  0
   58.2740   26.4700   47.2310 C   0  0  0  0  0  0  0  0  0  0  0  0
   57.5520   27.1420   46.2390 C   0  0  0  0  0  0  0  0  0  0  0  0
   56.7753   30.7751   42.2482 H   0  0  0  0  0  0  0  0  0  0  0  0
   56.9162   32.4854   41.7174 H   0  0  0  0  0  0  0  0  0  0  0  0
   58.3645   31.4228   41.7174 H   0  0  0  0  0  0  0  0  0  0  0  0
   59.5001   35.5915   44.4157 H   0  0  0  0  0  0  0  0  0  0  0  0
   60.1329   36.3368   46.7172 H   0  0  0  0  0  0  0  0  0  0  0  0
   59.6669   34.8679   48.6828 H   0  0  0  0  0  0  0  0  0  0  0  0
   58.5591   32.6504   48.3565 H   0  0  0  0  0  0  0  0  0  0  0  0
   57.2665   27.1066   43.0381 H   0  0  0  0  0  0  0  0  0  0  0  0
   56.5417   28.6425   42.4533 H   0  0  0  0  0  0  0  0  0  0  0  0
   58.3258   28.4342   42.4533 H   0  0  0  0  0  0  0  0  0  0  0  0
   60.1110   28.9291   44.8303 H   0  0  0  0  0  0  0  0  0  0  0  0
   61.3864   27.7325   46.6086 H   0  0  0  0  0  0  0  0  0  0  0  0
   60.2120   26.1568   48.1468 H   0  0  0  0  0  0  0  0  0  0  0  0
   57.7590   25.7719   47.9073 H   0  0  0  0  0  0  0  0  0  0  0  0
   56.4715   26.9640   46.1345 H   0  0  0  0  0  0  0  0  0  0  0  0
  1  2  1  0
  2  3  2  0
  3  4  1  0
  4  5  2  0
  5  6  1  0
  6  7  2  0
  7  8  1  0
  8  9  2  0
  9 10  1  0
 10 11  2  0
 11 12  1  0
 12 13  2  0
 12 14  1  0
 14 15  1  0
 14 16  1  0
 16 17  2  0
 17 18  1  0
 18 19  2  0
 19 20  1  0
 20 21  2  0
 11  2  1  0
 21 16  1  0
  9  4  1  0
  1 22  1  0
  1 23  1  0
  1 24  1  0
  5 25  1  0
  6 26  1  0
  7 27  1  0
  8 28  1  0
 15 29  1  0
 15 30  1  0
 15 31  1  0
 17 32  1  0
 18 33  1  0
 19 34  1  0
 20 35  1  0
 21 36  1  0
M  END
>  <UniqueID>  (14) 
13

>  <SMILES>  (14) 
Cc1nc2ccccc2nc1C(=O)N(C)c1ccccc1

>  <Energy>  (14) 
52.10309774090376

>  <Genealogy>  (14) 
Cc1nc2ccccc2nc1C(=O)N(C)c1ccccc1 (3D coordinates assigned)
Cc1nc2ccccc2nc1C(=O)N(C)c1ccccc1 (optimized conformer: 52.10309774090376 kcal/mol)

>  <smiles>  (14) 
Cc1nc2ccccc2nc1C(=O)N(C)c1ccccc1

>  <score_type>  (14) 
oracle

>  <origin>  (14) 
adg

>  <m_score__min__energy>  (14) 
-8.0600000000000005

>  <m_primary>  (14) 
energy

$$$$
14:0
     RDKit          3D

 51 54  0  0  0  0  0  0  0  0999 V2000
   63.7210   33.4360   46.6920 C   0  0  0  0  0  0  0  0  0  0  0  0
   63.1690   32.8510   47.9260 N   0  0  0  0  0  0  0  0  0  0  0  0
   62.6210   33.8820   48.8390 C   0  0  0  0  0  0  0  0  0  0  0  0
   61.0950   34.0640   48.7110 C   0  0  0  0  0  0  0  0  0  0  0  0
   60.6630   33.7550   47.3390 N   0  0  0  0  0  0  0  0  0  0  0  0
   59.2510   34.1470   47.1350 C   0  0  0  0  0  0  0  0  0  0  0  0
   59.0230   34.7770   45.7500 C   0  0  0  0  0  0  0  0  0  0  0  0
   57.7870   34.2230   45.0250 C   0  0  0  0  0  0  0  0  0  0  0  0
   57.9830   32.8290   44.6350 N   0  0  0  0  0  0  0  0  0  0  0  0
   58.0860   31.7710   45.4580 C   0  0  0  0  0  0  0  0  0  0  0  0
   58.1900   30.6520   44.6480 C   0  0  0  0  0  0  0  0  0  0  0  0
   58.3180   29.2370   45.0780 C   0  0  0  0  0  0  0  0  0  0  0  0
   59.5870   28.6510   45.2380 C   0  0  0  0  0  0  0  0  0  0  0  0
   59.7110   27.3190   45.6410 C   0  0  0  0  0  0  0  0  0  0  0  0
   58.5700   26.5460   45.8920 C   0  0  0  0  0  0  0  0  0  0  0  0
   58.6860   25.2080   46.2990 C   0  0  0  0  0  0  0  0  0  0  0  0
   57.5390   24.4480   46.5470 C   0  0  0  0  0  0  0  0  0  0  0  0
   56.2720   25.0180   46.3920 C   0  0  0  0  0  0  0  0  0  0  0  0
   56.1430   26.3490   45.9880 C   0  0  0  0  0  0  0  0  0  0  0  0
   57.2880   27.1230   45.7350 C   0  0  0  0  0  0  0  0  0  0  0  0
   57.1710   28.4610   45.3290 C   0  0  0  0  0  0  0  0  0  0  0  0
   58.1420   31.0840   43.3680 N   0  0  0  0  0  0  0  0  0  0  0  0
   58.0130   32.4010   43.3830 N   0  0  0  0  0  0  0  0  0  0  0  0
   60.8800   32.3220   47.0320 C   0  0  0  0  0  0  0  0  0  0  0  0
   62.1930   31.7810   47.6430 C   0  0  0  0  0  0  0  0  0  0  0  0
   64.4547   34.2135   46.9511 H   0  0  0  0  0  0  0  0  0  0  0  0
   64.2135   32.6493   46.1017 H   0  0  0  0  0  0  0  0  0  0  0  0
   62.9070   33.8821   46.1017 H   0  0  0  0  0  0  0  0  0  0  0  0
   62.8518   33.5895   49.8740 H   0  0  0  0  0  0  0  0  0  0  0  0
   63.0867   34.8399   48.5643 H   0  0  0  0  0  0  0  0  0  0  0  0
   60.5875   33.3867   49.4136 H   0  0  0  0  0  0  0  0  0  0  0  0
   60.8358   35.1073   48.9440 H   0  0  0  0  0  0  0  0  0  0  0  0
   58.6171   33.2527   47.2273 H   0  0  0  0  0  0  0  0  0  0  0  0
   58.9929   34.8975   47.8967 H   0  0  0  0  0  0  0  0  0  0  0  0
   58.8958   35.8622   45.8770 H   0  0  0  0  0  0  0  0  0  0  0  0
   59.8996   34.5312   45.1326 H   0  0  0  0  0  0  0  0  0  0  0  0
   56.9180   34.2889   45.6962 H   0  0  0  0  0  0  0  0  0  0  0  0
   57.6210   34.8188   44.1153 H   0  0  0  0  0  0  0  0  0  0  0  0
   58.0874   31.7901   46.5578 H   0  0  0  0  0  0  0  0  0  0  0  0
   60.4906   29.2475   45.0439 H   0  0  0  0  0  0  0  0  0  0  0  0
   60.7101   26.8748   45.7619 H   0  0  0  0  0  0  0  0  0  0  0  0
   59.6813   24.7563   46.4231 H   0  0  0  0  0  0  0  0  0  0  0  0
   57.6338   23.3992   46.8648 H   0  0  0  0  0  0  0  0  0  0  0  0
   55.3728   24.4159   46.5890 H   0  0  0  0  0  0  0  0  0  0  0  0
   55.1433   26.7919   45.8677 H   0  0  0  0  0  0  0  0  0  0  0  0
   56.1734   28.9077   45.2057 H   0  0  0  0  0  0  0  0  0  0  0  0
   58.2040   30.5140   42.4970 H   0  0  0  0  0  0  0  0  0  0  0  0
   60.0370   31.7424   47.4364 H   0  0  0  0  0  0  0  0  0  0  0  0
   60.9515   32.2201   45.9391 H   0  0  0  0  0  0  0  0  0  0  0  0
   61.9565   31.2618   48.5835 H   0  0  0  0  0  0  0  0  0  0  0  0
   62.6476   31.1006   46.9079 H   0  0  0  0  0  0  0  0  0  0  0  0
  1  2  1  0
  2  3  1  0
  3  4  1  0
  4  5  1  0
  5  6  1  0
  6  7  1  0
  7  8  1  0
  8  9  1  0
  9 10  1  0
 10 11  2  0
 11 12  1  0
 12 13  2  0
 13 14  1  0
 14 15  2  0
 15 16  1  0
 16 17  2  0
 17 18  1  0
 18 19  2  0
 19 20  1  0
 20 21  2  0
 11 22  1  0
 22 23  2  0
  5 24  1  0
 24 25  1  0
 25  2  1  0
 23  9  1  0
 21 12  1  0
 20 15  1  0
  1 26  1  0
  1 27  1  0
  1 28  1  0
  3 29  1  0
  3 30  1  0
  4 31  1  0
  4 32  1  0
  6 33  1  0
  6 34  1  0
  7 35  1  0
  7 36  1  0
  8 37  1  0
  8 38  1  0
 10 39  1  0
 13 40  1  0
 14 41  1  0
 16 42  1  0
 17 43  1  0
 18 44  1  0
 19 45  1  0
 21 46  1  0
 22 47  1  0
 24 48  1  0
 24 49  1  0
 25 50  1  0
 25 51  1  0
M  CHG  1  22   1
M  END
>  <UniqueID>  (15) 
14

>  <SMILES>  (15) 
CN1CCN(CCCn2cc(-c3ccc4ccccc4c3)[nH+]n2)CC1

>  <Energy>  (15) 
100.52753678744178

>  <Genealogy>  (15) 
CN1CCN(CCCn2cc(-c3ccc4ccccc4c3)[nH+]n2)CC1 (protonated)
CN1CCN(CCCn2cc(-c3ccc4ccccc4c3)[nH+]n2)CC1 (3D coordinates assigned)
CN1CCN(CCCn2cc(-c3ccc4ccccc4c3)[nH+]n2)CC1 (nonaromatic ring conformer: 100.52753678744178 kcal/mol)

>  <smiles>  (15) 
CN1CCN(CCCn2cc(-c3ccc4ccccc4c3)nn2)CC1

>  <score_type>  (15) 
oracle

>  <origin>  (15) 
adg

>  <m_score__min__energy>  (15) 
-7.21

>  <m_primary>  (15) 
energy

$$$$
15:0
     RDKit          3D

 58 60  0  0  0  0  0  0  0  0999 V2000
   59.8230   30.1460   46.5500 C   0  0  0  0  0  0  0  0  0  0  0  0
   58.3190   30.1420   46.8080 C   0  0  0  0  0  0  0  0  0  0  0  0
   57.5940   30.6420   45.6180 N   0  0  0  0  0  0  0  0  0  0  0  0
   56.8890   29.5430   44.9180 C   0  0  0  0  0  0  0  0  0  0  0  0
   55.6910   30.0890   44.1490 C   0  0  0  0  0  0  0  0  0  0  0  0
   58.5040   31.3640   44.6990 C   0  0  0  0  0  0  0  0  0  0  0  0
   58.0020   32.8030   44.4840 C   0  0  0  0  0  0  0  0  0  0  0  0
   57.6680   33.4810   45.7490 N   0  0  0  0  0  0  0  0  0  0  0  0
   58.7770   34.3080   46.2520 C   0  0  0  0  0  0  0  0  0  0  0  0
   59.5110   33.5910   47.3700 C   0  0  0  0  0  0  0  0  0  0  0  0
   58.7530   33.0960   48.4450 C   0  0  0  0  0  0  0  0  0  0  0  0
   59.3580   32.4350   49.5240 C   0  0  0  0  0  0  0  0  0  0  0  0
   58.5350   31.9160   50.6450 C   0  0  0  0  0  0  0  0  0  0  0  0
   58.2100   30.5500   50.7220 C   0  0  0  0  0  0  0  0  0  0  0  0
   57.4380   30.0600   51.7790 C   0  0  0  0  0  0  0  0  0  0  0  0
   56.9730   30.9320   52.7800 C   0  0  0  0  0  0  0  0  0  0  0  0
   56.1970   30.4900   53.8620 O   0  0  0  0  0  0  0  0  0  0  0  0
   56.5370   29.3920   54.7000 C   0  0  0  0  0  0  0  0  0  0  0  0
   57.2930   32.2920   52.7040 C   0  0  0  0  0  0  0  0  0  0  0  0
   58.0660   32.7820   51.6480 C   0  0  0  0  0  0  0  0  0  0  0  0
   60.7490   32.2730   49.5310 C   0  0  0  0  0  0  0  0  0  0  0  0
   61.5350   32.7750   48.4850 C   0  0  0  0  0  0  0  0  0  0  0  0
   62.9290   32.6120   48.5220 C   0  0  0  0  0  0  0  0  0  0  0  0
   63.7250   33.1200   47.4960 C   0  0  0  0  0  0  0  0  0  0  0  0
   63.1410   33.7970   46.4280 C   0  0  0  0  0  0  0  0  0  0  0  0
   61.7550   33.9660   46.3720 C   0  0  0  0  0  0  0  0  0  0  0  0
   60.9250   33.4510   47.3950 C   0  0  0  0  0  0  0  0  0  0  0  0
   60.3597   30.1474   47.5102 H   0  0  0  0  0  0  0  0  0  0  0  0
   60.0991   29.2486   45.9769 H   0  0  0  0  0  0  0  0  0  0  0  0
   60.0943   31.0449   45.9769 H   0  0  0  0  0  0  0  0  0  0  0  0
   57.9910   29.1154   47.0283 H   0  0  0  0  0  0  0  0  0  0  0  0
   58.1001   30.7983   47.6632 H   0  0  0  0  0  0  0  0  0  0  0  0
   57.5814   29.0576   44.2144 H   0  0  0  0  0  0  0  0  0  0  0  0
   56.5351   28.8137   45.6615 H   0  0  0  0  0  0  0  0  0  0  0  0
   54.9269   30.4372   44.8596 H   0  0  0  0  0  0  0  0  0  0  0  0
   56.0134   30.9291   43.5163 H   0  0  0  0  0  0  0  0  0  0  0  0
   55.2684   29.2946   43.5163 H   0  0  0  0  0  0  0  0  0  0  0  0
   59.5140   31.3917   45.1338 H   0  0  0  0  0  0  0  0  0  0  0  0
   58.5286   30.8418   43.7312 H   0  0  0  0  0  0  0  0  0  0  0  0
   58.7883   33.3779   43.9730 H   0  0  0  0  0  0  0  0  0  0  0  0
   57.0830   32.7491   43.8819 H   0  0  0  0  0  0  0  0  0  0  0  0
   56.8360   34.0910   45.5700 H   0  0  0  0  0  0  0  0  0  0  0  0
   57.3970   32.7750   46.4720 H   0  0  0  0  0  0  0  0  0  0  0  0
   59.4791   34.5106   45.4298 H   0  0  0  0  0  0  0  0  0  0  0  0
   58.3680   35.2513   46.6430 H   0  0  0  0  0  0  0  0  0  0  0  0
   57.6612   33.2299   48.4400 H   0  0  0  0  0  0  0  0  0  0  0  0
   58.5668   29.8605   49.9428 H   0  0  0  0  0  0  0  0  0  0  0  0
   57.1932   28.9887   51.8283 H   0  0  0  0  0  0  0  0  0  0  0  0
   56.4439   29.6926   55.7540 H   0  0  0  0  0  0  0  0  0  0  0  0
   55.8570   28.5515   54.4970 H   0  0  0  0  0  0  0  0  0  0  0  0
   57.5730   29.0828   54.4970 H   0  0  0  0  0  0  0  0  0  0  0  0
   56.9331   32.9813   53.4820 H   0  0  0  0  0  0  0  0  0  0  0  0
   58.3094   33.8537   51.6013 H   0  0  0  0  0  0  0  0  0  0  0  0
   61.2304   31.7454   50.3676 H   0  0  0  0  0  0  0  0  0  0  0  0
   63.3956   32.0808   49.3647 H   0  0  0  0  0  0  0  0  0  0  0  0
   64.8163   32.9858   47.5301 H   0  0  0  0  0  0  0  0  0  0  0  0
   63.7742   34.2008   45.6243 H   0  0  0  0  0  0  0  0  0  0  0  0
   61.3054   34.5044   45.5247 H   0  0  0  0  0  0  0  0  0  0  0  0
  1  2  1  0
  2  3  1  0
  3  4  1  0
  4  5  1  0
  3  6  1  0
  6  7  1  0
  7  8  1  0
  8  9  1  0
  9 10  1  0
 10 11  2  0
 11 12  1  0
 12 13  1  0
 13 14  2  0
 14 15  1  0
 15 16  2  0
 16 17  1  0
 17 18  1  0
 16 19  1  0
 19 20  2  0
 12 21  2  0
 21 22  1  0
 22 23  2  0
 23 24  1  0
 24 25  2  0
 25 26  1  0
 26 27  2  0
 27 10  1  0
 20 13  1  0
 27 22  1  0
  1 28  1  0
  1 29  1  0
  1 30  1  0
  2 31  1  0
  2 32  1  0
  4 33  1  0
  4 34  1  0
  5 35  1  0
  5 36  1  0
  5 37  1  0
  6 38  1  0
  6 39  1  0
  7 40  1  0
  7 41  1  0
  8 42  1  0
  8 43  1  0
  9 44  1  0
  9 45  1  0
 11 46  1  0
 14 47  1  0
 15 48  1  0
 18 49  1  0
 18 50  1  0
 18 51  1  0
 19 52  1  0
 20 53  1  0
 21 54  1  0
 23 55  1  0
 24 56  1  0
 25 57  1  0
 26 58  1  0
M  CHG  1   8   1
M  END
>  <UniqueID>  (16) 
15

>  <SMILES>  (16) 
CCN(CC)CC[NH2+]Cc1cc(-c2ccc(OC)cc2)cc2ccccc12

>  <Energy>  (16) 
67.57817006192766

>  <Genealogy>  (16) 
CCN(CC)CC[NH2+]Cc1cc(-c2ccc(OC)cc2)cc2ccccc12 (protonated)
CCN(CC)CC[NH2+]Cc1cc(-c2ccc(OC)cc2)cc2ccccc12 (3D coordinates assigned)
CCN(CC)CC[NH2+]Cc1cc(-c2ccc(OC)cc2)cc2ccccc12 (optimized conformer: 67.57817006192766 kcal/mol)

>  <smiles>  (16) 
CCN(CC)CCNCc1cc(-c2ccc(OC)cc2)cc2ccccc12

>  <score_type>  (16) 
oracle

>  <origin>  (16) 
adg

>  <m_score__min__energy>  (16) 
-5.8200000000000003

>  <m_primary>  (16) 
energy

$$$$
16:0
     RDKit          3D

 35 36  0  0  0  0  0  0  0  0999 V2000
   63.2040   33.8210   46.7110 C   0  0  0  0  0  0  0  0  0  0  0  0
   62.0560   33.0800   47.3840 C   0  0  0  0  0  0  0  0  0  0  0  0
   60.8080   33.7180   47.1070 O   0  0  0  0  0  0  0  0  0  0  0  0
   59.7220   33.1300   46.4380 C   0  0  0  0  0  0  0  0  0  0  0  0
   59.1120   33.7150   45.3110 C   0  0  0  0  0  0  0  0  0  0  0  0
   58.0290   33.0840   44.6890 C   0  0  0  0  0  0  0  0  0  0  0  0
   57.5240   31.8820   45.1940 C   0  0  0  0  0  0  0  0  0  0  0  0
   56.4390   31.2400   44.5130 N   0  0  0  0  0  0  0  0  0  0  0  0
   56.2230   29.8260   44.4140 C   0  0  0  0  0  0  0  0  0  0  0  0
   55.1470   29.3490   44.8640 O   0  0  0  0  0  0  0  0  0  0  0  0
   57.3150   28.8920   43.9590 C   0  0  0  0  0  0  0  0  0  0  0  0
   57.8520   28.1180   45.0870 N   0  0  0  0  0  0  0  0  0  0  0  0
   59.1450   28.1780   45.5390 C   0  0  0  0  0  0  0  0  0  0  0  0
   60.2100   29.0160   44.8930 C   0  0  0  0  0  0  0  0  0  0  0  0
   59.4120   27.3700   46.6460 C   0  0  0  0  0  0  0  0  0  0  0  0
   57.9900   26.5810   47.0810 S   0  0  0  0  0  0  0  0  0  0  0  0
   57.1010   27.2860   45.8480 C   0  0  0  0  0  0  0  0  0  0  0  0
   55.8760   27.0690   45.6520 O   0  0  0  0  0  0  0  0  0  0  0  0
   58.1470   31.2840   46.3000 C   0  0  0  0  0  0  0  0  0  0  0  0
   59.2300   31.9120   46.9220 C   0  0  0  0  0  0  0  0  0  0  0  0
   63.8654   34.2479   47.4793 H   0  0  0  0  0  0  0  0  0  0  0  0
   63.7749   33.1205   46.0838 H   0  0  0  0  0  0  0  0  0  0  0  0
   62.8008   34.6297   46.0838 H   0  0  0  0  0  0  0  0  0  0  0  0
   62.0240   32.0468   47.0079 H   0  0  0  0  0  0  0  0  0  0  0  0
   62.2215   33.0869   48.4714 H   0  0  0  0  0  0  0  0  0  0  0  0
   59.4884   34.6712   44.9186 H   0  0  0  0  0  0  0  0  0  0  0  0
   57.5719   33.5367   43.7967 H   0  0  0  0  0  0  0  0  0  0  0  0
   56.9057   28.1985   43.2097 H   0  0  0  0  0  0  0  0  0  0  0  0
   58.1299   29.4910   43.5264 H   0  0  0  0  0  0  0  0  0  0  0  0
   60.8208   29.4966   45.6714 H   0  0  0  0  0  0  0  0  0  0  0  0
   60.8502   28.3769   44.2671 H   0  0  0  0  0  0  0  0  0  0  0  0
   59.7394   29.7885   44.2671 H   0  0  0  0  0  0  0  0  0  0  0  0
   60.3853   27.2667   47.1481 H   0  0  0  0  0  0  0  0  0  0  0  0
   57.7820   30.3179   46.6788 H   0  0  0  0  0  0  0  0  0  0  0  0
   59.7000   31.4448   47.7999 H   0  0  0  0  0  0  0  0  0  0  0  0
  1  2  1  0
  2  3  1  0
  3  4  1  0
  4  5  2  0
  5  6  1  0
  6  7  2  0
  7  8  1  0
  8  9  1  0
  9 10  2  0
  9 11  1  0
 11 12  1  0
 12 13  1  0
 13 14  1  0
 13 15  2  0
 15 16  1  0
 16 17  1  0
 17 18  2  0
  7 19  1  0
 19 20  2  0
 20  4  1  0
 17 12  1  0
  1 21  1  0
  1 22  1  0
  1 23  1  0
  2 24  1  0
  2 25  1  0
  5 26  1  0
  6 27  1  0
 11 28  1  0
 11 29  1  0
 14 30  1  0
 14 31  1  0
 14 32  1  0
 15 33  1  0
 19 34  1  0
 20 35  1  0
M  CHG  1   8  -1
M  END
>  <UniqueID>  (17) 
16

>  <SMILES>  (17) 
CCOc1ccc([N-]C(=O)Cn2c(C)csc2=O)cc1

>  <Energy>  (17) 
68.8594819838331

>  <Genealogy>  (17) 
CCOc1ccc([N-]C(=O)Cn2c(C)csc2=O)cc1 (protonated)
CCOc1ccc([N-]C(=O)Cn2c(C)csc2=O)cc1 (3D coordinates assigned)
CCOc1ccc([N-]C(=O)Cn2c(C)csc2=O)cc1 (optimized conformer: 68.8594819838331 kcal/mol)

>  <smiles>  (17) 
CCOc1ccc(NC(=O)Cn2c(C)csc2=O)cc1

>  <score_type>  (17) 
oracle

>  <origin>  (17) 
adg

>  <m_score__min__energy>  (17) 
-8.6199999999999992

>  <m_primary>  (17) 
energy

$$$$
17:0
     RDKit          3D

 42 44  0  0  0  0  0  0  0  0999 V2000
   57.0620   26.6840   42.9910 H   0  0  0  0  0  0  0  0  0  0  0  0
   58.0100   26.8890   43.2790 O   0  0  0  0  0  0  0  0  0  0  0  0
   58.3740   28.0620   43.9450 C   0  0  0  0  0  0  0  0  0  0  0  0
   59.4900   28.0160   44.7860 C   0  0  0  0  0  0  0  0  0  0  0  0
   60.0554   27.0783   44.8909 H   0  0  0  0  0  0  0  0  0  0  0  0
   59.8920   29.1470   45.4920 C   0  0  0  0  0  0  0  0  0  0  0  0
   60.7911   29.1090   46.1246 H   0  0  0  0  0  0  0  0  0  0  0  0
   59.1570   30.3260   45.3980 C   0  0  0  0  0  0  0  0  0  0  0  0
   59.4806   31.2154   45.9585 H   0  0  0  0  0  0  0  0  0  0  0  0
   58.0070   30.3910   44.5950 C   0  0  0  0  0  0  0  0  0  0  0  0
   57.1890   31.6280   44.6580 C   0  0  0  0  0  0  0  0  0  0  0  0
   55.9520   31.5230   44.8670 O   0  0  0  0  0  0  0  0  0  0  0  0
   57.7600   32.9900   44.5040 C   0  0  0  0  0  0  0  0  0  0  0  0
   58.0281   33.3076   43.4856 H   0  0  0  0  0  0  0  0  0  0  0  0
   57.9790   33.8700   45.4960 C   0  0  0  0  0  0  0  0  0  0  0  0
   57.2124   34.6386   45.6738 H   0  0  0  0  0  0  0  0  0  0  0  0
   59.1720   33.8810   46.3640 C   0  0  0  0  0  0  0  0  0  0  0  0
   60.4620   33.8400   45.8170 C   0  0  0  0  0  0  0  0  0  0  0  0
   60.5952   33.8606   44.7253 H   0  0  0  0  0  0  0  0  0  0  0  0
   61.5800   33.7730   46.6540 C   0  0  0  0  0  0  0  0  0  0  0  0
   62.5877   33.7199   46.2162 H   0  0  0  0  0  0  0  0  0  0  0  0
   61.4250   33.7730   48.0510 C   0  0  0  0  0  0  0  0  0  0  0  0
   62.6060   33.6440   48.9380 C   0  0  0  0  0  0  0  0  0  0  0  0
   62.6080   34.2250   50.2200 C   0  0  0  0  0  0  0  0  0  0  0  0
   61.7280   34.7863   50.5672 H   0  0  0  0  0  0  0  0  0  0  0  0
   63.7220   34.0930   51.0550 C   0  0  0  0  0  0  0  0  0  0  0  0
   63.7165   34.5528   52.0543 H   0  0  0  0  0  0  0  0  0  0  0  0
   64.8410   33.3790   50.6230 C   0  0  0  0  0  0  0  0  0  0  0  0
   65.7158   33.2762   51.2819 H   0  0  0  0  0  0  0  0  0  0  0  0
   64.8500   32.7950   49.3540 C   0  0  0  0  0  0  0  0  0  0  0  0
   65.7324   32.2324   49.0150 H   0  0  0  0  0  0  0  0  0  0  0  0
   63.7400   32.9240   48.5140 C   0  0  0  0  0  0  0  0  0  0  0  0
   63.7522   32.4607   47.5164 H   0  0  0  0  0  0  0  0  0  0  0  0
   60.1320   33.8820   48.5930 C   0  0  0  0  0  0  0  0  0  0  0  0
   59.9982   33.9156   49.6843 H   0  0  0  0  0  0  0  0  0  0  0  0
   59.0150   33.9480   47.7540 C   0  0  0  0  0  0  0  0  0  0  0  0
   58.0095   34.0529   48.1875 H   0  0  0  0  0  0  0  0  0  0  0  0
   57.6480   29.2710   43.7960 C   0  0  0  0  0  0  0  0  0  0  0  0
   56.5240   29.3510   42.7920 C   0  0  0  0  0  0  0  0  0  0  0  0
   55.5628   29.4194   43.3224 H   0  0  0  0  0  0  0  0  0  0  0  0
   56.6588   30.2418   42.1609 H   0  0  0  0  0  0  0  0  0  0  0  0
   56.5312   28.4501   42.1609 H   0  0  0  0  0  0  0  0  0  0  0  0
  1  2  1  0
  2  3  1  0
  3  4  2  0
  4  5  1  0
  4  6  1  0
  6  7  1  0
  6  8  2  0
  8  9  1  0
  8 10  1  0
 10 11  1  0
 11 12  2  0
 11 13  1  0
 13 14  1  0
 13 15  2  0
 15 16  1  0
 15 17  1  0
 17 18  2  0
 18 19  1  0
 18 20  1  0
 20 21  1  0
 20 22  2  0
 22 23  1  0
 23 24  2  0
 24 25  1  0
 24 26  1  0
 26 27  1  0
 26 28  2  0
 28 29  1  0
 28 30  1  0
 30 31  1  0
 30 32  2  0
 32 33  1  0
 22 34  1  0
 34 35  1  0
 34 36  2  0
 36 37  1  0
 10 38  2  0
 38 39  1  0
 39 40  1  0
 39 41  1  0
 39 42  1  0
 38  3  1  0
 36 17  1  0
 32 23  1  0
M  END
>  <UniqueID>  (18) 
17

>  <SMILES>  (18) 
Cc1c(O)cccc1C(=O)/C=C\c1ccc(-c2ccccc2)cc1

>  <Energy>  (18) 
63.44406244937681

>  <Genealogy>  (18) 
Cc1c(O)cccc1C(=O)/C=C\c1ccc(-c2ccccc2)cc1 (cis-trans isomerization)
Cc1c(O)cccc1C(=O)/C=C\c1ccc(-c2ccccc2)cc1 (3D coordinates assigned)
Cc1c(O)cccc1C(=O)/C=C\c1ccc(-c2ccccc2)cc1 (optimized conformer: 63.44406244937681 kcal/mol)

>  <smiles>  (18) 
Cc1c(O)cccc1C(=O)C=Cc1ccc(-c2ccccc2)cc1

>  <score_type>  (18) 
oracle

>  <origin>  (18) 
adg

>  <m_score__min__energy>  (18) 
-9.6199999999999992

>  <m_primary>  (18) 
energy

$$$$
18:0
     RDKit          3D

 48 51  0  0  0  0  0  0  0  0999 V2000
   59.1570   35.3290   47.0920 C   0  0  0  0  0  0  0  0  0  0  0  0
   59.0170   33.9060   46.6670 C   0  0  0  0  0  0  0  0  0  0  0  0
   57.8870   33.3610   46.0500 C   0  0  0  0  0  0  0  0  0  0  0  0
   58.1710   32.0670   45.9160 N   0  0  0  0  0  0  0  0  0  0  0  0
   57.5130   31.0190   45.4470 N   0  0  0  0  0  0  0  0  0  0  0  0
   58.2770   29.8980   45.5970 C   0  0  0  0  0  0  0  0  0  0  0  0
   57.8370   28.5840   45.1880 N   0  0  0  0  0  0  0  0  0  0  0  0
   57.7520   28.2400   43.7650 C   0  0  0  0  0  0  0  0  0  0  0  0
   58.4620   26.9080   43.4870 C   0  0  0  0  0  0  0  0  0  0  0  0
   57.6220   25.7020   43.9440 C   0  0  0  0  0  0  0  0  0  0  0  0
   57.8460   25.3350   45.3620 N   0  0  0  0  0  0  0  0  0  0  0  0
   58.7670   24.1850   45.5100 C   0  0  0  0  0  0  0  0  0  0  0  0
   58.1140   22.8580   45.2060 C   0  0  0  0  0  0  0  0  0  0  0  0
   58.5830   21.8980   44.3240 C   0  0  0  0  0  0  0  0  0  0  0  0
   57.7170   20.8690   44.3030 N   0  0  0  0  0  0  0  0  0  0  0  0
   56.7180   21.1310   45.1290 N   0  0  0  0  0  0  0  0  0  0  0  0
   55.6020   20.2230   45.3800 C   0  0  0  0  0  0  0  0  0  0  0  0
   56.9310   22.3290   45.7150 C   0  0  0  0  0  0  0  0  0  0  0  0
   55.9980   22.9650   46.7060 C   0  0  0  0  0  0  0  0  0  0  0  0
   58.0980   26.4270   46.3380 C   0  0  0  0  0  0  0  0  0  0  0  0
   57.2140   27.6730   46.1550 C   0  0  0  0  0  0  0  0  0  0  0  0
   59.7980   30.2390   46.3480 S   0  0  0  0  0  0  0  0  0  0  0  0
   59.3610   31.8530   46.4200 C   0  0  0  0  0  0  0  0  0  0  0  0
   59.9590   32.9480   46.9210 N   0  0  0  0  0  0  0  0  0  0  0  0
   59.1625   35.3847   48.1906 H   0  0  0  0  0  0  0  0  0  0  0  0
   60.0997   35.7379   46.6994 H   0  0  0  0  0  0  0  0  0  0  0  0
   58.3121   35.9138   46.6994 H   0  0  0  0  0  0  0  0  0  0  0  0
   56.9690   33.8840   45.7438 H   0  0  0  0  0  0  0  0  0  0  0  0
   56.6940   28.1525   43.4770 H   0  0  0  0  0  0  0  0  0  0  0  0
   58.2421   29.0317   43.1793 H   0  0  0  0  0  0  0  0  0  0  0  0
   58.6473   26.8229   42.4061 H   0  0  0  0  0  0  0  0  0  0  0  0
   59.4049   26.9002   44.0535 H   0  0  0  0  0  0  0  0  0  0  0  0
   56.5580   25.9471   43.8107 H   0  0  0  0  0  0  0  0  0  0  0  0
   57.9289   24.8408   43.3323 H   0  0  0  0  0  0  0  0  0  0  0  0
   59.6136   24.3241   44.8216 H   0  0  0  0  0  0  0  0  0  0  0  0
   59.0899   24.1576   46.5612 H   0  0  0  0  0  0  0  0  0  0  0  0
   59.5110   21.9661   43.7373 H   0  0  0  0  0  0  0  0  0  0  0  0
   57.8110   20.0000   43.7310 H   0  0  0  0  0  0  0  0  0  0  0  0
   55.4601   20.1075   46.4647 H   0  0  0  0  0  0  0  0  0  0  0  0
   54.6858   20.6355   44.9322 H   0  0  0  0  0  0  0  0  0  0  0  0
   55.8195   19.2421   44.9322 H   0  0  0  0  0  0  0  0  0  0  0  0
   56.3356   22.7349   47.7273 H   0  0  0  0  0  0  0  0  0  0  0  0
   55.9935   24.0550   46.5581 H   0  0  0  0  0  0  0  0  0  0  0  0
   54.9818   22.5708   46.5581 H   0  0  0  0  0  0  0  0  0  0  0  0
   57.9239   26.0294   47.3488 H   0  0  0  0  0  0  0  0  0  0  0  0
   59.1347   26.7561   46.1735 H   0  0  0  0  0  0  0  0  0  0  0  0
   56.2242   27.3678   45.7846 H   0  0  0  0  0  0  0  0  0  0  0  0
   57.1046   28.1870   47.1213 H   0  0  0  0  0  0  0  0  0  0  0  0
  1  2  1  0
  2  3  2  0
  3  4  1  0
  4  5  1  0
  5  6  2  0
  6  7  1  0
  7  8  1  0
  8  9  1  0
  9 10  1  0
 10 11  1  0
 11 12  1  0
 12 13  1  0
 13 14  1  0
 14 15  2  0
 15 16  1  0
 16 17  1  0
 16 18  1  0
 18 19  1  0
 11 20  1  0
 20 21  1  0
  6 22  1  0
 22 23  1  0
 23 24  2  0
 24  2  1  0
 23  4  1  0
 21  7  1  0
 18 13  2  0
  1 25  1  0
  1 26  1  0
  1 27  1  0
  3 28  1  0
  8 29  1  0
  8 30  1  0
  9 31  1  0
  9 32  1  0
 10 33  1  0
 10 34  1  0
 12 35  1  0
 12 36  1  0
 14 37  1  0
 15 38  1  0
 17 39  1  0
 17 40  1  0
 17 41  1  0
 19 42  1  0
 19 43  1  0
 19 44  1  0
 20 45  1  0
 20 46  1  0
 21 47  1  0
 21 48  1  0
M  CHG  1  15   1
M  END
>  <UniqueID>  (19) 
18

>  <SMILES>  (19) 
Cc1cn2nc(N3CCCN(Cc4c[nH+]n(C)c4C)CC3)sc2n1

>  <Energy>  (19) 
173.08830446934272

>  <Genealogy>  (19) 
Cc1cn2nc(N3CCCN(Cc4c[nH+]n(C)c4C)CC3)sc2n1 (protonated)
Cc1cn2nc(N3CCCN(Cc4c[nH+]n(C)c4C)CC3)sc2n1 (3D coordinates assigned)
Cc1cn2nc(N3CCCN(Cc4c[nH+]n(C)c4C)CC3)sc2n1 (nonaromatic ring conformer: 173.08830446934272 kcal/mol)

>  <smiles>  (19) 
Cc1cn2nc(N3CCCN(Cc4cnn(C)c4C)CC3)sc2n1

>  <score_type>  (19) 
oracle

>  <origin>  (19) 
adg

>  <m_score__min__energy>  (19) 
-4.7999999999999998

>  <m_primary>  (19) 
energy

$$$$
19:0
     RDKit          3D

 45 47  0  0  0  0  0  0  0  0999 V2000
   52.1690   22.9710   46.0370 C   0  0  0  0  0  0  0  0  0  0  0  0
   53.2810   22.6110   45.2240 O   0  0  0  0  0  0  0  0  0  0  0  0
   54.4340   23.3950   45.0680 C   0  0  0  0  0  0  0  0  0  0  0  0
   54.7690   24.4330   45.9580 C   0  0  0  0  0  0  0  0  0  0  0  0
   55.9300   25.1850   45.7590 C   0  0  0  0  0  0  0  0  0  0  0  0
   56.7790   24.9070   44.6760 C   0  0  0  0  0  0  0  0  0  0  0  0
   58.0090   25.7430   44.4400 C   0  0  0  0  0  0  0  0  0  0  0  0
   57.7790   26.7000   43.3490 N   0  0  0  0  0  0  0  0  0  0  0  0
   57.9760   28.0480   43.8240 C   0  0  0  0  0  0  0  0  0  0  0  0
   56.9750   29.0180   43.6470 C   0  0  0  0  0  0  0  0  0  0  0  0
   57.1540   30.3150   44.1340 C   0  0  0  0  0  0  0  0  0  0  0  0
   58.3280   30.6580   44.8220 C   0  0  0  0  0  0  0  0  0  0  0  0
   58.5250   32.0340   45.3330 C   0  0  0  0  0  0  0  0  0  0  0  0
   58.4640   33.1050   44.4250 C   0  0  0  0  0  0  0  0  0  0  0  0
   58.6170   34.4200   44.8660 C   0  0  0  0  0  0  0  0  0  0  0  0
   58.8340   34.6830   46.2180 C   0  0  0  0  0  0  0  0  0  0  0  0
   58.9120   33.6310   47.1320 C   0  0  0  0  0  0  0  0  0  0  0  0
   58.7780   32.2980   46.7040 C   0  0  0  0  0  0  0  0  0  0  0  0
   58.8930   31.1920   47.7200 C   0  0  0  0  0  0  0  0  0  0  0  0
   59.3300   29.6920   44.9990 C   0  0  0  0  0  0  0  0  0  0  0  0
   59.1510   28.3940   44.5120 C   0  0  0  0  0  0  0  0  0  0  0  0
   56.4370   23.8830   43.7810 C   0  0  0  0  0  0  0  0  0  0  0  0
   55.2750   23.1310   43.9800 C   0  0  0  0  0  0  0  0  0  0  0  0
   52.4460   22.8813   47.0978 H   0  0  0  0  0  0  0  0  0  0  0  0
   51.8775   24.0094   45.8207 H   0  0  0  0  0  0  0  0  0  0  0  0
   51.3243   22.3004   45.8207 H   0  0  0  0  0  0  0  0  0  0  0  0
   54.1140   24.6531   46.8139 H   0  0  0  0  0  0  0  0  0  0  0  0
   56.1801   25.9994   46.4549 H   0  0  0  0  0  0  0  0  0  0  0  0
   58.2538   26.2945   45.3597 H   0  0  0  0  0  0  0  0  0  0  0  0
   58.8418   25.0802   44.1623 H   0  0  0  0  0  0  0  0  0  0  0  0
   56.8020   26.5940   42.9860 H   0  0  0  0  0  0  0  0  0  0  0  0
   58.4400   26.5030   42.5610 H   0  0  0  0  0  0  0  0  0  0  0  0
   56.0450   28.7546   43.1219 H   0  0  0  0  0  0  0  0  0  0  0  0
   56.3707   31.0713   43.9774 H   0  0  0  0  0  0  0  0  0  0  0  0
   58.2941   32.9048   43.3568 H   0  0  0  0  0  0  0  0  0  0  0  0
   58.5664   35.2502   44.1461 H   0  0  0  0  0  0  0  0  0  0  0  0
   58.9439   35.7211   46.5648 H   0  0  0  0  0  0  0  0  0  0  0  0
   59.0799   33.8466   48.1975 H   0  0  0  0  0  0  0  0  0  0  0  0
   58.8486   31.6186   48.7330 H   0  0  0  0  0  0  0  0  0  0  0  0
   58.0638   30.4820   47.5845 H   0  0  0  0  0  0  0  0  0  0  0  0
   59.8505   30.6677   47.5845 H   0  0  0  0  0  0  0  0  0  0  0  0
   60.2601   29.9571   45.5231 H   0  0  0  0  0  0  0  0  0  0  0  0
   59.9352   27.6386   44.6685 H   0  0  0  0  0  0  0  0  0  0  0  0
   57.0858   23.6704   42.9185 H   0  0  0  0  0  0  0  0  0  0  0  0
   55.0195   22.3254   43.2760 H   0  0  0  0  0  0  0  0  0  0  0  0
  1  2  1  0
  2  3  1  0
  3  4  2  0
  4  5  1  0
  5  6  2  0
  6  7  1  0
  7  8  1  0
  8  9  1  0
  9 10  2  0
 10 11  1  0
 11 12  2  0
 12 13  1  0
 13 14  2  0
 14 15  1  0
 15 16  2  0
 16 17  1  0
 17 18  2  0
 18 19  1  0
 12 20  1  0
 20 21  2  0
  6 22  1  0
 22 23  2  0
 23  3  1  0
 21  9  1  0
 18 13  1  0
  1 24  1  0
  1 25  1  0
  1 26  1  0
  4 27  1  0
  5 28  1  0
  7 29  1  0
  7 30  1  0
  8 31  1  0
  8 32  1  0
 10 33  1  0
 11 34  1  0
 14 35  1  0
 15 36  1  0
 16 37  1  0
 17 38  1  0
 19 39  1  0
 19 40  1  0
 19 41  1  0
 20 42  1  0
 21 43  1  0
 22 44  1  0
 23 45  1  0
M  CHG  1   8   1
M  END
>  <UniqueID>  (20) 
19

>  <SMILES>  (20) 
COc1ccc(C[NH2+]c2ccc(-c3ccccc3C)cc2)cc1

>  <Energy>  (20) 
53.888228296536276

>  <Genealogy>  (20) 
COc1ccc(C[NH2+]c2ccc(-c3ccccc3C)cc2)cc1 (protonated)
COc1ccc(C[NH2+]c2ccc(-c3ccccc3C)cc2)cc1 (3D coordinates assigned)
COc1ccc(C[NH2+]c2ccc(-c3ccccc3C)cc2)cc1 (optimized conformer: 53.888228296536276 kcal/mol)

>  <smiles>  (20) 
COc1ccc(CNc2ccc(-c3ccccc3C)cc2)cc1

>  <score_type>  (20) 
oracle

>  <origin>  (20) 
adg

>  <m_score__min__energy>  (20) 
-6.6799999999999997

>  <m_primary>  (20) 
energy

$$$$
20:0
     RDKit          3D

 40 41  0  0  0  0  0  0  0  0999 V2000
   65.8700   32.5720   50.5270 C   0  0  0  0  0  0  0  0  0  0  0  0
   65.2970   33.5050   49.6170 O   0  0  0  0  0  0  0  0  0  0  0  0
   64.0470   33.3470   49.0000 C   0  0  0  0  0  0  0  0  0  0  0  0
   62.8670   33.8660   49.5580 C   0  0  0  0  0  0  0  0  0  0  0  0
   61.6510   33.6770   48.9000 C   0  0  0  0  0  0  0  0  0  0  0  0
   61.6050   32.9740   47.6870 C   0  0  0  0  0  0  0  0  0  0  0  0
   60.3190   32.7670   46.9730 C   0  0  0  0  0  0  0  0  0  0  0  0
   59.5770   33.8640   46.5020 C   0  0  0  0  0  0  0  0  0  0  0  0
   58.3710   33.6630   45.8270 C   0  0  0  0  0  0  0  0  0  0  0  0
   57.8850   32.3700   45.6250 C   0  0  0  0  0  0  0  0  0  0  0  0
   58.6000   31.2620   46.1040 C   0  0  0  0  0  0  0  0  0  0  0  0
   58.0810   29.8940   45.8860 C   0  0  0  0  0  0  0  0  0  0  0  0
   57.7670   29.2030   46.8930 O   0  0  0  0  0  0  0  0  0  0  0  0
   57.9330   29.3310   44.5620 N   0  0  0  0  0  0  0  0  0  0  0  0
   58.8700   28.2850   44.1390 C   0  0  0  0  0  0  0  0  0  0  0  0
   57.0270   29.9390   43.5710 C   0  0  0  0  0  0  0  0  0  0  0  0
   55.6930   30.3640   44.2010 C   0  0  0  0  0  0  0  0  0  0  0  0
   55.3100   29.4540   45.1940 O   0  0  0  0  0  0  0  0  0  0  0  0
   59.8260   31.4670   46.7570 C   0  0  0  0  0  0  0  0  0  0  0  0
   62.8080   32.4720   47.1630 C   0  0  0  0  0  0  0  0  0  0  0  0
   63.9830   32.6660   47.8210 N   0  0  0  0  0  0  0  0  0  0  0  0
   65.6707   32.8966   51.5589 H   0  0  0  0  0  0  0  0  0  0  0  0
   65.4257   31.5792   50.3626 H   0  0  0  0  0  0  0  0  0  0  0  0
   66.9564   32.5193   50.3626 H   0  0  0  0  0  0  0  0  0  0  0  0
   62.9013   34.4185   50.5086 H   0  0  0  0  0  0  0  0  0  0  0  0
   60.7246   34.0810   49.3344 H   0  0  0  0  0  0  0  0  0  0  0  0
   59.9483   34.8864   46.6660 H   0  0  0  0  0  0  0  0  0  0  0  0
   57.8019   34.5269   45.4531 H   0  0  0  0  0  0  0  0  0  0  0  0
   56.9370   32.2192   45.0878 H   0  0  0  0  0  0  0  0  0  0  0  0
   59.3038   27.8007   45.0263 H   0  0  0  0  0  0  0  0  0  0  0  0
   58.3355   27.5356   43.5367 H   0  0  0  0  0  0  0  0  0  0  0  0
   59.6734   28.7342   43.5367 H   0  0  0  0  0  0  0  0  0  0  0  0
   57.5150   30.8253   43.1395 H   0  0  0  0  0  0  0  0  0  0  0  0
   56.8145   29.1873   42.7965 H   0  0  0  0  0  0  0  0  0  0  0  0
   55.8054   31.3626   44.6484 H   0  0  0  0  0  0  0  0  0  0  0  0
   54.9198   30.3849   43.4189 H   0  0  0  0  0  0  0  0  0  0  0  0
   55.8090   29.7130   46.0120 H   0  0  0  0  0  0  0  0  0  0  0  0
   60.4082   30.6006   47.1040 H   0  0  0  0  0  0  0  0  0  0  0  0
   62.7999   31.9176   46.2130 H   0  0  0  0  0  0  0  0  0  0  0  0
   64.8610   32.2770   47.4100 H   0  0  0  0  0  0  0  0  0  0  0  0
  1  2  1  0
  2  3  1  0
  3  4  2  0
  4  5  1  0
  5  6  2  0
  6  7  1  0
  7  8  2  0
  8  9  1  0
  9 10  2  0
 10 11  1  0
 11 12  1  0
 12 13  2  0
 12 14  1  0
 14 15  1  0
 14 16  1  0
 16 17  1  0
 17 18  1  0
 11 19  2  0
  6 20  1  0
 20 21  2  0
 21  3  1  0
 19  7  1  0
  1 22  1  0
  1 23  1  0
  1 24  1  0
  4 25  1  0
  5 26  1  0
  8 27  1  0
  9 28  1  0
 10 29  1  0
 15 30  1  0
 15 31  1  0
 15 32  1  0
 16 33  1  0
 16 34  1  0
 17 35  1  0
 17 36  1  0
 18 37  1  0
 19 38  1  0
 20 39  1  0
 21 40  1  0
M  CHG  1  21   1
M  END
>  <UniqueID>  (21) 
20

>  <SMILES>  (21) 
COc1ccc(-c2cccc(C(=O)N(C)CCO)c2)c[nH+]1

>  <Energy>  (21) 
47.2443747635124

>  <Genealogy>  (21) 
COc1ccc(-c2cccc(C(=O)N(C)CCO)c2)c[nH+]1 (protonated)
COc1ccc(-c2cccc(C(=O)N(C)CCO)c2)c[nH+]1 (3D coordinates assigned)
COc1ccc(-c2cccc(C(=O)N(C)CCO)c2)c[nH+]1 (optimized conformer: 47.2443747635124 kcal/mol)

>  <smiles>  (21) 
COc1ccc(-c2cccc(C(=O)N(C)CCO)c2)cn1

>  <score_type>  (21) 
oracle

>  <origin>  (21) 
adg

>  <m_score__min__energy>  (21) 
-7.1100000000000003

>  <m_primary>  (21) 
energy

$$$$
21:0
     RDKit          3D

 46 47  0  0  0  0  0  0  0  0999 V2000
   55.7380   29.9910   44.1330 C   0  0  0  0  0  0  0  0  0  0  0  0
   56.6360   30.8120   44.8440 O   0  0  0  0  0  0  0  0  0  0  0  0
   57.8130   30.9840   44.0840 C   0  0  0  0  0  0  0  0  0  0  0  0
   57.8490   32.3990   43.5100 C   0  0  0  0  0  0  0  0  0  0  0  0
   57.3820   33.3680   44.5110 N   0  0  0  0  0  0  0  0  0  0  0  0
   58.4320   34.3320   44.8740 C   0  0  0  0  0  0  0  0  0  0  0  0
   59.0800   33.9980   46.1960 C   0  0  0  0  0  0  0  0  0  0  0  0
   59.0120   34.9000   47.2690 C   0  0  0  0  0  0  0  0  0  0  0  0
   59.6390   34.6010   48.4800 C   0  0  0  0  0  0  0  0  0  0  0  0
   60.3380   33.4000   48.6320 C   0  0  0  0  0  0  0  0  0  0  0  0
   60.4160   32.4870   47.5700 C   0  0  0  0  0  0  0  0  0  0  0  0
   61.1300   31.2470   47.7220 N   0  0  0  0  0  0  0  0  0  0  0  0
   62.5780   31.2060   47.4900 C   0  0  0  0  0  0  0  0  0  0  0  0
   60.4360   30.0480   48.2040 C   0  0  0  0  0  0  0  0  0  0  0  0
   59.8780   29.2740   47.0400 C   0  0  0  0  0  0  0  0  0  0  0  0
   60.5120   29.3360   45.7880 C   0  0  0  0  0  0  0  0  0  0  0  0
   59.9840   28.6400   44.6970 C   0  0  0  0  0  0  0  0  0  0  0  0
   58.8200   27.8820   44.8440 C   0  0  0  0  0  0  0  0  0  0  0  0
   58.1750   27.8220   46.0860 C   0  0  0  0  0  0  0  0  0  0  0  0
   56.9670   27.0510   46.2360 C   0  0  0  0  0  0  0  0  0  0  0  0
   55.9970   26.4320   46.3550 N   0  0  0  0  0  0  0  0  0  0  0  0
   58.7010   28.5200   47.1810 C   0  0  0  0  0  0  0  0  0  0  0  0
   59.7870   32.7960   46.3510 C   0  0  0  0  0  0  0  0  0  0  0  0
   55.1182   29.4243   44.8434 H   0  0  0  0  0  0  0  0  0  0  0  0
   55.0914   30.6168   43.5003 H   0  0  0  0  0  0  0  0  0  0  0  0
   56.3035   29.2910   43.5003 H   0  0  0  0  0  0  0  0  0  0  0  0
   58.6909   30.8276   44.7280 H   0  0  0  0  0  0  0  0  0  0  0  0
   57.8264   30.2549   43.2605 H   0  0  0  0  0  0  0  0  0  0  0  0
   58.8806   32.6464   43.2193 H   0  0  0  0  0  0  0  0  0  0  0  0
   57.1882   32.4455   42.6318 H   0  0  0  0  0  0  0  0  0  0  0  0
   57.0810   32.8530   45.3730 H   0  0  0  0  0  0  0  0  0  0  0  0
   59.2036   34.3274   44.0900 H   0  0  0  0  0  0  0  0  0  0  0  0
   57.9632   35.3226   44.9683 H   0  0  0  0  0  0  0  0  0  0  0  0
   58.4626   35.8462   47.1554 H   0  0  0  0  0  0  0  0  0  0  0  0
   59.5828   35.3125   49.3170 H   0  0  0  0  0  0  0  0  0  0  0  0
   60.8292   33.1698   49.5890 H   0  0  0  0  0  0  0  0  0  0  0  0
   63.1038   31.1911   48.4561 H   0  0  0  0  0  0  0  0  0  0  0  0
   62.8325   30.3003   46.9200 H   0  0  0  0  0  0  0  0  0  0  0  0
   62.8834   32.0959   46.9200 H   0  0  0  0  0  0  0  0  0  0  0  0
   61.1449   29.4141   48.7568 H   0  0  0  0  0  0  0  0  0  0  0  0
   59.6110   30.3497   48.8661 H   0  0  0  0  0  0  0  0  0  0  0  0
   61.4270   29.9343   45.6659 H   0  0  0  0  0  0  0  0  0  0  0  0
   60.4866   28.6893   43.7198 H   0  0  0  0  0  0  0  0  0  0  0  0
   58.4097   27.3320   43.9842 H   0  0  0  0  0  0  0  0  0  0  0  0
   58.1906   28.4775   48.1545 H   0  0  0  0  0  0  0  0  0  0  0  0
   59.8498   32.0887   45.5109 H   0  0  0  0  0  0  0  0  0  0  0  0
  1  2  1  0
  2  3  1  0
  3  4  1  0
  4  5  1  0
  5  6  1  0
  6  7  1  0
  7  8  2  0
  8  9  1  0
  9 10  2  0
 10 11  1  0
 11 12  1  0
 12 13  1  0
 12 14  1  0
 14 15  1  0
 15 16  2  0
 16 17  1  0
 17 18  2  0
 18 19  1  0
 19 20  1  0
 20 21  3  0
 19 22  2  0
 11 23  2  0
 23  7  1  0
 22 15  1  0
  1 24  1  0
  1 25  1  0
  1 26  1  0
  3 27  1  0
  3 28  1  0
  4 29  1  0
  4 30  1  0
  5 31  1  0
  6 32  1  0
  6 33  1  0
  8 34  1  0
  9 35  1  0
 10 36  1  0
 13 37  1  0
 13 38  1  0
 13 39  1  0
 14 40  1  0
 14 41  1  0
 16 42  1  0
 17 43  1  0
 18 44  1  0
 22 45  1  0
 23 46  1  0
M  END
>  <UniqueID>  (22) 
21

>  <SMILES>  (22) 
COCCNCc1cccc(N(C)Cc2cccc(C#N)c2)c1

>  <Energy>  (22) 
44.52544666374839

>  <Genealogy>  (22) 
COCCNCc1cccc(N(C)Cc2cccc(C#N)c2)c1 (3D coordinates assigned)
COCCNCc1cccc(N(C)Cc2cccc(C#N)c2)c1 (optimized conformer: 44.52544666374839 kcal/mol)

>  <smiles>  (22) 
COCCNCc1cccc(N(C)Cc2cccc(C#N)c2)c1

>  <score_type>  (22) 
oracle

>  <origin>  (22) 
adg

>  <m_score__min__energy>  (22) 
-7.0300000000000002

>  <m_primary>  (22) 
energy

$$$$
22:0
     RDKit          3D

 61 63  0  0  0  0  0  0  0  0999 V2000
   55.9750   30.0640   44.6540 H   0  0  0  0  0  0  0  0  0  0  0  0
   56.6900   30.6300   45.0910 O   0  0  0  0  0  0  0  0  0  0  0  0
   57.5840   30.1340   46.0450 C   0  0  0  0  0  0  0  0  0  0  0  0
   57.7080   28.7380   46.2580 C   0  0  0  0  0  0  0  0  0  0  0  0
   56.7370   27.8140   45.7840 C   0  0  0  0  0  0  0  0  0  0  0  0
   55.5230   28.2280   45.2500 O   0  0  0  0  0  0  0  0  0  0  0  0
   56.9530   26.4410   45.9010 C   0  0  0  0  0  0  0  0  0  0  0  0
   56.2138   25.7357   45.4934 H   0  0  0  0  0  0  0  0  0  0  0  0
   58.0920   25.9580   46.5270 C   0  0  0  0  0  0  0  0  0  0  0  0
   58.2674   24.8735   46.5823 H   0  0  0  0  0  0  0  0  0  0  0  0
   59.0150   26.8380   47.0860 C   0  0  0  0  0  0  0  0  0  0  0  0
   60.1120   26.2900   47.7430 O   0  0  0  0  0  0  0  0  0  0  0  0
   58.8230   28.2430   46.9870 C   0  0  0  0  0  0  0  0  0  0  0  0
   59.7080   29.1510   47.6080 C   0  0  0  0  0  0  0  0  0  0  0  0
   60.8440   28.6560   48.2420 O   0  0  0  0  0  0  0  0  0  0  0  0
   59.4620   30.5470   47.5790 C   0  0  0  0  0  0  0  0  0  0  0  0
   60.2810   31.4730   48.2990 C   0  0  0  0  0  0  0  0  0  0  0  0
   61.3250   31.0320   49.1830 N   0  0  0  0  0  0  0  0  0  0  0  0
   61.8540   30.1700   48.9190 H   0  0  0  0  0  0  0  0  0  0  0  0
   61.5450   31.5710   50.5300 C   0  0  0  0  0  0  0  0  0  0  0  0
   61.3018   30.7910   51.2665 H   0  0  0  0  0  0  0  0  0  0  0  0
   60.8982   32.4529   50.6476 H   0  0  0  0  0  0  0  0  0  0  0  0
   63.0070   32.0260   50.7530 C   0  0  0  0  0  0  0  0  0  0  0  0
   63.5169   31.2417   51.3317 H   0  0  0  0  0  0  0  0  0  0  0  0
   62.9358   32.9969   51.2652 H   0  0  0  0  0  0  0  0  0  0  0  0
   63.8140   32.2830   49.5300 N   0  0  0  0  0  0  0  0  0  0  0  0
   65.2690   32.4630   49.7330 C   0  0  0  0  0  0  0  0  0  0  0  0
   65.4568   33.4975   50.0564 H   0  0  0  0  0  0  0  0  0  0  0  0
   65.7737   32.2451   48.7802 H   0  0  0  0  0  0  0  0  0  0  0  0
   65.8240   31.5080   50.7890 C   0  0  0  0  0  0  0  0  0  0  0  0
   65.5971   31.8985   51.7920 H   0  0  0  0  0  0  0  0  0  0  0  0
   65.3607   30.5178   50.6676 H   0  0  0  0  0  0  0  0  0  0  0  0
   66.9138   31.4203   50.6676 H   0  0  0  0  0  0  0  0  0  0  0  0
   63.2420   33.3080   48.6330 C   0  0  0  0  0  0  0  0  0  0  0  0
   62.1757   33.4424   48.8672 H   0  0  0  0  0  0  0  0  0  0  0  0
   63.7796   34.2563   48.7803 H   0  0  0  0  0  0  0  0  0  0  0  0
   63.3880   32.8720   47.1810 C   0  0  0  0  0  0  0  0  0  0  0  0
   63.7371   31.8295   47.1445 H   0  0  0  0  0  0  0  0  0  0  0  0
   62.4145   32.9506   46.6749 H   0  0  0  0  0  0  0  0  0  0  0  0
   64.1178   33.5210   46.6749 H   0  0  0  0  0  0  0  0  0  0  0  0
   60.0230   32.8440   48.2080 C   0  0  0  0  0  0  0  0  0  0  0  0
   60.6259   33.5498   48.7982 H   0  0  0  0  0  0  0  0  0  0  0  0
   59.0200   33.3250   47.3860 C   0  0  0  0  0  0  0  0  0  0  0  0
   58.8442   34.4089   47.3207 H   0  0  0  0  0  0  0  0  0  0  0  0
   58.2300   32.4540   46.6400 C   0  0  0  0  0  0  0  0  0  0  0  0
   57.2200   33.0320   45.8010 N   0  0  0  0  0  0  0  0  0  0  0  0
   57.4040   33.4350   44.5770 C   0  0  0  0  0  0  0  0  0  0  0  0
   56.9567   34.3932   44.2739 H   0  0  0  0  0  0  0  0  0  0  0  0
   58.2010   32.6580   43.5430 C   0  0  0  0  0  0  0  0  0  0  0  0
   59.0384   33.2860   43.2049 H   0  0  0  0  0  0  0  0  0  0  0  0
   58.5434   31.7317   44.0275 H   0  0  0  0  0  0  0  0  0  0  0  0
   57.4050   32.2620   42.3600 N   0  0  0  0  0  0  0  0  0  0  0  0
   56.9920   30.8520   42.4170 C   0  0  0  0  0  0  0  0  0  0  0  0
   56.9003   30.5390   43.4675 H   0  0  0  0  0  0  0  0  0  0  0  0
   56.0214   30.7336   41.9131 H   0  0  0  0  0  0  0  0  0  0  0  0
   57.7453   30.2286   41.9131 H   0  0  0  0  0  0  0  0  0  0  0  0
   58.0860   32.5610   41.0890 C   0  0  0  0  0  0  0  0  0  0  0  0
   59.0751   32.9953   41.2963 H   0  0  0  0  0  0  0  0  0  0  0  0
   58.2068   31.6332   40.5106 H   0  0  0  0  0  0  0  0  0  0  0  0
   57.4847   33.2779   40.5106 H   0  0  0  0  0  0  0  0  0  0  0  0
   58.4060   31.0460   46.7580 C   0  0  0  0  0  0  0  0  0  0  0  0
  1  2  1  0
  2  3  1  0
  3  4  2  0
  4  5  1  0
  5  6  1  0
  5  7  2  0
  7  8  1  0
  7  9  1  0
  9 10  1  0
  9 11  2  0
 11 12  1  0
 11 13  1  0
 13 14  2  0
 14 15  1  0
 14 16  1  0
 16 17  2  0
 17 18  1  0
 18 19  1  0
 18 20  1  0
 20 21  1  0
 20 22  1  0
 20 23  1  0
 23 24  1  0
 23 25  1  0
 23 26  1  0
 26 27  1  0
 27 28  1  0
 27 29  1  0
 27 30  1  0
 30 31  1  0
 30 32  1  0
 30 33  1  0
 26 34  1  0
 34 35  1  0
 34 36  1  0
 34 37  1  0
 37 38  1  0
 37 39  1  0
 37 40  1  0
 17 41  1  0
 41 42  1  0
 41 43  2  0
 43 44  1  0
 43 45  1  0
 45 46  1  0
 46 47  2  0
 47 48  1  0
 47 49  1  0
 49 50  1  0
 49 51  1  0
 49 52  1  0
 52 53  1  0
 53 54  1  0
 53 55  1  0
 53 56  1  0
 52 57  1  0
 57 58  1  0
 57 59  1  0
 57 60  1  0
 45 61  2  0
 61  3  1  0
 13  4  1  0
 61 16  1  0
M  CHG  3   6  -1  12  -1  15  -1
M  END
>  <UniqueID>  (23) 
22

>  <SMILES>  (23) 
CCN(CC)CCNc1ccc(/N=C\CN(C)C)c2c(O)c3c([O-])ccc([O-])c3c([O-])c12

>  <Energy>  (23) 
107.50359889746329

>  <Genealogy>  (23) 
CCN(CC)CCNc1ccc(N=CCN(C)C)c2c(O)c3c([O-])ccc([O-])c3c([O-])c12 (protonated)
CCN(CC)CCNc1ccc(/N=C\CN(C)C)c2c(O)c3c([O-])ccc([O-])c3c([O-])c12 (cis-trans isomerization)
CCN(CC)CCNc1ccc(/N=C\CN(C)C)c2c(O)c3c([O-])ccc([O-])c3c([O-])c12 (3D coordinates assigned)
CCN(CC)CCNc1ccc(/N=C\CN(C)C)c2c(O)c3c([O-])ccc([O-])c3c([O-])c12 (optimized conformer: 107.50359889746329 kcal/mol)

>  <smiles>  (23) 
CCN(CC)CCNc1ccc(N=CCN(C)C)c2c(O)c3c(O)ccc(O)c3c(O)c12

>  <score_type>  (23) 
oracle

>  <origin>  (23) 
adg

>  <m_score__min__energy>  (23) 
-12.970000000000001

>  <m_primary>  (23) 
energy

$$$$
23:0
     RDKit          3D

 41 44  0  0  0  0  0  0  0  0999 V2000
   64.4780   34.3950   51.9160 C   0  0  0  0  0  0  0  0  0  0  0  0
   63.7430   34.9620   50.8360 O   0  0  0  0  0  0  0  0  0  0  0  0
   62.8110   34.2600   50.0570 C   0  0  0  0  0  0  0  0  0  0  0  0
   63.0310   33.9670   48.6970 C   0  0  0  0  0  0  0  0  0  0  0  0
   62.0690   33.2660   47.9650 C   0  0  0  0  0  0  0  0  0  0  0  0
   60.8710   32.8560   48.5700 C   0  0  0  0  0  0  0  0  0  0  0  0
   59.8940   32.1220   47.8130 N   0  0  0  0  0  0  0  0  0  0  0  0
   59.4630   30.8580   48.0630 C   0  0  0  0  0  0  0  0  0  0  0  0
   58.5220   30.4480   47.1790 N   0  0  0  0  0  0  0  0  0  0  0  0
   58.3680   31.4880   46.3430 C   0  0  0  0  0  0  0  0  0  0  0  0
   57.5410   31.5750   45.2230 C   0  0  0  0  0  0  0  0  0  0  0  0
   56.7150   30.4940   44.8850 O   0  0  0  0  0  0  0  0  0  0  0  0
   57.1170   29.4120   44.0520 C   0  0  0  0  0  0  0  0  0  0  0  0
   58.2650   28.6920   44.6930 C   0  0  0  0  0  0  0  0  0  0  0  0
   59.6000   29.0850   44.5060 C   0  0  0  0  0  0  0  0  0  0  0  0
   60.5170   28.2820   45.1730 C   0  0  0  0  0  0  0  0  0  0  0  0
   59.6700   27.0830   45.9940 S   0  0  0  0  0  0  0  0  0  0  0  0
   58.1380   27.5700   45.5100 C   0  0  0  0  0  0  0  0  0  0  0  0
   56.6510   26.7660   45.9810 Cl  0  0  0  0  0  0  0  0  0  0  0  0
   57.5920   32.7750   44.4730 C   0  0  0  0  0  0  0  0  0  0  0  0
   58.4690   33.8170   44.8490 C   0  0  0  0  0  0  0  0  0  0  0  0
   59.2940   33.6870   45.9790 C   0  0  0  0  0  0  0  0  0  0  0  0
   59.1990   32.5060   46.7200 C   0  0  0  0  0  0  0  0  0  0  0  0
   60.6630   33.1340   49.9300 C   0  0  0  0  0  0  0  0  0  0  0  0
   61.6240   33.8360   50.6630 C   0  0  0  0  0  0  0  0  0  0  0  0
   64.0445   34.7294   52.8701 H   0  0  0  0  0  0  0  0  0  0  0  0
   64.4300   33.2977   51.8561 H   0  0  0  0  0  0  0  0  0  0  0  0
   65.5272   34.7200   51.8561 H   0  0  0  0  0  0  0  0  0  0  0  0
   63.9625   34.2908   48.2098 H   0  0  0  0  0  0  0  0  0  0  0  0
   62.2523   33.0336   46.9056 H   0  0  0  0  0  0  0  0  0  0  0  0
   59.8364   30.2370   48.8906 H   0  0  0  0  0  0  0  0  0  0  0  0
   58.0380   29.5240   47.1490 H   0  0  0  0  0  0  0  0  0  0  0  0
   56.2747   28.7168   43.9208 H   0  0  0  0  0  0  0  0  0  0  0  0
   57.4273   29.7989   43.0702 H   0  0  0  0  0  0  0  0  0  0  0  0
   59.8924   29.9477   43.8893 H   0  0  0  0  0  0  0  0  0  0  0  0
   61.6097   28.4087   45.1654 H   0  0  0  0  0  0  0  0  0  0  0  0
   56.9447   32.8967   43.5920 H   0  0  0  0  0  0  0  0  0  0  0  0
   58.5063   34.7395   44.2510 H   0  0  0  0  0  0  0  0  0  0  0  0
   59.9904   34.4871   46.2702 H   0  0  0  0  0  0  0  0  0  0  0  0
   59.7384   32.7975   50.4218 H   0  0  0  0  0  0  0  0  0  0  0  0
   61.4452   34.0569   51.7256 H   0  0  0  0  0  0  0  0  0  0  0  0
  1  2  1  0
  2  3  1  0
  3  4  2  0
  4  5  1  0
  5  6  2  0
  6  7  1  0
  7  8  1  0
  8  9  2  0
  9 10  1  0
 10 11  2  0
 11 12  1  0
 12 13  1  0
 13 14  1  0
 14 15  1  0
 15 16  2  0
 16 17  1  0
 17 18  1  0
 18 19  1  0
 11 20  1  0
 20 21  2  0
 21 22  1  0
 22 23  2  0
  6 24  1  0
 24 25  2  0
 25  3  1  0
 23  7  1  0
 23 10  1  0
 18 14  2  0
  1 26  1  0
  1 27  1  0
  1 28  1  0
  4 29  1  0
  5 30  1  0
  8 31  1  0
  9 32  1  0
 13 33  1  0
 13 34  1  0
 15 35  1  0
 16 36  1  0
 20 37  1  0
 21 38  1  0
 22 39  1  0
 24 40  1  0
 25 41  1  0
M  CHG  1   9   1
M  END
>  <UniqueID>  (24) 
23

>  <SMILES>  (24) 
COc1ccc(-n2c[nH+]c3c(OCc4ccsc4Cl)cccc32)cc1

>  <Energy>  (24) 
114.1276815025167

>  <Genealogy>  (24) 
COc1ccc(-n2c[nH+]c3c(OCc4ccsc4Cl)cccc32)cc1 (protonated)
COc1ccc(-n2c[nH+]c3c(OCc4ccsc4Cl)cccc32)cc1 (3D coordinates assigned)
COc1ccc(-n2c[nH+]c3c(OCc4ccsc4Cl)cccc32)cc1 (optimized conformer: 114.1276815025167 kcal/mol)

>  <smiles>  (24) 
COc1ccc(-n2cnc3c(OCc4ccsc4Cl)cccc32)cc1

>  <score_type>  (24) 
oracle

>  <origin>  (24) 
adg

>  <m_score__min__energy>  (24) 
-5.96

>  <m_primary>  (24) 
energy

$$$$
24:0
     RDKit          3D

 52 54  0  0  0  0  0  0  0  0999 V2000
   63.0300   33.1510   47.1670 C   0  0  0  0  0  0  0  0  0  0  0  0
   62.9670   31.6460   47.4410 C   0  0  0  0  0  0  0  0  0  0  0  0
   61.5920   31.1940   47.7560 N   0  0  0  0  0  0  0  0  0  0  0  0
   61.5820   30.4550   49.0380 C   0  0  0  0  0  0  0  0  0  0  0  0
   61.0870   30.3340   46.6600 C   0  0  0  0  0  0  0  0  0  0  0  0
   60.1330   29.2460   47.1770 C   0  0  0  0  0  0  0  0  0  0  0  0
   58.5450   29.9200   47.7910 S   0  0  0  0  0  0  0  0  0  0  0  0
   58.3020   31.0950   46.4440 C   0  0  0  0  0  0  0  0  0  0  0  0
   57.7320   30.7180   45.2140 C   0  0  0  0  0  0  0  0  0  0  0  0
   57.0380   29.4540   44.8910 C   0  0  0  0  0  0  0  0  0  0  0  0
   55.7890   29.3910   45.0260 O   0  0  0  0  0  0  0  0  0  0  0  0
   57.7420   28.2850   44.4510 N   0  0  0  0  0  0  0  0  0  0  0  0
   57.7430   27.0050   45.0990 C   0  0  0  0  0  0  0  0  0  0  0  0
   57.6900   26.8850   46.5010 C   0  0  0  0  0  0  0  0  0  0  0  0
   57.6960   25.6220   47.1000 C   0  0  0  0  0  0  0  0  0  0  0  0
   57.7410   24.4720   46.3090 C   0  0  0  0  0  0  0  0  0  0  0  0
   57.7470   23.2470   46.8910 F   0  0  0  0  0  0  0  0  0  0  0  0
   57.7700   24.5830   44.9160 C   0  0  0  0  0  0  0  0  0  0  0  0
   57.7640   25.8440   44.3120 C   0  0  0  0  0  0  0  0  0  0  0  0
   57.7980   25.9400   42.9590 F   0  0  0  0  0  0  0  0  0  0  0  0
   57.8920   31.9830   44.1100 S   0  0  0  0  0  0  0  0  0  0  0  0
   58.6200   33.0300   45.1910 C   0  0  0  0  0  0  0  0  0  0  0  0
   59.0230   34.2960   44.9230 N   0  0  0  0  0  0  0  0  0  0  0  0
   59.5920   35.0500   45.9080 C   0  0  0  0  0  0  0  0  0  0  0  0
   60.0150   36.4600   45.6220 C   0  0  0  0  0  0  0  0  0  0  0  0
   59.7020   34.5330   47.2130 C   0  0  0  0  0  0  0  0  0  0  0  0
   59.2660   33.2250   47.5060 C   0  0  0  0  0  0  0  0  0  0  0  0
   59.3040   32.7560   48.9360 C   0  0  0  0  0  0  0  0  0  0  0  0
   58.7510   32.4420   46.4440 C   0  0  0  0  0  0  0  0  0  0  0  0
   63.0528   33.6969   48.1217 H   0  0  0  0  0  0  0  0  0  0  0  0
   63.9386   33.3812   46.5912 H   0  0  0  0  0  0  0  0  0  0  0  0
   62.1438   33.4563   46.5912 H   0  0  0  0  0  0  0  0  0  0  0  0
   63.3217   31.1080   46.5495 H   0  0  0  0  0  0  0  0  0  0  0  0
   63.6016   31.4338   48.3140 H   0  0  0  0  0  0  0  0  0  0  0  0
   61.5917   31.1703   49.8736 H   0  0  0  0  0  0  0  0  0  0  0  0
   60.6754   29.8348   49.0967 H   0  0  0  0  0  0  0  0  0  0  0  0
   62.4715   29.8105   49.0967 H   0  0  0  0  0  0  0  0  0  0  0  0
   60.5498   30.9621   45.9342 H   0  0  0  0  0  0  0  0  0  0  0  0
   61.9496   29.8364   46.1928 H   0  0  0  0  0  0  0  0  0  0  0  0
   59.9223   28.5454   46.3556 H   0  0  0  0  0  0  0  0  0  0  0  0
   60.6288   28.7488   48.0237 H   0  0  0  0  0  0  0  0  0  0  0  0
   57.6437   27.7883   47.1270 H   0  0  0  0  0  0  0  0  0  0  0  0
   57.6652   25.5338   48.1960 H   0  0  0  0  0  0  0  0  0  0  0  0
   57.7976   23.6764   44.2936 H   0  0  0  0  0  0  0  0  0  0  0  0
   58.8960   34.6840   43.9610 H   0  0  0  0  0  0  0  0  0  0  0  0
   60.1753   36.9942   46.5701 H   0  0  0  0  0  0  0  0  0  0  0  0
   60.9503   36.4520   45.0430 H   0  0  0  0  0  0  0  0  0  0  0  0
   59.2297   36.9681   45.0430 H   0  0  0  0  0  0  0  0  0  0  0  0
   60.1322   35.1556   48.0113 H   0  0  0  0  0  0  0  0  0  0  0  0
   59.2337   33.6237   49.6084 H   0  0  0  0  0  0  0  0  0  0  0  0
   58.4578   32.0783   49.1222 H   0  0  0  0  0  0  0  0  0  0  0  0
   60.2482   32.2233   49.1222 H   0  0  0  0  0  0  0  0  0  0  0  0
  1  2  1  0
  2  3  1  0
  3  4  1  0
  3  5  1  0
  5  6  1  0
  6  7  1  0
  7  8  1  0
  8  9  2  0
  9 10  1  0
 10 11  2  0
 10 12  1  0
 12 13  1  0
 13 14  2  0
 14 15  1  0
 15 16  2  0
 16 17  1  0
 16 18  1  0
 18 19  2  0
 19 20  1  0
  9 21  1  0
 21 22  1  0
 22 23  2  0
 23 24  1  0
 24 25  1  0
 24 26  2  0
 26 27  1  0
 27 28  1  0
 27 29  2  0
 29  8  1  0
 19 13  1  0
 29 22  1  0
  1 30  1  0
  1 31  1  0
  1 32  1  0
  2 33  1  0
  2 34  1  0
  4 35  1  0
  4 36  1  0
  4 37  1  0
  5 38  1  0
  5 39  1  0
  6 40  1  0
  6 41  1  0
 14 42  1  0
 15 43  1  0
 18 44  1  0
 23 45  1  0
 25 46  1  0
 25 47  1  0
 25 48  1  0
 26 49  1  0
 28 50  1  0
 28 51  1  0
 28 52  1  0
M  CHG  2  12  -1  23   1
M  END
>  <UniqueID>  (25) 
24

>  <SMILES>  (25) 
CCN(C)CCSc1c(C(=O)[N-]c2ccc(F)cc2F)sc2[nH+]c(C)cc(C)c12

>  <Energy>  (25) 
90.32789496790643

>  <Genealogy>  (25) 
CCN(C)CCSc1c(C(=O)[N-]c2ccc(F)cc2F)sc2[nH+]c(C)cc(C)c12 (protonated)
CCN(C)CCSc1c(C(=O)[N-]c2ccc(F)cc2F)sc2[nH+]c(C)cc(C)c12 (3D coordinates assigned)
CCN(C)CCSc1c(C(=O)[N-]c2ccc(F)cc2F)sc2[nH+]c(C)cc(C)c12 (optimized conformer: 90.32789496790643 kcal/mol)

>  <smiles>  (25) 
CCN(C)CCSc1c(C(=O)Nc2ccc(F)cc2F)sc2nc(C)cc(C)c12

>  <score_type>  (25) 
oracle

>  <origin>  (25) 
adg

>  <m_score__min__energy>  (25) 
-7.8600000000000003

>  <m_primary>  (25) 
energy

$$$$
25:0
     RDKit          3D

 36 38  0  0  0  0  0  0  0  0999 V2000
   55.5290   29.7560   44.8710 O   0  0  0  0  0  0  0  0  0  0  0  0
   56.6030   29.1860   45.2030 C   0  0  0  0  0  0  0  0  0  0  0  0
   56.6290   27.7720   45.4180 N   0  0  0  0  0  0  0  0  0  0  0  0
   57.3350   27.1390   46.5270 C   0  0  0  0  0  0  0  0  0  0  0  0
   58.6660   27.7900   46.7290 C   0  0  0  0  0  0  0  0  0  0  0  0
   59.8460   27.4260   46.1210 C   0  0  0  0  0  0  0  0  0  0  0  0
   60.7610   28.2810   46.5030 O   0  0  0  0  0  0  0  0  0  0  0  0
   60.1780   29.1480   47.3040 C   0  0  0  0  0  0  0  0  0  0  0  0
   60.8830   30.2800   47.9400 C   0  0  0  0  0  0  0  0  0  0  0  0
   60.9290   30.3870   49.3390 C   0  0  0  0  0  0  0  0  0  0  0  0
   61.5980   31.4540   49.9440 C   0  0  0  0  0  0  0  0  0  0  0  0
   62.2300   32.4260   49.1620 C   0  0  0  0  0  0  0  0  0  0  0  0
   63.0620   33.7530   49.9610 Cl  0  0  0  0  0  0  0  0  0  0  0  0
   62.1900   32.3280   47.7610 C   0  0  0  0  0  0  0  0  0  0  0  0
   62.9730   33.5280   46.7420 Cl  0  0  0  0  0  0  0  0  0  0  0  0
   61.5200   31.2580   47.1560 C   0  0  0  0  0  0  0  0  0  0  0  0
   58.8630   28.8910   47.4770 N   0  0  0  0  0  0  0  0  0  0  0  0
   57.8200   29.9350   45.3250 N   0  0  0  0  0  0  0  0  0  0  0  0
   57.8840   31.3720   45.3550 C   0  0  0  0  0  0  0  0  0  0  0  0
   57.7520   32.0910   44.1570 C   0  0  0  0  0  0  0  0  0  0  0  0
   57.8340   33.4870   44.1570 C   0  0  0  0  0  0  0  0  0  0  0  0
   58.0640   34.1760   45.3510 C   0  0  0  0  0  0  0  0  0  0  0  0
   58.2200   33.4680   46.5460 C   0  0  0  0  0  0  0  0  0  0  0  0
   58.1390   32.0720   46.5510 C   0  0  0  0  0  0  0  0  0  0  0  0
   56.7371   27.2416   47.4446 H   0  0  0  0  0  0  0  0  0  0  0  0
   57.4869   26.0744   46.2956 H   0  0  0  0  0  0  0  0  0  0  0  0
   59.9930   26.5745   45.4403 H   0  0  0  0  0  0  0  0  0  0  0  0
   60.4357   29.6266   49.9623 H   0  0  0  0  0  0  0  0  0  0  0  0
   61.6277   31.5299   51.0410 H   0  0  0  0  0  0  0  0  0  0  0  0
   61.4917   31.1818   46.0590 H   0  0  0  0  0  0  0  0  0  0  0  0
   58.7170   29.4000   45.3180 H   0  0  0  0  0  0  0  0  0  0  0  0
   57.5830   31.5532   43.2124 H   0  0  0  0  0  0  0  0  0  0  0  0
   57.7173   34.0438   43.2156 H   0  0  0  0  0  0  0  0  0  0  0  0
   58.1222   35.2745   45.3503 H   0  0  0  0  0  0  0  0  0  0  0  0
   58.4069   34.0102   47.4847 H   0  0  0  0  0  0  0  0  0  0  0  0
   58.2748   31.5184   47.4918 H   0  0  0  0  0  0  0  0  0  0  0  0
  1  2  2  0
  2  3  1  0
  3  4  1  0
  4  5  1  0
  5  6  2  0
  6  7  1  0
  7  8  1  0
  8  9  1  0
  9 10  2  0
 10 11  1  0
 11 12  2  0
 12 13  1  0
 12 14  1  0
 14 15  1  0
 14 16  2  0
  8 17  2  0
  2 18  1  0
 18 19  1  0
 19 20  2  0
 20 21  1  0
 21 22  2  0
 22 23  1  0
 23 24  2  0
 17  5  1  0
 24 19  1  0
 16  9  1  0
  4 25  1  0
  4 26  1  0
  6 27  1  0
 10 28  1  0
 11 29  1  0
 16 30  1  0
 18 31  1  0
 20 32  1  0
 21 33  1  0
 22 34  1  0
 23 35  1  0
 24 36  1  0
M  CHG  1   3  -1
M  END
>  <UniqueID>  (26) 
25

>  <SMILES>  (26) 
O=C([N-]Cc1coc(-c2ccc(Cl)c(Cl)c2)n1)Nc1ccccc1

>  <Energy>  (26) 
69.0731016788708

>  <Genealogy>  (26) 
O=C([N-]Cc1coc(-c2ccc(Cl)c(Cl)c2)n1)Nc1ccccc1 (protonated)
O=C([N-]Cc1coc(-c2ccc(Cl)c(Cl)c2)n1)Nc1ccccc1 (3D coordinates assigned)
O=C([N-]Cc1coc(-c2ccc(Cl)c(Cl)c2)n1)Nc1ccccc1 (optimized conformer: 69.0731016788708 kcal/mol)

>  <smiles>  (26) 
O=C(NCc1coc(-c2ccc(Cl)c(Cl)c2)n1)Nc1ccccc1

>  <score_type>  (26) 
oracle

>  <origin>  (26) 
adg

>  <m_score__min__energy>  (26) 
-9.5099999999999998

>  <m_primary>  (26) 
energy

$$$$
26:0
     RDKit          3D

 43 44  0  0  0  0  0  0  0  0999 V2000
   57.7540   31.9980   42.3480 C   0  0  0  0  0  0  0  0  0  0  0  0
   57.5130   30.9310   43.4110 C   0  0  0  0  0  0  0  0  0  0  0  0
   57.6010   31.4990   44.7860 N   0  0  0  0  0  0  0  0  0  0  0  0
   57.8700   32.9590   44.7200 C   0  0  0  0  0  0  0  0  0  0  0  0
   56.9910   33.7790   45.6630 C   0  0  0  0  0  0  0  0  0  0  0  0
   58.5210   30.7100   45.6690 C   0  0  1  0  0  0  0  0  0  0  0  0
   58.5350   31.2110   47.1360 C   0  0  0  0  0  0  0  0  0  0  0  0
   58.2940   29.1900   45.5190 C   0  0  0  0  0  0  0  0  0  0  0  0
   57.0310   28.6080   45.7930 C   0  0  0  0  0  0  0  0  0  0  0  0
   56.8130   27.2390   45.6420 C   0  0  0  0  0  0  0  0  0  0  0  0
   57.8480   26.4040   45.2010 C   0  0  0  0  0  0  0  0  0  0  0  0
   59.1130   26.9460   44.9640 C   0  0  0  0  0  0  0  0  0  0  0  0
   59.3550   28.3210   45.1270 C   0  0  0  0  0  0  0  0  0  0  0  0
   60.7470   28.8250   44.8580 C   0  0  0  0  0  0  0  0  0  0  0  0
   57.6150   24.9200   45.0550 C   0  0  0  0  0  0  0  0  0  0  0  0
   56.1280   24.5960   44.8670 C   0  0  0  0  0  0  0  0  0  0  0  0
   55.2960   25.3040   45.9380 C   0  0  0  0  0  0  0  0  0  0  0  0
   55.5430   26.7090   45.9050 O   0  0  0  0  0  0  0  0  0  0  0  0
   57.9712   32.9595   42.8362 H   0  0  0  0  0  0  0  0  0  0  0  0
   58.6084   31.7041   41.7206 H   0  0  0  0  0  0  0  0  0  0  0  0
   56.8562   32.0999   41.7206 H   0  0  0  0  0  0  0  0  0  0  0  0
   56.5108   30.5015   43.2653 H   0  0  0  0  0  0  0  0  0  0  0  0
   58.2894   30.1588   43.3066 H   0  0  0  0  0  0  0  0  0  0  0  0
   58.9233   33.1322   44.9856 H   0  0  0  0  0  0  0  0  0  0  0  0
   57.6416   33.2862   43.6949 H   0  0  0  0  0  0  0  0  0  0  0  0
   57.2481   33.5391   46.7053 H   0  0  0  0  0  0  0  0  0  0  0  0
   57.1587   34.8509   45.4813 H   0  0  0  0  0  0  0  0  0  0  0  0
   55.9334   33.5374   45.4813 H   0  0  0  0  0  0  0  0  0  0  0  0
   59.5457   30.8941   45.3140 H   0  0  0  0  0  0  0  0  0  0  0  0
   58.5109   30.3485   47.8183 H   0  0  0  0  0  0  0  0  0  0  0  0
   59.4498   31.7949   47.3153 H   0  0  0  0  0  0  0  0  0  0  0  0
   57.6542   31.8451   47.3153 H   0  0  0  0  0  0  0  0  0  0  0  0
   56.2048   29.2502   46.1321 H   0  0  0  0  0  0  0  0  0  0  0  0
   59.9332   26.2863   44.6446 H   0  0  0  0  0  0  0  0  0  0  0  0
   61.2605   29.0109   45.8128 H   0  0  0  0  0  0  0  0  0  0  0  0
   61.3048   28.0718   44.2823 H   0  0  0  0  0  0  0  0  0  0  0  0
   60.6933   29.7608   44.2823 H   0  0  0  0  0  0  0  0  0  0  0  0
   58.1728   24.5558   44.1796 H   0  0  0  0  0  0  0  0  0  0  0  0
   57.9602   24.4261   45.9753 H   0  0  0  0  0  0  0  0  0  0  0  0
   55.8047   24.9354   43.8719 H   0  0  0  0  0  0  0  0  0  0  0  0
   55.9821   23.5095   44.9577 H   0  0  0  0  0  0  0  0  0  0  0  0
   54.2282   25.1183   45.7503 H   0  0  0  0  0  0  0  0  0  0  0  0
   55.5769   24.9133   46.9272 H   0  0  0  0  0  0  0  0  0  0  0  0
  1  2  1  0
  2  3  1  0
  3  4  1  0
  4  5  1  0
  3  6  1  0
  6  7  1  0
  6  8  1  0
  8  9  2  0
  9 10  1  0
 10 11  2  0
 11 12  1  0
 12 13  2  0
 13 14  1  0
 11 15  1  0
 15 16  1  0
 16 17  1  0
 17 18  1  0
 13  8  1  0
 18 10  1  0
  1 19  1  0
  1 20  1  0
  1 21  1  0
  2 22  1  0
  2 23  1  0
  4 24  1  0
  4 25  1  0
  5 26  1  0
  5 27  1  0
  5 28  1  0
  6 29  1  6
  7 30  1  0
  7 31  1  0
  7 32  1  0
  9 33  1  0
 12 34  1  0
 14 35  1  0
 14 36  1  0
 14 37  1  0
 15 38  1  0
 15 39  1  0
 16 40  1  0
 16 41  1  0
 17 42  1  0
 17 43  1  0
M  END
>  <UniqueID>  (27) 
26

>  <SMILES>  (27) 
CCN(CC)[C@@H](C)c1cc2c(cc1C)CCCO2

>  <Energy>  (27) 
50.7994076807951

>  <Genealogy>  (27) 
CCN(CC)[C@@H](C)c1cc2c(cc1C)CCCO2 (chirality)
CCN(CC)[C@@H](C)c1cc2c(cc1C)CCCO2 (3D coordinates assigned)
CCN(CC)[C@@H](C)c1cc2c(cc1C)CCCO2 (nonaromatic ring conformer: 50.7994076807951 kcal/mol)

>  <smiles>  (27) 
CCN(CC)C(C)c1cc2c(cc1C)CCCO2

>  <score_type>  (27) 
oracle

>  <origin>  (27) 
adg

>  <m_score__min__energy>  (27) 
-6.9000000000000004

>  <m_primary>  (27) 
energy

$$$$
27:0
     RDKit          3D

 63 65  0  0  0  0  0  0  0  0999 V2000
   60.7260   30.6620   46.7480 C   0  0  0  0  0  0  0  0  0  0  0  0
   59.5160   29.7550   46.5210 C   0  0  0  0  0  0  0  0  0  0  0  0
   59.5810   28.9570   45.2060 C   0  0  0  0  0  0  0  0  0  0  0  0
   58.3690   28.1300   45.0070 N   0  0  0  0  0  0  0  0  0  0  0  0
   57.6960   27.7220   46.2610 C   0  0  0  0  0  0  0  0  0  0  0  0
   57.0050   26.3800   46.0490 C   0  0  0  0  0  0  0  0  0  0  0  0
   57.4350   28.6680   43.9820 C   0  0  0  0  0  0  0  0  0  0  0  0
   56.1760   29.3700   44.5460 C   0  0  0  0  0  0  0  0  0  0  0  0
   56.3010   30.8290   44.4770 N   0  0  0  0  0  0  0  0  0  0  0  0
   57.5280   31.2190   43.7710 C   0  0  0  0  0  0  0  0  0  0  0  0
   57.6390   32.7460   43.7110 C   0  0  0  0  0  0  0  0  0  0  0  0
   58.2350   33.2890   44.9860 C   0  0  0  0  0  0  0  0  0  0  0  0
   59.3000   34.2020   44.9300 C   0  0  0  0  0  0  0  0  0  0  0  0
   59.9140   34.6410   46.1070 C   0  0  0  0  0  0  0  0  0  0  0  0
   59.4770   34.1660   47.3570 C   0  0  0  0  0  0  0  0  0  0  0  0
   60.1120   34.5470   48.5840 N   0  0  0  0  0  0  0  0  0  0  0  0
   60.6760   33.4610   49.8150 S   0  0  0  0  0  0  0  0  0  0  0  0
   61.6440   34.2060   50.6900 O   0  0  0  0  0  0  0  0  0  0  0  0
   61.3980   32.2910   49.1990 O   0  0  0  0  0  0  0  0  0  0  0  0
   59.3280   32.9050   50.8000 C   0  0  0  0  0  0  0  0  0  0  0  0
   58.7950   33.5690   51.8960 C   0  0  0  0  0  0  0  0  0  0  0  0
   57.7100   32.8950   52.4740 C   0  0  0  0  0  0  0  0  0  0  0  0
   57.3900   31.6970   51.8260 C   0  0  0  0  0  0  0  0  0  0  0  0
   56.2600   30.7920   52.1220 C   0  0  0  0  0  0  0  0  0  0  0  0
   54.9230   31.2070   51.9890 C   0  0  0  0  0  0  0  0  0  0  0  0
   53.8930   30.2920   52.2220 C   0  0  0  0  0  0  0  0  0  0  0  0
   54.1970   28.9820   52.5950 C   0  0  0  0  0  0  0  0  0  0  0  0
   55.5340   28.6050   52.7360 C   0  0  0  0  0  0  0  0  0  0  0  0
   56.5230   29.5080   52.4960 N   0  0  0  0  0  0  0  0  0  0  0  0
   58.4580   31.4890   50.5420 S   0  0  0  0  0  0  0  0  0  0  0  0
   58.3980   33.2780   47.4110 C   0  0  0  0  0  0  0  0  0  0  0  0
   57.7830   32.8370   46.2340 C   0  0  0  0  0  0  0  0  0  0  0  0
   60.8930   30.7871   47.8280 H   0  0  0  0  0  0  0  0  0  0  0  0
   61.6164   30.2070   46.2896 H   0  0  0  0  0  0  0  0  0  0  0  0
   60.5390   31.6443   46.2896 H   0  0  0  0  0  0  0  0  0  0  0  0
   59.4537   29.0429   47.3570 H   0  0  0  0  0  0  0  0  0  0  0  0
   58.6319   30.4066   46.4591 H   0  0  0  0  0  0  0  0  0  0  0  0
   59.6741   29.6610   44.3660 H   0  0  0  0  0  0  0  0  0  0  0  0
   60.4505   28.2850   45.2552 H   0  0  0  0  0  0  0  0  0  0  0  0
   58.4415   27.6284   47.0644 H   0  0  0  0  0  0  0  0  0  0  0  0
   56.9500   28.4800   46.5420 H   0  0  0  0  0  0  0  0  0  0  0  0
   56.7727   25.9289   47.0250 H   0  0  0  0  0  0  0  0  0  0  0  0
   56.0733   26.5324   45.4845 H   0  0  0  0  0  0  0  0  0  0  0  0
   57.6703   25.7101   45.4845 H   0  0  0  0  0  0  0  0  0  0  0  0
   57.9852   29.3963   43.3682 H   0  0  0  0  0  0  0  0  0  0  0  0
   57.0726   27.8001   43.4116 H   0  0  0  0  0  0  0  0  0  0  0  0
   55.2992   29.0578   43.9597 H   0  0  0  0  0  0  0  0  0  0  0  0
   56.0625   29.0818   45.6015 H   0  0  0  0  0  0  0  0  0  0  0  0
   55.4880   31.1960   43.9280 H   0  0  0  0  0  0  0  0  0  0  0  0
   58.3996   30.8117   44.3043 H   0  0  0  0  0  0  0  0  0  0  0  0
   57.4958   30.8201   42.7464 H   0  0  0  0  0  0  0  0  0  0  0  0
   58.2812   33.0281   42.8637 H   0  0  0  0  0  0  0  0  0  0  0  0
   56.6314   33.1686   43.5842 H   0  0  0  0  0  0  0  0  0  0  0  0
   59.6527   34.5734   43.9565 H   0  0  0  0  0  0  0  0  0  0  0  0
   60.7433   35.3618   46.0553 H   0  0  0  0  0  0  0  0  0  0  0  0
   59.1841   34.5264   52.2727 H   0  0  0  0  0  0  0  0  0  0  0  0
   57.1636   33.2714   53.3514 H   0  0  0  0  0  0  0  0  0  0  0  0
   54.6899   32.2435   51.7039 H   0  0  0  0  0  0  0  0  0  0  0  0
   52.8439   30.6038   52.1116 H   0  0  0  0  0  0  0  0  0  0  0  0
   53.3921   28.2544   52.7759 H   0  0  0  0  0  0  0  0  0  0  0  0
   55.7875   27.5789   53.0408 H   0  0  0  0  0  0  0  0  0  0  0  0
   58.0302   32.9238   48.3853 H   0  0  0  0  0  0  0  0  0  0  0  0
   56.9404   32.1319   46.2881 H   0  0  0  0  0  0  0  0  0  0  0  0
  1  2  1  0
  2  3  1  0
  3  4  1  0
  4  5  1  0
  5  6  1  0
  4  7  1  0
  7  8  1  0
  8  9  1  0
  9 10  1  0
 10 11  1  0
 11 12  1  0
 12 13  2  0
 13 14  1  0
 14 15  2  0
 15 16  1  0
 16 17  1  0
 17 18  2  0
 17 19  2  0
 17 20  1  0
 20 21  2  0
 21 22  1  0
 22 23  2  0
 23 24  1  0
 24 25  2  0
 25 26  1  0
 26 27  2  0
 27 28  1  0
 28 29  2  0
 23 30  1  0
 15 31  1  0
 31 32  2  0
 32 12  1  0
 30 20  1  0
 29 24  1  0
  1 33  1  0
  1 34  1  0
  1 35  1  0
  2 36  1  0
  2 37  1  0
  3 38  1  0
  3 39  1  0
  5 40  1  0
  5 41  1  0
  6 42  1  0
  6 43  1  0
  6 44  1  0
  7 45  1  0
  7 46  1  0
  8 47  1  0
  8 48  1  0
  9 49  1  0
 10 50  1  0
 10 51  1  0
 11 52  1  0
 11 53  1  0
 13 54  1  0
 14 55  1  0
 21 56  1  0
 22 57  1  0
 25 58  1  0
 26 59  1  0
 27 60  1  0
 28 61  1  0
 31 62  1  0
 32 63  1  0
M  CHG  1  16  -1
M  END
>  <UniqueID>  (28) 
27

>  <SMILES>  (28) 
CCCN(CC)CCNCCc1ccc([N-]S(=O)(=O)c2ccc(-c3ccccn3)s2)cc1

>  <Energy>  (28) 
86.88462692645564

>  <Genealogy>  (28) 
CCCN(CC)CCNCCc1ccc([N-]S(=O)(=O)c2ccc(-c3ccccn3)s2)cc1 (protonated)
CCCN(CC)CCNCCc1ccc([N-]S(=O)(=O)c2ccc(-c3ccccn3)s2)cc1 (3D coordinates assigned)
CCCN(CC)CCNCCc1ccc([N-]S(=O)(=O)c2ccc(-c3ccccn3)s2)cc1 (optimized conformer: 86.88462692645564 kcal/mol)

>  <smiles>  (28) 
CCCN(CC)CCNCCc1ccc(NS(=O)(=O)c2ccc(-c3ccccn3)s2)cc1

>  <score_type>  (28) 
oracle

>  <origin>  (28) 
adg

>  <m_score__min__energy>  (28) 
-9.8399999999999999

>  <m_primary>  (28) 
energy

$$$$
28:0
     RDKit          3D

 32 34  0  0  0  0  0  0  0  0999 V2000
   60.3890   27.0950   48.2090 C   0  0  0  0  0  0  0  0  0  0  0  0
   59.0710   26.8000   47.4950 C   0  0  0  0  0  0  0  0  0  0  0  0
   59.1110   27.1840   46.0080 C   0  0  0  0  0  0  0  0  0  0  0  0
   58.3180   28.4430   45.7180 C   0  0  0  0  0  0  0  0  0  0  0  0
   57.0410   28.3110   45.1560 C   0  0  0  0  0  0  0  0  0  0  0  0
   56.2980   29.4510   44.8610 C   0  0  0  0  0  0  0  0  0  0  0  0
   55.1490   29.3390   44.3590 O   0  0  0  0  0  0  0  0  0  0  0  0
   56.7910   30.6580   45.1040 O   0  0  0  0  0  0  0  0  0  0  0  0
   57.9980   30.8560   45.6290 C   0  0  0  0  0  0  0  0  0  0  0  0
   58.8210   29.7470   45.9590 C   0  0  0  0  0  0  0  0  0  0  0  0
   60.0970   29.9810   46.5100 C   0  0  0  0  0  0  0  0  0  0  0  0
   60.5500   31.2820   46.7310 C   0  0  0  0  0  0  0  0  0  0  0  0
   59.7420   32.3800   46.4110 C   0  0  0  0  0  0  0  0  0  0  0  0
   60.2030   33.6860   46.6370 C   0  0  0  0  0  0  0  0  0  0  0  0
   59.3970   34.7810   46.3170 C   0  0  0  0  0  0  0  0  0  0  0  0
   58.1290   34.5820   45.7680 C   0  0  0  0  0  0  0  0  0  0  0  0
   57.6570   33.2860   45.5380 C   0  0  0  0  0  0  0  0  0  0  0  0
   58.4570   32.1710   45.8560 C   0  0  0  0  0  0  0  0  0  0  0  0
   60.2323   27.0599   49.2972 H   0  0  0  0  0  0  0  0  0  0  0  0
   61.1380   26.3423   47.9219 H   0  0  0  0  0  0  0  0  0  0  0  0
   60.7457   28.0952   47.9219 H   0  0  0  0  0  0  0  0  0  0  0  0
   58.8586   25.7238   47.5762 H   0  0  0  0  0  0  0  0  0  0  0  0
   58.2870   27.4034   47.9759 H   0  0  0  0  0  0  0  0  0  0  0  0
   60.1578   27.3494   45.7133 H   0  0  0  0  0  0  0  0  0  0  0  0
   58.6580   26.3613   45.4354 H   0  0  0  0  0  0  0  0  0  0  0  0
   56.6281   27.3126   44.9492 H   0  0  0  0  0  0  0  0  0  0  0  0
   60.7426   29.1288   46.7686 H   0  0  0  0  0  0  0  0  0  0  0  0
   61.5495   31.4464   47.1599 H   0  0  0  0  0  0  0  0  0  0  0  0
   61.2022   33.8479   47.0675 H   0  0  0  0  0  0  0  0  0  0  0  0
   59.7623   35.8027   46.4980 H   0  0  0  0  0  0  0  0  0  0  0  0
   57.4990   35.4477   45.5155 H   0  0  0  0  0  0  0  0  0  0  0  0
   56.6562   33.1365   45.1067 H   0  0  0  0  0  0  0  0  0  0  0  0
  1  2  1  0
  2  3  1  0
  3  4  1  0
  4  5  2  0
  5  6  1  0
  6  7  2  0
  6  8  1  0
  8  9  1  0
  9 10  2  0
 10 11  1  0
 11 12  2  0
 12 13  1  0
 13 14  2  0
 14 15  1  0
 15 16  2  0
 16 17  1  0
 17 18  2  0
 10  4  1  0
 18 13  1  0
 18  9  1  0
  1 19  1  0
  1 20  1  0
  1 21  1  0
  2 22  1  0
  2 23  1  0
  3 24  1  0
  3 25  1  0
  5 26  1  0
 11 27  1  0
 12 28  1  0
 14 29  1  0
 15 30  1  0
 16 31  1  0
 17 32  1  0
M  END
>  <UniqueID>  (29) 
28

>  <SMILES>  (29) 
CCCc1cc(=O)oc2c1ccc1ccccc12

>  <Energy>  (29) 
40.050236982378365

>  <Genealogy>  (29) 
CCCc1cc(=O)oc2c1ccc1ccccc12 (3D coordinates assigned)
CCCc1cc(=O)oc2c1ccc1ccccc12 (optimized conformer: 40.050236982378365 kcal/mol)

>  <smiles>  (29) 
CCCc1cc(=O)oc2c1ccc1ccccc12

>  <score_type>  (29) 
oracle

>  <origin>  (29) 
adg

>  <m_score__min__energy>  (29) 
-7.3200000000000003

>  <m_primary>  (29) 
energy

$$$$
29:0
     RDKit          3D

 54 56  0  0  0  0  0  0  0  0999 V2000
   58.4070   34.5740   44.8560 C   0  0  0  0  0  0  0  0  0  0  0  0
   57.4500   34.2060   45.9780 C   0  0  0  0  0  0  0  0  0  0  0  0
   58.1490   33.4480   46.9620 O   0  0  0  0  0  0  0  0  0  0  0  0
   59.0640   32.3990   46.7340 C   0  0  0  0  0  0  0  0  0  0  0  0
   58.7340   31.2230   46.0080 C   0  0  0  0  0  0  0  0  0  0  0  0
   57.4430   31.0730   45.4710 O   0  0  0  0  0  0  0  0  0  0  0  0
   57.1190   30.5520   44.1810 C   0  0  0  0  0  0  0  0  0  0  0  0
   56.1790   29.3520   44.3050 C   0  0  0  0  0  0  0  0  0  0  0  0
   56.6530   28.4560   45.3660 N   0  0  0  0  0  0  0  0  0  0  0  0
   57.5510   27.4080   44.8540 C   0  0  0  0  0  0  0  0  0  0  0  0
   58.7190   27.1090   45.8140 C   0  0  0  0  0  0  0  0  0  0  0  0
   58.2650   27.1440   47.2780 C   0  0  0  0  0  0  0  0  0  0  0  0
   58.1830   28.4840   47.7660 O   0  0  0  0  0  0  0  0  0  0  0  0
   59.0180   29.0490   48.7450 C   0  0  0  0  0  0  0  0  0  0  0  0
   60.2080   28.3810   49.0630 C   0  0  0  0  0  0  0  0  0  0  0  0
   61.0770   28.9000   50.0270 C   0  0  0  0  0  0  0  0  0  0  0  0
   60.7660   30.0940   50.6810 C   0  0  0  0  0  0  0  0  0  0  0  0
   59.5850   30.7720   50.3690 C   0  0  0  0  0  0  0  0  0  0  0  0
   58.7120   30.2570   49.4050 C   0  0  0  0  0  0  0  0  0  0  0  0
   59.7080   30.2190   45.8440 C   0  0  0  0  0  0  0  0  0  0  0  0
   60.9880   30.3680   46.3690 C   0  0  0  0  0  0  0  0  0  0  0  0
   61.3300   31.5230   47.0740 C   0  0  0  0  0  0  0  0  0  0  0  0
   62.6250   31.6710   47.5980 C   0  0  0  0  0  0  0  0  0  0  0  0
   62.9700   32.8260   48.3020 C   0  0  0  0  0  0  0  0  0  0  0  0
   62.0290   33.8400   48.4890 C   0  0  0  0  0  0  0  0  0  0  0  0
   60.7370   33.7040   47.9750 C   0  0  0  0  0  0  0  0  0  0  0  0
   60.3690   32.5460   47.2600 C   0  0  0  0  0  0  0  0  0  0  0  0
   59.3524   34.9376   45.2849 H   0  0  0  0  0  0  0  0  0  0  0  0
   58.6029   33.6871   44.2355 H   0  0  0  0  0  0  0  0  0  0  0  0
   57.9582   35.3637   44.2355 H   0  0  0  0  0  0  0  0  0  0  0  0
   57.0501   35.1228   46.4357 H   0  0  0  0  0  0  0  0  0  0  0  0
   56.6193   33.6090   45.5736 H   0  0  0  0  0  0  0  0  0  0  0  0
   56.6270   31.3367   43.5875 H   0  0  0  0  0  0  0  0  0  0  0  0
   58.0464   30.2262   43.6873 H   0  0  0  0  0  0  0  0  0  0  0  0
   55.1666   29.7052   44.5507 H   0  0  0  0  0  0  0  0  0  0  0  0
   56.1599   28.8058   43.3504 H   0  0  0  0  0  0  0  0  0  0  0  0
   57.1560   29.0200   46.0930 H   0  0  0  0  0  0  0  0  0  0  0  0
   56.9695   26.4857   44.7083 H   0  0  0  0  0  0  0  0  0  0  0  0
   57.9807   27.7696   43.9082 H   0  0  0  0  0  0  0  0  0  0  0  0
   59.1209   26.1103   45.5880 H   0  0  0  0  0  0  0  0  0  0  0  0
   59.4890   27.8817   45.6725 H   0  0  0  0  0  0  0  0  0  0  0  0
   57.2740   26.6731   47.3568 H   0  0  0  0  0  0  0  0  0  0  0  0
   59.0049   26.5997   47.8832 H   0  0  0  0  0  0  0  0  0  0  0  0
   60.4602   27.4411   48.5502 H   0  0  0  0  0  0  0  0  0  0  0  0
   62.0077   28.3668   50.2710 H   0  0  0  0  0  0  0  0  0  0  0  0
   61.4500   30.5001   51.4408 H   0  0  0  0  0  0  0  0  0  0  0  0
   59.3409   31.7135   50.8829 H   0  0  0  0  0  0  0  0  0  0  0  0
   57.7844   30.7957   49.1611 H   0  0  0  0  0  0  0  0  0  0  0  0
   59.4528   29.3024   45.2920 H   0  0  0  0  0  0  0  0  0  0  0  0
   61.7338   29.5718   46.2277 H   0  0  0  0  0  0  0  0  0  0  0  0
   63.3695   30.8743   47.4531 H   0  0  0  0  0  0  0  0  0  0  0  0
   63.9854   32.9373   48.7102 H   0  0  0  0  0  0  0  0  0  0  0  0
   62.3057   34.7492   49.0429 H   0  0  0  0  0  0  0  0  0  0  0  0
   60.0010   34.5068   48.1294 H   0  0  0  0  0  0  0  0  0  0  0  0
  1  2  1  0
  2  3  1  0
  3  4  1  0
  4  5  2  0
  5  6  1  0
  6  7  1  0
  7  8  1  0
  8  9  1  0
  9 10  1  0
 10 11  1  0
 11 12  1  0
 12 13  1  0
 13 14  1  0
 14 15  2  0
 15 16  1  0
 16 17  2  0
 17 18  1  0
 18 19  2  0
  5 20  1  0
 20 21  2  0
 21 22  1  0
 22 23  2  0
 23 24  1  0
 24 25  2  0
 25 26  1  0
 26 27  2  0
 27  4  1  0
 19 14  1  0
 27 22  1  0
  1 28  1  0
  1 29  1  0
  1 30  1  0
  2 31  1  0
  2 32  1  0
  7 33  1  0
  7 34  1  0
  8 35  1  0
  8 36  1  0
  9 37  1  0
 10 38  1  0
 10 39  1  0
 11 40  1  0
 11 41  1  0
 12 42  1  0
 12 43  1  0
 15 44  1  0
 16 45  1  0
 17 46  1  0
 18 47  1  0
 19 48  1  0
 20 49  1  0
 21 50  1  0
 23 51  1  0
 24 52  1  0
 25 53  1  0
 26 54  1  0
M  END
>  <UniqueID>  (30) 
29

>  <SMILES>  (30) 
CCOc1c(OCCNCCCOc2ccccc2)ccc2ccccc12

>  <Energy>  (30) 
55.28306255203249

>  <Genealogy>  (30) 
CCOc1c(OCCNCCCOc2ccccc2)ccc2ccccc12 (3D coordinates assigned)
CCOc1c(OCCNCCCOc2ccccc2)ccc2ccccc12 (optimized conformer: 55.28306255203249 kcal/mol)

>  <smiles>  (30) 
CCOc1c(OCCNCCCOc2ccccc2)ccc2ccccc12

>  <score_type>  (30) 
oracle

>  <origin>  (30) 
adg

>  <m_score__min__energy>  (30) 
-7.5499999999999998

>  <m_primary>  (30) 
energy

$$$$
30:0
     RDKit          3D

 56 59  0  0  0  0  0  0  0  0999 V2000
   59.2970   34.8950   45.7750 C   0  0  0  0  0  0  0  0  0  0  0  0
   58.2090   34.3050   46.2790 C   0  0  0  0  0  0  0  0  0  0  0  0
   57.0980   33.8140   45.3940 C   0  0  0  0  0  0  0  0  0  0  0  0
   57.3220   32.4220   45.0230 N   0  0  0  0  0  0  0  0  0  0  0  0
   58.5100   31.8060   44.9040 C   0  0  0  0  0  0  0  0  0  0  0  0
   58.2230   30.4800   44.6670 C   0  0  0  0  0  0  0  0  0  0  0  0
   59.2110   29.3630   44.5330 C   0  0  0  0  0  0  0  0  0  0  0  0
   58.8750   28.2900   45.4120 O   0  0  0  0  0  0  0  0  0  0  0  0
   58.4010   27.0270   45.0140 C   0  0  0  0  0  0  0  0  0  0  0  0
   57.8520   26.7980   43.7410 C   0  0  0  0  0  0  0  0  0  0  0  0
   57.4170   25.5240   43.3750 C   0  0  0  0  0  0  0  0  0  0  0  0
   57.5150   24.4490   44.2730 C   0  0  0  0  0  0  0  0  0  0  0  0
   57.0530   23.0900   43.8810 C   0  0  0  0  0  0  0  0  0  0  0  0
   57.5800   21.8780   44.2920 C   0  0  0  0  0  0  0  0  0  0  0  0
   56.8250   20.9060   43.6710 C   0  0  0  0  0  0  0  0  0  0  0  0
   55.8960   21.4690   42.9340 O   0  0  0  0  0  0  0  0  0  0  0  0
   56.0030   22.7740   43.0350 C   0  0  0  0  0  0  0  0  0  0  0  0
   58.0520   24.6830   45.5520 C   0  0  0  0  0  0  0  0  0  0  0  0
   58.4840   25.9700   45.9310 C   0  0  0  0  0  0  0  0  0  0  0  0
   59.0100   26.2430   47.2060 O   0  0  0  0  0  0  0  0  0  0  0  0
   60.3020   26.7870   47.4780 C   0  0  0  0  0  0  0  0  0  0  0  0
   60.3750   27.3180   48.9120 C   0  0  0  0  0  0  0  0  0  0  0  0
   60.9720   28.6740   48.9110 N   0  0  0  0  0  0  0  0  0  0  0  0
   60.5900   29.4580   47.7150 C   0  0  0  0  0  0  0  0  0  0  0  0
   59.2800   30.2470   47.9250 C   0  0  0  0  0  0  0  0  0  0  0  0
   58.5090   29.6780   48.9610 O   0  0  0  0  0  0  0  0  0  0  0  0
   59.1740   29.8380   50.2030 C   0  0  0  0  0  0  0  0  0  0  0  0
   60.6630   29.4210   50.1450 C   0  0  0  0  0  0  0  0  0  0  0  0
   56.8850   30.3250   44.6510 N   0  0  0  0  0  0  0  0  0  0  0  0
   56.3620   31.5220   44.8760 N   0  0  0  0  0  0  0  0  0  0  0  0
   60.0944   35.2445   46.4473 H   0  0  0  0  0  0  0  0  0  0  0  0
   59.3951   35.0312   44.6879 H   0  0  0  0  0  0  0  0  0  0  0  0
   58.1246   34.1756   47.3681 H   0  0  0  0  0  0  0  0  0  0  0  0
   56.1423   33.8964   45.9324 H   0  0  0  0  0  0  0  0  0  0  0  0
   57.0713   34.4270   44.4810 H   0  0  0  0  0  0  0  0  0  0  0  0
   59.5064   32.2658   44.9801 H   0  0  0  0  0  0  0  0  0  0  0  0
   59.2047   28.9967   43.4958 H   0  0  0  0  0  0  0  0  0  0  0  0
   60.2106   29.7389   44.7965 H   0  0  0  0  0  0  0  0  0  0  0  0
   57.7645   27.6302   43.0270 H   0  0  0  0  0  0  0  0  0  0  0  0
   56.9931   25.3600   42.3733 H   0  0  0  0  0  0  0  0  0  0  0  0
   58.4282   21.7221   44.9748 H   0  0  0  0  0  0  0  0  0  0  0  0
   56.9780   19.8219   43.7771 H   0  0  0  0  0  0  0  0  0  0  0  0
   55.3573   23.5044   42.5255 H   0  0  0  0  0  0  0  0  0  0  0  0
   58.1359   23.8504   46.2659 H   0  0  0  0  0  0  0  0  0  0  0  0
   61.0600   26.0010   47.3450 H   0  0  0  0  0  0  0  0  0  0  0  0
   60.4887   27.6190   46.7830 H   0  0  0  0  0  0  0  0  0  0  0  0
   59.3615   27.3647   49.3369 H   0  0  0  0  0  0  0  0  0  0  0  0
   60.9986   26.6452   49.5190 H   0  0  0  0  0  0  0  0  0  0  0  0
   61.3977   30.1684   47.4850 H   0  0  0  0  0  0  0  0  0  0  0  0
   60.4282   28.7516   46.8874 H   0  0  0  0  0  0  0  0  0  0  0  0
   59.5242   31.2869   48.1876 H   0  0  0  0  0  0  0  0  0  0  0  0
   58.6962   30.2125   46.9934 H   0  0  0  0  0  0  0  0  0  0  0  0
   59.1168   30.8960   50.4984 H   0  0  0  0  0  0  0  0  0  0  0  0
   58.6751   29.1827   50.9322 H   0  0  0  0  0  0  0  0  0  0  0  0
   61.2882   30.3253   50.1805 H   0  0  0  0  0  0  0  0  0  0  0  0
   60.8696   28.7655   51.0039 H   0  0  0  0  0  0  0  0  0  0  0  0
  1  2  2  0
  2  3  1  0
  3  4  1  0
  4  5  1  0
  5  6  2  0
  6  7  1  0
  7  8  1  0
  8  9  1  0
  9 10  2  0
 10 11  1  0
 11 12  2  0
 12 13  1  0
 13 14  1  0
 14 15  2  0
 15 16  1  0
 16 17  1  0
 12 18  1  0
 18 19  2  0
 19 20  1  0
 20 21  1  0
 21 22  1  0
 22 23  1  0
 23 24  1  0
 24 25  1  0
 25 26  1  0
 26 27  1  0
 27 28  1  0
  6 29  1  0
 29 30  2  0
 30  4  1  0
 19  9  1  0
 28 23  1  0
 17 13  2  0
  1 31  1  0
  1 32  1  0
  2 33  1  0
  3 34  1  0
  3 35  1  0
  5 36  1  0
  7 37  1  0
  7 38  1  0
 10 39  1  0
 11 40  1  0
 14 41  1  0
 15 42  1  0
 17 43  1  0
 18 44  1  0
 21 45  1  0
 21 46  1  0
 22 47  1  0
 22 48  1  0
 24 49  1  0
 24 50  1  0
 25 51  1  0
 25 52  1  0
 27 53  1  0
 27 54  1  0
 28 55  1  0
 28 56  1  0
M  END
>  <UniqueID>  (31) 
30

>  <SMILES>  (31) 
C=CCn1cc(COc2ccc(-c3ccoc3)cc2OCCN2CCOCC2)nn1

>  <Energy>  (31) 
128.6080706062934

>  <Genealogy>  (31) 
C=CCn1cc(COc2ccc(-c3ccoc3)cc2OCCN2CCOCC2)nn1 (3D coordinates assigned)
C=CCn1cc(COc2ccc(-c3ccoc3)cc2OCCN2CCOCC2)nn1 (nonaromatic ring conformer: 128.6080706062934 kcal/mol)

>  <smiles>  (31) 
C=CCn1cc(COc2ccc(-c3ccoc3)cc2OCCN2CCOCC2)nn1

>  <score_type>  (31) 
oracle

>  <origin>  (31) 
adg

>  <m_score__min__energy>  (31) 
-7.7300000000000004

>  <m_primary>  (31) 
energy

$$$$
31:0
     RDKit          3D

 19 19  0  0  0  0  0  0  0  0999 V2000
   56.0550   31.5930   44.8610 O   0  0  0  0  0  0  0  0  0  0  0  0
   57.0060   30.8560   44.4840 C   0  0  0  0  0  0  0  0  0  0  0  0
   58.3590   31.3360   44.5230 N   0  0  0  0  0  0  0  0  0  0  0  0
   58.7570   32.5410   45.2010 C   0  0  0  0  0  0  0  0  0  0  0  0
   58.8430   33.7580   44.5000 C   0  0  0  0  0  0  0  0  0  0  0  0
   59.2010   34.9340   45.1640 C   0  0  0  0  0  0  0  0  0  0  0  0
   59.4650   34.9110   46.5340 C   0  0  0  0  0  0  0  0  0  0  0  0
   59.3690   33.7140   47.2460 C   0  0  0  0  0  0  0  0  0  0  0  0
   59.6260   33.7070   48.5790 F   0  0  0  0  0  0  0  0  0  0  0  0
   59.0100   32.5280   46.5890 C   0  0  0  0  0  0  0  0  0  0  0  0
   58.9200   31.0330   47.5140 Cl  0  0  0  0  0  0  0  0  0  0  0  0
   56.7110   29.5030   43.9100 C   0  0  0  0  0  0  0  0  0  0  0  0
   57.7960   28.6600   44.0790 F   0  0  0  0  0  0  0  0  0  0  0  0
   55.6130   28.9630   44.5500 F   0  0  0  0  0  0  0  0  0  0  0  0
   56.4410   29.6190   42.5590 F   0  0  0  0  0  0  0  0  0  0  0  0
   59.0800   30.8060   43.9830 H   0  0  0  0  0  0  0  0  0  0  0  0
   58.6269   33.7837   43.4217 H   0  0  0  0  0  0  0  0  0  0  0  0
   59.2748   35.8792   44.6061 H   0  0  0  0  0  0  0  0  0  0  0  0
   59.7493   35.8377   47.0539 H   0  0  0  0  0  0  0  0  0  0  0  0
  1  2  2  0
  2  3  1  0
  3  4  1  0
  4  5  2  0
  5  6  1  0
  6  7  2  0
  7  8  1  0
  8  9  1  0
  8 10  2  0
 10 11  1  0
  2 12  1  0
 12 13  1  0
 12 14  1  0
 12 15  1  0
 10  4  1  0
  3 16  1  0
  5 17  1  0
  6 18  1  0
  7 19  1  0
M  END
>  <UniqueID>  (32) 
31

>  <SMILES>  (32) 
O=C(Nc1cccc(F)c1Cl)C(F)(F)F

>  <Energy>  (32) 
20.995969519053524

>  <Genealogy>  (32) 
O=C(Nc1cccc(F)c1Cl)C(F)(F)F (3D coordinates assigned)
O=C(Nc1cccc(F)c1Cl)C(F)(F)F (optimized conformer: 20.995969519053524 kcal/mol)

>  <smiles>  (32) 
O=C(Nc1cccc(F)c1Cl)C(F)(F)F

>  <score_type>  (32) 
oracle

>  <origin>  (32) 
adg

>  <m_score__min__energy>  (32) 
-4.6900000000000004

>  <m_primary>  (32) 
energy

$$$$
32:0
     RDKit          3D

 52 55  0  0  0  0  0  0  0  0999 V2000
   57.3210   31.2000   42.8060 C   0  0  0  0  0  0  0  0  0  0  0  0
   56.2710   30.5810   43.7140 C   0  0  0  0  0  0  0  0  0  0  0  0
   56.6520   30.7750   45.0720 O   0  0  0  0  0  0  0  0  0  0  0  0
   57.7430   31.5430   45.5100 C   0  0  0  0  0  0  0  0  0  0  0  0
   58.9050   30.9190   45.8310 C   0  0  0  0  0  0  0  0  0  0  0  0
   59.0240   29.4280   45.7460 C   0  0  0  0  0  0  0  0  0  0  0  0
   59.6790   28.7660   46.7280 C   0  0  0  0  0  0  0  0  0  0  0  0
   60.4090   29.5530   47.7930 C   0  0  0  0  0  0  0  0  0  0  0  0
   61.1050   30.7550   47.1210 C   0  0  2  0  0  0  0  0  0  0  0  0
   62.1610   31.4480   47.9740 C   0  0  0  0  0  0  0  0  0  0  0  0
   62.2870   31.0840   49.3270 C   0  0  0  0  0  0  0  0  0  0  0  0
   63.2520   31.6830   50.1400 C   0  0  0  0  0  0  0  0  0  0  0  0
   64.1100   32.6510   49.6130 C   0  0  0  0  0  0  0  0  0  0  0  0
   65.4310   33.4650   50.7260 Br  0  0  0  0  0  0  0  0  0  0  0  0
   64.0040   33.0180   48.2700 C   0  0  0  0  0  0  0  0  0  0  0  0
   63.0390   32.4220   47.4520 C   0  0  0  0  0  0  0  0  0  0  0  0
   60.0460   31.7140   46.4830 C   0  0  2  0  0  0  0  0  0  0  0  0
   59.4520   32.7600   47.4200 C   0  0  0  0  0  0  0  0  0  0  0  0
   59.9830   33.0440   48.4810 O   0  0  0  0  0  0  0  0  0  0  0  0
   58.2040   33.5070   47.0320 C   0  0  0  0  0  0  0  0  0  0  0  0
   57.6180   33.0500   45.6800 C   0  0  1  0  0  0  0  0  0  0  0  0
   58.2340   33.7960   44.4880 C   0  0  0  0  0  0  0  0  0  0  0  0
   59.7010   27.2790   46.7450 C   0  0  0  0  0  0  0  0  0  0  0  0
   60.2690   26.6650   47.6890 O   0  0  0  0  0  0  0  0  0  0  0  0
   59.0880   26.4800   45.6260 C   0  0  0  0  0  0  0  0  0  0  0  0
   58.0510   27.3020   44.8530 C   0  0  0  0  0  0  0  0  0  0  0  0
   58.6250   28.6720   44.4920 C   0  0  0  0  0  0  0  0  0  0  0  0
   58.1080   31.6640   43.4186 H   0  0  0  0  0  0  0  0  0  0  0  0
   57.7636   30.4183   42.1711 H   0  0  0  0  0  0  0  0  0  0  0  0
   56.8513   31.9657   42.1711 H   0  0  0  0  0  0  0  0  0  0  0  0
   55.2984   31.0618   43.5327 H   0  0  0  0  0  0  0  0  0  0  0  0
   56.1895   29.5044   43.5037 H   0  0  0  0  0  0  0  0  0  0  0  0
   59.6921   29.9124   48.5459 H   0  0  0  0  0  0  0  0  0  0  0  0
   61.1544   28.9146   48.2897 H   0  0  0  0  0  0  0  0  0  0  0  0
   61.7139   30.3511   46.2988 H   0  0  0  0  0  0  0  0  0  0  0  0
   61.6184   30.3194   49.7493 H   0  0  0  0  0  0  0  0  0  0  0  0
   63.3364   31.3918   51.1974 H   0  0  0  0  0  0  0  0  0  0  0  0
   64.6816   33.7782   47.8542 H   0  0  0  0  0  0  0  0  0  0  0  0
   62.9637   32.7144   46.3942 H   0  0  0  0  0  0  0  0  0  0  0  0
   60.6200   32.2740   45.7300 H   0  0  0  0  0  0  0  0  0  0  0  0
   57.4454   33.3498   47.8129 H   0  0  0  0  0  0  0  0  0  0  0  0
   58.4766   34.5676   46.9284 H   0  0  0  0  0  0  0  0  0  0  0  0
   56.5488   33.3079   45.6946 H   0  0  0  0  0  0  0  0  0  0  0  0
   58.8938   34.5951   44.8569 H   0  0  0  0  0  0  0  0  0  0  0  0
   58.8173   33.0918   43.8765 H   0  0  0  0  0  0  0  0  0  0  0  0
   57.4322   34.2356   43.8765 H   0  0  0  0  0  0  0  0  0  0  0  0
   59.8830   26.1654   44.9339 H   0  0  0  0  0  0  0  0  0  0  0  0
   58.5812   25.6066   46.0623 H   0  0  0  0  0  0  0  0  0  0  0  0
   57.7783   26.7680   43.9308 H   0  0  0  0  0  0  0  0  0  0  0  0
   57.1608   27.4411   45.4840 H   0  0  0  0  0  0  0  0  0  0  0  0
   59.5105   28.5367   43.8536 H   0  0  0  0  0  0  0  0  0  0  0  0
   57.8569   29.2500   43.9572 H   0  0  0  0  0  0  0  0  0  0  0  0
  1  2  1  0
  2  3  1  0
  3  4  1  0
  4  5  2  0
  5  6  1  0
  6  7  2  0
  7  8  1  0
  8  9  1  0
  9 10  1  0
 10 11  2  0
 11 12  1  0
 12 13  2  0
 13 14  1  0
 13 15  1  0
 15 16  2  0
  9 17  1  0
 17 18  1  0
 18 19  2  0
 18 20  1  0
 20 21  1  0
 21 22  1  0
  7 23  1  0
 23 24  2  0
 23 25  1  0
 25 26  1  0
 26 27  1  0
 21  4  1  0
 17  5  1  0
 27  6  1  0
 16 10  1  0
  1 28  1  0
  1 29  1  0
  1 30  1  0
  2 31  1  0
  2 32  1  0
  8 33  1  0
  8 34  1  0
  9 35  1  6
 11 36  1  0
 12 37  1  0
 15 38  1  0
 16 39  1  0
 17 40  1  6
 20 41  1  0
 20 42  1  0
 21 43  1  1
 22 44  1  0
 22 45  1  0
 22 46  1  0
 25 47  1  0
 25 48  1  0
 26 49  1  0
 26 50  1  0
 27 51  1  0
 27 52  1  0
M  END
>  <UniqueID>  (33) 
32

>  <SMILES>  (33) 
CCOC1=C2C3=C(C[C@H](c4ccc(Br)cc4)[C@@H]2C(=O)CC1C)C(=O)CCC3

>  <Energy>  (33) 
69.10929494787634

>  <Genealogy>  (33) 
CCOC1=C2C3=C(C[C@H](c4ccc(Br)cc4)[C@@H]2C(=O)CC1C)C(=O)CCC3 (chirality)
CCOC1=C2C3=C(C[C@H](c4ccc(Br)cc4)[C@@H]2C(=O)CC1C)C(=O)CCC3 (3D coordinates assigned)
CCOC1=C2C3=C(C[C@H](c4ccc(Br)cc4)[C@@H]2C(=O)CC1C)C(=O)CCC3 (nonaromatic ring conformer: 69.10929494787634 kcal/mol)

>  <smiles>  (33) 
CCOC1=C2C3=C(CC(c4ccc(Br)cc4)C2C(=O)CC1C)C(=O)CCC3

>  <score_type>  (33) 
oracle

>  <origin>  (33) 
adg

>  <m_score__min__energy>  (33) 
-10.15

>  <m_primary>  (33) 
energy

$$$$
33:0
     RDKit          3D

 38 41  0  0  0  0  0  0  0  0999 V2000
   59.2200   34.4250   46.0090 C   0  0  0  0  0  0  0  0  0  0  0  0
   59.4200   32.9470   46.3260 C   0  0  0  0  0  0  0  0  0  0  0  0
   58.5310   32.1260   45.5040 N   0  0  0  0  0  0  0  0  0  0  0  0
   57.9430   32.5070   44.3450 C   0  0  0  0  0  0  0  0  0  0  0  0
   57.2150   31.4570   43.7990 C   0  0  0  0  0  0  0  0  0  0  0  0
   57.3880   30.4010   44.6700 C   0  0  0  0  0  0  0  0  0  0  0  0
   56.9010   29.0990   44.6140 C   0  0  0  0  0  0  0  0  0  0  0  0
   57.2580   28.2000   45.6480 C   0  0  0  0  0  0  0  0  0  0  0  0
   56.7660   26.8440   45.6160 N   0  0  0  0  0  0  0  0  0  0  0  0
   57.2140   25.8140   44.8700 C   0  0  0  0  0  0  0  0  0  0  0  0
   56.4210   24.7270   45.1870 C   0  0  0  0  0  0  0  0  0  0  0  0
   56.4980   23.3520   44.6400 C   0  0  0  0  0  0  0  0  0  0  0  0
   56.5710   23.1260   43.2530 C   0  0  0  0  0  0  0  0  0  0  0  0
   56.6440   21.8190   42.7710 C   0  0  0  0  0  0  0  0  0  0  0  0
   56.6430   20.7480   43.6620 C   0  0  0  0  0  0  0  0  0  0  0  0
   56.5710   21.0000   45.0320 C   0  0  0  0  0  0  0  0  0  0  0  0
   56.5010   22.2810   45.4910 N   0  0  0  0  0  0  0  0  0  0  0  0
   55.5200   25.1250   46.1080 N   0  0  0  0  0  0  0  0  0  0  0  0
   55.7520   26.4070   46.3470 N   0  0  0  0  0  0  0  0  0  0  0  0
   58.0960   28.6580   46.7030 C   0  0  0  0  0  0  0  0  0  0  0  0
   58.5710   29.9810   46.7270 C   0  0  0  0  0  0  0  0  0  0  0  0
   58.1930   30.8330   45.6900 C   0  0  0  0  0  0  0  0  0  0  0  0
   59.1430   34.9941   46.9472 H   0  0  0  0  0  0  0  0  0  0  0  0
   60.0764   34.7940   45.4256 H   0  0  0  0  0  0  0  0  0  0  0  0
   58.2963   34.5532   45.4256 H   0  0  0  0  0  0  0  0  0  0  0  0
   60.4642   32.6697   46.1192 H   0  0  0  0  0  0  0  0  0  0  0  0
   59.1869   32.7742   47.3870 H   0  0  0  0  0  0  0  0  0  0  0  0
   58.0297   33.5084   43.8981 H   0  0  0  0  0  0  0  0  0  0  0  0
   56.6260   31.4658   42.8700 H   0  0  0  0  0  0  0  0  0  0  0  0
   56.2536   28.7755   43.7856 H   0  0  0  0  0  0  0  0  0  0  0  0
   58.0463   25.8346   44.1510 H   0  0  0  0  0  0  0  0  0  0  0  0
   56.5705   23.9747   42.5532 H   0  0  0  0  0  0  0  0  0  0  0  0
   56.7023   21.6341   41.6882 H   0  0  0  0  0  0  0  0  0  0  0  0
   56.6984   19.7146   43.2891 H   0  0  0  0  0  0  0  0  0  0  0  0
   56.5707   20.1617   45.7443 H   0  0  0  0  0  0  0  0  0  0  0  0
   56.4480   22.4290   46.5230 H   0  0  0  0  0  0  0  0  0  0  0  0
   58.3762   27.9668   47.5115 H   0  0  0  0  0  0  0  0  0  0  0  0
   59.2221   30.3338   47.5404 H   0  0  0  0  0  0  0  0  0  0  0  0
  1  2  1  0
  2  3  1  0
  3  4  1  0
  4  5  2  0
  5  6  1  0
  6  7  2  0
  7  8  1  0
  8  9  1  0
  9 10  1  0
 10 11  2  0
 11 12  1  0
 12 13  2  0
 13 14  1  0
 14 15  2  0
 15 16  1  0
 16 17  2  0
 11 18  1  0
 18 19  2  0
  8 20  2  0
 20 21  1  0
 21 22  2  0
 22  3  1  0
 22  6  1  0
 19  9  1  0
 17 12  1  0
  1 23  1  0
  1 24  1  0
  1 25  1  0
  2 26  1  0
  2 27  1  0
  4 28  1  0
  5 29  1  0
  7 30  1  0
 10 31  1  0
 13 32  1  0
 14 33  1  0
 15 34  1  0
 16 35  1  0
 17 36  1  0
 20 37  1  0
 21 38  1  0
M  CHG  1  17   1
M  END
>  <UniqueID>  (34) 
33

>  <SMILES>  (34) 
CCn1ccc2cc(-n3cc(-c4cccc[nH+]4)nn3)ccc21

>  <Energy>  (34) 
110.75596425261816

>  <Genealogy>  (34) 
CCn1ccc2cc(-n3cc(-c4cccc[nH+]4)nn3)ccc21 (protonated)
CCn1ccc2cc(-n3cc(-c4cccc[nH+]4)nn3)ccc21 (3D coordinates assigned)
CCn1ccc2cc(-n3cc(-c4cccc[nH+]4)nn3)ccc21 (optimized conformer: 110.75596425261816 kcal/mol)

>  <smiles>  (34) 
CCn1ccc2cc(-n3cc(-c4ccccn4)nn3)ccc21

>  <score_type>  (34) 
oracle

>  <origin>  (34) 
adg

>  <m_score__min__energy>  (34) 
-6.4900000000000002

>  <m_primary>  (34) 
energy

$$$$
34:0
     RDKit          3D

 55 57  0  0  0  0  0  0  0  0999 V2000
   65.3090   31.9990   50.3930 C   0  0  0  0  0  0  0  0  0  0  0  0
   64.4510   33.2350   50.1560 C   0  0  0  0  0  0  0  0  0  0  0  0
   63.6380   33.0650   48.9520 N   0  0  0  0  0  0  0  0  0  0  0  0
   64.1470   32.9210   47.7370 N   0  0  0  0  0  0  0  0  0  0  0  0
   63.1450   32.7060   46.8640 C   0  0  0  0  0  0  0  0  0  0  0  0
   61.9490   32.7080   47.5580 C   0  0  0  0  0  0  0  0  0  0  0  0
   60.5850   32.4540   46.9890 C   0  0  0  0  0  0  0  0  0  0  0  0
   59.8560   33.7330   46.8340 N   0  0  0  0  0  0  0  0  0  0  0  0
   58.5070   33.6900   47.4550 C   0  0  0  0  0  0  0  0  0  0  0  0
   57.3970   33.2610   46.4780 C   0  0  0  0  0  0  0  0  0  0  0  0
   57.9790   32.5330   45.3430 N   0  0  0  0  0  0  0  0  0  0  0  0
   56.9900   31.7820   44.5370 C   0  0  0  0  0  0  0  0  0  0  0  0
   57.2930   30.2760   44.3910 C   0  0  0  0  0  0  0  0  0  0  0  0
   58.3890   29.8710   45.3400 C   0  0  0  0  0  0  0  0  0  0  0  0
   58.1510   29.8370   46.7240 C   0  0  0  0  0  0  0  0  0  0  0  0
   59.1590   29.4280   47.6030 C   0  0  0  0  0  0  0  0  0  0  0  0
   60.4070   29.0410   47.1060 C   0  0  0  0  0  0  0  0  0  0  0  0
   60.6470   29.0580   45.7290 C   0  0  0  0  0  0  0  0  0  0  0  0
   59.6410   29.4660   44.8470 C   0  0  0  0  0  0  0  0  0  0  0  0
   58.8530   33.4050   44.5360 C   0  0  0  0  0  0  0  0  0  0  0  0
   59.8400   34.2100   45.4280 C   0  0  1  0  0  0  0  0  0  0  0  0
   59.5450   35.7170   45.3880 C   0  0  0  0  0  0  0  0  0  0  0  0
   62.2950   32.9290   48.8830 C   0  0  0  0  0  0  0  0  0  0  0  0
   61.3630   32.9880   50.0570 C   0  0  0  0  0  0  0  0  0  0  0  0
   65.4235   31.8340   51.4745 H   0  0  0  0  0  0  0  0  0  0  0  0
   64.8238   31.1230   49.9378 H   0  0  0  0  0  0  0  0  0  0  0  0
   66.2994   32.1473   49.9378 H   0  0  0  0  0  0  0  0  0  0  0  0
   63.7899   33.3893   51.0215 H   0  0  0  0  0  0  0  0  0  0  0  0
   65.1083   34.1071   50.0239 H   0  0  0  0  0  0  0  0  0  0  0  0
   65.1650   32.9520   47.5070 H   0  0  0  0  0  0  0  0  0  0  0  0
   63.2586   32.5542   45.7805 H   0  0  0  0  0  0  0  0  0  0  0  0
   60.6844   31.9697   46.0063 H   0  0  0  0  0  0  0  0  0  0  0  0
   60.0245   31.7989   47.6722 H   0  0  0  0  0  0  0  0  0  0  0  0
   58.5307   32.9756   48.2911 H   0  0  0  0  0  0  0  0  0  0  0  0
   58.2700   34.7115   47.7872 H   0  0  0  0  0  0  0  0  0  0  0  0
   56.6833   32.6082   47.0018 H   0  0  0  0  0  0  0  0  0  0  0  0
   56.8794   34.1569   46.1045 H   0  0  0  0  0  0  0  0  0  0  0  0
   56.0051   31.8893   45.0149 H   0  0  0  0  0  0  0  0  0  0  0  0
   57.0255   32.2075   43.5232 H   0  0  0  0  0  0  0  0  0  0  0  0
   56.3844   29.6990   44.6180 H   0  0  0  0  0  0  0  0  0  0  0  0
   57.6187   30.0741   43.3599 H   0  0  0  0  0  0  0  0  0  0  0  0
   57.1677   30.1333   47.1181 H   0  0  0  0  0  0  0  0  0  0  0  0
   58.9696   29.4108   48.6864 H   0  0  0  0  0  0  0  0  0  0  0  0
   61.2002   28.7231   47.7986 H   0  0  0  0  0  0  0  0  0  0  0  0
   61.6282   28.7501   45.3386 H   0  0  0  0  0  0  0  0  0  0  0  0
   59.8306   29.4698   43.7635 H   0  0  0  0  0  0  0  0  0  0  0  0
   59.4304   32.7826   43.8366 H   0  0  0  0  0  0  0  0  0  0  0  0
   58.2181   34.1207   43.9931 H   0  0  0  0  0  0  0  0  0  0  0  0
   60.8394   34.0360   45.0027 H   0  0  0  0  0  0  0  0  0  0  0  0
   59.4694   36.1032   46.4152 H   0  0  0  0  0  0  0  0  0  0  0  0
   60.3586   36.2360   44.8601 H   0  0  0  0  0  0  0  0  0  0  0  0
   58.5958   35.8909   44.8601 H   0  0  0  0  0  0  0  0  0  0  0  0
   61.9452   32.9511   50.9896 H   0  0  0  0  0  0  0  0  0  0  0  0
   60.7869   33.9244   50.0211 H   0  0  0  0  0  0  0  0  0  0  0  0
   60.6734   32.1317   50.0211 H   0  0  0  0  0  0  0  0  0  0  0  0
  1  2  1  0
  2  3  1  0
  3  4  1  0
  4  5  2  0
  5  6  1  0
  6  7  1  0
  7  8  1  0
  8  9  1  0
  9 10  1  0
 10 11  1  0
 11 12  1  0
 12 13  1  0
 13 14  1  0
 14 15  2  0
 15 16  1  0
 16 17  2  0
 17 18  1  0
 18 19  2  0
 11 20  1  0
 20 21  1  0
 21 22  1  0
  6 23  2  0
 23 24  1  0
 23  3  1  0
 21  8  1  0
 19 14  1  0
  1 25  1  0
  1 26  1  0
  1 27  1  0
  2 28  1  0
  2 29  1  0
  4 30  1  0
  5 31  1  0
  7 32  1  0
  7 33  1  0
  9 34  1  0
  9 35  1  0
 10 36  1  0
 10 37  1  0
 12 38  1  0
 12 39  1  0
 13 40  1  0
 13 41  1  0
 15 42  1  0
 16 43  1  0
 17 44  1  0
 18 45  1  0
 19 46  1  0
 20 47  1  0
 20 48  1  0
 21 49  1  6
 22 50  1  0
 22 51  1  0
 22 52  1  0
 24 53  1  0
 24 54  1  0
 24 55  1  0
M  CHG  1   4   1
M  END
>  <UniqueID>  (35) 
34

>  <SMILES>  (35) 
CCn1[nH+]cc(CN2CCN(CCc3ccccc3)C[C@H]2C)c1C

>  <Energy>  (35) 
93.37520294220226

>  <Genealogy>  (35) 
CCn1[nH+]cc(CN2CCN(CCc3ccccc3)CC2C)c1C (protonated)
CCn1[nH+]cc(CN2CCN(CCc3ccccc3)C[C@H]2C)c1C (chirality)
CCn1[nH+]cc(CN2CCN(CCc3ccccc3)C[C@H]2C)c1C (3D coordinates assigned)
CCn1[nH+]cc(CN2CCN(CCc3ccccc3)C[C@H]2C)c1C (nonaromatic ring conformer: 93.37520294220226 kcal/mol)

>  <smiles>  (35) 
CCn1ncc(CN2CCN(CCc3ccccc3)CC2C)c1C

>  <score_type>  (35) 
oracle

>  <origin>  (35) 
adg

>  <m_score__min__energy>  (35) 
-6.6500000000000004

>  <m_primary>  (35) 
energy

$$$$
35:0
     RDKit          3D

 39 41  0  0  0  0  0  0  0  0999 V2000
   64.5450   33.3180   50.1870 C   0  0  0  0  0  0  0  0  0  0  0  0
   63.3760   33.9770   50.9130 C   0  0  0  0  0  0  0  0  0  0  0  0
   62.5800   34.7380   50.0060 O   0  0  0  0  0  0  0  0  0  0  0  0
   61.8110   34.2140   48.9530 C   0  0  0  0  0  0  0  0  0  0  0  0
   60.4200   34.2110   49.0910 C   0  0  0  0  0  0  0  0  0  0  0  0
   59.6030   33.7030   48.0770 C   0  0  0  0  0  0  0  0  0  0  0  0
   60.1680   33.1890   46.8980 C   0  0  0  0  0  0  0  0  0  0  0  0
   59.3020   32.6490   45.8180 C   0  0  0  0  0  0  0  0  0  0  0  0
   58.7650   33.5020   44.8400 C   0  0  0  0  0  0  0  0  0  0  0  0
   57.9440   32.9970   43.8300 C   0  0  0  0  0  0  0  0  0  0  0  0
   57.6370   31.6310   43.7810 C   0  0  0  0  0  0  0  0  0  0  0  0
   58.1930   30.7580   44.7400 C   0  0  0  0  0  0  0  0  0  0  0  0
   59.0040   31.2760   45.7620 C   0  0  0  0  0  0  0  0  0  0  0  0
   57.8430   29.2890   44.7400 C   0  0  0  0  0  0  0  0  0  0  0  0
   57.3700   28.8320   43.4240 N   0  0  0  0  0  0  0  0  0  0  0  0
   56.2820   29.6860   42.9290 C   0  0  0  0  0  0  0  0  0  0  0  0
   56.7940   31.1040   42.6490 C   0  0  0  0  0  0  0  0  0  0  0  0
   61.5670   33.1960   46.7560 C   0  0  0  0  0  0  0  0  0  0  0  0
   62.3820   33.7030   47.7720 C   0  0  0  0  0  0  0  0  0  0  0  0
   65.2558   32.9173   50.9247 H   0  0  0  0  0  0  0  0  0  0  0  0
   64.1699   32.4984   49.5564 H   0  0  0  0  0  0  0  0  0  0  0  0
   65.0521   34.0632   49.5564 H   0  0  0  0  0  0  0  0  0  0  0  0
   62.7518   33.1971   51.3736 H   0  0  0  0  0  0  0  0  0  0  0  0
   63.7755   34.6527   51.6836 H   0  0  0  0  0  0  0  0  0  0  0  0
   59.9634   34.6128   50.0075 H   0  0  0  0  0  0  0  0  0  0  0  0
   58.5103   33.7057   48.2031 H   0  0  0  0  0  0  0  0  0  0  0  0
   58.9933   34.5776   44.8700 H   0  0  0  0  0  0  0  0  0  0  0  0
   57.5354   33.6764   43.0675 H   0  0  0  0  0  0  0  0  0  0  0  0
   59.4112   30.5998   46.5281 H   0  0  0  0  0  0  0  0  0  0  0  0
   58.7377   28.7114   45.0154 H   0  0  0  0  0  0  0  0  0  0  0  0
   57.0295   29.1350   45.4642 H   0  0  0  0  0  0  0  0  0  0  0  0
   57.0150   27.8520   43.5180 H   0  0  0  0  0  0  0  0  0  0  0  0
   58.1650   28.8310   42.7420 H   0  0  0  0  0  0  0  0  0  0  0  0
   55.8798   29.2567   41.9995 H   0  0  0  0  0  0  0  0  0  0  0  0
   55.4950   29.7380   43.6958 H   0  0  0  0  0  0  0  0  0  0  0  0
   57.4005   31.0883   41.7314 H   0  0  0  0  0  0  0  0  0  0  0  0
   55.9221   31.7652   42.5370 H   0  0  0  0  0  0  0  0  0  0  0  0
   62.0239   32.7991   45.8375 H   0  0  0  0  0  0  0  0  0  0  0  0
   63.4750   33.7027   47.6482 H   0  0  0  0  0  0  0  0  0  0  0  0
  1  2  1  0
  2  3  1  0
  3  4  1  0
  4  5  2  0
  5  6  1  0
  6  7  2  0
  7  8  1  0
  8  9  2  0
  9 10  1  0
 10 11  2  0
 11 12  1  0
 12 13  2  0
 12 14  1  0
 14 15  1  0
 15 16  1  0
 16 17  1  0
  7 18  1  0
 18 19  2  0
 19  4  1  0
 13  8  1  0
 17 11  1  0
  1 20  1  0
  1 21  1  0
  1 22  1  0
  2 23  1  0
  2 24  1  0
  5 25  1  0
  6 26  1  0
  9 27  1  0
 10 28  1  0
 13 29  1  0
 14 30  1  0
 14 31  1  0
 15 32  1  0
 15 33  1  0
 16 34  1  0
 16 35  1  0
 17 36  1  0
 17 37  1  0
 18 38  1  0
 19 39  1  0
M  CHG  1  15   1
M  END
>  <UniqueID>  (36) 
35

>  <SMILES>  (36) 
CCOc1ccc(-c2ccc3c(c2)C[NH2+]CC3)cc1

>  <Energy>  (36) 
45.19797441765371

>  <Genealogy>  (36) 
CCOc1ccc(-c2ccc3c(c2)C[NH2+]CC3)cc1 (protonated)
CCOc1ccc(-c2ccc3c(c2)C[NH2+]CC3)cc1 (3D coordinates assigned)
CCOc1ccc(-c2ccc3c(c2)C[NH2+]CC3)cc1 (nonaromatic ring conformer: 45.19797441765371 kcal/mol)

>  <smiles>  (36) 
CCOc1ccc(-c2ccc3c(c2)CNCC3)cc1

>  <score_type>  (36) 
oracle

>  <origin>  (36) 
adg

>  <m_score__min__energy>  (36) 
-5.7000000000000002

>  <m_primary>  (36) 
energy

$$$$
36:0
     RDKit          3D

 61 62  0  0  0  0  0  0  0  0999 V2000
   58.6350   32.5490   51.2940 C   0  0  0  0  0  0  0  0  0  0  0  0
   59.4990   33.8070   51.3120 C   0  0  0  0  0  0  0  0  0  0  0  0
   60.9660   33.4820   51.0020 C   0  0  0  0  0  0  0  0  0  0  0  0
   61.2580   33.7150   49.5670 N   0  0  0  0  0  0  0  0  0  0  0  0
   62.6300   34.2430   49.3730 C   0  0  0  0  0  0  0  0  0  0  0  0
   63.4380   33.3420   48.4260 C   0  0  0  0  0  0  0  0  0  0  0  0
   63.1000   33.6070   46.9600 C   0  0  0  0  0  0  0  0  0  0  0  0
   60.2320   34.5730   48.9210 C   0  0  0  0  0  0  0  0  0  0  0  0
   59.6350   33.8390   47.7510 C   0  0  0  0  0  0  0  0  0  0  0  0
   59.3650   34.5100   46.5520 C   0  0  0  0  0  0  0  0  0  0  0  0
   58.7770   33.8360   45.4820 C   0  0  0  0  0  0  0  0  0  0  0  0
   58.4370   32.4790   45.5920 C   0  0  0  0  0  0  0  0  0  0  0  0
   57.8060   31.7870   44.4420 C   0  0  0  0  0  0  0  0  0  0  0  0
   58.0140   32.2550   43.1340 C   0  0  0  0  0  0  0  0  0  0  0  0
   57.4270   31.5960   42.0480 C   0  0  0  0  0  0  0  0  0  0  0  0
   56.6250   30.4730   42.2580 C   0  0  0  0  0  0  0  0  0  0  0  0
   56.4070   30.0060   43.5550 C   0  0  0  0  0  0  0  0  0  0  0  0
   56.9900   30.6590   44.6440 C   0  0  0  0  0  0  0  0  0  0  0  0
   58.7110   31.7910   46.7910 C   0  0  0  0  0  0  0  0  0  0  0  0
   58.3930   30.4280   46.8730 O   0  0  0  0  0  0  0  0  0  0  0  0
   59.0640   29.4710   47.6880 C   0  0  0  0  0  0  0  0  0  0  0  0
   59.6690   28.3610   46.8090 C   0  0  0  0  0  0  0  0  0  0  0  0
   59.7390   28.6710   45.3580 N   0  0  0  0  0  0  0  0  0  0  0  0
   58.9150   27.7590   44.5450 C   0  0  0  0  0  0  0  0  0  0  0  0
   61.1190   28.7270   44.8430 C   0  0  0  0  0  0  0  0  0  0  0  0
   59.3090   32.4790   47.8650 C   0  0  0  0  0  0  0  0  0  0  0  0
   58.4205   32.2367   52.3267 H   0  0  0  0  0  0  0  0  0  0  0  0
   57.6905   32.7603   50.7712 H   0  0  0  0  0  0  0  0  0  0  0  0
   59.1712   31.7433   50.7712 H   0  0  0  0  0  0  0  0  0  0  0  0
   59.1211   34.5118   50.5567 H   0  0  0  0  0  0  0  0  0  0  0  0
   59.4470   34.2487   52.3181 H   0  0  0  0  0  0  0  0  0  0  0  0
   61.6161   34.1256   51.6128 H   0  0  0  0  0  0  0  0  0  0  0  0
   61.1527   32.4234   51.2355 H   0  0  0  0  0  0  0  0  0  0  0  0
   62.5690   35.2537   48.9431 H   0  0  0  0  0  0  0  0  0  0  0  0
   63.1367   34.2693   50.3490 H   0  0  0  0  0  0  0  0  0  0  0  0
   64.5100   33.5315   48.5835 H   0  0  0  0  0  0  0  0  0  0  0  0
   63.1826   32.2959   48.6507 H   0  0  0  0  0  0  0  0  0  0  0  0
   62.2356   34.2847   46.8997 H   0  0  0  0  0  0  0  0  0  0  0  0
   63.9646   34.0704   46.4623 H   0  0  0  0  0  0  0  0  0  0  0  0
   62.8563   32.6568   46.4623 H   0  0  0  0  0  0  0  0  0  0  0  0
   59.4413   34.8108   49.6478 H   0  0  0  0  0  0  0  0  0  0  0  0
   60.6986   35.5058   48.5716 H   0  0  0  0  0  0  0  0  0  0  0  0
   59.6184   35.5759   46.4534 H   0  0  0  0  0  0  0  0  0  0  0  0
   58.5779   34.3732   44.5430 H   0  0  0  0  0  0  0  0  0  0  0  0
   58.6406   33.1427   42.9628 H   0  0  0  0  0  0  0  0  0  0  0  0
   57.5981   31.9641   41.0256 H   0  0  0  0  0  0  0  0  0  0  0  0
   56.1654   29.9567   41.4023 H   0  0  0  0  0  0  0  0  0  0  0  0
   55.7745   29.1214   43.7204 H   0  0  0  0  0  0  0  0  0  0  0  0
   56.8101   30.2893   45.6643 H   0  0  0  0  0  0  0  0  0  0  0  0
   59.8680   29.9702   48.2488 H   0  0  0  0  0  0  0  0  0  0  0  0
   58.3424   29.0239   48.3876 H   0  0  0  0  0  0  0  0  0  0  0  0
   60.6912   28.1644   47.1647 H   0  0  0  0  0  0  0  0  0  0  0  0
   58.9966   27.4957   46.9042 H   0  0  0  0  0  0  0  0  0  0  0  0
   59.3340   29.6310   45.2400 H   0  0  0  0  0  0  0  0  0  0  0  0
   58.3264   27.1076   45.2077 H   0  0  0  0  0  0  0  0  0  0  0  0
   58.2353   28.3465   43.9102 H   0  0  0  0  0  0  0  0  0  0  0  0
   59.5682   27.1422   43.9102 H   0  0  0  0  0  0  0  0  0  0  0  0
   61.8243   28.7556   45.6866 H   0  0  0  0  0  0  0  0  0  0  0  0
   61.3177   27.8362   44.2290 H   0  0  0  0  0  0  0  0  0  0  0  0
   61.2448   29.6310   44.2290 H   0  0  0  0  0  0  0  0  0  0  0  0
   59.5225   31.9447   48.8025 H   0  0  0  0  0  0  0  0  0  0  0  0
  1  2  1  0
  2  3  1  0
  3  4  1  0
  4  5  1  0
  5  6  1  0
  6  7  1  0
  4  8  1  0
  8  9  1  0
  9 10  2  0
 10 11  1  0
 11 12  2  0
 12 13  1  0
 13 14  2  0
 14 15  1  0
 15 16  2  0
 16 17  1  0
 17 18  2  0
 12 19  1  0
 19 20  1  0
 20 21  1  0
 21 22  1  0
 22 23  1  0
 23 24  1  0
 23 25  1  0
 19 26  2  0
 26  9  1  0
 18 13  1  0
  1 27  1  0
  1 28  1  0
  1 29  1  0
  2 30  1  0
  2 31  1  0
  3 32  1  0
  3 33  1  0
  5 34  1  0
  5 35  1  0
  6 36  1  0
  6 37  1  0
  7 38  1  0
  7 39  1  0
  7 40  1  0
  8 41  1  0
  8 42  1  0
 10 43  1  0
 11 44  1  0
 14 45  1  0
 15 46  1  0
 16 47  1  0
 17 48  1  0
 18 49  1  0
 21 50  1  0
 21 51  1  0
 22 52  1  0
 22 53  1  0
 23 54  1  0
 24 55  1  0
 24 56  1  0
 24 57  1  0
 25 58  1  0
 25 59  1  0
 25 60  1  0
 26 61  1  0
M  CHG  1  23   1
M  END
>  <UniqueID>  (37) 
36

>  <SMILES>  (37) 
CCCN(CCC)Cc1ccc(-c2ccccc2)c(OCC[NH+](C)C)c1

>  <Energy>  (37) 
61.102538679979574

>  <Genealogy>  (37) 
CCCN(CCC)Cc1ccc(-c2ccccc2)c(OCC[NH+](C)C)c1 (protonated)
CCCN(CCC)Cc1ccc(-c2ccccc2)c(OCC[NH+](C)C)c1 (3D coordinates assigned)
CCCN(CCC)Cc1ccc(-c2ccccc2)c(OCC[NH+](C)C)c1 (optimized conformer: 61.102538679979574 kcal/mol)

>  <smiles>  (37) 
CCCN(CCC)Cc1ccc(-c2ccccc2)c(OCCN(C)C)c1

>  <score_type>  (37) 
oracle

>  <origin>  (37) 
adg

>  <m_score__min__energy>  (37) 
-5.8099999999999996

>  <m_primary>  (37) 
energy

$$$$
37:0
     RDKit          3D

 42 43  0  0  0  0  0  0  0  0999 V2000
   57.3110   31.9980   51.6310 C   0  0  0  0  0  0  0  0  0  0  0  0
   58.5140   32.5480   50.9860 N   0  0  0  0  0  0  0  0  0  0  0  0
   59.0050   33.6940   51.7720 C   0  0  0  0  0  0  0  0  0  0  0  0
   59.5540   31.5040   50.8620 C   0  0  0  0  0  0  0  0  0  0  0  0
   59.0650   30.3580   49.9640 C   0  0  0  0  0  0  0  0  0  0  0  0
   59.2670   30.6650   48.4750 C   0  0  0  0  0  0  0  0  0  0  0  0
   58.7000   31.9700   48.1300 N   0  0  0  0  0  0  0  0  0  0  0  0
   58.4610   32.4050   46.7780 C   0  0  0  0  0  0  0  0  0  0  0  0
   57.9890   31.5000   45.8070 C   0  0  0  0  0  0  0  0  0  0  0  0
   57.7280   31.9280   44.5010 C   0  0  0  0  0  0  0  0  0  0  0  0
   57.1380   30.7880   43.3070 Cl  0  0  0  0  0  0  0  0  0  0  0  0
   57.9270   33.2650   44.1520 C   0  0  0  0  0  0  0  0  0  0  0  0
   58.3830   34.1750   45.1050 C   0  0  0  0  0  0  0  0  0  0  0  0
   58.6540   33.7570   46.4150 C   0  0  0  0  0  0  0  0  0  0  0  0
   59.2720   34.9710   47.5890 S   0  0  0  0  0  0  0  0  0  0  0  0
   60.8560   34.1470   47.7570 C   0  0  0  0  0  0  0  0  0  0  0  0
   61.6140   33.8450   46.6180 C   0  0  0  0  0  0  0  0  0  0  0  0
   62.8460   33.1960   46.7480 C   0  0  0  0  0  0  0  0  0  0  0  0
   63.3250   32.8530   48.0160 C   0  0  0  0  0  0  0  0  0  0  0  0
   62.5750   33.1620   49.1550 C   0  0  0  0  0  0  0  0  0  0  0  0
   61.3430   33.8110   49.0260 C   0  0  0  0  0  0  0  0  0  0  0  0
   57.4247   32.0500   52.7239 H   0  0  0  0  0  0  0  0  0  0  0  0
   56.4311   32.5833   51.3256 H   0  0  0  0  0  0  0  0  0  0  0  0
   57.1780   30.9496   51.3256 H   0  0  0  0  0  0  0  0  0  0  0  0
   58.9093   33.4707   52.8448 H   0  0  0  0  0  0  0  0  0  0  0  0
   60.0616   33.8796   51.5289 H   0  0  0  0  0  0  0  0  0  0  0  0
   58.4105   34.5870   51.5289 H   0  0  0  0  0  0  0  0  0  0  0  0
   60.4599   31.9466   50.4222 H   0  0  0  0  0  0  0  0  0  0  0  0
   59.7739   31.1019   51.8620 H   0  0  0  0  0  0  0  0  0  0  0  0
   59.6248   29.4455   50.2171 H   0  0  0  0  0  0  0  0  0  0  0  0
   57.9871   30.2267   50.1395 H   0  0  0  0  0  0  0  0  0  0  0  0
   60.3439   30.6694   48.2509 H   0  0  0  0  0  0  0  0  0  0  0  0
   58.7551   29.8915   47.8836 H   0  0  0  0  0  0  0  0  0  0  0  0
   58.5750   32.6510   48.9120 H   0  0  0  0  0  0  0  0  0  0  0  0
   57.8241   30.4468   46.0783 H   0  0  0  0  0  0  0  0  0  0  0  0
   57.7239   33.6008   43.1244 H   0  0  0  0  0  0  0  0  0  0  0  0
   58.5311   35.2288   44.8266 H   0  0  0  0  0  0  0  0  0  0  0  0
   61.2397   34.1186   45.6205 H   0  0  0  0  0  0  0  0  0  0  0  0
   63.4381   32.9554   45.8527 H   0  0  0  0  0  0  0  0  0  0  0  0
   64.2926   32.3397   48.1177 H   0  0  0  0  0  0  0  0  0  0  0  0
   62.9541   32.8946   50.1524 H   0  0  0  0  0  0  0  0  0  0  0  0
   60.7557   34.0579   49.9227 H   0  0  0  0  0  0  0  0  0  0  0  0
  1  2  1  0
  2  3  1  0
  2  4  1  0
  4  5  1  0
  5  6  1  0
  6  7  1  0
  7  8  1  0
  8  9  2  0
  9 10  1  0
 10 11  1  0
 10 12  2  0
 12 13  1  0
 13 14  2  0
 14 15  1  0
 15 16  1  0
 16 17  2  0
 17 18  1  0
 18 19  2  0
 19 20  1  0
 20 21  2  0
 14  8  1  0
 21 16  1  0
  1 22  1  0
  1 23  1  0
  1 24  1  0
  3 25  1  0
  3 26  1  0
  3 27  1  0
  4 28  1  0
  4 29  1  0
  5 30  1  0
  5 31  1  0
  6 32  1  0
  6 33  1  0
  7 34  1  0
  9 35  1  0
 12 36  1  0
 13 37  1  0
 17 38  1  0
 18 39  1  0
 19 40  1  0
 20 41  1  0
 21 42  1  0
M  END
>  <UniqueID>  (38) 
37

>  <SMILES>  (38) 
CN(C)CCCNc1cc(Cl)ccc1Sc1ccccc1

>  <Energy>  (38) 
36.16349736807103

>  <Genealogy>  (38) 
CN(C)CCCNc1cc(Cl)ccc1Sc1ccccc1 (3D coordinates assigned)
CN(C)CCCNc1cc(Cl)ccc1Sc1ccccc1 (optimized conformer: 36.16349736807103 kcal/mol)

>  <smiles>  (38) 
CN(C)CCCNc1cc(Cl)ccc1Sc1ccccc1

>  <score_type>  (38) 
oracle

>  <origin>  (38) 
adg

>  <m_score__min__energy>  (38) 
-6.1799999999999997

>  <m_primary>  (38) 
energy

$$$$
38:0
     RDKit          3D

 69 72  0  0  0  0  0  0  0  0999 V2000
   58.5800   33.5780   44.5930 C   0  0  0  0  0  0  0  0  0  0  0  0
   58.5210   34.1790   46.0020 C   0  0  0  0  0  0  0  0  0  0  0  0
   59.4780   33.5450   46.9490 N   0  0  0  0  0  0  0  0  0  0  0  0
   58.8570   33.0090   48.1920 C   0  0  0  0  0  0  0  0  0  0  0  0
   59.6120   33.3270   49.4870 C   0  0  0  0  0  0  0  0  0  0  0  0
   60.6940   34.3710   47.2120 C   0  0  0  0  0  0  0  0  0  0  0  0
   61.9130   34.0660   46.3050 C   0  0  0  0  0  0  0  0  0  0  0  0
   63.2050   33.9220   47.1210 C   0  0  0  0  0  0  0  0  0  0  0  0
   63.5340   32.5160   47.3780 N   0  0  0  0  0  0  0  0  0  0  0  0
   62.5810   31.5660   47.8910 C   0  0  0  0  0  0  0  0  0  0  0  0
   62.6670   31.0680   49.2010 C   0  0  0  0  0  0  0  0  0  0  0  0
   61.7230   30.1550   49.6710 C   0  0  0  0  0  0  0  0  0  0  0  0
   60.6710   29.7260   48.8470 C   0  0  0  0  0  0  0  0  0  0  0  0
   60.5850   30.1980   47.5260 C   0  0  0  0  0  0  0  0  0  0  0  0
   61.5350   31.1270   47.0650 C   0  0  0  0  0  0  0  0  0  0  0  0
   59.4610   29.8270   46.6360 C   0  0  0  0  0  0  0  0  0  0  0  0
   58.9040   30.7650   46.0000 O   0  0  0  0  0  0  0  0  0  0  0  0
   58.9910   28.4250   46.3940 C   0  0  0  0  0  0  0  0  0  0  0  0
   58.2990   28.1880   45.1870 C   0  0  0  0  0  0  0  0  0  0  0  0
   57.8340   26.9210   44.8490 C   0  0  0  0  0  0  0  0  0  0  0  0
   58.0480   25.8370   45.7020 C   0  0  0  0  0  0  0  0  0  0  0  0
   57.5860   24.5220   45.3390 N   0  0  0  0  0  0  0  0  0  0  0  0
   56.1540   24.2540   45.1550 C   0  0  0  0  0  0  0  0  0  0  0  0
   55.8910   23.6480   43.7670 C   0  0  0  0  0  0  0  0  0  0  0  0
   57.0070   22.6900   43.2930 C   0  0  0  0  0  0  0  0  0  0  0  0
   57.9150   22.2270   44.4380 C   0  0  0  0  0  0  0  0  0  0  0  0
   58.5590   23.4360   45.1330 C   0  0  0  0  0  0  0  0  0  0  0  0
   58.7320   26.0440   46.9050 C   0  0  0  0  0  0  0  0  0  0  0  0
   59.1850   27.3240   47.2860 C   0  0  0  0  0  0  0  0  0  0  0  0
   59.8940   27.4050   48.6240 C   0  0  0  0  0  0  0  0  0  0  0  0
   59.6840   28.7220   49.3570 C   0  0  0  0  0  0  0  0  0  0  0  0
   58.6872   32.4856   44.6645 H   0  0  0  0  0  0  0  0  0  0  0  0
   57.6537   33.8208   44.0517 H   0  0  0  0  0  0  0  0  0  0  0  0
   59.4414   33.9963   44.0517 H   0  0  0  0  0  0  0  0  0  0  0  0
   58.7543   35.2519   45.9348 H   0  0  0  0  0  0  0  0  0  0  0  0
   57.5080   34.0007   46.3918 H   0  0  0  0  0  0  0  0  0  0  0  0
   59.8410   32.6950   46.4540 H   0  0  0  0  0  0  0  0  0  0  0  0
   57.8445   33.4306   48.2759 H   0  0  0  0  0  0  0  0  0  0  0  0
   58.8694   31.9136   48.0921 H   0  0  0  0  0  0  0  0  0  0  0  0
   58.9849   33.0629   50.3513 H   0  0  0  0  0  0  0  0  0  0  0  0
   60.5451   32.7455   49.5196 H   0  0  0  0  0  0  0  0  0  0  0  0
   59.8479   34.4009   49.5196 H   0  0  0  0  0  0  0  0  0  0  0  0
   60.4231   35.4280   47.0725 H   0  0  0  0  0  0  0  0  0  0  0  0
   61.0102   34.1275   48.2371 H   0  0  0  0  0  0  0  0  0  0  0  0
   61.7276   33.1274   45.7622 H   0  0  0  0  0  0  0  0  0  0  0  0
   62.0400   34.9064   45.6067 H   0  0  0  0  0  0  0  0  0  0  0  0
   64.0321   34.3847   46.5626 H   0  0  0  0  0  0  0  0  0  0  0  0
   63.0542   34.4201   48.0901 H   0  0  0  0  0  0  0  0  0  0  0  0
   64.4940   32.1710   47.1470 H   0  0  0  0  0  0  0  0  0  0  0  0
   63.4830   31.3996   49.8600 H   0  0  0  0  0  0  0  0  0  0  0  0
   61.8038   29.7675   50.6973 H   0  0  0  0  0  0  0  0  0  0  0  0
   61.4567   31.5162   46.0391 H   0  0  0  0  0  0  0  0  0  0  0  0
   58.1229   29.0258   44.4963 H   0  0  0  0  0  0  0  0  0  0  0  0
   57.2937   26.7724   43.9025 H   0  0  0  0  0  0  0  0  0  0  0  0
   55.8162   23.5478   45.9277 H   0  0  0  0  0  0  0  0  0  0  0  0
   55.6022   25.2019   45.2385 H   0  0  0  0  0  0  0  0  0  0  0  0
   54.9444   23.0889   43.8045 H   0  0  0  0  0  0  0  0  0  0  0  0
   55.8537   24.4821   43.0508 H   0  0  0  0  0  0  0  0  0  0  0  0
   56.5404   21.8058   42.8343 H   0  0  0  0  0  0  0  0  0  0  0  0
   57.6328   23.2389   42.5739 H   0  0  0  0  0  0  0  0  0  0  0  0
   57.3170   21.6643   45.1699 H   0  0  0  0  0  0  0  0  0  0  0  0
   58.7094   21.5868   44.0269 H   0  0  0  0  0  0  0  0  0  0  0  0
   58.9526   23.1188   46.1099 H   0  0  0  0  0  0  0  0  0  0  0  0
   59.3668   23.8141   44.4892 H   0  0  0  0  0  0  0  0  0  0  0  0
   58.9209   25.1879   47.5694 H   0  0  0  0  0  0  0  0  0  0  0  0
   59.5216   26.5905   49.2627 H   0  0  0  0  0  0  0  0  0  0  0  0
   60.9716   27.3234   48.4186 H   0  0  0  0  0  0  0  0  0  0  0  0
   58.6615   29.0855   49.1769 H   0  0  0  0  0  0  0  0  0  0  0  0
   59.8290   28.5736   50.4372 H   0  0  0  0  0  0  0  0  0  0  0  0
  1  2  1  0
  2  3  1  0
  3  4  1  0
  4  5  1  0
  3  6  1  0
  6  7  1  0
  7  8  1  0
  8  9  1  0
  9 10  1  0
 10 11  2  0
 11 12  1  0
 12 13  2  0
 13 14  1  0
 14 15  2  0
 14 16  1  0
 16 17  2  0
 16 18  1  0
 18 19  2  0
 19 20  1  0
 20 21  2  0
 21 22  1  0
 22 23  1  0
 23 24  1  0
 24 25  1  0
 25 26  1  0
 26 27  1  0
 21 28  1  0
 28 29  2  0
 29 30  1  0
 30 31  1  0
 15 10  1  0
 29 18  1  0
 31 13  1  0
 27 22  1  0
  1 32  1  0
  1 33  1  0
  1 34  1  0
  2 35  1  0
  2 36  1  0
  3 37  1  0
  4 38  1  0
  4 39  1  0
  5 40  1  0
  5 41  1  0
  5 42  1  0
  6 43  1  0
  6 44  1  0
  7 45  1  0
  7 46  1  0
  8 47  1  0
  8 48  1  0
  9 49  1  0
 11 50  1  0
 12 51  1  0
 15 52  1  0
 19 53  1  0
 20 54  1  0
 23 55  1  0
 23 56  1  0
 24 57  1  0
 24 58  1  0
 25 59  1  0
 25 60  1  0
 26 61  1  0
 26 62  1  0
 27 63  1  0
 27 64  1  0
 28 65  1  0
 30 66  1  0
 30 67  1  0
 31 68  1  0
 31 69  1  0
M  CHG  1   3   1
M  END
>  <UniqueID>  (39) 
38

>  <SMILES>  (39) 
CC[NH+](CC)CCCNc1ccc2c(c1)C(=O)c1ccc(N3CCCCC3)cc1CC2

>  <Energy>  (39) 
97.08510697240077

>  <Genealogy>  (39) 
CC[NH+](CC)CCCNc1ccc2c(c1)C(=O)c1ccc(N3CCCCC3)cc1CC2 (protonated)
CC[NH+](CC)CCCNc1ccc2c(c1)C(=O)c1ccc(N3CCCCC3)cc1CC2 (3D coordinates assigned)
CC[NH+](CC)CCCNc1ccc2c(c1)C(=O)c1ccc(N3CCCCC3)cc1CC2 (nonaromatic ring conformer: 97.08510697240077 kcal/mol)

>  <smiles>  (39) 
CCN(CC)CCCNc1ccc2c(c1)C(=O)c1ccc(N3CCCCC3)cc1CC2

>  <score_type>  (39) 
oracle

>  <origin>  (39) 
adg

>  <m_score__min__energy>  (39) 
-5.75

>  <m_primary>  (39) 
energy

$$$$
39:0
     RDKit          3D

 57 60  0  0  0  0  0  0  0  0999 V2000
   56.8220   22.0320   43.0860 C   0  0  0  0  0  0  0  0  0  0  0  0
   55.7180   23.0680   42.9580 C   0  0  0  0  0  0  0  0  0  0  0  0
   55.9490   24.1110   43.8850 O   0  0  0  0  0  0  0  0  0  0  0  0
   57.0780   23.8170   44.6880 C   0  0  0  0  0  0  0  0  0  0  0  0
   58.1090   24.9550   44.5780 C   0  0  0  0  0  0  0  0  0  0  0  0
   57.4760   26.2950   44.6550 N   0  0  0  0  0  0  0  0  0  0  0  0
   58.0230   27.1590   43.5830 C   0  0  0  0  0  0  0  0  0  0  0  0
   57.4780   28.5860   43.6880 C   0  0  0  0  0  0  0  0  0  0  0  0
   57.7310   29.1380   45.0210 N   0  0  0  0  0  0  0  0  0  0  0  0
   57.5100   30.5430   45.2590 C   0  0  0  0  0  0  0  0  0  0  0  0
   56.6530   31.1660   44.5770 O   0  0  0  0  0  0  0  0  0  0  0  0
   58.2560   31.2700   46.3090 C   0  0  0  0  0  0  0  0  0  0  0  0
   58.5360   30.6030   47.5100 C   0  0  0  0  0  0  0  0  0  0  0  0
   59.2900   31.2370   48.5110 C   0  0  0  0  0  0  0  0  0  0  0  0
   59.6200   30.5540   49.7880 C   0  0  0  0  0  0  0  0  0  0  0  0
   60.5850   29.5280   49.8460 C   0  0  0  0  0  0  0  0  0  0  0  0
   60.8820   28.9020   51.0590 C   0  0  0  0  0  0  0  0  0  0  0  0
   60.2280   29.2920   52.2290 C   0  0  0  0  0  0  0  0  0  0  0  0
   59.2770   30.3140   52.1880 C   0  0  0  0  0  0  0  0  0  0  0  0
   58.9770   30.9460   50.9770 C   0  0  0  0  0  0  0  0  0  0  0  0
   59.7180   32.5120   48.3120 N   0  0  0  0  0  0  0  0  0  0  0  0
   59.4510   33.2040   47.1740 C   0  0  0  0  0  0  0  0  0  0  0  0
   59.9090   34.5200   47.0420 C   0  0  0  0  0  0  0  0  0  0  0  0
   59.6200   35.2500   45.8880 C   0  0  0  0  0  0  0  0  0  0  0  0
   58.8670   34.6730   44.8630 C   0  0  0  0  0  0  0  0  0  0  0  0
   58.4060   33.3590   44.9830 C   0  0  0  0  0  0  0  0  0  0  0  0
   58.7040   32.6000   46.1350 C   0  0  0  0  0  0  0  0  0  0  0  0
   58.2830   28.2680   46.0650 C   0  0  0  0  0  0  0  0  0  0  0  0
   57.6050   26.8880   46.0260 C   0  0  0  0  0  0  0  0  0  0  0  0
   57.0247   21.8418   44.1503 H   0  0  0  0  0  0  0  0  0  0  0  0
   56.5057   21.0972   42.6002 H   0  0  0  0  0  0  0  0  0  0  0  0
   57.7349   22.4070   42.6002 H   0  0  0  0  0  0  0  0  0  0  0  0
   55.7142   23.4774   41.9370 H   0  0  0  0  0  0  0  0  0  0  0  0
   54.7450   22.5985   43.1649 H   0  0  0  0  0  0  0  0  0  0  0  0
   56.7624   23.7107   45.7364 H   0  0  0  0  0  0  0  0  0  0  0  0
   57.5353   22.8788   44.3408 H   0  0  0  0  0  0  0  0  0  0  0  0
   58.8331   24.8576   45.4003 H   0  0  0  0  0  0  0  0  0  0  0  0
   58.6018   24.8704   43.5982 H   0  0  0  0  0  0  0  0  0  0  0  0
   56.4540   26.1770   44.4460 H   0  0  0  0  0  0  0  0  0  0  0  0
   59.1193   27.1866   43.6691 H   0  0  0  0  0  0  0  0  0  0  0  0
   57.7200   26.7416   42.6114 H   0  0  0  0  0  0  0  0  0  0  0  0
   57.9721   29.2179   42.9353 H   0  0  0  0  0  0  0  0  0  0  0  0
   56.3922   28.5645   43.5134 H   0  0  0  0  0  0  0  0  0  0  0  0
   58.1640   29.5801   47.6687 H   0  0  0  0  0  0  0  0  0  0  0  0
   61.1080   29.2180   48.9293 H   0  0  0  0  0  0  0  0  0  0  0  0
   61.6334   28.0994   51.0923 H   0  0  0  0  0  0  0  0  0  0  0  0
   60.4614   28.7949   53.1821 H   0  0  0  0  0  0  0  0  0  0  0  0
   58.7628   30.6225   53.1102 H   0  0  0  0  0  0  0  0  0  0  0  0
   58.2328   31.7557   50.9536 H   0  0  0  0  0  0  0  0  0  0  0  0
   60.4979   34.9798   47.8493 H   0  0  0  0  0  0  0  0  0  0  0  0
   59.9862   36.2822   45.7856 H   0  0  0  0  0  0  0  0  0  0  0  0
   58.6360   35.2546   43.9583 H   0  0  0  0  0  0  0  0  0  0  0  0
   57.8073   32.9137   44.1747 H   0  0  0  0  0  0  0  0  0  0  0  0
   59.3638   28.1457   45.9010 H   0  0  0  0  0  0  0  0  0  0  0  0
   58.0997   28.7283   47.0471 H   0  0  0  0  0  0  0  0  0  0  0  0
   58.1969   26.1972   46.6444 H   0  0  0  0  0  0  0  0  0  0  0  0
   56.5810   27.0328   46.4009 H   0  0  0  0  0  0  0  0  0  0  0  0
  1  2  1  0
  2  3  1  0
  3  4  1  0
  4  5  1  0
  5  6  1  0
  6  7  1  0
  7  8  1  0
  8  9  1  0
  9 10  1  0
 10 11  2  0
 10 12  1  0
 12 13  2  0
 13 14  1  0
 14 15  1  0
 15 16  2  0
 16 17  1  0
 17 18  2  0
 18 19  1  0
 19 20  2  0
 14 21  2  0
 21 22  1  0
 22 23  2  0
 23 24  1  0
 24 25  2  0
 25 26  1  0
 26 27  2  0
  9 28  1  0
 28 29  1  0
 29  6  1  0
 27 12  1  0
 20 15  1  0
 27 22  1  0
  1 30  1  0
  1 31  1  0
  1 32  1  0
  2 33  1  0
  2 34  1  0
  4 35  1  0
  4 36  1  0
  5 37  1  0
  5 38  1  0
  6 39  1  0
  7 40  1  0
  7 41  1  0
  8 42  1  0
  8 43  1  0
 13 44  1  0
 16 45  1  0
 17 46  1  0
 18 47  1  0
 19 48  1  0
 20 49  1  0
 23 50  1  0
 24 51  1  0
 25 52  1  0
 26 53  1  0
 28 54  1  0
 28 55  1  0
 29 56  1  0
 29 57  1  0
M  CHG  1   6   1
M  END
>  <UniqueID>  (40) 
39

>  <SMILES>  (40) 
CCOCC[NH+]1CCN(C(=O)c2cc(-c3ccccc3)nc3ccccc23)CC1

>  <Energy>  (40) 
80.7329376365721

>  <Genealogy>  (40) 
CCOCC[NH+]1CCN(C(=O)c2cc(-c3ccccc3)nc3ccccc23)CC1 (protonated)
CCOCC[NH+]1CCN(C(=O)c2cc(-c3ccccc3)nc3ccccc23)CC1 (3D coordinates assigned)
CCOCC[NH+]1CCN(C(=O)c2cc(-c3ccccc3)nc3ccccc23)CC1 (nonaromatic ring conformer: 80.7329376365721 kcal/mol)

>  <smiles>  (40) 
CCOCCN1CCN(C(=O)c2cc(-c3ccccc3)nc3ccccc23)CC1

>  <score_type>  (40) 
oracle

>  <origin>  (40) 
adg

>  <m_score__min__energy>  (40) 
-6.4299999999999997

>  <m_primary>  (40) 
energy

$$$$
40:0
     RDKit          3D

 40 42  0  0  0  0  0  0  0  0999 V2000
   65.3760   33.1020   49.8200 C   0  0  0  0  0  0  0  0  0  0  0  0
   64.0200   33.2680   49.2000 C   0  0  0  0  0  0  0  0  0  0  0  0
   63.7630   32.8160   47.9030 C   0  0  0  0  0  0  0  0  0  0  0  0
   62.5410   33.0120   47.3470 N   0  0  0  0  0  0  0  0  0  0  0  0
   61.5470   33.6480   48.0240 C   0  0  0  0  0  0  0  0  0  0  0  0
   60.2690   33.8460   47.3930 N   0  0  0  0  0  0  0  0  0  0  0  0
   59.1010   33.1110   47.9050 C   0  0  0  0  0  0  0  0  0  0  0  0
   57.8340   33.3930   47.0850 C   0  0  0  0  0  0  0  0  0  0  0  0
   58.1540   33.3730   45.6020 C   0  0  0  0  0  0  0  0  0  0  0  0
   57.3710   32.7780   44.6820 C   0  0  0  0  0  0  0  0  0  0  0  0
   57.4240   31.3480   44.3260 C   0  0  0  0  0  0  0  0  0  0  0  0
   58.2090   30.4740   45.0910 C   0  0  0  0  0  0  0  0  0  0  0  0
   58.2300   29.1060   44.7960 C   0  0  0  0  0  0  0  0  0  0  0  0
   57.4510   28.6030   43.7500 C   0  0  0  0  0  0  0  0  0  0  0  0
   56.6430   29.4640   43.0030 C   0  0  0  0  0  0  0  0  0  0  0  0
   56.6190   30.8310   43.2950 C   0  0  0  0  0  0  0  0  0  0  0  0
   59.3640   34.1460   45.1280 C   0  0  0  0  0  0  0  0  0  0  0  0
   60.1030   34.8090   46.2940 C   0  0  0  0  0  0  0  0  0  0  0  0
   61.7910   34.1300   49.2770 N   0  0  0  0  0  0  0  0  0  0  0  0
   63.0010   33.9520   49.8710 C   0  0  0  0  0  0  0  0  0  0  0  0
   65.2820   33.1135   50.9159 H   0  0  0  0  0  0  0  0  0  0  0  0
   65.8110   32.1439   49.4993 H   0  0  0  0  0  0  0  0  0  0  0  0
   66.0293   33.9269   49.4993 H   0  0  0  0  0  0  0  0  0  0  0  0
   64.5509   32.3016   47.3332 H   0  0  0  0  0  0  0  0  0  0  0  0
   59.3157   32.0329   47.8659 H   0  0  0  0  0  0  0  0  0  0  0  0
   58.9171   33.4451   48.9368 H   0  0  0  0  0  0  0  0  0  0  0  0
   57.0803   32.6225   47.3044 H   0  0  0  0  0  0  0  0  0  0  0  0
   57.4456   34.3861   47.3549 H   0  0  0  0  0  0  0  0  0  0  0  0
   56.6366   33.4060   44.1565 H   0  0  0  0  0  0  0  0  0  0  0  0
   58.8101   30.8645   45.9254 H   0  0  0  0  0  0  0  0  0  0  0  0
   58.8602   28.4259   45.3879 H   0  0  0  0  0  0  0  0  0  0  0  0
   57.4741   27.5287   43.5148 H   0  0  0  0  0  0  0  0  0  0  0  0
   56.0253   29.0660   42.1845 H   0  0  0  0  0  0  0  0  0  0  0  0
   55.9688   31.5041   42.7169 H   0  0  0  0  0  0  0  0  0  0  0  0
   60.0508   33.4554   44.6168 H   0  0  0  0  0  0  0  0  0  0  0  0
   59.0206   34.9367   44.4448 H   0  0  0  0  0  0  0  0  0  0  0  0
   61.0925   35.1479   45.9533 H   0  0  0  0  0  0  0  0  0  0  0  0
   59.5182   35.6694   46.6513 H   0  0  0  0  0  0  0  0  0  0  0  0
   61.0620   34.6750   49.7890 H   0  0  0  0  0  0  0  0  0  0  0  0
   63.1791   34.3470   50.8821 H   0  0  0  0  0  0  0  0  0  0  0  0
  1  2  1  0
  2  3  2  0
  3  4  1  0
  4  5  2  0
  5  6  1  0
  6  7  1  0
  7  8  1  0
  8  9  1  0
  9 10  2  3
 10 11  1  0
 11 12  2  0
 12 13  1  0
 13 14  2  0
 14 15  1  0
 15 16  2  0
  9 17  1  0
 17 18  1  0
  5 19  1  0
 19 20  2  0
 20  2  1  0
 18  6  1  0
 16 11  1  0
  1 21  1  0
  1 22  1  0
  1 23  1  0
  3 24  1  0
  7 25  1  0
  7 26  1  0
  8 27  1  0
  8 28  1  0
 10 29  1  0
 12 30  1  0
 13 31  1  0
 14 32  1  0
 15 33  1  0
 16 34  1  0
 17 35  1  0
 17 36  1  0
 18 37  1  0
 18 38  1  0
 19 39  1  0
 20 40  1  0
M  CHG  1  19   1
M  END
>  <UniqueID>  (41) 
40

>  <SMILES>  (41) 
Cc1cnc(N2CCC(=Cc3ccccc3)CC2)[nH+]c1

>  <Energy>  (41) 
51.26027709474354

>  <Genealogy>  (41) 
Cc1cnc(N2CCC(=Cc3ccccc3)CC2)[nH+]c1 (protonated)
Cc1cnc(N2CCC(=Cc3ccccc3)CC2)[nH+]c1 (3D coordinates assigned)
Cc1cnc(N2CCC(=Cc3ccccc3)CC2)[nH+]c1 (nonaromatic ring conformer: 51.26027709474354 kcal/mol)

>  <smiles>  (41) 
Cc1cnc(N2CCC(=Cc3ccccc3)CC2)nc1

>  <score_type>  (41) 
oracle

>  <origin>  (41) 
adg

>  <m_score__min__energy>  (41) 
-6.3899999999999997

>  <m_primary>  (41) 
energy

$$$$
41:0
     RDKit          3D

 38 39  0  0  0  0  0  0  0  0999 V2000
   62.4370   31.2530   49.3720 C   0  0  0  0  0  0  0  0  0  0  0  0
   63.5040   31.6820   48.3670 C   0  0  0  0  0  0  0  0  0  0  0  0
   63.7700   33.1340   48.4850 N   0  0  0  0  0  0  0  0  0  0  0  0
   63.0300   33.7590   49.6160 C   0  0  0  0  0  0  0  0  0  0  0  0
   61.7980   34.5780   49.1830 C   0  0  0  0  0  0  0  0  0  0  0  0
   61.2090   34.0100   47.9680 N   0  0  0  0  0  0  0  0  0  0  0  0
   59.8860   33.4400   47.9930 C   0  0  0  0  0  0  0  0  0  0  0  0
   59.4570   32.9120   49.0560 O   0  0  0  0  0  0  0  0  0  0  0  0
   59.0210   33.4400   46.7930 C   0  0  0  0  0  0  0  0  0  0  0  0
   58.9130   34.5930   46.0010 C   0  0  0  0  0  0  0  0  0  0  0  0
   58.1030   34.5950   44.8640 C   0  0  0  0  0  0  0  0  0  0  0  0
   57.4020   33.4430   44.4990 C   0  0  0  0  0  0  0  0  0  0  0  0
   57.5130   32.2720   45.2710 C   0  0  0  0  0  0  0  0  0  0  0  0
   56.8410   31.0870   44.9400 O   0  0  0  0  0  0  0  0  0  0  0  0
   56.8730   30.4760   43.6540 C   0  0  0  0  0  0  0  0  0  0  0  0
   58.3270   32.2780   46.4110 C   0  0  0  0  0  0  0  0  0  0  0  0
   62.0730   33.8250   46.7940 C   0  0  0  0  0  0  0  0  0  0  0  0
   63.5550   33.8410   47.2040 C   0  0  0  0  0  0  0  0  0  0  0  0
   62.8140   31.4046   50.3942 H   0  0  0  0  0  0  0  0  0  0  0  0
   61.5292   31.8560   49.2228 H   0  0  0  0  0  0  0  0  0  0  0  0
   62.1993   30.1894   49.2228 H   0  0  0  0  0  0  0  0  0  0  0  0
   64.4324   31.1262   48.5646 H   0  0  0  0  0  0  0  0  0  0  0  0
   63.1437   31.4666   47.3502 H   0  0  0  0  0  0  0  0  0  0  0  0
   62.6936   32.9598   50.2929 H   0  0  0  0  0  0  0  0  0  0  0  0
   63.7242   34.4609   50.1012 H   0  0  0  0  0  0  0  0  0  0  0  0
   61.0504   34.5623   49.9898 H   0  0  0  0  0  0  0  0  0  0  0  0
   62.1110   35.6124   48.9781 H   0  0  0  0  0  0  0  0  0  0  0  0
   59.4697   35.5005   46.2775 H   0  0  0  0  0  0  0  0  0  0  0  0
   58.0165   35.5061   44.2538 H   0  0  0  0  0  0  0  0  0  0  0  0
   56.7611   33.4515   43.6050 H   0  0  0  0  0  0  0  0  0  0  0  0
   56.9302   29.3835   43.7685 H   0  0  0  0  0  0  0  0  0  0  0  0
   55.9598   30.7393   43.1001 H   0  0  0  0  0  0  0  0  0  0  0  0
   57.7537   30.8333   43.1001 H   0  0  0  0  0  0  0  0  0  0  0  0
   58.4245   31.3634   47.0143 H   0  0  0  0  0  0  0  0  0  0  0  0
   61.8391   32.8595   46.3217 H   0  0  0  0  0  0  0  0  0  0  0  0
   61.8919   34.6484   46.0874 H   0  0  0  0  0  0  0  0  0  0  0  0
   64.1483   33.3482   46.4197 H   0  0  0  0  0  0  0  0  0  0  0  0
   63.8670   34.8882   47.3308 H   0  0  0  0  0  0  0  0  0  0  0  0
  1  2  1  0
  2  3  1  0
  3  4  1  0
  4  5  1  0
  5  6  1  0
  6  7  1  0
  7  8  2  0
  7  9  1  0
  9 10  2  0
 10 11  1  0
 11 12  2  0
 12 13  1  0
 13 14  1  0
 14 15  1  0
 13 16  2  0
  6 17  1  0
 17 18  1  0
 18  3  1  0
 16  9  1  0
  1 19  1  0
  1 20  1  0
  1 21  1  0
  2 22  1  0
  2 23  1  0
  4 24  1  0
  4 25  1  0
  5 26  1  0
  5 27  1  0
 10 28  1  0
 11 29  1  0
 12 30  1  0
 15 31  1  0
 15 32  1  0
 15 33  1  0
 16 34  1  0
 17 35  1  0
 17 36  1  0
 18 37  1  0
 18 38  1  0
M  END
>  <UniqueID>  (42) 
41

>  <SMILES>  (42) 
CCN1CCN(C(=O)c2cccc(OC)c2)CC1

>  <Energy>  (42) 
47.87562877637713

>  <Genealogy>  (42) 
CCN1CCN(C(=O)c2cccc(OC)c2)CC1 (3D coordinates assigned)
CCN1CCN(C(=O)c2cccc(OC)c2)CC1 (nonaromatic ring conformer: 47.87562877637713 kcal/mol)

>  <smiles>  (42) 
CCN1CCN(C(=O)c2cccc(OC)c2)CC1

>  <score_type>  (42) 
oracle

>  <origin>  (42) 
adg

>  <m_score__min__energy>  (42) 
-6.2800000000000002

>  <m_primary>  (42) 
energy

$$$$
42:0
     RDKit          3D

 37 39  0  0  0  0  0  0  0  0999 V2000
   62.1710   32.7230   47.0920 C   0  0  0  0  0  0  0  0  0  0  0  0
   60.9140   33.3810   46.9700 O   0  0  0  0  0  0  0  0  0  0  0  0
   59.7840   32.8230   46.3550 C   0  0  0  0  0  0  0  0  0  0  0  0
   58.8970   33.5900   45.5700 C   0  0  0  0  0  0  0  0  0  0  0  0
   57.7820   32.9910   44.9750 C   0  0  0  0  0  0  0  0  0  0  0  0
   57.5380   31.6270   45.1530 C   0  0  0  0  0  0  0  0  0  0  0  0
   56.4730   31.0640   44.5880 O   0  0  0  0  0  0  0  0  0  0  0  0
   56.1920   29.7690   44.7170 C   0  0  0  0  0  0  0  0  0  0  0  0
   55.1480   29.3130   44.1780 O   0  0  0  0  0  0  0  0  0  0  0  0
   57.0380   28.9280   45.4620 C   0  0  0  0  0  0  0  0  0  0  0  0
   56.7610   27.4880   45.6210 C   0  0  0  0  0  0  0  0  0  0  0  0
   55.5660   27.1000   45.7020 O   0  0  0  0  0  0  0  0  0  0  0  0
   57.8130   26.5170   45.7120 N   0  0  0  0  0  0  0  0  0  0  0  0
   57.9600   25.3390   44.8590 C   0  0  0  0  0  0  0  0  0  0  0  0
   57.0730   24.1860   45.3410 C   0  0  0  0  0  0  0  0  0  0  0  0
   56.9800   23.1400   44.3240 N   0  0  0  0  0  0  0  0  0  0  0  0
   57.8010   22.0880   44.1680 C   0  0  0  0  0  0  0  0  0  0  0  0
   57.3160   21.3270   43.1280 C   0  0  0  0  0  0  0  0  0  0  0  0
   56.1930   21.8930   42.6380 N   0  0  0  0  0  0  0  0  0  0  0  0
   56.0170   22.9960   43.3940 C   0  0  0  0  0  0  0  0  0  0  0  0
   58.1520   29.4920   46.0940 C   0  0  0  0  0  0  0  0  0  0  0  0
   58.4200   30.8540   45.9360 C   0  0  0  0  0  0  0  0  0  0  0  0
   59.5370   31.4570   46.5320 C   0  0  0  0  0  0  0  0  0  0  0  0
   62.4159   32.5948   48.1567 H   0  0  0  0  0  0  0  0  0  0  0  0
   62.1175   31.7373   46.6068 H   0  0  0  0  0  0  0  0  0  0  0  0
   62.9505   33.3287   46.6068 H   0  0  0  0  0  0  0  0  0  0  0  0
   59.0835   34.6644   45.4253 H   0  0  0  0  0  0  0  0  0  0  0  0
   57.0950   33.5958   44.3649 H   0  0  0  0  0  0  0  0  0  0  0  0
   57.6748   25.6041   43.8302 H   0  0  0  0  0  0  0  0  0  0  0  0
   59.0088   25.0099   44.9006 H   0  0  0  0  0  0  0  0  0  0  0  0
   57.5041   23.7591   46.2586 H   0  0  0  0  0  0  0  0  0  0  0  0
   56.0636   24.5769   45.5369 H   0  0  0  0  0  0  0  0  0  0  0  0
   58.6999   21.8731   44.7645 H   0  0  0  0  0  0  0  0  0  0  0  0
   57.7739   20.3995   42.7537 H   0  0  0  0  0  0  0  0  0  0  0  0
   55.1807   23.6989   43.2653 H   0  0  0  0  0  0  0  0  0  0  0  0
   58.8130   28.8664   46.7118 H   0  0  0  0  0  0  0  0  0  0  0  0
   60.2236   30.8523   47.1427 H   0  0  0  0  0  0  0  0  0  0  0  0
  1  2  1  0
  2  3  1  0
  3  4  2  0
  4  5  1  0
  5  6  2  0
  6  7  1  0
  7  8  1  0
  8  9  2  0
  8 10  1  0
 10 11  1  0
 11 12  2  0
 11 13  1  0
 13 14  1  0
 14 15  1  0
 15 16  1  0
 16 17  1  0
 17 18  2  0
 18 19  1  0
 19 20  2  0
 10 21  2  0
 21 22  1  0
 22 23  2  0
 23  3  1  0
 22  6  1  0
 20 16  1  0
  1 24  1  0
  1 25  1  0
  1 26  1  0
  4 27  1  0
  5 28  1  0
 14 29  1  0
 14 30  1  0
 15 31  1  0
 15 32  1  0
 17 33  1  0
 18 34  1  0
 20 35  1  0
 21 36  1  0
 23 37  1  0
M  CHG  1  13  -1
M  END
>  <UniqueID>  (43) 
42

>  <SMILES>  (43) 
COc1ccc2oc(=O)c(C(=O)[N-]CCn3ccnc3)cc2c1

>  <Energy>  (43) 
73.66483753917556

>  <Genealogy>  (43) 
COc1ccc2oc(=O)c(C(=O)[N-]CCn3ccnc3)cc2c1 (protonated)
COc1ccc2oc(=O)c(C(=O)[N-]CCn3ccnc3)cc2c1 (3D coordinates assigned)
COc1ccc2oc(=O)c(C(=O)[N-]CCn3ccnc3)cc2c1 (optimized conformer: 73.66483753917556 kcal/mol)

>  <smiles>  (43) 
COc1ccc2oc(=O)c(C(=O)NCCn3ccnc3)cc2c1

>  <score_type>  (43) 
oracle

>  <origin>  (43) 
adg

>  <m_score__min__energy>  (43) 
-9

>  <m_primary>  (43) 
energy

$$$$
43:0
     RDKit          3D

 54 57  0  0  0  0  0  0  0  0999 V2000
   57.8450   28.9670   52.7800 C   0  0  0  0  0  0  0  0  0  0  0  0
   57.2380   29.9890   51.9950 O   0  0  0  0  0  0  0  0  0  0  0  0
   57.9130   31.1170   51.5040 C   0  0  0  0  0  0  0  0  0  0  0  0
   58.4230   32.0400   52.4250 C   0  0  0  0  0  0  0  0  0  0  0  0
   59.1020   33.1790   51.9850 C   0  0  0  0  0  0  0  0  0  0  0  0
   59.2760   33.4090   50.6180 C   0  0  0  0  0  0  0  0  0  0  0  0
   58.7710   32.4970   49.6780 C   0  0  0  0  0  0  0  0  0  0  0  0
   58.9520   32.7310   48.2720 N   0  0  0  0  0  0  0  0  0  0  0  0
   58.8260   31.6220   47.3190 C   0  0  0  0  0  0  0  0  0  0  0  0
   59.4700   31.9890   45.9720 C   0  0  0  0  0  0  0  0  0  0  0  0
   58.9800   33.2780   45.4110 N   0  0  0  0  0  0  0  0  0  0  0  0
   58.0000   33.0830   44.3200 C   0  0  0  0  0  0  0  0  0  0  0  0
   57.0720   31.8970   44.6190 C   0  0  0  0  0  0  0  0  0  0  0  0
   57.4260   30.6690   43.7700 C   0  0  0  0  0  0  0  0  0  0  0  0
   57.5290   29.4800   44.6160 N   0  0  0  0  0  0  0  0  0  0  0  0
   56.5110   28.7130   45.0760 C   0  0  0  0  0  0  0  0  0  0  0  0
   55.1610   28.9650   44.8560 O   0  0  0  0  0  0  0  0  0  0  0  0
   57.0450   27.6050   45.6980 C   0  0  0  0  0  0  0  0  0  0  0  0
   58.3580   27.6540   45.6020 N   0  0  0  0  0  0  0  0  0  0  0  0
   58.6460   28.7680   44.9050 C   0  0  0  0  0  0  0  0  0  0  0  0
   59.8020   29.0650   44.4990 O   0  0  0  0  0  0  0  0  0  0  0  0
   58.9970   26.3730   45.7720 C   0  0  0  0  0  0  0  0  0  0  0  0
   57.8230   25.4420   46.1750 C   0  0  0  0  0  0  0  0  0  0  0  0
   56.5150   26.2630   46.0080 C   0  0  0  0  0  0  0  0  0  0  0  0
   58.4760   34.2440   46.4170 C   0  0  0  0  0  0  0  0  0  0  0  0
   59.1790   34.0890   47.7670 C   0  0  0  0  0  0  0  0  0  0  0  0
   58.0930   31.3490   50.1250 C   0  0  0  0  0  0  0  0  0  0  0  0
   57.7094   29.1953   53.8475 H   0  0  0  0  0  0  0  0  0  0  0  0
   57.3750   27.9996   52.5494 H   0  0  0  0  0  0  0  0  0  0  0  0
   58.9194   28.9169   52.5494 H   0  0  0  0  0  0  0  0  0  0  0  0
   58.2881   31.8671   53.5029 H   0  0  0  0  0  0  0  0  0  0  0  0
   59.5008   33.8968   52.7170 H   0  0  0  0  0  0  0  0  0  0  0  0
   59.8106   34.3079   50.2771 H   0  0  0  0  0  0  0  0  0  0  0  0
   59.3285   30.7338   47.7297 H   0  0  0  0  0  0  0  0  0  0  0  0
   57.7581   31.4144   47.1562 H   0  0  0  0  0  0  0  0  0  0  0  0
   60.5582   32.0628   46.1150 H   0  0  0  0  0  0  0  0  0  0  0  0
   59.1957   31.1997   45.2566 H   0  0  0  0  0  0  0  0  0  0  0  0
   57.3947   33.9952   44.2130 H   0  0  0  0  0  0  0  0  0  0  0  0
   58.5484   32.8729   43.3899 H   0  0  0  0  0  0  0  0  0  0  0  0
   57.1633   31.6328   45.6829 H   0  0  0  0  0  0  0  0  0  0  0  0
   56.0427   32.1975   44.3734 H   0  0  0  0  0  0  0  0  0  0  0  0
   56.6412   30.5108   43.0156 H   0  0  0  0  0  0  0  0  0  0  0  0
   58.3936   30.8420   43.2763 H   0  0  0  0  0  0  0  0  0  0  0  0
   59.4628   26.0369   44.8339 H   0  0  0  0  0  0  0  0  0  0  0  0
   59.8081   26.3907   46.5148 H   0  0  0  0  0  0  0  0  0  0  0  0
   57.8003   24.5579   45.5210 H   0  0  0  0  0  0  0  0  0  0  0  0
   57.9373   25.0920   47.2115 H   0  0  0  0  0  0  0  0  0  0  0  0
   55.8994   25.8741   45.1834 H   0  0  0  0  0  0  0  0  0  0  0  0
   55.8536   26.2349   46.8865 H   0  0  0  0  0  0  0  0  0  0  0  0
   58.6453   35.2650   46.0442 H   0  0  0  0  0  0  0  0  0  0  0  0
   57.4045   34.0468   46.5686 H   0  0  0  0  0  0  0  0  0  0  0  0
   60.2584   34.2601   47.6422 H   0  0  0  0  0  0  0  0  0  0  0  0
   58.7767   34.8225   48.4812 H   0  0  0  0  0  0  0  0  0  0  0  0
   57.7004   30.6271   49.3938 H   0  0  0  0  0  0  0  0  0  0  0  0
  1  2  1  0
  2  3  1  0
  3  4  2  0
  4  5  1  0
  5  6  2  0
  6  7  1  0
  7  8  1  0
  8  9  1  0
  9 10  1  0
 10 11  1  0
 11 12  1  0
 12 13  1  0
 13 14  1  0
 14 15  1  0
 15 16  1  0
 16 17  1  0
 16 18  2  0
 18 19  1  0
 19 20  1  0
 20 21  2  0
 19 22  1  0
 22 23  1  0
 23 24  1  0
 11 25  1  0
 25 26  1  0
  7 27  2  0
 27  3  1  0
 26  8  1  0
 20 15  1  0
 24 18  1  0
  1 28  1  0
  1 29  1  0
  1 30  1  0
  4 31  1  0
  5 32  1  0
  6 33  1  0
  9 34  1  0
  9 35  1  0
 10 36  1  0
 10 37  1  0
 12 38  1  0
 12 39  1  0
 13 40  1  0
 13 41  1  0
 14 42  1  0
 14 43  1  0
 22 44  1  0
 22 45  1  0
 23 46  1  0
 23 47  1  0
 24 48  1  0
 24 49  1  0
 25 50  1  0
 25 51  1  0
 26 52  1  0
 26 53  1  0
 27 54  1  0
M  CHG  1  17  -1
M  END
>  <UniqueID>  (44) 
43

>  <SMILES>  (44) 
COc1cccc(N2CCN(CCCn3c([O-])c4n(c3=O)CCC4)CC2)c1

>  <Energy>  (44) 
120.0599319349667

>  <Genealogy>  (44) 
COc1cccc(N2CCN(CCCn3c([O-])c4n(c3=O)CCC4)CC2)c1 (protonated)
COc1cccc(N2CCN(CCCn3c([O-])c4n(c3=O)CCC4)CC2)c1 (3D coordinates assigned)
COc1cccc(N2CCN(CCCn3c([O-])c4n(c3=O)CCC4)CC2)c1 (nonaromatic ring conformer: 120.0599319349667 kcal/mol)

>  <smiles>  (44) 
COc1cccc(N2CCN(CCCn3c(O)c4n(c3=O)CCC4)CC2)c1

>  <score_type>  (44) 
oracle

>  <origin>  (44) 
adg

>  <m_score__min__energy>  (44) 
-11.81

>  <m_primary>  (44) 
energy

$$$$
44:0
     RDKit          3D

 66 68  0  0  0  0  0  0  0  0999 V2000
   61.1080   33.8480   46.3460 C   0  0  0  0  0  0  0  0  0  0  0  0
   59.7110   34.3410   45.9370 C   0  0  0  0  0  0  0  0  0  0  0  0
   58.6810   34.2130   46.9960 N   0  0  0  0  0  0  0  0  0  0  0  0
   57.4160   33.6360   46.4870 C   0  0  0  0  0  0  0  0  0  0  0  0
   57.0790   34.2240   45.1200 C   0  0  0  0  0  0  0  0  0  0  0  0
   59.1550   33.5350   48.2270 C   0  0  0  0  0  0  0  0  0  0  0  0
   59.7130   34.5410   49.2390 C   0  0  0  0  0  0  0  0  0  0  0  0
   60.5560   33.8820   50.1620 O   0  0  0  0  0  0  0  0  0  0  0  0
   59.7920   33.1450   51.0990 C   0  0  0  0  0  0  0  0  0  0  0  0
   60.7020   32.1250   51.8220 C   0  0  0  0  0  0  0  0  0  0  0  0
   61.2680   31.0570   50.9590 N   0  0  0  0  0  0  0  0  0  0  0  0
   60.2160   30.2800   50.2560 C   0  0  0  0  0  0  0  0  0  0  0  0
   60.8270   29.4130   49.1460 C   0  0  0  0  0  0  0  0  0  0  0  0
   61.5230   30.2230   48.1100 N   0  0  0  0  0  0  0  0  0  0  0  0
   60.7280   30.3070   46.8650 C   0  0  0  0  0  0  0  0  0  0  0  0
   59.2520   30.6140   47.1590 C   0  0  0  0  0  0  0  0  0  0  0  0
   58.3750   29.7190   46.3840 N   0  0  0  0  0  0  0  0  0  0  0  0
   58.0220   28.4280   46.9260 C   0  0  0  0  0  0  0  0  0  0  0  0
   58.4500   28.0660   48.0540 O   0  0  0  0  0  0  0  0  0  0  0  0
   57.2020   27.4670   46.1160 C   0  0  0  0  0  0  0  0  0  0  0  0
   56.3940   28.1510   45.1610 O   0  0  0  0  0  0  0  0  0  0  0  0
   56.8270   29.3120   44.5160 C   0  0  0  0  0  0  0  0  0  0  0  0
   56.2300   29.6930   43.3090 C   0  0  0  0  0  0  0  0  0  0  0  0
   56.6770   30.8320   42.6350 C   0  0  0  0  0  0  0  0  0  0  0  0
   57.7190   31.5930   43.1660 C   0  0  0  0  0  0  0  0  0  0  0  0
   58.3060   31.2310   44.3820 C   0  0  0  0  0  0  0  0  0  0  0  0
   57.8500   30.0950   45.0850 C   0  0  0  0  0  0  0  0  0  0  0  0
   61.9320   31.5660   48.5890 C   0  0  0  0  0  0  0  0  0  0  0  0
   62.3610   31.5290   50.0640 C   0  0  0  0  0  0  0  0  0  0  0  0
   61.1810   33.8222   47.4433 H   0  0  0  0  0  0  0  0  0  0  0  0
   61.2725   32.8375   45.9437 H   0  0  0  0  0  0  0  0  0  0  0  0
   61.8703   34.5314   45.9437 H   0  0  0  0  0  0  0  0  0  0  0  0
   59.7886   35.4025   45.6593 H   0  0  0  0  0  0  0  0  0  0  0  0
   59.3846   33.7019   45.1033 H   0  0  0  0  0  0  0  0  0  0  0  0
   57.5252   32.5452   46.3961 H   0  0  0  0  0  0  0  0  0  0  0  0
   56.6046   33.8758   47.1899 H   0  0  0  0  0  0  0  0  0  0  0  0
   56.5360   35.1715   45.2522 H   0  0  0  0  0  0  0  0  0  0  0  0
   58.0083   34.4088   44.5612 H   0  0  0  0  0  0  0  0  0  0  0  0
   56.4498   33.5156   44.5612 H   0  0  0  0  0  0  0  0  0  0  0  0
   58.3131   32.9956   48.6854 H   0  0  0  0  0  0  0  0  0  0  0  0
   59.9604   32.8385   47.9507 H   0  0  0  0  0  0  0  0  0  0  0  0
   60.2887   35.3122   48.7063 H   0  0  0  0  0  0  0  0  0  0  0  0
   58.8778   35.0072   49.7823 H   0  0  0  0  0  0  0  0  0  0  0  0
   59.3548   33.8334   51.8373 H   0  0  0  0  0  0  0  0  0  0  0  0
   58.9876   32.6092   50.5739 H   0  0  0  0  0  0  0  0  0  0  0  0
   61.5396   32.6769   52.2734 H   0  0  0  0  0  0  0  0  0  0  0  0
   60.0630   31.6150   52.5580 H   0  0  0  0  0  0  0  0  0  0  0  0
   61.7160   30.3820   51.6270 H   0  0  0  0  0  0  0  0  0  0  0  0
   59.7035   29.6298   50.9803 H   0  0  0  0  0  0  0  0  0  0  0  0
   59.5033   30.9837   49.8011 H   0  0  0  0  0  0  0  0  0  0  0  0
   61.5518   28.7200   49.5981 H   0  0  0  0  0  0  0  0  0  0  0  0
   60.0055   28.8729   48.6526 H   0  0  0  0  0  0  0  0  0  0  0  0
   61.1399   31.1061   46.2312 H   0  0  0  0  0  0  0  0  0  0  0  0
   60.7830   29.3343   46.3542 H   0  0  0  0  0  0  0  0  0  0  0  0
   59.0590   30.4698   48.2323 H   0  0  0  0  0  0  0  0  0  0  0  0
   59.0410   31.6549   46.8725 H   0  0  0  0  0  0  0  0  0  0  0  0
   57.8768   26.7783   45.5865 H   0  0  0  0  0  0  0  0  0  0  0  0
   56.5395   26.9151   46.7990 H   0  0  0  0  0  0  0  0  0  0  0  0
   55.4074   29.0946   42.8903 H   0  0  0  0  0  0  0  0  0  0  0  0
   56.2075   31.1290   41.6856 H   0  0  0  0  0  0  0  0  0  0  0  0
   58.0798   32.4808   42.6260 H   0  0  0  0  0  0  0  0  0  0  0  0
   59.1281   31.8350   44.7935 H   0  0  0  0  0  0  0  0  0  0  0  0
   62.7760   31.9215   47.9797 H   0  0  0  0  0  0  0  0  0  0  0  0
   61.0705   32.2437   48.4961 H   0  0  0  0  0  0  0  0  0  0  0  0
   63.2198   30.8492   50.1657 H   0  0  0  0  0  0  0  0  0  0  0  0
   62.6225   32.5544   50.3642 H   0  0  0  0  0  0  0  0  0  0  0  0
  1  2  1  0
  2  3  1  0
  3  4  1  0
  4  5  1  0
  3  6  1  0
  6  7  1  0
  7  8  1  0
  8  9  1  0
  9 10  1  0
 10 11  1  0
 11 12  1  0
 12 13  1  0
 13 14  1  0
 14 15  1  0
 15 16  1  0
 16 17  1  0
 17 18  1  0
 18 19  2  0
 18 20  1  0
 20 21  1  0
 21 22  1  0
 22 23  2  0
 23 24  1  0
 24 25  2  0
 25 26  1  0
 26 27  2  0
 14 28  1  0
 28 29  1  0
 29 11  1  0
 27 17  1  0
 27 22  1  0
  1 30  1  0
  1 31  1  0
  1 32  1  0
  2 33  1  0
  2 34  1  0
  4 35  1  0
  4 36  1  0
  5 37  1  0
  5 38  1  0
  5 39  1  0
  6 40  1  0
  6 41  1  0
  7 42  1  0
  7 43  1  0
  9 44  1  0
  9 45  1  0
 10 46  1  0
 10 47  1  0
 11 48  1  0
 12 49  1  0
 12 50  1  0
 13 51  1  0
 13 52  1  0
 15 53  1  0
 15 54  1  0
 16 55  1  0
 16 56  1  0
 20 57  1  0
 20 58  1  0
 23 59  1  0
 24 60  1  0
 25 61  1  0
 26 62  1  0
 28 63  1  0
 28 64  1  0
 29 65  1  0
 29 66  1  0
M  CHG  1  11   1
M  END
>  <UniqueID>  (45) 
44

>  <SMILES>  (45) 
CCN(CC)CCOCC[NH+]1CCN(CCN2C(=O)COc3ccccc32)CC1

>  <Energy>  (45) 
88.01308590722837

>  <Genealogy>  (45) 
CCN(CC)CCOCC[NH+]1CCN(CCN2C(=O)COc3ccccc32)CC1 (protonated)
CCN(CC)CCOCC[NH+]1CCN(CCN2C(=O)COc3ccccc32)CC1 (3D coordinates assigned)
CCN(CC)CCOCC[NH+]1CCN(CCN2C(=O)COc3ccccc32)CC1 (nonaromatic ring conformer: 88.01308590722837 kcal/mol)

>  <smiles>  (45) 
CCN(CC)CCOCCN1CCN(CCN2C(=O)COc3ccccc32)CC1

>  <score_type>  (45) 
oracle

>  <origin>  (45) 
adg

>  <m_score__min__energy>  (45) 
-5.7000000000000002

>  <m_primary>  (45) 
energy

$$$$
45:0
     RDKit          3D

 53 56  0  0  0  0  0  0  0  0999 V2000
   54.4630   30.7780   51.9630 C   0  0  0  0  0  0  0  0  0  0  0  0
   55.8080   30.6230   51.5260 O   0  0  0  0  0  0  0  0  0  0  0  0
   56.8140   30.0890   52.3410 C   0  0  0  0  0  0  0  0  0  0  0  0
   57.0390   28.8470   52.3470 O   0  0  0  0  0  0  0  0  0  0  0  0
   57.6680   30.9940   53.1880 C   0  0  2  0  0  0  0  0  0  0  0  0
   57.5780   32.4270   52.7540 C   0  0  0  0  0  0  0  0  0  0  0  0
   56.6610   33.2900   52.7070 O   0  0  0  0  0  0  0  0  0  0  0  0
   58.9980   32.3830   52.3280 N   0  0  0  0  0  0  0  0  0  0  0  0
   59.6980   33.0110   51.2230 C   0  0  1  0  0  0  0  0  0  0  0  0
   61.1520   33.1780   51.5570 C   0  0  0  0  0  0  0  0  0  0  0  0
   61.6930   32.5000   52.4700 O   0  0  0  0  0  0  0  0  0  0  0  0
   61.9000   34.1410   50.8940 O   0  0  0  0  0  0  0  0  0  0  0  0
   59.4830   32.1650   49.9850 C   0  0  0  0  0  0  0  0  0  0  0  0
   59.2600   32.7730   48.6420 C   0  0  0  0  0  0  0  0  0  0  0  0
   58.0840   32.7280   48.0390 O   0  0  0  0  0  0  0  0  0  0  0  0
   58.1840   33.3330   46.8810 C   0  0  0  0  0  0  0  0  0  0  0  0
   57.1840   33.4900   45.9250 C   0  0  0  0  0  0  0  0  0  0  0  0
   57.5180   34.1420   44.7230 C   0  0  0  0  0  0  0  0  0  0  0  0
   58.8350   34.6020   44.5030 C   0  0  0  0  0  0  0  0  0  0  0  0
   59.8240   34.4260   45.4870 C   0  0  0  0  0  0  0  0  0  0  0  0
   59.4540   33.8050   46.6840 C   0  0  0  0  0  0  0  0  0  0  0  0
   60.1650   33.4590   47.8170 C   0  0  0  0  0  0  0  0  0  0  0  0
   61.5560   33.7140   48.0610 N   0  0  0  0  0  0  0  0  0  0  0  0
   62.5730   33.5930   47.0140 C   0  0  0  0  0  0  0  0  0  0  0  0
   63.9120   33.1160   47.5950 C   0  0  0  0  0  0  0  0  0  0  0  0
   63.7970   32.9130   49.0570 N   0  0  0  0  0  0  0  0  0  0  0  0
   65.1170   33.0440   49.6990 C   0  0  0  0  0  0  0  0  0  0  0  0
   63.2330   31.5860   49.3610 C   0  0  0  0  0  0  0  0  0  0  0  0
   59.3750   30.8220   50.1050 C   0  0  0  0  0  0  0  0  0  0  0  0
   59.7650   29.8830   51.6120 S   0  0  0  0  0  0  0  0  0  0  0  0
   59.0800   31.0460   52.8650 C   0  0  2  0  0  0  0  0  0  0  0  0
   54.4328   30.7815   53.0626 H   0  0  0  0  0  0  0  0  0  0  0  0
   54.0609   31.7284   51.5822 H   0  0  0  0  0  0  0  0  0  0  0  0
   53.8553   29.9439   51.5822 H   0  0  0  0  0  0  0  0  0  0  0  0
   57.3487   30.6350   54.1775 H   0  0  0  0  0  0  0  0  0  0  0  0
   59.3034   34.0198   51.0318 H   0  0  0  0  0  0  0  0  0  0  0  0
   56.1649   33.1163   46.1034 H   0  0  0  0  0  0  0  0  0  0  0  0
   56.7492   34.2940   43.9511 H   0  0  0  0  0  0  0  0  0  0  0  0
   59.0887   35.1010   43.5561 H   0  0  0  0  0  0  0  0  0  0  0  0
   60.8567   34.7663   45.3203 H   0  0  0  0  0  0  0  0  0  0  0  0
   61.8470   34.0590   49.0030 H   0  0  0  0  0  0  0  0  0  0  0  0
   62.2293   32.8678   46.2617 H   0  0  0  0  0  0  0  0  0  0  0  0
   62.7234   34.5825   46.5576 H   0  0  0  0  0  0  0  0  0  0  0  0
   64.1961   32.1662   47.1184 H   0  0  0  0  0  0  0  0  0  0  0  0
   64.6783   33.8807   47.4001 H   0  0  0  0  0  0  0  0  0  0  0  0
   64.9958   33.0320   50.7922 H   0  0  0  0  0  0  0  0  0  0  0  0
   65.7589   32.2051   49.3920 H   0  0  0  0  0  0  0  0  0  0  0  0
   65.5815   33.9927   49.3920 H   0  0  0  0  0  0  0  0  0  0  0  0
   63.1764   31.4527   50.4514 H   0  0  0  0  0  0  0  0  0  0  0  0
   62.2242   31.5087   48.9293 H   0  0  0  0  0  0  0  0  0  0  0  0
   63.8774   30.8060   48.9293 H   0  0  0  0  0  0  0  0  0  0  0  0
   59.0261   30.2575   49.2277 H   0  0  0  0  0  0  0  0  0  0  0  0
   59.7447   30.7847   53.7016 H   0  0  0  0  0  0  0  0  0  0  0  0
  1  2  1  0
  2  3  1  0
  3  4  2  0
  3  5  1  0
  5  6  1  0
  6  7  2  0
  6  8  1  0
  8  9  1  0
  9 10  1  0
 10 11  2  0
 10 12  1  0
  9 13  1  0
 13 14  1  0
 14 15  1  0
 15 16  1  0
 16 17  2  0
 17 18  1  0
 18 19  2  0
 19 20  1  0
 20 21  2  0
 21 22  1  0
 22 23  1  0
 23 24  1  0
 24 25  1  0
 25 26  1  0
 26 27  1  0
 26 28  1  0
 13 29  2  0
 29 30  1  0
 30 31  1  0
 31  5  1  0
 31  8  1  0
 22 14  2  0
 21 16  1  0
  1 32  1  0
  1 33  1  0
  1 34  1  0
  5 35  1  1
  9 36  1  6
 17 37  1  0
 18 38  1  0
 19 39  1  0
 20 40  1  0
 23 41  1  0
 24 42  1  0
 24 43  1  0
 25 44  1  0
 25 45  1  0
 27 46  1  0
 27 47  1  0
 27 48  1  0
 28 49  1  0
 28 50  1  0
 28 51  1  0
 29 52  1  0
 31 53  1  1
M  CHG  1  12  -1
M  END
>  <UniqueID>  (46) 
45

>  <SMILES>  (46) 
COC(=O)[C@@H]1C(=O)N2C1SC=C(c1oc3ccccc3c1NCCN(C)C)[C@@H]2C(=O)[O-]

>  <Energy>  (46) 
140.11208418064592

>  <Genealogy>  (46) 
COC(=O)C1C(=O)N2C(C(=O)[O-])C(c3oc4ccccc4c3NCCN(C)C)=CSC12 (protonated)
COC(=O)[C@@H]1C(=O)N2C1SC=C(c1oc3ccccc3c1NCCN(C)C)[C@@H]2C(=O)[O-] (chirality)
COC(=O)[C@@H]1C(=O)N2C1SC=C(c1oc3ccccc3c1NCCN(C)C)[C@@H]2C(=O)[O-] (3D coordinates assigned)
COC(=O)[C@@H]1C(=O)N2C1SC=C(c1oc3ccccc3c1NCCN(C)C)[C@@H]2C(=O)[O-] (nonaromatic ring conformer: 140.11208418064592 kcal/mol)

>  <smiles>  (46) 
COC(=O)C1C(=O)N2C(C(=O)O)C(c3oc4ccccc4c3NCCN(C)C)=CSC12

>  <score_type>  (46) 
oracle

>  <origin>  (46) 
adg

>  <m_score__min__energy>  (46) 
-9.0299999999999994

>  <m_primary>  (46) 
energy

$$$$
46:0
     RDKit          3D

 51 54  0  0  0  0  0  0  0  0999 V2000
   59.9980   29.1190   50.0310 C   0  0  0  0  0  0  0  0  0  0  0  0
   60.0870   30.6060   49.7020 C   0  0  0  0  0  0  0  0  0  0  0  0
   61.2630   30.8890   48.8700 N   0  0  0  0  0  0  0  0  0  0  0  0
   62.4130   31.4940   49.2390 C   0  0  0  0  0  0  0  0  0  0  0  0
   62.8310   31.9890   50.9120 S   0  0  0  0  0  0  0  0  0  0  0  0
   62.4580   33.7470   50.6200 C   0  0  0  0  0  0  0  0  0  0  0  0
   61.2040   33.8610   49.8160 C   0  0  0  0  0  0  0  0  0  0  0  0
   60.1030   34.0400   50.4040 O   0  0  0  0  0  0  0  0  0  0  0  0
   61.2540   33.6990   48.3890 N   0  0  0  0  0  0  0  0  0  0  0  0
   60.1430   33.9490   47.5130 C   0  0  0  0  0  0  0  0  0  0  0  0
   58.8650   33.5040   47.8810 C   0  0  0  0  0  0  0  0  0  0  0  0
   57.7730   33.7060   47.0320 C   0  0  0  0  0  0  0  0  0  0  0  0
   57.9490   34.3310   45.7870 C   0  0  0  0  0  0  0  0  0  0  0  0
   56.7760   34.5710   44.8830 C   0  0  0  0  0  0  0  0  0  0  0  0
   59.2270   34.7730   45.4130 C   0  0  0  0  0  0  0  0  0  0  0  0
   60.3190   34.5750   46.2650 C   0  0  0  0  0  0  0  0  0  0  0  0
   63.2310   31.6900   48.1890 N   0  0  0  0  0  0  0  0  0  0  0  0
   62.6060   31.2180   47.1190 N   0  0  0  0  0  0  0  0  0  0  0  0
   61.4220   30.7280   47.5360 C   0  0  0  0  0  0  0  0  0  0  0  0
   60.4260   30.1500   46.6150 C   0  0  0  0  0  0  0  0  0  0  0  0
   60.4230   28.7770   46.3320 C   0  0  0  0  0  0  0  0  0  0  0  0
   59.4810   28.2370   45.4510 C   0  0  0  0  0  0  0  0  0  0  0  0
   58.5300   29.0680   44.8400 C   0  0  0  0  0  0  0  0  0  0  0  0
   57.5790   28.5380   43.9540 C   0  0  0  0  0  0  0  0  0  0  0  0
   56.6390   29.3780   43.3500 C   0  0  0  0  0  0  0  0  0  0  0  0
   56.6400   30.7490   43.6260 C   0  0  0  0  0  0  0  0  0  0  0  0
   57.5870   31.2900   44.5000 C   0  0  0  0  0  0  0  0  0  0  0  0
   58.5370   30.4590   45.1120 C   0  0  0  0  0  0  0  0  0  0  0  0
   59.4930   30.9910   45.9910 C   0  0  0  0  0  0  0  0  0  0  0  0
   59.9900   28.9849   51.1228 H   0  0  0  0  0  0  0  0  0  0  0  0
   59.0734   28.7036   49.6037 H   0  0  0  0  0  0  0  0  0  0  0  0
   60.8665   28.5963   49.6037 H   0  0  0  0  0  0  0  0  0  0  0  0
   59.1800   30.9096   49.1587 H   0  0  0  0  0  0  0  0  0  0  0  0
   60.1781   31.1692   50.6425 H   0  0  0  0  0  0  0  0  0  0  0  0
   62.3235   34.2588   51.5844 H   0  0  0  0  0  0  0  0  0  0  0  0
   63.2899   34.2131   50.0716 H   0  0  0  0  0  0  0  0  0  0  0  0
   62.1240   33.2930   47.9740 H   0  0  0  0  0  0  0  0  0  0  0  0
   58.7209   32.9926   48.8442 H   0  0  0  0  0  0  0  0  0  0  0  0
   56.7709   33.3737   47.3408 H   0  0  0  0  0  0  0  0  0  0  0  0
   55.8771   34.7549   45.4897 H   0  0  0  0  0  0  0  0  0  0  0  0
   56.9755   35.4469   44.2482 H   0  0  0  0  0  0  0  0  0  0  0  0
   56.6154   33.6871   44.2482 H   0  0  0  0  0  0  0  0  0  0  0  0
   59.3710   35.2772   44.4460 H   0  0  0  0  0  0  0  0  0  0  0  0
   61.3205   34.9105   45.9577 H   0  0  0  0  0  0  0  0  0  0  0  0
   61.1668   28.1199   46.8063 H   0  0  0  0  0  0  0  0  0  0  0  0
   59.4856   27.1581   45.2365 H   0  0  0  0  0  0  0  0  0  0  0  0
   57.5734   27.4601   43.7347 H   0  0  0  0  0  0  0  0  0  0  0  0
   55.8960   28.9592   42.6553 H   0  0  0  0  0  0  0  0  0  0  0  0
   55.8929   31.4038   43.1536 H   0  0  0  0  0  0  0  0  0  0  0  0
   57.5874   32.3701   44.7085 H   0  0  0  0  0  0  0  0  0  0  0  0
   59.5107   32.0724   46.1915 H   0  0  0  0  0  0  0  0  0  0  0  0
  1  2  1  0
  2  3  1  0
  3  4  1  0
  4  5  1  0
  5  6  1  0
  6  7  1  0
  7  8  2  0
  7  9  1  0
  9 10  1  0
 10 11  2  0
 11 12  1  0
 12 13  2  0
 13 14  1  0
 13 15  1  0
 15 16  2  0
  4 17  2  0
 17 18  1  0
 18 19  2  0
 19 20  1  0
 20 21  2  0
 21 22  1  0
 22 23  2  0
 23 24  1  0
 24 25  2  0
 25 26  1  0
 26 27  2  0
 27 28  1  0
 28 29  2  0
 19  3  1  0
 29 20  1  0
 16 10  1  0
 28 23  1  0
  1 30  1  0
  1 31  1  0
  1 32  1  0
  2 33  1  0
  2 34  1  0
  6 35  1  0
  6 36  1  0
  9 37  1  0
 11 38  1  0
 12 39  1  0
 14 40  1  0
 14 41  1  0
 14 42  1  0
 15 43  1  0
 16 44  1  0
 21 45  1  0
 22 46  1  0
 24 47  1  0
 25 48  1  0
 26 49  1  0
 27 50  1  0
 29 51  1  0
M  END
>  <UniqueID>  (47) 
46

>  <SMILES>  (47) 
CCn1c(SCC(=O)Nc2ccc(C)cc2)nnc1-c1ccc2ccccc2c1

>  <Energy>  (47) 
92.6005632680781

>  <Genealogy>  (47) 
CCn1c(SCC(=O)Nc2ccc(C)cc2)nnc1-c1ccc2ccccc2c1 (3D coordinates assigned)
CCn1c(SCC(=O)Nc2ccc(C)cc2)nnc1-c1ccc2ccccc2c1 (optimized conformer: 92.6005632680781 kcal/mol)

>  <smiles>  (47) 
CCn1c(SCC(=O)Nc2ccc(C)cc2)nnc1-c1ccc2ccccc2c1

>  <score_type>  (47) 
oracle

>  <origin>  (47) 
adg

>  <m_score__min__energy>  (47) 
-9.6300000000000008

>  <m_primary>  (47) 
energy

$$$$
47:0
     RDKit          3D

 24 24  0  0  0  0  0  0  0  0999 V2000
   57.3850   31.3390   42.9880 C   0  0  0  0  0  0  0  0  0  0  0  0
   57.4060   31.7350   44.4600 C   0  0  0  0  0  0  0  0  0  0  0  0
   57.1030   30.5850   45.3030 N   0  0  0  0  0  0  0  0  0  0  0  0
   56.3930   29.4310   44.8440 C   0  0  0  0  0  0  0  0  0  0  0  0
   55.1350   29.3810   44.9200 O   0  0  0  0  0  0  0  0  0  0  0  0
   57.1520   28.2560   44.3160 C   0  0  0  0  0  0  0  0  0  0  0  0
   57.4880   27.3130   45.4410 C   0  0  0  0  0  0  0  0  0  0  0  0
   58.8310   27.1200   45.8100 C   0  0  0  0  0  0  0  0  0  0  0  0
   59.1610   26.2230   46.8300 C   0  0  0  0  0  0  0  0  0  0  0  0
   58.1580   25.5050   47.4830 C   0  0  0  0  0  0  0  0  0  0  0  0
   56.8210   25.6780   47.1150 C   0  0  0  0  0  0  0  0  0  0  0  0
   56.4820   26.5740   46.0950 C   0  0  0  0  0  0  0  0  0  0  0  0
   55.1460   26.7220   45.7360 O   0  0  0  0  0  0  0  0  0  0  0  0
   57.3269   30.2438   42.9037 H   0  0  0  0  0  0  0  0  0  0  0  0
   56.5096   31.7913   42.4991 H   0  0  0  0  0  0  0  0  0  0  0  0
   58.3033   31.6962   42.4991 H   0  0  0  0  0  0  0  0  0  0  0  0
   58.4041   32.1193   44.7172 H   0  0  0  0  0  0  0  0  0  0  0  0
   56.6451   32.5109   44.6303 H   0  0  0  0  0  0  0  0  0  0  0  0
   56.5371   27.7299   43.5709 H   0  0  0  0  0  0  0  0  0  0  0  0
   58.0837   28.6079   43.8490 H   0  0  0  0  0  0  0  0  0  0  0  0
   59.6260   27.6777   45.2934 H   0  0  0  0  0  0  0  0  0  0  0  0
   60.2132   26.0827   47.1186 H   0  0  0  0  0  0  0  0  0  0  0  0
   58.4201   24.8025   48.2879 H   0  0  0  0  0  0  0  0  0  0  0  0
   56.0327   25.1081   47.6287 H   0  0  0  0  0  0  0  0  0  0  0  0
  1  2  1  0
  2  3  1  0
  3  4  1  0
  4  5  2  0
  4  6  1  0
  6  7  1  0
  7  8  2  0
  8  9  1  0
  9 10  2  0
 10 11  1  0
 11 12  2  0
 12 13  1  0
 12  7  1  0
  1 14  1  0
  1 15  1  0
  1 16  1  0
  2 17  1  0
  2 18  1  0
  6 19  1  0
  6 20  1  0
  8 21  1  0
  9 22  1  0
 10 23  1  0
 11 24  1  0
M  CHG  2   3  -1  13  -1
M  END
>  <UniqueID>  (48) 
47

>  <SMILES>  (48) 
CC[N-]C(=O)Cc1ccccc1[O-]

>  <Energy>  (48) 
16.111286164261852

>  <Genealogy>  (48) 
CC[N-]C(=O)Cc1ccccc1[O-] (protonated)
CC[N-]C(=O)Cc1ccccc1[O-] (3D coordinates assigned)
CC[N-]C(=O)Cc1ccccc1[O-] (optimized conformer: 16.111286164261852 kcal/mol)

>  <smiles>  (48) 
CCNC(=O)Cc1ccccc1O

>  <score_type>  (48) 
oracle

>  <origin>  (48) 
adg

>  <m_score__min__energy>  (48) 
-10.470000000000001

>  <m_primary>  (48) 
energy

$$$$
48:0
     RDKit          3D

 46 48  0  0  0  0  0  0  0  0999 V2000
   58.3977   22.3471   44.0727 H   0  0  0  0  0  0  0  0  0  0  0  0
   57.6080   23.0380   44.4030 C   0  0  0  0  0  0  0  0  0  0  0  0
   57.9420   24.3320   44.8010 C   0  0  0  0  0  0  0  0  0  0  0  0
   58.9959   24.6471   44.7945 H   0  0  0  0  0  0  0  0  0  0  0  0
   56.9500   25.2380   45.2100 C   0  0  0  0  0  0  0  0  0  0  0  0
   57.3400   26.6040   45.6550 C   0  0  0  0  0  0  0  0  0  0  0  0
   56.6460   27.6860   45.1790 N   0  0  0  0  0  0  0  0  0  0  0  0
   56.9630   28.9720   45.5130 C   0  0  0  0  0  0  0  0  0  0  0  0
   56.2900   29.9830   45.0470 N   0  0  0  0  0  0  0  0  0  0  0  0
   56.3420   30.4620   43.6640 C   0  0  0  0  0  0  0  0  0  0  0  0
   55.3583   30.8685   43.3862 H   0  0  0  0  0  0  0  0  0  0  0  0
   56.6074   29.6189   43.0092 H   0  0  0  0  0  0  0  0  0  0  0  0
   57.4000   31.5570   43.5060 C   0  0  0  0  0  0  0  0  0  0  0  0
   57.0532   32.2799   42.7529 H   0  0  0  0  0  0  0  0  0  0  0  0
   58.3404   31.0787   43.1947 H   0  0  0  0  0  0  0  0  0  0  0  0
   57.6530   32.2820   44.7920 C   0  0  0  0  0  0  0  0  0  0  0  0
   56.6870   32.5520   45.5590 O   0  0  0  0  0  0  0  0  0  0  0  0
   58.9510   32.6850   45.1150 O   0  0  0  0  0  0  0  0  0  0  0  0
   59.2570   34.0080   45.5350 C   0  0  0  0  0  0  0  0  0  0  0  0
   59.2669   34.0507   46.6341 H   0  0  0  0  0  0  0  0  0  0  0  0
   60.2455   34.2962   45.1480 H   0  0  0  0  0  0  0  0  0  0  0  0
   58.4954   34.7010   45.1480 H   0  0  0  0  0  0  0  0  0  0  0  0
   58.0400   29.1690   46.3750 C   0  0  0  0  0  0  0  0  0  0  0  0
   58.7080   28.1180   46.8650 N   0  0  0  0  0  0  0  0  0  0  0  0
   58.4080   26.8320   46.5540 C   0  0  0  0  0  0  0  0  0  0  0  0
   58.9760   25.9950   46.9863 H   0  0  0  0  0  0  0  0  0  0  0  0
   59.6600   28.6130   47.6730 C   0  0  0  0  0  0  0  0  0  0  0  0
   60.3973   28.0311   48.2455 H   0  0  0  0  0  0  0  0  0  0  0  0
   59.5400   29.9960   47.6510 C   0  0  0  0  0  0  0  0  0  0  0  0
   60.1750   30.6997   48.2092 H   0  0  0  0  0  0  0  0  0  0  0  0
   58.5180   30.3410   46.8340 N   0  0  0  0  0  0  0  0  0  0  0  0
   58.1790   31.3040   46.6190 H   0  0  0  0  0  0  0  0  0  0  0  0
   55.6090   24.8040   45.2350 C   0  0  0  0  0  0  0  0  0  0  0  0
   54.8206   25.4951   45.5678 H   0  0  0  0  0  0  0  0  0  0  0  0
   55.2660   23.4960   44.8390 C   0  0  0  0  0  0  0  0  0  0  0  0
   53.9390   23.0360   44.8550 O   0  0  0  0  0  0  0  0  0  0  0  0
   53.1250   22.9530   46.0210 C   0  0  0  0  0  0  0  0  0  0  0  0
   53.7600   23.0177   46.9169 H   0  0  0  0  0  0  0  0  0  0  0  0
   52.4021   23.7821   46.0233 H   0  0  0  0  0  0  0  0  0  0  0  0
   52.5843   21.9951   46.0233 H   0  0  0  0  0  0  0  0  0  0  0  0
   56.2680   22.6100   44.4210 C   0  0  0  0  0  0  0  0  0  0  0  0
   55.8970   21.3110   44.0400 O   0  0  0  0  0  0  0  0  0  0  0  0
   56.3440   20.1250   44.6870 C   0  0  0  0  0  0  0  0  0  0  0  0
   56.2929   20.2606   45.7774 H   0  0  0  0  0  0  0  0  0  0  0  0
   55.7019   19.2820   44.3919 H   0  0  0  0  0  0  0  0  0  0  0  0
   57.3828   19.9156   44.3919 H   0  0  0  0  0  0  0  0  0  0  0  0
  1  2  1  0
  2  3  2  0
  3  4  1  0
  3  5  1  0
  5  6  1  0
  6  7  1  0
  7  8  1  0
  8  9  2  0
  9 10  1  0
 10 11  1  0
 10 12  1  0
 10 13  1  0
 13 14  1  0
 13 15  1  0
 13 16  1  0
 16 17  2  0
 16 18  1  0
 18 19  1  0
 19 20  1  0
 19 21  1  0
 19 22  1  0
  8 23  1  0
 23 24  1  0
 24 25  1  0
 25 26  1  0
 24 27  1  0
 27 28  1  0
 27 29  2  0
 29 30  1  0
 29 31  1  0
 31 32  1  0
  5 33  2  0
 33 34  1  0
 33 35  1  0
 35 36  1  0
 36 37  1  0
 37 38  1  0
 37 39  1  0
 37 40  1  0
 35 41  2  0
 41 42  1  0
 42 43  1  0
 43 44  1  0
 43 45  1  0
 43 46  1  0
 41  2  1  0
 25  6  2  0
 31 23  2  0
M  CHG  2   7  -1  31   1
M  END
>  <UniqueID>  (49) 
48

>  <SMILES>  (49) 
COC(=O)CC/N=c1\[n-]c(-c2ccc(OC)c(OC)c2)cn2cc[nH+]c12

>  <Energy>  (49) 
82.10460437335722

>  <Genealogy>  (49) 
COC(=O)CCN=c1[n-]c(-c2ccc(OC)c(OC)c2)cn2cc[nH+]c12 (protonated)
COC(=O)CC/N=c1\[n-]c(-c2ccc(OC)c(OC)c2)cn2cc[nH+]c12 (cis-trans isomerization)
COC(=O)CC/N=c1\[n-]c(-c2ccc(OC)c(OC)c2)cn2cc[nH+]c12 (3D coordinates assigned)
COC(=O)CC/N=c1\[n-]c(-c2ccc(OC)c(OC)c2)cn2cc[nH+]c12 (optimized conformer: 82.10460437335722 kcal/mol)

>  <smiles>  (49) 
COC(=O)CCN=c1[nH]c(-c2ccc(OC)c(OC)c2)cn2ccnc12

>  <score_type>  (49) 
oracle

>  <origin>  (49) 
adg

>  <m_score__min__energy>  (49) 
-6.6600000000000001

>  <m_primary>  (49) 
energy

$$$$
