0:0
     RDKit          3D

 60 62  0  0  0  0  0  0  0  0999 V2000
   59.5930   34.9530   45.9440 C   0  0  0  0  0  0  0  0  0  0  0  0
   58.5600   34.5190   46.9760 C   0  0  0  0  0  0  0  0  0  0  0  0
   57.4370   33.8530   46.3040 N   0  0  0  0  0  0  0  0  0  0  0  0
   57.5080   33.9640   44.8370 C   0  0  0  0  0  0  0  0  0  0  0  0
   58.1220   32.7280   44.1370 C   0  0  0  0  0  0  0  0  0  0  0  0
   57.2950   31.4410   44.2970 C   0  0  0  0  0  0  0  0  0  0  0  0
   57.4440   30.8800   45.6480 N   0  0  0  0  0  0  0  0  0  0  0  0
   58.5770   29.9430   45.7480 C   0  0  0  0  0  0  0  0  0  0  0  0
   59.2700   30.1310   47.0970 C   0  0  0  0  0  0  0  0  0  0  0  0
   59.2380   31.5390   47.4960 N   0  0  0  0  0  0  0  0  0  0  0  0
   60.0390   32.0310   48.5860 C   0  0  0  0  0  0  0  0  0  0  0  0
   61.3080   32.5830   48.3330 C   0  0  0  0  0  0  0  0  0  0  0  0
   61.8120   32.6720   47.0160 C   0  0  0  0  0  0  0  0  0  0  0  0
   63.0360   33.2850   46.7620 C   0  0  0  0  0  0  0  0  0  0  0  0
   63.7740   33.8270   47.8080 C   0  0  0  0  0  0  0  0  0  0  0  0
   63.3050   33.7370   49.1190 C   0  0  0  0  0  0  0  0  0  0  0  0
   62.0830   33.0820   49.4160 C   0  0  0  0  0  0  0  0  0  0  0  0
   61.6290   32.9450   50.7160 N   0  0  0  0  0  0  0  0  0  0  0  0
   62.5510   33.1960   51.8470 C   0  0  0  0  0  0  0  0  0  0  0  0
   60.3310   32.5390   50.9580 C   0  0  0  0  0  0  0  0  0  0  0  0
   59.7510   32.6310   52.2470 C   0  0  0  0  0  0  0  0  0  0  0  0
   58.4650   32.1370   52.5140 C   0  0  0  0  0  0  0  0  0  0  0  0
   57.9040   32.2490   53.9110 C   0  0  0  0  0  0  0  0  0  0  0  0
   57.7340   31.5180   51.4820 C   0  0  0  0  0  0  0  0  0  0  0  0
   56.3550   30.9580   51.7280 C   0  0  0  0  0  0  0  0  0  0  0  0
   58.2710   31.4760   50.1900 C   0  0  0  0  0  0  0  0  0  0  0  0
   59.5400   32.0170   49.9040 C   0  0  0  0  0  0  0  0  0  0  0  0
   60.4894   35.3296   46.4584 H   0  0  0  0  0  0  0  0  0  0  0  0
   59.8657   34.0934   45.3142 H   0  0  0  0  0  0  0  0  0  0  0  0
   59.1699   35.7494   45.3142 H   0  0  0  0  0  0  0  0  0  0  0  0
   59.0254   33.8215   47.6880 H   0  0  0  0  0  0  0  0  0  0  0  0
   58.1890   35.4039   47.5138 H   0  0  0  0  0  0  0  0  0  0  0  0
   57.4000   32.8480   46.5920 H   0  0  0  0  0  0  0  0  0  0  0  0
   56.4876   34.1072   44.4520 H   0  0  0  0  0  0  0  0  0  0  0  0
   58.1699   34.8143   44.6157 H   0  0  0  0  0  0  0  0  0  0  0  0
   58.2133   32.9488   43.0633 H   0  0  0  0  0  0  0  0  0  0  0  0
   59.0944   32.5421   44.6164 H   0  0  0  0  0  0  0  0  0  0  0  0
   56.2342   31.6712   44.1187 H   0  0  0  0  0  0  0  0  0  0  0  0
   57.6577   30.7001   43.5693 H   0  0  0  0  0  0  0  0  0  0  0  0
   57.6090   31.6720   46.3120 H   0  0  0  0  0  0  0  0  0  0  0  0
   58.2080   28.9100   45.6652 H   0  0  0  0  0  0  0  0  0  0  0  0
   59.2918   30.1409   44.9357 H   0  0  0  0  0  0  0  0  0  0  0  0
   58.7529   29.5271   47.8572 H   0  0  0  0  0  0  0  0  0  0  0  0
   60.3182   29.8096   47.0072 H   0  0  0  0  0  0  0  0  0  0  0  0
   58.4550   32.1340   47.1420 H   0  0  0  0  0  0  0  0  0  0  0  0
   61.2307   32.2522   46.1818 H   0  0  0  0  0  0  0  0  0  0  0  0
   63.4195   33.3405   45.7325 H   0  0  0  0  0  0  0  0  0  0  0  0
   64.7310   34.3285   47.6014 H   0  0  0  0  0  0  0  0  0  0  0  0
   63.8929   34.1815   49.9356 H   0  0  0  0  0  0  0  0  0  0  0  0
   62.0149   33.0501   52.7964 H   0  0  0  0  0  0  0  0  0  0  0  0
   63.3974   32.4956   51.7924 H   0  0  0  0  0  0  0  0  0  0  0  0
   62.9256   34.2288   51.7924 H   0  0  0  0  0  0  0  0  0  0  0  0
   60.3235   33.1019   53.0597 H   0  0  0  0  0  0  0  0  0  0  0  0
   58.7089   32.0883   54.6433 H   0  0  0  0  0  0  0  0  0  0  0  0
   57.4730   33.2509   54.0538 H   0  0  0  0  0  0  0  0  0  0  0  0
   57.1213   31.4894   54.0538 H   0  0  0  0  0  0  0  0  0  0  0  0
   56.1765   30.8855   52.8110 H   0  0  0  0  0  0  0  0  0  0  0  0
   55.6035   31.6222   51.2762 H   0  0  0  0  0  0  0  0  0  0  0  0
   56.2794   29.9579   51.2762 H   0  0  0  0  0  0  0  0  0  0  0  0
   57.6896   31.0105   49.3805 H   0  0  0  0  0  0  0  0  0  0  0  0
  1  2  1  0
  2  3  1  0
  3  4  1  0
  4  5  1  0
  5  6  1  0
  6  7  1  0
  7  8  1  0
  8  9  1  0
  9 10  1  0
 10 11  1  0
 11 12  2  0
 12 13  1  0
 13 14  2  0
 14 15  1  0
 15 16  2  0
 16 17  1  0
 17 18  2  0
 18 19  1  0
 18 20  1  0
 20 21  2  0
 21 22  1  0
 22 23  1  0
 22 24  2  0
 24 25  1  0
 24 26  1  0
 26 27  2  0
 27 11  1  0
 17 12  1  0
 27 20  1  0
  1 28  1  0
  1 29  1  0
  1 30  1  0
  2 31  1  0
  2 32  1  0
  3 33  1  0
  4 34  1  0
  4 35  1  0
  5 36  1  0
  5 37  1  0
  6 38  1  0
  6 39  1  0
  7 40  1  0
  8 41  1  0
  8 42  1  0
  9 43  1  0
  9 44  1  0
 10 45  1  0
 13 46  1  0
 14 47  1  0
 15 48  1  0
 16 49  1  0
 19 50  1  0
 19 51  1  0
 19 52  1  0
 21 53  1  0
 23 54  1  0
 23 55  1  0
 23 56  1  0
 25 57  1  0
 25 58  1  0
 25 59  1  0
 26 60  1  0
M  CHG  1  18   1
M  END
>  <UniqueID>  (1) 
1

>  <SMILES>  (1) 
CCNCCCNCCNc1c2ccccc2[n+](C)c2cc(C)c(C)cc12

>  <Energy>  (1) 
81.8593541694523

>  <Genealogy>  (1) 
CCNCCCNCCNc1c2ccccc2[n+](C)c2cc(C)c(C)cc12 (3D coordinates assigned)
CCNCCCNCCNc1c2ccccc2[n+](C)c2cc(C)c(C)cc12 (optimized conformer: 81.8593541694523 kcal/mol)

>  <smiles>  (1) 
CCNCCCNCCNc1c2ccccc2[n+](C)c2cc(C)c(C)cc12

>  <score_type>  (1) 
oracle

>  <origin>  (1) 
adg

>  <m_score__min__energy>  (1) 
-6.4900000000000002

>  <m_primary>  (1) 
energy

$$$$
1:0
     RDKit          3D

 55 57  0  0  0  0  0  0  0  0999 V2000
   59.6510   33.3580   50.3200 C   0  0  0  0  0  0  0  0  0  0  0  0
   58.6090   32.4830   49.6250 C   0  0  0  0  0  0  0  0  0  0  0  0
   58.3730   31.2420   50.3980 N   0  0  0  0  0  0  0  0  0  0  0  0
   57.9910   31.5410   51.7970 C   0  0  0  0  0  0  0  0  0  0  0  0
   56.5700   31.0600   52.0810 C   0  0  0  0  0  0  0  0  0  0  0  0
   59.5290   30.3110   50.3260 C   0  0  0  0  0  0  0  0  0  0  0  0
   59.2570   29.2180   49.2890 C   0  0  0  0  0  0  0  0  0  0  0  0
   60.0470   29.4300   48.0780 N   0  0  0  0  0  0  0  0  0  0  0  0
   59.7750   30.5580   47.2300 C   0  0  0  0  0  0  0  0  0  0  0  0
   60.6450   31.6630   47.2240 C   0  0  0  0  0  0  0  0  0  0  0  0
   61.8130   31.6650   48.0140 C   0  0  0  0  0  0  0  0  0  0  0  0
   62.7070   32.7320   47.9670 C   0  0  0  0  0  0  0  0  0  0  0  0
   64.1600   32.7040   48.9500 Cl  0  0  0  0  0  0  0  0  0  0  0  0
   62.4580   33.8070   47.1200 C   0  0  0  0  0  0  0  0  0  0  0  0
   61.3070   33.8310   46.3340 C   0  0  0  0  0  0  0  0  0  0  0  0
   60.3590   32.7760   46.3900 C   0  0  0  0  0  0  0  0  0  0  0  0
   59.1950   32.8040   45.6450 N   0  0  0  0  0  0  0  0  0  0  0  0
   58.7540   34.0650   45.0080 C   0  0  0  0  0  0  0  0  0  0  0  0
   58.4280   31.6590   45.5170 C   0  0  0  0  0  0  0  0  0  0  0  0
   57.3770   31.5680   44.5710 C   0  0  0  0  0  0  0  0  0  0  0  0
   56.5690   30.4350   44.4960 C   0  0  0  0  0  0  0  0  0  0  0  0
   56.7920   29.3480   45.3370 C   0  0  0  0  0  0  0  0  0  0  0  0
   55.9120   28.2180   45.2470 N   0  0  0  0  0  0  0  0  0  0  0  0
   56.1640   26.9000   45.7490 C   0  0  0  0  0  0  0  0  0  0  0  0
   57.5550   26.3620   45.7330 C   0  0  0  0  0  0  0  0  0  0  0  0
   55.2460   26.2270   46.2910 O   0  0  0  0  0  0  0  0  0  0  0  0
   57.8350   29.4060   46.2710 C   0  0  0  0  0  0  0  0  0  0  0  0
   58.6840   30.5320   46.3420 C   0  0  0  0  0  0  0  0  0  0  0  0
   59.5398   33.2646   51.4104 H   0  0  0  0  0  0  0  0  0  0  0  0
   60.6593   33.0319   50.0250 H   0  0  0  0  0  0  0  0  0  0  0  0
   59.5041   34.4075   50.0250 H   0  0  0  0  0  0  0  0  0  0  0  0
   57.6653   33.0419   49.5411 H   0  0  0  0  0  0  0  0  0  0  0  0
   58.9811   32.2135   48.6255 H   0  0  0  0  0  0  0  0  0  0  0  0
   58.6880   31.0317   52.4787 H   0  0  0  0  0  0  0  0  0  0  0  0
   58.0344   32.6292   51.9514 H   0  0  0  0  0  0  0  0  0  0  0  0
   56.4115   31.0063   53.1682 H   0  0  0  0  0  0  0  0  0  0  0  0
   55.8494   31.7643   51.6397 H   0  0  0  0  0  0  0  0  0  0  0  0
   56.4254   30.0628   51.6397 H   0  0  0  0  0  0  0  0  0  0  0  0
   60.4305   30.8712   50.0370 H   0  0  0  0  0  0  0  0  0  0  0  0
   59.6793   29.8450   51.3110 H   0  0  0  0  0  0  0  0  0  0  0  0
   59.5179   28.2406   49.7210 H   0  0  0  0  0  0  0  0  0  0  0  0
   58.1910   29.2510   49.0196 H   0  0  0  0  0  0  0  0  0  0  0  0
   60.5270   28.6050   47.6520 H   0  0  0  0  0  0  0  0  0  0  0  0
   62.0210   30.8120   48.6766 H   0  0  0  0  0  0  0  0  0  0  0  0
   63.1725   34.6418   47.0702 H   0  0  0  0  0  0  0  0  0  0  0  0
   61.1305   34.6816   45.6592 H   0  0  0  0  0  0  0  0  0  0  0  0
   58.4974   34.7988   45.7863 H   0  0  0  0  0  0  0  0  0  0  0  0
   59.5662   34.4632   44.3821 H   0  0  0  0  0  0  0  0  0  0  0  0
   57.8706   33.8702   44.3821 H   0  0  0  0  0  0  0  0  0  0  0  0
   57.1955   32.4070   43.8832 H   0  0  0  0  0  0  0  0  0  0  0  0
   55.7473   30.3991   43.7655 H   0  0  0  0  0  0  0  0  0  0  0  0
   57.9073   26.2257   46.7661 H   0  0  0  0  0  0  0  0  0  0  0  0
   57.5678   25.3941   45.2106 H   0  0  0  0  0  0  0  0  0  0  0  0
   58.2158   27.0694   45.2106 H   0  0  0  0  0  0  0  0  0  0  0  0
   57.9946   28.5624   46.9586 H   0  0  0  0  0  0  0  0  0  0  0  0
  1  2  1  0
  2  3  1  0
  3  4  1  0
  4  5  1  0
  3  6  1  0
  6  7  1  0
  7  8  1  0
  8  9  1  0
  9 10  2  0
 10 11  1  0
 11 12  2  0
 12 13  1  0
 12 14  1  0
 14 15  2  0
 15 16  1  0
 16 17  2  0
 17 18  1  0
 17 19  1  0
 19 20  2  0
 20 21  1  0
 21 22  2  0
 22 23  1  0
 23 24  1  0
 24 25  1  0
 24 26  2  0
 22 27  1  0
 27 28  2  0
 28  9  1  0
 16 10  1  0
 28 19  1  0
  1 29  1  0
  1 30  1  0
  1 31  1  0
  2 32  1  0
  2 33  1  0
  4 34  1  0
  4 35  1  0
  5 36  1  0
  5 37  1  0
  5 38  1  0
  6 39  1  0
  6 40  1  0
  7 41  1  0
  7 42  1  0
  8 43  1  0
 11 44  1  0
 14 45  1  0
 15 46  1  0
 18 47  1  0
 18 48  1  0
 18 49  1  0
 20 50  1  0
 21 51  1  0
 25 52  1  0
 25 53  1  0
 25 54  1  0
 27 55  1  0
M  CHG  2  17   1  23  -1
M  END
>  <UniqueID>  (2) 
2

>  <SMILES>  (2) 
CCN(CC)CCNc1c2cc(Cl)ccc2[n+](C)c2ccc([N-]C(C)=O)cc12

>  <Energy>  (2) 
80.58253512273315

>  <Genealogy>  (2) 
CCN(CC)CCNc1c2cc(Cl)ccc2[n+](C)c2ccc([N-]C(C)=O)cc12 (protonated)
CCN(CC)CCNc1c2cc(Cl)ccc2[n+](C)c2ccc([N-]C(C)=O)cc12 (3D coordinates assigned)
CCN(CC)CCNc1c2cc(Cl)ccc2[n+](C)c2ccc([N-]C(C)=O)cc12 (optimized conformer: 80.58253512273315 kcal/mol)

>  <smiles>  (2) 
CCN(CC)CCNc1c2cc(Cl)ccc2[n+](C)c2ccc(NC(C)=O)cc12

>  <score_type>  (2) 
oracle

>  <origin>  (2) 
adg

>  <m_score__min__energy>  (2) 
-8.8000000000000007

>  <m_primary>  (2) 
energy

$$$$
2:0
     RDKit          3D

 26 27  0  0  0  0  0  0  0  0999 V2000
   58.0360   32.3320   42.1110 C   0  0  0  0  0  0  0  0  0  0  0  0
   57.6810   31.5570   43.2940 N   0  0  0  0  0  0  0  0  0  0  0  0
   57.7710   30.2460   43.3970 N   0  0  0  0  0  0  0  0  0  0  0  0
   57.4220   29.9270   44.6560 C   0  0  0  0  0  0  0  0  0  0  0  0
   57.1130   31.0240   45.3860 N   0  0  0  0  0  0  0  0  0  0  0  0
   57.2910   32.0220   44.4960 C   0  0  0  0  0  0  0  0  0  0  0  0
   57.0540   33.7560   44.8920 S   0  0  0  0  0  0  0  0  0  0  0  0
   57.4390   33.5220   46.6570 C   0  0  0  0  0  0  0  0  0  0  0  0
   58.9220   33.3550   46.8290 C   0  0  0  0  0  0  0  0  0  0  0  0
   59.8010   34.3490   46.3650 C   0  0  0  0  0  0  0  0  0  0  0  0
   61.1790   34.2140   46.5500 C   0  0  0  0  0  0  0  0  0  0  0  0
   61.6930   33.0930   47.2090 C   0  0  0  0  0  0  0  0  0  0  0  0
   63.5770   32.9120   47.4630 Br  0  0  0  0  0  0  0  0  0  0  0  0
   60.8250   32.1080   47.6890 C   0  0  0  0  0  0  0  0  0  0  0  0
   59.4440   32.2370   47.5050 C   0  0  0  0  0  0  0  0  0  0  0  0
   58.6180   31.2760   47.9910 F   0  0  0  0  0  0  0  0  0  0  0  0
   58.4757   33.2919   42.4198 H   0  0  0  0  0  0  0  0  0  0  0  0
   58.7666   31.7704   41.5104 H   0  0  0  0  0  0  0  0  0  0  0  0
   57.1335   32.5184   41.5104 H   0  0  0  0  0  0  0  0  0  0  0  0
   58.0700   29.5920   42.6400 H   0  0  0  0  0  0  0  0  0  0  0  0
   57.3914   28.8987   45.0454 H   0  0  0  0  0  0  0  0  0  0  0  0
   57.1007   34.4008   47.2256 H   0  0  0  0  0  0  0  0  0  0  0  0
   56.9237   32.6239   47.0284 H   0  0  0  0  0  0  0  0  0  0  0  0
   59.4018   35.2374   45.8538 H   0  0  0  0  0  0  0  0  0  0  0  0
   61.8615   34.9915   46.1763 H   0  0  0  0  0  0  0  0  0  0  0  0
   61.2288   31.2290   48.2128 H   0  0  0  0  0  0  0  0  0  0  0  0
  1  2  1  0
  2  3  1  0
  3  4  2  0
  4  5  1  0
  5  6  2  0
  6  7  1  0
  7  8  1  0
  8  9  1  0
  9 10  2  0
 10 11  1  0
 11 12  2  0
 12 13  1  0
 12 14  1  0
 14 15  2  0
 15 16  1  0
  6  2  1  0
 15  9  1  0
  1 17  1  0
  1 18  1  0
  1 19  1  0
  3 20  1  0
  4 21  1  0
  8 22  1  0
  8 23  1  0
 10 24  1  0
 11 25  1  0
 14 26  1  0
M  CHG  1   3   1
M  END
>  <UniqueID>  (3) 
3

>  <SMILES>  (3) 
Cn1[nH+]cnc1SCc1ccc(Br)cc1F

>  <Energy>  (3) 
55.15938603836847

>  <Genealogy>  (3) 
Cn1[nH+]cnc1SCc1ccc(Br)cc1F (protonated)
Cn1[nH+]cnc1SCc1ccc(Br)cc1F (3D coordinates assigned)
Cn1[nH+]cnc1SCc1ccc(Br)cc1F (optimized conformer: 55.15938603836847 kcal/mol)

>  <smiles>  (3) 
Cn1ncnc1SCc1ccc(Br)cc1F

>  <score_type>  (3) 
oracle

>  <origin>  (3) 
adg

>  <m_score__min__energy>  (3) 
-5.5700000000000003

>  <m_primary>  (3) 
energy

$$$$
3:0
     RDKit          3D

 60 62  0  0  0  0  0  0  0  0999 V2000
   59.3370   33.6380   51.2930 C   0  0  0  0  0  0  0  0  0  0  0  0
   59.6600   34.2260   49.9220 C   0  0  0  0  0  0  0  0  0  0  0  0
   59.6480   33.2170   48.9080 O   0  0  0  0  0  0  0  0  0  0  0  0
   59.4240   33.4250   47.5330 C   0  0  0  0  0  0  0  0  0  0  0  0
   59.5330   34.7120   46.9810 C   0  0  0  0  0  0  0  0  0  0  0  0
   59.2720   34.9320   45.6370 C   0  0  0  0  0  0  0  0  0  0  0  0
   58.8410   33.8920   44.8280 C   0  0  0  0  0  0  0  0  0  0  0  0
   58.6600   32.5870   45.3430 C   0  0  0  0  0  0  0  0  0  0  0  0
   59.0490   32.3320   46.6930 C   0  0  0  0  0  0  0  0  0  0  0  0
   59.0520   30.9910   47.1530 C   0  0  0  0  0  0  0  0  0  0  0  0
   59.5750   30.6620   48.4500 N   0  0  0  0  0  0  0  0  0  0  0  0
   60.7150   29.7570   48.6090 C   0  0  0  0  0  0  0  0  0  0  0  0
   61.4960   30.1130   49.8770 C   0  0  0  0  0  0  0  0  0  0  0  0
   62.6570   31.1010   49.6390 C   0  0  0  0  0  0  0  0  0  0  0  0
   62.2810   32.3010   48.8440 N   0  0  0  0  0  0  0  0  0  0  0  0
   62.8400   33.5400   49.4460 C   0  0  0  0  0  0  0  0  0  0  0  0
   64.2240   33.3760   50.1000 C   0  0  0  0  0  0  0  0  0  0  0  0
   62.6330   32.1700   47.3990 C   0  0  0  0  0  0  0  0  0  0  0  0
   63.0320   33.5130   46.7750 C   0  0  0  0  0  0  0  0  0  0  0  0
   58.6320   29.9560   46.2950 C   0  0  0  0  0  0  0  0  0  0  0  0
   58.5940   28.6150   46.7430 C   0  0  0  0  0  0  0  0  0  0  0  0
   58.2360   27.5850   45.8760 C   0  0  0  0  0  0  0  0  0  0  0  0
   57.9150   27.8670   44.5540 C   0  0  0  0  0  0  0  0  0  0  0  0
   57.9130   29.1840   44.0990 C   0  0  0  0  0  0  0  0  0  0  0  0
   58.2220   30.2610   44.9710 C   0  0  0  0  0  0  0  0  0  0  0  0
   58.1400   31.5750   44.5570 N   0  0  0  0  0  0  0  0  0  0  0  0
   57.4420   31.9050   43.2930 C   0  0  0  0  0  0  0  0  0  0  0  0
   59.7079   34.3132   52.0782 H   0  0  0  0  0  0  0  0  0  0  0  0
   58.2480   33.5209   51.3944 H   0  0  0  0  0  0  0  0  0  0  0  0
   59.8224   32.6561   51.3944 H   0  0  0  0  0  0  0  0  0  0  0  0
   58.9099   34.9916   49.6746 H   0  0  0  0  0  0  0  0  0  0  0  0
   60.6671   34.6666   49.9616 H   0  0  0  0  0  0  0  0  0  0  0  0
   59.8289   35.5553   47.6224 H   0  0  0  0  0  0  0  0  0  0  0  0
   59.4076   35.9369   45.2106 H   0  0  0  0  0  0  0  0  0  0  0  0
   58.6357   34.0854   43.7648 H   0  0  0  0  0  0  0  0  0  0  0  0
   59.0520   30.9760   49.2970 H   0  0  0  0  0  0  0  0  0  0  0  0
   60.3502   28.7220   48.6848 H   0  0  0  0  0  0  0  0  0  0  0  0
   61.3785   29.8568   47.7373 H   0  0  0  0  0  0  0  0  0  0  0  0
   60.7988   30.5649   50.5979 H   0  0  0  0  0  0  0  0  0  0  0  0
   61.9424   29.1794   50.2499 H   0  0  0  0  0  0  0  0  0  0  0  0
   63.0298   31.4380   50.6175 H   0  0  0  0  0  0  0  0  0  0  0  0
   63.4183   30.5610   49.0569 H   0  0  0  0  0  0  0  0  0  0  0  0
   61.2470   32.4240   48.9360 H   0  0  0  0  0  0  0  0  0  0  0  0
   62.9246   34.2972   48.6526 H   0  0  0  0  0  0  0  0  0  0  0  0
   62.1502   33.8293   50.2525 H   0  0  0  0  0  0  0  0  0  0  0  0
   64.1161   33.3888   51.1946 H   0  0  0  0  0  0  0  0  0  0  0  0
   64.6667   32.4191   49.7863 H   0  0  0  0  0  0  0  0  0  0  0  0
   64.8781   34.2029   49.7863 H   0  0  0  0  0  0  0  0  0  0  0  0
   63.4760   31.4701   47.3020 H   0  0  0  0  0  0  0  0  0  0  0  0
   61.7433   31.8020   46.8671 H   0  0  0  0  0  0  0  0  0  0  0  0
   63.2476   34.2385   47.5732 H   0  0  0  0  0  0  0  0  0  0  0  0
   63.9283   33.3761   46.1521 H   0  0  0  0  0  0  0  0  0  0  0  0
   62.2064   33.8876   46.1521 H   0  0  0  0  0  0  0  0  0  0  0  0
   58.8499   28.3828   47.7873 H   0  0  0  0  0  0  0  0  0  0  0  0
   58.2074   26.5469   46.2386 H   0  0  0  0  0  0  0  0  0  0  0  0
   57.6617   27.0482   43.8645 H   0  0  0  0  0  0  0  0  0  0  0  0
   57.6680   29.3927   43.0471 H   0  0  0  0  0  0  0  0  0  0  0  0
   56.4691   32.3650   43.5207 H   0  0  0  0  0  0  0  0  0  0  0  0
   58.0532   32.6095   42.7098 H   0  0  0  0  0  0  0  0  0  0  0  0
   57.2854   30.9856   42.7098 H   0  0  0  0  0  0  0  0  0  0  0  0
  1  2  1  0
  2  3  1  0
  3  4  1  0
  4  5  2  0
  5  6  1  0
  6  7  2  0
  7  8  1  0
  8  9  2  0
  9 10  1  0
 10 11  1  0
 11 12  1  0
 12 13  1  0
 13 14  1  0
 14 15  1  0
 15 16  1  0
 16 17  1  0
 15 18  1  0
 18 19  1  0
 10 20  2  0
 20 21  1  0
 21 22  2  0
 22 23  1  0
 23 24  2  0
 24 25  1  0
 25 26  2  0
 26 27  1  0
  9  4  1  0
 25 20  1  0
 26  8  1  0
  1 28  1  0
  1 29  1  0
  1 30  1  0
  2 31  1  0
  2 32  1  0
  5 33  1  0
  6 34  1  0
  7 35  1  0
 11 36  1  0
 12 37  1  0
 12 38  1  0
 13 39  1  0
 13 40  1  0
 14 41  1  0
 14 42  1  0
 15 43  1  0
 16 44  1  0
 16 45  1  0
 17 46  1  0
 17 47  1  0
 17 48  1  0
 18 49  1  0
 18 50  1  0
 19 51  1  0
 19 52  1  0
 19 53  1  0
 21 54  1  0
 22 55  1  0
 23 56  1  0
 24 57  1  0
 27 58  1  0
 27 59  1  0
 27 60  1  0
M  CHG  2  15   1  26   1
M  END
>  <UniqueID>  (4) 
4

>  <SMILES>  (4) 
CCOc1cccc2c1c(NCCC[NH+](CC)CC)c1ccccc1[n+]2C

>  <Energy>  (4) 
92.86366949448063

>  <Genealogy>  (4) 
CCOc1cccc2c1c(NCCC[NH+](CC)CC)c1ccccc1[n+]2C (protonated)
CCOc1cccc2c1c(NCCC[NH+](CC)CC)c1ccccc1[n+]2C (3D coordinates assigned)
CCOc1cccc2c1c(NCCC[NH+](CC)CC)c1ccccc1[n+]2C (optimized conformer: 92.86366949448063 kcal/mol)

>  <smiles>  (4) 
CCOc1cccc2c1c(NCCCN(CC)CC)c1ccccc1[n+]2C

>  <score_type>  (4) 
oracle

>  <origin>  (4) 
adg

>  <m_score__min__energy>  (4) 
-4.6600000000000001

>  <m_primary>  (4) 
energy

$$$$
4:0
     RDKit          3D

 47 49  0  0  0  0  0  0  0  0999 V2000
   57.7780   25.9180   43.2980 C   0  0  0  0  0  0  0  0  0  0  0  0
   57.3880   24.4510   43.4640 C   0  0  0  0  0  0  0  0  0  0  0  0
   57.5600   24.0260   44.8690 N   0  0  0  0  0  0  0  0  0  0  0  0
   58.8450   23.3320   45.1180 C   0  0  0  0  0  0  0  0  0  0  0  0
   58.9480   21.9450   44.4620 C   0  0  0  0  0  0  0  0  0  0  0  0
   56.3900   23.2960   45.4130 C   0  0  0  0  0  0  0  0  0  0  0  0
   55.7080   24.1220   46.5080 C   0  0  0  0  0  0  0  0  0  0  0  0
   55.9880   25.5860   46.3370 C   0  0  0  0  0  0  0  0  0  0  0  0
   55.0450   26.3580   46.0140 O   0  0  0  0  0  0  0  0  0  0  0  0
   57.3330   26.0770   46.4520 N   0  0  0  0  0  0  0  0  0  0  0  0
   57.6950   27.4610   46.3240 C   0  0  0  0  0  0  0  0  0  0  0  0
   58.6210   28.0180   47.2360 C   0  0  0  0  0  0  0  0  0  0  0  0
   58.9860   29.3700   47.1520 C   0  0  0  0  0  0  0  0  0  0  0  0
   58.4000   30.1500   46.1580 C   0  0  0  0  0  0  0  0  0  0  0  0
   57.4770   29.6290   45.2740 C   0  0  0  0  0  0  0  0  0  0  0  0
   57.1030   28.2860   45.3420 C   0  0  0  0  0  0  0  0  0  0  0  0
   56.9740   30.6720   44.3190 C   0  0  0  0  0  0  0  0  0  0  0  0
   57.7520   31.8670   44.7850 C   0  0  0  0  0  0  0  0  0  0  0  0
   57.7140   33.1660   44.2710 C   0  0  0  0  0  0  0  0  0  0  0  0
   58.5310   34.1460   44.8600 C   0  0  0  0  0  0  0  0  0  0  0  0
   59.3690   33.8180   45.9460 C   0  0  0  0  0  0  0  0  0  0  0  0
   59.3950   32.5090   46.4520 C   0  0  0  0  0  0  0  0  0  0  0  0
   58.5750   31.5540   45.8520 C   0  0  0  0  0  0  0  0  0  0  0  0
   57.9006   26.3792   44.2891 H   0  0  0  0  0  0  0  0  0  0  0  0
   58.7252   25.9850   42.7427 H   0  0  0  0  0  0  0  0  0  0  0  0
   56.9892   26.4465   42.7427 H   0  0  0  0  0  0  0  0  0  0  0  0
   56.3353   24.3210   43.1727 H   0  0  0  0  0  0  0  0  0  0  0  0
   58.0371   23.8355   42.8239 H   0  0  0  0  0  0  0  0  0  0  0  0
   59.6584   23.9605   44.7263 H   0  0  0  0  0  0  0  0  0  0  0  0
   58.9146   23.1745   46.2044 H   0  0  0  0  0  0  0  0  0  0  0  0
   59.0053   21.1731   45.2436 H   0  0  0  0  0  0  0  0  0  0  0  0
   58.0605   21.7684   43.8366 H   0  0  0  0  0  0  0  0  0  0  0  0
   59.8519   21.9014   43.8366 H   0  0  0  0  0  0  0  0  0  0  0  0
   55.6718   23.1062   44.6017 H   0  0  0  0  0  0  0  0  0  0  0  0
   56.7323   22.3440   45.8448 H   0  0  0  0  0  0  0  0  0  0  0  0
   54.6217   23.9563   46.4584 H   0  0  0  0  0  0  0  0  0  0  0  0
   56.1049   23.8030   47.4831 H   0  0  0  0  0  0  0  0  0  0  0  0
   58.1050   25.3740   46.5040 H   0  0  0  0  0  0  0  0  0  0  0  0
   59.0602   27.3840   48.0203 H   0  0  0  0  0  0  0  0  0  0  0  0
   59.7155   29.8025   47.8525 H   0  0  0  0  0  0  0  0  0  0  0  0
   56.3594   27.8767   44.6423 H   0  0  0  0  0  0  0  0  0  0  0  0
   57.2102   30.4152   43.2758 H   0  0  0  0  0  0  0  0  0  0  0  0
   55.8823   30.8066   44.3205 H   0  0  0  0  0  0  0  0  0  0  0  0
   57.0587   33.4160   43.4236 H   0  0  0  0  0  0  0  0  0  0  0  0
   58.5169   35.1751   44.4717 H   0  0  0  0  0  0  0  0  0  0  0  0
   60.0057   34.5923   46.3989 H   0  0  0  0  0  0  0  0  0  0  0  0
   60.0447   32.2437   47.2990 H   0  0  0  0  0  0  0  0  0  0  0  0
  1  2  1  0
  2  3  1  0
  3  4  1  0
  4  5  1  0
  3  6  1  0
  6  7  1  0
  7  8  1  0
  8  9  2  0
  8 10  1  0
 10 11  1  0
 11 12  2  0
 12 13  1  0
 13 14  2  0
 14 15  1  0
 15 16  2  0
 15 17  1  0
 17 18  1  0
 18 19  2  0
 19 20  1  0
 20 21  2  0
 21 22  1  0
 22 23  2  0
 16 11  1  0
 23 18  1  0
 23 14  1  0
  1 24  1  0
  1 25  1  0
  1 26  1  0
  2 27  1  0
  2 28  1  0
  4 29  1  0
  4 30  1  0
  5 31  1  0
  5 32  1  0
  5 33  1  0
  6 34  1  0
  6 35  1  0
  7 36  1  0
  7 37  1  0
 10 38  1  0
 12 39  1  0
 13 40  1  0
 16 41  1  0
 17 42  1  0
 17 43  1  0
 19 44  1  0
 20 45  1  0
 21 46  1  0
 22 47  1  0
M  END
>  <UniqueID>  (5) 
5

>  <SMILES>  (5) 
CCN(CC)CCC(=O)Nc1ccc2c(c1)Cc1ccccc1-2

>  <Energy>  (5) 
71.01532216845206

>  <Genealogy>  (5) 
CCN(CC)CCC(=O)Nc1ccc2c(c1)Cc1ccccc1-2 (3D coordinates assigned)
CCN(CC)CCC(=O)Nc1ccc2c(c1)Cc1ccccc1-2 (nonaromatic ring conformer: 71.01532216845206 kcal/mol)

>  <smiles>  (5) 
CCN(CC)CCC(=O)Nc1ccc2c(c1)Cc1ccccc1-2

>  <score_type>  (5) 
oracle

>  <origin>  (5) 
adg

>  <m_score__min__energy>  (5) 
-7.8799999999999999

>  <m_primary>  (5) 
energy

$$$$
5:0
     RDKit          3D

 56 59  0  0  0  0  0  0  0  0999 V2000
   63.3840   33.8560   46.3430 C   0  0  0  0  0  0  0  0  0  0  0  0
   63.5670   32.6710   47.2970 C   0  0  0  0  0  0  0  0  0  0  0  0
   62.7010   32.7700   48.4830 N   0  0  0  0  0  0  0  0  0  0  0  0
   62.5950   34.1450   48.9980 C   0  0  0  0  0  0  0  0  0  0  0  0
   62.1450   34.1410   50.4610 C   0  0  0  0  0  0  0  0  0  0  0  0
   61.7170   32.7930   50.8680 N   0  0  0  0  0  0  0  0  0  0  0  0
   60.2740   32.7160   51.1540 C   0  0  0  0  0  0  0  0  0  0  0  0
   59.5520   31.7190   50.2330 C   0  0  0  0  0  0  0  0  0  0  0  0
   60.3040   31.5510   48.9900 N   0  0  0  0  0  0  0  0  0  0  0  0
   59.6280   31.3910   47.7340 C   0  0  0  0  0  0  0  0  0  0  0  0
   59.2140   30.1260   47.3290 C   0  0  0  0  0  0  0  0  0  0  0  0
   58.6060   29.9390   46.1020 C   0  0  0  0  0  0  0  0  0  0  0  0
   58.4730   30.9600   45.1940 N   0  0  0  0  0  0  0  0  0  0  0  0
   58.1340   30.6640   43.7940 C   0  0  0  0  0  0  0  0  0  0  0  0
   58.7250   32.2540   45.6180 C   0  0  0  0  0  0  0  0  0  0  0  0
   58.3800   33.3770   44.8270 C   0  0  0  0  0  0  0  0  0  0  0  0
   58.6430   34.6750   45.2670 C   0  0  0  0  0  0  0  0  0  0  0  0
   59.2350   34.8900   46.5080 C   0  0  0  0  0  0  0  0  0  0  0  0
   59.5640   33.8110   47.3250 C   0  0  0  0  0  0  0  0  0  0  0  0
   59.3230   32.4900   46.9000 C   0  0  0  0  0  0  0  0  0  0  0  0
   58.2470   28.5180   45.9960 C   0  0  0  0  0  0  0  0  0  0  0  0
   57.4360   27.8300   45.0810 C   0  0  0  0  0  0  0  0  0  0  0  0
   57.1990   26.4630   45.2870 C   0  0  0  0  0  0  0  0  0  0  0  0
   57.7270   25.8090   46.4140 C   0  0  0  0  0  0  0  0  0  0  0  0
   58.4780   26.5250   47.3570 C   0  0  0  0  0  0  0  0  0  0  0  0
   58.7180   27.8810   47.1340 C   0  0  0  0  0  0  0  0  0  0  0  0
   59.3830   28.8340   48.0740 C   0  0  0  0  0  0  0  0  0  0  0  0
   63.2417   34.7777   46.9263 H   0  0  0  0  0  0  0  0  0  0  0  0
   64.2771   33.9576   45.7089 H   0  0  0  0  0  0  0  0  0  0  0  0
   62.5019   33.6834   45.7089 H   0  0  0  0  0  0  0  0  0  0  0  0
   63.3249   31.7428   46.7587 H   0  0  0  0  0  0  0  0  0  0  0  0
   64.6116   32.6746   47.6417 H   0  0  0  0  0  0  0  0  0  0  0  0
   63.0680   32.1470   49.2400 H   0  0  0  0  0  0  0  0  0  0  0  0
   63.5769   34.6353   48.9235 H   0  0  0  0  0  0  0  0  0  0  0  0
   61.8500   34.6904   48.4001 H   0  0  0  0  0  0  0  0  0  0  0  0
   62.9827   34.4619   51.0977 H   0  0  0  0  0  0  0  0  0  0  0  0
   61.2958   34.8313   50.5725 H   0  0  0  0  0  0  0  0  0  0  0  0
   61.9640   32.1100   50.1130 H   0  0  0  0  0  0  0  0  0  0  0  0
   60.1362   32.3977   52.1979 H   0  0  0  0  0  0  0  0  0  0  0  0
   59.8413   33.7120   50.9788 H   0  0  0  0  0  0  0  0  0  0  0  0
   59.4683   30.7476   50.7422 H   0  0  0  0  0  0  0  0  0  0  0  0
   58.5490   32.1052   49.9987 H   0  0  0  0  0  0  0  0  0  0  0  0
   61.2820   31.9170   48.9770 H   0  0  0  0  0  0  0  0  0  0  0  0
   57.3058   29.9408   43.7623 H   0  0  0  0  0  0  0  0  0  0  0  0
   57.8306   31.5914   43.2862 H   0  0  0  0  0  0  0  0  0  0  0  0
   59.0121   30.2383   43.2862 H   0  0  0  0  0  0  0  0  0  0  0  0
   57.8972   33.2237   43.8506 H   0  0  0  0  0  0  0  0  0  0  0  0
   58.3811   35.5325   44.6297 H   0  0  0  0  0  0  0  0  0  0  0  0
   59.4439   35.9161   46.8450 H   0  0  0  0  0  0  0  0  0  0  0  0
   60.0162   33.9922   48.3112 H   0  0  0  0  0  0  0  0  0  0  0  0
   56.9948   28.3522   44.2192 H   0  0  0  0  0  0  0  0  0  0  0  0
   56.5954   25.8983   44.5612 H   0  0  0  0  0  0  0  0  0  0  0  0
   57.5504   24.7326   46.5563 H   0  0  0  0  0  0  0  0  0  0  0  0
   58.8706   26.0269   48.2557 H   0  0  0  0  0  0  0  0  0  0  0  0
   58.8764   28.8600   49.0500 H   0  0  0  0  0  0  0  0  0  0  0  0
   60.4255   28.5812   48.3177 H   0  0  0  0  0  0  0  0  0  0  0  0
  1  2  1  0
  2  3  1  0
  3  4  1  0
  4  5  1  0
  5  6  1  0
  6  7  1  0
  7  8  1  0
  8  9  1  0
  9 10  1  0
 10 11  2  0
 11 12  1  0
 12 13  2  0
 13 14  1  0
 13 15  1  0
 15 16  2  0
 16 17  1  0
 17 18  2  0
 18 19  1  0
 19 20  2  0
 12 21  1  0
 21 22  2  0
 22 23  1  0
 23 24  2  0
 24 25  1  0
 25 26  2  0
 26 27  1  0
 20 10  1  0
 26 21  1  0
 27 11  1  0
 20 15  1  0
  1 28  1  0
  1 29  1  0
  1 30  1  0
  2 31  1  0
  2 32  1  0
  3 33  1  0
  4 34  1  0
  4 35  1  0
  5 36  1  0
  5 37  1  0
  6 38  1  0
  7 39  1  0
  7 40  1  0
  8 41  1  0
  8 42  1  0
  9 43  1  0
 14 44  1  0
 14 45  1  0
 14 46  1  0
 16 47  1  0
 17 48  1  0
 18 49  1  0
 19 50  1  0
 22 51  1  0
 23 52  1  0
 24 53  1  0
 25 54  1  0
 27 55  1  0
 27 56  1  0
M  CHG  1  13   1
M  END
>  <UniqueID>  (6) 
6

>  <SMILES>  (6) 
CCNCCNCCNc1c2c([n+](C)c3ccccc13)-c1ccccc1C2

>  <Energy>  (6) 
97.95174051827462

>  <Genealogy>  (6) 
CCNCCNCCNc1c2c([n+](C)c3ccccc13)-c1ccccc1C2 (3D coordinates assigned)
CCNCCNCCNc1c2c([n+](C)c3ccccc13)-c1ccccc1C2 (nonaromatic ring conformer: 97.95174051827462 kcal/mol)

>  <smiles>  (6) 
CCNCCNCCNc1c2c([n+](C)c3ccccc13)-c1ccccc1C2

>  <score_type>  (6) 
oracle

>  <origin>  (6) 
adg

>  <m_score__min__energy>  (6) 
-7.21

>  <m_primary>  (6) 
energy

$$$$
6:0
     RDKit          3D

 52 55  0  0  0  0  0  0  0  0999 V2000
   63.2620   32.8980   47.5890 C   0  0  0  0  0  0  0  0  0  0  0  0
   63.4420   32.1100   48.8910 C   0  0  0  0  0  0  0  0  0  0  0  0
   62.1690   31.9190   49.6090 N   0  0  0  0  0  0  0  0  0  0  0  0
   61.8480   30.5000   49.8250 C   0  0  0  0  0  0  0  0  0  0  0  0
   60.7180   30.0650   48.8790 C   0  0  0  0  0  0  0  0  0  0  0  0
   60.7960   30.7220   47.5600 N   0  0  0  0  0  0  0  0  0  0  0  0
   59.7260   30.3040   46.6620 C   0  0  0  0  0  0  0  0  0  0  0  0
   59.4500   28.9210   46.4660 C   0  0  0  0  0  0  0  0  0  0  0  0
   58.3670   28.5400   45.6410 C   0  0  0  0  0  0  0  0  0  0  0  0
   57.8110   29.4520   44.7750 N   0  0  0  0  0  0  0  0  0  0  0  0
   57.1300   28.9880   43.5460 C   0  0  0  0  0  0  0  0  0  0  0  0
   57.9880   30.8000   44.9920 C   0  0  0  0  0  0  0  0  0  0  0  0
   57.2340   31.7570   44.2650 C   0  0  0  0  0  0  0  0  0  0  0  0
   57.3890   33.1200   44.4940 C   0  0  0  0  0  0  0  0  0  0  0  0
   58.2840   33.5660   45.4540 C   0  0  0  0  0  0  0  0  0  0  0  0
   59.0430   32.6540   46.1830 C   0  0  0  0  0  0  0  0  0  0  0  0
   58.9250   31.2570   45.9650 C   0  0  0  0  0  0  0  0  0  0  0  0
   57.9330   27.1040   45.6770 C   0  0  0  0  0  0  0  0  0  0  0  0
   58.9040   26.1210   45.9350 C   0  0  0  0  0  0  0  0  0  0  0  0
   58.5390   24.7710   45.9180 C   0  0  0  0  0  0  0  0  0  0  0  0
   57.2070   24.4200   45.7200 C   0  0  0  0  0  0  0  0  0  0  0  0
   56.2480   25.4240   45.5840 C   0  0  0  0  0  0  0  0  0  0  0  0
   56.6140   26.7360   45.5940 N   0  0  0  0  0  0  0  0  0  0  0  0
   55.6190   27.6880   45.6190 O   0  0  0  0  0  0  0  0  0  0  0  0
   60.3020   26.5470   46.2760 C   0  0  0  0  0  0  0  0  0  0  0  0
   60.2470   27.8090   47.1510 C   0  0  0  0  0  0  0  0  0  0  0  0
   63.0227   33.9455   47.8245 H   0  0  0  0  0  0  0  0  0  0  0  0
   64.1926   32.8571   47.0040 H   0  0  0  0  0  0  0  0  0  0  0  0
   62.4414   32.4570   47.0040 H   0  0  0  0  0  0  0  0  0  0  0  0
   63.8649   31.1231   48.6518 H   0  0  0  0  0  0  0  0  0  0  0  0
   64.1136   32.6869   49.5438 H   0  0  0  0  0  0  0  0  0  0  0  0
   62.2110   32.4080   50.5340 H   0  0  0  0  0  0  0  0  0  0  0  0
   62.7423   29.8905   49.6282 H   0  0  0  0  0  0  0  0  0  0  0  0
   61.5210   30.3589   50.8657 H   0  0  0  0  0  0  0  0  0  0  0  0
   60.7796   28.9763   48.7342 H   0  0  0  0  0  0  0  0  0  0  0  0
   59.7647   30.3602   49.3417 H   0  0  0  0  0  0  0  0  0  0  0  0
   60.8510   31.7540   47.6800 H   0  0  0  0  0  0  0  0  0  0  0  0
   61.7200   30.5070   47.1290 H   0  0  0  0  0  0  0  0  0  0  0  0
   56.2494   28.3880   43.8190 H   0  0  0  0  0  0  0  0  0  0  0  0
   56.8115   29.8578   42.9527 H   0  0  0  0  0  0  0  0  0  0  0  0
   57.8229   28.3733   42.9527 H   0  0  0  0  0  0  0  0  0  0  0  0
   56.5141   31.4149   43.5069 H   0  0  0  0  0  0  0  0  0  0  0  0
   56.8006   33.8451   43.9126 H   0  0  0  0  0  0  0  0  0  0  0  0
   58.3951   34.6443   45.6407 H   0  0  0  0  0  0  0  0  0  0  0  0
   59.7476   33.0238   46.9425 H   0  0  0  0  0  0  0  0  0  0  0  0
   59.3010   23.9906   46.0604 H   0  0  0  0  0  0  0  0  0  0  0  0
   56.9131   23.3611   45.6712 H   0  0  0  0  0  0  0  0  0  0  0  0
   55.1880   25.1540   45.4678 H   0  0  0  0  0  0  0  0  0  0  0  0
   60.8086   25.7401   46.8257 H   0  0  0  0  0  0  0  0  0  0  0  0
   60.8583   26.7623   45.3518 H   0  0  0  0  0  0  0  0  0  0  0  0
   59.7669   27.5610   48.1091 H   0  0  0  0  0  0  0  0  0  0  0  0
   61.2747   28.1658   47.3139 H   0  0  0  0  0  0  0  0  0  0  0  0
  1  2  1  0
  2  3  1  0
  3  4  1  0
  4  5  1  0
  5  6  1  0
  6  7  1  0
  7  8  2  0
  8  9  1  0
  9 10  2  0
 10 11  1  0
 10 12  1  0
 12 13  2  0
 13 14  1  0
 14 15  2  0
 15 16  1  0
 16 17  2  0
  9 18  1  0
 18 19  2  0
 19 20  1  0
 20 21  2  0
 21 22  1  0
 22 23  2  0
 23 24  1  0
 19 25  1  0
 25 26  1  0
 17  7  1  0
 23 18  1  0
 26  8  1  0
 17 12  1  0
  1 27  1  0
  1 28  1  0
  1 29  1  0
  2 30  1  0
  2 31  1  0
  3 32  1  0
  4 33  1  0
  4 34  1  0
  5 35  1  0
  5 36  1  0
  6 37  1  0
  6 38  1  0
 11 39  1  0
 11 40  1  0
 11 41  1  0
 13 42  1  0
 14 43  1  0
 15 44  1  0
 16 45  1  0
 20 46  1  0
 21 47  1  0
 22 48  1  0
 25 49  1  0
 25 50  1  0
 26 51  1  0
 26 52  1  0
M  CHG  4   6   1  10   1  23   1  24  -1
M  END
>  <UniqueID>  (7) 
7

>  <SMILES>  (7) 
CCNCC[NH2+]c1c2c([n+](C)c3ccccc13)-c1c(ccc[n+]1[O-])CC2

>  <Energy>  (7) 
89.2189854794915

>  <Genealogy>  (7) 
CCNCC[NH2+]c1c2c([n+](C)c3ccccc13)-c1c(ccc[n+]1[O-])CC2 (protonated)
CCNCC[NH2+]c1c2c([n+](C)c3ccccc13)-c1c(ccc[n+]1[O-])CC2 (3D coordinates assigned)
CCNCC[NH2+]c1c2c([n+](C)c3ccccc13)-c1c(ccc[n+]1[O-])CC2 (nonaromatic ring conformer: 89.2189854794915 kcal/mol)

>  <smiles>  (7) 
CCNCCNc1c2c([n+](C)c3ccccc13)-c1c(ccc[n+]1[O-])CC2

>  <score_type>  (7) 
oracle

>  <origin>  (7) 
adg

>  <m_score__min__energy>  (7) 
-6.1100000000000003

>  <m_primary>  (7) 
energy

$$$$
7:0
     RDKit          3D

 27 28  0  0  0  0  0  0  0  0999 V2000
   59.4950   33.4410   49.4450 S   0  0  0  0  0  0  0  0  0  0  0  0
   60.2900   33.4290   48.0090 C   0  0  0  0  0  0  0  0  0  0  0  0
   59.4680   33.4300   46.7810 C   0  0  0  0  0  0  0  0  0  0  0  0
   59.2820   34.6140   46.0500 C   0  0  0  0  0  0  0  0  0  0  0  0
   58.5210   34.6040   44.8780 C   0  0  0  0  0  0  0  0  0  0  0  0
   57.9530   33.4110   44.4210 C   0  0  0  0  0  0  0  0  0  0  0  0
   58.1500   32.2240   45.1350 C   0  0  0  0  0  0  0  0  0  0  0  0
   57.3830   30.5920   44.5050 Br  0  0  0  0  0  0  0  0  0  0  0  0
   58.9120   32.2320   46.3080 C   0  0  0  0  0  0  0  0  0  0  0  0
   61.7130   33.1470   47.9930 N   0  0  0  0  0  0  0  0  0  0  0  0
   62.0010   31.7230   47.7920 C   0  0  0  0  0  0  0  0  0  0  0  0
   63.4090   31.6380   47.2070 C   0  0  0  0  0  0  0  0  0  0  0  0
   63.7460   33.0500   46.7480 C   0  0  0  0  0  0  0  0  0  0  0  0
   62.4660   33.8450   46.9440 C   0  0  0  0  0  0  0  0  0  0  0  0
   59.7366   35.5523   46.4008 H   0  0  0  0  0  0  0  0  0  0  0  0
   58.3686   35.5361   44.3142 H   0  0  0  0  0  0  0  0  0  0  0  0
   57.3513   33.4056   43.5002 H   0  0  0  0  0  0  0  0  0  0  0  0
   59.0758   31.2956   46.8615 H   0  0  0  0  0  0  0  0  0  0  0  0
   62.1230   33.4360   48.9150 H   0  0  0  0  0  0  0  0  0  0  0  0
   61.9565   31.1881   48.7522 H   0  0  0  0  0  0  0  0  0  0  0  0
   61.2642   31.2617   47.1180 H   0  0  0  0  0  0  0  0  0  0  0  0
   64.1236   31.3021   47.9728 H   0  0  0  0  0  0  0  0  0  0  0  0
   63.4633   30.9163   46.3787 H   0  0  0  0  0  0  0  0  0  0  0  0
   64.5592   33.4707   47.3577 H   0  0  0  0  0  0  0  0  0  0  0  0
   64.0901   33.0731   45.7035 H   0  0  0  0  0  0  0  0  0  0  0  0
   62.6989   34.8726   47.2600 H   0  0  0  0  0  0  0  0  0  0  0  0
   61.8876   33.9140   46.0109 H   0  0  0  0  0  0  0  0  0  0  0  0
  1  2  2  0
  2  3  1  0
  3  4  2  0
  4  5  1  0
  5  6  2  0
  6  7  1  0
  7  8  1  0
  7  9  2  0
  2 10  1  0
 10 11  1  0
 11 12  1  0
 12 13  1  0
 13 14  1  0
  9  3  1  0
 14 10  1  0
  4 15  1  0
  5 16  1  0
  6 17  1  0
  9 18  1  0
 10 19  1  0
 11 20  1  0
 11 21  1  0
 12 22  1  0
 12 23  1  0
 13 24  1  0
 13 25  1  0
 14 26  1  0
 14 27  1  0
M  CHG  1  10   1
M  END
>  <UniqueID>  (8) 
8

>  <SMILES>  (8) 
S=C(c1cccc(Br)c1)[NH+]1CCCC1

>  <Energy>  (8) 
39.12838194611859

>  <Genealogy>  (8) 
S=C(c1cccc(Br)c1)[NH+]1CCCC1 (protonated)
S=C(c1cccc(Br)c1)[NH+]1CCCC1 (3D coordinates assigned)
S=C(c1cccc(Br)c1)[NH+]1CCCC1 (nonaromatic ring conformer: 39.12838194611859 kcal/mol)

>  <smiles>  (8) 
S=C(c1cccc(Br)c1)N1CCCC1

>  <score_type>  (8) 
oracle

>  <origin>  (8) 
adg

>  <m_score__min__energy>  (8) 
-4.9400000000000004

>  <m_primary>  (8) 
energy

$$$$
8:0
     RDKit          3D

 49 51  0  0  0  0  0  0  0  0999 V2000
   63.3120   33.6660   46.8600 C   0  0  0  0  0  0  0  0  0  0  0  0
   63.3800   32.1750   47.1750 C   0  0  0  0  0  0  0  0  0  0  0  0
   62.4080   31.8360   48.1450 O   0  0  0  0  0  0  0  0  0  0  0  0
   62.9990   31.7420   49.4260 C   0  0  0  0  0  0  0  0  0  0  0  0
   61.9060   31.6110   50.4780 C   0  0  0  0  0  0  0  0  0  0  0  0
   61.1450   30.4480   50.2220 O   0  0  0  0  0  0  0  0  0  0  0  0
   59.7860   30.6560   50.5630 C   0  0  0  0  0  0  0  0  0  0  0  0
   58.9340   30.8290   49.3030 C   0  0  0  0  0  0  0  0  0  0  0  0
   59.7670   30.8870   48.1030 N   0  0  0  0  0  0  0  0  0  0  0  0
   59.2030   31.2910   46.8470 C   0  0  0  0  0  0  0  0  0  0  0  0
   59.2750   32.6310   46.4380 C   0  0  0  0  0  0  0  0  0  0  0  0
   59.9100   33.5980   47.2460 C   0  0  0  0  0  0  0  0  0  0  0  0
   59.9290   34.9390   46.8670 C   0  0  0  0  0  0  0  0  0  0  0  0
   59.3070   35.3380   45.6900 C   0  0  0  0  0  0  0  0  0  0  0  0
   58.6920   34.3960   44.8660 C   0  0  0  0  0  0  0  0  0  0  0  0
   58.6980   33.0160   45.1980 C   0  0  0  0  0  0  0  0  0  0  0  0
   58.1500   32.0620   44.3610 N   0  0  0  0  0  0  0  0  0  0  0  0
   57.8040   32.4130   42.9640 C   0  0  0  0  0  0  0  0  0  0  0  0
   57.9540   30.7700   44.8160 C   0  0  0  0  0  0  0  0  0  0  0  0
   57.1810   29.8290   44.0900 C   0  0  0  0  0  0  0  0  0  0  0  0
   57.0360   28.5150   44.5370 C   0  0  0  0  0  0  0  0  0  0  0  0
   57.6430   28.1070   45.7210 C   0  0  0  0  0  0  0  0  0  0  0  0
   57.4610   26.4520   46.2740 Cl  0  0  0  0  0  0  0  0  0  0  0  0
   58.3730   29.0200   46.4780 C   0  0  0  0  0  0  0  0  0  0  0  0
   58.5190   30.3570   46.0520 C   0  0  0  0  0  0  0  0  0  0  0  0
   63.2859   34.2383   47.7990 H   0  0  0  0  0  0  0  0  0  0  0  0
   64.1977   33.9583   46.2769 H   0  0  0  0  0  0  0  0  0  0  0  0
   62.4033   33.8765   46.2769 H   0  0  0  0  0  0  0  0  0  0  0  0
   63.1920   31.6005   46.2560 H   0  0  0  0  0  0  0  0  0  0  0  0
   64.3789   31.9365   47.5691 H   0  0  0  0  0  0  0  0  0  0  0  0
   63.6534   30.8587   49.4645 H   0  0  0  0  0  0  0  0  0  0  0  0
   63.5935   32.6461   49.6240 H   0  0  0  0  0  0  0  0  0  0  0  0
   62.3637   31.5379   51.4756 H   0  0  0  0  0  0  0  0  0  0  0  0
   61.2514   32.4942   50.4397 H   0  0  0  0  0  0  0  0  0  0  0  0
   59.4191   29.7884   51.1310 H   0  0  0  0  0  0  0  0  0  0  0  0
   59.7090   31.5695   51.1709 H   0  0  0  0  0  0  0  0  0  0  0  0
   58.2423   29.9779   49.2184 H   0  0  0  0  0  0  0  0  0  0  0  0
   58.3785   31.7748   49.3864 H   0  0  0  0  0  0  0  0  0  0  0  0
   60.7340   30.4880   48.1030 H   0  0  0  0  0  0  0  0  0  0  0  0
   60.3948   33.2903   48.1843 H   0  0  0  0  0  0  0  0  0  0  0  0
   60.4366   35.6820   47.4998 H   0  0  0  0  0  0  0  0  0  0  0  0
   59.2998   36.4010   45.4073 H   0  0  0  0  0  0  0  0  0  0  0  0
   58.1938   34.7280   43.9432 H   0  0  0  0  0  0  0  0  0  0  0  0
   57.0318   33.1964   42.9633 H   0  0  0  0  0  0  0  0  0  0  0  0
   58.7013   32.7821   42.4457 H   0  0  0  0  0  0  0  0  0  0  0  0
   57.4220   31.5211   42.4457 H   0  0  0  0  0  0  0  0  0  0  0  0
   56.6868   30.1402   43.1578 H   0  0  0  0  0  0  0  0  0  0  0  0
   56.4400   27.7994   43.9516 H   0  0  0  0  0  0  0  0  0  0  0  0
   58.8411   28.6950   47.4189 H   0  0  0  0  0  0  0  0  0  0  0  0
  1  2  1  0
  2  3  1  0
  3  4  1  0
  4  5  1  0
  5  6  1  0
  6  7  1  0
  7  8  1  0
  8  9  1  0
  9 10  1  0
 10 11  2  0
 11 12  1  0
 12 13  2  0
 13 14  1  0
 14 15  2  0
 15 16  1  0
 16 17  2  0
 17 18  1  0
 17 19  1  0
 19 20  2  0
 20 21  1  0
 21 22  2  0
 22 23  1  0
 22 24  1  0
 24 25  2  0
 25 10  1  0
 16 11  1  0
 25 19  1  0
  1 26  1  0
  1 27  1  0
  1 28  1  0
  2 29  1  0
  2 30  1  0
  4 31  1  0
  4 32  1  0
  5 33  1  0
  5 34  1  0
  7 35  1  0
  7 36  1  0
  8 37  1  0
  8 38  1  0
  9 39  1  0
 12 40  1  0
 13 41  1  0
 14 42  1  0
 15 43  1  0
 18 44  1  0
 18 45  1  0
 18 46  1  0
 20 47  1  0
 21 48  1  0
 24 49  1  0
M  CHG  1  17   1
M  END
>  <UniqueID>  (9) 
9

>  <SMILES>  (9) 
CCOCCOCCNc1c2ccccc2[n+](C)c2ccc(Cl)cc12

>  <Energy>  (9) 
73.00977578136862

>  <Genealogy>  (9) 
CCOCCOCCNc1c2ccccc2[n+](C)c2ccc(Cl)cc12 (3D coordinates assigned)
CCOCCOCCNc1c2ccccc2[n+](C)c2ccc(Cl)cc12 (optimized conformer: 73.00977578136862 kcal/mol)

>  <smiles>  (9) 
CCOCCOCCNc1c2ccccc2[n+](C)c2ccc(Cl)cc12

>  <score_type>  (9) 
oracle

>  <origin>  (9) 
adg

>  <m_score__min__energy>  (9) 
-5.8300000000000001

>  <m_primary>  (9) 
energy

$$$$
9:0
     RDKit          3D

 69 71  0  0  0  0  0  0  0  0999 V2000
   63.7620   33.0740   46.7750 C   0  0  0  0  0  0  0  0  0  0  0  0
   62.8350   31.9850   47.3000 C   0  0  0  0  0  0  0  0  0  0  0  0
   61.8570   32.5600   48.2330 N   0  0  0  0  0  0  0  0  0  0  0  0
   62.2850   33.8790   48.7170 C   0  0  0  0  0  0  0  0  0  0  0  0
   61.6990   34.1960   50.1020 C   0  0  0  0  0  0  0  0  0  0  0  0
   60.8420   33.1720   50.5720 O   0  0  0  0  0  0  0  0  0  0  0  0
   59.6790   33.7200   51.1610 C   0  0  0  0  0  0  0  0  0  0  0  0
   58.5580   32.6760   51.1680 C   0  0  0  0  0  0  0  0  0  0  0  0
   58.1080   32.2400   49.7570 C   0  0  0  0  0  0  0  0  0  0  0  0
   59.1710   31.5770   48.9660 N   0  0  0  0  0  0  0  0  0  0  0  0
   58.9230   31.6400   47.5300 C   0  0  0  0  0  0  0  0  0  0  0  0
   58.9940   32.8940   46.8460 C   0  0  0  0  0  0  0  0  0  0  0  0
   59.2580   34.1210   47.5180 C   0  0  0  0  0  0  0  0  0  0  0  0
   59.3970   35.3180   46.8200 C   0  0  0  0  0  0  0  0  0  0  0  0
   59.2850   35.3370   45.4410 C   0  0  0  0  0  0  0  0  0  0  0  0
   58.9840   34.1670   44.7560 C   0  0  0  0  0  0  0  0  0  0  0  0
   58.7820   32.9390   45.4410 C   0  0  0  0  0  0  0  0  0  0  0  0
   58.3960   31.8110   44.7580 N   0  0  0  0  0  0  0  0  0  0  0  0
   57.8310   31.9380   43.3930 C   0  0  0  0  0  0  0  0  0  0  0  0
   58.4960   30.5700   45.3500 C   0  0  0  0  0  0  0  0  0  0  0  0
   58.4190   29.4020   44.5540 C   0  0  0  0  0  0  0  0  0  0  0  0
   58.4280   28.1420   45.1180 C   0  0  0  0  0  0  0  0  0  0  0  0
   58.5270   27.9960   46.4860 C   0  0  0  0  0  0  0  0  0  0  0  0
   58.6660   29.1120   47.3300 C   0  0  0  0  0  0  0  0  0  0  0  0
   58.8020   28.9080   48.7150 O   0  0  0  0  0  0  0  0  0  0  0  0
   59.9170   28.3490   49.4190 C   0  0  0  0  0  0  0  0  0  0  0  0
   61.1490   29.2540   49.3100 C   0  0  0  0  0  0  0  0  0  0  0  0
   61.1290   30.3170   50.3380 N   0  0  0  0  0  0  0  0  0  0  0  0
   60.2920   29.9230   51.4850 C   0  0  0  0  0  0  0  0  0  0  0  0
   62.4960   30.6000   50.8050 C   0  0  0  0  0  0  0  0  0  0  0  0
   58.6980   30.4400   46.7610 C   0  0  0  0  0  0  0  0  0  0  0  0
   64.2168   33.6082   47.6222 H   0  0  0  0  0  0  0  0  0  0  0  0
   64.5532   32.6179   46.1619 H   0  0  0  0  0  0  0  0  0  0  0  0
   63.1854   33.7822   46.1619 H   0  0  0  0  0  0  0  0  0  0  0  0
   62.3034   31.5218   46.4557 H   0  0  0  0  0  0  0  0  0  0  0  0
   63.4329   31.2272   47.8275 H   0  0  0  0  0  0  0  0  0  0  0  0
   61.8130   31.9300   49.0670 H   0  0  0  0  0  0  0  0  0  0  0  0
   63.3829   33.8952   48.7826 H   0  0  0  0  0  0  0  0  0  0  0  0
   61.9202   34.6380   48.0093 H   0  0  0  0  0  0  0  0  0  0  0  0
   62.5266   34.3196   50.8160 H   0  0  0  0  0  0  0  0  0  0  0  0
   61.1039   35.1167   50.0119 H   0  0  0  0  0  0  0  0  0  0  0  0
   59.9017   34.0233   52.1946 H   0  0  0  0  0  0  0  0  0  0  0  0
   59.3556   34.5954   50.5787 H   0  0  0  0  0  0  0  0  0  0  0  0
   58.9145   31.7871   51.7091 H   0  0  0  0  0  0  0  0  0  0  0  0
   57.6878   33.1416   51.6537 H   0  0  0  0  0  0  0  0  0  0  0  0
   57.2669   31.5391   49.8629 H   0  0  0  0  0  0  0  0  0  0  0  0
   57.8294   33.1550   49.2137 H   0  0  0  0  0  0  0  0  0  0  0  0
   60.1060   31.9250   49.2530 H   0  0  0  0  0  0  0  0  0  0  0  0
   59.2770   30.5800   49.2500 H   0  0  0  0  0  0  0  0  0  0  0  0
   59.3544   34.1236   48.6138 H   0  0  0  0  0  0  0  0  0  0  0  0
   59.5965   36.2514   47.3667 H   0  0  0  0  0  0  0  0  0  0  0  0
   59.4340   36.2765   44.8886 H   0  0  0  0  0  0  0  0  0  0  0  0
   58.9002   34.1917   43.6595 H   0  0  0  0  0  0  0  0  0  0  0  0
   56.7598   32.1788   43.4605 H   0  0  0  0  0  0  0  0  0  0  0  0
   58.3540   32.7410   42.8529 H   0  0  0  0  0  0  0  0  0  0  0  0
   57.9601   30.9884   42.8529 H   0  0  0  0  0  0  0  0  0  0  0  0
   58.3504   29.5006   43.4606 H   0  0  0  0  0  0  0  0  0  0  0  0
   58.3561   27.2524   44.4750 H   0  0  0  0  0  0  0  0  0  0  0  0
   58.4966   26.9878   46.9248 H   0  0  0  0  0  0  0  0  0  0  0  0
   59.6500   28.2320   50.4797 H   0  0  0  0  0  0  0  0  0  0  0  0
   60.1593   27.3739   48.9712 H   0  0  0  0  0  0  0  0  0  0  0  0
   62.0545   28.6438   49.4434 H   0  0  0  0  0  0  0  0  0  0  0  0
   61.1426   29.7304   48.3185 H   0  0  0  0  0  0  0  0  0  0  0  0
   60.8141   30.1688   52.4215 H   0  0  0  0  0  0  0  0  0  0  0  0
   59.3360   30.4657   51.4449 H   0  0  0  0  0  0  0  0  0  0  0  0
   60.1011   28.8404   51.4449 H   0  0  0  0  0  0  0  0  0  0  0  0
   62.5143   30.6038   51.9048 H   0  0  0  0  0  0  0  0  0  0  0  0
   63.1797   29.8243   50.4296 H   0  0  0  0  0  0  0  0  0  0  0  0
   62.8155   31.5833   50.4296 H   0  0  0  0  0  0  0  0  0  0  0  0
  1  2  1  0
  2  3  1  0
  3  4  1  0
  4  5  1  0
  5  6  1  0
  6  7  1  0
  7  8  1  0
  8  9  1  0
  9 10  1  0
 10 11  1  0
 11 12  2  0
 12 13  1  0
 13 14  2  0
 14 15  1  0
 15 16  2  0
 16 17  1  0
 17 18  2  0
 18 19  1  0
 18 20  1  0
 20 21  2  0
 21 22  1  0
 22 23  2  0
 23 24  1  0
 24 25  1  0
 25 26  1  0
 26 27  1  0
 27 28  1  0
 28 29  1  0
 28 30  1  0
 24 31  2  0
 31 11  1  0
 17 12  1  0
 31 20  1  0
  1 32  1  0
  1 33  1  0
  1 34  1  0
  2 35  1  0
  2 36  1  0
  3 37  1  0
  4 38  1  0
  4 39  1  0
  5 40  1  0
  5 41  1  0
  7 42  1  0
  7 43  1  0
  8 44  1  0
  8 45  1  0
  9 46  1  0
  9 47  1  0
 10 48  1  0
 10 49  1  0
 13 50  1  0
 14 51  1  0
 15 52  1  0
 16 53  1  0
 19 54  1  0
 19 55  1  0
 19 56  1  0
 21 57  1  0
 22 58  1  0
 23 59  1  0
 26 60  1  0
 26 61  1  0
 27 62  1  0
 27 63  1  0
 29 64  1  0
 29 65  1  0
 29 66  1  0
 30 67  1  0
 30 68  1  0
 30 69  1  0
M  CHG  2  10   1  18   1
M  END
>  <UniqueID>  (10) 
10

>  <SMILES>  (10) 
CCNCCOCCC[NH2+]c1c2ccccc2[n+](C)c2cccc(OCCN(C)C)c12

>  <Energy>  (10) 
96.76078149337684

>  <Genealogy>  (10) 
CCNCCOCCC[NH2+]c1c2ccccc2[n+](C)c2cccc(OCCN(C)C)c12 (protonated)
CCNCCOCCC[NH2+]c1c2ccccc2[n+](C)c2cccc(OCCN(C)C)c12 (3D coordinates assigned)
CCNCCOCCC[NH2+]c1c2ccccc2[n+](C)c2cccc(OCCN(C)C)c12 (optimized conformer: 96.76078149337684 kcal/mol)

>  <smiles>  (10) 
CCNCCOCCCNc1c2ccccc2[n+](C)c2cccc(OCCN(C)C)c12

>  <score_type>  (10) 
oracle

>  <origin>  (10) 
adg

>  <m_score__min__energy>  (10) 
-3.6299999999999999

>  <m_primary>  (10) 
energy

$$$$
10:0
     RDKit          3D

 41 42  0  0  0  0  0  0  0  0999 V2000
   62.3970   33.7960   46.3520 C   0  0  0  0  0  0  0  0  0  0  0  0
   63.1580   33.8780   47.6770 C   0  0  0  0  0  0  0  0  0  0  0  0
   64.0930   32.7530   47.8640 N   0  0  0  0  0  0  0  0  0  0  0  0
   63.5940   31.7260   48.7990 C   0  0  0  0  0  0  0  0  0  0  0  0
   61.9040   32.1310   49.3990 S   0  0  0  0  0  0  0  0  0  0  0  0
   61.2530   30.4220   49.4760 C   0  0  0  0  0  0  0  0  0  0  0  0
   60.0190   30.2530   48.5870 C   0  0  0  0  0  0  0  0  0  0  0  0
   60.1820   30.9680   47.3210 N   0  0  0  0  0  0  0  0  0  0  0  0
   59.0690   31.5870   46.6470 C   0  0  0  0  0  0  0  0  0  0  0  0
   58.6090   31.1190   45.4610 C   0  0  0  0  0  0  0  0  0  0  0  0
   58.5040   29.7240   45.2480 C   0  0  0  0  0  0  0  0  0  0  0  0
   57.7250   29.2230   44.2030 C   0  0  0  0  0  0  0  0  0  0  0  0
   57.0420   30.0920   43.3570 C   0  0  0  0  0  0  0  0  0  0  0  0
   57.2030   31.4720   43.4940 C   0  0  0  0  0  0  0  0  0  0  0  0
   58.0560   31.9950   44.4770 C   0  0  0  0  0  0  0  0  0  0  0  0
   58.4340   33.2390   44.3360 N   0  0  0  0  0  0  0  0  0  0  0  0
   58.0660   34.3720   45.1910 C   0  0  0  0  0  0  0  0  0  0  0  0
   58.6490   34.2720   46.6000 C   0  0  0  0  0  0  0  0  0  0  0  0
   58.0730   32.8170   47.5280 S   0  0  0  0  0  0  0  0  0  0  0  0
   61.3218   33.6801   46.5533 H   0  0  0  0  0  0  0  0  0  0  0  0
   62.5649   34.7174   45.7751 H   0  0  0  0  0  0  0  0  0  0  0  0
   62.7573   32.9315   45.7751 H   0  0  0  0  0  0  0  0  0  0  0  0
   63.7290   34.8180   47.6978 H   0  0  0  0  0  0  0  0  0  0  0  0
   62.4180   33.8350   48.4897 H   0  0  0  0  0  0  0  0  0  0  0  0
   65.0260   33.1160   48.1680 H   0  0  0  0  0  0  0  0  0  0  0  0
   64.2300   32.3040   46.9280 H   0  0  0  0  0  0  0  0  0  0  0  0
   63.5677   30.7547   48.2833 H   0  0  0  0  0  0  0  0  0  0  0  0
   64.2700   31.6889   49.6660 H   0  0  0  0  0  0  0  0  0  0  0  0
   62.0350   29.7258   49.1387 H   0  0  0  0  0  0  0  0  0  0  0  0
   60.9622   30.2093   50.5153 H   0  0  0  0  0  0  0  0  0  0  0  0
   59.8694   29.1832   48.3791 H   0  0  0  0  0  0  0  0  0  0  0  0
   59.1479   30.6690   49.1144 H   0  0  0  0  0  0  0  0  0  0  0  0
   61.1460   31.1030   46.9400 H   0  0  0  0  0  0  0  0  0  0  0  0
   59.0402   29.0289   45.9108 H   0  0  0  0  0  0  0  0  0  0  0  0
   57.6508   28.1366   44.0477 H   0  0  0  0  0  0  0  0  0  0  0  0
   56.3748   29.6911   42.5798 H   0  0  0  0  0  0  0  0  0  0  0  0
   56.6568   32.1543   42.8260 H   0  0  0  0  0  0  0  0  0  0  0  0
   58.4345   35.2974   44.7242 H   0  0  0  0  0  0  0  0  0  0  0  0
   56.9703   34.3685   45.2877 H   0  0  0  0  0  0  0  0  0  0  0  0
   59.7449   34.2212   46.5196 H   0  0  0  0  0  0  0  0  0  0  0  0
   58.3095   35.1607   47.1523 H   0  0  0  0  0  0  0  0  0  0  0  0
  1  2  1  0
  2  3  1  0
  3  4  1  0
  4  5  1  0
  5  6  1  0
  6  7  1  0
  7  8  1  0
  8  9  1  0
  9 10  2  0
 10 11  1  0
 11 12  2  0
 12 13  1  0
 13 14  2  0
 14 15  1  0
 15 16  2  0
 16 17  1  0
 17 18  1  0
 18 19  1  0
 19  9  1  0
 15 10  1  0
  1 20  1  0
  1 21  1  0
  1 22  1  0
  2 23  1  0
  2 24  1  0
  3 25  1  0
  3 26  1  0
  4 27  1  0
  4 28  1  0
  6 29  1  0
  6 30  1  0
  7 31  1  0
  7 32  1  0
  8 33  1  0
 11 34  1  0
 12 35  1  0
 13 36  1  0
 14 37  1  0
 17 38  1  0
 17 39  1  0
 18 40  1  0
 18 41  1  0
M  CHG  1   3   1
M  END
>  <UniqueID>  (11) 
11

>  <SMILES>  (11) 
CC[NH2+]CSCCNC1=c2ccccc2=NCCS1

>  <Energy>  (11) 
61.50129856482434

>  <Genealogy>  (11) 
CC[NH2+]CSCCNC1=c2ccccc2=NCCS1 (protonated)
CC[NH2+]CSCCNC1=c2ccccc2=NCCS1 (3D coordinates assigned)
CC[NH2+]CSCCNC1=c2ccccc2=NCCS1 (nonaromatic ring conformer: 61.50129856482434 kcal/mol)

>  <smiles>  (11) 
CCNCSCCNC1=c2ccccc2=NCCS1

>  <score_type>  (11) 
oracle

>  <origin>  (11) 
adg

>  <m_score__min__energy>  (11) 
-3.21

>  <m_primary>  (11) 
energy

$$$$
11:0
     RDKit          3D

 36 37  0  0  0  0  0  0  0  0999 V2000
   56.5985   28.9735   45.9483 H   0  0  0  0  0  0  0  0  0  0  0  0
   57.6750   29.1980   45.9200 C   0  0  0  0  0  0  0  0  0  0  0  0
   58.5380   28.1840   45.7970 C   0  0  0  0  0  0  0  0  0  0  0  0
   59.0400   27.6240   46.9270 F   0  0  0  0  0  0  0  0  0  0  0  0
   58.9540   27.6390   44.4530 C   0  0  0  0  0  0  0  0  0  0  0  0
   59.4302   26.6572   44.5920 H   0  0  0  0  0  0  0  0  0  0  0  0
   59.6617   28.3409   43.9877 H   0  0  0  0  0  0  0  0  0  0  0  0
   57.7870   27.4900   43.5760 N   0  0  0  0  0  0  0  0  0  0  0  0
   57.0600   26.9440   44.0930 H   0  0  0  0  0  0  0  0  0  0  0  0
   58.1460   26.7180   42.3840 C   0  0  0  0  0  0  0  0  0  0  0  0
   58.5917   25.7595   42.6884 H   0  0  0  0  0  0  0  0  0  0  0  0
   57.2435   26.5287   41.7842 H   0  0  0  0  0  0  0  0  0  0  0  0
   58.8723   27.2861   41.7842 H   0  0  0  0  0  0  0  0  0  0  0  0
   58.1050   30.6000   46.0190 C   0  0  0  0  0  0  0  0  0  0  0  0
   58.6430   31.3170   47.4480 S   0  0  0  0  0  0  0  0  0  0  0  0
   58.9400   32.8150   46.7560 C   0  0  0  0  0  0  0  0  0  0  0  0
   59.4330   33.9580   47.3810 C   0  0  0  0  0  0  0  0  0  0  0  0
   59.6680   33.9564   48.4556 H   0  0  0  0  0  0  0  0  0  0  0  0
   59.6220   35.1100   46.6060 C   0  0  0  0  0  0  0  0  0  0  0  0
   60.0085   36.0273   47.0741 H   0  0  0  0  0  0  0  0  0  0  0  0
   59.3200   35.0990   45.2330 C   0  0  0  0  0  0  0  0  0  0  0  0
   59.4733   36.0083   44.6333 H   0  0  0  0  0  0  0  0  0  0  0  0
   58.8240   33.9360   44.6210 C   0  0  0  0  0  0  0  0  0  0  0  0
   58.5893   33.9280   43.5464 H   0  0  0  0  0  0  0  0  0  0  0  0
   58.6320   32.7840   45.4000 C   0  0  0  0  0  0  0  0  0  0  0  0
   58.1520   31.5290   44.9690 C   0  0  0  0  0  0  0  0  0  0  0  0
   57.7870   31.1840   43.5450 C   0  0  0  0  0  0  0  0  0  0  0  0
   57.7825   32.1066   42.9460 H   0  0  0  0  0  0  0  0  0  0  0  0
   58.5317   30.4681   43.1670 H   0  0  0  0  0  0  0  0  0  0  0  0
   56.4030   30.5240   43.4500 C   0  0  0  0  0  0  0  0  0  0  0  0
   56.0942   30.2011   44.4552 H   0  0  0  0  0  0  0  0  0  0  0  0
   55.7023   31.2640   43.0360 H   0  0  0  0  0  0  0  0  0  0  0  0
   56.4080   29.3620   42.5620 N   0  0  0  0  0  0  0  0  0  0  0  0
   57.3820   29.1530   42.2430 H   0  0  0  0  0  0  0  0  0  0  0  0
   55.7900   29.5340   41.7370 H   0  0  0  0  0  0  0  0  0  0  0  0
   56.0460   28.5320   43.0850 H   0  0  0  0  0  0  0  0  0  0  0  0
  1  2  1  0
  2  3  2  0
  3  4  1  0
  3  5  1  0
  5  6  1  0
  5  7  1  0
  5  8  1  0
  8  9  1  0
  8 10  1  0
 10 11  1  0
 10 12  1  0
 10 13  1  0
  2 14  1  0
 14 15  1  0
 15 16  1  0
 16 17  2  0
 17 18  1  0
 17 19  1  0
 19 20  1  0
 19 21  2  0
 21 22  1  0
 21 23  1  0
 23 24  1  0
 23 25  2  0
 25 26  1  0
 26 27  1  0
 27 28  1  0
 27 29  1  0
 27 30  1  0
 30 31  1  0
 30 32  1  0
 30 33  1  0
 33 34  1  0
 33 35  1  0
 33 36  1  0
 26 14  2  0
 25 16  1  0
M  CHG  1  33   1
M  END
>  <UniqueID>  (12) 
12

>  <SMILES>  (12) 
CNC/C(F)=C\c1sc2ccccc2c1CC[NH3+]

>  <Energy>  (12) 
67.07662365725864

>  <Genealogy>  (12) 
CNCC(F)=Cc1sc2ccccc2c1CC[NH3+] (protonated)
CNC/C(F)=C\c1sc2ccccc2c1CC[NH3+] (cis-trans isomerization)
CNC/C(F)=C\c1sc2ccccc2c1CC[NH3+] (3D coordinates assigned)
CNC/C(F)=C\c1sc2ccccc2c1CC[NH3+] (optimized conformer: 67.07662365725864 kcal/mol)

>  <smiles>  (12) 
CNCC(F)=Cc1sc2ccccc2c1CCN

>  <score_type>  (12) 
oracle

>  <origin>  (12) 
adg

>  <m_score__min__energy>  (12) 
-6.5300000000000002

>  <m_primary>  (12) 
energy

$$$$
12:0
     RDKit          3D

 37 40  0  0  0  0  0  0  0  0999 V2000
   56.6390   29.7820   43.0020 C   0  0  0  0  0  0  0  0  0  0  0  0
   57.3970   30.5320   43.9990 N   0  0  0  0  0  0  0  0  0  0  0  0
   57.1600   31.8040   44.3940 C   0  0  0  0  0  0  0  0  0  0  0  0
   58.0640   32.1790   45.3860 C   0  0  0  0  0  0  0  0  0  0  0  0
   58.0970   33.4720   46.1010 C   0  0  0  0  0  0  0  0  0  0  0  0
   57.0650   34.1940   46.1160 O   0  0  0  0  0  0  0  0  0  0  0  0
   59.2900   33.9300   46.7660 N   0  0  0  0  0  0  0  0  0  0  0  0
   59.3340   34.0140   48.2370 C   0  0  0  0  0  0  0  0  0  0  0  0
   60.4000   33.0530   48.7860 C   0  0  0  0  0  0  0  0  0  0  0  0
   61.6160   33.1640   47.9870 N   0  0  0  0  0  0  0  0  0  0  0  0
   62.8580   32.7310   48.2570 C   0  0  0  0  0  0  0  0  0  0  0  0
   63.6590   32.9470   47.1960 N   0  0  0  0  0  0  0  0  0  0  0  0
   62.9420   33.5050   46.2300 N   0  0  0  0  0  0  0  0  0  0  0  0
   61.6940   33.6160   46.7240 C   0  0  0  0  0  0  0  0  0  0  0  0
   60.5220   34.2070   46.0070 C   0  0  0  0  0  0  0  0  0  0  0  0
   58.8660   31.0680   45.5990 C   0  0  0  0  0  0  0  0  0  0  0  0
   59.9380   30.8540   46.4700 C   0  0  0  0  0  0  0  0  0  0  0  0
   60.5620   29.5930   46.4490 C   0  0  0  0  0  0  0  0  0  0  0  0
   60.1110   28.5860   45.5710 C   0  0  0  0  0  0  0  0  0  0  0  0
   59.0340   28.8280   44.7010 C   0  0  0  0  0  0  0  0  0  0  0  0
   58.4330   30.0890   44.7380 C   0  0  0  0  0  0  0  0  0  0  0  0
   55.9451   29.0954   43.5091 H   0  0  0  0  0  0  0  0  0  0  0  0
   56.0686   30.4812   42.3728 H   0  0  0  0  0  0  0  0  0  0  0  0
   57.3321   29.2043   42.3728 H   0  0  0  0  0  0  0  0  0  0  0  0
   56.3668   32.4501   43.9898 H   0  0  0  0  0  0  0  0  0  0  0  0
   59.5824   35.0430   48.5360 H   0  0  0  0  0  0  0  0  0  0  0  0
   58.3512   33.7344   48.6445 H   0  0  0  0  0  0  0  0  0  0  0  0
   60.6236   33.3126   49.8313 H   0  0  0  0  0  0  0  0  0  0  0  0
   60.0225   32.0210   48.7360 H   0  0  0  0  0  0  0  0  0  0  0  0
   63.1742   32.2687   49.2037 H   0  0  0  0  0  0  0  0  0  0  0  0
   64.6740   32.7150   47.1250 H   0  0  0  0  0  0  0  0  0  0  0  0
   60.6590   35.2945   45.9150 H   0  0  0  0  0  0  0  0  0  0  0  0
   60.4428   33.7608   45.0047 H   0  0  0  0  0  0  0  0  0  0  0  0
   60.2830   31.6464   47.1505 H   0  0  0  0  0  0  0  0  0  0  0  0
   61.4080   29.3913   47.1225 H   0  0  0  0  0  0  0  0  0  0  0  0
   60.6058   27.6036   45.5669 H   0  0  0  0  0  0  0  0  0  0  0  0
   58.6753   28.0489   44.0123 H   0  0  0  0  0  0  0  0  0  0  0  0
  1  2  1  0
  2  3  1  0
  3  4  2  0
  4  5  1  0
  5  6  2  0
  5  7  1  0
  7  8  1  0
  8  9  1  0
  9 10  1  0
 10 11  1  0
 11 12  2  0
 12 13  1  0
 13 14  2  0
 14 15  1  0
  4 16  1  0
 16 17  2  0
 17 18  1  0
 18 19  2  0
 19 20  1  0
 20 21  2  0
 21  2  1  0
 15  7  1  0
 21 16  1  0
 14 10  1  0
  1 22  1  0
  1 23  1  0
  1 24  1  0
  3 25  1  0
  8 26  1  0
  8 27  1  0
  9 28  1  0
  9 29  1  0
 11 30  1  0
 12 31  1  0
 15 32  1  0
 15 33  1  0
 17 34  1  0
 18 35  1  0
 19 36  1  0
 20 37  1  0
M  CHG  1  12   1
M  END
>  <UniqueID>  (13) 
13

>  <SMILES>  (13) 
Cn1cc(C(=O)N2CCn3c[nH+]nc3C2)c2ccccc21

>  <Energy>  (13) 
114.68047744851006

>  <Genealogy>  (13) 
Cn1cc(C(=O)N2CCn3c[nH+]nc3C2)c2ccccc21 (protonated)
Cn1cc(C(=O)N2CCn3c[nH+]nc3C2)c2ccccc21 (3D coordinates assigned)
Cn1cc(C(=O)N2CCn3c[nH+]nc3C2)c2ccccc21 (nonaromatic ring conformer: 114.68047744851006 kcal/mol)

>  <smiles>  (13) 
Cn1cc(C(=O)N2CCn3cnnc3C2)c2ccccc21

>  <score_type>  (13) 
oracle

>  <origin>  (13) 
adg

>  <m_score__min__energy>  (13) 
-6.3099999999999996

>  <m_primary>  (13) 
energy

$$$$
13:0
     RDKit          3D

 56 59  0  0  0  0  0  0  0  0999 V2000
   57.7576   30.3953   46.3226 H   0  0  0  0  0  0  0  0  0  0  0  0
   57.3090   29.6310   45.6710 C   0  0  0  0  0  0  0  0  0  0  0  0
   57.4260   28.3440   46.0370 C   0  0  0  0  0  0  0  0  0  0  0  0
   57.1716   28.0806   47.0742 H   0  0  0  0  0  0  0  0  0  0  0  0
   57.8850   27.2300   45.1170 C   0  0  0  0  0  0  0  0  0  0  0  0
   57.6116   26.2639   45.5664 H   0  0  0  0  0  0  0  0  0  0  0  0
   57.3933   27.3715   44.1433 H   0  0  0  0  0  0  0  0  0  0  0  0
   59.3530   27.2560   44.8950 N   0  0  0  0  0  0  0  0  0  0  0  0
   59.5510   26.6300   44.0780 H   0  0  0  0  0  0  0  0  0  0  0  0
   60.1030   26.6930   46.0480 C   0  0  0  0  0  0  0  0  0  0  0  0
   59.6571   25.7255   46.3222 H   0  0  0  0  0  0  0  0  0  0  0  0
   61.1537   26.5778   45.7435 H   0  0  0  0  0  0  0  0  0  0  0  0
   60.0660   27.6190   47.2720 C   0  0  0  0  0  0  0  0  0  0  0  0
   59.0739   27.5518   47.7424 H   0  0  0  0  0  0  0  0  0  0  0  0
   60.8512   27.2997   47.9731 H   0  0  0  0  0  0  0  0  0  0  0  0
   60.3220   29.0130   46.8930 N   0  0  0  0  0  0  0  0  0  0  0  0
   60.1880   30.0610   47.8800 C   0  0  0  0  0  0  0  0  0  0  0  0
   59.4200   29.8500   48.9200 N   0  0  0  0  0  0  0  0  0  0  0  0
   59.1290   30.7600   49.9950 C   0  0  0  0  0  0  0  0  0  0  0  0
   59.1470   30.2750   51.3100 C   0  0  0  0  0  0  0  0  0  0  0  0
   59.3681   29.2143   51.4995 H   0  0  0  0  0  0  0  0  0  0  0  0
   58.8850   31.1340   52.3820 C   0  0  0  0  0  0  0  0  0  0  0  0
   58.9049   30.7485   53.4120 H   0  0  0  0  0  0  0  0  0  0  0  0
   58.5980   32.4810   52.1470 C   0  0  0  0  0  0  0  0  0  0  0  0
   58.4144   33.1596   52.9930 H   0  0  0  0  0  0  0  0  0  0  0  0
   58.5440   32.9670   50.8370 C   0  0  0  0  0  0  0  0  0  0  0  0
   58.3150   34.0271   50.6533 H   0  0  0  0  0  0  0  0  0  0  0  0
   58.7810   32.1060   49.7590 C   0  0  0  0  0  0  0  0  0  0  0  0
   58.6200   32.7210   48.0900 S   0  0  0  0  0  0  0  0  0  0  0  0
   60.3850   32.5810   47.8550 C   0  0  0  0  0  0  0  0  0  0  0  0
   61.1690   33.7400   47.7890 C   0  0  0  0  0  0  0  0  0  0  0  0
   60.6980   34.7283   47.8958 H   0  0  0  0  0  0  0  0  0  0  0  0
   62.5470   33.6430   47.5880 C   0  0  0  0  0  0  0  0  0  0  0  0
   63.1593   34.5548   47.5280 H   0  0  0  0  0  0  0  0  0  0  0  0
   63.1490   32.3880   47.4630 C   0  0  0  0  0  0  0  0  0  0  0  0
   64.2340   32.3136   47.2982 H   0  0  0  0  0  0  0  0  0  0  0  0
   62.3750   31.2270   47.5470 C   0  0  0  0  0  0  0  0  0  0  0  0
   62.8551   30.2418   47.4529 H   0  0  0  0  0  0  0  0  0  0  0  0
   60.9870   31.3110   47.7510 C   0  0  0  0  0  0  0  0  0  0  0  0
   60.7530   29.2990   45.5200 C   0  0  0  0  0  0  0  0  0  0  0  0
   60.7430   30.3867   45.3564 H   0  0  0  0  0  0  0  0  0  0  0  0
   61.7694   28.9038   45.3761 H   0  0  0  0  0  0  0  0  0  0  0  0
   59.8090   28.6260   44.5090 C   0  0  0  0  0  0  0  0  0  0  0  0
   58.9197   29.2632   44.3941 H   0  0  0  0  0  0  0  0  0  0  0  0
   60.3829   28.5110   43.5777 H   0  0  0  0  0  0  0  0  0  0  0  0
   56.6030   30.0920   44.4260 C   0  0  0  0  0  0  0  0  0  0  0  0
   55.6411   29.5668   44.3321 H   0  0  0  0  0  0  0  0  0  0  0  0
   57.2235   29.8716   43.5449 H   0  0  0  0  0  0  0  0  0  0  0  0
   56.3760   31.4820   44.5120 O   0  0  0  0  0  0  0  0  0  0  0  0
   57.6110   32.1640   44.5630 C   0  0  0  0  0  0  0  0  0  0  0  0
   58.0521   32.2044   43.5561 H   0  0  0  0  0  0  0  0  0  0  0  0
   58.3006   31.6354   45.2375 H   0  0  0  0  0  0  0  0  0  0  0  0
   57.3740   33.5760   45.0730 C   0  0  0  0  0  0  0  0  0  0  0  0
   57.3744   33.5734   46.1730 H   0  0  0  0  0  0  0  0  0  0  0  0
   58.1738   34.2369   44.7076 H   0  0  0  0  0  0  0  0  0  0  0  0
   56.4023   33.9396   44.7076 H   0  0  0  0  0  0  0  0  0  0  0  0
  1  2  1  0
  2  3  2  0
  3  4  1  0
  3  5  1  0
  5  6  1  0
  5  7  1  0
  5  8  1  0
  8  9  1  0
  8 10  1  0
 10 11  1  0
 10 12  1  0
 10 13  1  0
 13 14  1  0
 13 15  1  0
 13 16  1  0
 16 17  1  0
 17 18  2  0
 18 19  1  0
 19 20  2  0
 20 21  1  0
 20 22  1  0
 22 23  1  0
 22 24  2  0
 24 25  1  0
 24 26  1  0
 26 27  1  0
 26 28  2  0
 28 29  1  0
 29 30  1  0
 30 31  2  0
 31 32  1  0
 31 33  1  0
 33 34  1  0
 33 35  2  0
 35 36  1  0
 35 37  1  0
 37 38  1  0
 37 39  2  0
 16 40  1  0
 40 41  1  0
 40 42  1  0
 40 43  1  0
 43 44  1  0
 43 45  1  0
  2 46  1  0
 46 47  1  0
 46 48  1  0
 46 49  1  0
 49 50  1  0
 50 51  1  0
 50 52  1  0
 50 53  1  0
 53 54  1  0
 53 55  1  0
 53 56  1  0
 43  8  1  0
 39 17  1  0
 28 19  1  0
 39 30  1  0
M  CHG  1   8   1
M  END
>  <UniqueID>  (14) 
14

>  <SMILES>  (14) 
CCOC/C=C\C[NH+]1CCN(C2=Nc3ccccc3Sc3ccccc32)CC1

>  <Energy>  (14) 
78.06344024415222

>  <Genealogy>  (14) 
CCOCC=CC[NH+]1CCN(C2=Nc3ccccc3Sc3ccccc32)CC1 (protonated)
CCOC/C=C\C[NH+]1CCN(C2=Nc3ccccc3Sc3ccccc32)CC1 (cis-trans isomerization)
CCOC/C=C\C[NH+]1CCN(C2=Nc3ccccc3Sc3ccccc32)CC1 (3D coordinates assigned)
CCOC/C=C\C[NH+]1CCN(C2=Nc3ccccc3Sc3ccccc32)CC1 (nonaromatic ring conformer: 78.06344024415222 kcal/mol)

>  <smiles>  (14) 
CCOCC=CCN1CCN(C2=Nc3ccccc3Sc3ccccc32)CC1

>  <score_type>  (14) 
oracle

>  <origin>  (14) 
adg

>  <m_score__min__energy>  (14) 
-6.3200000000000003

>  <m_primary>  (14) 
energy

$$$$
14:0
     RDKit          3D

 69 69  0  0  0  0  0  0  0  0999 V2000
   60.8282   35.3766   48.5228 H   0  0  0  0  0  0  0  0  0  0  0  0
   60.0740   34.5790   48.4520 C   0  0  0  0  0  0  0  0  0  0  0  0
   59.6460   34.0080   49.5320 N   0  0  0  0  0  0  0  0  0  0  0  0
   60.4620   33.8540   50.6290 O   0  0  0  0  0  0  0  0  0  0  0  0
   59.9460   33.2840   51.8210 C   0  0  0  0  0  0  0  0  0  0  0  0
   58.9767   33.7481   52.0555 H   0  0  0  0  0  0  0  0  0  0  0  0
   60.6569   33.4632   52.6410 H   0  0  0  0  0  0  0  0  0  0  0  0
   59.7560   31.7830   51.6480 C   0  0  0  0  0  0  0  0  0  0  0  0
   58.6865   31.5382   51.7266 H   0  0  0  0  0  0  0  0  0  0  0  0
   60.3147   31.2518   52.4327 H   0  0  0  0  0  0  0  0  0  0  0  0
   60.2370   31.3860   50.3800 O   0  0  0  0  0  0  0  0  0  0  0  0
   61.3790   30.5730   50.5480 C   0  0  0  0  0  0  0  0  0  0  0  0
   61.1190   29.5299   50.3148 H   0  0  0  0  0  0  0  0  0  0  0  0
   61.7239   30.6523   51.5895 H   0  0  0  0  0  0  0  0  0  0  0  0
   62.5060   31.0350   49.6130 C   0  0  0  0  0  0  0  0  0  0  0  0
   62.6942   30.2420   48.8742 H   0  0  0  0  0  0  0  0  0  0  0  0
   63.3881   31.2351   50.2390 H   0  0  0  0  0  0  0  0  0  0  0  0
   62.1860   32.2950   48.8840 N   0  0  0  0  0  0  0  0  0  0  0  0
   61.1790   32.5130   49.0730 H   0  0  0  0  0  0  0  0  0  0  0  0
   62.3990   32.1800   47.4090 C   0  0  0  0  0  0  0  0  0  0  0  0
   61.4303   31.9877   46.9247 H   0  0  0  0  0  0  0  0  0  0  0  0
   63.1045   31.3548   47.2319 H   0  0  0  0  0  0  0  0  0  0  0  0
   63.0050   33.4550   46.8130 C   0  0  0  0  0  0  0  0  0  0  0  0
   63.3232   34.1244   47.6258 H   0  0  0  0  0  0  0  0  0  0  0  0
   63.8746   33.1924   46.1927 H   0  0  0  0  0  0  0  0  0  0  0  0
   62.2522   33.9635   46.1927 H   0  0  0  0  0  0  0  0  0  0  0  0
   62.9330   33.4480   49.4560 C   0  0  0  0  0  0  0  0  0  0  0  0
   63.0172   34.2236   48.6806 H   0  0  0  0  0  0  0  0  0  0  0  0
   62.3673   33.7863   50.3366 H   0  0  0  0  0  0  0  0  0  0  0  0
   64.3480   33.1000   49.9460 C   0  0  0  0  0  0  0  0  0  0  0  0
   64.3645   33.0959   51.0459 H   0  0  0  0  0  0  0  0  0  0  0  0
   64.6315   32.1054   49.5714 H   0  0  0  0  0  0  0  0  0  0  0  0
   65.0605   33.8497   49.5714 H   0  0  0  0  0  0  0  0  0  0  0  0
   59.5630   34.1740   47.1230 C   0  0  0  0  0  0  0  0  0  0  0  0
   59.4650   35.1500   46.1190 C   0  0  0  0  0  0  0  0  0  0  0  0
   59.8033   36.1767   46.3227 H   0  0  0  0  0  0  0  0  0  0  0  0
   58.9430   34.8310   44.8660 C   0  0  0  0  0  0  0  0  0  0  0  0
   58.8651   35.6062   44.0894 H   0  0  0  0  0  0  0  0  0  0  0  0
   58.5200   33.5310   44.5970 C   0  0  0  0  0  0  0  0  0  0  0  0
   58.0955   33.2845   43.6126 H   0  0  0  0  0  0  0  0  0  0  0  0
   58.6340   32.5400   45.5750 C   0  0  0  0  0  0  0  0  0  0  0  0
   58.3030   31.5145   45.3540 H   0  0  0  0  0  0  0  0  0  0  0  0
   59.1700   32.8440   46.8430 C   0  0  0  0  0  0  0  0  0  0  0  0
   59.3590   31.8540   47.8240 O   0  0  0  0  0  0  0  0  0  0  0  0
   59.0190   30.4710   47.7020 C   0  0  0  0  0  0  0  0  0  0  0  0
   58.5258   30.1391   48.6275 H   0  0  0  0  0  0  0  0  0  0  0  0
   58.3450   30.3510   46.8410 H   0  0  0  0  0  0  0  0  0  0  0  0
   60.2680   29.6160   47.4660 C   0  0  0  0  0  0  0  0  0  0  0  0
   61.1152   30.0637   48.0062 H   0  0  0  0  0  0  0  0  0  0  0  0
   60.0647   28.5987   47.8318 H   0  0  0  0  0  0  0  0  0  0  0  0
   60.6170   29.5310   45.9710 C   0  0  0  0  0  0  0  0  0  0  0  0
   61.1999   30.4222   45.6954 H   0  0  0  0  0  0  0  0  0  0  0  0
   61.1892   28.6041   45.8178 H   0  0  0  0  0  0  0  0  0  0  0  0
   59.3730   29.4600   45.0690 C   0  0  0  0  0  0  0  0  0  0  0  0
   58.4830   29.5797   45.7043 H   0  0  0  0  0  0  0  0  0  0  0  0
   59.4867   30.2606   44.3233 H   0  0  0  0  0  0  0  0  0  0  0  0
   59.2210   28.1470   44.2740 C   0  0  0  0  0  0  0  0  0  0  0  0
   59.3562   28.3767   43.2068 H   0  0  0  0  0  0  0  0  0  0  0  0
   59.9798   27.4572   44.6719 H   0  0  0  0  0  0  0  0  0  0  0  0
   57.8630   27.4370   44.4420 C   0  0  0  0  0  0  0  0  0  0  0  0
   57.2933   27.5509   43.5079 H   0  0  0  0  0  0  0  0  0  0  0  0
   58.0769   26.3837   44.6763 H   0  0  0  0  0  0  0  0  0  0  0  0
   57.0200   27.9900   45.5930 C   0  0  0  0  0  0  0  0  0  0  0  0
   56.6607   27.1563   46.2141 H   0  0  0  0  0  0  0  0  0  0  0  0
   57.6386   28.6685   46.1988 H   0  0  0  0  0  0  0  0  0  0  0  0
   55.9040   28.7100   45.0800 O   0  0  0  0  0  0  0  0  0  0  0  0
   56.0620   29.8200   44.2730 N   0  0  0  0  0  0  0  0  0  0  0  0
   56.2930   30.9300   44.7960 O   0  0  0  0  0  0  0  0  0  0  0  0
   55.9720   29.7180   42.9040 O   0  0  0  0  0  0  0  0  0  0  0  0
  1  2  1  0
  2  3  2  0
  3  4  1  0
  4  5  1  0
  5  6  1  0
  5  7  1  0
  5  8  1  0
  8  9  1  0
  8 10  1  0
  8 11  1  0
 11 12  1  0
 12 13  1  0
 12 14  1  0
 12 15  1  0
 15 16  1  0
 15 17  1  0
 15 18  1  0
 18 19  1  0
 18 20  1  0
 20 21  1  0
 20 22  1  0
 20 23  1  0
 23 24  1  0
 23 25  1  0
 23 26  1  0
 18 27  1  0
 27 28  1  0
 27 29  1  0
 27 30  1  0
 30 31  1  0
 30 32  1  0
 30 33  1  0
  2 34  1  0
 34 35  2  0
 35 36  1  0
 35 37  1  0
 37 38  1  0
 37 39  2  0
 39 40  1  0
 39 41  1  0
 41 42  1  0
 41 43  2  0
 43 44  1  0
 44 45  1  0
 45 46  1  0
 45 47  1  0
 45 48  1  0
 48 49  1  0
 48 50  1  0
 48 51  1  0
 51 52  1  0
 51 53  1  0
 51 54  1  0
 54 55  1  0
 54 56  1  0
 54 57  1  0
 57 58  1  0
 57 59  1  0
 57 60  1  0
 60 61  1  0
 60 62  1  0
 60 63  1  0
 63 64  1  0
 63 65  1  0
 63 66  1  0
 66 67  1  0
 67 68  2  0
 67 69  1  0
 43 34  1  0
M  CHG  3  18   1  67   1  69  -1
M  END
>  <UniqueID>  (15) 
15

>  <SMILES>  (15) 
CC[NH+](CC)CCOCCO/N=C/c1ccccc1OCCCCCCCO[N+](=O)[O-]

>  <Energy>  (15) 
52.55435760360073

>  <Genealogy>  (15) 
CC[NH+](CC)CCOCCON=Cc1ccccc1OCCCCCCCO[N+](=O)[O-] (protonated)
CC[NH+](CC)CCOCCO/N=C/c1ccccc1OCCCCCCCO[N+](=O)[O-] (cis-trans isomerization)
CC[NH+](CC)CCOCCO/N=C/c1ccccc1OCCCCCCCO[N+](=O)[O-] (3D coordinates assigned)
CC[NH+](CC)CCOCCO/N=C/c1ccccc1OCCCCCCCO[N+](=O)[O-] (optimized conformer: 52.55435760360073 kcal/mol)

>  <smiles>  (15) 
CCN(CC)CCOCCON=Cc1ccccc1OCCCCCCCO[N+](=O)[O-]

>  <score_type>  (15) 
oracle

>  <origin>  (15) 
adg

>  <m_score__min__energy>  (15) 
-4.8200000000000003

>  <m_primary>  (15) 
energy

$$$$
15:0
     RDKit          3D

 46 48  0  0  0  0  0  0  0  0999 V2000
   57.9680   34.5590   44.8730 C   0  0  0  0  0  0  0  0  0  0  0  0
   57.0280   33.6910   45.6990 C   0  0  0  0  0  0  0  0  0  0  0  0
   57.6620   32.4130   46.0110 N   0  0  0  0  0  0  0  0  0  0  0  0
   57.4110   31.2960   45.3470 N   0  0  0  0  0  0  0  0  0  0  0  0
   58.0880   30.2960   45.9490 C   0  0  0  0  0  0  0  0  0  0  0  0
   58.0660   28.8900   45.4770 C   0  0  0  0  0  0  0  0  0  0  0  0
   58.1870   28.6090   44.1030 C   0  0  0  0  0  0  0  0  0  0  0  0
   58.1710   27.2880   43.6440 C   0  0  0  0  0  0  0  0  0  0  0  0
   58.0330   26.2340   44.5480 C   0  0  0  0  0  0  0  0  0  0  0  0
   57.9120   26.4980   45.9140 C   0  0  0  0  0  0  0  0  0  0  0  0
   57.9280   27.8170   46.3800 C   0  0  0  0  0  0  0  0  0  0  0  0
   58.7790   30.7980   47.0450 C   0  0  0  0  0  0  0  0  0  0  0  0
   58.4850   32.1430   47.0430 C   0  0  0  0  0  0  0  0  0  0  0  0
   59.0870   33.3410   48.2370 S   0  0  0  0  0  0  0  0  0  0  0  0
   60.2040   34.2130   47.0760 C   0  0  0  0  0  0  0  0  0  0  0  0
   61.5160   33.4400   46.8190 C   0  0  0  0  0  0  0  0  0  0  0  0
   62.2380   33.0930   48.0690 N   0  0  0  0  0  0  0  0  0  0  0  0
   62.1970   34.2020   49.0460 C   0  0  0  0  0  0  0  0  0  0  0  0
   62.9510   33.8190   50.3410 C   0  0  0  0  0  0  0  0  0  0  0  0
   63.6850   32.6150   50.2040 O   0  0  0  0  0  0  0  0  0  0  0  0
   64.5010   32.6810   49.0530 C   0  0  0  0  0  0  0  0  0  0  0  0
   63.6470   32.7510   47.7690 C   0  0  0  0  0  0  0  0  0  0  0  0
   58.6076   35.1496   45.5454 H   0  0  0  0  0  0  0  0  0  0  0  0
   58.5970   33.9173   44.2385 H   0  0  0  0  0  0  0  0  0  0  0  0
   57.3784   35.2370   44.2385 H   0  0  0  0  0  0  0  0  0  0  0  0
   56.7818   34.2123   46.6358 H   0  0  0  0  0  0  0  0  0  0  0  0
   56.1116   33.5042   45.1199 H   0  0  0  0  0  0  0  0  0  0  0  0
   58.2950   29.4350   43.3846 H   0  0  0  0  0  0  0  0  0  0  0  0
   58.2674   27.0795   42.5683 H   0  0  0  0  0  0  0  0  0  0  0  0
   58.0195   25.1958   44.1849 H   0  0  0  0  0  0  0  0  0  0  0  0
   57.8038   25.6663   46.6257 H   0  0  0  0  0  0  0  0  0  0  0  0
   57.8323   28.0176   47.4573 H   0  0  0  0  0  0  0  0  0  0  0  0
   59.4156   30.2467   47.7527 H   0  0  0  0  0  0  0  0  0  0  0  0
   59.6808   34.3470   46.1177 H   0  0  0  0  0  0  0  0  0  0  0  0
   60.4702   35.1780   47.5319 H   0  0  0  0  0  0  0  0  0  0  0  0
   61.2759   32.5100   46.2829 H   0  0  0  0  0  0  0  0  0  0  0  0
   62.1742   34.0950   46.2293 H   0  0  0  0  0  0  0  0  0  0  0  0
   61.7880   32.2540   48.5030 H   0  0  0  0  0  0  0  0  0  0  0  0
   62.6694   35.0911   48.6028 H   0  0  0  0  0  0  0  0  0  0  0  0
   61.1471   34.4125   49.2976 H   0  0  0  0  0  0  0  0  0  0  0  0
   63.6483   34.6304   50.5966 H   0  0  0  0  0  0  0  0  0  0  0  0
   62.2019   33.6663   51.1319 H   0  0  0  0  0  0  0  0  0  0  0  0
   65.1342   33.5785   49.1126 H   0  0  0  0  0  0  0  0  0  0  0  0
   65.1202   31.7728   49.0114 H   0  0  0  0  0  0  0  0  0  0  0  0
   64.0666   33.5191   47.1027 H   0  0  0  0  0  0  0  0  0  0  0  0
   63.6660   31.7614   47.2890 H   0  0  0  0  0  0  0  0  0  0  0  0
  1  2  1  0
  2  3  1  0
  3  4  1  0
  4  5  2  0
  5  6  1  0
  6  7  2  0
  7  8  1  0
  8  9  2  0
  9 10  1  0
 10 11  2  0
  5 12  1  0
 12 13  2  0
 13 14  1  0
 14 15  1  0
 15 16  1  0
 16 17  1  0
 17 18  1  0
 18 19  1  0
 19 20  1  0
 20 21  1  0
 21 22  1  0
 13  3  1  0
 22 17  1  0
 11  6  1  0
  1 23  1  0
  1 24  1  0
  1 25  1  0
  2 26  1  0
  2 27  1  0
  7 28  1  0
  8 29  1  0
  9 30  1  0
 10 31  1  0
 11 32  1  0
 12 33  1  0
 15 34  1  0
 15 35  1  0
 16 36  1  0
 16 37  1  0
 17 38  1  0
 18 39  1  0
 18 40  1  0
 19 41  1  0
 19 42  1  0
 21 43  1  0
 21 44  1  0
 22 45  1  0
 22 46  1  0
M  CHG  1  17   1
M  END
>  <UniqueID>  (16) 
16

>  <SMILES>  (16) 
CCn1nc(-c2ccccc2)cc1SCC[NH+]1CCOCC1

>  <Energy>  (16) 
81.61692989039133

>  <Genealogy>  (16) 
CCn1nc(-c2ccccc2)cc1SCC[NH+]1CCOCC1 (protonated)
CCn1nc(-c2ccccc2)cc1SCC[NH+]1CCOCC1 (3D coordinates assigned)
CCn1nc(-c2ccccc2)cc1SCC[NH+]1CCOCC1 (nonaromatic ring conformer: 81.61692989039133 kcal/mol)

>  <smiles>  (16) 
CCn1nc(-c2ccccc2)cc1SCCN1CCOCC1

>  <score_type>  (16) 
oracle

>  <origin>  (16) 
adg

>  <m_score__min__energy>  (16) 
-5.4100000000000001

>  <m_primary>  (16) 
energy

$$$$
16:0
     RDKit          3D

 52 55  0  0  0  0  0  0  0  0999 V2000
   58.9340   33.8690   52.0030 C   0  0  0  0  0  0  0  0  0  0  0  0
   59.5950   33.8710   50.8360 C   0  0  0  0  0  0  0  0  0  0  0  0
   59.2670   32.8880   49.7480 C   0  0  0  0  0  0  0  0  0  0  0  0
   59.6920   33.4150   48.4490 N   0  0  0  0  0  0  0  0  0  0  0  0
   60.9030   33.9290   48.1020 C   0  0  0  0  0  0  0  0  0  0  0  0
   62.3400   33.9570   49.1830 S   0  0  0  0  0  0  0  0  0  0  0  0
   63.0780   32.4560   48.4520 C   0  0  0  0  0  0  0  0  0  0  0  0
   62.3310   31.2280   48.8990 C   0  0  0  0  0  0  0  0  0  0  0  0
   62.7320   30.6300   49.9340 O   0  0  0  0  0  0  0  0  0  0  0  0
   61.1770   30.7260   48.1910 N   0  0  0  0  0  0  0  0  0  0  0  0
   60.9900   30.9680   46.7500 C   0  0  0  0  0  0  0  0  0  0  0  0
   60.4000   29.7280   46.0500 C   0  0  0  0  0  0  0  0  0  0  0  0
   59.3540   29.0800   46.8570 N   0  0  0  0  0  0  0  0  0  0  0  0
   58.9090   27.7550   46.4980 C   0  0  0  0  0  0  0  0  0  0  0  0
   59.8270   26.6900   46.4200 C   0  0  0  0  0  0  0  0  0  0  0  0
   59.4020   25.4200   46.0150 C   0  0  0  0  0  0  0  0  0  0  0  0
   58.0610   25.1970   45.6940 C   0  0  0  0  0  0  0  0  0  0  0  0
   57.1430   26.2480   45.7670 C   0  0  0  0  0  0  0  0  0  0  0  0
   57.5620   27.5200   46.1730 C   0  0  0  0  0  0  0  0  0  0  0  0
   58.9170   29.7120   48.1060 C   0  0  0  0  0  0  0  0  0  0  0  0
   60.1420   30.0240   48.9660 C   0  0  0  0  0  0  0  0  0  0  0  0
   60.9360   34.4350   46.8430 N   0  0  0  0  0  0  0  0  0  0  0  0
   59.6830   34.2190   46.3960 C   0  0  0  0  0  0  0  0  0  0  0  0
   59.1610   34.5400   45.1420 C   0  0  0  0  0  0  0  0  0  0  0  0
   57.8130   34.2170   44.8910 C   0  0  0  0  0  0  0  0  0  0  0  0
   57.0310   33.5870   45.8850 C   0  0  0  0  0  0  0  0  0  0  0  0
   57.5890   33.2760   47.1410 C   0  0  0  0  0  0  0  0  0  0  0  0
   58.9310   33.6110   47.3570 C   0  0  0  0  0  0  0  0  0  0  0  0
   59.1936   34.5995   52.7834 H   0  0  0  0  0  0  0  0  0  0  0  0
   58.1323   33.1369   52.1797 H   0  0  0  0  0  0  0  0  0  0  0  0
   60.3946   34.6083   50.6718 H   0  0  0  0  0  0  0  0  0  0  0  0
   59.7892   31.9400   49.9446 H   0  0  0  0  0  0  0  0  0  0  0  0
   58.1801   32.7198   49.7303 H   0  0  0  0  0  0  0  0  0  0  0  0
   63.0325   32.5279   47.3553 H   0  0  0  0  0  0  0  0  0  0  0  0
   64.1235   32.3763   48.7845 H   0  0  0  0  0  0  0  0  0  0  0  0
   60.3040   31.8172   46.6146 H   0  0  0  0  0  0  0  0  0  0  0  0
   61.9708   31.1875   46.3029 H   0  0  0  0  0  0  0  0  0  0  0  0
   59.9648   30.0375   45.0883 H   0  0  0  0  0  0  0  0  0  0  0  0
   61.2138   29.0021   45.9057 H   0  0  0  0  0  0  0  0  0  0  0  0
   60.8830   26.8573   46.6786 H   0  0  0  0  0  0  0  0  0  0  0  0
   60.1261   24.5946   45.9492 H   0  0  0  0  0  0  0  0  0  0  0  0
   57.7280   24.1954   45.3842 H   0  0  0  0  0  0  0  0  0  0  0  0
   56.0888   26.0751   45.5048 H   0  0  0  0  0  0  0  0  0  0  0  0
   56.8327   28.3409   46.2382 H   0  0  0  0  0  0  0  0  0  0  0  0
   58.3799   30.6446   47.8783 H   0  0  0  0  0  0  0  0  0  0  0  0
   58.2466   29.0307   48.6505 H   0  0  0  0  0  0  0  0  0  0  0  0
   59.8345   30.6589   49.8100 H   0  0  0  0  0  0  0  0  0  0  0  0
   60.5636   29.0738   49.3258 H   0  0  0  0  0  0  0  0  0  0  0  0
   59.7810   35.0285   44.3759 H   0  0  0  0  0  0  0  0  0  0  0  0
   57.3663   34.4568   43.9148 H   0  0  0  0  0  0  0  0  0  0  0  0
   55.9800   33.3377   45.6771 H   0  0  0  0  0  0  0  0  0  0  0  0
   56.9911   32.7871   47.9243 H   0  0  0  0  0  0  0  0  0  0  0  0
  1  2  2  0
  2  3  1  0
  3  4  1  0
  4  5  1  0
  5  6  1  0
  6  7  1  0
  7  8  1  0
  8  9  2  0
  8 10  1  0
 10 11  1  0
 11 12  1  0
 12 13  1  0
 13 14  1  0
 14 15  2  0
 15 16  1  0
 16 17  2  0
 17 18  1  0
 18 19  2  0
 13 20  1  0
 20 21  1  0
  5 22  2  0
 22 23  1  0
 23 24  2  0
 24 25  1  0
 25 26  2  0
 26 27  1  0
 27 28  2  0
 28  4  1  0
 21 10  1  0
 28 23  1  0
 19 14  1  0
  1 29  1  0
  1 30  1  0
  2 31  1  0
  3 32  1  0
  3 33  1  0
  7 34  1  0
  7 35  1  0
 11 36  1  0
 11 37  1  0
 12 38  1  0
 12 39  1  0
 15 40  1  0
 16 41  1  0
 17 42  1  0
 18 43  1  0
 19 44  1  0
 20 45  1  0
 20 46  1  0
 21 47  1  0
 21 48  1  0
 24 49  1  0
 25 50  1  0
 26 51  1  0
 27 52  1  0
M  END
>  <UniqueID>  (17) 
17

>  <SMILES>  (17) 
C=CCn1c(SCC(=O)N2CCN(c3ccccc3)CC2)nc2ccccc21

>  <Energy>  (17) 
89.8733720917277

>  <Genealogy>  (17) 
C=CCn1c(SCC(=O)N2CCN(c3ccccc3)CC2)nc2ccccc21 (3D coordinates assigned)
C=CCn1c(SCC(=O)N2CCN(c3ccccc3)CC2)nc2ccccc21 (nonaromatic ring conformer: 89.8733720917277 kcal/mol)

>  <smiles>  (17) 
C=CCn1c(SCC(=O)N2CCN(c3ccccc3)CC2)nc2ccccc21

>  <score_type>  (17) 
oracle

>  <origin>  (17) 
adg

>  <m_score__min__energy>  (17) 
-8.6899999999999995

>  <m_primary>  (17) 
energy

$$$$
17:0
     RDKit          3D

 54 56  0  0  0  0  0  0  0  0999 V2000
   63.7490   33.1640   46.7180 C   0  0  0  0  0  0  0  0  0  0  0  0
   63.3430   31.8970   47.4680 C   0  0  0  0  0  0  0  0  0  0  0  0
   62.9000   32.2050   48.8420 N   0  0  0  0  0  0  0  0  0  0  0  0
   63.4060   31.2170   49.8070 C   0  0  0  0  0  0  0  0  0  0  0  0
   63.1270   33.6110   49.2660 C   0  0  0  0  0  0  0  0  0  0  0  0
   61.9970   34.2530   50.1110 C   0  0  0  0  0  0  0  0  0  0  0  0
   60.7090   34.0470   49.5640 O   0  0  0  0  0  0  0  0  0  0  0  0
   59.9070   33.2220   50.3920 C   0  0  0  0  0  0  0  0  0  0  0  0
   59.6170   31.8770   49.6910 C   0  0  0  0  0  0  0  0  0  0  0  0
   60.3460   31.6010   48.4200 N   0  0  0  0  0  0  0  0  0  0  0  0
   59.5390   31.2050   47.2760 C   0  0  0  0  0  0  0  0  0  0  0  0
   58.9250   32.2160   46.4830 C   0  0  0  0  0  0  0  0  0  0  0  0
   58.9040   33.5720   46.9000 C   0  0  0  0  0  0  0  0  0  0  0  0
   58.3550   34.5670   46.0970 C   0  0  0  0  0  0  0  0  0  0  0  0
   57.8270   34.2450   44.8560 C   0  0  0  0  0  0  0  0  0  0  0  0
   57.8110   32.9210   44.4300 C   0  0  0  0  0  0  0  0  0  0  0  0
   58.3150   31.8760   45.2480 C   0  0  0  0  0  0  0  0  0  0  0  0
   58.2360   30.5610   44.8520 N   0  0  0  0  0  0  0  0  0  0  0  0
   57.3400   30.1820   43.7350 C   0  0  0  0  0  0  0  0  0  0  0  0
   58.9410   29.5860   45.5270 C   0  0  0  0  0  0  0  0  0  0  0  0
   59.1340   28.3100   44.9410 C   0  0  0  0  0  0  0  0  0  0  0  0
   59.7380   27.2780   45.6400 C   0  0  0  0  0  0  0  0  0  0  0  0
   60.1370   27.4740   46.9490 C   0  0  0  0  0  0  0  0  0  0  0  0
   60.0130   28.7230   47.5580 C   0  0  0  0  0  0  0  0  0  0  0  0
   60.3690   28.6880   49.2870 Cl  0  0  0  0  0  0  0  0  0  0  0  0
   59.5040   29.8470   46.8170 C   0  0  0  0  0  0  0  0  0  0  0  0
   64.0019   33.9532   47.4414 H   0  0  0  0  0  0  0  0  0  0  0  0
   64.6241   32.9516   46.0862 H   0  0  0  0  0  0  0  0  0  0  0  0
   62.9135   33.4998   46.0862 H   0  0  0  0  0  0  0  0  0  0  0  0
   62.5190   31.4090   46.9269 H   0  0  0  0  0  0  0  0  0  0  0  0
   64.2180   31.2329   47.5263 H   0  0  0  0  0  0  0  0  0  0  0  0
   63.2220   31.5763   50.8302 H   0  0  0  0  0  0  0  0  0  0  0  0
   62.8878   30.2585   49.6562 H   0  0  0  0  0  0  0  0  0  0  0  0
   64.4866   31.0773   49.6562 H   0  0  0  0  0  0  0  0  0  0  0  0
   64.0510   33.6385   49.8621 H   0  0  0  0  0  0  0  0  0  0  0  0
   63.1753   34.1984   48.3372 H   0  0  0  0  0  0  0  0  0  0  0  0
   62.0228   33.8155   51.1199 H   0  0  0  0  0  0  0  0  0  0  0  0
   62.1763   35.3382   50.1276 H   0  0  0  0  0  0  0  0  0  0  0  0
   60.4373   33.0316   51.3367 H   0  0  0  0  0  0  0  0  0  0  0  0
   58.9539   33.7341   50.5906 H   0  0  0  0  0  0  0  0  0  0  0  0
   59.8695   31.0736   50.3987 H   0  0  0  0  0  0  0  0  0  0  0  0
   58.5563   31.9291   49.4044 H   0  0  0  0  0  0  0  0  0  0  0  0
   60.9020   32.4480   48.1640 H   0  0  0  0  0  0  0  0  0  0  0  0
   61.1240   30.9270   48.5800 H   0  0  0  0  0  0  0  0  0  0  0  0
   59.3302   33.8421   47.8775 H   0  0  0  0  0  0  0  0  0  0  0  0
   58.3399   35.6097   46.4470 H   0  0  0  0  0  0  0  0  0  0  0  0
   57.4210   35.0363   44.2087 H   0  0  0  0  0  0  0  0  0  0  0  0
   57.3994   32.6788   43.4391 H   0  0  0  0  0  0  0  0  0  0  0  0
   56.3979   29.7835   44.1396 H   0  0  0  0  0  0  0  0  0  0  0  0
   57.1284   31.0677   43.1179 H   0  0  0  0  0  0  0  0  0  0  0  0
   57.8282   29.4133   43.1179 H   0  0  0  0  0  0  0  0  0  0  0  0
   58.7968   28.1355   43.9086 H   0  0  0  0  0  0  0  0  0  0  0  0
   59.8999   26.3043   45.1545 H   0  0  0  0  0  0  0  0  0  0  0  0
   60.5585   26.6327   47.5188 H   0  0  0  0  0  0  0  0  0  0  0  0
  1  2  1  0
  2  3  1  0
  3  4  1  0
  3  5  1  0
  5  6  1  0
  6  7  1  0
  7  8  1  0
  8  9  1  0
  9 10  1  0
 10 11  1  0
 11 12  2  0
 12 13  1  0
 13 14  2  0
 14 15  1  0
 15 16  2  0
 16 17  1  0
 17 18  2  0
 18 19  1  0
 18 20  1  0
 20 21  2  0
 21 22  1  0
 22 23  2  0
 23 24  1  0
 24 25  1  0
 24 26  2  0
 26 11  1  0
 17 12  1  0
 26 20  1  0
  1 27  1  0
  1 28  1  0
  1 29  1  0
  2 30  1  0
  2 31  1  0
  4 32  1  0
  4 33  1  0
  4 34  1  0
  5 35  1  0
  5 36  1  0
  6 37  1  0
  6 38  1  0
  8 39  1  0
  8 40  1  0
  9 41  1  0
  9 42  1  0
 10 43  1  0
 10 44  1  0
 13 45  1  0
 14 46  1  0
 15 47  1  0
 16 48  1  0
 19 49  1  0
 19 50  1  0
 19 51  1  0
 21 52  1  0
 22 53  1  0
 23 54  1  0
M  CHG  2  10   1  18   1
M  END
>  <UniqueID>  (18) 
18

>  <SMILES>  (18) 
CCN(C)CCOCC[NH2+]c1c2ccccc2[n+](C)c2cccc(Cl)c12

>  <Energy>  (18) 
102.57169316600611

>  <Genealogy>  (18) 
CCN(C)CCOCC[NH2+]c1c2ccccc2[n+](C)c2cccc(Cl)c12 (protonated)
CCN(C)CCOCC[NH2+]c1c2ccccc2[n+](C)c2cccc(Cl)c12 (3D coordinates assigned)
CCN(C)CCOCC[NH2+]c1c2ccccc2[n+](C)c2cccc(Cl)c12 (optimized conformer: 102.57169316600611 kcal/mol)

>  <smiles>  (18) 
CCN(C)CCOCCNc1c2ccccc2[n+](C)c2cccc(Cl)c12

>  <score_type>  (18) 
oracle

>  <origin>  (18) 
adg

>  <m_score__min__energy>  (18) 
-3.6899999999999999

>  <m_primary>  (18) 
energy

$$$$
18:0
     RDKit          3D

 27 26  0  0  0  0  0  0  0  0999 V2000
   59.2160   30.0340   45.7350 C   0  0  0  0  0  0  0  0  0  0  0  0
   58.1750   31.0280   46.2730 C   0  0  0  0  0  0  0  0  0  0  0  0
   57.3810   31.7350   45.2360 N   0  0  0  0  0  0  0  0  0  0  0  0
   57.0160   33.1270   45.5790 C   0  0  0  0  0  0  0  0  0  0  0  0
   57.9710   34.1700   44.9960 C   0  0  0  0  0  0  0  0  0  0  0  0
   57.7680   31.5340   43.8180 C   0  0  0  0  0  0  0  0  0  0  0  0
   56.6710   30.7840   43.0410 C   0  0  0  0  0  0  0  0  0  0  0  0
   56.2740   29.4510   43.6950 C   0  0  0  0  0  0  0  0  0  0  0  0
   55.4430   29.6690   44.8780 N   0  0  0  0  0  0  0  0  0  0  0  0
   59.7270   29.5461   46.5781 H   0  0  0  0  0  0  0  0  0  0  0  0
   58.7128   29.2726   45.1209 H   0  0  0  0  0  0  0  0  0  0  0  0
   59.9533   30.5718   45.1209 H   0  0  0  0  0  0  0  0  0  0  0  0
   57.4766   30.4739   46.9174 H   0  0  0  0  0  0  0  0  0  0  0  0
   58.7421   31.8054   46.8061 H   0  0  0  0  0  0  0  0  0  0  0  0
   56.0052   33.3268   45.1939 H   0  0  0  0  0  0  0  0  0  0  0  0
   57.0704   33.2151   46.6741 H   0  0  0  0  0  0  0  0  0  0  0  0
   58.4669   34.7115   45.8151 H   0  0  0  0  0  0  0  0  0  0  0  0
   58.7289   33.6677   44.3768 H   0  0  0  0  0  0  0  0  0  0  0  0
   57.4040   34.8808   44.3768 H   0  0  0  0  0  0  0  0  0  0  0  0
   57.9327   32.5152   43.3488 H   0  0  0  0  0  0  0  0  0  0  0  0
   58.6876   30.9310   43.7907 H   0  0  0  0  0  0  0  0  0  0  0  0
   55.7796   31.4262   42.9858 H   0  0  0  0  0  0  0  0  0  0  0  0
   57.0743   30.5532   42.0440 H   0  0  0  0  0  0  0  0  0  0  0  0
   55.7111   28.8480   42.9673 H   0  0  0  0  0  0  0  0  0  0  0  0
   57.1910   28.9285   44.0051 H   0  0  0  0  0  0  0  0  0  0  0  0
   56.0350   30.0840   45.6350 H   0  0  0  0  0  0  0  0  0  0  0  0
   54.6950   30.3600   44.6440 H   0  0  0  0  0  0  0  0  0  0  0  0
  1  2  1  0
  2  3  1  0
  3  4  1  0
  4  5  1  0
  3  6  1  0
  6  7  1  0
  7  8  1  0
  8  9  1  0
  1 10  1  0
  1 11  1  0
  1 12  1  0
  2 13  1  0
  2 14  1  0
  4 15  1  0
  4 16  1  0
  5 17  1  0
  5 18  1  0
  5 19  1  0
  6 20  1  0
  6 21  1  0
  7 22  1  0
  7 23  1  0
  8 24  1  0
  8 25  1  0
  9 26  1  0
  9 27  1  0
M  END
>  <UniqueID>  (19) 
19

>  <SMILES>  (19) 
CCN(CC)CCCN

>  <Energy>  (19) 
26.85874835832486

>  <Genealogy>  (19) 
CCN(CC)CCCN (3D coordinates assigned)
CCN(CC)CCCN (optimized conformer: 26.85874835832486 kcal/mol)

>  <smiles>  (19) 
CCN(CC)CCCN

>  <score_type>  (19) 
oracle

>  <origin>  (19) 
adg

>  <m_score__min__energy>  (19) 
-4.1699999999999999

>  <m_primary>  (19) 
energy

$$$$
19:0
     RDKit          3D

 49 51  0  0  0  0  0  0  0  0999 V2000
   55.8850   23.3910   47.7220 C   0  0  0  0  0  0  0  0  0  0  0  0
   56.2490   24.6310   46.9080 C   0  0  0  0  0  0  0  0  0  0  0  0
   55.3680   24.7580   45.7270 N   0  0  0  0  0  0  0  0  0  0  0  0
   54.0780   24.0960   45.9920 C   0  0  0  0  0  0  0  0  0  0  0  0
   56.0060   24.1930   44.5140 C   0  0  0  0  0  0  0  0  0  0  0  0
   57.5330   24.3810   44.5420 C   0  0  0  0  0  0  0  0  0  0  0  0
   57.9970   25.8030   44.1560 C   0  0  0  0  0  0  0  0  0  0  0  0
   57.0990   26.8680   44.6390 N   0  0  0  0  0  0  0  0  0  0  0  0
   57.7930   27.8190   45.4840 C   0  0  0  0  0  0  0  0  0  0  0  0
   58.4540   27.3630   46.6350 C   0  0  0  0  0  0  0  0  0  0  0  0
   59.1120   28.2520   47.4750 C   0  0  0  0  0  0  0  0  0  0  0  0
   59.1300   29.6170   47.1880 C   0  0  0  0  0  0  0  0  0  0  0  0
   58.4820   30.1230   46.0360 C   0  0  0  0  0  0  0  0  0  0  0  0
   57.8110   29.2020   45.1830 C   0  0  0  0  0  0  0  0  0  0  0  0
   57.1770   29.6530   44.0690 N   0  0  0  0  0  0  0  0  0  0  0  0
   57.1460   30.9600   43.7230 C   0  0  0  0  0  0  0  0  0  0  0  0
   57.7830   31.9140   44.5180 C   0  0  0  0  0  0  0  0  0  0  0  0
   57.7500   33.2640   44.1430 C   0  0  0  0  0  0  0  0  0  0  0  0
   58.3820   34.2290   44.9230 C   0  0  0  0  0  0  0  0  0  0  0  0
   59.0460   33.8650   46.1020 C   0  0  0  0  0  0  0  0  0  0  0  0
   59.7720   34.9040   46.9220 C   0  0  0  0  0  0  0  0  0  0  0  0
   59.6750   36.1480   46.3220 F   0  0  0  0  0  0  0  0  0  0  0  0
   61.1140   34.5900   47.0460 F   0  0  0  0  0  0  0  0  0  0  0  0
   59.2070   34.9660   48.1820 F   0  0  0  0  0  0  0  0  0  0  0  0
   59.1060   32.5090   46.4670 C   0  0  0  0  0  0  0  0  0  0  0  0
   58.4670   31.5090   45.6930 C   0  0  0  0  0  0  0  0  0  0  0  0
   55.9533   23.6237   48.7949 H   0  0  0  0  0  0  0  0  0  0  0  0
   54.8580   23.0811   47.4787 H   0  0  0  0  0  0  0  0  0  0  0  0
   56.5816   22.5752   47.4787 H   0  0  0  0  0  0  0  0  0  0  0  0
   56.1362   25.5240   47.5403 H   0  0  0  0  0  0  0  0  0  0  0  0
   57.2896   24.5357   46.5644 H   0  0  0  0  0  0  0  0  0  0  0  0
   53.9230   24.0165   47.0781 H   0  0  0  0  0  0  0  0  0  0  0  0
   53.2641   24.6878   45.5478 H   0  0  0  0  0  0  0  0  0  0  0  0
   54.0842   23.0897   45.5478 H   0  0  0  0  0  0  0  0  0  0  0  0
   55.7789   23.1181   44.4581 H   0  0  0  0  0  0  0  0  0  0  0  0
   55.6085   24.7227   43.6357 H   0  0  0  0  0  0  0  0  0  0  0  0
   57.8897   24.1649   45.5599 H   0  0  0  0  0  0  0  0  0  0  0  0
   57.9525   23.6943   43.7921 H   0  0  0  0  0  0  0  0  0  0  0  0
   58.9967   25.9706   44.5832 H   0  0  0  0  0  0  0  0  0  0  0  0
   57.9977   25.8551   43.0572 H   0  0  0  0  0  0  0  0  0  0  0  0
   56.7270   27.3800   43.8060 H   0  0  0  0  0  0  0  0  0  0  0  0
   56.2650   26.4590   45.1150 H   0  0  0  0  0  0  0  0  0  0  0  0
   58.4509   26.2894   46.8745 H   0  0  0  0  0  0  0  0  0  0  0  0
   59.6231   27.8767   48.3739 H   0  0  0  0  0  0  0  0  0  0  0  0
   59.6538   30.3080   47.8648 H   0  0  0  0  0  0  0  0  0  0  0  0
   56.6164   31.2726   42.8110 H   0  0  0  0  0  0  0  0  0  0  0  0
   57.2212   33.5634   43.2261 H   0  0  0  0  0  0  0  0  0  0  0  0
   58.3598   35.2838   44.6116 H   0  0  0  0  0  0  0  0  0  0  0  0
   59.6602   32.2183   47.3717 H   0  0  0  0  0  0  0  0  0  0  0  0
  1  2  1  0
  2  3  1  0
  3  4  1  0
  3  5  1  0
  5  6  1  0
  6  7  1  0
  7  8  1  0
  8  9  1  0
  9 10  2  0
 10 11  1  0
 11 12  2  0
 12 13  1  0
 13 14  2  0
 14 15  1  0
 15 16  2  0
 16 17  1  0
 17 18  2  0
 18 19  1  0
 19 20  2  0
 20 21  1  0
 21 22  1  0
 21 23  1  0
 21 24  1  0
 20 25  1  0
 25 26  2  0
 14  9  1  0
 26 17  1  0
 26 13  1  0
  1 27  1  0
  1 28  1  0
  1 29  1  0
  2 30  1  0
  2 31  1  0
  4 32  1  0
  4 33  1  0
  4 34  1  0
  5 35  1  0
  5 36  1  0
  6 37  1  0
  6 38  1  0
  7 39  1  0
  7 40  1  0
  8 41  1  0
  8 42  1  0
 10 43  1  0
 11 44  1  0
 12 45  1  0
 16 46  1  0
 18 47  1  0
 19 48  1  0
 25 49  1  0
M  CHG  1   8   1
M  END
>  <UniqueID>  (20) 
20

>  <SMILES>  (20) 
CCN(C)CCC[NH2+]c1cccc2c1ncc1ccc(C(F)(F)F)cc12

>  <Energy>  (20) 
61.930358494938176

>  <Genealogy>  (20) 
CCN(C)CCC[NH2+]c1cccc2c1ncc1ccc(C(F)(F)F)cc12 (protonated)
CCN(C)CCC[NH2+]c1cccc2c1ncc1ccc(C(F)(F)F)cc12 (3D coordinates assigned)
CCN(C)CCC[NH2+]c1cccc2c1ncc1ccc(C(F)(F)F)cc12 (optimized conformer: 61.930358494938176 kcal/mol)

>  <smiles>  (20) 
CCN(C)CCCNc1cccc2c1ncc1ccc(C(F)(F)F)cc12

>  <score_type>  (20) 
oracle

>  <origin>  (20) 
adg

>  <m_score__min__energy>  (20) 
-6.2599999999999998

>  <m_primary>  (20) 
energy

$$$$
20:0
     RDKit          3D

 44 46  0  0  0  0  0  0  0  0999 V2000
   63.3910   32.5930   47.8080 C   0  0  0  0  0  0  0  0  0  0  0  0
   62.0230   32.4760   47.1400 C   0  0  0  0  0  0  0  0  0  0  0  0
   61.2130   31.4360   47.8140 N   0  0  0  0  0  0  0  0  0  0  0  0
   60.5520   30.5520   46.8280 C   0  0  0  0  0  0  0  0  0  0  0  0
   60.6550   29.0910   47.2670 C   0  0  0  0  0  0  0  0  0  0  0  0
   60.2300   32.0400   48.7420 C   0  0  0  0  0  0  0  0  0  0  0  0
   58.9110   31.2710   48.6750 C   0  0  0  0  0  0  0  0  0  0  0  0
   57.9550   32.0290   47.9370 O   0  0  0  0  0  0  0  0  0  0  0  0
   58.0940   32.4540   46.6050 C   0  0  0  0  0  0  0  0  0  0  0  0
   58.7220   33.6760   46.3730 C   0  0  0  0  0  0  0  0  0  0  0  0
   59.2000   34.5070   47.2680 O   0  0  0  0  0  0  0  0  0  0  0  0
   59.7050   35.5440   46.6240 C   0  0  0  0  0  0  0  0  0  0  0  0
   59.5520   35.3820   45.2520 C   0  0  0  0  0  0  0  0  0  0  0  0
   58.9150   34.1730   45.1160 C   0  0  0  0  0  0  0  0  0  0  0  0
   58.4930   33.4960   43.9790 C   0  0  0  0  0  0  0  0  0  0  0  0
   57.8420   32.2510   44.1480 C   0  0  0  0  0  0  0  0  0  0  0  0
   57.3730   31.4950   43.0480 C   0  0  0  0  0  0  0  0  0  0  0  0
   57.5390   31.9660   41.6260 C   0  0  0  0  0  0  0  0  0  0  0  0
   56.7350   30.2720   43.2930 C   0  0  0  0  0  0  0  0  0  0  0  0
   56.5790   29.8310   44.6060 C   0  0  0  0  0  0  0  0  0  0  0  0
   56.0140   28.7280   44.8330 O   0  0  0  0  0  0  0  0  0  0  0  0
   57.0260   30.5580   45.6210 O   0  0  0  0  0  0  0  0  0  0  0  0
   57.6400   31.7270   45.4670 C   0  0  0  0  0  0  0  0  0  0  0  0
   63.2674   32.5824   48.9010 H   0  0  0  0  0  0  0  0  0  0  0  0
   64.0221   31.7455   47.5021 H   0  0  0  0  0  0  0  0  0  0  0  0
   63.8690   33.5353   47.5021 H   0  0  0  0  0  0  0  0  0  0  0  0
   61.5020   33.4425   47.2068 H   0  0  0  0  0  0  0  0  0  0  0  0
   62.1610   32.1963   46.0851 H   0  0  0  0  0  0  0  0  0  0  0  0
   59.4913   30.8313   46.7449 H   0  0  0  0  0  0  0  0  0  0  0  0
   61.0513   30.6677   45.8547 H   0  0  0  0  0  0  0  0  0  0  0  0
   60.6588   29.0377   48.3657 H   0  0  0  0  0  0  0  0  0  0  0  0
   59.7942   28.5290   46.8756 H   0  0  0  0  0  0  0  0  0  0  0  0
   61.5861   28.6553   46.8756 H   0  0  0  0  0  0  0  0  0  0  0  0
   60.6243   31.9993   49.7681 H   0  0  0  0  0  0  0  0  0  0  0  0
   60.0542   33.0866   48.4525 H   0  0  0  0  0  0  0  0  0  0  0  0
   59.0754   30.3040   48.1771 H   0  0  0  0  0  0  0  0  0  0  0  0
   58.5347   31.0997   49.6943 H   0  0  0  0  0  0  0  0  0  0  0  0
   60.1791   36.4122   47.1051 H   0  0  0  0  0  0  0  0  0  0  0  0
   59.8700   36.0687   44.4537 H   0  0  0  0  0  0  0  0  0  0  0  0
   58.6600   33.9156   42.9760 H   0  0  0  0  0  0  0  0  0  0  0  0
   57.9046   33.0034   41.6237 H   0  0  0  0  0  0  0  0  0  0  0  0
   58.2638   31.3206   41.1082 H   0  0  0  0  0  0  0  0  0  0  0  0
   56.5697   31.9177   41.1082 H   0  0  0  0  0  0  0  0  0  0  0  0
   56.3602   29.6647   42.4559 H   0  0  0  0  0  0  0  0  0  0  0  0
  1  2  1  0
  2  3  1  0
  3  4  1  0
  4  5  1  0
  3  6  1  0
  6  7  1  0
  7  8  1  0
  8  9  1  0
  9 10  2  0
 10 11  1  0
 11 12  1  0
 12 13  2  0
 13 14  1  0
 14 15  2  0
 15 16  1  0
 16 17  1  0
 17 18  1  0
 17 19  2  0
 19 20  1  0
 20 21  2  0
 20 22  1  0
 22 23  1  0
 23  9  1  0
 14 10  1  0
 23 16  2  0
  1 24  1  0
  1 25  1  0
  1 26  1  0
  2 27  1  0
  2 28  1  0
  4 29  1  0
  4 30  1  0
  5 31  1  0
  5 32  1  0
  5 33  1  0
  6 34  1  0
  6 35  1  0
  7 36  1  0
  7 37  1  0
 12 38  1  0
 13 39  1  0
 15 40  1  0
 18 41  1  0
 18 42  1  0
 18 43  1  0
 19 44  1  0
M  END
>  <UniqueID>  (21) 
21

>  <SMILES>  (21) 
CCN(CC)CCOc1c2occc2cc2c(C)cc(=O)oc12

>  <Energy>  (21) 
82.50963747906162

>  <Genealogy>  (21) 
CCN(CC)CCOc1c2occc2cc2c(C)cc(=O)oc12 (3D coordinates assigned)
CCN(CC)CCOc1c2occc2cc2c(C)cc(=O)oc12 (optimized conformer: 82.50963747906162 kcal/mol)

>  <smiles>  (21) 
CCN(CC)CCOc1c2occc2cc2c(C)cc(=O)oc12

>  <score_type>  (21) 
oracle

>  <origin>  (21) 
adg

>  <m_score__min__energy>  (21) 
-7.0099999999999998

>  <m_primary>  (21) 
energy

$$$$
21:0
     RDKit          3D

 46 49  0  0  0  0  0  0  0  0999 V2000
   63.9560   32.0180   49.4300 C   0  0  0  0  0  0  0  0  0  0  0  0
   63.1880   32.5810   48.3270 N   0  0  0  0  0  0  0  0  0  0  0  0
   61.8480   32.5380   48.1940 C   0  0  0  0  0  0  0  0  0  0  0  0
   61.5190   33.0980   46.9700 C   0  0  0  0  0  0  0  0  0  0  0  0
   60.1710   33.2420   46.3810 C   0  0  0  0  0  0  0  0  0  0  0  0
   59.6460   34.5140   46.0460 C   0  0  0  0  0  0  0  0  0  0  0  0
   60.3770   35.6400   46.2360 F   0  0  0  0  0  0  0  0  0  0  0  0
   58.3600   34.6200   45.4710 C   0  0  0  0  0  0  0  0  0  0  0  0
   57.6070   33.5060   45.2390 N   0  0  0  0  0  0  0  0  0  0  0  0
   58.1100   32.2900   45.5620 C   0  0  0  0  0  0  0  0  0  0  0  0
   57.4730   31.1180   45.4270 N   0  0  0  0  0  0  0  0  0  0  0  0
   58.3280   30.1890   45.9200 C   0  0  0  0  0  0  0  0  0  0  0  0
   58.0230   28.7150   45.9920 C   0  0  0  0  0  0  0  0  0  0  0  0
   57.9440   28.1080   44.5850 C   0  0  0  0  0  0  0  0  0  0  0  0
   57.5720   26.6130   44.6510 C   0  0  0  0  0  0  0  0  0  0  0  0
   58.1920   25.8790   45.7890 N   0  0  0  0  0  0  0  0  0  0  0  0
   57.2180   25.5120   46.8390 C   0  0  0  0  0  0  0  0  0  0  0  0
   55.8300   25.5150   46.2800 C   0  0  0  0  0  0  0  0  0  0  0  0
   55.2410   24.4270   46.0460 O   0  0  0  0  0  0  0  0  0  0  0  0
   55.1920   26.7180   46.0020 O   0  0  0  0  0  0  0  0  0  0  0  0
   59.3810   26.5600   46.3450 C   0  0  0  0  0  0  0  0  0  0  0  0
   59.0570   27.9730   46.8700 C   0  0  0  0  0  0  0  0  0  0  0  0
   59.5060   30.7830   46.3660 C   0  0  0  0  0  0  0  0  0  0  0  0
   59.3510   32.1350   46.1200 C   0  0  0  0  0  0  0  0  0  0  0  0
   62.7300   33.4480   46.3920 C   0  0  0  0  0  0  0  0  0  0  0  0
   63.7200   33.1160   47.2410 N   0  0  0  0  0  0  0  0  0  0  0  0
   63.5161   32.3405   50.3853 H   0  0  0  0  0  0  0  0  0  0  0  0
   63.9348   30.9199   49.3687 H   0  0  0  0  0  0  0  0  0  0  0  0
   64.9968   32.3686   49.3687 H   0  0  0  0  0  0  0  0  0  0  0  0
   61.1388   32.1295   48.9289 H   0  0  0  0  0  0  0  0  0  0  0  0
   57.9615   35.6109   45.2076 H   0  0  0  0  0  0  0  0  0  0  0  0
   56.5160   30.9620   45.0390 H   0  0  0  0  0  0  0  0  0  0  0  0
   57.0392   28.5918   46.4684 H   0  0  0  0  0  0  0  0  0  0  0  0
   57.1793   28.6441   44.0038 H   0  0  0  0  0  0  0  0  0  0  0  0
   58.9290   28.2043   44.1048 H   0  0  0  0  0  0  0  0  0  0  0  0
   56.4788   26.5334   44.7438 H   0  0  0  0  0  0  0  0  0  0  0  0
   57.9565   26.1508   43.7299 H   0  0  0  0  0  0  0  0  0  0  0  0
   57.4546   24.5071   47.2189 H   0  0  0  0  0  0  0  0  0  0  0  0
   57.2775   26.2460   47.6562 H   0  0  0  0  0  0  0  0  0  0  0  0
   59.7775   25.9570   47.1751 H   0  0  0  0  0  0  0  0  0  0  0  0
   60.1176   26.6639   45.5347 H   0  0  0  0  0  0  0  0  0  0  0  0
   58.6540   27.8854   47.8897 H   0  0  0  0  0  0  0  0  0  0  0  0
   59.9893   28.5564   46.8489 H   0  0  0  0  0  0  0  0  0  0  0  0
   60.3753   30.2829   46.8180 H   0  0  0  0  0  0  0  0  0  0  0  0
   62.8595   33.9178   45.4058 H   0  0  0  0  0  0  0  0  0  0  0  0
   64.7440   33.2440   47.0730 H   0  0  0  0  0  0  0  0  0  0  0  0
  1  2  1  0
  2  3  1  0
  3  4  2  0
  4  5  1  0
  5  6  2  0
  6  7  1  0
  6  8  1  0
  8  9  2  0
  9 10  1  0
 10 11  1  0
 11 12  1  0
 12 13  1  0
 13 14  1  0
 14 15  1  0
 15 16  1  0
 16 17  1  0
 17 18  1  0
 18 19  2  0
 18 20  1  0
 16 21  1  0
 21 22  1  0
 12 23  2  0
 23 24  1  0
  4 25  1  0
 25 26  2  0
 26  2  1  0
 24  5  1  0
 24 10  2  0
 22 13  1  0
  1 27  1  0
  1 28  1  0
  1 29  1  0
  3 30  1  0
  8 31  1  0
 11 32  1  0
 13 33  1  0
 14 34  1  0
 14 35  1  0
 15 36  1  0
 15 37  1  0
 17 38  1  0
 17 39  1  0
 21 40  1  0
 21 41  1  0
 22 42  1  0
 22 43  1  0
 23 44  1  0
 25 45  1  0
 26 46  1  0
M  CHG  2  20  -1  26   1
M  END
>  <UniqueID>  (22) 
22

>  <SMILES>  (22) 
Cn1cc(-c2c(F)cnc3[nH]c(C4CCN(CC(=O)[O-])CC4)cc23)c[nH+]1

>  <Energy>  (22) 
125.38836134175519

>  <Genealogy>  (22) 
Cn1cc(-c2c(F)cnc3[nH]c(C4CCN(CC(=O)[O-])CC4)cc23)c[nH+]1 (protonated)
Cn1cc(-c2c(F)cnc3[nH]c(C4CCN(CC(=O)[O-])CC4)cc23)c[nH+]1 (3D coordinates assigned)
Cn1cc(-c2c(F)cnc3[nH]c(C4CCN(CC(=O)[O-])CC4)cc23)c[nH+]1 (nonaromatic ring conformer: 125.38836134175519 kcal/mol)

>  <smiles>  (22) 
Cn1cc(-c2c(F)cnc3[nH]c(C4CCN(CC(=O)O)CC4)cc23)cn1

>  <score_type>  (22) 
oracle

>  <origin>  (22) 
adg

>  <m_score__min__energy>  (22) 
-9.9900000000000002

>  <m_primary>  (22) 
energy

$$$$
22:0
     RDKit          3D

 33 35  0  0  0  0  0  0  0  0999 V2000
   59.7750   35.3390   46.0010 C   0  0  0  0  0  0  0  0  0  0  0  0
   59.2990   33.9880   46.2940 N   0  0  0  0  0  0  0  0  0  0  0  0
   59.4790   33.2830   47.4450 C   0  0  0  0  0  0  0  0  0  0  0  0
   60.2450   33.7630   48.6120 C   0  0  0  0  0  0  0  0  0  0  0  0
   59.6200   34.2780   49.5790 O   0  0  0  0  0  0  0  0  0  0  0  0
   61.6800   33.6600   48.6680 N   0  0  0  0  0  0  0  0  0  0  0  0
   62.4610   32.7350   47.8620 C   0  0  0  0  0  0  0  0  0  0  0  0
   63.9050   32.9120   48.3120 C   0  0  0  0  0  0  0  0  0  0  0  0
   63.8440   33.6490   49.6470 C   0  0  0  0  0  0  0  0  0  0  0  0
   62.4700   34.3030   49.7040 C   0  0  0  0  0  0  0  0  0  0  0  0
   58.9330   32.0070   47.3310 C   0  0  0  0  0  0  0  0  0  0  0  0
   58.4100   31.9500   46.0570 C   0  0  0  0  0  0  0  0  0  0  0  0
   57.7730   30.9030   45.3950 C   0  0  0  0  0  0  0  0  0  0  0  0
   57.3690   31.1160   44.0650 C   0  0  0  0  0  0  0  0  0  0  0  0
   56.4890   29.7190   43.1050 Br  0  0  0  0  0  0  0  0  0  0  0  0
   57.6180   32.3550   43.4340 C   0  0  0  0  0  0  0  0  0  0  0  0
   58.2710   33.3900   44.1260 C   0  0  0  0  0  0  0  0  0  0  0  0
   58.6530   33.1560   45.4510 C   0  0  0  0  0  0  0  0  0  0  0  0
   59.9634   35.8738   46.9436 H   0  0  0  0  0  0  0  0  0  0  0  0
   60.7069   35.2813   45.4195 H   0  0  0  0  0  0  0  0  0  0  0  0
   59.0127   35.8783   45.4195 H   0  0  0  0  0  0  0  0  0  0  0  0
   62.1293   31.7007   48.0360 H   0  0  0  0  0  0  0  0  0  0  0  0
   62.3439   32.9356   46.7868 H   0  0  0  0  0  0  0  0  0  0  0  0
   64.3885   31.9321   48.4385 H   0  0  0  0  0  0  0  0  0  0  0  0
   64.4919   33.4726   47.5695 H   0  0  0  0  0  0  0  0  0  0  0  0
   63.9650   32.9410   50.4801 H   0  0  0  0  0  0  0  0  0  0  0  0
   64.6485   34.3943   49.7325 H   0  0  0  0  0  0  0  0  0  0  0  0
   62.0105   34.1427   50.6905 H   0  0  0  0  0  0  0  0  0  0  0  0
   62.5332   35.3900   49.5477 H   0  0  0  0  0  0  0  0  0  0  0  0
   58.9216   31.2146   48.0939 H   0  0  0  0  0  0  0  0  0  0  0  0
   57.5919   29.9408   45.8963 H   0  0  0  0  0  0  0  0  0  0  0  0
   57.2985   32.5113   42.3931 H   0  0  0  0  0  0  0  0  0  0  0  0
   58.4755   34.3553   43.6398 H   0  0  0  0  0  0  0  0  0  0  0  0
  1  2  1  0
  2  3  1  0
  3  4  1  0
  4  5  2  0
  4  6  1  0
  6  7  1  0
  7  8  1  0
  8  9  1  0
  9 10  1  0
  3 11  2  0
 11 12  1  0
 12 13  2  0
 13 14  1  0
 14 15  1  0
 14 16  2  0
 16 17  1  0
 17 18  2  0
 18  2  1  0
 10  6  1  0
 18 12  1  0
  1 19  1  0
  1 20  1  0
  1 21  1  0
  7 22  1  0
  7 23  1  0
  8 24  1  0
  8 25  1  0
  9 26  1  0
  9 27  1  0
 10 28  1  0
 10 29  1  0
 11 30  1  0
 13 31  1  0
 16 32  1  0
 17 33  1  0
M  END
>  <UniqueID>  (23) 
23

>  <SMILES>  (23) 
Cn1c(C(=O)N2CCCC2)cc2cc(Br)ccc21

>  <Energy>  (23) 
71.47356701019729

>  <Genealogy>  (23) 
Cn1c(C(=O)N2CCCC2)cc2cc(Br)ccc21 (3D coordinates assigned)
Cn1c(C(=O)N2CCCC2)cc2cc(Br)ccc21 (nonaromatic ring conformer: 71.47356701019729 kcal/mol)

>  <smiles>  (23) 
Cn1c(C(=O)N2CCCC2)cc2cc(Br)ccc21

>  <score_type>  (23) 
oracle

>  <origin>  (23) 
adg

>  <m_score__min__energy>  (23) 
-7.1699999999999999

>  <m_primary>  (23) 
energy

$$$$
23:0
     RDKit          3D

 37 39  0  0  0  0  0  0  0  0999 V2000
   64.8400   32.9870   49.4200 C   0  0  0  0  0  0  0  0  0  0  0  0
   63.9790   33.6140   48.4750 O   0  0  0  0  0  0  0  0  0  0  0  0
   62.8560   33.0010   47.9000 C   0  0  0  0  0  0  0  0  0  0  0  0
   62.7660   31.5910   47.7270 C   0  0  0  0  0  0  0  0  0  0  0  0
   61.6290   31.0100   47.1400 C   0  0  0  0  0  0  0  0  0  0  0  0
   60.5980   31.8570   46.7450 C   0  0  0  0  0  0  0  0  0  0  0  0
   59.3970   31.6010   46.1260 C   0  0  0  0  0  0  0  0  0  0  0  0
   58.8010   30.4290   45.6810 C   0  0  0  0  0  0  0  0  0  0  0  0
   57.5500   30.5530   45.0400 C   0  0  0  0  0  0  0  0  0  0  0  0
   56.8090   29.3460   44.5150 C   0  0  0  0  0  0  0  0  0  0  0  0
   57.7810   28.2250   44.1280 C   0  0  0  0  0  0  0  0  0  0  0  0
   55.9030   29.7230   43.3370 C   0  0  0  0  0  0  0  0  0  0  0  0
   56.9960   31.7990   44.8780 N   0  0  0  0  0  0  0  0  0  0  0  0
   57.5960   32.9140   45.3150 N   0  0  0  0  0  0  0  0  0  0  0  0
   58.7940   32.8170   45.9460 C   0  0  0  0  0  0  0  0  0  0  0  0
   59.5450   33.8330   46.4370 N   0  0  0  0  0  0  0  0  0  0  0  0
   59.2690   35.2660   46.3510 C   0  0  0  0  0  0  0  0  0  0  0  0
   60.6650   33.2270   46.9110 C   0  0  0  0  0  0  0  0  0  0  0  0
   61.7930   33.8260   47.4820 C   0  0  0  0  0  0  0  0  0  0  0  0
   64.5053   33.2307   50.4391 H   0  0  0  0  0  0  0  0  0  0  0  0
   64.8112   31.8969   49.2755 H   0  0  0  0  0  0  0  0  0  0  0  0
   65.8686   33.3490   49.2755 H   0  0  0  0  0  0  0  0  0  0  0  0
   63.5960   30.9487   48.0566 H   0  0  0  0  0  0  0  0  0  0  0  0
   61.5564   29.9217   46.9975 H   0  0  0  0  0  0  0  0  0  0  0  0
   59.2814   29.4495   45.8215 H   0  0  0  0  0  0  0  0  0  0  0  0
   56.1672   28.9684   45.3247 H   0  0  0  0  0  0  0  0  0  0  0  0
   58.1849   27.7592   45.0390 H   0  0  0  0  0  0  0  0  0  0  0  0
   57.2491   27.4674   43.5337 H   0  0  0  0  0  0  0  0  0  0  0  0
   58.6063   28.6442   43.5337 H   0  0  0  0  0  0  0  0  0  0  0  0
   54.9506   30.1193   43.7191 H   0  0  0  0  0  0  0  0  0  0  0  0
   56.3992   30.4893   42.7234 H   0  0  0  0  0  0  0  0  0  0  0  0
   55.7091   28.8309   42.7234 H   0  0  0  0  0  0  0  0  0  0  0  0
   57.1380   33.8380   45.1590 H   0  0  0  0  0  0  0  0  0  0  0  0
   59.1882   35.6853   47.3647 H   0  0  0  0  0  0  0  0  0  0  0  0
   60.0875   35.7653   45.8118 H   0  0  0  0  0  0  0  0  0  0  0  0
   58.3236   35.4256   45.8118 H   0  0  0  0  0  0  0  0  0  0  0  0
   61.8489   34.9180   47.6021 H   0  0  0  0  0  0  0  0  0  0  0  0
  1  2  1  0
  2  3  1  0
  3  4  2  0
  4  5  1  0
  5  6  2  0
  6  7  1  0
  7  8  2  0
  8  9  1  0
  9 10  1  0
 10 11  1  0
 10 12  1  0
  9 13  2  0
 13 14  1  0
 14 15  2  0
 15 16  1  0
 16 17  1  0
 16 18  1  0
 18 19  2  0
 19  3  1  0
 18  6  1  0
 15  7  1  0
  1 20  1  0
  1 21  1  0
  1 22  1  0
  4 23  1  0
  5 24  1  0
  8 25  1  0
 10 26  1  0
 11 27  1  0
 11 28  1  0
 11 29  1  0
 12 30  1  0
 12 31  1  0
 12 32  1  0
 14 33  1  0
 17 34  1  0
 17 35  1  0
 17 36  1  0
 19 37  1  0
M  CHG  1  14   1
M  END
>  <UniqueID>  (24) 
24

>  <SMILES>  (24) 
COc1ccc2c3cc(C(C)C)n[nH+]c3n(C)c2c1

>  <Energy>  (24) 
77.82757564853443

>  <Genealogy>  (24) 
COc1ccc2c3cc(C(C)C)n[nH+]c3n(C)c2c1 (protonated)
COc1ccc2c3cc(C(C)C)n[nH+]c3n(C)c2c1 (3D coordinates assigned)
COc1ccc2c3cc(C(C)C)n[nH+]c3n(C)c2c1 (optimized conformer: 77.82757564853443 kcal/mol)

>  <smiles>  (24) 
COc1ccc2c3cc(C(C)C)nnc3n(C)c2c1

>  <score_type>  (24) 
oracle

>  <origin>  (24) 
adg

>  <m_score__min__energy>  (24) 
-5.4299999999999997

>  <m_primary>  (24) 
energy

$$$$
24:0
     RDKit          3D

 69 71  0  0  0  0  0  0  0  0999 V2000
   58.8900   34.5360   53.0620 C   0  0  0  0  0  0  0  0  0  0  0  0
   58.2900   33.2330   52.5260 C   0  0  0  0  0  0  0  0  0  0  0  0
   59.0170   32.7260   51.3320 N   0  0  1  0  0  0  0  0  0  0  0  0
   58.1530   31.8820   50.4800 C   0  0  0  0  0  0  0  0  0  0  0  0
   59.6570   33.8260   50.5610 C   0  0  0  0  0  0  0  0  0  0  0  0
   61.0320   33.4830   49.9530 C   0  0  0  0  0  0  0  0  0  0  0  0
   61.3570   32.1370   50.2360 O   0  0  0  0  0  0  0  0  0  0  0  0
   62.3670   31.6680   49.3620 C   0  0  0  0  0  0  0  0  0  0  0  0
   61.7720   31.2150   48.0250 C   0  0  0  0  0  0  0  0  0  0  0  0
   60.3100   31.1240   48.0940 N   0  0  0  0  0  0  0  0  0  0  0  0
   59.4930   31.0760   46.9080 C   0  0  0  0  0  0  0  0  0  0  0  0
   59.1110   32.2690   46.2700 C   0  0  0  0  0  0  0  0  0  0  0  0
   59.4390   33.5240   46.8290 C   0  0  0  0  0  0  0  0  0  0  0  0
   59.1300   34.7050   46.1600 C   0  0  0  0  0  0  0  0  0  0  0  0
   58.5050   34.6580   44.9210 C   0  0  0  0  0  0  0  0  0  0  0  0
   58.1500   33.4320   44.3600 C   0  0  0  0  0  0  0  0  0  0  0  0
   58.4030   32.2110   45.0400 C   0  0  0  0  0  0  0  0  0  0  0  0
   57.9950   30.9930   44.5300 N   0  0  0  0  0  0  0  0  0  0  0  0
   57.0330   30.9480   43.4040 C   0  0  0  0  0  0  0  0  0  0  0  0
   58.4370   29.8140   45.1030 C   0  0  0  0  0  0  0  0  0  0  0  0
   58.2210   28.5540   44.4870 C   0  0  0  0  0  0  0  0  0  0  0  0
   58.5710   27.3530   45.1330 C   0  0  0  0  0  0  0  0  0  0  0  0
   58.3480   26.0860   44.5650 O   0  0  0  0  0  0  0  0  0  0  0  0
   57.3580   25.1460   44.9900 C   0  0  0  0  0  0  0  0  0  0  0  0
   56.2530   25.8450   45.7950 C   0  0  0  0  0  0  0  0  0  0  0  0
   55.2790   24.8630   46.3190 N   0  0  0  0  0  0  0  0  0  0  0  0
   54.6450   24.1350   45.2080 C   0  0  0  0  0  0  0  0  0  0  0  0
   55.9340   23.9000   47.2230 C   0  0  0  0  0  0  0  0  0  0  0  0
   59.1520   27.4060   46.3960 C   0  0  0  0  0  0  0  0  0  0  0  0
   59.4380   28.6290   46.9920 C   0  0  0  0  0  0  0  0  0  0  0  0
   59.1350   29.8410   46.3380 C   0  0  0  0  0  0  0  0  0  0  0  0
   58.8818   34.5183   54.1618 H   0  0  0  0  0  0  0  0  0  0  0  0
   59.9254   34.6372   52.7046 H   0  0  0  0  0  0  0  0  0  0  0  0
   58.2938   35.3885   52.7046 H   0  0  0  0  0  0  0  0  0  0  0  0
   58.3353   32.4707   53.3178 H   0  0  0  0  0  0  0  0  0  0  0  0
   57.2521   33.4391   52.2256 H   0  0  0  0  0  0  0  0  0  0  0  0
   59.8050   32.1220   51.6650 H   0  0  0  0  0  0  0  0  0  0  0  0
   57.5110   31.2549   51.1161 H   0  0  0  0  0  0  0  0  0  0  0  0
   57.5249   32.5240   49.8449 H   0  0  0  0  0  0  0  0  0  0  0  0
   58.7801   31.2390   49.8449 H   0  0  0  0  0  0  0  0  0  0  0  0
   58.9808   34.1048   49.7394 H   0  0  0  0  0  0  0  0  0  0  0  0
   59.8333   34.6412   51.2782 H   0  0  0  0  0  0  0  0  0  0  0  0
   60.9964   33.6290   48.8633 H   0  0  0  0  0  0  0  0  0  0  0  0
   61.7973   34.1415   50.3897 H   0  0  0  0  0  0  0  0  0  0  0  0
   63.0880   32.4782   49.1784 H   0  0  0  0  0  0  0  0  0  0  0  0
   62.8646   30.8073   49.8327 H   0  0  0  0  0  0  0  0  0  0  0  0
   62.0492   31.9402   47.2458 H   0  0  0  0  0  0  0  0  0  0  0  0
   62.1704   30.2173   47.7888 H   0  0  0  0  0  0  0  0  0  0  0  0
   59.8430   31.2170   49.0240 H   0  0  0  0  0  0  0  0  0  0  0  0
   59.9447   33.5687   47.8048 H   0  0  0  0  0  0  0  0  0  0  0  0
   59.3810   35.6755   46.6129 H   0  0  0  0  0  0  0  0  0  0  0  0
   58.2892   35.5913   44.3802 H   0  0  0  0  0  0  0  0  0  0  0  0
   57.6652   33.4100   43.3728 H   0  0  0  0  0  0  0  0  0  0  0  0
   56.0077   30.9000   43.7994 H   0  0  0  0  0  0  0  0  0  0  0  0
   57.1466   31.8524   42.7883 H   0  0  0  0  0  0  0  0  0  0  0  0
   57.2305   30.0581   42.7883 H   0  0  0  0  0  0  0  0  0  0  0  0
   57.7708   28.5148   43.4841 H   0  0  0  0  0  0  0  0  0  0  0  0
   56.9121   24.6671   44.1058 H   0  0  0  0  0  0  0  0  0  0  0  0
   57.8390   24.3928   45.6314 H   0  0  0  0  0  0  0  0  0  0  0  0
   56.7086   26.3851   46.6380 H   0  0  0  0  0  0  0  0  0  0  0  0
   55.7238   26.5443   45.1310 H   0  0  0  0  0  0  0  0  0  0  0  0
   53.9729   23.3633   45.6115 H   0  0  0  0  0  0  0  0  0  0  0  0
   54.0668   24.8387   44.5911 H   0  0  0  0  0  0  0  0  0  0  0  0
   55.4214   23.6590   44.5911 H   0  0  0  0  0  0  0  0  0  0  0  0
   55.7393   24.1863   48.2671 H   0  0  0  0  0  0  0  0  0  0  0  0
   55.5331   22.8925   47.0382 H   0  0  0  0  0  0  0  0  0  0  0  0
   57.0184   23.9027   47.0382 H   0  0  0  0  0  0  0  0  0  0  0  0
   59.3871   26.4721   46.9276 H   0  0  0  0  0  0  0  0  0  0  0  0
   59.9068   28.6515   47.9868 H   0  0  0  0  0  0  0  0  0  0  0  0
  1  2  1  0
  2  3  1  0
  3  4  1  0
  3  5  1  0
  5  6  1  0
  6  7  1  0
  7  8  1  0
  8  9  1  0
  9 10  1  0
 10 11  1  0
 11 12  2  0
 12 13  1  0
 13 14  2  0
 14 15  1  0
 15 16  2  0
 16 17  1  0
 17 18  2  0
 18 19  1  0
 18 20  1  0
 20 21  2  0
 21 22  1  0
 22 23  1  0
 23 24  1  0
 24 25  1  0
 25 26  1  0
 26 27  1  0
 26 28  1  0
 22 29  2  0
 29 30  1  0
 30 31  2  0
 31 11  1  0
 17 12  1  0
 31 20  1  0
  1 32  1  0
  1 33  1  0
  1 34  1  0
  2 35  1  0
  2 36  1  0
  3 37  1  1
  4 38  1  0
  4 39  1  0
  4 40  1  0
  5 41  1  0
  5 42  1  0
  6 43  1  0
  6 44  1  0
  8 45  1  0
  8 46  1  0
  9 47  1  0
  9 48  1  0
 10 49  1  0
 13 50  1  0
 14 51  1  0
 15 52  1  0
 16 53  1  0
 19 54  1  0
 19 55  1  0
 19 56  1  0
 21 57  1  0
 24 58  1  0
 24 59  1  0
 25 60  1  0
 25 61  1  0
 27 62  1  0
 27 63  1  0
 27 64  1  0
 28 65  1  0
 28 66  1  0
 28 67  1  0
 29 68  1  0
 30 69  1  0
M  CHG  2   3   1  18   1
M  END
>  <UniqueID>  (25) 
25

>  <SMILES>  (25) 
CC[N@@H+](C)CCOCCNc1c2ccccc2[n+](C)c2cc(OCCN(C)C)ccc12

>  <Energy>  (25) 
97.4524364462682

>  <Genealogy>  (25) 
CC[NH+](C)CCOCCNc1c2ccccc2[n+](C)c2cc(OCCN(C)C)ccc12 (protonated)
CC[N@@H+](C)CCOCCNc1c2ccccc2[n+](C)c2cc(OCCN(C)C)ccc12 (chirality)
CC[N@@H+](C)CCOCCNc1c2ccccc2[n+](C)c2cc(OCCN(C)C)ccc12 (3D coordinates assigned)
CC[N@@H+](C)CCOCCNc1c2ccccc2[n+](C)c2cc(OCCN(C)C)ccc12 (optimized conformer: 97.4524364462682 kcal/mol)

>  <smiles>  (25) 
CCN(C)CCOCCNc1c2ccccc2[n+](C)c2cc(OCCN(C)C)ccc12

>  <score_type>  (25) 
oracle

>  <origin>  (25) 
adg

>  <m_score__min__energy>  (25) 
-4.3300000000000001

>  <m_primary>  (25) 
energy

$$$$
25:0
     RDKit          3D

 67 69  0  0  0  0  0  0  0  0999 V2000
   57.0820   33.8620   45.6640 C   0  0  0  0  0  0  0  0  0  0  0  0
   58.3260   32.9670   45.6080 C   0  0  0  0  0  0  0  0  0  0  0  0
   59.3630   33.4460   46.6340 C   0  0  0  0  0  0  0  0  0  0  0  0
   57.9350   31.4970   45.8600 C   0  0  0  0  0  0  0  0  0  0  0  0
   56.9610   31.0160   44.8460 N   0  0  0  0  0  0  0  0  0  0  0  0
   57.4250   31.3900   43.4950 C   0  0  0  0  0  0  0  0  0  0  0  0
   56.7820   29.5470   44.9650 C   0  0  0  0  0  0  0  0  0  0  0  0
   57.7500   28.7300   44.0860 C   0  0  0  0  0  0  0  0  0  0  0  0
   59.2040   28.7220   44.5970 C   0  0  0  0  0  0  0  0  0  0  0  0
   59.2960   28.5990   46.0680 N   0  0  0  0  0  0  0  0  0  0  0  0
   60.1200   27.4590   46.4910 C   0  0  0  0  0  0  0  0  0  0  0  0
   60.1340   27.3470   48.0230 C   0  0  0  0  0  0  0  0  0  0  0  0
   60.7270   28.5990   48.6900 C   0  0  0  0  0  0  0  0  0  0  0  0
   60.2420   29.8400   48.0600 N   0  0  0  0  0  0  0  0  0  0  0  0
   60.5540   30.9930   48.8900 C   0  0  0  0  0  0  0  0  0  0  0  0
   61.6760   31.8120   48.5930 C   0  0  0  0  0  0  0  0  0  0  0  0
   62.4270   31.6440   47.4030 C   0  0  0  0  0  0  0  0  0  0  0  0
   63.5200   32.4580   47.1220 C   0  0  0  0  0  0  0  0  0  0  0  0
   63.8710   33.4800   47.9940 C   0  0  0  0  0  0  0  0  0  0  0  0
   63.1440   33.6780   49.1650 C   0  0  0  0  0  0  0  0  0  0  0  0
   62.0540   32.8370   49.5060 C   0  0  0  0  0  0  0  0  0  0  0  0
   61.3590   33.0070   50.6860 N   0  0  0  0  0  0  0  0  0  0  0  0
   61.9340   33.8350   51.7710 C   0  0  0  0  0  0  0  0  0  0  0  0
   60.1350   32.3960   50.8590 C   0  0  0  0  0  0  0  0  0  0  0  0
   59.2540   32.7940   51.8990 C   0  0  0  0  0  0  0  0  0  0  0  0
   58.0360   32.1510   52.1000 C   0  0  0  0  0  0  0  0  0  0  0  0
   57.6540   31.1100   51.2660 C   0  0  0  0  0  0  0  0  0  0  0  0
   58.4760   30.7180   50.2140 C   0  0  0  0  0  0  0  0  0  0  0  0
   59.7210   31.3550   49.9810 C   0  0  0  0  0  0  0  0  0  0  0  0
   56.8153   34.0539   46.7138 H   0  0  0  0  0  0  0  0  0  0  0  0
   57.2937   34.8161   45.1592 H   0  0  0  0  0  0  0  0  0  0  0  0
   56.2447   33.3580   45.1592 H   0  0  0  0  0  0  0  0  0  0  0  0
   58.7753   33.0337   44.6062 H   0  0  0  0  0  0  0  0  0  0  0  0
   58.9815   33.2698   47.6506 H   0  0  0  0  0  0  0  0  0  0  0  0
   60.3018   32.8903   46.4932 H   0  0  0  0  0  0  0  0  0  0  0  0
   59.5486   34.5211   46.4932 H   0  0  0  0  0  0  0  0  0  0  0  0
   58.8393   30.8725   45.8127 H   0  0  0  0  0  0  0  0  0  0  0  0
   57.4657   31.4278   46.8525 H   0  0  0  0  0  0  0  0  0  0  0  0
   58.2790   32.0783   43.5781 H   0  0  0  0  0  0  0  0  0  0  0  0
   57.7345   30.4859   42.9502 H   0  0  0  0  0  0  0  0  0  0  0  0
   56.6072   31.8844   42.9502 H   0  0  0  0  0  0  0  0  0  0  0  0
   56.9423   29.2618   46.0152 H   0  0  0  0  0  0  0  0  0  0  0  0
   55.7634   29.3188   44.6181 H   0  0  0  0  0  0  0  0  0  0  0  0
   57.3905   27.6911   44.0487 H   0  0  0  0  0  0  0  0  0  0  0  0
   57.7628   29.2090   43.0958 H   0  0  0  0  0  0  0  0  0  0  0  0
   59.7321   27.8722   44.1399 H   0  0  0  0  0  0  0  0  0  0  0  0
   59.6578   29.6841   44.3170 H   0  0  0  0  0  0  0  0  0  0  0  0
   58.3470   28.4980   46.4960 H   0  0  0  0  0  0  0  0  0  0  0  0
   59.7055   26.5340   46.0638 H   0  0  0  0  0  0  0  0  0  0  0  0
   61.1496   27.6117   46.1352 H   0  0  0  0  0  0  0  0  0  0  0  0
   59.1017   27.2114   48.3780 H   0  0  0  0  0  0  0  0  0  0  0  0
   60.7657   26.4881   48.2937 H   0  0  0  0  0  0  0  0  0  0  0  0
   60.4418   28.6047   49.7524 H   0  0  0  0  0  0  0  0  0  0  0  0
   61.8201   28.5621   48.5727 H   0  0  0  0  0  0  0  0  0  0  0  0
   60.6500   29.9420   47.1050 H   0  0  0  0  0  0  0  0  0  0  0  0
   59.2160   29.7970   47.8760 H   0  0  0  0  0  0  0  0  0  0  0  0
   62.1411   30.8570   46.6896 H   0  0  0  0  0  0  0  0  0  0  0  0
   64.1073   32.2915   46.2070 H   0  0  0  0  0  0  0  0  0  0  0  0
   64.7240   34.1337   47.7596 H   0  0  0  0  0  0  0  0  0  0  0  0
   63.4204   34.5026   49.8386 H   0  0  0  0  0  0  0  0  0  0  0  0
   61.6430   33.4159   52.7455 H   0  0  0  0  0  0  0  0  0  0  0  0
   63.0308   33.8397   51.6867 H   0  0  0  0  0  0  0  0  0  0  0  0
   61.5553   34.8643   51.6867 H   0  0  0  0  0  0  0  0  0  0  0  0
   59.5396   33.6266   52.5586 H   0  0  0  0  0  0  0  0  0  0  0  0
   57.3758   32.4684   52.9206 H   0  0  0  0  0  0  0  0  0  0  0  0
   56.6983   30.5930   51.4370 H   0  0  0  0  0  0  0  0  0  0  0  0
   58.1546   29.9003   49.5521 H   0  0  0  0  0  0  0  0  0  0  0  0
  1  2  1  0
  2  3  1  0
  2  4  1  0
  4  5  1  0
  5  6  1  0
  5  7  1  0
  7  8  1  0
  8  9  1  0
  9 10  1  0
 10 11  1  0
 11 12  1  0
 12 13  1  0
 13 14  1  0
 14 15  1  0
 15 16  2  0
 16 17  1  0
 17 18  2  0
 18 19  1  0
 19 20  2  0
 20 21  1  0
 21 22  2  0
 22 23  1  0
 22 24  1  0
 24 25  2  0
 25 26  1  0
 26 27  2  0
 27 28  1  0
 28 29  2  0
 29 15  1  0
 21 16  1  0
 29 24  1  0
  1 30  1  0
  1 31  1  0
  1 32  1  0
  2 33  1  0
  3 34  1  0
  3 35  1  0
  3 36  1  0
  4 37  1  0
  4 38  1  0
  6 39  1  0
  6 40  1  0
  6 41  1  0
  7 42  1  0
  7 43  1  0
  8 44  1  0
  8 45  1  0
  9 46  1  0
  9 47  1  0
 10 48  1  0
 11 49  1  0
 11 50  1  0
 12 51  1  0
 12 52  1  0
 13 53  1  0
 13 54  1  0
 14 55  1  0
 14 56  1  0
 17 57  1  0
 18 58  1  0
 19 59  1  0
 20 60  1  0
 23 61  1  0
 23 62  1  0
 23 63  1  0
 25 64  1  0
 26 65  1  0
 27 66  1  0
 28 67  1  0
M  CHG  2  14   1  22   1
M  END
>  <UniqueID>  (26) 
26

>  <SMILES>  (26) 
CC(C)CN(C)CCCNCCC[NH2+]c1c2ccccc2[n+](C)c2ccccc12

>  <Energy>  (26) 
86.26670662298599

>  <Genealogy>  (26) 
CC(C)CN(C)CCCNCCC[NH2+]c1c2ccccc2[n+](C)c2ccccc12 (protonated)
CC(C)CN(C)CCCNCCC[NH2+]c1c2ccccc2[n+](C)c2ccccc12 (3D coordinates assigned)
CC(C)CN(C)CCCNCCC[NH2+]c1c2ccccc2[n+](C)c2ccccc12 (optimized conformer: 86.26670662298599 kcal/mol)

>  <smiles>  (26) 
CC(C)CN(C)CCCNCCCNc1c2ccccc2[n+](C)c2ccccc12

>  <score_type>  (26) 
oracle

>  <origin>  (26) 
adg

>  <m_score__min__energy>  (26) 
-4.5700000000000003

>  <m_primary>  (26) 
energy

$$$$
26:0
     RDKit          3D

 44 46  0  0  0  0  0  0  0  0999 V2000
   63.4110   33.4780   46.7060 C   0  0  0  0  0  0  0  0  0  0  0  0
   63.3080   32.4040   47.4920 C   0  0  0  0  0  0  0  0  0  0  0  0
   62.8370   32.5180   48.9140 C   0  0  0  0  0  0  0  0  0  0  0  0
   62.4170   31.2070   49.4260 N   0  0  0  0  0  0  0  0  0  0  0  0
   61.1380   31.3060   50.1460 C   0  0  0  0  0  0  0  0  0  0  0  0
   59.9590   31.0150   49.2090 C   0  0  0  0  0  0  0  0  0  0  0  0
   60.3980   30.8380   47.8230 N   0  0  0  0  0  0  0  0  0  0  0  0
   59.6010   31.2510   46.6990 C   0  0  0  0  0  0  0  0  0  0  0  0
   59.5130   32.6090   46.3430 C   0  0  0  0  0  0  0  0  0  0  0  0
   60.0730   33.6110   47.1630 C   0  0  0  0  0  0  0  0  0  0  0  0
   59.9640   34.9560   46.8200 C   0  0  0  0  0  0  0  0  0  0  0  0
   59.2720   35.3270   45.6730 C   0  0  0  0  0  0  0  0  0  0  0  0
   58.6900   34.3570   44.8590 C   0  0  0  0  0  0  0  0  0  0  0  0
   58.8110   32.9770   45.1630 C   0  0  0  0  0  0  0  0  0  0  0  0
   58.2450   32.0040   44.3620 N   0  0  0  0  0  0  0  0  0  0  0  0
   57.7720   32.3450   43.0010 C   0  0  0  0  0  0  0  0  0  0  0  0
   58.1340   30.7070   44.8250 C   0  0  0  0  0  0  0  0  0  0  0  0
   57.3150   29.7490   44.1770 C   0  0  0  0  0  0  0  0  0  0  0  0
   57.2720   28.4250   44.6140 C   0  0  0  0  0  0  0  0  0  0  0  0
   58.0310   28.0230   45.7070 C   0  0  0  0  0  0  0  0  0  0  0  0
   57.9880   26.2020   46.2810 Br  0  0  0  0  0  0  0  0  0  0  0  0
   58.8100   28.9530   46.3940 C   0  0  0  0  0  0  0  0  0  0  0  0
   58.8510   30.3020   45.9830 C   0  0  0  0  0  0  0  0  0  0  0  0
   63.7584   33.3687   45.6680 H   0  0  0  0  0  0  0  0  0  0  0  0
   63.1485   34.4724   47.0963 H   0  0  0  0  0  0  0  0  0  0  0  0
   63.5735   31.4150   47.0902 H   0  0  0  0  0  0  0  0  0  0  0  0
   63.6577   32.9034   49.5369 H   0  0  0  0  0  0  0  0  0  0  0  0
   61.9781   33.2043   48.9492 H   0  0  0  0  0  0  0  0  0  0  0  0
   62.2680   30.5830   48.5970 H   0  0  0  0  0  0  0  0  0  0  0  0
   61.1313   30.5776   50.9703 H   0  0  0  0  0  0  0  0  0  0  0  0
   61.0326   32.3289   50.5366 H   0  0  0  0  0  0  0  0  0  0  0  0
   59.4564   30.0955   49.5437 H   0  0  0  0  0  0  0  0  0  0  0  0
   59.2736   31.8747   49.2439 H   0  0  0  0  0  0  0  0  0  0  0  0
   61.3620   30.4790   47.6450 H   0  0  0  0  0  0  0  0  0  0  0  0
   60.6021   33.3263   48.0844 H   0  0  0  0  0  0  0  0  0  0  0  0
   60.4256   35.7251   47.4568 H   0  0  0  0  0  0  0  0  0  0  0  0
   59.1834   36.3906   45.4067 H   0  0  0  0  0  0  0  0  0  0  0  0
   58.1275   34.6668   43.9659 H   0  0  0  0  0  0  0  0  0  0  0  0
   56.8816   32.9869   43.0724 H   0  0  0  0  0  0  0  0  0  0  0  0
   58.5667   32.8793   42.4598 H   0  0  0  0  0  0  0  0  0  0  0  0
   57.5163   31.4222   42.4598 H   0  0  0  0  0  0  0  0  0  0  0  0
   56.7032   30.0545   43.3154 H   0  0  0  0  0  0  0  0  0  0  0  0
   56.6349   27.6961   44.0916 H   0  0  0  0  0  0  0  0  0  0  0  0
   59.3989   28.6316   47.2657 H   0  0  0  0  0  0  0  0  0  0  0  0
  1  2  2  0
  2  3  1  0
  3  4  1  0
  4  5  1  0
  5  6  1  0
  6  7  1  0
  7  8  1  0
  8  9  2  0
  9 10  1  0
 10 11  2  0
 11 12  1  0
 12 13  2  0
 13 14  1  0
 14 15  2  0
 15 16  1  0
 15 17  1  0
 17 18  2  0
 18 19  1  0
 19 20  2  0
 20 21  1  0
 20 22  1  0
 22 23  2  0
 23  8  1  0
 14  9  1  0
 23 17  1  0
  1 24  1  0
  1 25  1  0
  2 26  1  0
  3 27  1  0
  3 28  1  0
  4 29  1  0
  5 30  1  0
  5 31  1  0
  6 32  1  0
  6 33  1  0
  7 34  1  0
 10 35  1  0
 11 36  1  0
 12 37  1  0
 13 38  1  0
 16 39  1  0
 16 40  1  0
 16 41  1  0
 18 42  1  0
 19 43  1  0
 22 44  1  0
M  CHG  1  15   1
M  END
>  <UniqueID>  (27) 
27

>  <SMILES>  (27) 
C=CCNCCNc1c2ccccc2[n+](C)c2ccc(Br)cc12

>  <Energy>  (27) 
62.58214264590199

>  <Genealogy>  (27) 
C=CCNCCNc1c2ccccc2[n+](C)c2ccc(Br)cc12 (3D coordinates assigned)
C=CCNCCNc1c2ccccc2[n+](C)c2ccc(Br)cc12 (optimized conformer: 62.58214264590199 kcal/mol)

>  <smiles>  (27) 
C=CCNCCNc1c2ccccc2[n+](C)c2ccc(Br)cc12

>  <score_type>  (27) 
oracle

>  <origin>  (27) 
adg

>  <m_score__min__energy>  (27) 
-6.4100000000000001

>  <m_primary>  (27) 
energy

$$$$
27:0
     RDKit          3D

 68 70  0  0  0  0  0  0  0  0999 V2000
   62.9540   29.6920   51.6610 C   0  0  0  0  0  0  0  0  0  0  0  0
   61.5460   30.0970   52.1300 C   0  0  0  0  0  0  0  0  0  0  0  0
   60.5740   30.4480   51.0510 N   0  0  0  0  0  0  0  0  0  0  0  0
   60.2910   29.3710   50.0650 C   0  0  0  0  0  0  0  0  0  0  0  0
   58.9190   29.5400   49.4010 C   0  0  0  0  0  0  0  0  0  0  0  0
   59.3350   31.1020   51.5550 C   0  0  0  0  0  0  0  0  0  0  0  0
   58.9950   32.4590   50.9190 C   0  0  0  0  0  0  0  0  0  0  0  0
   59.6680   32.5890   49.6850 O   0  0  0  0  0  0  0  0  0  0  0  0
   60.0710   33.9270   49.4640 C   0  0  0  0  0  0  0  0  0  0  0  0
   61.5940   34.0110   49.3640 C   0  0  0  0  0  0  0  0  0  0  0  0
   62.1720   32.6670   49.4600 N   0  0  0  0  0  0  0  0  0  0  0  0
   63.1450   32.4250   48.3890 C   0  0  0  0  0  0  0  0  0  0  0  0
   62.4270   31.9260   47.1310 C   0  0  0  0  0  0  0  0  0  0  0  0
   61.0800   31.4260   47.4330 N   0  0  0  0  0  0  0  0  0  0  0  0
   60.0590   31.2710   46.4280 C   0  0  0  0  0  0  0  0  0  0  0  0
   59.3400   32.3860   45.9570 C   0  0  0  0  0  0  0  0  0  0  0  0
   59.6660   33.6930   46.3800 C   0  0  0  0  0  0  0  0  0  0  0  0
   58.8990   34.7840   45.9760 C   0  0  0  0  0  0  0  0  0  0  0  0
   57.8000   34.5940   45.1460 C   0  0  0  0  0  0  0  0  0  0  0  0
   57.4920   33.3180   44.6720 C   0  0  0  0  0  0  0  0  0  0  0  0
   58.2850   32.1960   45.0250 C   0  0  0  0  0  0  0  0  0  0  0  0
   58.0490   30.9440   44.4880 N   0  0  0  0  0  0  0  0  0  0  0  0
   57.1930   30.8030   43.2890 C   0  0  0  0  0  0  0  0  0  0  0  0
   58.6600   29.8310   45.0340 C   0  0  0  0  0  0  0  0  0  0  0  0
   58.2500   28.5180   44.6950 C   0  0  0  0  0  0  0  0  0  0  0  0
   58.8990   27.4020   45.2200 C   0  0  0  0  0  0  0  0  0  0  0  0
   59.9660   27.5560   46.1060 C   0  0  0  0  0  0  0  0  0  0  0  0
   60.6970   26.3540   46.6270 C   0  0  0  0  0  0  0  0  0  0  0  0
   60.3790   28.8420   46.4670 C   0  0  0  0  0  0  0  0  0  0  0  0
   59.7130   29.9850   45.9740 C   0  0  0  0  0  0  0  0  0  0  0  0
   63.5935   29.5081   52.5369 H   0  0  0  0  0  0  0  0  0  0  0  0
   62.8894   28.7760   51.0554 H   0  0  0  0  0  0  0  0  0  0  0  0
   63.3859   30.5023   51.0554 H   0  0  0  0  0  0  0  0  0  0  0  0
   61.1262   29.2558   52.7011 H   0  0  0  0  0  0  0  0  0  0  0  0
   61.6816   31.0163   52.7187 H   0  0  0  0  0  0  0  0  0  0  0  0
   61.0420   31.2130   50.5060 H   0  0  0  0  0  0  0  0  0  0  0  0
   61.0668   29.3915   49.2855 H   0  0  0  0  0  0  0  0  0  0  0  0
   60.2900   28.4118   50.6034 H   0  0  0  0  0  0  0  0  0  0  0  0
   58.1453   29.6353   50.1771 H   0  0  0  0  0  0  0  0  0  0  0  0
   58.9236   30.4444   48.7748 H   0  0  0  0  0  0  0  0  0  0  0  0
   58.7040   28.6616   48.7748 H   0  0  0  0  0  0  0  0  0  0  0  0
   58.4923   30.4200   51.3683 H   0  0  0  0  0  0  0  0  0  0  0  0
   59.5144   31.3056   52.6210 H   0  0  0  0  0  0  0  0  0  0  0  0
   57.9096   32.5226   50.7518 H   0  0  0  0  0  0  0  0  0  0  0  0
   59.3132   33.2672   51.5940 H   0  0  0  0  0  0  0  0  0  0  0  0
   59.6249   34.2905   48.5265 H   0  0  0  0  0  0  0  0  0  0  0  0
   59.7323   34.5473   50.3069 H   0  0  0  0  0  0  0  0  0  0  0  0
   61.8726   34.4605   48.3994 H   0  0  0  0  0  0  0  0  0  0  0  0
   61.9787   34.6318   50.1865 H   0  0  0  0  0  0  0  0  0  0  0  0
   61.3980   31.9670   49.3510 H   0  0  0  0  0  0  0  0  0  0  0  0
   63.6740   33.3617   48.1591 H   0  0  0  0  0  0  0  0  0  0  0  0
   63.8643   31.6617   48.7207 H   0  0  0  0  0  0  0  0  0  0  0  0
   62.3459   32.7566   46.4144 H   0  0  0  0  0  0  0  0  0  0  0  0
   63.0130   31.0957   46.7100 H   0  0  0  0  0  0  0  0  0  0  0  0
   60.8160   31.2720   48.4320 H   0  0  0  0  0  0  0  0  0  0  0  0
   60.5349   33.8518   47.0356 H   0  0  0  0  0  0  0  0  0  0  0  0
   59.1634   35.7968   46.3142 H   0  0  0  0  0  0  0  0  0  0  0  0
   57.1718   35.4513   44.8623 H   0  0  0  0  0  0  0  0  0  0  0  0
   56.6209   33.1802   44.0146 H   0  0  0  0  0  0  0  0  0  0  0  0
   56.1519   30.6315   43.5999 H   0  0  0  0  0  0  0  0  0  0  0  0
   57.2495   31.7225   42.6880 H   0  0  0  0  0  0  0  0  0  0  0  0
   57.5414   29.9501   42.6880 H   0  0  0  0  0  0  0  0  0  0  0  0
   57.4047   28.3769   44.0054 H   0  0  0  0  0  0  0  0  0  0  0  0
   58.5678   26.3928   44.9340 H   0  0  0  0  0  0  0  0  0  0  0  0
   60.6885   26.3679   47.7269 H   0  0  0  0  0  0  0  0  0  0  0  0
   60.2019   25.4397   46.2681 H   0  0  0  0  0  0  0  0  0  0  0  0
   61.7366   26.3730   46.2681 H   0  0  0  0  0  0  0  0  0  0  0  0
   61.2360   28.9651   47.1455 H   0  0  0  0  0  0  0  0  0  0  0  0
  1  2  1  0
  2  3  1  0
  3  4  1  0
  4  5  1  0
  3  6  1  0
  6  7  1  0
  7  8  1  0
  8  9  1  0
  9 10  1  0
 10 11  1  0
 11 12  1  0
 12 13  1  0
 13 14  1  0
 14 15  1  0
 15 16  2  0
 16 17  1  0
 17 18  2  0
 18 19  1  0
 19 20  2  0
 20 21  1  0
 21 22  2  0
 22 23  1  0
 22 24  1  0
 24 25  2  0
 25 26  1  0
 26 27  2  0
 27 28  1  0
 27 29  1  0
 29 30  2  0
 30 15  1  0
 21 16  1  0
 30 24  1  0
  1 31  1  0
  1 32  1  0
  1 33  1  0
  2 34  1  0
  2 35  1  0
  3 36  1  0
  4 37  1  0
  4 38  1  0
  5 39  1  0
  5 40  1  0
  5 41  1  0
  6 42  1  0
  6 43  1  0
  7 44  1  0
  7 45  1  0
  9 46  1  0
  9 47  1  0
 10 48  1  0
 10 49  1  0
 11 50  1  0
 12 51  1  0
 12 52  1  0
 13 53  1  0
 13 54  1  0
 14 55  1  0
 17 56  1  0
 18 57  1  0
 19 58  1  0
 20 59  1  0
 23 60  1  0
 23 61  1  0
 23 62  1  0
 25 63  1  0
 26 64  1  0
 28 65  1  0
 28 66  1  0
 28 67  1  0
 29 68  1  0
M  CHG  2   3   1  22   1
M  END
>  <UniqueID>  (28) 
28

>  <SMILES>  (28) 
CC[NH+](CC)CCOCCNCCNc1c2ccccc2[n+](C)c2ccc(C)cc12

>  <Energy>  (28) 
94.190182109895

>  <Genealogy>  (28) 
CC[NH+](CC)CCOCCNCCNc1c2ccccc2[n+](C)c2ccc(C)cc12 (protonated)
CC[NH+](CC)CCOCCNCCNc1c2ccccc2[n+](C)c2ccc(C)cc12 (3D coordinates assigned)
CC[NH+](CC)CCOCCNCCNc1c2ccccc2[n+](C)c2ccc(C)cc12 (optimized conformer: 94.190182109895 kcal/mol)

>  <smiles>  (28) 
CCN(CC)CCOCCNCCNc1c2ccccc2[n+](C)c2ccc(C)cc12

>  <score_type>  (28) 
oracle

>  <origin>  (28) 
adg

>  <m_score__min__energy>  (28) 
-4.0700000000000003

>  <m_primary>  (28) 
energy

$$$$
28:0
     RDKit          3D

 58 61  0  0  0  0  0  0  0  0999 V2000
   60.5180   34.2020   49.2640 C   0  0  0  0  0  0  0  0  0  0  0  0
   61.6170   33.3890   49.9490 C   0  0  0  0  0  0  0  0  0  0  0  0
   62.5910   32.8470   48.9730 N   0  0  0  0  0  0  0  0  0  0  0  0
   62.8460   33.8190   47.8810 C   0  0  0  0  0  0  0  0  0  0  0  0
   63.6860   33.2200   46.7510 C   0  0  0  0  0  0  0  0  0  0  0  0
   62.2630   31.4750   48.5050 C   0  0  0  0  0  0  0  0  0  0  0  0
   61.3390   30.6530   49.4410 C   0  0  0  0  0  0  0  0  0  0  0  0
   59.8660   30.7020   49.0120 C   0  0  0  0  0  0  0  0  0  0  0  0
   59.6450   29.8470   47.8390 N   0  0  0  0  0  0  0  0  0  0  0  0
   59.6440   28.3960   47.9520 C   0  0  0  0  0  0  0  0  0  0  0  0
   60.1880   27.8320   48.9380 O   0  0  0  0  0  0  0  0  0  0  0  0
   58.9580   27.5770   46.8920 C   0  0  0  0  0  0  0  0  0  0  0  0
   59.1600   26.1940   46.7750 C   0  0  0  0  0  0  0  0  0  0  0  0
   58.5220   25.4690   45.7530 C   0  0  0  0  0  0  0  0  0  0  0  0
   58.7200   23.9880   45.6280 C   0  0  0  0  0  0  0  0  0  0  0  0
   57.6560   26.1310   44.8650 C   0  0  0  0  0  0  0  0  0  0  0  0
   57.4360   27.5060   44.9790 C   0  0  0  0  0  0  0  0  0  0  0  0
   58.0930   28.2290   45.9770 C   0  0  0  0  0  0  0  0  0  0  0  0
   57.8440   29.6830   46.2370 C   0  0  2  0  0  0  0  0  0  0  0  0
   57.2560   30.4940   45.2330 O   0  0  0  0  0  0  0  0  0  0  0  0
   57.7700   31.7730   45.4140 C   0  0  0  0  0  0  0  0  0  0  0  0
   57.3190   32.9370   44.8000 C   0  0  0  0  0  0  0  0  0  0  0  0
   58.0190   34.1300   45.0340 C   0  0  0  0  0  0  0  0  0  0  0  0
   59.1930   34.1290   45.8210 C   0  0  0  0  0  0  0  0  0  0  0  0
   59.9560   35.4020   46.0420 C   0  0  0  0  0  0  0  0  0  0  0  0
   59.6350   32.9310   46.4190 C   0  0  0  0  0  0  0  0  0  0  0  0
   58.8550   31.7800   46.2740 C   0  0  0  0  0  0  0  0  0  0  0  0
   59.1930   30.3440   46.5290 C   0  0  1  0  0  0  0  0  0  0  0  0
   59.8810   34.6733   50.0269 H   0  0  0  0  0  0  0  0  0  0  0  0
   60.9754   34.9809   48.6361 H   0  0  0  0  0  0  0  0  0  0  0  0
   59.9071   33.5368   48.6361 H   0  0  0  0  0  0  0  0  0  0  0  0
   62.1492   34.0381   50.6599 H   0  0  0  0  0  0  0  0  0  0  0  0
   61.1432   32.5412   50.4654 H   0  0  0  0  0  0  0  0  0  0  0  0
   61.8809   34.1473   47.4678 H   0  0  0  0  0  0  0  0  0  0  0  0
   63.4097   34.6619   48.3073 H   0  0  0  0  0  0  0  0  0  0  0  0
   64.5109   32.6318   47.1795 H   0  0  0  0  0  0  0  0  0  0  0  0
   63.0540   32.5675   46.1306 H   0  0  0  0  0  0  0  0  0  0  0  0
   64.0970   34.0301   46.1306 H   0  0  0  0  0  0  0  0  0  0  0  0
   61.7657   31.5602   47.5275 H   0  0  0  0  0  0  0  0  0  0  0  0
   63.2186   30.9313   48.4706 H   0  0  0  0  0  0  0  0  0  0  0  0
   61.6730   29.6050   49.4334 H   0  0  0  0  0  0  0  0  0  0  0  0
   61.4070   31.0945   50.4462 H   0  0  0  0  0  0  0  0  0  0  0  0
   59.2352   30.3494   49.8413 H   0  0  0  0  0  0  0  0  0  0  0  0
   59.6047   31.7384   48.7520 H   0  0  0  0  0  0  0  0  0  0  0  0
   59.8200   25.6746   47.4854 H   0  0  0  0  0  0  0  0  0  0  0  0
   58.7799   23.5401   46.6309 H   0  0  0  0  0  0  0  0  0  0  0  0
   57.8725   23.5497   45.0807 H   0  0  0  0  0  0  0  0  0  0  0  0
   59.6529   23.7877   45.0807 H   0  0  0  0  0  0  0  0  0  0  0  0
   57.1471   25.5613   44.0735 H   0  0  0  0  0  0  0  0  0  0  0  0
   56.7496   28.0159   44.2870 H   0  0  0  0  0  0  0  0  0  0  0  0
   57.1012   29.6442   47.0474 H   0  0  0  0  0  0  0  0  0  0  0  0
   56.4343   32.9223   44.1464 H   0  0  0  0  0  0  0  0  0  0  0  0
   57.6517   35.0726   44.6021 H   0  0  0  0  0  0  0  0  0  0  0  0
   60.0639   35.5821   47.1218 H   0  0  0  0  0  0  0  0  0  0  0  0
   60.9521   35.3168   45.5831 H   0  0  0  0  0  0  0  0  0  0  0  0
   59.4113   36.2403   45.5831 H   0  0  0  0  0  0  0  0  0  0  0  0
   60.5756   32.9026   46.9887 H   0  0  0  0  0  0  0  0  0  0  0  0
   60.0934   30.1306   45.9342 H   0  0  0  0  0  0  0  0  0  0  0  0
  1  2  1  0
  2  3  1  0
  3  4  1  0
  4  5  1  0
  3  6  1  0
  6  7  1  0
  7  8  1  0
  8  9  1  0
  9 10  1  0
 10 11  2  0
 10 12  1  0
 12 13  2  0
 13 14  1  0
 14 15  1  0
 14 16  2  0
 16 17  1  0
 17 18  2  0
 18 19  1  0
 19 20  1  0
 20 21  1  0
 21 22  2  0
 22 23  1  0
 23 24  2  0
 24 25  1  0
 24 26  1  0
 26 27  2  0
 27 28  1  0
 28  9  1  0
 18 12  1  0
 28 19  1  0
 27 21  1  0
  1 29  1  0
  1 30  1  0
  1 31  1  0
  2 32  1  0
  2 33  1  0
  4 34  1  0
  4 35  1  0
  5 36  1  0
  5 37  1  0
  5 38  1  0
  6 39  1  0
  6 40  1  0
  7 41  1  0
  7 42  1  0
  8 43  1  0
  8 44  1  0
 13 45  1  0
 15 46  1  0
 15 47  1  0
 15 48  1  0
 16 49  1  0
 17 50  1  0
 19 51  1  1
 22 52  1  0
 23 53  1  0
 25 54  1  0
 25 55  1  0
 25 56  1  0
 26 57  1  0
 28 58  1  6
M  END
>  <UniqueID>  (29) 
29

>  <SMILES>  (29) 
CCN(CC)CCCN1C(=O)c2cc(C)ccc2[C@@H]2Oc3ccc(C)cc3[C@H]21

>  <Energy>  (29) 
106.577166281901

>  <Genealogy>  (29) 
CCN(CC)CCCN1C(=O)c2cc(C)ccc2[C@@H]2Oc3ccc(C)cc3[C@H]21 (chirality)
CCN(CC)CCCN1C(=O)c2cc(C)ccc2[C@@H]2Oc3ccc(C)cc3[C@H]21 (3D coordinates assigned)
CCN(CC)CCCN1C(=O)c2cc(C)ccc2[C@@H]2Oc3ccc(C)cc3[C@H]21 (nonaromatic ring conformer: 106.577166281901 kcal/mol)

>  <smiles>  (29) 
CCN(CC)CCCN1C(=O)c2cc(C)ccc2C2Oc3ccc(C)cc3C21

>  <score_type>  (29) 
oracle

>  <origin>  (29) 
adg

>  <m_score__min__energy>  (29) 
-8.3000000000000007

>  <m_primary>  (29) 
energy

$$$$
