0:0
     RDKit          3D

 45 47  0  0  0  0  0  0  0  0999 V2000
   67.1360   33.4230   50.6730 C   0  0  0  0  0  0  0  0  0  0  0  0
   65.6750   33.4230   50.3290 C   0  0  0  0  0  0  0  0  0  0  0  0
   64.7330   33.8350   51.2790 C   0  0  0  0  0  0  0  0  0  0  0  0
   63.3830   33.8540   50.9400 C   0  0  0  0  0  0  0  0  0  0  0  0
   62.9840   33.4810   49.6580 C   0  0  0  0  0  0  0  0  0  0  0  0
   63.9470   33.1030   48.7090 C   0  0  0  0  0  0  0  0  0  0  0  0
   63.4860   32.6580   47.3260 C   0  0  0  0  0  0  0  0  0  0  0  0
   62.5960   31.3870   47.3350 C   0  0  0  0  0  0  0  0  0  0  0  0
   61.1140   31.6880   47.0510 C   0  0  0  0  0  0  0  0  0  0  0  0
   60.7230   32.9520   47.6900 N   0  0  0  0  0  0  0  0  0  0  0  0
   58.9830   33.1420   47.7020 S   0  0  0  0  0  0  0  0  0  0  0  0
   58.4770   32.7060   49.0470 O   0  0  0  0  0  0  0  0  0  0  0  0
   58.6080   34.5870   47.5200 O   0  0  0  0  0  0  0  0  0  0  0  0
   58.1910   32.1750   46.4470 C   0  0  0  0  0  0  0  0  0  0  0  0
   58.1280   30.7960   46.3360 C   0  0  0  0  0  0  0  0  0  0  0  0
   58.6780   29.7820   47.2850 C   0  0  0  0  0  0  0  0  0  0  0  0
   57.3930   30.4710   45.2540 N   0  0  0  0  0  0  0  0  0  0  0  0
   57.0210   31.5860   44.6950 O   0  0  0  0  0  0  0  0  0  0  0  0
   57.4630   32.6260   45.3610 C   0  0  0  0  0  0  0  0  0  0  0  0
   57.2010   34.0410   44.9640 C   0  0  0  0  0  0  0  0  0  0  0  0
   61.3930   34.1260   47.0910 C   0  0  0  0  0  0  0  0  0  0  0  0
   62.8120   33.8190   46.5720 C   0  0  0  0  0  0  0  0  0  0  0  0
   65.2680   33.0800   49.0730 N   0  0  0  0  0  0  0  0  0  0  0  0
   67.4929   32.3859   50.7570 H   0  0  0  0  0  0  0  0  0  0  0  0
   67.6988   33.9415   49.8828 H   0  0  0  0  0  0  0  0  0  0  0  0
   67.2871   33.9415   51.6313 H   0  0  0  0  0  0  0  0  0  0  0  0
   65.0568   34.1411   52.2847 H   0  0  0  0  0  0  0  0  0  0  0  0
   62.6326   34.1629   51.6827 H   0  0  0  0  0  0  0  0  0  0  0  0
   61.9171   33.4827   49.3903 H   0  0  0  0  0  0  0  0  0  0  0  0
   64.3966   32.3666   46.7821 H   0  0  0  0  0  0  0  0  0  0  0  0
   62.9666   30.6942   46.5651 H   0  0  0  0  0  0  0  0  0  0  0  0
   62.6556   30.9511   48.3432 H   0  0  0  0  0  0  0  0  0  0  0  0
   60.9607   31.7671   45.9646 H   0  0  0  0  0  0  0  0  0  0  0  0
   60.4972   30.8733   47.4582 H   0  0  0  0  0  0  0  0  0  0  0  0
   58.4989   30.1123   48.3188 H   0  0  0  0  0  0  0  0  0  0  0  0
   58.1806   28.8153   47.1175 H   0  0  0  0  0  0  0  0  0  0  0  0
   59.7596   29.6717   47.1175 H   0  0  0  0  0  0  0  0  0  0  0  0
   57.0864   34.6597   45.8662 H   0  0  0  0  0  0  0  0  0  0  0  0
   58.0449   34.4165   44.3666 H   0  0  0  0  0  0  0  0  0  0  0  0
   56.2786   34.0894   44.3666 H   0  0  0  0  0  0  0  0  0  0  0  0
   60.7830   34.4841   46.2486 H   0  0  0  0  0  0  0  0  0  0  0  0
   61.4922   34.8836   47.8823 H   0  0  0  0  0  0  0  0  0  0  0  0
   62.7467   33.5548   45.5062 H   0  0  0  0  0  0  0  0  0  0  0  0
   63.4249   34.7181   46.7332 H   0  0  0  0  0  0  0  0  0  0  0  0
   65.9960   32.7990   48.3820 H   0  0  0  0  0  0  0  0  0  0  0  0
  1  2  1  0
  2  3  2  0
  3  4  1  0
  4  5  2  0
  5  6  1  0
  6  7  1  0
  7  8  1  0
  8  9  1  0
  9 10  1  0
 10 11  1  0
 11 12  2  0
 11 13  2  0
 11 14  1  0
 14 15  1  0
 15 16  1  0
 15 17  2  0
 17 18  1  0
 18 19  1  0
 19 20  1  0
 10 21  1  0
 21 22  1  0
  6 23  2  0
 23  2  1  0
 22  7  1  0
 19 14  2  0
  1 24  1  0
  1 25  1  0
  1 26  1  0
  3 27  1  0
  4 28  1  0
  5 29  1  0
  7 30  1  0
  8 31  1  0
  8 32  1  0
  9 33  1  0
  9 34  1  0
 16 35  1  0
 16 36  1  0
 16 37  1  0
 20 38  1  0
 20 39  1  0
 20 40  1  0
 21 41  1  0
 21 42  1  0
 22 43  1  0
 22 44  1  0
 23 45  1  0
M  CHG  1  23   1
M  END
>  <UniqueID>  (1) 
1

>  <SMILES>  (1) 
Cc1cccc(C2CCN(S(=O)(=O)c3c(C)noc3C)CC2)[nH+]1

>  <Energy>  (1) 
82.15810700416762

>  <Genealogy>  (1) 
Cc1cccc(C2CCN(S(=O)(=O)c3c(C)noc3C)CC2)[nH+]1 (protonated)
Cc1cccc(C2CCN(S(=O)(=O)c3c(C)noc3C)CC2)[nH+]1 (3D coordinates assigned)
Cc1cccc(C2CCN(S(=O)(=O)c3c(C)noc3C)CC2)[nH+]1 (nonaromatic ring conformer: 82.15810700416762 kcal/mol)

>  <smiles>  (1) 
Cc1cccc(C2CCN(S(=O)(=O)c3c(C)noc3C)CC2)n1

>  <score_type>  (1) 
oracle

>  <origin>  (1) 
adg

>  <m_score__min__energy>  (1) 
-7.4500000000000002

>  <m_primary>  (1) 
energy

$$$$
1:0
     RDKit          3D

 33 35  0  0  0  0  0  0  0  0999 V2000
   55.8920   29.4720   42.4170 N   0  0  0  0  0  0  0  0  0  0  0  0
   56.4070   29.7680   43.6430 C   0  0  0  0  0  0  0  0  0  0  0  0
   55.3780   30.0770   44.4910 O   0  0  0  0  0  0  0  0  0  0  0  0
   57.6080   29.8730   44.3490 C   0  0  0  0  0  0  0  0  0  0  0  0
   57.6450   28.1830   44.5400 C   0  0  0  0  0  0  0  0  0  0  0  0
   58.6210   27.6250   45.1770 C   0  0  0  0  0  0  0  0  0  0  0  0
   59.7350   28.2110   45.7830 C   0  0  0  0  0  0  0  0  0  0  0  0
   59.6950   29.5090   45.6300 O   0  0  0  0  0  0  0  0  0  0  0  0
   58.7010   29.9690   44.9910 C   0  0  0  0  0  0  0  0  0  0  0  0
   58.8830   31.3630   44.9640 O   0  0  0  0  0  0  0  0  0  0  0  0
   60.7270   27.4040   46.4560 C   0  0  0  0  0  0  0  0  0  0  0  0
   60.0340   26.3290   47.3170 C   0  0  0  0  0  0  0  0  0  0  0  0
   58.8550   25.8840   46.7290 N   0  0  0  0  0  0  0  0  0  0  0  0
   57.8150   25.3140   47.4690 C   0  0  0  0  0  0  0  0  0  0  0  0
   56.5160   25.2510   46.7070 C   0  0  0  0  0  0  0  0  0  0  0  0
   55.7800   26.3680   46.3090 C   0  0  0  0  0  0  0  0  0  0  0  0
   54.6900   25.9440   45.6510 N   0  0  0  0  0  0  0  0  0  0  0  0
   54.7150   24.5760   45.6200 C   0  0  0  0  0  0  0  0  0  0  0  0
   55.8440   24.1740   46.2740 N   0  0  0  0  0  0  0  0  0  0  0  0
   58.6470   26.0950   45.3420 C   0  0  0  0  0  0  0  0  0  0  0  0
   56.0280   30.1750   41.6350 H   0  0  0  0  0  0  0  0  0  0  0  0
   55.3800   28.5940   42.2400 H   0  0  0  0  0  0  0  0  0  0  0  0
   56.8374   27.5648   44.1209 H   0  0  0  0  0  0  0  0  0  0  0  0
   61.3676   26.9145   45.7076 H   0  0  0  0  0  0  0  0  0  0  0  0
   61.3382   28.0485   47.1048 H   0  0  0  0  0  0  0  0  0  0  0  0
   60.7164   25.4750   47.4393 H   0  0  0  0  0  0  0  0  0  0  0  0
   59.7855   26.7758   48.2910 H   0  0  0  0  0  0  0  0  0  0  0  0
   58.1055   24.2914   47.7518 H   0  0  0  0  0  0  0  0  0  0  0  0
   57.6494   25.9521   48.3496 H   0  0  0  0  0  0  0  0  0  0  0  0
   56.0478   27.4173   46.5018 H   0  0  0  0  0  0  0  0  0  0  0  0
   53.9640   23.9211   45.1541 H   0  0  0  0  0  0  0  0  0  0  0  0
   59.4677   25.6559   44.7558 H   0  0  0  0  0  0  0  0  0  0  0  0
   57.7200   25.6229   44.9845 H   0  0  0  0  0  0  0  0  0  0  0  0
  1  2  1  0
  2  3  2  0
  2  4  1  0
  4  5  2  0
  5  6  1  0
  6  7  2  0
  7  8  1  0
  8  9  1  0
  9 10  2  0
  7 11  1  0
 11 12  1  0
 12 13  1  0
 13 14  1  0
 14 15  1  0
 15 16  2  0
 16 17  1  0
 17 18  1  0
 18 19  2  0
 13 20  1  0
  9  4  1  0
 19 15  1  0
 20  6  1  0
  1 21  1  0
  1 22  1  0
  5 23  1  0
 11 24  1  0
 11 25  1  0
 12 26  1  0
 12 27  1  0
 14 28  1  0
 14 29  1  0
 16 30  1  0
 18 31  1  0
 20 32  1  0
 20 33  1  0
M  CHG  1  17  -1
M  END
>  <UniqueID>  (2) 
2

>  <SMILES>  (2) 
NC(=O)c1cc2c(oc1=O)CCN(Cc1c[n-]cn1)C2

>  <Energy>  (2) 
491.11009920945946

>  <Genealogy>  (2) 
NC(=O)c1cc2c(oc1=O)CCN(Cc1c[n-]cn1)C2 (protonated)
NC(=O)c1cc2c(oc1=O)CCN(Cc1c[n-]cn1)C2 (3D coordinates assigned)
NC(=O)c1cc2c(oc1=O)CCN(Cc1c[n-]cn1)C2 (nonaromatic ring conformer: 491.11009920945946 kcal/mol)

>  <smiles>  (2) 
NC(=O)c1cc2c(oc1=O)CCN(Cc1c[nH]cn1)C2

>  <score_type>  (2) 
oracle

>  <origin>  (2) 
adg

>  <m_score__min__energy>  (2) 
-8.6199999999999992

>  <m_primary>  (2) 
energy

$$$$
2:0
     RDKit          3D

 48 50  0  0  0  0  0  0  0  0999 V2000
   62.9010   33.8200   46.3920 C   0  0  0  0  0  0  0  0  0  0  0  0
   62.5290   33.7130   47.8440 C   0  0  0  0  0  0  0  0  0  0  0  0
   63.5370   33.7620   48.8230 C   0  0  0  0  0  0  0  0  0  0  0  0
   63.2130   33.6720   50.1790 C   0  0  0  0  0  0  0  0  0  0  0  0
   61.8800   33.5450   50.5750 C   0  0  0  0  0  0  0  0  0  0  0  0
   61.4770   33.4330   52.2770 Cl  0  0  0  0  0  0  0  0  0  0  0  0
   60.8660   33.5150   49.6120 C   0  0  0  0  0  0  0  0  0  0  0  0
   61.1790   33.6070   48.2480 C   0  0  0  0  0  0  0  0  0  0  0  0
   60.1180   33.5980   47.2840 N   0  0  0  0  0  0  0  0  0  0  0  0
   59.2660   32.4170   47.1440 C   0  0  0  0  0  0  0  0  0  0  0  0
   57.8800   32.8480   46.6490 C   0  0  0  0  0  0  0  0  0  0  0  0
   57.9210   33.6370   45.3870 N   0  0  0  0  0  0  0  0  0  0  0  0
   57.3980   32.8490   44.2490 C   0  0  0  0  0  0  0  0  0  0  0  0
   57.3410   31.3850   44.5780 C   0  0  0  0  0  0  0  0  0  0  0  0
   56.2260   30.7950   44.5860 O   0  0  0  0  0  0  0  0  0  0  0  0
   58.5510   30.6640   44.8540 N   0  0  0  0  0  0  0  0  0  0  0  0
   58.5850   29.3560   45.4500 C   0  0  0  0  0  0  0  0  0  0  0  0
   59.7000   28.9220   46.1860 C   0  0  0  0  0  0  0  0  0  0  0  0
   59.7200   27.6390   46.7400 C   0  0  0  0  0  0  0  0  0  0  0  0
   58.6350   26.7810   46.5620 C   0  0  0  0  0  0  0  0  0  0  0  0
   57.5190   27.1870   45.8090 C   0  0  0  0  0  0  0  0  0  0  0  0
   56.4020   26.3000   45.6140 N   0  0  0  0  0  0  0  0  0  0  0  0
   56.5650   25.1780   45.0910 O   0  0  0  0  0  0  0  0  0  0  0  0
   55.1330   26.6700   45.9990 O   0  0  0  0  0  0  0  0  0  0  0  0
   57.5090   28.4770   45.2490 C   0  0  0  0  0  0  0  0  0  0  0  0
   59.2500   34.2230   45.0690 C   0  0  0  0  0  0  0  0  0  0  0  0
   59.9920   34.6980   46.3240 C   0  0  0  0  0  0  0  0  0  0  0  0
   63.9548   34.1231   46.3049 H   0  0  0  0  0  0  0  0  0  0  0  0
   62.7585   32.8445   45.9041 H   0  0  0  0  0  0  0  0  0  0  0  0
   62.2620   34.5708   45.9041 H   0  0  0  0  0  0  0  0  0  0  0  0
   64.5884   33.8720   48.5190 H   0  0  0  0  0  0  0  0  0  0  0  0
   64.0100   33.7013   50.9366 H   0  0  0  0  0  0  0  0  0  0  0  0
   59.8163   33.4186   49.9265 H   0  0  0  0  0  0  0  0  0  0  0  0
   59.7159   31.7232   46.4186 H   0  0  0  0  0  0  0  0  0  0  0  0
   59.1698   31.9144   48.1177 H   0  0  0  0  0  0  0  0  0  0  0  0
   57.2754   31.9454   46.4763 H   0  0  0  0  0  0  0  0  0  0  0  0
   57.4464   33.4975   47.4237 H   0  0  0  0  0  0  0  0  0  0  0  0
   56.3847   33.2010   44.0053 H   0  0  0  0  0  0  0  0  0  0  0  0
   58.0746   32.9858   43.3926 H   0  0  0  0  0  0  0  0  0  0  0  0
   59.4530   31.0910   44.5440 H   0  0  0  0  0  0  0  0  0  0  0  0
   60.5597   29.5937   46.3267 H   0  0  0  0  0  0  0  0  0  0  0  0
   60.5941   27.3049   47.3182 H   0  0  0  0  0  0  0  0  0  0  0  0
   58.6524   25.7785   47.0144 H   0  0  0  0  0  0  0  0  0  0  0  0
   56.6478   28.8011   44.6463 H   0  0  0  0  0  0  0  0  0  0  0  0
   59.8612   33.4604   44.5641 H   0  0  0  0  0  0  0  0  0  0  0  0
   59.0860   35.0985   44.4235 H   0  0  0  0  0  0  0  0  0  0  0  0
   60.9950   35.0505   46.0416 H   0  0  0  0  0  0  0  0  0  0  0  0
   59.4233   35.5168   46.7889 H   0  0  0  0  0  0  0  0  0  0  0  0
  1  2  1  0
  2  3  2  0
  3  4  1  0
  4  5  2  0
  5  6  1  0
  5  7  1  0
  7  8  2  0
  8  9  1  0
  9 10  1  0
 10 11  1  0
 11 12  1  0
 12 13  1  0
 13 14  1  0
 14 15  2  0
 14 16  1  0
 16 17  1  0
 17 18  2  0
 18 19  1  0
 19 20  2  0
 20 21  1  0
 21 22  1  0
 22 23  2  0
 22 24  1  0
 21 25  2  0
 12 26  1  0
 26 27  1  0
  8  2  1  0
 27  9  1  0
 25 17  1  0
  1 28  1  0
  1 29  1  0
  1 30  1  0
  3 31  1  0
  4 32  1  0
  7 33  1  0
 10 34  1  0
 10 35  1  0
 11 36  1  0
 11 37  1  0
 13 38  1  0
 13 39  1  0
 16 40  1  0
 18 41  1  0
 19 42  1  0
 20 43  1  0
 25 44  1  0
 26 45  1  0
 26 46  1  0
 27 47  1  0
 27 48  1  0
M  CHG  2  22   1  24  -1
M  END
>  <UniqueID>  (3) 
3

>  <SMILES>  (3) 
Cc1ccc(Cl)cc1N1CCN(CC(=O)Nc2cccc([N+](=O)[O-])c2)CC1

>  <Energy>  (3) 
65.6495918558683

>  <Genealogy>  (3) 
Cc1ccc(Cl)cc1N1CCN(CC(=O)Nc2cccc([N+](=O)[O-])c2)CC1 (3D coordinates assigned)
Cc1ccc(Cl)cc1N1CCN(CC(=O)Nc2cccc([N+](=O)[O-])c2)CC1 (nonaromatic ring conformer: 65.6495918558683 kcal/mol)

>  <smiles>  (3) 
Cc1ccc(Cl)cc1N1CCN(CC(=O)Nc2cccc([N+](=O)[O-])c2)CC1

>  <score_type>  (3) 
oracle

>  <origin>  (3) 
adg

>  <m_score__min__energy>  (3) 
-10.07

>  <m_primary>  (3) 
energy

$$$$
3:0
     RDKit          3D

 45 48  0  0  0  0  0  0  0  0999 V2000
   56.6900   21.3610   42.8610 C   0  0  0  0  0  0  0  0  0  0  0  0
   57.2290   22.5030   43.6690 C   0  0  0  0  0  0  0  0  0  0  0  0
   56.6240   23.7660   43.5970 C   0  0  0  0  0  0  0  0  0  0  0  0
   57.1020   24.8220   44.3790 C   0  0  0  0  0  0  0  0  0  0  0  0
   58.1860   24.6300   45.2550 C   0  0  0  0  0  0  0  0  0  0  0  0
   58.6930   25.7520   46.0850 C   0  0  0  0  0  0  0  0  0  0  0  0
   58.8010   25.6260   47.4790 C   0  0  0  0  0  0  0  0  0  0  0  0
   59.2620   26.6620   48.2270 N   0  0  0  0  0  0  0  0  0  0  0  0
   59.6440   27.8420   47.6740 C   0  0  0  0  0  0  0  0  0  0  0  0
   60.0480   28.7680   48.4250 O   0  0  0  0  0  0  0  0  0  0  0  0
   59.5810   28.0180   46.2770 C   0  0  0  0  0  0  0  0  0  0  0  0
   59.9810   29.3220   45.6200 C   0  0  0  0  0  0  0  0  0  0  0  0
   58.7700   30.1700   45.2800 C   0  0  0  0  0  0  0  0  0  0  0  0
   57.7280   29.5830   44.5440 C   0  0  0  0  0  0  0  0  0  0  0  0
   56.6090   30.3380   44.1810 C   0  0  0  0  0  0  0  0  0  0  0  0
   55.5070   29.7200   43.3800 C   0  0  0  0  0  0  0  0  0  0  0  0
   56.5340   31.6480   44.5310 N   0  0  0  0  0  0  0  0  0  0  0  0
   57.5160   32.2620   45.2400 C   0  0  0  0  0  0  0  0  0  0  0  0
   57.3810   33.6150   45.5690 C   0  0  0  0  0  0  0  0  0  0  0  0
   58.3820   34.2640   46.2940 C   0  0  0  0  0  0  0  0  0  0  0  0
   59.5220   33.5660   46.6930 C   0  0  0  0  0  0  0  0  0  0  0  0
   59.6700   32.2130   46.3710 C   0  0  0  0  0  0  0  0  0  0  0  0
   58.6690   31.5390   45.6380 C   0  0  0  0  0  0  0  0  0  0  0  0
   59.0780   26.9660   45.4950 C   0  0  0  0  0  0  0  0  0  0  0  0
   58.7770   23.3560   45.3340 C   0  0  0  0  0  0  0  0  0  0  0  0
   58.2980   22.3010   44.5530 C   0  0  0  0  0  0  0  0  0  0  0  0
   56.3196   20.5762   43.5370 H   0  0  0  0  0  0  0  0  0  0  0  0
   55.8652   21.7178   42.2266 H   0  0  0  0  0  0  0  0  0  0  0  0
   57.4897   20.9511   42.2266 H   0  0  0  0  0  0  0  0  0  0  0  0
   55.7699   23.9266   42.9226 H   0  0  0  0  0  0  0  0  0  0  0  0
   56.6264   25.8114   44.3087 H   0  0  0  0  0  0  0  0  0  0  0  0
   58.5110   24.6842   47.9678 H   0  0  0  0  0  0  0  0  0  0  0  0
   60.6290   29.8845   46.3082 H   0  0  0  0  0  0  0  0  0  0  0  0
   60.5109   29.0880   44.6849 H   0  0  0  0  0  0  0  0  0  0  0  0
   57.7926   28.5245   44.2519 H   0  0  0  0  0  0  0  0  0  0  0  0
   54.7526   29.2969   44.0596 H   0  0  0  0  0  0  0  0  0  0  0  0
   55.0398   30.4877   42.7457 H   0  0  0  0  0  0  0  0  0  0  0  0
   55.9184   28.9210   42.7457 H   0  0  0  0  0  0  0  0  0  0  0  0
   56.4838   34.1689   45.2556 H   0  0  0  0  0  0  0  0  0  0  0  0
   58.2716   35.3278   46.5511 H   0  0  0  0  0  0  0  0  0  0  0  0
   60.3082   34.0821   47.2635 H   0  0  0  0  0  0  0  0  0  0  0  0
   60.5719   31.6706   46.6908 H   0  0  0  0  0  0  0  0  0  0  0  0
   58.9845   27.0948   44.4066 H   0  0  0  0  0  0  0  0  0  0  0  0
   59.6234   23.1888   46.0164 H   0  0  0  0  0  0  0  0  0  0  0  0
   58.7621   21.3069   44.6323 H   0  0  0  0  0  0  0  0  0  0  0  0
  1  2  1  0
  2  3  2  0
  3  4  1  0
  4  5  2  0
  5  6  1  0
  6  7  2  0
  7  8  1  0
  8  9  1  0
  9 10  2  0
  9 11  1  0
 11 12  1  0
 12 13  1  0
 13 14  2  0
 14 15  1  0
 15 16  1  0
 15 17  2  0
 17 18  1  0
 18 19  2  0
 19 20  1  0
 20 21  2  0
 21 22  1  0
 22 23  2  0
 11 24  2  0
  5 25  1  0
 25 26  2  0
 26  2  1  0
 24  6  1  0
 23 13  1  0
 23 18  1  0
  1 27  1  0
  1 28  1  0
  1 29  1  0
  3 30  1  0
  4 31  1  0
  7 32  1  0
 12 33  1  0
 12 34  1  0
 14 35  1  0
 16 36  1  0
 16 37  1  0
 16 38  1  0
 19 39  1  0
 20 40  1  0
 21 41  1  0
 22 42  1  0
 24 43  1  0
 25 44  1  0
 26 45  1  0
M  CHG  1   8  -1
M  END
>  <UniqueID>  (4) 
4

>  <SMILES>  (4) 
Cc1ccc(-c2c[n-]c(=O)c(Cc3cc(C)nc4ccccc34)c2)cc1

>  <Energy>  (4) 
59.361309013480415

>  <Genealogy>  (4) 
Cc1ccc(-c2c[n-]c(=O)c(Cc3cc(C)nc4ccccc34)c2)cc1 (protonated)
Cc1ccc(-c2c[n-]c(=O)c(Cc3cc(C)nc4ccccc34)c2)cc1 (3D coordinates assigned)
Cc1ccc(-c2c[n-]c(=O)c(Cc3cc(C)nc4ccccc34)c2)cc1 (optimized conformer: 59.361309013480415 kcal/mol)

>  <smiles>  (4) 
Cc1ccc(-c2c[nH]c(=O)c(Cc3cc(C)nc4ccccc34)c2)cc1

>  <score_type>  (4) 
oracle

>  <origin>  (4) 
adg

>  <m_score__min__energy>  (4) 
-9.9199999999999999

>  <m_primary>  (4) 
energy

$$$$
4:0
     RDKit          3D

 40 42  0  0  0  0  0  0  0  0999 V2000
   62.2110   33.8250   47.1760 N   0  0  0  0  0  0  0  0  0  0  0  0
   61.2780   33.8450   46.3750 N   0  0  0  0  0  0  0  0  0  0  0  0
   60.3470   33.8660   45.5690 N   0  0  0  0  0  0  0  0  0  0  0  0
   59.2740   34.8480   45.6790 C   0  0  0  0  0  0  0  0  0  0  0  0
   57.8980   34.2280   45.3900 C   0  0  0  0  0  0  0  0  0  0  0  0
   57.3350   33.3770   46.5440 C   0  0  0  0  0  0  0  0  0  0  0  0
   58.0940   32.1160   46.7340 N   0  0  0  0  0  0  0  0  0  0  0  0
   57.9030   31.1080   45.8120 C   0  0  0  0  0  0  0  0  0  0  0  0
   57.1010   31.2660   44.8500 O   0  0  0  0  0  0  0  0  0  0  0  0
   58.5970   29.8930   45.9310 C   0  0  0  0  0  0  0  0  0  0  0  0
   58.4740   28.8010   44.9020 C   0  0  0  0  0  0  0  0  0  0  0  0
   57.6720   27.6880   45.4350 N   0  0  0  0  0  0  0  0  0  0  0  0
   58.3090   26.5360   45.8070 C   0  0  0  0  0  0  0  0  0  0  0  0
   57.5840   25.4460   46.2850 C   0  0  0  0  0  0  0  0  0  0  0  0
   58.2200   24.3050   46.6520 F   0  0  0  0  0  0  0  0  0  0  0  0
   56.1990   25.5550   46.3740 C   0  0  0  0  0  0  0  0  0  0  0  0
   55.5100   24.5920   46.8000 O   0  0  0  0  0  0  0  0  0  0  0  0
   55.5910   26.7060   45.9960 N   0  0  0  0  0  0  0  0  0  0  0  0
   56.3040   27.7650   45.5300 C   0  0  0  0  0  0  0  0  0  0  0  0
   55.6900   28.8120   45.1900 O   0  0  0  0  0  0  0  0  0  0  0  0
   59.4580   29.7200   46.9600 N   0  0  0  0  0  0  0  0  0  0  0  0
   59.6670   30.6860   47.8850 C   0  0  0  0  0  0  0  0  0  0  0  0
   60.5740   30.4480   48.9230 C   0  0  0  0  0  0  0  0  0  0  0  0
   60.8280   31.4360   49.8710 C   0  0  0  0  0  0  0  0  0  0  0  0
   60.1850   32.6680   49.7800 C   0  0  0  0  0  0  0  0  0  0  0  0
   59.2770   32.9190   48.7480 C   0  0  0  0  0  0  0  0  0  0  0  0
   58.9860   31.9250   47.7790 C   0  0  0  0  0  0  0  0  0  0  0  0
   59.2715   35.2593   46.6992 H   0  0  0  0  0  0  0  0  0  0  0  0
   59.4559   35.6366   44.9340 H   0  0  0  0  0  0  0  0  0  0  0  0
   57.1885   35.0430   45.1842 H   0  0  0  0  0  0  0  0  0  0  0  0
   58.0294   33.5514   44.5327 H   0  0  0  0  0  0  0  0  0  0  0  0
   57.3845   33.9635   47.4733 H   0  0  0  0  0  0  0  0  0  0  0  0
   56.2976   33.1115   46.2923 H   0  0  0  0  0  0  0  0  0  0  0  0
   57.9850   29.2029   44.0024 H   0  0  0  0  0  0  0  0  0  0  0  0
   59.4787   28.4308   44.6499 H   0  0  0  0  0  0  0  0  0  0  0  0
   59.4041   26.4693   45.7281 H   0  0  0  0  0  0  0  0  0  0  0  0
   61.0880   29.4778   48.9906 H   0  0  0  0  0  0  0  0  0  0  0  0
   61.5357   31.2435   50.6908 H   0  0  0  0  0  0  0  0  0  0  0  0
   60.3934   33.4491   50.5259 H   0  0  0  0  0  0  0  0  0  0  0  0
   58.7819   33.8993   48.6864 H   0  0  0  0  0  0  0  0  0  0  0  0
  1  2  2  0
  2  3  2  0
  3  4  1  0
  4  5  1  0
  5  6  1  0
  6  7  1  0
  7  8  1  0
  8  9  2  0
  8 10  1  0
 10 11  1  0
 11 12  1  0
 12 13  1  0
 13 14  2  0
 14 15  1  0
 14 16  1  0
 16 17  2  0
 16 18  1  0
 18 19  1  0
 19 20  2  0
 10 21  2  0
 21 22  1  0
 22 23  2  0
 23 24  1  0
 24 25  2  0
 25 26  1  0
 26 27  2  0
 27  7  1  0
 19 12  1  0
 27 22  1  0
  4 28  1  0
  4 29  1  0
  5 30  1  0
  5 31  1  0
  6 32  1  0
  6 33  1  0
 11 34  1  0
 11 35  1  0
 13 36  1  0
 23 37  1  0
 24 38  1  0
 25 39  1  0
 26 40  1  0
M  CHG  3   1  -1   2   1  18  -1
M  END
>  <UniqueID>  (5) 
5

>  <SMILES>  (5) 
[N-]=[N+]=NCCCn1c(=O)c(Cn2cc(F)c(=O)[n-]c2=O)nc2ccccc21

>  <Energy>  (5) 
51.18777303740779

>  <Genealogy>  (5) 
[N-]=[N+]=NCCCn1c(=O)c(Cn2cc(F)c(=O)[n-]c2=O)nc2ccccc21 (protonated)
[N-]=[N+]=NCCCn1c(=O)c(Cn2cc(F)c(=O)[n-]c2=O)nc2ccccc21 (3D coordinates assigned)
[N-]=[N+]=NCCCn1c(=O)c(Cn2cc(F)c(=O)[n-]c2=O)nc2ccccc21 (optimized conformer: 51.18777303740779 kcal/mol)

>  <smiles>  (5) 
[N-]=[N+]=NCCCn1c(=O)c(Cn2cc(F)c(=O)[nH]c2=O)nc2ccccc21

>  <score_type>  (5) 
oracle

>  <origin>  (5) 
adg

>  <m_score__min__energy>  (5) 
-9.6199999999999992

>  <m_primary>  (5) 
energy

$$$$
5:0
     RDKit          3D

 28 30  0  0  0  0  0  0  0  0999 V2000
   59.2450   35.3250   47.6880 F   0  0  0  0  0  0  0  0  0  0  0  0
   58.8730   34.4220   46.7480 C   0  0  0  0  0  0  0  0  0  0  0  0
   58.1550   33.2810   47.1190 C   0  0  0  0  0  0  0  0  0  0  0  0
   57.7730   32.3470   46.1510 C   0  0  0  0  0  0  0  0  0  0  0  0
   58.1020   32.5520   44.8010 C   0  0  0  0  0  0  0  0  0  0  0  0
   57.7210   31.5290   43.7670 C   0  0  0  0  0  0  0  0  0  0  0  0
   56.0700   30.8280   44.1150 S   0  0  0  0  0  0  0  0  0  0  0  0
   56.7010   29.3370   44.8800 C   0  0  0  0  0  0  0  0  0  0  0  0
   55.8930   28.3100   45.2530 N   0  0  0  0  0  0  0  0  0  0  0  0
   56.7620   27.4430   45.7900 C   0  0  0  0  0  0  0  0  0  0  0  0
   56.4880   26.2000   46.3530 C   0  0  0  0  0  0  0  0  0  0  0  0
   57.5710   25.4620   46.8660 C   0  0  0  0  0  0  0  0  0  0  0  0
   58.8840   25.9820   46.8020 C   0  0  0  0  0  0  0  0  0  0  0  0
   59.1230   27.2440   46.2270 C   0  0  0  0  0  0  0  0  0  0  0  0
   58.0260   27.9450   45.7300 C   0  0  0  0  0  0  0  0  0  0  0  0
   58.0190   29.1540   45.1520 N   0  0  0  0  0  0  0  0  0  0  0  0
   58.8260   33.7000   44.4350 C   0  0  0  0  0  0  0  0  0  0  0  0
   59.2080   34.6310   45.4060 C   0  0  0  0  0  0  0  0  0  0  0  0
   57.8902   33.1178   48.1741 H   0  0  0  0  0  0  0  0  0  0  0  0
   57.2126   31.4482   46.4480 H   0  0  0  0  0  0  0  0  0  0  0  0
   57.7071   32.0070   42.7764 H   0  0  0  0  0  0  0  0  0  0  0  0
   58.4596   30.7142   43.7920 H   0  0  0  0  0  0  0  0  0  0  0  0
   55.4610   25.8082   46.3955 H   0  0  0  0  0  0  0  0  0  0  0  0
   57.3949   24.4753   47.3192 H   0  0  0  0  0  0  0  0  0  0  0  0
   59.7240   25.3966   47.2041 H   0  0  0  0  0  0  0  0  0  0  0  0
   60.1390   27.6620   46.1719 H   0  0  0  0  0  0  0  0  0  0  0  0
   59.0930   33.8666   43.3810 H   0  0  0  0  0  0  0  0  0  0  0  0
   59.7726   35.5288   45.1142 H   0  0  0  0  0  0  0  0  0  0  0  0
  1  2  1  0
  2  3  2  0
  3  4  1  0
  4  5  2  0
  5  6  1  0
  6  7  1  0
  7  8  1  0
  8  9  2  0
  9 10  1  0
 10 11  2  0
 11 12  1  0
 12 13  2  0
 13 14  1  0
 14 15  2  0
 15 16  1  0
  5 17  1  0
 17 18  2  0
 18  2  1  0
 16  8  1  0
 15 10  1  0
  3 19  1  0
  4 20  1  0
  6 21  1  0
  6 22  1  0
 11 23  1  0
 12 24  1  0
 13 25  1  0
 14 26  1  0
 17 27  1  0
 18 28  1  0
M  CHG  1  16  -1
M  END
>  <UniqueID>  (6) 
6

>  <SMILES>  (6) 
Fc1ccc(CSc2nc3ccccc3[n-]2)cc1

>  <Energy>  (6) 
60.55801934205532

>  <Genealogy>  (6) 
Fc1ccc(CSc2nc3ccccc3[n-]2)cc1 (protonated)
Fc1ccc(CSc2nc3ccccc3[n-]2)cc1 (3D coordinates assigned)
Fc1ccc(CSc2nc3ccccc3[n-]2)cc1 (optimized conformer: 60.55801934205532 kcal/mol)

>  <smiles>  (6) 
Fc1ccc(CSc2nc3ccccc3[nH]2)cc1

>  <score_type>  (6) 
oracle

>  <origin>  (6) 
adg

>  <m_score__min__energy>  (6) 
-8.0800000000000001

>  <m_primary>  (6) 
energy

$$$$
6:0
     RDKit          3D

 30 31  0  0  0  0  0  0  0  0999 V2000
   56.3290   23.4560   46.8790 C   0  0  0  0  0  0  0  0  0  0  0  0
   55.9690   24.8110   47.1130 O   0  0  0  0  0  0  0  0  0  0  0  0
   55.8900   25.7590   46.0900 C   0  0  0  0  0  0  0  0  0  0  0  0
   54.7690   26.1420   45.6580 O   0  0  0  0  0  0  0  0  0  0  0  0
   57.1560   26.3080   45.4870 C   0  0  0  0  0  0  0  0  0  0  0  0
   57.9060   27.2370   46.3740 N   0  0  0  0  0  0  0  0  0  0  0  0
   59.1720   26.6580   46.8550 C   0  0  0  0  0  0  0  0  0  0  0  0
   60.3200   27.3170   46.0880 C   0  0  0  0  0  0  0  0  0  0  0  0
   59.6860   28.4120   45.2460 C   0  0  0  0  0  0  0  0  0  0  0  0
   58.2760   28.5500   45.8070 C   0  0  1  0  0  0  0  0  0  0  0  0
   57.2770   29.1360   44.8390 C   0  0  0  0  0  0  0  0  0  0  0  0
   57.4030   29.1350   43.4640 C   0  0  0  0  0  0  0  0  0  0  0  0
   56.2660   29.7510   42.9840 C   0  0  0  0  0  0  0  0  0  0  0  0
   55.5150   30.0820   44.0930 C   0  0  0  0  0  0  0  0  0  0  0  0
   56.1410   29.7000   45.1820 O   0  0  0  0  0  0  0  0  0  0  0  0
   56.4657   22.9415   47.8416 H   0  0  0  0  0  0  0  0  0  0  0  0
   55.5319   22.9583   46.3072 H   0  0  0  0  0  0  0  0  0  0  0  0
   57.2680   23.4196   46.3072 H   0  0  0  0  0  0  0  0  0  0  0  0
   57.8142   25.4621   45.2394 H   0  0  0  0  0  0  0  0  0  0  0  0
   56.8561   26.8907   44.6035 H   0  0  0  0  0  0  0  0  0  0  0  0
   59.2844   26.8510   47.9321 H   0  0  0  0  0  0  0  0  0  0  0  0
   59.1796   25.5704   46.6904 H   0  0  0  0  0  0  0  0  0  0  0  0
   61.0503   27.7479   46.7887 H   0  0  0  0  0  0  0  0  0  0  0  0
   60.8582   26.5887   45.4635 H   0  0  0  0  0  0  0  0  0  0  0  0
   60.2414   29.3556   45.3516 H   0  0  0  0  0  0  0  0  0  0  0  0
   59.6894   28.1717   44.1726 H   0  0  0  0  0  0  0  0  0  0  0  0
   58.2593   29.3054   46.6065 H   0  0  0  0  0  0  0  0  0  0  0  0
   58.2371   28.7275   42.8738 H   0  0  0  0  0  0  0  0  0  0  0  0
   56.0101   29.9399   41.9310 H   0  0  0  0  0  0  0  0  0  0  0  0
   54.5393   30.5893   44.0685 H   0  0  0  0  0  0  0  0  0  0  0  0
  1  2  1  0
  2  3  1  0
  3  4  2  0
  3  5  1  0
  5  6  1  0
  6  7  1  0
  7  8  1  0
  8  9  1  0
  9 10  1  0
 10 11  1  0
 11 12  2  0
 12 13  1  0
 13 14  2  0
 14 15  1  0
 10  6  1  0
 15 11  1  0
  1 16  1  0
  1 17  1  0
  1 18  1  0
  5 19  1  0
  5 20  1  0
  7 21  1  0
  7 22  1  0
  8 23  1  0
  8 24  1  0
  9 25  1  0
  9 26  1  0
 10 27  1  1
 12 28  1  0
 13 29  1  0
 14 30  1  0
M  END
>  <UniqueID>  (7) 
7

>  <SMILES>  (7) 
COC(=O)CN1CCC[C@H]1c1ccco1

>  <Energy>  (7) 
61.717175333916465

>  <Genealogy>  (7) 
COC(=O)CN1CCC[C@H]1c1ccco1 (chirality)
COC(=O)CN1CCC[C@H]1c1ccco1 (3D coordinates assigned)
COC(=O)CN1CCC[C@H]1c1ccco1 (nonaromatic ring conformer: 61.717175333916465 kcal/mol)

>  <smiles>  (7) 
COC(=O)CN1CCCC1c1ccco1

>  <score_type>  (7) 
oracle

>  <origin>  (7) 
adg

>  <m_score__min__energy>  (7) 
-5.9699999999999998

>  <m_primary>  (7) 
energy

$$$$
7:0
     RDKit          3D

 31 31  0  0  0  0  0  0  0  0999 V2000
   60.2931   31.6367   47.5667 H   0  0  0  0  0  0  0  0  0  0  0  0
   60.5680   30.9090   46.7890 C   0  0  0  0  0  0  0  0  0  0  0  0
   61.6200   30.6158   46.6573 H   0  0  0  0  0  0  0  0  0  0  0  0
   59.6310   30.3850   46.0100 C   0  0  0  0  0  0  0  0  0  0  0  0
   58.5793   30.6789   46.1426 H   0  0  0  0  0  0  0  0  0  0  0  0
   59.9770   29.4610   45.0220 O   0  0  0  0  0  0  0  0  0  0  0  0
   59.9470   28.0540   45.2540 C   0  0  0  0  0  0  0  0  0  0  0  0
   60.1755   27.5313   44.3135 H   0  0  0  0  0  0  0  0  0  0  0  0
   60.6938   27.8145   46.0253 H   0  0  0  0  0  0  0  0  0  0  0  0
   58.5700   27.5980   45.7570 C   0  0  0  0  0  0  0  0  0  0  0  0
   58.6166   26.5191   45.9660 H   0  0  0  0  0  0  0  0  0  0  0  0
   58.3439   28.1906   46.6557 H   0  0  0  0  0  0  0  0  0  0  0  0
   57.4330   27.8490   44.7570 C   0  0  0  0  0  0  0  0  0  0  0  0
   57.3240   26.9642   44.1126 H   0  0  0  0  0  0  0  0  0  0  0  0
   56.5119   28.0389   45.3276 H   0  0  0  0  0  0  0  0  0  0  0  0
   57.6960   29.0180   43.9160 N   0  0  0  0  0  0  0  0  0  0  0  0
   58.5830   29.0780   43.3680 H   0  0  0  0  0  0  0  0  0  0  0  0
   56.7390   30.0770   43.7910 C   0  0  0  0  0  0  0  0  0  0  0  0
   55.6920   30.0680   44.4940 O   0  0  0  0  0  0  0  0  0  0  0  0
   57.0170   31.2050   42.8810 C   0  0  0  0  0  0  0  0  0  0  0  0
   56.5662   31.1698   41.8782 H   0  0  0  0  0  0  0  0  0  0  0  0
   57.7760   32.2700   43.1800 C   0  0  0  0  0  0  0  0  0  0  0  0
   58.4033   32.6817   42.3757 H   0  0  0  0  0  0  0  0  0  0  0  0
   57.8420   32.9370   44.4950 C   0  0  0  0  0  0  0  0  0  0  0  0
   57.1370   32.5470   45.5310 O   0  0  0  0  0  0  0  0  0  0  0  0
   57.4480   33.2990   46.5620 C   0  0  0  0  0  0  0  0  0  0  0  0
   57.0086   33.2095   47.5665 H   0  0  0  0  0  0  0  0  0  0  0  0
   58.4080   34.2170   46.1950 C   0  0  0  0  0  0  0  0  0  0  0  0
   58.8704   34.9820   46.8360 H   0  0  0  0  0  0  0  0  0  0  0  0
   58.6720   33.9830   44.8620 C   0  0  0  0  0  0  0  0  0  0  0  0
   59.3918   34.5160   44.2234 H   0  0  0  0  0  0  0  0  0  0  0  0
  1  2  1  0
  2  3  1  0
  2  4  2  0
  4  5  1  0
  4  6  1  0
  6  7  1  0
  7  8  1  0
  7  9  1  0
  7 10  1  0
 10 11  1  0
 10 12  1  0
 10 13  1  0
 13 14  1  0
 13 15  1  0
 13 16  1  0
 16 17  1  0
 16 18  1  0
 18 19  2  0
 18 20  1  0
 20 21  1  0
 20 22  2  0
 22 23  1  0
 22 24  1  0
 24 25  1  0
 25 26  1  0
 26 27  1  0
 26 28  2  0
 28 29  1  0
 28 30  1  0
 30 31  1  0
 30 24  2  0
M  END
>  <UniqueID>  (8) 
8

>  <SMILES>  (8) 
C=COCCCNC(=O)/C=C\c1ccco1

>  <Energy>  (8) 
51.602527974543534

>  <Genealogy>  (8) 
C=COCCCNC(=O)/C=C\c1ccco1 (cis-trans isomerization)
C=COCCCNC(=O)/C=C\c1ccco1 (3D coordinates assigned)
C=COCCCNC(=O)/C=C\c1ccco1 (optimized conformer: 51.602527974543534 kcal/mol)

>  <smiles>  (8) 
C=COCCCNC(=O)C=Cc1ccco1

>  <score_type>  (8) 
oracle

>  <origin>  (8) 
adg

>  <m_score__min__energy>  (8) 
-6.1500000000000004

>  <m_primary>  (8) 
energy

$$$$
8:0
     RDKit          3D

 43 46  0  0  0  0  0  0  0  0999 V2000
   59.2790   28.5030   48.2840 C   0  0  0  0  0  0  0  0  0  0  0  0
   58.9960   29.8310   48.9350 C   0  0  0  0  0  0  0  0  0  0  0  0
   58.5050   29.8510   50.2090 N   0  0  0  0  0  0  0  0  0  0  0  0
   58.2080   31.0200   50.8310 C   0  0  0  0  0  0  0  0  0  0  0  0
   58.4040   32.2010   50.1950 N   0  0  0  0  0  0  0  0  0  0  0  0
   58.8990   32.2410   48.9340 C   0  0  0  0  0  0  0  0  0  0  0  0
   59.2190   31.0550   48.2610 C   0  0  0  0  0  0  0  0  0  0  0  0
   59.7500   31.1310   46.8770 C   0  0  0  0  0  0  0  0  0  0  0  0
   60.6000   30.2880   46.4840 O   0  0  0  0  0  0  0  0  0  0  0  0
   59.3640   32.2050   45.9970 N   0  0  0  0  0  0  0  0  0  0  0  0
   60.1110   33.4670   46.1010 C   0  0  0  0  0  0  0  0  0  0  0  0
   59.5970   34.5210   45.1090 C   0  0  0  0  0  0  0  0  0  0  0  0
   58.0660   34.5980   45.1430 C   0  0  0  0  0  0  0  0  0  0  0  0
   57.3780   33.2280   44.9330 C   0  0  0  0  0  0  0  0  0  0  0  0
   58.3650   32.0430   44.9150 C   0  0  2  0  0  0  0  0  0  0  0  0
   57.6400   30.7210   44.9640 C   0  0  0  0  0  0  0  0  0  0  0  0
   58.2550   29.5420   45.1810 N   0  0  0  0  0  0  0  0  0  0  0  0
   57.2040   28.6960   45.2060 C   0  0  0  0  0  0  0  0  0  0  0  0
   57.3280   27.2600   45.4720 C   0  0  0  0  0  0  0  0  0  0  0  0
   58.4750   26.4940   45.3060 C   0  0  0  0  0  0  0  0  0  0  0  0
   58.2840   25.1430   45.6160 C   0  0  0  0  0  0  0  0  0  0  0  0
   56.9890   24.8410   46.0230 C   0  0  0  0  0  0  0  0  0  0  0  0
   56.0840   26.2570   45.9950 S   0  0  0  0  0  0  0  0  0  0  0  0
   56.0280   29.3230   45.0130 N   0  0  0  0  0  0  0  0  0  0  0  0
   56.3400   30.5740   44.8660 O   0  0  0  0  0  0  0  0  0  0  0  0
   59.4414   27.7411   49.0606 H   0  0  0  0  0  0  0  0  0  0  0  0
   58.4228   28.2117   47.6579 H   0  0  0  0  0  0  0  0  0  0  0  0
   60.1796   28.5861   47.6579 H   0  0  0  0  0  0  0  0  0  0  0  0
   58.3400   28.9570   50.7250 H   0  0  0  0  0  0  0  0  0  0  0  0
   57.8067   31.0092   51.8551 H   0  0  0  0  0  0  0  0  0  0  0  0
   59.0503   33.2102   48.4363 H   0  0  0  0  0  0  0  0  0  0  0  0
   60.0053   33.8595   47.1232 H   0  0  0  0  0  0  0  0  0  0  0  0
   61.1646   33.2598   45.8623 H   0  0  0  0  0  0  0  0  0  0  0  0
   60.0138   35.5029   45.3776 H   0  0  0  0  0  0  0  0  0  0  0  0
   59.9138   34.2357   44.0950 H   0  0  0  0  0  0  0  0  0  0  0  0
   57.7584   34.9966   46.1210 H   0  0  0  0  0  0  0  0  0  0  0  0
   57.7546   35.2489   44.3127 H   0  0  0  0  0  0  0  0  0  0  0  0
   56.6587   33.0702   45.7501 H   0  0  0  0  0  0  0  0  0  0  0  0
   56.8888   33.2580   43.9482 H   0  0  0  0  0  0  0  0  0  0  0  0
   58.9142   32.0414   43.9619 H   0  0  0  0  0  0  0  0  0  0  0  0
   59.4357   26.9075   44.9655 H   0  0  0  0  0  0  0  0  0  0  0  0
   59.0831   24.3905   45.5445 H   0  0  0  0  0  0  0  0  0  0  0  0
   56.6203   23.8462   46.3134 H   0  0  0  0  0  0  0  0  0  0  0  0
  1  2  1  0
  2  3  2  0
  3  4  1  0
  4  5  2  0
  5  6  1  0
  6  7  2  0
  7  8  1  0
  8  9  2  0
  8 10  1  0
 10 11  1  0
 11 12  1  0
 12 13  1  0
 13 14  1  0
 14 15  1  0
 15 16  1  0
 16 17  2  0
 17 18  1  0
 18 19  1  0
 19 20  2  0
 20 21  1  0
 21 22  2  0
 22 23  1  0
 18 24  2  0
 24 25  1  0
  7  2  1  0
 15 10  1  0
 25 16  1  0
 23 19  1  0
  1 26  1  0
  1 27  1  0
  1 28  1  0
  3 29  1  0
  4 30  1  0
  6 31  1  0
 11 32  1  0
 11 33  1  0
 12 34  1  0
 12 35  1  0
 13 36  1  0
 13 37  1  0
 14 38  1  0
 14 39  1  0
 15 40  1  6
 20 41  1  0
 21 42  1  0
 22 43  1  0
M  CHG  1   3   1
M  END
>  <UniqueID>  (9) 
9

>  <SMILES>  (9) 
Cc1[nH+]cncc1C(=O)N1CCCC[C@@H]1c1nc(-c2cccs2)no1

>  <Energy>  (9) 
113.82101311472321

>  <Genealogy>  (9) 
Cc1[nH+]cncc1C(=O)N1CCCCC1c1nc(-c2cccs2)no1 (protonated)
Cc1[nH+]cncc1C(=O)N1CCCC[C@@H]1c1nc(-c2cccs2)no1 (chirality)
Cc1[nH+]cncc1C(=O)N1CCCC[C@@H]1c1nc(-c2cccs2)no1 (3D coordinates assigned)
Cc1[nH+]cncc1C(=O)N1CCCC[C@@H]1c1nc(-c2cccs2)no1 (nonaromatic ring conformer: 113.82101311472321 kcal/mol)

>  <smiles>  (9) 
Cc1ncncc1C(=O)N1CCCCC1c1nc(-c2cccs2)no1

>  <score_type>  (9) 
oracle

>  <origin>  (9) 
adg

>  <m_score__min__energy>  (9) 
-6.5

>  <m_primary>  (9) 
energy

$$$$
9:0
     RDKit          3D

 27 27  0  0  0  0  0  0  0  0999 V2000
   58.9450   34.5680   45.2440 C   0  0  0  0  0  0  0  0  0  0  0  0
   57.9230   33.7620   46.0100 C   0  0  0  0  0  0  0  0  0  0  0  0
   57.0620   33.0240   45.0050 C   0  0  0  0  0  0  0  0  0  0  0  0
   57.8840   32.3220   43.9480 C   0  0  0  0  0  0  0  0  0  0  0  0
   57.0280   31.1770   43.3890 C   0  0  0  0  0  0  0  0  0  0  0  0
   56.3650   30.5050   44.5040 N   0  0  0  0  0  0  0  0  0  0  0  0
   57.0150   29.6010   45.1570 C   0  0  0  0  0  0  0  0  0  0  0  0
   57.8080   30.0690   46.1650 N   0  0  0  0  0  0  0  0  0  0  0  0
   58.5130   29.1640   46.8820 C   0  0  0  0  0  0  0  0  0  0  0  0
   58.4510   27.8090   46.6250 C   0  0  0  0  0  0  0  0  0  0  0  0
   57.6300   27.3650   45.5880 C   0  0  0  0  0  0  0  0  0  0  0  0
   56.9370   28.2860   44.8860 N   0  0  0  0  0  0  0  0  0  0  0  0
   59.6061   35.0894   45.9518 H   0  0  0  0  0  0  0  0  0  0  0  0
   59.5428   33.8956   44.6111 H   0  0  0  0  0  0  0  0  0  0  0  0
   58.4304   35.3060   44.6111 H   0  0  0  0  0  0  0  0  0  0  0  0
   58.4318   33.0410   46.6667 H   0  0  0  0  0  0  0  0  0  0  0  0
   57.3027   34.4233   46.6329 H   0  0  0  0  0  0  0  0  0  0  0  0
   56.4590   32.2748   45.5390 H   0  0  0  0  0  0  0  0  0  0  0  0
   56.4269   33.7657   44.4985 H   0  0  0  0  0  0  0  0  0  0  0  0
   58.1426   33.0260   43.1433 H   0  0  0  0  0  0  0  0  0  0  0  0
   58.8201   31.9347   44.3766 H   0  0  0  0  0  0  0  0  0  0  0  0
   56.2735   31.5813   42.6982 H   0  0  0  0  0  0  0  0  0  0  0  0
   57.6635   30.4636   42.8439 H   0  0  0  0  0  0  0  0  0  0  0  0
   59.1583   29.5203   47.6985 H   0  0  0  0  0  0  0  0  0  0  0  0
   59.0357   27.0955   47.2243 H   0  0  0  0  0  0  0  0  0  0  0  0
   57.5498   26.2942   45.3493 H   0  0  0  0  0  0  0  0  0  0  0  0
   56.3220   27.9540   44.1100 H   0  0  0  0  0  0  0  0  0  0  0  0
  1  2  1  0
  2  3  1  0
  3  4  1  0
  4  5  1  0
  5  6  1  0
  6  7  2  3
  7  8  1  0
  8  9  2  0
  9 10  1  0
 10 11  2  0
 11 12  1  0
 12  7  1  0
  1 13  1  0
  1 14  1  0
  1 15  1  0
  2 16  1  0
  2 17  1  0
  3 18  1  0
  3 19  1  0
  4 20  1  0
  4 21  1  0
  5 22  1  0
  5 23  1  0
  9 24  1  0
 10 25  1  0
 11 26  1  0
 12 27  1  0
M  END
>  <smiles>  (10) 
CCCCCN=c1nccc[nH]1

>  <score_type>  (10) 
oracle

>  <origin>  (10) 
adg

>  <m_score__min__energy>  (10) 
-4.9900000000000002

>  <m_primary>  (10) 
energy

$$$$
10:0
     RDKit          3D

 41 43  0  0  0  0  0  0  0  0999 V2000
   57.7970   32.1390   42.8470 C   0  0  0  0  0  0  0  0  0  0  0  0
   57.0100   31.2160   42.2880 C   0  0  0  0  0  0  0  0  0  0  0  0
   56.3040   30.1720   43.1080 C   0  0  0  0  0  0  0  0  0  0  0  0
   56.3840   30.4980   44.4940 O   0  0  0  0  0  0  0  0  0  0  0  0
   57.4350   30.0840   45.3230 C   0  0  0  0  0  0  0  0  0  0  0  0
   58.4110   30.9570   45.6940 N   0  0  0  0  0  0  0  0  0  0  0  0
   59.4370   30.5800   46.5080 C   0  0  0  0  0  0  0  0  0  0  0  0
   60.4780   31.5600   46.9020 C   0  0  0  0  0  0  0  0  0  0  0  0
   60.1690   32.9290   47.0220 C   0  0  0  0  0  0  0  0  0  0  0  0
   61.1540   33.8500   47.3920 C   0  0  0  0  0  0  0  0  0  0  0  0
   62.4570   33.4180   47.6480 C   0  0  0  0  0  0  0  0  0  0  0  0
   62.7780   32.0640   47.5340 C   0  0  0  0  0  0  0  0  0  0  0  0
   61.7970   31.1380   47.1640 C   0  0  0  0  0  0  0  0  0  0  0  0
   59.4960   29.2940   46.9530 N   0  0  0  0  0  0  0  0  0  0  0  0
   58.5530   28.3850   46.6020 C   0  0  0  0  0  0  0  0  0  0  0  0
   57.4850   28.7660   45.7870 C   0  0  0  0  0  0  0  0  0  0  0  0
   56.4770   27.8010   45.4630 N   0  0  0  0  0  0  0  0  0  0  0  0
   56.4090   26.5440   46.2080 C   0  0  0  0  0  0  0  0  0  0  0  0
   57.8350   26.0120   46.5050 C   0  0  0  0  0  0  0  0  0  0  0  0
   57.7630   24.8710   47.5290 C   0  0  0  0  0  0  0  0  0  0  0  0
   58.4910   25.4960   45.2120 C   0  0  0  0  0  0  0  0  0  0  0  0
   58.6440   27.0630   47.0520 O   0  0  0  0  0  0  0  0  0  0  0  0
   58.2986   32.8885   42.2173 H   0  0  0  0  0  0  0  0  0  0  0  0
   57.9435   32.1497   43.9371 H   0  0  0  0  0  0  0  0  0  0  0  0
   56.8744   31.2197   41.1964 H   0  0  0  0  0  0  0  0  0  0  0  0
   55.2473   30.1258   42.8059 H   0  0  0  0  0  0  0  0  0  0  0  0
   56.7853   29.1973   42.9399 H   0  0  0  0  0  0  0  0  0  0  0  0
   59.1445   33.2765   46.8230 H   0  0  0  0  0  0  0  0  0  0  0  0
   60.9019   34.9170   47.4816 H   0  0  0  0  0  0  0  0  0  0  0  0
   63.2302   34.1442   47.9393 H   0  0  0  0  0  0  0  0  0  0  0  0
   63.8047   31.7246   47.7356 H   0  0  0  0  0  0  0  0  0  0  0  0
   62.0569   30.0727   47.0769 H   0  0  0  0  0  0  0  0  0  0  0  0
   55.7460   28.0110   44.7470 H   0  0  0  0  0  0  0  0  0  0  0  0
   55.8808   26.7140   47.1578 H   0  0  0  0  0  0  0  0  0  0  0  0
   55.8702   25.8000   45.6029 H   0  0  0  0  0  0  0  0  0  0  0  0
   57.7894   25.2890   48.5462 H   0  0  0  0  0  0  0  0  0  0  0  0
   56.8277   24.3097   47.3874 H   0  0  0  0  0  0  0  0  0  0  0  0
   58.6204   24.1966   47.3874 H   0  0  0  0  0  0  0  0  0  0  0  0
   59.3322   24.8344   45.4664 H   0  0  0  0  0  0  0  0  0  0  0  0
   57.7496   24.9365   44.6227 H   0  0  0  0  0  0  0  0  0  0  0  0
   58.8601   26.3483   44.6227 H   0  0  0  0  0  0  0  0  0  0  0  0
  1  2  2  0
  2  3  1  0
  3  4  1  0
  4  5  1  0
  5  6  2  0
  6  7  1  0
  7  8  1  0
  8  9  2  0
  9 10  1  0
 10 11  2  0
 11 12  1  0
 12 13  2  0
  7 14  2  0
 14 15  1  0
 15 16  2  0
 16 17  1  0
 17 18  1  0
 18 19  1  0
 19 20  1  0
 19 21  1  0
 19 22  1  0
 16  5  1  0
 13  8  1  0
 22 15  1  0
  1 23  1  0
  1 24  1  0
  2 25  1  0
  3 26  1  0
  3 27  1  0
  9 28  1  0
 10 29  1  0
 11 30  1  0
 12 31  1  0
 13 32  1  0
 17 33  1  0
 18 34  1  0
 18 35  1  0
 20 36  1  0
 20 37  1  0
 20 38  1  0
 21 39  1  0
 21 40  1  0
 21 41  1  0
M  END
>  <UniqueID>  (11) 
10

>  <SMILES>  (11) 
C=CCOc1nc(-c2ccccc2)nc2c1NCC(C)(C)O2

>  <Energy>  (11) 
38.12266763220078

>  <Genealogy>  (11) 
C=CCOc1nc(-c2ccccc2)nc2c1NCC(C)(C)O2 (3D coordinates assigned)
C=CCOc1nc(-c2ccccc2)nc2c1NCC(C)(C)O2 (nonaromatic ring conformer: 38.12266763220078 kcal/mol)

>  <smiles>  (11) 
C=CCOc1nc(-c2ccccc2)nc2c1NCC(C)(C)O2

>  <score_type>  (11) 
oracle

>  <origin>  (11) 
adg

>  <m_score__min__energy>  (11) 
-6.7599999999999998

>  <m_primary>  (11) 
energy

$$$$
11:0
     RDKit          3D

 56 60  0  0  1  0  0  0  0  0999 V2000
   59.3770   29.7340   51.3140 C   0  0  0  0  0  0  0  0  0  0  0  0
   59.8150   29.6520   49.8950 C   0  0  0  0  0  0  0  0  0  0  0  0
   59.2890   28.6520   49.1280 N   0  0  0  0  0  0  0  0  0  0  0  0
   59.6230   28.4960   47.8350 C   0  0  0  0  0  0  0  0  0  0  0  0
   59.0130   27.4080   47.1060 C   0  0  0  0  0  0  0  0  0  0  0  0
   58.6400   26.2830   47.8110 C   0  0  0  0  0  0  0  0  0  0  0  0
   58.0460   25.1980   47.1620 C   0  0  0  0  0  0  0  0  0  0  0  0
   57.8220   25.2360   45.7910 C   0  0  0  0  0  0  0  0  0  0  0  0
   57.2920   24.3700   44.9610 O   0  0  0  0  0  0  0  0  0  0  0  0
   57.3000   24.8720   43.7400 C   0  0  0  0  0  0  0  0  0  0  0  0
   57.8620   26.1400   43.7540 C   0  0  0  0  0  0  0  0  0  0  0  0
   58.0830   27.0840   42.6380 C   0  0  0  0  0  0  0  0  0  0  0  0
   58.1930   26.3560   45.0830 C   0  0  0  0  0  0  0  0  0  0  0  0
   58.7770   27.4160   45.7470 C   0  0  0  0  0  0  0  0  0  0  0  0
   60.5250   29.3870   47.2920 C   0  0  0  0  0  0  0  0  0  0  0  0
   61.0680   30.4050   48.0510 C   0  0  0  0  0  0  0  0  0  0  0  0
   61.8980   31.2140   47.5320 N   0  0  0  0  0  0  0  0  0  0  0  0
   61.9150   32.6360   47.7960 C   0  0  1  0  0  0  0  0  0  0  0  0
   63.1800   33.2850   47.2560 C   0  0  0  0  0  0  0  0  0  0  0  0
   60.7440   33.1840   47.0270 C   0  0  0  0  0  0  0  0  0  0  0  0
   60.5420   34.5580   47.0880 C   0  0  0  0  0  0  0  0  0  0  0  0
   59.4610   35.0610   46.3770 C   0  0  0  0  0  0  0  0  0  0  0  0
   58.6320   34.2360   45.6490 C   0  0  0  0  0  0  0  0  0  0  0  0
   58.8360   32.8740   45.5910 C   0  0  0  0  0  0  0  0  0  0  0  0
   57.9830   31.9670   44.8330 C   0  0  0  0  0  0  0  0  0  0  0  0
   57.8530   32.0110   43.4820 C   0  0  0  0  0  0  0  0  0  0  0  0
   57.0300   31.1300   42.7920 C   0  0  0  0  0  0  0  0  0  0  0  0
   56.3310   30.1850   43.5180 C   0  0  0  0  0  0  0  0  0  0  0  0
   55.5570   29.3420   42.9730 O   0  0  0  0  0  0  0  0  0  0  0  0
   56.4760   30.1620   44.8480 N   0  0  0  0  0  0  0  0  0  0  0  0
   57.2650   31.0090   45.4890 N   0  0  0  0  0  0  0  0  0  0  0  0
   59.9090   32.3740   46.2970 C   0  0  0  0  0  0  0  0  0  0  0  0
   60.6940   30.5140   49.3520 N   0  0  0  0  0  0  0  0  0  0  0  0
   60.2416   29.5721   51.9745 H   0  0  0  0  0  0  0  0  0  0  0  0
   58.9480   30.7281   51.5085 H   0  0  0  0  0  0  0  0  0  0  0  0
   58.6175   28.9624   51.5085 H   0  0  0  0  0  0  0  0  0  0  0  0
   58.8122   26.2396   48.8966 H   0  0  0  0  0  0  0  0  0  0  0  0
   57.7539   24.3085   47.7394 H   0  0  0  0  0  0  0  0  0  0  0  0
   56.9177   24.3605   42.8443 H   0  0  0  0  0  0  0  0  0  0  0  0
   58.3163   28.0804   43.0414 H   0  0  0  0  0  0  0  0  0  0  0  0
   58.9231   26.7323   42.0211 H   0  0  0  0  0  0  0  0  0  0  0  0
   57.1741   27.1417   42.0211 H   0  0  0  0  0  0  0  0  0  0  0  0
   59.0665   28.3051   45.1676 H   0  0  0  0  0  0  0  0  0  0  0  0
   60.8169   29.2850   46.2363 H   0  0  0  0  0  0  0  0  0  0  0  0
   61.8721   32.8340   48.8772 H   0  0  0  0  0  0  0  0  0  0  0  0
   63.8126   33.6096   48.0953 H   0  0  0  0  0  0  0  0  0  0  0  0
   63.7311   32.5583   46.6411 H   0  0  0  0  0  0  0  0  0  0  0  0
   62.9112   34.1565   46.6411 H   0  0  0  0  0  0  0  0  0  0  0  0
   61.2056   35.2139   47.6706 H   0  0  0  0  0  0  0  0  0  0  0  0
   59.2619   36.1427   46.3953 H   0  0  0  0  0  0  0  0  0  0  0  0
   57.7859   34.6752   45.1001 H   0  0  0  0  0  0  0  0  0  0  0  0
   58.4168   32.7676   42.9166 H   0  0  0  0  0  0  0  0  0  0  0  0
   56.9373   31.1833   41.6972 H   0  0  0  0  0  0  0  0  0  0  0  0
   55.9610   29.4600   45.4210 H   0  0  0  0  0  0  0  0  0  0  0  0
   60.1028   31.2914   46.2751 H   0  0  0  0  0  0  0  0  0  0  0  0
   61.0730   31.2600   49.9600 H   0  0  0  0  0  0  0  0  0  0  0  0
  1  2  1  0
  2  3  2  0
  3  4  1  0
  4  5  1  0
  5  6  2  0
  6  7  1  0
  7  8  2  0
  8  9  1  0
  9 10  1  0
 10 11  2  0
 11 12  1  0
 11 13  1  0
 13 14  2  0
  4 15  2  0
 15 16  1  0
 16 17  2  0
 17 18  1  0
 18 19  1  0
 18 20  1  0
 20 21  2  0
 21 22  1  0
 22 23  2  0
 23 24  1  0
 24 25  1  0
 25 26  1  0
 26 27  2  0
 27 28  1  0
 28 29  2  0
 28 30  1  0
 30 31  1  0
 24 32  2  0
 16 33  1  0
 33  2  1  0
 14  5  1  0
 32 20  1  0
 13  8  1  0
 31 25  2  0
  1 34  1  0
  1 35  1  0
  1 36  1  0
  6 37  1  0
  7 38  1  0
 10 39  1  0
 12 40  1  0
 12 41  1  0
 12 42  1  0
 14 43  1  0
 15 44  1  0
 18 45  1  1
 19 46  1  0
 19 47  1  0
 19 48  1  0
 21 49  1  0
 22 50  1  0
 23 51  1  0
 26 52  1  0
 27 53  1  0
 30 54  1  0
 32 55  1  0
 33 56  1  0
M  END
>  <smiles>  (12) 
Cc1nc(-c2ccc3occ(C)c3c2)cc(=NC(C)c2cccc(-c3ccc(=O)[nH]n3)c2)[nH]1

>  <score_type>  (12) 
oracle

>  <origin>  (12) 
adg

>  <m_score__min__energy>  (12) 
-10.630000000000001

>  <m_primary>  (12) 
energy

$$$$
12:0
     RDKit          3D

 20 20  0  0  0  0  0  0  0  0999 V2000
   55.1380   26.3860   45.9980 N   0  0  0  0  0  0  0  0  0  0  0  0
   56.5930   26.4150   45.9140 C   0  0  0  0  0  0  0  0  0  0  0  0
   57.0650   27.8030   45.9160 C   0  0  0  0  0  0  0  0  0  0  0  0
   57.4520   28.9440   45.9170 C   0  0  0  0  0  0  0  0  0  0  0  0
   57.9040   30.2810   45.9210 C   0  0  0  0  0  0  0  0  0  0  0  0
   58.2910   31.4230   45.9230 C   0  0  0  0  0  0  0  0  0  0  0  0
   58.7520   32.7860   45.9260 C   0  0  0  0  0  0  0  0  0  0  0  0
   59.5400   33.2650   46.9780 C   0  0  0  0  0  0  0  0  0  0  0  0
   59.9800   34.5910   46.9680 C   0  0  0  0  0  0  0  0  0  0  0  0
   59.6250   35.4210   45.9020 C   0  0  0  0  0  0  0  0  0  0  0  0
   58.8580   34.9370   44.8880 N   0  0  0  0  0  0  0  0  0  0  0  0
   58.4180   33.6510   44.8770 C   0  0  0  0  0  0  0  0  0  0  0  0
   54.7670   27.0880   45.3170 H   0  0  0  0  0  0  0  0  0  0  0  0
   54.8570   26.7200   46.9490 H   0  0  0  0  0  0  0  0  0  0  0  0
   57.0189   25.8836   46.7778 H   0  0  0  0  0  0  0  0  0  0  0  0
   56.9119   25.9252   44.9821 H   0  0  0  0  0  0  0  0  0  0  0  0
   59.8124   32.5996   47.8105 H   0  0  0  0  0  0  0  0  0  0  0  0
   60.5994   34.9773   47.7909 H   0  0  0  0  0  0  0  0  0  0  0  0
   59.9659   36.4667   45.8824 H   0  0  0  0  0  0  0  0  0  0  0  0
   57.7987   33.2894   44.0429 H   0  0  0  0  0  0  0  0  0  0  0  0
  1  2  1  0
  2  3  1  0
  3  4  3  0
  4  5  1  0
  5  6  3  0
  6  7  1  0
  7  8  2  0
  8  9  1  0
  9 10  2  0
 10 11  1  0
 11 12  2  0
 12  7  1  0
  1 13  1  0
  1 14  1  0
  2 15  1  0
  2 16  1  0
  8 17  1  0
  9 18  1  0
 10 19  1  0
 12 20  1  0
M  END
>  <UniqueID>  (13) 
11

>  <SMILES>  (13) 
NCC#CC#Cc1cccnc1

>  <Energy>  (13) 
10.764769467896924

>  <Genealogy>  (13) 
NCC#CC#Cc1cccnc1 (3D coordinates assigned)
NCC#CC#Cc1cccnc1 (optimized conformer: 10.764769467896924 kcal/mol)

>  <smiles>  (13) 
NCC#CC#Cc1cccnc1

>  <score_type>  (13) 
oracle

>  <origin>  (13) 
adg

>  <m_score__min__energy>  (13) 
-4.7000000000000002

>  <m_primary>  (13) 
energy

$$$$
13:0
     RDKit          3D

 56 59  0  0  0  0  0  0  0  0999 V2000
   56.2690   29.9790   43.0020 C   0  0  0  0  0  0  0  0  0  0  0  0
   57.1810   31.1340   43.4130 C   0  0  0  0  0  0  0  0  0  0  0  0
   57.5270   31.0640   44.8450 N   0  0  0  0  0  0  0  0  0  0  0  0
   57.6570   29.7920   45.5150 C   0  0  0  0  0  0  0  0  0  0  0  0
   56.6490   29.0380   45.6020 O   0  0  0  0  0  0  0  0  0  0  0  0
   58.9590   29.3530   46.1580 C   0  0  2  0  0  0  0  0  0  0  0  0
   59.3150   27.8720   45.9360 C   0  0  0  0  0  0  0  0  0  0  0  0
   59.2280   27.6200   47.4360 C   0  0  0  0  0  0  0  0  0  0  0  0
   58.8600   29.0850   47.6630 C   0  0  1  0  0  0  0  0  0  0  0  0
   59.9530   29.8920   48.2800 C   0  0  0  0  0  0  0  0  0  0  0  0
   60.2510   29.8110   49.7250 C   0  0  0  0  0  0  0  0  0  0  0  0
   61.2840   29.2190   50.1420 O   0  0  0  0  0  0  0  0  0  0  0  0
   59.3440   30.3630   50.6360 O   0  0  0  0  0  0  0  0  0  0  0  0
   58.5400   31.4950   50.3300 C   0  0  0  0  0  0  0  0  0  0  0  0
   60.6280   30.5910   47.3650 C   0  0  0  0  0  0  0  0  0  0  0  0
   61.7070   31.5640   47.6380 C   0  0  0  0  0  0  0  0  0  0  0  0
   61.7710   32.7810   46.9420 C   0  0  0  0  0  0  0  0  0  0  0  0
   62.8190   33.6700   47.1850 C   0  0  0  0  0  0  0  0  0  0  0  0
   63.8040   33.3290   48.1130 C   0  0  0  0  0  0  0  0  0  0  0  0
   63.7420   32.1380   48.7680 N   0  0  0  0  0  0  0  0  0  0  0  0
   62.7290   31.2550   48.5480 C   0  0  0  0  0  0  0  0  0  0  0  0
   60.1180   30.3550   45.9830 C   0  0  0  0  0  0  0  0  0  0  0  0
   57.9130   32.2560   45.5610 C   0  0  0  0  0  0  0  0  0  0  0  0
   57.7890   32.3000   46.9600 C   0  0  0  0  0  0  0  0  0  0  0  0
   58.1630   33.4450   47.6680 C   0  0  0  0  0  0  0  0  0  0  0  0
   58.6590   34.5590   46.9870 C   0  0  0  0  0  0  0  0  0  0  0  0
   58.7720   34.5400   45.5880 C   0  0  0  0  0  0  0  0  0  0  0  0
   59.3420   35.7240   44.8640 C   0  0  0  0  0  0  0  0  0  0  0  0
   58.4140   33.3810   44.8810 C   0  0  0  0  0  0  0  0  0  0  0  0
   55.8773   29.4829   43.9022 H   0  0  0  0  0  0  0  0  0  0  0  0
   55.4317   30.3679   42.4039 H   0  0  0  0  0  0  0  0  0  0  0  0
   56.8415   29.2547   42.4039 H   0  0  0  0  0  0  0  0  0  0  0  0
   58.1056   31.0886   42.8189 H   0  0  0  0  0  0  0  0  0  0  0  0
   56.6463   32.0781   43.2321 H   0  0  0  0  0  0  0  0  0  0  0  0
   58.5725   27.3164   45.3444 H   0  0  0  0  0  0  0  0  0  0  0  0
   60.2229   27.5972   45.3791 H   0  0  0  0  0  0  0  0  0  0  0  0
   58.4404   26.9092   47.7267 H   0  0  0  0  0  0  0  0  0  0  0  0
   60.0751   27.1697   47.9742 H   0  0  0  0  0  0  0  0  0  0  0  0
   57.9715   29.2933   48.2772 H   0  0  0  0  0  0  0  0  0  0  0  0
   58.2034   31.9689   51.2639 H   0  0  0  0  0  0  0  0  0  0  0  0
   59.1295   32.2160   49.7447 H   0  0  0  0  0  0  0  0  0  0  0  0
   57.6650   31.1759   49.7447 H   0  0  0  0  0  0  0  0  0  0  0  0
   60.9949   33.0342   46.2047 H   0  0  0  0  0  0  0  0  0  0  0  0
   62.8682   34.6301   46.6503 H   0  0  0  0  0  0  0  0  0  0  0  0
   64.6320   34.0243   48.3153 H   0  0  0  0  0  0  0  0  0  0  0  0
   64.4900   31.8940   49.4570 H   0  0  0  0  0  0  0  0  0  0  0  0
   62.7120   30.2957   49.0859 H   0  0  0  0  0  0  0  0  0  0  0  0
   59.7554   31.2934   45.5380 H   0  0  0  0  0  0  0  0  0  0  0  0
   60.9003   29.9726   45.3108 H   0  0  0  0  0  0  0  0  0  0  0  0
   57.3949   31.4273   47.5013 H   0  0  0  0  0  0  0  0  0  0  0  0
   58.0666   33.4691   48.7635 H   0  0  0  0  0  0  0  0  0  0  0  0
   58.9622   35.4546   47.5491 H   0  0  0  0  0  0  0  0  0  0  0  0
   59.6984   36.4643   45.5954 H   0  0  0  0  0  0  0  0  0  0  0  0
   60.1820   35.3983   44.2329 H   0  0  0  0  0  0  0  0  0  0  0  0
   58.5635   36.1775   44.2329 H   0  0  0  0  0  0  0  0  0  0  0  0
   58.5261   33.3524   43.7871 H   0  0  0  0  0  0  0  0  0  0  0  0
  1  2  1  0
  2  3  1  0
  3  4  1  0
  4  5  2  0
  6  4  1  6
  6  7  1  0
  7  8  1  0
  8  9  1  0
  9 10  1  0
 10 11  1  0
 11 12  2  0
 11 13  1  0
 13 14  1  0
 10 15  2  0
 15 16  1  0
 16 17  2  0
 17 18  1  0
 18 19  2  0
 19 20  1  0
 20 21  2  0
 15 22  1  0
  3 23  1  0
 23 24  2  0
 24 25  1  0
 25 26  2  0
 26 27  1  0
 27 28  1  0
 27 29  2  0
  9  6  1  0
 21 16  1  0
 29 23  1  0
 22  6  1  0
  1 30  1  0
  1 31  1  0
  1 32  1  0
  2 33  1  0
  2 34  1  0
  7 35  1  0
  7 36  1  0
  8 37  1  0
  8 38  1  0
  9 39  1  1
 14 40  1  0
 14 41  1  0
 14 42  1  0
 17 43  1  0
 18 44  1  0
 19 45  1  0
 20 46  1  0
 21 47  1  0
 22 48  1  0
 22 49  1  0
 24 50  1  0
 25 51  1  0
 26 52  1  0
 28 53  1  0
 28 54  1  0
 28 55  1  0
 29 56  1  0
M  CHG  1  20   1
M  END
>  <UniqueID>  (14) 
12

>  <SMILES>  (14) 
CCN(C(=O)[C@]12CC[C@H]1C(C(=O)OC)=C(c1ccc[nH+]c1)C2)c1cccc(C)c1

>  <Energy>  (14) 
134.82487439903048

>  <Genealogy>  (14) 
CCN(C(=O)C12CCC1C(C(=O)OC)=C(c1ccc[nH+]c1)C2)c1cccc(C)c1 (protonated)
CCN(C(=O)[C@]12CC[C@H]1C(C(=O)OC)=C(c1ccc[nH+]c1)C2)c1cccc(C)c1 (chirality)
CCN(C(=O)[C@]12CC[C@H]1C(C(=O)OC)=C(c1ccc[nH+]c1)C2)c1cccc(C)c1 (3D coordinates assigned)
CCN(C(=O)[C@]12CC[C@H]1C(C(=O)OC)=C(c1ccc[nH+]c1)C2)c1cccc(C)c1 (nonaromatic ring conformer: 134.82487439903048 kcal/mol)

>  <smiles>  (14) 
CCN(C(=O)C12CCC1C(C(=O)OC)=C(c1cccnc1)C2)c1cccc(C)c1

>  <score_type>  (14) 
oracle

>  <origin>  (14) 
adg

>  <m_score__min__energy>  (14) 
-7.7999999999999998

>  <m_primary>  (14) 
energy

$$$$
14:0
     RDKit          3D

 57 59  0  0  0  0  0  0  0  0999 V2000
   55.5080   23.1820   47.5060 C   0  0  0  0  0  0  0  0  0  0  0  0
   55.6940   24.5310   46.9980 N   0  0  0  0  0  0  0  0  0  0  0  0
   54.8530   25.1000   45.9900 C   0  0  0  0  0  0  0  0  0  0  0  0
   54.8650   26.3430   45.7830 O   0  0  0  0  0  0  0  0  0  0  0  0
   54.0010   24.2680   45.1990 N   0  0  0  0  0  0  0  0  0  0  0  0
   54.4850   23.3940   44.1330 C   0  0  0  0  0  0  0  0  0  0  0  0
   55.7180   23.9960   43.4400 C   0  0  0  0  0  0  0  0  0  0  0  0
   57.0070   23.4840   44.0490 C   0  0  0  0  0  0  0  0  0  0  0  0
   57.3610   22.1410   43.8050 C   0  0  0  0  0  0  0  0  0  0  0  0
   58.5170   21.5980   44.3620 C   0  0  0  0  0  0  0  0  0  0  0  0
   59.3290   22.3790   45.1830 C   0  0  0  0  0  0  0  0  0  0  0  0
   58.9910   23.7060   45.4490 C   0  0  0  0  0  0  0  0  0  0  0  0
   57.8370   24.2880   44.8800 C   0  0  0  0  0  0  0  0  0  0  0  0
   57.5130   25.6760   45.1400 N   0  0  0  0  0  0  0  0  0  0  0  0
   57.7950   26.7850   44.2220 C   0  0  0  0  0  0  0  0  0  0  0  0
   57.9780   28.1060   44.9620 C   0  0  0  0  0  0  0  0  0  0  0  0
   57.5690   29.3500   44.4160 C   0  0  0  0  0  0  0  0  0  0  0  0
   56.6310   29.3640   43.2280 C   0  0  0  0  0  0  0  0  0  0  0  0
   57.9160   30.5500   45.1060 C   0  0  0  0  0  0  0  0  0  0  0  0
   57.8600   31.8590   44.5350 C   0  0  0  0  0  0  0  0  0  0  0  0
   57.9200   32.0730   43.0360 C   0  0  0  0  0  0  0  0  0  0  0  0
   57.9220   32.9920   45.3880 C   0  0  0  0  0  0  0  0  0  0  0  0
   57.7240   34.3920   44.8530 C   0  0  0  0  0  0  0  0  0  0  0  0
   58.2630   32.8260   46.7420 C   0  0  0  0  0  0  0  0  0  0  0  0
   58.4010   33.9450   47.5610 O   0  0  0  0  0  0  0  0  0  0  0  0
   58.4970   31.5490   47.2690 C   0  0  0  0  0  0  0  0  0  0  0  0
   58.9610   31.3900   48.6980 C   0  0  0  0  0  0  0  0  0  0  0  0
   58.3500   30.4190   46.4470 C   0  0  0  0  0  0  0  0  0  0  0  0
   58.6240   29.2230   46.9500 O   0  0  0  0  0  0  0  0  0  0  0  0
   58.4960   28.0980   46.2680 C   0  0  0  0  0  0  0  0  0  0  0  0
   58.8250   27.0160   46.8250 O   0  0  0  0  0  0  0  0  0  0  0  0
   55.5106   23.2008   48.6058 H   0  0  0  0  0  0  0  0  0  0  0  0
   54.5466   22.7848   47.1483 H   0  0  0  0  0  0  0  0  0  0  0  0
   56.3260   22.5395   47.1483 H   0  0  0  0  0  0  0  0  0  0  0  0
   54.7554   22.4185   44.5634 H   0  0  0  0  0  0  0  0  0  0  0  0
   53.6859   23.2791   43.3859 H   0  0  0  0  0  0  0  0  0  0  0  0
   55.6953   23.7261   42.3739 H   0  0  0  0  0  0  0  0  0  0  0  0
   55.6864   25.0878   43.5703 H   0  0  0  0  0  0  0  0  0  0  0  0
   56.7179   21.5156   43.1684 H   0  0  0  0  0  0  0  0  0  0  0  0
   58.7890   20.5527   44.1538 H   0  0  0  0  0  0  0  0  0  0  0  0
   60.2400   21.9471   45.6229 H   0  0  0  0  0  0  0  0  0  0  0  0
   59.6319   24.3071   46.1108 H   0  0  0  0  0  0  0  0  0  0  0  0
   57.0430   25.9450   46.0310 H   0  0  0  0  0  0  0  0  0  0  0  0
   58.7162   26.5594   43.6647 H   0  0  0  0  0  0  0  0  0  0  0  0
   56.9358   26.8916   43.5434 H   0  0  0  0  0  0  0  0  0  0  0  0
   55.5900   29.3795   43.5830 H   0  0  0  0  0  0  0  0  0  0  0  0
   56.8241   30.2594   42.6189 H   0  0  0  0  0  0  0  0  0  0  0  0
   56.7973   28.4633   42.6189 H   0  0  0  0  0  0  0  0  0  0  0  0
   58.2115   33.1126   42.8254 H   0  0  0  0  0  0  0  0  0  0  0  0
   58.6608   31.3884   42.5972 H   0  0  0  0  0  0  0  0  0  0  0  0
   56.9312   31.8733   42.5972 H   0  0  0  0  0  0  0  0  0  0  0  0
   57.6246   35.0950   45.6932 H   0  0  0  0  0  0  0  0  0  0  0  0
   58.5910   34.6756   44.2383 H   0  0  0  0  0  0  0  0  0  0  0  0
   56.8124   34.4241   44.2383 H   0  0  0  0  0  0  0  0  0  0  0  0
   58.1457   31.6694   49.3815 H   0  0  0  0  0  0  0  0  0  0  0  0
   59.2464   30.3428   48.8765 H   0  0  0  0  0  0  0  0  0  0  0  0
   59.8287   32.0421   48.8765 H   0  0  0  0  0  0  0  0  0  0  0  0
  1  2  1  0
  2  3  1  0
  3  4  2  0
  3  5  1  0
  5  6  1  0
  6  7  1  0
  7  8  1  0
  8  9  2  0
  9 10  1  0
 10 11  2  0
 11 12  1  0
 12 13  2  0
 13 14  1  0
 14 15  1  0
 15 16  1  0
 16 17  2  0
 17 18  1  0
 17 19  1  0
 19 20  2  0
 20 21  1  0
 20 22  1  0
 22 23  1  0
 22 24  2  0
 24 25  1  0
 24 26  1  0
 26 27  1  0
 26 28  2  0
 28 29  1  0
 29 30  1  0
 30 31  2  0
 13  8  1  0
 30 16  1  0
 28 19  1  0
  1 32  1  0
  1 33  1  0
  1 34  1  0
  6 35  1  0
  6 36  1  0
  7 37  1  0
  7 38  1  0
  9 39  1  0
 10 40  1  0
 11 41  1  0
 12 42  1  0
 14 43  1  0
 15 44  1  0
 15 45  1  0
 18 46  1  0
 18 47  1  0
 18 48  1  0
 21 49  1  0
 21 50  1  0
 21 51  1  0
 23 52  1  0
 23 53  1  0
 23 54  1  0
 27 55  1  0
 27 56  1  0
 27 57  1  0
M  CHG  3   2  -1   5  -1  25  -1
M  END
>  <UniqueID>  (15) 
13

>  <SMILES>  (15) 
C[N-]C(=O)[N-]CCc1ccccc1NCc1c(C)c2c(C)c(C)c([O-])c(C)c2oc1=O

>  <Energy>  (15) 
78.70161746812235

>  <Genealogy>  (15) 
C[N-]C(=O)[N-]CCc1ccccc1NCc1c(C)c2c(C)c(C)c([O-])c(C)c2oc1=O (protonated)
C[N-]C(=O)[N-]CCc1ccccc1NCc1c(C)c2c(C)c(C)c([O-])c(C)c2oc1=O (3D coordinates assigned)
C[N-]C(=O)[N-]CCc1ccccc1NCc1c(C)c2c(C)c(C)c([O-])c(C)c2oc1=O (optimized conformer: 78.70161746812235 kcal/mol)

>  <smiles>  (15) 
CNC(=O)NCCc1ccccc1NCc1c(C)c2c(C)c(C)c(O)c(C)c2oc1=O

>  <score_type>  (15) 
oracle

>  <origin>  (15) 
adg

>  <m_score__min__energy>  (15) 
-14.539999999999999

>  <m_primary>  (15) 
energy

$$$$
15:0
     RDKit          3D

 38 41  0  0  0  0  0  0  0  0999 V2000
   59.5145   33.7213   49.8443 H   0  0  0  0  0  0  0  0  0  0  0  0
   59.3080   33.5410   48.7790 C   0  0  0  0  0  0  0  0  0  0  0  0
   58.3430   32.3050   48.1570 S   0  0  0  0  0  0  0  0  0  0  0  0
   58.5530   32.6960   46.5290 C   0  0  0  0  0  0  0  0  0  0  0  0
   58.0140   32.1280   45.3520 C   0  0  0  0  0  0  0  0  0  0  0  0
   57.2450   31.0700   45.3320 N   0  0  0  0  0  0  0  0  0  0  0  0
   57.6370   29.6930   45.3230 C   0  0  0  0  0  0  0  0  0  0  0  0
   57.8040   29.0270   44.1040 C   0  0  0  0  0  0  0  0  0  0  0  0
   57.6052   29.5539   43.1591 H   0  0  0  0  0  0  0  0  0  0  0  0
   58.2230   27.6930   44.0840 C   0  0  0  0  0  0  0  0  0  0  0  0
   58.3444   27.1723   43.1227 H   0  0  0  0  0  0  0  0  0  0  0  0
   58.4890   27.0160   45.2810 C   0  0  0  0  0  0  0  0  0  0  0  0
   58.9080   25.6790   45.2220 O   0  0  0  0  0  0  0  0  0  0  0  0
   58.1400   24.6080   44.7420 C   0  0  0  0  0  0  0  0  0  0  0  0
   57.1250   24.7900   43.7830 C   0  0  0  0  0  0  0  0  0  0  0  0
   56.9075   25.7977   43.3994 H   0  0  0  0  0  0  0  0  0  0  0  0
   56.3930   23.6940   43.3170 C   0  0  0  0  0  0  0  0  0  0  0  0
   55.5959   23.8417   42.5735 H   0  0  0  0  0  0  0  0  0  0  0  0
   56.6730   22.4100   43.7950 C   0  0  0  0  0  0  0  0  0  0  0  0
   56.0906   21.5493   43.4343 H   0  0  0  0  0  0  0  0  0  0  0  0
   57.6930   22.2210   44.7310 C   0  0  0  0  0  0  0  0  0  0  0  0
   57.9191   21.2098   45.1004 H   0  0  0  0  0  0  0  0  0  0  0  0
   58.4270   23.3160   45.1990 C   0  0  0  0  0  0  0  0  0  0  0  0
   59.2342   23.1612   45.9301 H   0  0  0  0  0  0  0  0  0  0  0  0
   58.3740   27.7050   46.5020 C   0  0  0  0  0  0  0  0  0  0  0  0
   58.6131   27.1921   47.4453 H   0  0  0  0  0  0  0  0  0  0  0  0
   57.9570   29.0390   46.5210 C   0  0  0  0  0  0  0  0  0  0  0  0
   57.8798   29.5766   47.4776 H   0  0  0  0  0  0  0  0  0  0  0  0
   58.3220   32.7740   44.1320 C   0  0  0  0  0  0  0  0  0  0  0  0
   57.8050   32.2810   42.8760 C   0  0  0  0  0  0  0  0  0  0  0  0
   57.3920   31.8860   41.8710 N   0  0  0  0  0  0  0  0  0  0  0  0
   59.1580   33.9080   44.1240 C   0  0  0  0  0  0  0  0  0  0  0  0
   59.4027   34.3956   43.1688 H   0  0  0  0  0  0  0  0  0  0  0  0
   59.6670   34.4080   45.2840 N   0  0  0  0  0  0  0  0  0  0  0  0
   60.2780   35.2540   45.2550 H   0  0  0  0  0  0  0  0  0  0  0  0
   59.3660   33.8220   46.4720 C   0  0  0  0  0  0  0  0  0  0  0  0
   59.7980   34.2930   47.7180 C   0  0  0  0  0  0  0  0  0  0  0  0
   60.4556   35.1658   47.8436 H   0  0  0  0  0  0  0  0  0  0  0  0
  1  2  1  0
  2  3  1  0
  3  4  1  0
  4  5  1  0
  5  6  2  0
  6  7  1  0
  7  8  2  0
  8  9  1  0
  8 10  1  0
 10 11  1  0
 10 12  2  0
 12 13  1  0
 13 14  1  0
 14 15  2  0
 15 16  1  0
 15 17  1  0
 17 18  1  0
 17 19  2  0
 19 20  1  0
 19 21  1  0
 21 22  1  0
 21 23  2  0
 23 24  1  0
 12 25  1  0
 25 26  1  0
 25 27  2  0
 27 28  1  0
  5 29  1  0
 29 30  1  0
 30 31  3  0
 29 32  2  0
 32 33  1  0
 32 34  1  0
 34 35  1  0
 34 36  1  0
 36 37  1  0
 37 38  1  0
 37  2  2  0
 36  4  2  0
 27  7  1  0
 23 14  1  0
M  END
>  <UniqueID>  (16) 
14

>  <SMILES>  (16) 
N#Cc1c[nH]c2ccsc2/c1=N\c1ccc(Oc2ccccc2)cc1

>  <Energy>  (16) 
94.22765887750364

>  <Genealogy>  (16) 
N#Cc1c[nH]c2ccsc2/c1=N\c1ccc(Oc2ccccc2)cc1 (cis-trans isomerization)
N#Cc1c[nH]c2ccsc2/c1=N\c1ccc(Oc2ccccc2)cc1 (3D coordinates assigned)
N#Cc1c[nH]c2ccsc2/c1=N\c1ccc(Oc2ccccc2)cc1 (optimized conformer: 94.22765887750364 kcal/mol)

>  <smiles>  (16) 
N#Cc1c[nH]c2ccsc2c1=Nc1ccc(Oc2ccccc2)cc1

>  <score_type>  (16) 
oracle

>  <origin>  (16) 
adg

>  <m_score__min__energy>  (16) 
-7.4500000000000002

>  <m_primary>  (16) 
energy

$$$$
16:0
     RDKit          3D

 28 29  0  0  0  0  0  0  0  0999 V2000
   59.4496   35.7577   45.7207 H   0  0  0  0  0  0  0  0  0  0  0  0
   59.1280   34.7070   45.6700 C   0  0  0  0  0  0  0  0  0  0  0  0
   57.7550   34.1290   44.8850 S   0  0  0  0  0  0  0  0  0  0  0  0
   58.0380   32.5340   45.3270 C   0  0  0  0  0  0  0  0  0  0  0  0
   57.2170   31.4390   44.8950 N   0  0  0  0  0  0  0  0  0  0  0  0
   57.3600   30.1900   45.2230 C   0  0  0  0  0  0  0  0  0  0  0  0
   58.4000   29.6980   45.9310 N   0  0  0  0  0  0  0  0  0  0  0  0
   58.2700   28.3640   46.1620 C   0  0  0  0  0  0  0  0  0  0  0  0
   59.3150   27.6130   46.9260 C   0  0  0  0  0  0  0  0  0  0  0  0
   59.1411   27.7380   48.0050 H   0  0  0  0  0  0  0  0  0  0  0  0
   59.2618   26.5452   46.6673 H   0  0  0  0  0  0  0  0  0  0  0  0
   60.3101   28.0039   46.6673 H   0  0  0  0  0  0  0  0  0  0  0  0
   57.1030   27.7900   45.6360 C   0  0  0  0  0  0  0  0  0  0  0  0
   56.6700   26.3830   45.7180 C   0  0  0  0  0  0  0  0  0  0  0  0
   57.5150   25.4630   45.5410 O   0  0  0  0  0  0  0  0  0  0  0  0
   55.3360   26.0700   45.9890 O   0  0  0  0  0  0  0  0  0  0  0  0
   54.7420   24.8340   45.6090 C   0  0  0  0  0  0  0  0  0  0  0  0
   55.0061   24.6059   44.5658 H   0  0  0  0  0  0  0  0  0  0  0  0
   53.6486   24.9090   45.7030 H   0  0  0  0  0  0  0  0  0  0  0  0
   55.2530   23.7250   46.5150 C   0  0  0  0  0  0  0  0  0  0  0  0
   55.1176   24.0188   47.5664 H   0  0  0  0  0  0  0  0  0  0  0  0
   54.6898   22.8011   46.3170 H   0  0  0  0  0  0  0  0  0  0  0  0
   56.3212   23.5528   46.3170 H   0  0  0  0  0  0  0  0  0  0  0  0
   56.2250   29.0070   44.8660 S   0  0  0  0  0  0  0  0  0  0  0  0
   59.1810   32.4210   46.0430 N   0  0  0  0  0  0  0  0  0  0  0  0
   59.5990   31.5240   46.3730 H   0  0  0  0  0  0  0  0  0  0  0  0
   59.7840   33.6230   46.2430 C   0  0  0  0  0  0  0  0  0  0  0  0
   60.7183   33.7297   46.8138 H   0  0  0  0  0  0  0  0  0  0  0  0
  1  2  1  0
  2  3  1  0
  3  4  1  0
  4  5  1  0
  5  6  2  0
  6  7  1  0
  7  8  1  0
  8  9  1  0
  9 10  1  0
  9 11  1  0
  9 12  1  0
  8 13  2  0
 13 14  1  0
 14 15  2  0
 14 16  1  0
 16 17  1  0
 17 18  1  0
 17 19  1  0
 17 20  1  0
 20 21  1  0
 20 22  1  0
 20 23  1  0
 13 24  1  0
  4 25  2  0
 25 26  1  0
 25 27  1  0
 27 28  1  0
 27  2  2  0
 24  6  1  0
M  CHG  2   7  -1  25   1
M  END
>  <UniqueID>  (17) 
15

>  <SMILES>  (17) 
CCOC(=O)c1s/c(=N/c2[nH+]ccs2)[n-]c1C

>  <Energy>  (17) 
85.34755397975503

>  <Genealogy>  (17) 
CCOC(=O)c1sc(=Nc2[nH+]ccs2)[n-]c1C (protonated)
CCOC(=O)c1s/c(=N/c2[nH+]ccs2)[n-]c1C (cis-trans isomerization)
CCOC(=O)c1s/c(=N/c2[nH+]ccs2)[n-]c1C (3D coordinates assigned)
CCOC(=O)c1s/c(=N/c2[nH+]ccs2)[n-]c1C (optimized conformer: 85.34755397975503 kcal/mol)

>  <smiles>  (17) 
CCOC(=O)c1sc(=Nc2nccs2)[nH]c1C

>  <score_type>  (17) 
oracle

>  <origin>  (17) 
adg

>  <m_score__min__energy>  (17) 
-5.3499999999999996

>  <m_primary>  (17) 
energy

$$$$
17:0
     RDKit          3D

 30 31  0  0  0  0  0  0  0  0999 V2000
   60.9530   28.6030   44.5480 C   0  0  0  0  0  0  0  0  0  0  0  0
   60.0390   28.0400   45.5570 N   0  0  0  0  0  0  0  0  0  0  0  0
   58.7490   27.6300   44.9630 C   0  0  0  0  0  0  0  0  0  0  0  0
   57.9290   28.8410   44.4870 C   0  0  0  0  0  0  0  0  0  0  0  0
   58.0420   29.9550   45.4310 N   0  0  0  0  0  0  0  0  0  0  0  0
   57.4170   31.2120   45.1120 C   0  0  0  0  0  0  0  0  0  0  0  0
   56.3150   31.2140   44.4980 O   0  0  0  0  0  0  0  0  0  0  0  0
   58.0500   32.5030   45.4660 C   0  0  0  0  0  0  0  0  0  0  0  0
   58.1220   33.5440   44.5250 C   0  0  0  0  0  0  0  0  0  0  0  0
   58.7160   34.7230   44.8510 N   0  0  0  0  0  0  0  0  0  0  0  0
   59.2640   34.9350   46.0780 C   0  0  0  0  0  0  0  0  0  0  0  0
   59.2300   33.9240   47.0410 C   0  0  0  0  0  0  0  0  0  0  0  0
   60.0090   34.2040   48.7620 Br  0  0  0  0  0  0  0  0  0  0  0  0
   58.6270   32.7040   46.7310 C   0  0  0  0  0  0  0  0  0  0  0  0
   58.5440   29.6900   46.7840 C   0  0  0  0  0  0  0  0  0  0  0  0
   59.8880   28.9380   46.7310 C   0  0  0  0  0  0  0  0  0  0  0  0
   61.7852   29.1156   45.0526 H   0  0  0  0  0  0  0  0  0  0  0  0
   61.3491   27.7922   43.9190 H   0  0  0  0  0  0  0  0  0  0  0  0
   60.4071   29.3216   43.9190 H   0  0  0  0  0  0  0  0  0  0  0  0
   58.9458   26.9730   44.1030 H   0  0  0  0  0  0  0  0  0  0  0  0
   58.1678   27.1059   45.7360 H   0  0  0  0  0  0  0  0  0  0  0  0
   58.3016   29.1636   43.5036 H   0  0  0  0  0  0  0  0  0  0  0  0
   56.8719   28.5441   44.4201 H   0  0  0  0  0  0  0  0  0  0  0  0
   57.6961   33.4046   43.5204 H   0  0  0  0  0  0  0  0  0  0  0  0
   59.7335   35.9020   46.3115 H   0  0  0  0  0  0  0  0  0  0  0  0
   58.6035   31.8979   47.4791 H   0  0  0  0  0  0  0  0  0  0  0  0
   58.6859   30.6458   47.3097 H   0  0  0  0  0  0  0  0  0  0  0  0
   57.8112   29.0657   47.3162 H   0  0  0  0  0  0  0  0  0  0  0  0
   60.6982   29.6815   46.7027 H   0  0  0  0  0  0  0  0  0  0  0  0
   59.9269   28.2980   47.6248 H   0  0  0  0  0  0  0  0  0  0  0  0
  1  2  1  0
  2  3  1  0
  3  4  1  0
  4  5  1  0
  5  6  1  0
  6  7  2  0
  6  8  1  0
  8  9  2  0
  9 10  1  0
 10 11  2  0
 11 12  1  0
 12 13  1  0
 12 14  2  0
  5 15  1  0
 15 16  1  0
 16  2  1  0
 14  8  1  0
  1 17  1  0
  1 18  1  0
  1 19  1  0
  3 20  1  0
  3 21  1  0
  4 22  1  0
  4 23  1  0
  9 24  1  0
 11 25  1  0
 14 26  1  0
 15 27  1  0
 15 28  1  0
 16 29  1  0
 16 30  1  0
M  END
>  <UniqueID>  (18) 
16

>  <SMILES>  (18) 
CN1CCN(C(=O)c2cncc(Br)c2)CC1

>  <Energy>  (18) 
41.36577533824686

>  <Genealogy>  (18) 
CN1CCN(C(=O)c2cncc(Br)c2)CC1 (3D coordinates assigned)
CN1CCN(C(=O)c2cncc(Br)c2)CC1 (nonaromatic ring conformer: 41.36577533824686 kcal/mol)

>  <smiles>  (18) 
CN1CCN(C(=O)c2cncc(Br)c2)CC1

>  <score_type>  (18) 
oracle

>  <origin>  (18) 
adg

>  <m_score__min__energy>  (18) 
-6.3499999999999996

>  <m_primary>  (18) 
energy

$$$$
18:0
     RDKit          3D

 46 49  0  0  0  0  0  0  0  0999 V2000
   56.7330   29.5510   43.1680 O   0  0  0  0  0  0  0  0  0  0  0  0
   56.6900   29.7610   44.4090 C   0  0  0  0  0  0  0  0  0  0  0  0
   56.0070   28.8110   45.2430 N   0  0  0  0  0  0  0  0  0  0  0  0
   56.4420   27.6420   45.6230 C   0  0  0  0  0  0  0  0  0  0  0  0
   57.8170   27.3280   45.6910 C   0  0  0  0  0  0  0  0  0  0  0  0
   58.2110   26.0560   46.1120 C   0  0  0  0  0  0  0  0  0  0  0  0
   57.2490   25.1130   46.4720 C   0  0  0  0  0  0  0  0  0  0  0  0
   55.8990   25.4600   46.4130 C   0  0  0  0  0  0  0  0  0  0  0  0
   55.5320   26.7020   45.9970 N   0  0  0  0  0  0  0  0  0  0  0  0
   57.4020   30.9300   44.9810 C   0  0  0  0  0  0  0  0  0  0  0  0
   58.1510   30.7930   46.1630 C   0  0  0  0  0  0  0  0  0  0  0  0
   58.8450   31.8850   46.6910 C   0  0  0  0  0  0  0  0  0  0  0  0
   58.7940   33.1290   46.0510 C   0  0  0  0  0  0  0  0  0  0  0  0
   59.7080   34.4850   46.7010 S   0  0  0  0  0  0  0  0  0  0  0  0
   58.8980   35.1320   47.7900 O   0  0  0  0  0  0  0  0  0  0  0  0
   59.9760   35.5100   45.6330 O   0  0  0  0  0  0  0  0  0  0  0  0
   61.2280   33.9090   47.3330 N   0  0  0  0  0  0  0  0  0  0  0  0
   62.3280   33.7190   46.3760 C   0  0  0  0  0  0  0  0  0  0  0  0
   63.6880   33.7750   47.0700 C   0  0  0  0  0  0  0  0  0  0  0  0
   63.7450   32.7510   48.2010 C   0  0  0  0  0  0  0  0  0  0  0  0
   62.6060   32.9520   49.1630 C   0  0  0  0  0  0  0  0  0  0  0  0
   62.7530   32.5390   50.4960 C   0  0  0  0  0  0  0  0  0  0  0  0
   61.7050   32.6940   51.4030 C   0  0  0  0  0  0  0  0  0  0  0  0
   60.4990   33.2530   50.9850 C   0  0  0  0  0  0  0  0  0  0  0  0
   60.3310   33.6510   49.6560 C   0  0  0  0  0  0  0  0  0  0  0  0
   61.3760   33.4960   48.7190 C   0  0  0  0  0  0  0  0  0  0  0  0
   58.0280   33.2790   44.8880 C   0  0  0  0  0  0  0  0  0  0  0  0
   57.3360   32.1890   44.3570 C   0  0  0  0  0  0  0  0  0  0  0  0
   58.5716   28.0791   45.4146 H   0  0  0  0  0  0  0  0  0  0  0  0
   59.2793   25.7983   46.1596 H   0  0  0  0  0  0  0  0  0  0  0  0
   57.5511   24.1070   46.7988 H   0  0  0  0  0  0  0  0  0  0  0  0
   55.1305   24.7284   46.7032 H   0  0  0  0  0  0  0  0  0  0  0  0
   58.1909   29.8204   46.6752 H   0  0  0  0  0  0  0  0  0  0  0  0
   59.4335   31.7666   47.6128 H   0  0  0  0  0  0  0  0  0  0  0  0
   62.2143   32.7386   45.8904 H   0  0  0  0  0  0  0  0  0  0  0  0
   62.2848   34.5300   45.6341 H   0  0  0  0  0  0  0  0  0  0  0  0
   64.4788   33.5528   46.3384 H   0  0  0  0  0  0  0  0  0  0  0  0
   63.8362   34.7813   47.4889 H   0  0  0  0  0  0  0  0  0  0  0  0
   63.6822   31.7390   47.7745 H   0  0  0  0  0  0  0  0  0  0  0  0
   64.6923   32.8797   48.7451 H   0  0  0  0  0  0  0  0  0  0  0  0
   63.7009   32.0901   50.8277 H   0  0  0  0  0  0  0  0  0  0  0  0
   61.8304   32.3750   52.4482 H   0  0  0  0  0  0  0  0  0  0  0  0
   59.6762   33.3815   51.7037 H   0  0  0  0  0  0  0  0  0  0  0  0
   59.3743   34.0898   49.3363 H   0  0  0  0  0  0  0  0  0  0  0  0
   57.9715   34.2589   44.3914 H   0  0  0  0  0  0  0  0  0  0  0  0
   56.7350   32.3155   43.4444 H   0  0  0  0  0  0  0  0  0  0  0  0
  1  2  2  0
  2  3  1  0
  3  4  2  3
  4  5  1  0
  5  6  2  0
  6  7  1  0
  7  8  2  0
  8  9  1  0
  2 10  1  0
 10 11  2  0
 11 12  1  0
 12 13  2  0
 13 14  1  0
 14 15  2  0
 14 16  2  0
 14 17  1  0
 17 18  1  0
 18 19  1  0
 19 20  1  0
 20 21  1  0
 21 22  2  0
 22 23  1  0
 23 24  2  0
 24 25  1  0
 25 26  2  0
 13 27  1  0
 27 28  2  0
  9  4  1  0
 28 10  1  0
 26 17  1  0
 26 21  1  0
  5 29  1  0
  6 30  1  0
  7 31  1  0
  8 32  1  0
 11 33  1  0
 12 34  1  0
 18 35  1  0
 18 36  1  0
 19 37  1  0
 19 38  1  0
 20 39  1  0
 20 40  1  0
 22 41  1  0
 23 42  1  0
 24 43  1  0
 25 44  1  0
 27 45  1  0
 28 46  1  0
M  CHG  1   9  -1
M  END
>  <UniqueID>  (19) 
17

>  <SMILES>  (19) 
O=C(N=c1cccc[n-]1)c1ccc(S(=O)(=O)N2CCCc3ccccc32)cc1

>  <Energy>  (19) 
64.13057359432196

>  <Genealogy>  (19) 
O=C(N=c1cccc[n-]1)c1ccc(S(=O)(=O)N2CCCc3ccccc32)cc1 (protonated)
O=C(N=c1cccc[n-]1)c1ccc(S(=O)(=O)N2CCCc3ccccc32)cc1 (3D coordinates assigned)
O=C(N=c1cccc[n-]1)c1ccc(S(=O)(=O)N2CCCc3ccccc32)cc1 (nonaromatic ring conformer: 64.13057359432196 kcal/mol)

>  <smiles>  (19) 
O=C(N=c1cccc[nH]1)c1ccc(S(=O)(=O)N2CCCc3ccccc32)cc1

>  <score_type>  (19) 
oracle

>  <origin>  (19) 
adg

>  <m_score__min__energy>  (19) 
-11.74

>  <m_primary>  (19) 
energy

$$$$
19:0
     RDKit          3D

 32 33  0  0  0  0  0  0  0  0999 V2000
   56.0385   32.4057   45.5867 H   0  0  0  0  0  0  0  0  0  0  0  0
   57.0030   32.3130   45.0660 C   0  0  0  0  0  0  0  0  0  0  0  0
   57.0680   31.4780   44.0150 C   0  0  0  0  0  0  0  0  0  0  0  0
   57.6590   31.9550   42.7900 C   0  0  0  0  0  0  0  0  0  0  0  0
   58.1330   32.3390   41.8070 N   0  0  0  0  0  0  0  0  0  0  0  0
   56.5180   30.1040   44.0280 C   0  0  0  0  0  0  0  0  0  0  0  0
   55.5810   29.8180   44.8210 O   0  0  0  0  0  0  0  0  0  0  0  0
   57.0760   29.0770   43.2040 N   0  0  0  0  0  0  0  0  0  0  0  0
   56.6550   28.1220   43.2020 H   0  0  0  0  0  0  0  0  0  0  0  0
   57.9430   29.2430   42.6470 H   0  0  0  0  0  0  0  0  0  0  0  0
   58.1360   33.1150   45.5710 C   0  0  0  0  0  0  0  0  0  0  0  0
   58.6210   34.2780   44.9990 C   0  0  0  0  0  0  0  0  0  0  0  0
   58.2521   34.7660   44.0848 H   0  0  0  0  0  0  0  0  0  0  0  0
   59.6600   34.7050   45.8030 C   0  0  0  0  0  0  0  0  0  0  0  0
   60.2836   35.5983   45.6508 H   0  0  0  0  0  0  0  0  0  0  0  0
   59.7640   33.7940   46.8340 C   0  0  0  0  0  0  0  0  0  0  0  0
   60.5050   33.8412   47.6456 H   0  0  0  0  0  0  0  0  0  0  0  0
   58.8240   32.8380   46.7000 N   0  0  0  0  0  0  0  0  0  0  0  0
   58.6990   31.6450   47.5410 C   0  0  0  0  0  0  0  0  0  0  0  0
   59.3963   31.7212   48.3883 H   0  0  0  0  0  0  0  0  0  0  0  0
   57.6670   31.5714   47.9145 H   0  0  0  0  0  0  0  0  0  0  0  0
   59.0240   30.4150   46.7360 C   0  0  0  0  0  0  0  0  0  0  0  0
   60.2240   30.3340   46.0090 C   0  0  0  0  0  0  0  0  0  0  0  0
   60.9120   31.1921   45.9887 H   0  0  0  0  0  0  0  0  0  0  0  0
   60.5460   29.1650   45.3110 C   0  0  0  0  0  0  0  0  0  0  0  0
   61.4860   29.1057   44.7427 H   0  0  0  0  0  0  0  0  0  0  0  0
   59.6750   28.0730   45.3350 C   0  0  0  0  0  0  0  0  0  0  0  0
   59.9282   27.1558   44.7830 H   0  0  0  0  0  0  0  0  0  0  0  0
   58.4820   28.1450   46.0600 C   0  0  0  0  0  0  0  0  0  0  0  0
   57.7976   27.2840   46.0788 H   0  0  0  0  0  0  0  0  0  0  0  0
   58.1580   29.3100   46.7610 C   0  0  0  0  0  0  0  0  0  0  0  0
   57.2208   29.3614   47.3346 H   0  0  0  0  0  0  0  0  0  0  0  0
  1  2  1  0
  2  3  2  0
  3  4  1  0
  4  5  3  0
  3  6  1  0
  6  7  2  0
  6  8  1  0
  8  9  1  0
  8 10  1  0
  2 11  1  0
 11 12  2  0
 12 13  1  0
 12 14  1  0
 14 15  1  0
 14 16  2  0
 16 17  1  0
 16 18  1  0
 18 19  1  0
 19 20  1  0
 19 21  1  0
 19 22  1  0
 22 23  2  0
 23 24  1  0
 23 25  1  0
 25 26  1  0
 25 27  2  0
 27 28  1  0
 27 29  1  0
 29 30  1  0
 29 31  2  0
 31 32  1  0
 18 11  1  0
 31 22  1  0
M  END
>  <UniqueID>  (20) 
18

>  <SMILES>  (20) 
N#C/C(=C/c1cccn1Cc1ccccc1)C(N)=O

>  <Energy>  (20) 
61.53287159273159

>  <Genealogy>  (20) 
N#C/C(=C/c1cccn1Cc1ccccc1)C(N)=O (cis-trans isomerization)
N#C/C(=C/c1cccn1Cc1ccccc1)C(N)=O (3D coordinates assigned)
N#C/C(=C/c1cccn1Cc1ccccc1)C(N)=O (optimized conformer: 61.53287159273159 kcal/mol)

>  <smiles>  (20) 
N#CC(=Cc1cccn1Cc1ccccc1)C(N)=O

>  <score_type>  (20) 
oracle

>  <origin>  (20) 
adg

>  <m_score__min__energy>  (20) 
-7.4299999999999997

>  <m_primary>  (20) 
energy

$$$$
20:0
     RDKit          3D

 37 39  0  0  0  0  0  0  0  0999 V2000
   58.1680   31.8740   50.1380 F   0  0  0  0  0  0  0  0  0  0  0  0
   59.2630   32.6880   49.9190 C   0  0  0  0  0  0  0  0  0  0  0  0
   59.2880   33.6810   50.8830 F   0  0  0  0  0  0  0  0  0  0  0  0
   60.4170   31.9340   50.0460 F   0  0  0  0  0  0  0  0  0  0  0  0
   59.1660   33.2900   48.5390 C   0  0  0  0  0  0  0  0  0  0  0  0
   59.6680   34.5750   48.2850 C   0  0  0  0  0  0  0  0  0  0  0  0
   59.6180   35.1110   46.9980 C   0  0  0  0  0  0  0  0  0  0  0  0
   59.0830   34.3660   45.9450 C   0  0  0  0  0  0  0  0  0  0  0  0
   58.5980   33.0640   46.1670 C   0  0  0  0  0  0  0  0  0  0  0  0
   58.0410   32.2480   45.0600 C   0  0  0  0  0  0  0  0  0  0  0  0
   58.1100   32.5160   43.7060 C   0  0  0  0  0  0  0  0  0  0  0  0
   57.5010   31.5270   43.0310 N   0  0  0  0  0  0  0  0  0  0  0  0
   57.0670   30.6880   43.9960 C   0  0  0  0  0  0  0  0  0  0  0  0
   56.3850   29.3830   43.7050 C   0  0  0  0  0  0  0  0  0  0  0  0
   55.5000   29.5420   42.6500 F   0  0  0  0  0  0  0  0  0  0  0  0
   55.6650   28.9990   44.8210 F   0  0  0  0  0  0  0  0  0  0  0  0
   57.4060   28.2850   43.3680 C   0  0  0  0  0  0  0  0  0  0  0  0
   58.5350   28.2300   44.3680 C   0  0  0  0  0  0  0  0  0  0  0  0
   58.7830   27.0510   45.0880 C   0  0  0  0  0  0  0  0  0  0  0  0
   59.8060   27.0270   46.0360 C   0  0  0  0  0  0  0  0  0  0  0  0
   60.5690   28.1720   46.2610 C   0  0  0  0  0  0  0  0  0  0  0  0
   60.2940   29.3310   45.5320 C   0  0  0  0  0  0  0  0  0  0  0  0
   59.2910   29.3410   44.6120 N   0  0  0  0  0  0  0  0  0  0  0  0
   57.3870   31.0870   45.2440 N   0  0  0  0  0  0  0  0  0  0  0  0
   58.6530   32.5320   47.4700 C   0  0  0  0  0  0  0  0  0  0  0  0
   60.1038   35.1637   49.1057 H   0  0  0  0  0  0  0  0  0  0  0  0
   60.0017   36.1250   46.8118 H   0  0  0  0  0  0  0  0  0  0  0  0
   59.0405   34.8000   44.9351 H   0  0  0  0  0  0  0  0  0  0  0  0
   58.5871   33.3978   43.2535 H   0  0  0  0  0  0  0  0  0  0  0  0
   56.8914   27.3128   43.3609 H   0  0  0  0  0  0  0  0  0  0  0  0
   57.8381   28.5164   42.3832 H   0  0  0  0  0  0  0  0  0  0  0  0
   58.1751   26.1525   44.9060 H   0  0  0  0  0  0  0  0  0  0  0  0
   60.0101   26.1075   46.6043 H   0  0  0  0  0  0  0  0  0  0  0  0
   61.3792   28.1626   47.0050 H   0  0  0  0  0  0  0  0  0  0  0  0
   60.8904   30.2395   45.7020 H   0  0  0  0  0  0  0  0  0  0  0  0
   59.1040   30.2240   44.0860 H   0  0  0  0  0  0  0  0  0  0  0  0
   58.2900   31.5101   47.6546 H   0  0  0  0  0  0  0  0  0  0  0  0
  1  2  1  0
  2  3  1  0
  2  4  1  0
  2  5  1  0
  5  6  2  0
  6  7  1  0
  7  8  2  0
  8  9  1  0
  9 10  1  0
 10 11  2  0
 11 12  1  0
 12 13  1  0
 13 14  1  0
 14 15  1  0
 14 16  1  0
 14 17  1  0
 17 18  1  0
 18 19  2  0
 19 20  1  0
 20 21  2  0
 21 22  1  0
 22 23  2  0
 13 24  2  0
  9 25  2  0
 25  5  1  0
 24 10  1  0
 23 18  1  0
  6 26  1  0
  7 27  1  0
  8 28  1  0
 11 29  1  0
 17 30  1  0
 17 31  1  0
 19 32  1  0
 20 33  1  0
 21 34  1  0
 22 35  1  0
 23 36  1  0
 25 37  1  0
M  CHG  2  12  -1  23   1
M  END
>  <UniqueID>  (21) 
19

>  <SMILES>  (21) 
FC(F)(F)c1cccc(-c2c[n-]c(C(F)(F)Cc3cccc[nH+]3)n2)c1

>  <Energy>  (21) 
65.53240395070895

>  <Genealogy>  (21) 
FC(F)(F)c1cccc(-c2c[n-]c(C(F)(F)Cc3cccc[nH+]3)n2)c1 (protonated)
FC(F)(F)c1cccc(-c2c[n-]c(C(F)(F)Cc3cccc[nH+]3)n2)c1 (3D coordinates assigned)
FC(F)(F)c1cccc(-c2c[n-]c(C(F)(F)Cc3cccc[nH+]3)n2)c1 (optimized conformer: 65.53240395070895 kcal/mol)

>  <smiles>  (21) 
FC(F)(F)c1cccc(-c2c[nH]c(C(F)(F)Cc3ccccn3)n2)c1

>  <score_type>  (21) 
oracle

>  <origin>  (21) 
adg

>  <m_score__min__energy>  (21) 
-6.71

>  <m_primary>  (21) 
energy

$$$$
21:0
     RDKit          3D

 46 50  0  0  0  0  0  0  0  0999 V2000
   56.7347   29.0034   41.9045 H   0  0  0  0  0  0  0  0  0  0  0  0
   56.9340   29.3130   42.9410 C   0  0  0  0  0  0  0  0  0  0  0  0
   56.7150   30.5980   43.3190 N   0  0  0  0  0  0  0  0  0  0  0  0
   56.9500   31.0030   44.5950 C   0  0  0  0  0  0  0  0  0  0  0  0
   56.7370   32.2430   44.9210 N   0  0  0  0  0  0  0  0  0  0  0  0
   57.6390   33.3520   44.6100 C   0  0  0  0  0  0  0  0  0  0  0  0
   58.3713   33.0235   43.8578 H   0  0  0  0  0  0  0  0  0  0  0  0
   57.0480   34.1938   44.2199 H   0  0  0  0  0  0  0  0  0  0  0  0
   58.3680   33.8000   45.8500 C   0  0  0  0  0  0  0  0  0  0  0  0
   59.2490   34.8920   45.7900 C   0  0  0  0  0  0  0  0  0  0  0  0
   59.3867   35.4338   44.8427 H   0  0  0  0  0  0  0  0  0  0  0  0
   59.9520   35.2930   46.9310 C   0  0  0  0  0  0  0  0  0  0  0  0
   60.6384   36.1511   46.8802 H   0  0  0  0  0  0  0  0  0  0  0  0
   59.7830   34.6040   48.1360 C   0  0  0  0  0  0  0  0  0  0  0  0
   60.3367   34.9201   49.0324 H   0  0  0  0  0  0  0  0  0  0  0  0
   58.9110   33.5140   48.2020 C   0  0  0  0  0  0  0  0  0  0  0  0
   58.7789   32.9725   49.1503 H   0  0  0  0  0  0  0  0  0  0  0  0
   58.2060   33.1110   47.0630 C   0  0  0  0  0  0  0  0  0  0  0  0
   57.5221   32.2512   47.1176 H   0  0  0  0  0  0  0  0  0  0  0  0
   57.4080   30.1060   45.5120 N   0  0  0  0  0  0  0  0  0  0  0  0
   57.6570   28.8130   45.1750 C   0  0  0  0  0  0  0  0  0  0  0  0
   58.1340   27.8820   46.2110 C   0  0  0  0  0  0  0  0  0  0  0  0
   59.1900   28.0110   47.1910 C   0  0  0  0  0  0  0  0  0  0  0  0
   59.9660   29.2270   47.5120 C   0  0  0  0  0  0  0  0  0  0  0  0
   60.1790   29.5980   48.8510 C   0  0  0  0  0  0  0  0  0  0  0  0
   59.7716   28.9776   49.6629 H   0  0  0  0  0  0  0  0  0  0  0  0
   60.9070   30.7530   49.1550 C   0  0  0  0  0  0  0  0  0  0  0  0
   61.0767   31.0350   50.2046 H   0  0  0  0  0  0  0  0  0  0  0  0
   61.4190   31.5490   48.1270 C   0  0  0  0  0  0  0  0  0  0  0  0
   62.1250   32.6690   48.4240 F   0  0  0  0  0  0  0  0  0  0  0  0
   61.2020   31.1940   46.7930 C   0  0  0  0  0  0  0  0  0  0  0  0
   61.6034   31.8228   45.9846 H   0  0  0  0  0  0  0  0  0  0  0  0
   60.4750   30.0400   46.4850 C   0  0  0  0  0  0  0  0  0  0  0  0
   60.3007   29.7672   45.4337 H   0  0  0  0  0  0  0  0  0  0  0  0
   59.2890   26.7600   47.8830 C   0  0  0  0  0  0  0  0  0  0  0  0
   60.0520   26.4380   48.8310 O   0  0  0  0  0  0  0  0  0  0  0  0
   58.3590   25.9880   47.3390 N   0  0  0  0  0  0  0  0  0  0  0  0
   57.6920   26.6350   46.3810 N   0  0  0  0  0  0  0  0  0  0  0  0
   56.8710   25.4650   46.1110 C   0  0  0  0  0  0  0  0  0  0  0  0
   57.0063   25.0364   45.1070 H   0  0  0  0  0  0  0  0  0  0  0  0
   55.7728   25.5271   46.1130 H   0  0  0  0  0  0  0  0  0  0  0  0
   57.5650   24.7870   47.1320 C   0  0  0  0  0  0  0  0  0  0  0  0
   58.1407   23.9148   46.7888 H   0  0  0  0  0  0  0  0  0  0  0  0
   57.0285   24.3085   47.9646 H   0  0  0  0  0  0  0  0  0  0  0  0
   57.4110   28.3860   43.8650 C   0  0  0  0  0  0  0  0  0  0  0  0
   57.5904   27.3412   43.5714 H   0  0  0  0  0  0  0  0  0  0  0  0
  1  2  1  0
  2  3  1  0
  3  4  1  0
  4  5  2  0
  5  6  1  0
  6  7  1  0
  6  8  1  0
  6  9  1  0
  9 10  2  0
 10 11  1  0
 10 12  1  0
 12 13  1  0
 12 14  2  0
 14 15  1  0
 14 16  1  0
 16 17  1  0
 16 18  2  0
 18 19  1  0
  4 20  1  0
 20 21  2  0
 21 22  1  0
 22 23  2  0
 23 24  1  0
 24 25  2  0
 25 26  1  0
 25 27  1  0
 27 28  1  0
 27 29  2  0
 29 30  1  0
 29 31  1  0
 31 32  1  0
 31 33  2  0
 33 34  1  0
 23 35  1  0
 35 36  2  0
 35 37  1  0
 37 38  1  0
 38 39  1  0
 39 40  1  0
 39 41  1  0
 39 42  1  0
 42 43  1  0
 42 44  1  0
 21 45  1  0
 45 46  1  0
 45  2  2  0
 18  9  1  0
 38 22  1  0
 33 24  1  0
 42 37  1  0
M  CHG  1   3  -1
M  END
>  <UniqueID>  (22) 
20

>  <SMILES>  (22) 
O=c1c(-c2ccc(F)cc2)c(-c2cc[n-]/c(=N/Cc3ccccc3)n2)n2n1CC2

>  <Energy>  (22) 
209.6924994966768

>  <Genealogy>  (22) 
O=c1c(-c2ccc(F)cc2)c(-c2cc[n-]c(=NCc3ccccc3)n2)n2n1CC2 (protonated)
O=c1c(-c2ccc(F)cc2)c(-c2cc[n-]/c(=N/Cc3ccccc3)n2)n2n1CC2 (cis-trans isomerization)
O=c1c(-c2ccc(F)cc2)c(-c2cc[n-]/c(=N/Cc3ccccc3)n2)n2n1CC2 (3D coordinates assigned)
O=c1c(-c2ccc(F)cc2)c(-c2cc[n-]/c(=N/Cc3ccccc3)n2)n2n1CC2 (nonaromatic ring conformer: 209.6924994966768 kcal/mol)

>  <smiles>  (22) 
O=c1c(-c2ccc(F)cc2)c(-c2cc[nH]c(=NCc3ccccc3)n2)n2n1CC2

>  <score_type>  (22) 
oracle

>  <origin>  (22) 
adg

>  <m_score__min__energy>  (22) 
-9.7200000000000006

>  <m_primary>  (22) 
energy

$$$$
22:0
     RDKit          3D

 54 56  0  0  0  0  0  0  0  0999 V2000
   57.0998   28.5750   42.9038 H   0  0  0  0  0  0  0  0  0  0  0  0
   57.3130   29.1170   43.8370 C   0  0  0  0  0  0  0  0  0  0  0  0
   56.2350   29.8890   44.4820 C   0  0  0  0  0  0  0  0  0  0  0  0
   55.1490   29.3100   44.7490 O   0  0  0  0  0  0  0  0  0  0  0  0
   56.3780   31.2760   44.8030 N   0  0  0  0  0  0  0  0  0  0  0  0
   57.3950   32.1490   44.2210 C   0  0  0  0  0  0  0  0  0  0  0  0
   57.1507   32.3326   43.1643 H   0  0  0  0  0  0  0  0  0  0  0  0
   58.3743   31.6557   44.3077 H   0  0  0  0  0  0  0  0  0  0  0  0
   57.4530   33.4970   44.9680 C   0  0  0  0  0  0  0  0  0  0  0  0
   56.4857   33.6507   45.4687 H   0  0  0  0  0  0  0  0  0  0  0  0
   57.6794   34.2585   44.2072 H   0  0  0  0  0  0  0  0  0  0  0  0
   58.5220   33.6060   45.9910 N   0  0  0  0  0  0  0  0  0  0  0  0
   58.0380   33.3750   47.3630 C   0  0  0  0  0  0  0  0  0  0  0  0
   58.7893   33.7336   48.0821 H   0  0  0  0  0  0  0  0  0  0  0  0
   57.0948   33.9200   47.5157 H   0  0  0  0  0  0  0  0  0  0  0  0
   57.8685   32.2989   47.5157 H   0  0  0  0  0  0  0  0  0  0  0  0
   59.3050   34.8490   45.9010 C   0  0  0  0  0  0  0  0  0  0  0  0
   59.5339   35.2123   46.9137 H   0  0  0  0  0  0  0  0  0  0  0  0
   60.2431   34.6531   45.3610 H   0  0  0  0  0  0  0  0  0  0  0  0
   58.7232   35.6105   45.3610 H   0  0  0  0  0  0  0  0  0  0  0  0
   58.5440   29.0590   44.3580 C   0  0  0  0  0  0  0  0  0  0  0  0
   59.3921   28.8744   43.6823 H   0  0  0  0  0  0  0  0  0  0  0  0
   58.8160   29.2320   45.8020 C   0  0  0  0  0  0  0  0  0  0  0  0
   59.4120   30.4300   46.2140 C   0  0  0  0  0  0  0  0  0  0  0  0
   59.6558   31.2014   45.4687 H   0  0  0  0  0  0  0  0  0  0  0  0
   59.6920   30.6490   47.5240 N   0  0  0  0  0  0  0  0  0  0  0  0
   59.4210   29.7290   48.4890 C   0  0  0  0  0  0  0  0  0  0  0  0
   59.7550   30.0240   49.8600 N   0  0  0  0  0  0  0  0  0  0  0  0
   58.9250   30.8680   50.7040 C   0  0  0  0  0  0  0  0  0  0  0  0
   58.7497   31.8396   50.2189 H   0  0  0  0  0  0  0  0  0  0  0  0
   57.9402   30.4129   50.8860 H   0  0  0  0  0  0  0  0  0  0  0  0
   59.7030   31.0560   52.0020 C   0  0  0  0  0  0  0  0  0  0  0  0
   60.1510   32.0600   52.0373 H   0  0  0  0  0  0  0  0  0  0  0  0
   59.0494   30.9599   52.8815 H   0  0  0  0  0  0  0  0  0  0  0  0
   60.7950   29.9870   51.9960 C   0  0  0  0  0  0  0  0  0  0  0  0
   61.7430   30.4079   52.3624 H   0  0  0  0  0  0  0  0  0  0  0  0
   60.5350   29.1439   52.6530 H   0  0  0  0  0  0  0  0  0  0  0  0
   60.9410   29.5380   50.5460 C   0  0  0  0  0  0  0  0  0  0  0  0
   61.8472   29.9733   50.0995 H   0  0  0  0  0  0  0  0  0  0  0  0
   61.0346   28.4448   50.4680 H   0  0  0  0  0  0  0  0  0  0  0  0
   58.8430   28.5020   48.1210 C   0  0  0  0  0  0  0  0  0  0  0  0
   58.6255   27.7451   48.8890 H   0  0  0  0  0  0  0  0  0  0  0  0
   58.5430   28.2410   46.7760 C   0  0  0  0  0  0  0  0  0  0  0  0
   58.0390   26.8950   46.4110 C   0  0  0  0  0  0  0  0  0  0  0  0
   56.6540   26.6890   46.2880 C   0  0  0  0  0  0  0  0  0  0  0  0
   55.9601   27.5265   46.4526 H   0  0  0  0  0  0  0  0  0  0  0  0
   56.1530   25.4270   45.9580 C   0  0  0  0  0  0  0  0  0  0  0  0
   55.0676   25.2743   45.8648 H   0  0  0  0  0  0  0  0  0  0  0  0
   57.0290   24.3580   45.7460 C   0  0  0  0  0  0  0  0  0  0  0  0
   56.3970   22.7730   45.3400 Cl  0  0  0  0  0  0  0  0  0  0  0  0
   58.4090   24.5530   45.8610 C   0  0  0  0  0  0  0  0  0  0  0  0
   59.0963   23.7109   45.6922 H   0  0  0  0  0  0  0  0  0  0  0  0
   58.9210   25.8150   46.1900 C   0  0  0  0  0  0  0  0  0  0  0  0
   60.6630   25.9900   46.3710 Cl  0  0  0  0  0  0  0  0  0  0  0  0
  1  2  1  0
  2  3  1  0
  3  4  2  0
  3  5  1  0
  5  6  1  0
  6  7  1  0
  6  8  1  0
  6  9  1  0
  9 10  1  0
  9 11  1  0
  9 12  1  0
 12 13  1  0
 13 14  1  0
 13 15  1  0
 13 16  1  0
 12 17  1  0
 17 18  1  0
 17 19  1  0
 17 20  1  0
  2 21  2  0
 21 22  1  0
 21 23  1  0
 23 24  2  0
 24 25  1  0
 24 26  1  0
 26 27  2  0
 27 28  1  0
 28 29  1  0
 29 30  1  0
 29 31  1  0
 29 32  1  0
 32 33  1  0
 32 34  1  0
 32 35  1  0
 35 36  1  0
 35 37  1  0
 35 38  1  0
 38 39  1  0
 38 40  1  0
 27 41  1  0
 41 42  1  0
 41 43  2  0
 43 44  1  0
 44 45  2  0
 45 46  1  0
 45 47  1  0
 47 48  1  0
 47 49  2  0
 49 50  1  0
 49 51  1  0
 51 52  1  0
 51 53  2  0
 53 54  1  0
 43 23  1  0
 53 44  1  0
 38 28  1  0
M  CHG  1   5  -1
M  END
>  <UniqueID>  (23) 
21

>  <SMILES>  (23) 
CN(C)CC[N-]C(=O)/C=C/c1cnc(N2CCCC2)cc1-c1ccc(Cl)cc1Cl

>  <Energy>  (23) 
73.83415260673647

>  <Genealogy>  (23) 
CN(C)CC[N-]C(=O)C=Cc1cnc(N2CCCC2)cc1-c1ccc(Cl)cc1Cl (protonated)
CN(C)CC[N-]C(=O)/C=C/c1cnc(N2CCCC2)cc1-c1ccc(Cl)cc1Cl (cis-trans isomerization)
CN(C)CC[N-]C(=O)/C=C/c1cnc(N2CCCC2)cc1-c1ccc(Cl)cc1Cl (3D coordinates assigned)
CN(C)CC[N-]C(=O)/C=C/c1cnc(N2CCCC2)cc1-c1ccc(Cl)cc1Cl (nonaromatic ring conformer: 73.83415260673647 kcal/mol)

>  <smiles>  (23) 
CN(C)CCNC(=O)C=Cc1cnc(N2CCCC2)cc1-c1ccc(Cl)cc1Cl

>  <score_type>  (23) 
oracle

>  <origin>  (23) 
adg

>  <m_score__min__energy>  (23) 
-10.18

>  <m_primary>  (23) 
energy

$$$$
23:0
     RDKit          3D

 47 48  0  0  0  0  0  0  0  0999 V2000
   60.4420   29.7820   47.1200 C   0  0  0  0  0  0  0  0  0  0  0  0
   61.4860   30.8740   47.3420 C   0  0  0  0  0  0  0  0  0  0  0  0
   61.5400   31.2980   48.8230 C   0  0  0  0  0  0  0  0  0  0  0  0
   61.9530   32.7140   49.0020 N   0  0  0  0  0  0  0  0  0  0  0  0
   63.4090   32.9630   48.7900 C   0  0  0  0  0  0  0  0  0  0  0  0
   63.7920   33.9520   47.6620 C   0  0  0  0  0  0  0  0  0  0  0  0
   63.0000   33.7690   46.3700 C   0  0  0  0  0  0  0  0  0  0  0  0
   61.4720   33.2470   50.3090 C   0  0  0  0  0  0  0  0  0  0  0  0
   60.0550   33.8450   50.2170 C   0  0  0  0  0  0  0  0  0  0  0  0
   59.8600   34.5300   48.9790 O   0  0  0  0  0  0  0  0  0  0  0  0
   59.3750   33.9550   47.7930 C   0  0  0  0  0  0  0  0  0  0  0  0
   59.6070   34.5160   46.5240 C   0  0  0  0  0  0  0  0  0  0  0  0
   59.1040   33.8980   45.3750 C   0  0  0  0  0  0  0  0  0  0  0  0
   58.3550   32.7100   45.4680 C   0  0  0  0  0  0  0  0  0  0  0  0
   57.8160   32.0450   44.2530 C   0  0  0  0  0  0  0  0  0  0  0  0
   57.9670   32.4630   42.9300 C   0  0  0  0  0  0  0  0  0  0  0  0
   57.3440   31.6210   42.0000 C   0  0  0  0  0  0  0  0  0  0  0  0
   56.6980   30.5350   42.5710 C   0  0  0  0  0  0  0  0  0  0  0  0
   56.9070   30.6240   44.2350 S   0  0  0  0  0  0  0  0  0  0  0  0
   58.1180   32.1630   46.7420 C   0  0  0  0  0  0  0  0  0  0  0  0
   58.6220   32.7820   47.8890 C   0  0  0  0  0  0  0  0  0  0  0  0
   60.0871   29.4108   48.0928 H   0  0  0  0  0  0  0  0  0  0  0  0
   59.5942   30.1949   46.5537 H   0  0  0  0  0  0  0  0  0  0  0  0
   60.8926   28.9536   46.5537 H   0  0  0  0  0  0  0  0  0  0  0  0
   62.4733   30.4935   47.0411 H   0  0  0  0  0  0  0  0  0  0  0  0
   61.2085   31.7503   46.7378 H   0  0  0  0  0  0  0  0  0  0  0  0
   60.5408   31.1650   49.2633 H   0  0  0  0  0  0  0  0  0  0  0  0
   62.2923   30.6683   49.3205 H   0  0  0  0  0  0  0  0  0  0  0  0
   61.4760   33.2590   48.2430 H   0  0  0  0  0  0  0  0  0  0  0  0
   63.8196   33.3570   49.7314 H   0  0  0  0  0  0  0  0  0  0  0  0
   63.8236   31.9938   48.4756 H   0  0  0  0  0  0  0  0  0  0  0  0
   63.6217   34.9751   48.0284 H   0  0  0  0  0  0  0  0  0  0  0  0
   64.8460   33.7558   47.4157 H   0  0  0  0  0  0  0  0  0  0  0  0
   61.9545   33.5274   46.6119 H   0  0  0  0  0  0  0  0  0  0  0  0
   63.0352   34.6989   45.7835 H   0  0  0  0  0  0  0  0  0  0  0  0
   63.4396   32.9488   45.7835 H   0  0  0  0  0  0  0  0  0  0  0  0
   61.4619   32.4270   51.0421 H   0  0  0  0  0  0  0  0  0  0  0  0
   62.1558   34.0531   50.6132 H   0  0  0  0  0  0  0  0  0  0  0  0
   59.3175   33.0328   50.2971 H   0  0  0  0  0  0  0  0  0  0  0  0
   59.9292   34.5674   51.0370 H   0  0  0  0  0  0  0  0  0  0  0  0
   60.1874   35.4462   46.4351 H   0  0  0  0  0  0  0  0  0  0  0  0
   59.2956   34.3449   44.3883 H   0  0  0  0  0  0  0  0  0  0  0  0
   58.5228   33.3683   42.6445 H   0  0  0  0  0  0  0  0  0  0  0  0
   57.3653   31.8045   40.9156 H   0  0  0  0  0  0  0  0  0  0  0  0
   56.1458   29.7528   42.0294 H   0  0  0  0  0  0  0  0  0  0  0  0
   57.5298   31.2383   46.8364 H   0  0  0  0  0  0  0  0  0  0  0  0
   58.4239   32.3414   48.8773 H   0  0  0  0  0  0  0  0  0  0  0  0
  1  2  1  0
  2  3  1  0
  3  4  1  0
  4  5  1  0
  5  6  1  0
  6  7  1  0
  4  8  1  0
  8  9  1  0
  9 10  1  0
 10 11  1  0
 11 12  2  0
 12 13  1  0
 13 14  2  0
 14 15  1  0
 15 16  2  0
 16 17  1  0
 17 18  2  0
 18 19  1  0
 14 20  1  0
 20 21  2  0
 21 11  1  0
 19 15  1  0
  1 22  1  0
  1 23  1  0
  1 24  1  0
  2 25  1  0
  2 26  1  0
  3 27  1  0
  3 28  1  0
  4 29  1  0
  5 30  1  0
  5 31  1  0
  6 32  1  0
  6 33  1  0
  7 34  1  0
  7 35  1  0
  7 36  1  0
  8 37  1  0
  8 38  1  0
  9 39  1  0
  9 40  1  0
 12 41  1  0
 13 42  1  0
 16 43  1  0
 17 44  1  0
 18 45  1  0
 20 46  1  0
 21 47  1  0
M  CHG  1   4   1
M  END
>  <UniqueID>  (24) 
22

>  <SMILES>  (24) 
CCC[NH+](CCC)CCOc1ccc(-c2cccs2)cc1

>  <Energy>  (24) 
76.68221946469743

>  <Genealogy>  (24) 
CCC[NH+](CCC)CCOc1ccc(-c2cccs2)cc1 (protonated)
CCC[NH+](CCC)CCOc1ccc(-c2cccs2)cc1 (3D coordinates assigned)
CCC[NH+](CCC)CCOc1ccc(-c2cccs2)cc1 (optimized conformer: 76.68221946469743 kcal/mol)

>  <smiles>  (24) 
CCCN(CCC)CCOc1ccc(-c2cccs2)cc1

>  <score_type>  (24) 
oracle

>  <origin>  (24) 
adg

>  <m_score__min__energy>  (24) 
-4.6600000000000001

>  <m_primary>  (24) 
energy

$$$$
24:0
     RDKit          3D

 30 32  0  0  0  0  0  0  0  0999 V2000
   58.1150   27.4540   43.4870 C   0  0  0  0  0  0  0  0  0  0  0  0
   57.5930   28.8030   44.0050 C   0  0  0  0  0  0  0  0  0  0  0  0
   56.5640   29.3730   43.0210 C   0  0  0  0  0  0  0  0  0  0  0  0
   57.1000   28.6830   45.4760 C   0  0  1  0  0  0  0  0  0  0  0  0
   55.9420   27.8110   45.6230 N   0  0  0  0  0  0  0  0  0  0  0  0
   55.8840   26.3880   45.7690 C   0  0  0  0  0  0  0  0  0  0  0  0
   54.7470   25.8630   45.9070 O   0  0  0  0  0  0  0  0  0  0  0  0
   57.0730   25.5030   45.7200 C   0  0  0  0  0  0  0  0  0  0  0  0
   56.9060   24.2110   45.1840 C   0  0  0  0  0  0  0  0  0  0  0  0
   57.9710   23.3150   45.1370 C   0  0  0  0  0  0  0  0  0  0  0  0
   59.2070   23.7040   45.6380 C   0  0  0  0  0  0  0  0  0  0  0  0
   59.3630   24.9450   46.1610 N   0  0  0  0  0  0  0  0  0  0  0  0
   58.3510   25.8580   46.2180 C   0  0  0  0  0  0  0  0  0  0  0  0
   58.6310   27.1420   46.8030 N   0  0  0  0  0  0  0  0  0  0  0  0
   58.1570   28.3680   46.4950 C   0  0  0  0  0  0  0  0  0  0  0  0
   58.7780   29.3300   47.2100 N   0  0  0  0  0  0  0  0  0  0  0  0
   59.6670   28.7350   47.9890 N   0  0  0  0  0  0  0  0  0  0  0  0
   59.5720   27.4200   47.7280 C   0  0  0  0  0  0  0  0  0  0  0  0
   60.2880   26.5520   48.2960 O   0  0  0  0  0  0  0  0  0  0  0  0
   58.3658   26.8060   44.3398 H   0  0  0  0  0  0  0  0  0  0  0  0
   57.3389   26.9710   42.8752 H   0  0  0  0  0  0  0  0  0  0  0  0
   59.0141   27.6192   42.8752 H   0  0  0  0  0  0  0  0  0  0  0  0
   58.4099   29.5385   44.0471 H   0  0  0  0  0  0  0  0  0  0  0  0
   55.7359   29.8317   43.5812 H   0  0  0  0  0  0  0  0  0  0  0  0
   57.0442   30.1337   42.3880 H   0  0  0  0  0  0  0  0  0  0  0  0
   56.1738   28.5624   42.3880 H   0  0  0  0  0  0  0  0  0  0  0  0
   56.7825   29.7101   45.7090 H   0  0  0  0  0  0  0  0  0  0  0  0
   55.9222   23.9061   44.7978 H   0  0  0  0  0  0  0  0  0  0  0  0
   57.8352   22.3111   44.7083 H   0  0  0  0  0  0  0  0  0  0  0  0
   60.0572   23.0066   45.6104 H   0  0  0  0  0  0  0  0  0  0  0  0
  1  2  1  0
  2  3  1  0
  2  4  1  0
  4  5  1  0
  5  6  1  0
  6  7  2  0
  6  8  1  0
  8  9  2  0
  9 10  1  0
 10 11  2  0
 11 12  1  0
 12 13  2  0
 13 14  1  0
 14 15  1  0
 15 16  2  0
 16 17  1  0
 17 18  1  0
 18 19  2  0
 15  4  1  0
 13  8  1  0
 18 14  1  0
  1 20  1  0
  1 21  1  0
  1 22  1  0
  2 23  1  0
  3 24  1  0
  3 25  1  0
  3 26  1  0
  4 27  1  1
  9 28  1  0
 10 29  1  0
 11 30  1  0
M  CHG  2   5  -1  17  -1
M  END
>  <UniqueID>  (25) 
23

>  <SMILES>  (25) 
CC(C)[C@H]1[N-]C(=O)c2cccnc2-n2c1n[n-]c2=O

>  <Energy>  (25) 
79.66087807662443

>  <Genealogy>  (25) 
CC(C)C1[N-]C(=O)c2cccnc2-n2c1n[n-]c2=O (protonated)
CC(C)[C@H]1[N-]C(=O)c2cccnc2-n2c1n[n-]c2=O (chirality)
CC(C)[C@H]1[N-]C(=O)c2cccnc2-n2c1n[n-]c2=O (3D coordinates assigned)
CC(C)[C@H]1[N-]C(=O)c2cccnc2-n2c1n[n-]c2=O (nonaromatic ring conformer: 79.66087807662443 kcal/mol)

>  <smiles>  (25) 
CC(C)C1NC(=O)c2cccnc2-n2c1n[nH]c2=O

>  <score_type>  (25) 
oracle

>  <origin>  (25) 
adg

>  <m_score__min__energy>  (25) 
-9.7100000000000009

>  <m_primary>  (25) 
energy

$$$$
25:0
     RDKit          3D

 55 58  0  0  0  0  0  0  0  0999 V2000
   59.1100   33.8420   48.9260 O   0  0  0  0  0  0  0  0  0  0  0  0
   59.7090   33.1630   48.0470 C   0  0  0  0  0  0  0  0  0  0  0  0
   59.1890   33.1480   46.6570 C   0  0  0  0  0  0  0  0  0  0  0  0
   58.5320   32.0060   46.1670 C   0  0  0  0  0  0  0  0  0  0  0  0
   58.0440   31.9700   44.8560 C   0  0  0  0  0  0  0  0  0  0  0  0
   57.2730   30.5020   44.2590 S   0  0  0  0  0  0  0  0  0  0  0  0
   56.2010   30.0930   45.2310 O   0  0  0  0  0  0  0  0  0  0  0  0
   56.6400   30.7590   42.9180 O   0  0  0  0  0  0  0  0  0  0  0  0
   58.4580   29.2230   44.1150 N   0  0  0  0  0  0  0  0  0  0  0  0
   59.6490   29.5070   44.9540 C   0  0  0  0  0  0  0  0  0  0  0  0
   59.6410   28.6900   46.2590 C   0  0  0  0  0  0  0  0  0  0  0  0
   59.6120   27.2850   46.0440 O   0  0  0  0  0  0  0  0  0  0  0  0
   58.8950   26.8990   44.8780 C   0  0  0  0  0  0  0  0  0  0  0  0
   57.8350   27.9180   44.4290 C   0  0  0  0  0  0  0  0  0  0  0  0
   58.1930   33.0910   44.0290 C   0  0  0  0  0  0  0  0  0  0  0  0
   58.8260   34.2380   44.5130 C   0  0  0  0  0  0  0  0  0  0  0  0
   59.3200   34.2740   45.8210 C   0  0  0  0  0  0  0  0  0  0  0  0
   59.9450   35.3970   46.2560 F   0  0  0  0  0  0  0  0  0  0  0  0
   60.8720   32.3990   48.4180 N   0  0  0  0  0  0  0  0  0  0  0  0
   60.9620   31.7630   49.7370 C   0  0  0  0  0  0  0  0  0  0  0  0
   62.1390   32.3530   50.5140 C   0  0  0  0  0  0  0  0  0  0  0  0
   63.3430   32.3580   49.6710 N   0  0  0  0  0  0  0  0  0  0  0  0
   64.6330   32.0690   50.2430 C   0  0  0  0  0  0  0  0  0  0  0  0
   64.8650   30.8550   50.9140 C   0  0  0  0  0  0  0  0  0  0  0  0
   66.1220   30.5810   51.4620 C   0  0  0  0  0  0  0  0  0  0  0  0
   67.1580   31.5110   51.3420 C   0  0  0  0  0  0  0  0  0  0  0  0
   66.9400   32.7170   50.6680 C   0  0  0  0  0  0  0  0  0  0  0  0
   68.2430   33.8790   50.5060 Cl  0  0  0  0  0  0  0  0  0  0  0  0
   65.6820   32.9950   50.1200 C   0  0  0  0  0  0  0  0  0  0  0  0
   63.2530   32.9620   48.3350 C   0  0  0  0  0  0  0  0  0  0  0  0
   62.0690   32.3700   47.5690 C   0  0  0  0  0  0  0  0  0  0  0  0
   58.4001   31.1314   46.8210 H   0  0  0  0  0  0  0  0  0  0  0  0
   58.7640   29.2050   43.1140 H   0  0  0  0  0  0  0  0  0  0  0  0
   60.5546   29.2553   44.3826 H   0  0  0  0  0  0  0  0  0  0  0  0
   59.6314   30.5742   45.2202 H   0  0  0  0  0  0  0  0  0  0  0  0
   60.5477   28.9368   46.8307 H   0  0  0  0  0  0  0  0  0  0  0  0
   58.7223   28.9548   46.8029 H   0  0  0  0  0  0  0  0  0  0  0  0
   59.6154   26.7652   44.0576 H   0  0  0  0  0  0  0  0  0  0  0  0
   58.3589   25.9713   45.1269 H   0  0  0  0  0  0  0  0  0  0  0  0
   57.3258   27.5366   43.5316 H   0  0  0  0  0  0  0  0  0  0  0  0
   57.1144   28.0601   45.2479 H   0  0  0  0  0  0  0  0  0  0  0  0
   57.8111   33.0678   42.9977 H   0  0  0  0  0  0  0  0  0  0  0  0
   58.9366   35.1178   43.8620 H   0  0  0  0  0  0  0  0  0  0  0  0
   60.0301   31.9416   50.2935 H   0  0  0  0  0  0  0  0  0  0  0  0
   61.1148   30.6811   49.6102 H   0  0  0  0  0  0  0  0  0  0  0  0
   61.8987   33.3840   50.8127 H   0  0  0  0  0  0  0  0  0  0  0  0
   62.3258   31.7406   51.4084 H   0  0  0  0  0  0  0  0  0  0  0  0
   64.0541   30.1177   51.0082 H   0  0  0  0  0  0  0  0  0  0  0  0
   66.2957   29.6311   51.9888 H   0  0  0  0  0  0  0  0  0  0  0  0
   68.1447   31.2947   51.7775 H   0  0  0  0  0  0  0  0  0  0  0  0
   65.5141   33.9442   49.5900 H   0  0  0  0  0  0  0  0  0  0  0  0
   63.1145   34.0486   48.4356 H   0  0  0  0  0  0  0  0  0  0  0  0
   64.1805   32.7524   47.7820 H   0  0  0  0  0  0  0  0  0  0  0  0
   61.8878   32.9620   46.6598 H   0  0  0  0  0  0  0  0  0  0  0  0
   62.2957   31.3301   47.2910 H   0  0  0  0  0  0  0  0  0  0  0  0
  1  2  2  0
  2  3  1  0
  3  4  2  0
  4  5  1  0
  5  6  1  0
  6  7  2  0
  6  8  2  0
  6  9  1  0
  9 10  1  0
 10 11  1  0
 11 12  1  0
 12 13  1  0
 13 14  1  0
  5 15  2  0
 15 16  1  0
 16 17  2  0
 17 18  1  0
  2 19  1  0
 19 20  1  0
 20 21  1  0
 21 22  1  0
 22 23  1  0
 23 24  2  0
 24 25  1  0
 25 26  2  0
 26 27  1  0
 27 28  1  0
 27 29  2  0
 22 30  1  0
 30 31  1  0
 17  3  1  0
 31 19  1  0
 14  9  1  0
 29 23  1  0
  4 32  1  0
  9 33  1  0
 10 34  1  0
 10 35  1  0
 11 36  1  0
 11 37  1  0
 13 38  1  0
 13 39  1  0
 14 40  1  0
 14 41  1  0
 15 42  1  0
 16 43  1  0
 20 44  1  0
 20 45  1  0
 21 46  1  0
 21 47  1  0
 24 48  1  0
 25 49  1  0
 26 50  1  0
 29 51  1  0
 30 52  1  0
 30 53  1  0
 31 54  1  0
 31 55  1  0
M  CHG  1   9   1
M  END
>  <UniqueID>  (26) 
24

>  <SMILES>  (26) 
O=C(c1cc(S(=O)(=O)[NH+]2CCOCC2)ccc1F)N1CCN(c2cccc(Cl)c2)CC1

>  <Energy>  (26) 
77.44067412869164

>  <Genealogy>  (26) 
O=C(c1cc(S(=O)(=O)[NH+]2CCOCC2)ccc1F)N1CCN(c2cccc(Cl)c2)CC1 (protonated)
O=C(c1cc(S(=O)(=O)[NH+]2CCOCC2)ccc1F)N1CCN(c2cccc(Cl)c2)CC1 (3D coordinates assigned)
O=C(c1cc(S(=O)(=O)[NH+]2CCOCC2)ccc1F)N1CCN(c2cccc(Cl)c2)CC1 (nonaromatic ring conformer: 77.44067412869164 kcal/mol)

>  <smiles>  (26) 
O=C(c1cc(S(=O)(=O)N2CCOCC2)ccc1F)N1CCN(c2cccc(Cl)c2)CC1

>  <score_type>  (26) 
oracle

>  <origin>  (26) 
adg

>  <m_score__min__energy>  (26) 
-8.5700000000000003

>  <m_primary>  (26) 
energy

$$$$
26:0
     RDKit          3D

 49 52  0  0  1  0  0  0  0  0999 V2000
   55.4220   29.3140   44.8660 N   0  0  0  0  0  0  0  0  0  0  0  0
   56.1500   30.2170   43.9960 C   0  0  0  0  0  0  0  0  0  0  0  0
   57.6020   30.2130   44.5380 C   0  0  2  0  0  0  0  0  0  0  0  0
   57.5740   29.2440   45.5980 N   0  0  0  0  0  0  0  0  0  0  0  0
   58.3430   28.2240   45.7170 C   0  0  0  0  0  0  0  0  0  0  0  0
   59.6920   28.3600   45.8150 N   0  0  0  0  0  0  0  0  0  0  0  0
   60.4490   27.2610   45.9360 C   0  0  0  0  0  0  0  0  0  0  0  0
   59.8870   26.0320   45.9620 N   0  0  0  0  0  0  0  0  0  0  0  0
   58.5720   25.8640   45.8680 C   0  0  0  0  0  0  0  0  0  0  0  0
   57.7680   26.9740   45.7420 C   0  0  0  0  0  0  0  0  0  0  0  0
   56.5250   26.5360   45.6700 N   0  0  0  0  0  0  0  0  0  0  0  0
   56.4860   25.1950   45.7430 C   0  0  0  0  0  0  0  0  0  0  0  0
   57.7650   24.7810   45.8670 N   0  0  0  0  0  0  0  0  0  0  0  0
   58.1370   23.3980   45.9740 C   0  0  1  0  0  0  0  0  0  0  0  0
   56.9690   22.6350   45.7440 O   0  0  0  0  0  0  0  0  0  0  0  0
   57.5190   21.3580   45.6980 C   0  0  1  0  0  0  0  0  0  0  0  0
   56.5020   20.3190   45.2850 C   0  0  0  0  0  0  0  0  0  0  0  0
   55.8480   20.7100   44.1400 O   0  0  0  0  0  0  0  0  0  0  0  0
   58.6170   21.5160   44.6840 C   0  0  1  0  0  0  0  0  0  0  0  0
   58.1760   21.4350   43.3800 O   0  0  0  0  0  0  0  0  0  0  0  0
   59.1280   22.9190   45.0040 C   0  0  2  0  0  0  0  0  0  0  0  0
   60.3900   22.7660   45.6220 O   0  0  0  0  0  0  0  0  0  0  0  0
   57.7850   31.5880   45.0690 C   0  0  0  0  0  0  0  0  0  0  0  0
   57.9500   32.7070   44.3240 C   0  0  0  0  0  0  0  0  0  0  0  0
   58.1160   33.9620   44.8740 C   0  0  0  0  0  0  0  0  0  0  0  0
   58.1130   34.0870   46.2480 C   0  0  0  0  0  0  0  0  0  0  0  0
   57.9400   32.9290   47.0050 C   0  0  0  0  0  0  0  0  0  0  0  0
   57.7810   31.7170   46.4160 N   0  0  0  0  0  0  0  0  0  0  0  0
   55.8020   28.3440   44.8010 H   0  0  0  0  0  0  0  0  0  0  0  0
   55.5400   29.5930   45.8850 H   0  0  0  0  0  0  0  0  0  0  0  0
   56.1243   29.8572   42.9568 H   0  0  0  0  0  0  0  0  0  0  0  0
   55.7138   31.2268   43.9907 H   0  0  0  0  0  0  0  0  0  0  0  0
   58.4013   29.9696   43.8226 H   0  0  0  0  0  0  0  0  0  0  0  0
   60.1220   29.2900   45.7960 H   0  0  0  0  0  0  0  0  0  0  0  0
   61.5416   27.3602   46.0152 H   0  0  0  0  0  0  0  0  0  0  0  0
   55.5887   24.5596   45.7085 H   0  0  0  0  0  0  0  0  0  0  0  0
   58.5912   23.2906   46.9701 H   0  0  0  0  0  0  0  0  0  0  0  0
   57.8791   21.0000   46.6738 H   0  0  0  0  0  0  0  0  0  0  0  0
   57.0156   19.3641   45.0998 H   0  0  0  0  0  0  0  0  0  0  0  0
   55.7644   20.2040   46.0929 H   0  0  0  0  0  0  0  0  0  0  0  0
   56.0680   21.6270   43.8510 H   0  0  0  0  0  0  0  0  0  0  0  0
   59.3725   20.7192   44.7488 H   0  0  0  0  0  0  0  0  0  0  0  0
   57.7640   20.5700   43.1360 H   0  0  0  0  0  0  0  0  0  0  0  0
   59.2414   23.5963   44.1447 H   0  0  0  0  0  0  0  0  0  0  0  0
   61.0500   22.3580   44.9850 H   0  0  0  0  0  0  0  0  0  0  0  0
   57.9518   32.6110   43.2282 H   0  0  0  0  0  0  0  0  0  0  0  0
   58.2479   34.8442   44.2303 H   0  0  0  0  0  0  0  0  0  0  0  0
   58.2427   35.0672   46.7300 H   0  0  0  0  0  0  0  0  0  0  0  0
   57.9322   32.9994   48.1027 H   0  0  0  0  0  0  0  0  0  0  0  0
  1  2  1  0
  2  3  1  0
  3  4  1  0
  4  5  2  0
  5  6  1  0
  6  7  1  0
  7  8  2  0
  8  9  1  0
  9 10  2  0
 10 11  1  0
 11 12  2  0
 12 13  1  0
 13 14  1  0
 14 15  1  0
 15 16  1  0
 16 17  1  0
 17 18  1  0
 16 19  1  0
 19 20  1  0
 19 21  1  0
 21 22  1  0
  3 23  1  0
 23 24  2  0
 24 25  1  0
 25 26  2  0
 26 27  1  0
 27 28  2  0
 10  5  1  0
 21 14  1  0
 28 23  1  0
 13  9  1  0
  1 29  1  0
  1 30  1  0
  2 31  1  0
  2 32  1  0
  3 33  1  6
  6 34  1  0
  7 35  1  0
 12 36  1  0
 14 37  1  1
 16 38  1  1
 17 39  1  0
 17 40  1  0
 18 41  1  0
 19 42  1  1
 20 43  1  0
 21 44  1  6
 22 45  1  0
 24 46  1  0
 25 47  1  0
 26 48  1  0
 27 49  1  0
M  END
>  <smiles>  (27) 
NCC(N=c1[nH]cnc2c1ncn2C1OC(CO)C(O)C1O)c1ccccn1

>  <score_type>  (27) 
oracle

>  <origin>  (27) 
adg

>  <m_score__min__energy>  (27) 
-8.2400000000000002

>  <m_primary>  (27) 
energy

$$$$
27:0
     RDKit          3D

 36 38  0  0  0  0  0  0  0  0999 V2000
   60.3630   25.9420   46.3770 C   0  0  0  0  0  0  0  0  0  0  0  0
   59.7380   27.2390   46.8910 C   0  0  0  0  0  0  0  0  0  0  0  0
   58.3950   27.5560   46.2690 C   0  0  0  0  0  0  0  0  0  0  0  0
   57.3080   26.6900   46.2130 C   0  0  0  0  0  0  0  0  0  0  0  0
   56.2650   27.2930   45.6110 N   0  0  0  0  0  0  0  0  0  0  0  0
   56.7420   28.5140   45.2980 C   0  0  0  0  0  0  0  0  0  0  0  0
   56.0130   29.5180   44.6790 C   0  0  0  0  0  0  0  0  0  0  0  0
   54.8130   29.3400   44.3410 O   0  0  0  0  0  0  0  0  0  0  0  0
   56.6190   30.7100   44.4530 N   0  0  0  0  0  0  0  0  0  0  0  0
   57.9210   30.9440   44.7930 C   0  0  0  0  0  0  0  0  0  0  0  0
   58.4620   32.3320   44.5410 C   0  0  0  0  0  0  0  0  0  0  0  0
   58.7970   33.0360   45.8320 C   0  0  0  0  0  0  0  0  0  0  0  0
   58.3700   32.5010   47.0620 C   0  0  0  0  0  0  0  0  0  0  0  0
   58.6740   33.1570   48.2580 C   0  0  0  0  0  0  0  0  0  0  0  0
   59.3970   34.3520   48.2390 C   0  0  0  0  0  0  0  0  0  0  0  0
   59.6900   34.9860   49.4020 F   0  0  0  0  0  0  0  0  0  0  0  0
   59.8120   34.8980   47.0210 C   0  0  0  0  0  0  0  0  0  0  0  0
   59.5110   34.2470   45.8220 C   0  0  0  0  0  0  0  0  0  0  0  0
   58.6820   29.8980   45.3990 C   0  0  0  0  0  0  0  0  0  0  0  0
   60.1360   30.0960   45.7570 C   0  0  0  0  0  0  0  0  0  0  0  0
   58.0270   28.7150   45.6600 N   0  0  0  0  0  0  0  0  0  0  0  0
   60.6643   25.3168   47.2304 H   0  0  0  0  0  0  0  0  0  0  0  0
   59.6281   25.3981   45.7654 H   0  0  0  0  0  0  0  0  0  0  0  0
   61.2463   26.1779   45.7654 H   0  0  0  0  0  0  0  0  0  0  0  0
   59.6048   27.1527   47.9795 H   0  0  0  0  0  0  0  0  0  0  0  0
   60.4208   28.0561   46.6150 H   0  0  0  0  0  0  0  0  0  0  0  0
   57.3012   25.6618   46.6037 H   0  0  0  0  0  0  0  0  0  0  0  0
   59.3726   32.2553   43.9287 H   0  0  0  0  0  0  0  0  0  0  0  0
   57.6885   32.9152   44.0198 H   0  0  0  0  0  0  0  0  0  0  0  0
   57.7951   31.5634   47.0819 H   0  0  0  0  0  0  0  0  0  0  0  0
   58.3431   32.7312   49.2167 H   0  0  0  0  0  0  0  0  0  0  0  0
   60.3766   35.8419   47.0065 H   0  0  0  0  0  0  0  0  0  0  0  0
   59.8342   34.6840   44.8657 H   0  0  0  0  0  0  0  0  0  0  0  0
   60.2454   30.1109   46.8514 H   0  0  0  0  0  0  0  0  0  0  0  0
   60.7319   29.2707   45.3401 H   0  0  0  0  0  0  0  0  0  0  0  0
   60.4896   31.0506   45.3401 H   0  0  0  0  0  0  0  0  0  0  0  0
  1  2  1  0
  2  3  1  0
  3  4  2  0
  4  5  1  0
  5  6  2  0
  6  7  1  0
  7  8  2  0
  7  9  1  0
  9 10  1  0
 10 11  1  0
 11 12  1  0
 12 13  2  0
 13 14  1  0
 14 15  2  0
 15 16  1  0
 15 17  1  0
 17 18  2  0
 10 19  2  0
 19 20  1  0
 19 21  1  0
 21  3  1  0
 21  6  1  0
 18 12  1  0
  1 22  1  0
  1 23  1  0
  1 24  1  0
  2 25  1  0
  2 26  1  0
  4 27  1  0
 11 28  1  0
 11 29  1  0
 13 30  1  0
 14 31  1  0
 17 32  1  0
 18 33  1  0
 20 34  1  0
 20 35  1  0
 20 36  1  0
M  CHG  1   9  -1
M  END
>  <UniqueID>  (28) 
25

>  <SMILES>  (28) 
CCc1cnc2c(=O)[n-]c(Cc3ccc(F)cc3)c(C)n12

>  <Energy>  (28) 
78.78906998788776

>  <Genealogy>  (28) 
CCc1cnc2c(=O)[n-]c(Cc3ccc(F)cc3)c(C)n12 (protonated)
CCc1cnc2c(=O)[n-]c(Cc3ccc(F)cc3)c(C)n12 (3D coordinates assigned)
CCc1cnc2c(=O)[n-]c(Cc3ccc(F)cc3)c(C)n12 (optimized conformer: 78.78906998788776 kcal/mol)

>  <smiles>  (28) 
CCc1cnc2c(=O)[nH]c(Cc3ccc(F)cc3)c(C)n12

>  <score_type>  (28) 
oracle

>  <origin>  (28) 
adg

>  <m_score__min__energy>  (28) 
-8.5700000000000003

>  <m_primary>  (28) 
energy

$$$$
28:0
     RDKit          3D

 55 58  0  0  0  0  0  0  0  0999 V2000
   54.3410   19.8680   46.2420 C   0  0  0  0  0  0  0  0  0  0  0  0
   55.0490   19.0610   45.1380 C   0  0  0  0  0  0  0  0  0  0  0  0
   56.4740   19.4150   44.9370 N   0  0  2  0  0  0  0  0  0  0  0  0
   57.3130   19.2070   46.1410 C   0  0  0  0  0  0  0  0  0  0  0  0
   57.7720   20.5890   46.6480 C   0  0  0  0  0  0  0  0  0  0  0  0
   57.3390   21.5310   45.6340 N   0  0  0  0  0  0  0  0  0  0  0  0
   57.5890   22.9460   45.6820 C   0  0  0  0  0  0  0  0  0  0  0  0
   56.5450   23.8790   45.5830 C   0  0  0  0  0  0  0  0  0  0  0  0
   56.8330   25.2430   45.6520 C   0  0  0  0  0  0  0  0  0  0  0  0
   58.1540   25.6800   45.8250 C   0  0  0  0  0  0  0  0  0  0  0  0
   58.4590   27.0860   45.9140 N   0  0  0  0  0  0  0  0  0  0  0  0
   59.5100   27.6840   45.0810 C   0  0  0  0  0  0  0  0  0  0  0  0
   59.0060   28.9740   44.4010 C   0  0  0  0  0  0  0  0  0  0  0  0
   57.8200   29.5520   45.0740 N   0  0  0  0  0  0  0  0  0  0  0  0
   57.6540   31.2360   44.6460 S   0  0  0  0  0  0  0  0  0  0  0  0
   56.2120   31.6550   44.7430 O   0  0  0  0  0  0  0  0  0  0  0  0
   58.1200   31.4480   43.2320 O   0  0  0  0  0  0  0  0  0  0  0  0
   58.6410   32.2240   45.7200 C   0  0  0  0  0  0  0  0  0  0  0  0
   59.7740   31.6830   46.3490 C   0  0  0  0  0  0  0  0  0  0  0  0
   60.5630   32.4830   47.1820 C   0  0  0  0  0  0  0  0  0  0  0  0
   60.2280   33.8240   47.3880 C   0  0  0  0  0  0  0  0  0  0  0  0
   59.1040   34.3690   46.7590 C   0  0  0  0  0  0  0  0  0  0  0  0
   58.3140   33.5710   45.9250 C   0  0  0  0  0  0  0  0  0  0  0  0
   57.9060   29.4110   46.5350 C   0  0  0  0  0  0  0  0  0  0  0  0
   57.7730   27.9300   46.9020 C   0  0  0  0  0  0  0  0  0  0  0  0
   59.1640   24.7150   45.9490 C   0  0  0  0  0  0  0  0  0  0  0  0
   58.8610   23.3920   45.8750 N   0  0  0  0  0  0  0  0  0  0  0  0
   56.6440   20.8010   44.6400 C   0  0  0  0  0  0  0  0  0  0  0  0
   56.2660   21.3070   43.5490 O   0  0  0  0  0  0  0  0  0  0  0  0
   54.6628   19.5012   47.2279 H   0  0  0  0  0  0  0  0  0  0  0  0
   54.6024   20.9319   46.1434 H   0  0  0  0  0  0  0  0  0  0  0  0
   53.2521   19.7473   46.1434 H   0  0  0  0  0  0  0  0  0  0  0  0
   54.9937   17.9947   45.4025 H   0  0  0  0  0  0  0  0  0  0  0  0
   54.5317   19.2975   44.1965 H   0  0  0  0  0  0  0  0  0  0  0  0
   56.8560   18.8510   44.1400 H   0  0  0  0  0  0  0  0  0  0  0  0
   56.7268   18.6993   46.9211 H   0  0  0  0  0  0  0  0  0  0  0  0
   58.1842   18.5818   45.8957 H   0  0  0  0  0  0  0  0  0  0  0  0
   57.3017   20.8205   47.6151 H   0  0  0  0  0  0  0  0  0  0  0  0
   58.8599   20.6275   46.8062 H   0  0  0  0  0  0  0  0  0  0  0  0
   55.5075   23.5377   45.4520 H   0  0  0  0  0  0  0  0  0  0  0  0
   56.0195   25.9789   45.5702 H   0  0  0  0  0  0  0  0  0  0  0  0
   60.3771   27.9253   45.7134 H   0  0  0  0  0  0  0  0  0  0  0  0
   59.7929   26.9625   44.3003 H   0  0  0  0  0  0  0  0  0  0  0  0
   59.8158   29.7183   44.4154 H   0  0  0  0  0  0  0  0  0  0  0  0
   58.7097   28.7131   43.3743 H   0  0  0  0  0  0  0  0  0  0  0  0
   60.0414   30.6285   46.1864 H   0  0  0  0  0  0  0  0  0  0  0  0
   61.4484   32.0560   47.6756 H   0  0  0  0  0  0  0  0  0  0  0  0
   60.8485   34.4511   48.0451 H   0  0  0  0  0  0  0  0  0  0  0  0
   58.8413   35.4249   46.9201 H   0  0  0  0  0  0  0  0  0  0  0  0
   57.4326   34.0026   45.4281 H   0  0  0  0  0  0  0  0  0  0  0  0
   58.8764   29.7921   46.8858 H   0  0  0  0  0  0  0  0  0  0  0  0
   57.0985   29.9859   47.0119 H   0  0  0  0  0  0  0  0  0  0  0  0
   58.2202   27.7620   47.8929 H   0  0  0  0  0  0  0  0  0  0  0  0
   56.7059   27.6634   46.9145 H   0  0  0  0  0  0  0  0  0  0  0  0
   60.2060   25.0301   46.1068 H   0  0  0  0  0  0  0  0  0  0  0  0
  1  2  1  0
  2  3  1  0
  3  4  1  0
  4  5  1  0
  5  6  1  0
  6  7  1  0
  7  8  2  0
  8  9  1  0
  9 10  2  0
 10 11  1  0
 11 12  1  0
 12 13  1  0
 13 14  1  0
 14 15  1  0
 15 16  2  0
 15 17  2  0
 15 18  1  0
 18 19  2  0
 19 20  1  0
 20 21  2  0
 21 22  1  0
 22 23  2  0
 14 24  1  0
 24 25  1  0
 10 26  1  0
 26 27  2  0
  6 28  1  0
 28 29  2  0
 28  3  1  0
 27  7  1  0
 25 11  1  0
 23 18  1  0
  1 30  1  0
  1 31  1  0
  1 32  1  0
  2 33  1  0
  2 34  1  0
  3 35  1  6
  4 36  1  0
  4 37  1  0
  5 38  1  0
  5 39  1  0
  8 40  1  0
  9 41  1  0
 12 42  1  0
 12 43  1  0
 13 44  1  0
 13 45  1  0
 19 46  1  0
 20 47  1  0
 21 48  1  0
 22 49  1  0
 23 50  1  0
 24 51  1  0
 24 52  1  0
 25 53  1  0
 25 54  1  0
 26 55  1  0
M  CHG  1   3   1
M  END
>  <UniqueID>  (29) 
26

>  <SMILES>  (29) 
CC[N@@H+]1CCN(c2ccc(N3CCN(S(=O)(=O)c4ccccc4)CC3)cn2)C1=O

>  <Energy>  (29) 
79.2706915747373

>  <Genealogy>  (29) 
CC[NH+]1CCN(c2ccc(N3CCN(S(=O)(=O)c4ccccc4)CC3)cn2)C1=O (protonated)
CC[N@@H+]1CCN(c2ccc(N3CCN(S(=O)(=O)c4ccccc4)CC3)cn2)C1=O (chirality)
CC[N@@H+]1CCN(c2ccc(N3CCN(S(=O)(=O)c4ccccc4)CC3)cn2)C1=O (3D coordinates assigned)
CC[N@@H+]1CCN(c2ccc(N3CCN(S(=O)(=O)c4ccccc4)CC3)cn2)C1=O (nonaromatic ring conformer: 79.2706915747373 kcal/mol)

>  <smiles>  (29) 
CCN1CCN(c2ccc(N3CCN(S(=O)(=O)c4ccccc4)CC3)cn2)C1=O

>  <score_type>  (29) 
oracle

>  <origin>  (29) 
adg

>  <m_score__min__energy>  (29) 
-7.3200000000000003

>  <m_primary>  (29) 
energy

$$$$
29:0
     RDKit          3D

 36 38  0  0  0  0  0  0  0  0999 V2000
   63.3940   34.1640   46.0040 C   0  0  0  0  0  0  0  0  0  0  0  0
   63.1660   33.1460   47.0700 C   0  0  0  0  0  0  0  0  0  0  0  0
   64.0060   32.9300   48.1010 N   0  0  0  0  0  0  0  0  0  0  0  0
   63.4760   31.9470   48.8110 N   0  0  0  0  0  0  0  0  0  0  0  0
   62.3370   31.5990   48.1800 C   0  0  0  0  0  0  0  0  0  0  0  0
   61.4020   30.5360   48.6580 C   0  0  0  0  0  0  0  0  0  0  0  0
   60.0960   31.1220   48.9480 N   0  0  0  0  0  0  0  0  0  0  0  0
   59.4430   31.9740   47.9960 C   0  0  0  0  0  0  0  0  0  0  0  0
   58.8060   31.3800   46.8950 C   0  0  0  0  0  0  0  0  0  0  0  0
   58.2320   32.1670   45.8800 C   0  0  0  0  0  0  0  0  0  0  0  0
   57.5870   31.5630   44.7410 N   0  0  0  0  0  0  0  0  0  0  0  0
   57.8080   31.8350   43.4370 C   0  0  0  0  0  0  0  0  0  0  0  0
   56.9790   31.0400   42.6750 C   0  0  0  0  0  0  0  0  0  0  0  0
   56.2650   30.2960   43.5910 C   0  0  0  0  0  0  0  0  0  0  0  0
   56.6480   30.6310   44.8390 N   0  0  0  0  0  0  0  0  0  0  0  0
   58.2920   33.5650   45.9940 C   0  0  0  0  0  0  0  0  0  0  0  0
   58.9040   34.1640   47.0960 C   0  0  0  0  0  0  0  0  0  0  0  0
   59.4700   33.3830   48.1160 C   0  0  0  0  0  0  0  0  0  0  0  0
   60.0400   34.0650   49.3020 C   0  0  0  0  0  0  0  0  0  0  0  0
   61.4530   34.1760   49.4840 N   0  0  0  0  0  0  0  0  0  0  0  0
   59.2690   34.5240   50.1880 O   0  0  0  0  0  0  0  0  0  0  0  0
   62.1410   32.3300   47.1090 O   0  0  0  0  0  0  0  0  0  0  0  0
   63.6120   35.1375   46.4673 H   0  0  0  0  0  0  0  0  0  0  0  0
   64.2455   33.8563   45.3793 H   0  0  0  0  0  0  0  0  0  0  0  0
   62.4926   34.2489   45.3793 H   0  0  0  0  0  0  0  0  0  0  0  0
   61.2929   29.7677   47.8784 H   0  0  0  0  0  0  0  0  0  0  0  0
   61.8073   30.0794   49.5730 H   0  0  0  0  0  0  0  0  0  0  0  0
   59.4900   30.6000   49.6220 H   0  0  0  0  0  0  0  0  0  0  0  0
   58.7550   30.2834   46.8249 H   0  0  0  0  0  0  0  0  0  0  0  0
   58.5293   32.5686   43.0477 H   0  0  0  0  0  0  0  0  0  0  0  0
   56.9035   31.0063   41.5781 H   0  0  0  0  0  0  0  0  0  0  0  0
   55.5009   29.5451   43.3414 H   0  0  0  0  0  0  0  0  0  0  0  0
   57.8521   34.1947   45.2066 H   0  0  0  0  0  0  0  0  0  0  0  0
   58.9433   35.2611   47.1662 H   0  0  0  0  0  0  0  0  0  0  0  0
   61.8370   34.7010   50.3010 H   0  0  0  0  0  0  0  0  0  0  0  0
   62.1190   33.6640   48.8640 H   0  0  0  0  0  0  0  0  0  0  0  0
  1  2  1  0
  2  3  2  0
  3  4  1  0
  4  5  2  0
  5  6  1  0
  6  7  1  0
  7  8  1  0
  8  9  2  0
  9 10  1  0
 10 11  1  0
 11 12  1  0
 12 13  2  0
 13 14  1  0
 14 15  2  0
 10 16  2  0
 16 17  1  0
 17 18  2  0
 18 19  1  0
 19 20  1  0
 19 21  2  0
  5 22  1  0
 22  2  1  0
 18  8  1  0
 15 11  1  0
  1 23  1  0
  1 24  1  0
  1 25  1  0
  6 26  1  0
  6 27  1  0
  7 28  1  0
  9 29  1  0
 12 30  1  0
 13 31  1  0
 14 32  1  0
 16 33  1  0
 17 34  1  0
 20 35  1  0
 20 36  1  0
M  END
>  <UniqueID>  (30) 
27

>  <SMILES>  (30) 
Cc1nnc(CNc2cc(-n3cccn3)ccc2C(N)=O)o1

>  <Energy>  (30) 
109.02125443969592

>  <Genealogy>  (30) 
Cc1nnc(CNc2cc(-n3cccn3)ccc2C(N)=O)o1 (3D coordinates assigned)
Cc1nnc(CNc2cc(-n3cccn3)ccc2C(N)=O)o1 (optimized conformer: 109.02125443969592 kcal/mol)

>  <smiles>  (30) 
Cc1nnc(CNc2cc(-n3cccn3)ccc2C(N)=O)o1

>  <score_type>  (30) 
oracle

>  <origin>  (30) 
adg

>  <m_score__min__energy>  (30) 
-7.5499999999999998

>  <m_primary>  (30) 
energy

$$$$
30:0
     RDKit          3D

 51 54  0  0  0  0  0  0  0  0999 V2000
   54.7680   28.9680   45.3400 H   0  0  0  0  0  0  0  0  0  0  0  0
   55.2920   29.6440   44.7990 O   0  0  0  0  0  0  0  0  0  0  0  0
   60.3190   29.9690   47.5900 C   0  0  0  0  0  0  0  0  0  0  0  0
   59.3200   29.1780   47.1280 C   0  0  0  0  0  0  0  0  0  0  0  0
   58.4800   29.6940   46.1950 N   0  0  0  0  0  0  0  0  0  0  0  0
   57.4390   29.0170   45.6480 C   0  0  0  0  0  0  0  0  0  0  0  0
   56.6900   29.6500   44.7060 C   0  0  0  0  0  0  0  0  0  0  0  0
   61.1320   29.8120   49.2080 S   0  0  0  0  0  0  0  0  0  0  0  0
   62.1310   31.2270   48.7600 C   0  0  0  0  0  0  0  0  0  0  0  0
   63.1140   31.8030   49.5670 C   0  0  0  0  0  0  0  0  0  0  0  0
   63.3287   31.3923   50.5646 H   0  0  0  0  0  0  0  0  0  0  0  0
   63.8240   32.9140   49.0860 C   0  0  0  0  0  0  0  0  0  0  0  0
   64.6027   33.3791   49.7083 H   0  0  0  0  0  0  0  0  0  0  0  0
   63.5420   33.4340   47.8100 C   0  0  0  0  0  0  0  0  0  0  0  0
   64.1005   34.3052   47.4371 H   0  0  0  0  0  0  0  0  0  0  0  0
   62.5510   32.8450   47.0120 C   0  0  0  0  0  0  0  0  0  0  0  0
   62.3255   33.2456   46.0127 H   0  0  0  0  0  0  0  0  0  0  0  0
   61.8550   31.7400   47.5090 C   0  0  0  0  0  0  0  0  0  0  0  0
   60.8330   31.0550   46.8080 N   0  0  0  0  0  0  0  0  0  0  0  0
   60.5110   31.3230   45.8520 H   0  0  0  0  0  0  0  0  0  0  0  0
   57.1930   27.7030   46.1160 C   0  0  0  0  0  0  0  0  0  0  0  0
   56.1810   27.0590   45.7210 O   0  0  0  0  0  0  0  0  0  0  0  0
   58.0350   27.1350   47.0410 N   0  0  0  0  0  0  0  0  0  0  0  0
   57.7700   25.7560   47.5140 C   0  0  0  0  0  0  0  0  0  0  0  0
   56.7046   25.6656   47.7722 H   0  0  0  0  0  0  0  0  0  0  0  0
   58.4043   25.5654   48.3923 H   0  0  0  0  0  0  0  0  0  0  0  0
   58.1130   24.7130   46.4370 C   0  0  0  0  0  0  0  0  0  0  0  0
   57.4737   24.8890   45.5593 H   0  0  0  0  0  0  0  0  0  0  0  0
   57.9406   23.7166   46.8700 H   0  0  0  0  0  0  0  0  0  0  0  0
   59.5740   24.7820   46.0000 C   0  0  0  0  0  0  0  0  0  0  0  0
   60.2215   24.8126   46.8887 H   0  0  0  0  0  0  0  0  0  0  0  0
   59.8190   23.8944   45.3982 H   0  0  0  0  0  0  0  0  0  0  0  0
   59.7343   25.6887   45.3982 H   0  0  0  0  0  0  0  0  0  0  0  0
   59.0940   27.8460   47.5520 C   0  0  0  0  0  0  0  0  0  0  0  0
   59.8540   27.3070   48.4020 O   0  0  0  0  0  0  0  0  0  0  0  0
   57.2790   30.3670   43.6080 N   0  0  0  0  0  0  0  0  0  0  0  0
   58.0750   29.9380   43.0850 H   0  0  0  0  0  0  0  0  0  0  0  0
   57.0740   31.8030   43.4340 C   0  0  0  0  0  0  0  0  0  0  0  0
   57.4640   32.1090   42.4520 H   0  0  0  0  0  0  0  0  0  0  0  0
   55.9977   32.0212   43.4963 H   0  0  0  0  0  0  0  0  0  0  0  0
   57.7910   32.5660   44.5120 C   0  0  0  0  0  0  0  0  0  0  0  0
   57.4120   32.4090   45.8550 C   0  0  0  0  0  0  0  0  0  0  0  0
   56.6013   31.7136   46.1179 H   0  0  0  0  0  0  0  0  0  0  0  0
   58.0620   33.1340   46.8600 C   0  0  0  0  0  0  0  0  0  0  0  0
   57.7634   33.0048   47.9108 H   0  0  0  0  0  0  0  0  0  0  0  0
   59.0900   34.0220   46.5310 C   0  0  0  0  0  0  0  0  0  0  0  0
   59.7180   34.7240   47.5070 F   0  0  0  0  0  0  0  0  0  0  0  0
   59.4690   34.1870   45.1960 C   0  0  0  0  0  0  0  0  0  0  0  0
   60.2779   34.8862   44.9375 H   0  0  0  0  0  0  0  0  0  0  0  0
   58.8220   33.4650   44.1880 C   0  0  0  0  0  0  0  0  0  0  0  0
   59.1209   33.6010   43.1382 H   0  0  0  0  0  0  0  0  0  0  0  0
  1  2  1  0
  2  3  1  0
  3  4  2  0
  4  5  1  0
  5  6  1  0
  6  7  2  0
  7  8  1  0
  8  9  1  0
  9 10  2  0
 10 11  1  0
 10 12  1  0
 12 13  1  0
 12 14  2  0
 14 15  1  0
 14 16  1  0
 16 17  1  0
 16 18  2  0
 18 19  1  0
 19 20  1  0
  6 21  1  0
 21 22  2  0
 21 23  1  0
 23 24  1  0
 24 25  1  0
 24 26  1  0
 24 27  1  0
 27 28  1  0
 27 29  1  0
 27 30  1  0
 30 31  1  0
 30 32  1  0
 30 33  1  0
 23 34  1  0
 34 35  2  0
  3 36  1  0
 36 37  1  0
 36 38  1  0
 38 39  1  0
 38 40  1  0
 38 41  1  0
 41 42  2  0
 42 43  1  0
 42 44  1  0
 44 45  1  0
 44 46  2  0
 46 47  1  0
 46 48  1  0
 48 49  1  0
 48 50  2  0
 50 51  1  0
 34  4  1  0
 50 41  1  0
 19  7  1  0
 18  9  1  0
M  CHG  1   5  -1
M  END
>  <UniqueID>  (31) 
28

>  <SMILES>  (31) 
CCCn1c(=O)/c(=C(/O)NCc2ccc(F)cc2)[n-]/c(=C2\Nc3ccccc3S2)c1=O

>  <Energy>  (31) 
91.03853389180031

>  <Genealogy>  (31) 
CCCn1c(=O)c(=C(O)NCc2ccc(F)cc2)[n-]c(=C2Nc3ccccc3S2)c1=O (protonated)
CCCn1c(=O)/c(=C(/O)NCc2ccc(F)cc2)[n-]/c(=C2\Nc3ccccc3S2)c1=O (cis-trans isomerization)
CCCn1c(=O)/c(=C(/O)NCc2ccc(F)cc2)[n-]/c(=C2\Nc3ccccc3S2)c1=O (3D coordinates assigned)
CCCn1c(=O)/c(=C(/O)NCc2ccc(F)cc2)[n-]/c(=C2\Nc3ccccc3S2)c1=O (nonaromatic ring conformer: 91.03853389180031 kcal/mol)

>  <smiles>  (31) 
CCCn1c(=O)c(=C(O)NCc2ccc(F)cc2)[nH]c(=C2Nc3ccccc3S2)c1=O

>  <score_type>  (31) 
oracle

>  <origin>  (31) 
adg

>  <m_score__min__energy>  (31) 
-10.550000000000001

>  <m_primary>  (31) 
energy

$$$$
31:0
     RDKit          3D

 28 29  0  0  1  0  0  0  0  0999 V2000
   57.6830   31.9100   42.5720 C   0  0  0  0  0  0  0  0  0  0  0  0
   57.3960   31.8670   44.0080 N   0  0  0  0  0  0  0  0  0  0  0  0
   57.5870   32.9850   44.8700 C   0  0  0  0  0  0  0  0  0  0  0  0
   56.8920   30.5850   44.4620 C   0  0  0  0  0  0  0  0  0  0  0  0
   56.0590   29.9050   44.8440 N   0  0  0  0  0  0  0  0  0  0  0  0
   56.0480   28.6790   45.2310 N   0  0  0  0  0  0  0  0  0  0  0  0
   57.1850   28.0450   45.2050 C   0  0  0  0  0  0  0  0  0  0  0  0
   57.6240   26.8980   45.5300 N   0  0  0  0  0  0  0  0  0  0  0  0
   56.6820   25.8160   45.4760 C   0  0  0  0  0  0  0  0  0  0  0  0
   55.5520   26.0570   45.9910 O   0  0  0  0  0  0  0  0  0  0  0  0
   56.9330   24.5200   44.8950 C   0  0  0  0  0  0  0  0  0  0  0  0
   56.1620   24.0980   43.8480 C   0  0  0  0  0  0  0  0  0  0  0  0
   56.3560   22.8440   43.2630 C   0  0  0  0  0  0  0  0  0  0  0  0
   57.3640   22.0800   43.8110 C   0  0  0  0  0  0  0  0  0  0  0  0
   58.1230   22.5340   44.8660 C   0  0  0  0  0  0  0  0  0  0  0  0
   57.9130   23.7710   45.4250 N   0  0  0  0  0  0  0  0  0  0  0  0
   58.3420   29.3130   44.5710 S   0  0  0  0  0  0  0  0  0  0  0  0
   58.7601   32.0714   42.4180 H   0  0  0  0  0  0  0  0  0  0  0  0
   57.3852   30.9572   42.1099 H   0  0  0  0  0  0  0  0  0  0  0  0
   57.1191   32.7337   42.1099 H   0  0  0  0  0  0  0  0  0  0  0  0
   57.5305   32.6542   45.9176 H   0  0  0  0  0  0  0  0  0  0  0  0
   58.5743   33.4308   44.6790 H   0  0  0  0  0  0  0  0  0  0  0  0
   56.8037   33.7333   44.6790 H   0  0  0  0  0  0  0  0  0  0  0  0
   55.1430   28.1960   45.5620 H   0  0  0  0  0  0  0  0  0  0  0  0
   55.3734   24.7586   43.4584 H   0  0  0  0  0  0  0  0  0  0  0  0
   55.7443   22.4896   42.4202 H   0  0  0  0  0  0  0  0  0  0  0  0
   57.5671   21.0822   43.3948 H   0  0  0  0  0  0  0  0  0  0  0  0
   58.9174   21.8901   45.2714 H   0  0  0  0  0  0  0  0  0  0  0  0
  1  2  1  0
  2  3  1  0
  2  4  1  0
  4  5  2  0
  5  6  1  0
  6  7  1  0
  7  8  2  0
  8  9  1  0
  9 10  2  0
  9 11  1  0
 11 12  2  0
 12 13  1  0
 13 14  2  0
 14 15  1  0
 15 16  2  0
  7 17  1  0
 17  4  1  0
 16 11  1  0
  1 18  1  0
  1 19  1  0
  1 20  1  0
  3 21  1  0
  3 22  1  0
  3 23  1  0
  6 24  1  0
 12 25  1  0
 13 26  1  0
 14 27  1  0
 15 28  1  0
M  END
>  <smiles>  (32) 
CN(C)c1n[nH]c(=NC(=O)c2ccccn2)s1

>  <score_type>  (32) 
oracle

>  <origin>  (32) 
adg

>  <m_score__min__energy>  (32) 
-7.0899999999999999

>  <m_primary>  (32) 
energy

$$$$
32:0
     RDKit          3D

 41 43  0  0  0  0  0  0  0  0999 V2000
   60.4670   34.2840   46.8370 C   0  0  0  0  0  0  0  0  0  0  0  0
   61.6010   33.3540   47.1840 C   0  0  0  0  0  0  0  0  0  0  0  0
   62.9000   33.6580   46.7550 C   0  0  0  0  0  0  0  0  0  0  0  0
   63.9380   32.8330   47.0670 N   0  0  0  0  0  0  0  0  0  0  0  0
   63.7490   31.7030   47.7960 C   0  0  0  0  0  0  0  0  0  0  0  0
   62.4750   31.3450   48.2290 C   0  0  0  0  0  0  0  0  0  0  0  0
   61.3750   32.1700   47.9180 C   0  0  0  0  0  0  0  0  0  0  0  0
   60.1640   31.8980   48.3250 N   0  0  0  0  0  0  0  0  0  0  0  0
   59.1840   31.0570   47.6890 C   0  0  0  0  0  0  0  0  0  0  0  0
   58.9660   29.9080   48.1570 O   0  0  0  0  0  0  0  0  0  0  0  0
   58.5470   31.4980   46.4140 C   0  0  0  0  0  0  0  0  0  0  0  0
   57.6190   32.5630   46.4660 C   0  0  0  0  0  0  0  0  0  0  0  0
   57.0710   33.0960   45.2990 C   0  0  0  0  0  0  0  0  0  0  0  0
   57.4370   32.5880   44.0580 C   0  0  0  0  0  0  0  0  0  0  0  0
   58.3340   31.5270   43.9780 C   0  0  0  0  0  0  0  0  0  0  0  0
   58.8650   30.9420   45.1400 C   0  0  0  0  0  0  0  0  0  0  0  0
   59.9630   29.5250   44.9090 S   0  0  0  0  0  0  0  0  0  0  0  0
   58.8630   28.3410   45.7150 C   0  0  0  0  0  0  0  0  0  0  0  0
   59.4040   27.5050   46.7050 C   0  0  0  0  0  0  0  0  0  0  0  0
   58.6190   26.5230   47.3120 C   0  0  0  0  0  0  0  0  0  0  0  0
   57.2830   26.3730   46.9460 C   0  0  0  0  0  0  0  0  0  0  0  0
   56.7200   27.2210   45.9920 C   0  0  0  0  0  0  0  0  0  0  0  0
   57.4910   28.2260   45.3810 C   0  0  0  0  0  0  0  0  0  0  0  0
   56.8580   29.1300   44.4650 N   0  0  0  0  0  0  0  0  0  0  0  0
   55.9460   29.8860   44.8630 O   0  0  0  0  0  0  0  0  0  0  0  0
   57.0360   28.9660   43.1110 O   0  0  0  0  0  0  0  0  0  0  0  0
   60.0065   34.6617   47.7618 H   0  0  0  0  0  0  0  0  0  0  0  0
   60.8530   35.1290   46.2480 H   0  0  0  0  0  0  0  0  0  0  0  0
   59.7139   33.7401   46.2480 H   0  0  0  0  0  0  0  0  0  0  0  0
   63.0823   34.5673   46.1634 H   0  0  0  0  0  0  0  0  0  0  0  0
   64.8980   33.0800   46.7450 H   0  0  0  0  0  0  0  0  0  0  0  0
   64.6095   31.0652   48.0465 H   0  0  0  0  0  0  0  0  0  0  0  0
   62.3276   30.4231   48.8108 H   0  0  0  0  0  0  0  0  0  0  0  0
   57.3245   32.9778   47.4413 H   0  0  0  0  0  0  0  0  0  0  0  0
   56.3465   33.9214   45.3612 H   0  0  0  0  0  0  0  0  0  0  0  0
   57.0178   33.0245   43.1394 H   0  0  0  0  0  0  0  0  0  0  0  0
   58.6313   31.1411   42.9918 H   0  0  0  0  0  0  0  0  0  0  0  0
   60.4555   27.6249   47.0049 H   0  0  0  0  0  0  0  0  0  0  0  0
   59.0555   25.8672   48.0797 H   0  0  0  0  0  0  0  0  0  0  0  0
   56.6715   25.5850   47.4098 H   0  0  0  0  0  0  0  0  0  0  0  0
   55.6621   27.1023   45.7148 H   0  0  0  0  0  0  0  0  0  0  0  0
  1  2  1  0
  2  3  2  0
  3  4  1  0
  4  5  1  0
  5  6  2  0
  6  7  1  0
  7  8  2  3
  8  9  1  0
  9 10  2  0
  9 11  1  0
 11 12  2  0
 12 13  1  0
 13 14  2  0
 14 15  1  0
 15 16  2  0
 16 17  1  0
 17 18  1  0
 18 19  2  0
 19 20  1  0
 20 21  2  0
 21 22  1  0
 22 23  2  0
 23 24  1  0
 24 25  2  0
 24 26  1  0
  7  2  1  0
 16 11  1  0
 23 18  1  0
  1 27  1  0
  1 28  1  0
  1 29  1  0
  3 30  1  0
  4 31  1  0
  5 32  1  0
  6 33  1  0
 12 34  1  0
 13 35  1  0
 14 36  1  0
 15 37  1  0
 19 38  1  0
 20 39  1  0
 21 40  1  0
 22 41  1  0
M  CHG  2  24   1  26  -1
M  END
>  <UniqueID>  (33) 
29

>  <SMILES>  (33) 
Cc1c[nH]ccc1=NC(=O)c1ccccc1Sc1ccccc1[N+](=O)[O-]

>  <Energy>  (33) 
59.2236911553356

>  <Genealogy>  (33) 
Cc1c[nH]ccc1=NC(=O)c1ccccc1Sc1ccccc1[N+](=O)[O-] (3D coordinates assigned)
Cc1c[nH]ccc1=NC(=O)c1ccccc1Sc1ccccc1[N+](=O)[O-] (optimized conformer: 59.2236911553356 kcal/mol)

>  <smiles>  (33) 
Cc1c[nH]ccc1=NC(=O)c1ccccc1Sc1ccccc1[N+](=O)[O-]

>  <score_type>  (33) 
oracle

>  <origin>  (33) 
adg

>  <m_score__min__energy>  (33) 
-8.5999999999999996

>  <m_primary>  (33) 
energy

$$$$
33:0
     RDKit          3D

 44 47  0  0  0  0  0  0  0  0999 V2000
   58.8810   34.8553   43.8526 H   0  0  0  0  0  0  0  0  0  0  0  0
   58.6600   34.3890   44.8240 C   0  0  0  0  0  0  0  0  0  0  0  0
   59.6290   34.5870   45.9170 C   0  0  0  0  0  0  0  0  0  0  0  0
   59.6920   35.7180   46.4690 O   0  0  0  0  0  0  0  0  0  0  0  0
   60.5110   33.5230   46.3200 N   0  0  0  0  0  0  0  0  0  0  0  0
   60.4560   32.6160   45.8080 H   0  0  0  0  0  0  0  0  0  0  0  0
   61.4810   33.6480   47.3760 C   0  0  0  0  0  0  0  0  0  0  0  0
   62.8180   33.2650   47.1560 C   0  0  0  0  0  0  0  0  0  0  0  0
   63.1214   32.8875   46.1683 H   0  0  0  0  0  0  0  0  0  0  0  0
   63.7620   33.3600   48.1800 C   0  0  0  0  0  0  0  0  0  0  0  0
   64.8055   33.0664   47.9930 H   0  0  0  0  0  0  0  0  0  0  0  0
   63.3860   33.8260   49.4390 C   0  0  0  0  0  0  0  0  0  0  0  0
   64.1340   33.9076   50.2414 H   0  0  0  0  0  0  0  0  0  0  0  0
   62.0600   34.1890   49.6810 C   0  0  0  0  0  0  0  0  0  0  0  0
   61.7668   34.5495   50.6780 H   0  0  0  0  0  0  0  0  0  0  0  0
   61.0970   34.0980   48.6630 C   0  0  0  0  0  0  0  0  0  0  0  0
   59.7460   34.4820   48.9510 N   0  0  0  0  0  0  0  0  0  0  0  0
   59.3210   35.3530   48.5690 H   0  0  0  0  0  0  0  0  0  0  0  0
   59.1440   33.8860   49.5630 H   0  0  0  0  0  0  0  0  0  0  0  0
   57.5270   33.6790   44.9330 C   0  0  0  0  0  0  0  0  0  0  0  0
   56.5762   34.2318   44.9147 H   0  0  0  0  0  0  0  0  0  0  0  0
   57.4610   32.2080   45.0760 C   0  0  0  0  0  0  0  0  0  0  0  0
   58.1080   31.5470   46.1330 C   0  0  0  0  0  0  0  0  0  0  0  0
   58.7013   32.1240   46.8576 H   0  0  0  0  0  0  0  0  0  0  0  0
   58.0020   30.1600   46.2690 C   0  0  0  0  0  0  0  0  0  0  0  0
   58.5180   29.6513   47.0966 H   0  0  0  0  0  0  0  0  0  0  0  0
   57.2410   29.4110   45.3560 C   0  0  0  0  0  0  0  0  0  0  0  0
   57.1480   27.9400   45.4860 C   0  0  0  0  0  0  0  0  0  0  0  0
   55.9630   27.2830   45.6200 N   0  0  0  0  0  0  0  0  0  0  0  0
   56.3460   26.0010   45.7080 C   0  0  0  0  0  0  0  0  0  0  0  0
   55.5360   24.8770   45.8590 C   0  0  0  0  0  0  0  0  0  0  0  0
   54.4416   24.9675   45.9227 H   0  0  0  0  0  0  0  0  0  0  0  0
   56.1690   23.6220   45.9270 C   0  0  0  0  0  0  0  0  0  0  0  0
   55.5647   22.7104   46.0446 H   0  0  0  0  0  0  0  0  0  0  0  0
   57.5780   23.5260   45.8450 C   0  0  0  0  0  0  0  0  0  0  0  0
   58.0631   22.5403   45.9003 H   0  0  0  0  0  0  0  0  0  0  0  0
   58.3630   24.6850   45.6930 C   0  0  0  0  0  0  0  0  0  0  0  0
   59.4594   24.6260   45.6272 H   0  0  0  0  0  0  0  0  0  0  0  0
   57.7010   25.9090   45.6290 C   0  0  0  0  0  0  0  0  0  0  0  0
   58.2400   27.1270   45.4860 N   0  0  0  0  0  0  0  0  0  0  0  0
   56.5720   30.0790   44.3160 C   0  0  0  0  0  0  0  0  0  0  0  0
   55.9654   29.5053   43.5999 H   0  0  0  0  0  0  0  0  0  0  0  0
   56.6720   31.4680   44.1850 C   0  0  0  0  0  0  0  0  0  0  0  0
   56.1286   31.9821   43.3785 H   0  0  0  0  0  0  0  0  0  0  0  0
  1  2  1  0
  2  3  1  0
  3  4  2  0
  3  5  1  0
  5  6  1  0
  5  7  1  0
  7  8  2  0
  8  9  1  0
  8 10  1  0
 10 11  1  0
 10 12  2  0
 12 13  1  0
 12 14  1  0
 14 15  1  0
 14 16  2  0
 16 17  1  0
 17 18  1  0
 17 19  1  0
  2 20  2  0
 20 21  1  0
 20 22  1  0
 22 23  2  0
 23 24  1  0
 23 25  1  0
 25 26  1  0
 25 27  2  0
 27 28  1  0
 28 29  2  0
 29 30  1  0
 30 31  2  0
 31 32  1  0
 31 33  1  0
 33 34  1  0
 33 35  2  0
 35 36  1  0
 35 37  1  0
 37 38  1  0
 37 39  2  0
 39 40  1  0
 27 41  1  0
 41 42  1  0
 41 43  2  0
 43 44  1  0
 16  7  1  0
 43 22  1  0
 40 28  1  0
 39 30  1  0
M  CHG  1  40  -1
M  END
>  <UniqueID>  (34) 
30

>  <SMILES>  (34) 
Nc1ccccc1NC(=O)/C=C\c1ccc(-c2nc3ccccc3[n-]2)cc1

>  <Energy>  (34) 
96.17956174653776

>  <Genealogy>  (34) 
Nc1ccccc1NC(=O)C=Cc1ccc(-c2nc3ccccc3[n-]2)cc1 (protonated)
Nc1ccccc1NC(=O)/C=C\c1ccc(-c2nc3ccccc3[n-]2)cc1 (cis-trans isomerization)
Nc1ccccc1NC(=O)/C=C\c1ccc(-c2nc3ccccc3[n-]2)cc1 (3D coordinates assigned)
Nc1ccccc1NC(=O)/C=C\c1ccc(-c2nc3ccccc3[n-]2)cc1 (optimized conformer: 96.17956174653776 kcal/mol)

>  <smiles>  (34) 
Nc1ccccc1NC(=O)C=Cc1ccc(-c2nc3ccccc3[nH]2)cc1

>  <score_type>  (34) 
oracle

>  <origin>  (34) 
adg

>  <m_score__min__energy>  (34) 
-10.09

>  <m_primary>  (34) 
energy

$$$$
34:0
     RDKit          3D

 34 36  0  0  0  0  0  0  0  0999 V2000
   60.0020   30.7590   48.1600 C   0  0  0  0  0  0  0  0  0  0  0  0
   61.0270   31.7580   47.6880 C   0  0  0  0  0  0  0  0  0  0  0  0
   62.3880   31.4060   47.7360 C   0  0  0  0  0  0  0  0  0  0  0  0
   63.3680   32.2920   47.2880 C   0  0  0  0  0  0  0  0  0  0  0  0
   63.0050   33.5370   46.7790 C   0  0  0  0  0  0  0  0  0  0  0  0
   61.6620   33.9060   46.7260 C   0  0  0  0  0  0  0  0  0  0  0  0
   60.6560   33.0350   47.1850 C   0  0  0  0  0  0  0  0  0  0  0  0
   59.2230   33.5210   47.1540 C   0  0  0  0  0  0  0  0  0  0  0  0
   58.6560   33.7930   45.4350 S   0  0  0  0  0  0  0  0  0  0  0  0
   57.9010   32.1780   45.2750 C   0  0  0  0  0  0  0  0  0  0  0  0
   56.6380   31.9690   44.8630 N   0  0  0  0  0  0  0  0  0  0  0  0
   56.4710   30.6550   44.8480 N   0  0  0  0  0  0  0  0  0  0  0  0
   57.6410   30.1180   45.2480 C   0  0  0  0  0  0  0  0  0  0  0  0
   57.9090   28.6720   45.3460 C   0  0  0  0  0  0  0  0  0  0  0  0
   58.1520   28.0670   46.5920 C   0  0  0  0  0  0  0  0  0  0  0  0
   58.3940   26.6930   46.6750 C   0  0  0  0  0  0  0  0  0  0  0  0
   58.3910   25.9090   45.5160 C   0  0  0  0  0  0  0  0  0  0  0  0
   58.6910   24.1840   45.6230 Cl  0  0  0  0  0  0  0  0  0  0  0  0
   58.1470   26.5020   44.2740 C   0  0  0  0  0  0  0  0  0  0  0  0
   57.9070   27.8760   44.1870 C   0  0  0  0  0  0  0  0  0  0  0  0
   58.5220   31.0510   45.5200 O   0  0  0  0  0  0  0  0  0  0  0  0
   59.9852   30.7427   49.2598 H   0  0  0  0  0  0  0  0  0  0  0  0
   59.0095   31.0458   47.7824 H   0  0  0  0  0  0  0  0  0  0  0  0
   60.2632   29.7594   47.7824 H   0  0  0  0  0  0  0  0  0  0  0  0
   62.6825   30.4224   48.1307 H   0  0  0  0  0  0  0  0  0  0  0  0
   64.4293   32.0071   47.3367 H   0  0  0  0  0  0  0  0  0  0  0  0
   63.7795   34.2299   46.4184 H   0  0  0  0  0  0  0  0  0  0  0  0
   61.3848   34.8902   46.3204 H   0  0  0  0  0  0  0  0  0  0  0  0
   58.5779   32.7679   47.6301 H   0  0  0  0  0  0  0  0  0  0  0  0
   59.1666   34.4767   47.6957 H   0  0  0  0  0  0  0  0  0  0  0  0
   58.1516   28.6785   47.5063 H   0  0  0  0  0  0  0  0  0  0  0  0
   58.5871   26.2273   47.6527 H   0  0  0  0  0  0  0  0  0  0  0  0
   58.1439   25.8857   43.3629 H   0  0  0  0  0  0  0  0  0  0  0  0
   57.7156   28.3371   43.2068 H   0  0  0  0  0  0  0  0  0  0  0  0
  1  2  1  0
  2  3  2  0
  3  4  1  0
  4  5  2  0
  5  6  1  0
  6  7  2  0
  7  8  1  0
  8  9  1  0
  9 10  1  0
 10 11  2  0
 11 12  1  0
 12 13  2  0
 13 14  1  0
 14 15  2  0
 15 16  1  0
 16 17  2  0
 17 18  1  0
 17 19  1  0
 19 20  2  0
 13 21  1  0
  7  2  1  0
 21 10  1  0
 20 14  1  0
  1 22  1  0
  1 23  1  0
  1 24  1  0
  3 25  1  0
  4 26  1  0
  5 27  1  0
  6 28  1  0
  8 29  1  0
  8 30  1  0
 15 31  1  0
 16 32  1  0
 19 33  1  0
 20 34  1  0
M  END
>  <UniqueID>  (35) 
31

>  <SMILES>  (35) 
Cc1ccccc1CSc1nnc(-c2ccc(Cl)cc2)o1

>  <Energy>  (35) 
67.173508040965

>  <Genealogy>  (35) 
Cc1ccccc1CSc1nnc(-c2ccc(Cl)cc2)o1 (3D coordinates assigned)
Cc1ccccc1CSc1nnc(-c2ccc(Cl)cc2)o1 (optimized conformer: 67.173508040965 kcal/mol)

>  <smiles>  (35) 
Cc1ccccc1CSc1nnc(-c2ccc(Cl)cc2)o1

>  <score_type>  (35) 
oracle

>  <origin>  (35) 
adg

>  <m_score__min__energy>  (35) 
-7.9699999999999998

>  <m_primary>  (35) 
energy

$$$$
35:0
     RDKit          3D

 41 43  0  0  0  0  0  0  0  0999 V2000
   58.8180   27.9530   47.2550 C   0  0  0  0  0  0  0  0  0  0  0  0
   58.2580   28.9520   46.2930 C   0  0  0  0  0  0  0  0  0  0  0  0
   57.0860   28.7610   45.6520 N   0  0  0  0  0  0  0  0  0  0  0  0
   56.9580   29.8490   44.8700 C   0  0  0  0  0  0  0  0  0  0  0  0
   55.6050   30.0900   43.7780 Cl  0  0  0  0  0  0  0  0  0  0  0  0
   58.0370   30.6950   45.0540 C   0  0  0  0  0  0  0  0  0  0  0  0
   58.2480   32.0240   44.3560 C   0  0  0  0  0  0  0  0  0  0  0  0
   57.8030   33.2030   45.1360 N   0  0  0  0  0  0  0  0  0  0  0  0
   57.4410   32.9710   46.5480 C   0  0  0  0  0  0  0  0  0  0  0  0
   58.6590   33.0330   47.4860 C   0  0  0  0  0  0  0  0  0  0  0  0
   59.7080   33.9160   46.9580 N   0  0  0  0  0  0  0  0  0  0  0  0
   61.0850   33.7940   47.3900 C   0  0  0  0  0  0  0  0  0  0  0  0
   61.4390   33.8480   48.7540 C   0  0  0  0  0  0  0  0  0  0  0  0
   62.7750   33.6930   49.1280 C   0  0  0  0  0  0  0  0  0  0  0  0
   63.7530   33.4960   48.1530 C   0  0  0  0  0  0  0  0  0  0  0  0
   63.3770   33.4610   46.8120 C   0  0  0  0  0  0  0  0  0  0  0  0
   62.0710   33.6060   46.4660 N   0  0  0  0  0  0  0  0  0  0  0  0
   59.2900   35.0120   46.0760 C   0  0  0  0  0  0  0  0  0  0  0  0
   58.5090   34.4740   44.8660 C   0  0  0  0  0  0  0  0  0  0  0  0
   58.8820   30.0960   45.9230 N   0  0  0  0  0  0  0  0  0  0  0  0
   60.2060   30.5390   46.3610 C   0  0  0  0  0  0  0  0  0  0  0  0
   58.6291   28.2900   48.2849 H   0  0  0  0  0  0  0  0  0  0  0  0
   58.3349   26.9780   47.0938 H   0  0  0  0  0  0  0  0  0  0  0  0
   59.9018   27.8563   47.0938 H   0  0  0  0  0  0  0  0  0  0  0  0
   59.3220   32.1357   44.1463 H   0  0  0  0  0  0  0  0  0  0  0  0
   57.6331   32.0007   43.4442 H   0  0  0  0  0  0  0  0  0  0  0  0
   56.7177   33.7397   46.8577 H   0  0  0  0  0  0  0  0  0  0  0  0
   57.0132   31.9603   46.6218 H   0  0  0  0  0  0  0  0  0  0  0  0
   58.3347   33.4116   48.4666 H   0  0  0  0  0  0  0  0  0  0  0  0
   59.0764   32.0190   47.5729 H   0  0  0  0  0  0  0  0  0  0  0  0
   60.6662   34.0115   49.5195 H   0  0  0  0  0  0  0  0  0  0  0  0
   63.0564   33.7262   50.1909 H   0  0  0  0  0  0  0  0  0  0  0  0
   64.8076   33.3699   48.4393 H   0  0  0  0  0  0  0  0  0  0  0  0
   64.1388   33.3157   46.0319 H   0  0  0  0  0  0  0  0  0  0  0  0
   58.6478   35.7039   46.6406 H   0  0  0  0  0  0  0  0  0  0  0  0
   60.1880   35.5325   45.7119 H   0  0  0  0  0  0  0  0  0  0  0  0
   57.7659   35.2284   44.5681 H   0  0  0  0  0  0  0  0  0  0  0  0
   59.2425   34.2736   44.0712 H   0  0  0  0  0  0  0  0  0  0  0  0
   60.2434   30.5515   47.4603 H   0  0  0  0  0  0  0  0  0  0  0  0
   60.9700   29.8475   45.9760 H   0  0  0  0  0  0  0  0  0  0  0  0
   60.4000   31.5510   45.9760 H   0  0  0  0  0  0  0  0  0  0  0  0
  1  2  1  0
  2  3  2  0
  3  4  1  0
  4  5  1  0
  4  6  2  0
  6  7  1  0
  7  8  1  0
  8  9  1  0
  9 10  1  0
 10 11  1  0
 11 12  1  0
 12 13  2  0
 13 14  1  0
 14 15  2  0
 15 16  1  0
 16 17  2  0
 11 18  1  0
 18 19  1  0
  6 20  1  0
 20 21  1  0
 20  2  1  0
 19  8  1  0
 17 12  1  0
  1 22  1  0
  1 23  1  0
  1 24  1  0
  7 25  1  0
  7 26  1  0
  9 27  1  0
  9 28  1  0
 10 29  1  0
 10 30  1  0
 13 31  1  0
 14 32  1  0
 15 33  1  0
 16 34  1  0
 18 35  1  0
 18 36  1  0
 19 37  1  0
 19 38  1  0
 21 39  1  0
 21 40  1  0
 21 41  1  0
M  END
>  <UniqueID>  (36) 
32

>  <SMILES>  (36) 
Cc1nc(Cl)c(CN2CCN(c3ccccn3)CC2)n1C

>  <Energy>  (36) 
84.79982699450343

>  <Genealogy>  (36) 
Cc1nc(Cl)c(CN2CCN(c3ccccn3)CC2)n1C (3D coordinates assigned)
Cc1nc(Cl)c(CN2CCN(c3ccccn3)CC2)n1C (nonaromatic ring conformer: 84.79982699450343 kcal/mol)

>  <smiles>  (36) 
Cc1nc(Cl)c(CN2CCN(c3ccccn3)CC2)n1C

>  <score_type>  (36) 
oracle

>  <origin>  (36) 
adg

>  <m_score__min__energy>  (36) 
-7.3300000000000001

>  <m_primary>  (36) 
energy

$$$$
36:0
     RDKit          3D

 31 33  0  0  0  0  0  0  0  0999 V2000
   55.1550   29.3270   44.7990 O   0  0  0  0  0  0  0  0  0  0  0  0
   56.3330   29.7690   44.8700 C   0  0  0  0  0  0  0  0  0  0  0  0
   56.5840   31.0510   44.5000 N   0  0  0  0  0  0  0  0  0  0  0  0
   57.8360   31.5720   44.5590 C   0  0  0  0  0  0  0  0  0  0  0  0
   58.1070   33.2840   44.0980 S   0  0  0  0  0  0  0  0  0  0  0  0
   57.3920   33.9690   45.6350 C   0  0  0  0  0  0  0  0  0  0  0  0
   58.3430   33.8100   46.7940 C   0  0  0  0  0  0  0  0  0  0  0  0
   58.1620   32.7660   47.7180 C   0  0  0  0  0  0  0  0  0  0  0  0
   59.0710   32.5840   48.7630 C   0  0  0  0  0  0  0  0  0  0  0  0
   60.1650   33.4410   48.8980 C   0  0  0  0  0  0  0  0  0  0  0  0
   60.3530   34.4830   47.9850 C   0  0  0  0  0  0  0  0  0  0  0  0
   59.4490   34.6690   46.9340 C   0  0  0  0  0  0  0  0  0  0  0  0
   59.6570   35.6770   46.0500 F   0  0  0  0  0  0  0  0  0  0  0  0
   58.8770   30.8070   44.9870 N   0  0  0  0  0  0  0  0  0  0  0  0
   58.6800   29.5190   45.3820 C   0  0  0  0  0  0  0  0  0  0  0  0
   59.7530   28.7440   45.8470 C   0  0  0  0  0  0  0  0  0  0  0  0
   59.5430   27.4240   46.2550 C   0  0  0  0  0  0  0  0  0  0  0  0
   58.2610   26.8690   46.2030 C   0  0  0  0  0  0  0  0  0  0  0  0
   57.1830   27.6300   45.7440 C   0  0  0  0  0  0  0  0  0  0  0  0
   57.3830   28.9600   45.3330 C   0  0  0  0  0  0  0  0  0  0  0  0
   57.1810   35.0385   45.4875 H   0  0  0  0  0  0  0  0  0  0  0  0
   56.4666   33.4204   45.8646 H   0  0  0  0  0  0  0  0  0  0  0  0
   57.3006   32.0893   47.6176 H   0  0  0  0  0  0  0  0  0  0  0  0
   58.9246   31.7637   49.4811 H   0  0  0  0  0  0  0  0  0  0  0  0
   60.8787   33.2964   49.7224 H   0  0  0  0  0  0  0  0  0  0  0  0
   61.2143   35.1585   48.0935 H   0  0  0  0  0  0  0  0  0  0  0  0
   59.8340   31.2270   45.0240 H   0  0  0  0  0  0  0  0  0  0  0  0
   60.7633   29.1769   45.8906 H   0  0  0  0  0  0  0  0  0  0  0  0
   60.3881   26.8205   46.6178 H   0  0  0  0  0  0  0  0  0  0  0  0
   58.1004   25.8294   46.5246 H   0  0  0  0  0  0  0  0  0  0  0  0
   56.1764   27.1883   45.7040 H   0  0  0  0  0  0  0  0  0  0  0  0
  1  2  2  0
  2  3  1  0
  3  4  2  0
  4  5  1  0
  5  6  1  0
  6  7  1  0
  7  8  2  0
  8  9  1  0
  9 10  2  0
 10 11  1  0
 11 12  2  0
 12 13  1  0
  4 14  1  0
 14 15  1  0
 15 16  2  0
 16 17  1  0
 17 18  2  0
 18 19  1  0
 19 20  2  0
 20  2  1  0
 12  7  1  0
 20 15  1  0
  6 21  1  0
  6 22  1  0
  8 23  1  0
  9 24  1  0
 10 25  1  0
 11 26  1  0
 14 27  1  0
 16 28  1  0
 17 29  1  0
 18 30  1  0
 19 31  1  0
M  END
>  <UniqueID>  (37) 
33

>  <SMILES>  (37) 
O=c1nc(SCc2ccccc2F)[nH]c2ccccc12

>  <Energy>  (37) 
33.08243141805337

>  <Genealogy>  (37) 
O=c1nc(SCc2ccccc2F)[nH]c2ccccc12 (3D coordinates assigned)
O=c1nc(SCc2ccccc2F)[nH]c2ccccc12 (optimized conformer: 33.08243141805337 kcal/mol)

>  <smiles>  (37) 
O=c1nc(SCc2ccccc2F)[nH]c2ccccc12

>  <score_type>  (37) 
oracle

>  <origin>  (37) 
adg

>  <m_score__min__energy>  (37) 
-7.7599999999999998

>  <m_primary>  (37) 
energy

$$$$
37:0
     RDKit          3D

 50 52  0  0  0  0  0  0  0  0999 V2000
   67.5000   32.0960   51.2320 C   0  0  0  0  0  0  0  0  0  0  0  0
   66.0470   31.8730   50.9310 C   0  0  0  0  0  0  0  0  0  0  0  0
   65.3450   30.8400   51.5670 C   0  0  0  0  0  0  0  0  0  0  0  0
   63.9840   30.6570   51.3150 C   0  0  0  0  0  0  0  0  0  0  0  0
   63.3110   31.5110   50.4400 C   0  0  0  0  0  0  0  0  0  0  0  0
   63.9940   32.5640   49.8020 C   0  0  0  0  0  0  0  0  0  0  0  0
   63.3070   33.4380   48.8780 N   0  0  0  0  0  0  0  0  0  0  0  0
   63.7760   33.5170   47.4800 C   0  0  0  0  0  0  0  0  0  0  0  0
   62.6420   33.3710   46.4470 C   0  0  0  0  0  0  0  0  0  0  0  0
   61.4040   34.2280   46.7780 C   0  0  0  0  0  0  0  0  0  0  0  0
   60.3930   33.5000   47.5800 N   0  0  0  0  0  0  0  0  0  0  0  0
   59.0740   34.1570   47.4860 C   0  0  0  0  0  0  0  0  0  0  0  0
   58.1860   33.3560   46.5870 C   0  0  0  0  0  0  0  0  0  0  0  0
   58.6360   32.5830   45.5760 N   0  0  0  0  0  0  0  0  0  0  0  0
   57.4760   32.1860   45.0050 C   0  0  0  0  0  0  0  0  0  0  0  0
   57.3910   31.3040   43.7950 C   0  0  0  0  0  0  0  0  0  0  0  0
   58.0800   31.9720   42.6010 C   0  0  0  0  0  0  0  0  0  0  0  0
   58.0050   29.9310   44.0850 C   0  0  0  0  0  0  0  0  0  0  0  0
   56.4330   32.6910   45.6190 O   0  0  0  0  0  0  0  0  0  0  0  0
   56.8440   33.4240   46.6050 N   0  0  0  0  0  0  0  0  0  0  0  0
   60.8160   33.3280   48.9900 C   0  0  0  0  0  0  0  0  0  0  0  0
   62.0860   34.1480   49.2990 C   0  0  0  0  0  0  0  0  0  0  0  0
   65.3660   32.7390   50.0620 C   0  0  0  0  0  0  0  0  0  0  0  0
   67.6494   32.1189   52.3216 H   0  0  0  0  0  0  0  0  0  0  0  0
   68.0941   31.2785   50.7975 H   0  0  0  0  0  0  0  0  0  0  0  0
   67.8216   33.0540   50.7975 H   0  0  0  0  0  0  0  0  0  0  0  0
   65.8679   30.1715   52.2668 H   0  0  0  0  0  0  0  0  0  0  0  0
   63.4405   29.8373   51.8076 H   0  0  0  0  0  0  0  0  0  0  0  0
   62.2386   31.3602   50.2473 H   0  0  0  0  0  0  0  0  0  0  0  0
   64.2619   34.4923   47.3294 H   0  0  0  0  0  0  0  0  0  0  0  0
   64.4705   32.6788   47.3217 H   0  0  0  0  0  0  0  0  0  0  0  0
   63.0251   33.6761   45.4620 H   0  0  0  0  0  0  0  0  0  0  0  0
   62.3231   32.3183   46.4587 H   0  0  0  0  0  0  0  0  0  0  0  0
   61.7311   35.1119   47.3453 H   0  0  0  0  0  0  0  0  0  0  0  0
   60.9306   34.5040   45.8242 H   0  0  0  0  0  0  0  0  0  0  0  0
   58.6227   34.2201   48.4872 H   0  0  0  0  0  0  0  0  0  0  0  0
   59.1954   35.1707   47.0764 H   0  0  0  0  0  0  0  0  0  0  0  0
   56.3310   31.1547   43.5418 H   0  0  0  0  0  0  0  0  0  0  0  0
   58.8253   32.6946   42.9649 H   0  0  0  0  0  0  0  0  0  0  0  0
   58.5799   31.2057   41.9904 H   0  0  0  0  0  0  0  0  0  0  0  0
   57.3296   32.4954   41.9904 H   0  0  0  0  0  0  0  0  0  0  0  0
   58.0718   29.7816   45.1728 H   0  0  0  0  0  0  0  0  0  0  0  0
   57.3722   29.1461   43.6453 H   0  0  0  0  0  0  0  0  0  0  0  0
   59.0120   29.8794   43.6453 H   0  0  0  0  0  0  0  0  0  0  0  0
   56.2370   33.9750   47.2520 H   0  0  0  0  0  0  0  0  0  0  0  0
   60.0034   33.6634   49.6512 H   0  0  0  0  0  0  0  0  0  0  0  0
   61.0406   32.2643   49.1575 H   0  0  0  0  0  0  0  0  0  0  0  0
   62.0295   35.1081   48.7651 H   0  0  0  0  0  0  0  0  0  0  0  0
   62.1375   34.3052   50.3865 H   0  0  0  0  0  0  0  0  0  0  0  0
   65.9104   33.5636   49.5787 H   0  0  0  0  0  0  0  0  0  0  0  0
  1  2  1  0
  2  3  2  0
  3  4  1  0
  4  5  2  0
  5  6  1  0
  6  7  1  0
  7  8  1  0
  8  9  1  0
  9 10  1  0
 10 11  1  0
 11 12  1  0
 12 13  1  0
 13 14  1  0
 14 15  2  0
 15 16  1  0
 16 17  1  0
 16 18  1  0
 15 19  1  0
 19 20  1  0
 11 21  1  0
 21 22  1  0
  6 23  2  0
 23  2  1  0
 22  7  1  0
 20 13  2  0
  1 24  1  0
  1 25  1  0
  1 26  1  0
  3 27  1  0
  4 28  1  0
  5 29  1  0
  8 30  1  0
  8 31  1  0
  9 32  1  0
  9 33  1  0
 10 34  1  0
 10 35  1  0
 12 36  1  0
 12 37  1  0
 16 38  1  0
 17 39  1  0
 17 40  1  0
 17 41  1  0
 18 42  1  0
 18 43  1  0
 18 44  1  0
 20 45  1  0
 21 46  1  0
 21 47  1  0
 22 48  1  0
 22 49  1  0
 23 50  1  0
M  CHG  1  20   1
M  END
>  <UniqueID>  (38) 
34

>  <SMILES>  (38) 
Cc1cccc(N2CCCN(Cc3nc(C(C)C)o[nH+]3)CC2)c1

>  <Energy>  (38) 
86.9382440545921

>  <Genealogy>  (38) 
Cc1cccc(N2CCCN(Cc3nc(C(C)C)o[nH+]3)CC2)c1 (protonated)
Cc1cccc(N2CCCN(Cc3nc(C(C)C)o[nH+]3)CC2)c1 (3D coordinates assigned)
Cc1cccc(N2CCCN(Cc3nc(C(C)C)o[nH+]3)CC2)c1 (nonaromatic ring conformer: 86.9382440545921 kcal/mol)

>  <smiles>  (38) 
Cc1cccc(N2CCCN(Cc3noc(C(C)C)n3)CC2)c1

>  <score_type>  (38) 
oracle

>  <origin>  (38) 
adg

>  <m_score__min__energy>  (38) 
-4.75

>  <m_primary>  (38) 
energy

$$$$
38:0
     RDKit          3D

 50 52  0  0  0  0  0  0  0  0999 V2000
   58.9051   25.5134   46.3491 H   0  0  0  0  0  0  0  0  0  0  0  0
   58.1010   26.2360   46.1460 C   0  0  0  0  0  0  0  0  0  0  0  0
   58.3060   27.8350   45.6580 S   0  0  0  0  0  0  0  0  0  0  0  0
   56.6560   28.1350   45.5950 C   0  0  0  0  0  0  0  0  0  0  0  0
   56.1510   29.2780   45.2330 N   0  0  0  0  0  0  0  0  0  0  0  0
   55.8040   29.7150   43.9050 C   0  0  0  0  0  0  0  0  0  0  0  0
   54.6230   29.5260   43.5100 O   0  0  0  0  0  0  0  0  0  0  0  0
   56.7980   30.4000   42.9910 C   0  0  0  0  0  0  0  0  0  0  0  0
   57.0710   29.6982   42.1892 H   0  0  0  0  0  0  0  0  0  0  0  0
   56.3069   31.3079   42.6109 H   0  0  0  0  0  0  0  0  0  0  0  0
   58.0900   30.8550   43.6970 C   0  0  0  0  0  0  0  0  0  0  0  0
   58.0966   30.4313   44.7121 H   0  0  0  0  0  0  0  0  0  0  0  0
   58.9298   30.4985   43.0825 H   0  0  0  0  0  0  0  0  0  0  0  0
   58.2370   32.3570   43.8080 C   0  0  0  0  0  0  0  0  0  0  0  0
   58.2760   33.0530   42.7550 O   0  0  0  0  0  0  0  0  0  0  0  0
   58.3380   33.0150   45.0930 N   0  0  0  0  0  0  0  0  0  0  0  0
   58.5870   34.4660   45.1200 C   0  0  0  0  0  0  0  0  0  0  0  0
   59.4450   34.6935   44.4704 H   0  0  0  0  0  0  0  0  0  0  0  0
   57.6804   34.9782   44.7654 H   0  0  0  0  0  0  0  0  0  0  0  0
   58.8930   34.9580   46.5400 C   0  0  0  0  0  0  0  0  0  0  0  0
   59.4559   35.9015   46.4864 H   0  0  0  0  0  0  0  0  0  0  0  0
   57.9486   35.1207   47.0800 H   0  0  0  0  0  0  0  0  0  0  0  0
   59.6970   33.9470   47.2560 N   0  0  0  0  0  0  0  0  0  0  0  0
   60.4910   33.6710   46.6260 H   0  0  0  0  0  0  0  0  0  0  0  0
   60.3390   34.4840   48.4820 C   0  0  0  0  0  0  0  0  0  0  0  0
   60.3745   35.5803   48.3987 H   0  0  0  0  0  0  0  0  0  0  0  0
   59.7317   34.1352   49.3303 H   0  0  0  0  0  0  0  0  0  0  0  0
   61.7500   33.9820   48.7280 C   0  0  0  0  0  0  0  0  0  0  0  0
   62.5360   33.5230   47.6570 C   0  0  0  0  0  0  0  0  0  0  0  0
   62.1233   33.5186   46.6374 H   0  0  0  0  0  0  0  0  0  0  0  0
   63.8400   33.0720   47.8820 C   0  0  0  0  0  0  0  0  0  0  0  0
   64.4457   32.7041   47.0407 H   0  0  0  0  0  0  0  0  0  0  0  0
   64.3760   33.0870   49.1710 C   0  0  0  0  0  0  0  0  0  0  0  0
   65.6430   32.6520   49.3860 F   0  0  0  0  0  0  0  0  0  0  0  0
   63.6100   33.5600   50.2380 C   0  0  0  0  0  0  0  0  0  0  0  0
   64.0338   33.5781   51.2529 H   0  0  0  0  0  0  0  0  0  0  0  0
   62.3040   34.0110   50.0180 C   0  0  0  0  0  0  0  0  0  0  0  0
   61.7075   34.3906   50.8607 H   0  0  0  0  0  0  0  0  0  0  0  0
   58.9050   32.7180   47.5180 C   0  0  0  0  0  0  0  0  0  0  0  0
   59.6012   31.8855   47.6975 H   0  0  0  0  0  0  0  0  0  0  0  0
   58.2678   32.9208   48.3914 H   0  0  0  0  0  0  0  0  0  0  0  0
   57.9690   32.3320   46.3470 C   0  0  0  0  0  0  0  0  0  0  0  0
   58.0280   31.2450   46.1894 H   0  0  0  0  0  0  0  0  0  0  0  0
   56.9478   32.6420   46.6135 H   0  0  0  0  0  0  0  0  0  0  0  0
   55.9320   27.0430   45.9280 N   0  0  0  0  0  0  0  0  0  0  0  0
   56.7330   25.9900   46.2470 C   0  0  0  0  0  0  0  0  0  0  0  0
   56.1710   24.6530   46.6040 C   0  0  0  0  0  0  0  0  0  0  0  0
   56.1291   24.5533   47.6987 H   0  0  0  0  0  0  0  0  0  0  0  0
   55.1570   24.5586   46.1881 H   0  0  0  0  0  0  0  0  0  0  0  0
   56.8130   23.8625   46.1881 H   0  0  0  0  0  0  0  0  0  0  0  0
  1  2  1  0
  2  3  1  0
  3  4  1  0
  4  5  2  0
  5  6  1  0
  6  7  2  0
  6  8  1  0
  8  9  1  0
  8 10  1  0
  8 11  1  0
 11 12  1  0
 11 13  1  0
 11 14  1  0
 14 15  2  0
 14 16  1  0
 16 17  1  0
 17 18  1  0
 17 19  1  0
 17 20  1  0
 20 21  1  0
 20 22  1  0
 20 23  1  0
 23 24  1  0
 23 25  1  0
 25 26  1  0
 25 27  1  0
 25 28  1  0
 28 29  2  0
 29 30  1  0
 29 31  1  0
 31 32  1  0
 31 33  2  0
 33 34  1  0
 33 35  1  0
 35 36  1  0
 35 37  2  0
 37 38  1  0
 23 39  1  0
 39 40  1  0
 39 41  1  0
 39 42  1  0
 42 43  1  0
 42 44  1  0
  4 45  1  0
 45 46  1  0
 46 47  1  0
 47 48  1  0
 47 49  1  0
 47 50  1  0
 46  2  2  0
 42 16  1  0
 37 28  1  0
M  CHG  2  23   1  45  -1
M  END
>  <UniqueID>  (39) 
35

>  <SMILES>  (39) 
Cc1cs/c(=N/C(=O)CCC(=O)N2CC[NH+](Cc3ccc(F)cc3)CC2)[n-]1

>  <Energy>  (39) 
93.58925574425476

>  <Genealogy>  (39) 
Cc1csc(=NC(=O)CCC(=O)N2CC[NH+](Cc3ccc(F)cc3)CC2)[n-]1 (protonated)
Cc1cs/c(=N/C(=O)CCC(=O)N2CC[NH+](Cc3ccc(F)cc3)CC2)[n-]1 (cis-trans isomerization)
Cc1cs/c(=N/C(=O)CCC(=O)N2CC[NH+](Cc3ccc(F)cc3)CC2)[n-]1 (3D coordinates assigned)
Cc1cs/c(=N/C(=O)CCC(=O)N2CC[NH+](Cc3ccc(F)cc3)CC2)[n-]1 (nonaromatic ring conformer: 93.58925574425476 kcal/mol)

>  <smiles>  (39) 
Cc1csc(=NC(=O)CCC(=O)N2CCN(Cc3ccc(F)cc3)CC2)[nH]1

>  <score_type>  (39) 
oracle

>  <origin>  (39) 
adg

>  <m_score__min__energy>  (39) 
-8.9100000000000001

>  <m_primary>  (39) 
energy

$$$$
39:0
     RDKit          3D

 23 24  0  0  0  0  0  0  0  0999 V2000
   55.1410   28.1860   44.8890 H   0  0  0  0  0  0  0  0  0  0  0  0
   55.7050   29.0600   44.8600 N   0  0  0  0  0  0  0  0  0  0  0  0
   56.8540   29.2630   45.4410 C   0  0  0  0  0  0  0  0  0  0  0  0
   57.4760   28.1760   46.0890 C   0  0  0  0  0  0  0  0  0  0  0  0
   56.8390   26.8740   46.0980 C   0  0  0  0  0  0  0  0  0  0  0  0
   56.3290   25.8350   46.1040 N   0  0  0  0  0  0  0  0  0  0  0  0
   58.7170   28.3570   46.7290 C   0  0  0  0  0  0  0  0  0  0  0  0
   59.4020   27.2100   47.4280 C   0  0  0  0  0  0  0  0  0  0  0  0
   59.3221   27.3439   48.5169 H   0  0  0  0  0  0  0  0  0  0  0  0
   58.9207   26.2642   47.1385 H   0  0  0  0  0  0  0  0  0  0  0  0
   60.4629   27.1852   47.1385 H   0  0  0  0  0  0  0  0  0  0  0  0
   59.3110   29.5830   46.7180 N   0  0  0  0  0  0  0  0  0  0  0  0
   60.2340   29.7010   47.1970 H   0  0  0  0  0  0  0  0  0  0  0  0
   58.7450   30.6590   46.1040 C   0  0  0  0  0  0  0  0  0  0  0  0
   59.4080   31.8980   46.1270 C   0  0  0  0  0  0  0  0  0  0  0  0
   60.3773   31.9887   46.6391 H   0  0  0  0  0  0  0  0  0  0  0  0
   58.8470   33.0130   45.5060 C   0  0  0  0  0  0  0  0  0  0  0  0
   59.6870   34.5540   45.5430 Cl  0  0  0  0  0  0  0  0  0  0  0  0
   57.6210   32.9030   44.8550 C   0  0  0  0  0  0  0  0  0  0  0  0
   57.1814   33.7843   44.3651 H   0  0  0  0  0  0  0  0  0  0  0  0
   56.9460   31.6810   44.8200 C   0  0  0  0  0  0  0  0  0  0  0  0
   55.9781   31.6089   44.3023 H   0  0  0  0  0  0  0  0  0  0  0  0
   57.4940   30.5330   45.4440 C   0  0  0  0  0  0  0  0  0  0  0  0
  1  2  1  0
  2  3  2  0
  3  4  1  0
  4  5  1  0
  5  6  3  0
  4  7  2  0
  7  8  1  0
  8  9  1  0
  8 10  1  0
  8 11  1  0
  7 12  1  0
 12 13  1  0
 12 14  1  0
 14 15  2  0
 15 16  1  0
 15 17  1  0
 17 18  1  0
 17 19  2  0
 19 20  1  0
 19 21  1  0
 21 22  1  0
 21 23  2  0
 23  3  1  0
 23 14  1  0
M  END
>  <UniqueID>  (40) 
36

>  <SMILES>  (40) 
[H]/N=c1/c(C#N)c(C)[nH]c2cc(Cl)ccc12

>  <Energy>  (40) 
33.39474012034509

>  <Genealogy>  (40) 
[H]/N=c1/c(C#N)c(C)[nH]c2cc(Cl)ccc12 (cis-trans isomerization)
[H]/N=c1/c(C#N)c(C)[nH]c2cc(Cl)ccc12 (3D coordinates assigned)
[H]/N=c1/c(C#N)c(C)[nH]c2cc(Cl)ccc12 (optimized conformer: 33.39474012034509 kcal/mol)

>  <smiles>  (40) 
Cc1[nH]c2cc(Cl)ccc2c(=N)c1C#N

>  <score_type>  (40) 
oracle

>  <origin>  (40) 
adg

>  <m_score__min__energy>  (40) 
-5.9299999999999997

>  <m_primary>  (40) 
energy

$$$$
40:0
     RDKit          3D

 38 40  0  0  0  0  0  0  0  0999 V2000
   59.7730   22.2140   45.0900 N   0  0  0  0  0  0  0  0  0  0  0  0
   58.9930   23.4060   45.2170 C   0  0  0  0  0  0  0  0  0  0  0  0
   59.4610   24.4770   45.9900 C   0  0  0  0  0  0  0  0  0  0  0  0
   58.6980   25.6420   46.1140 C   0  0  0  0  0  0  0  0  0  0  0  0
   57.4660   25.7560   45.4590 C   0  0  0  0  0  0  0  0  0  0  0  0
   56.7230   26.9350   45.6210 O   0  0  0  0  0  0  0  0  0  0  0  0
   57.0930   28.2010   45.1420 C   0  0  0  0  0  0  0  0  0  0  0  0
   56.0870   29.1170   44.8190 C   0  0  0  0  0  0  0  0  0  0  0  0
   56.4150   30.3930   44.3510 C   0  0  0  0  0  0  0  0  0  0  0  0
   57.7580   30.7770   44.2210 C   0  0  0  0  0  0  0  0  0  0  0  0
   58.1120   32.1340   43.6790 C   0  0  0  0  0  0  0  0  0  0  0  0
   58.4270   33.0770   44.8070 C   0  0  0  0  0  0  0  0  0  0  0  0
   57.9260   32.8330   46.0970 C   0  0  0  0  0  0  0  0  0  0  0  0
   58.2500   33.6900   47.1530 C   0  0  0  0  0  0  0  0  0  0  0  0
   59.0820   34.7910   46.9320 C   0  0  0  0  0  0  0  0  0  0  0  0
   59.5950   35.0350   45.6530 C   0  0  0  0  0  0  0  0  0  0  0  0
   59.2730   34.1790   44.5950 C   0  0  0  0  0  0  0  0  0  0  0  0
   58.7700   29.8620   44.5550 C   0  0  0  0  0  0  0  0  0  0  0  0
   58.4400   28.5860   45.0230 C   0  0  0  0  0  0  0  0  0  0  0  0
   56.9870   24.6720   44.6990 C   0  0  0  0  0  0  0  0  0  0  0  0
   57.7510   23.5080   44.5760 C   0  0  0  0  0  0  0  0  0  0  0  0
   60.8000   22.2630   44.9060 H   0  0  0  0  0  0  0  0  0  0  0  0
   59.3290   21.2720   45.1810 H   0  0  0  0  0  0  0  0  0  0  0  0
   60.4321   24.4009   46.5011 H   0  0  0  0  0  0  0  0  0  0  0  0
   59.0682   26.4745   46.7303 H   0  0  0  0  0  0  0  0  0  0  0  0
   55.0308   28.8318   44.9339 H   0  0  0  0  0  0  0  0  0  0  0  0
   55.6156   31.0997   44.0833 H   0  0  0  0  0  0  0  0  0  0  0  0
   58.9906   32.0455   43.0231 H   0  0  0  0  0  0  0  0  0  0  0  0
   57.2570   32.5277   43.1098 H   0  0  0  0  0  0  0  0  0  0  0  0
   57.2761   31.9639   46.2767 H   0  0  0  0  0  0  0  0  0  0  0  0
   57.8495   33.4975   48.1592 H   0  0  0  0  0  0  0  0  0  0  0  0
   59.3336   35.4658   47.7634 H   0  0  0  0  0  0  0  0  0  0  0  0
   60.2517   35.9003   45.4798 H   0  0  0  0  0  0  0  0  0  0  0  0
   59.6837   34.3691   43.5924 H   0  0  0  0  0  0  0  0  0  0  0  0
   59.8262   30.1501   44.4481 H   0  0  0  0  0  0  0  0  0  0  0  0
   59.2377   27.8807   45.2991 H   0  0  0  0  0  0  0  0  0  0  0  0
   56.0088   24.7413   44.2006 H   0  0  0  0  0  0  0  0  0  0  0  0
   57.3755   22.6680   43.9732 H   0  0  0  0  0  0  0  0  0  0  0  0
  1  2  1  0
  2  3  2  0
  3  4  1  0
  4  5  2  0
  5  6  1  0
  6  7  1  0
  7  8  2  0
  8  9  1  0
  9 10  2  0
 10 11  1  0
 11 12  1  0
 12 13  2  0
 13 14  1  0
 14 15  2  0
 15 16  1  0
 16 17  2  0
 10 18  1  0
 18 19  2  0
  5 20  1  0
 20 21  2  0
 21  2  1  0
 19  7  1  0
 17 12  1  0
  1 22  1  0
  1 23  1  0
  3 24  1  0
  4 25  1  0
  8 26  1  0
  9 27  1  0
 11 28  1  0
 11 29  1  0
 13 30  1  0
 14 31  1  0
 15 32  1  0
 16 33  1  0
 17 34  1  0
 18 35  1  0
 19 36  1  0
 20 37  1  0
 21 38  1  0
M  END
>  <UniqueID>  (41) 
37

>  <SMILES>  (41) 
Nc1ccc(Oc2ccc(Cc3ccccc3)cc2)cc1

>  <Energy>  (41) 
44.64179627717025

>  <Genealogy>  (41) 
Nc1ccc(Oc2ccc(Cc3ccccc3)cc2)cc1 (3D coordinates assigned)
Nc1ccc(Oc2ccc(Cc3ccccc3)cc2)cc1 (optimized conformer: 44.64179627717025 kcal/mol)

>  <smiles>  (41) 
Nc1ccc(Oc2ccc(Cc3ccccc3)cc2)cc1

>  <score_type>  (41) 
oracle

>  <origin>  (41) 
adg

>  <m_score__min__energy>  (41) 
-7.5700000000000003

>  <m_primary>  (41) 
energy

$$$$
41:0
     RDKit          3D

 41 43  0  0  0  0  0  0  0  0999 V2000
   59.9200   35.6810   46.1270 O   0  0  0  0  0  0  0  0  0  0  0  0
   60.1820   34.4790   46.4060 C   0  0  0  0  0  0  0  0  0  0  0  0
   59.2110   33.4270   46.0280 C   0  0  0  0  0  0  0  0  0  0  0  0
   59.0510   32.2720   46.8110 C   0  0  0  0  0  0  0  0  0  0  0  0
   58.1430   31.2790   46.4330 C   0  0  0  0  0  0  0  0  0  0  0  0
   57.3860   31.4200   45.2540 C   0  0  0  0  0  0  0  0  0  0  0  0
   56.4610   30.4530   44.8340 O   0  0  0  0  0  0  0  0  0  0  0  0
   56.7910   29.3140   44.0460 C   0  0  0  0  0  0  0  0  0  0  0  0
   58.3030   29.0730   44.1160 C   0  0  0  0  0  0  0  0  0  0  0  0
   58.6740   27.7640   44.6980 N   0  0  0  0  0  0  0  0  0  0  0  0
   59.0060   27.7940   46.1380 C   0  0  0  0  0  0  0  0  0  0  0  0
   57.7920   27.4910   47.0500 C   0  0  0  0  0  0  0  0  0  0  0  0
   56.6460   27.0660   46.3370 O   0  0  0  0  0  0  0  0  0  0  0  0
   57.0030   26.0450   45.4350 C   0  0  0  0  0  0  0  0  0  0  0  0
   57.8210   26.6290   44.2760 C   0  0  0  0  0  0  0  0  0  0  0  0
   57.5600   32.5620   44.4660 C   0  0  0  0  0  0  0  0  0  0  0  0
   58.4690   33.5560   44.8430 C   0  0  0  0  0  0  0  0  0  0  0  0
   61.4390   34.1720   47.1200 C   0  0  0  0  0  0  0  0  0  0  0  0
   61.5640   34.0130   48.4970 C   0  0  0  0  0  0  0  0  0  0  0  0
   62.8600   33.6640   48.9010 C   0  0  0  0  0  0  0  0  0  0  0  0
   63.7560   33.5320   47.8490 C   0  0  0  0  0  0  0  0  0  0  0  0
   62.9350   33.8480   46.4170 S   0  0  0  0  0  0  0  0  0  0  0  0
   59.6448   32.1480   47.7286 H   0  0  0  0  0  0  0  0  0  0  0  0
   58.0191   30.3832   47.0593 H   0  0  0  0  0  0  0  0  0  0  0  0
   56.2597   28.4322   44.4335 H   0  0  0  0  0  0  0  0  0  0  0  0
   56.4928   29.4884   43.0017 H   0  0  0  0  0  0  0  0  0  0  0  0
   58.7101   29.1265   43.0955 H   0  0  0  0  0  0  0  0  0  0  0  0
   58.7199   29.8468   44.7774 H   0  0  0  0  0  0  0  0  0  0  0  0
   59.7857   27.0429   46.3328 H   0  0  0  0  0  0  0  0  0  0  0  0
   59.3460   28.8132   46.3740 H   0  0  0  0  0  0  0  0  0  0  0  0
   58.0765   26.6981   47.7574 H   0  0  0  0  0  0  0  0  0  0  0  0
   57.5275   28.4286   47.5609 H   0  0  0  0  0  0  0  0  0  0  0  0
   57.6048   25.2890   45.9606 H   0  0  0  0  0  0  0  0  0  0  0  0
   56.0890   25.5826   45.0340 H   0  0  0  0  0  0  0  0  0  0  0  0
   58.4651   25.8376   43.8651 H   0  0  0  0  0  0  0  0  0  0  0  0
   57.1123   27.0056   43.5237 H   0  0  0  0  0  0  0  0  0  0  0  0
   56.9765   32.6797   43.5410 H   0  0  0  0  0  0  0  0  0  0  0  0
   58.6033   34.4438   44.2075 H   0  0  0  0  0  0  0  0  0  0  0  0
   60.7280   34.1479   49.1991 H   0  0  0  0  0  0  0  0  0  0  0  0
   63.1408   33.5092   49.9532 H   0  0  0  0  0  0  0  0  0  0  0  0
   64.8198   33.2664   47.9374 H   0  0  0  0  0  0  0  0  0  0  0  0
  1  2  2  0
  2  3  1  0
  3  4  2  0
  4  5  1  0
  5  6  2  0
  6  7  1  0
  7  8  1  0
  8  9  1  0
  9 10  1  0
 10 11  1  0
 11 12  1  0
 12 13  1  0
 13 14  1  0
 14 15  1  0
  6 16  1  0
 16 17  2  0
  2 18  1  0
 18 19  2  0
 19 20  1  0
 20 21  2  0
 21 22  1  0
 17  3  1  0
 22 18  1  0
 15 10  1  0
  4 23  1  0
  5 24  1  0
  8 25  1  0
  8 26  1  0
  9 27  1  0
  9 28  1  0
 11 29  1  0
 11 30  1  0
 12 31  1  0
 12 32  1  0
 14 33  1  0
 14 34  1  0
 15 35  1  0
 15 36  1  0
 16 37  1  0
 17 38  1  0
 19 39  1  0
 20 40  1  0
 21 41  1  0
M  END
>  <UniqueID>  (42) 
38

>  <SMILES>  (42) 
O=C(c1ccc(OCCN2CCOCC2)cc1)c1cccs1

>  <Energy>  (42) 
86.07027057497274

>  <Genealogy>  (42) 
O=C(c1ccc(OCCN2CCOCC2)cc1)c1cccs1 (3D coordinates assigned)
O=C(c1ccc(OCCN2CCOCC2)cc1)c1cccs1 (nonaromatic ring conformer: 86.07027057497274 kcal/mol)

>  <smiles>  (42) 
O=C(c1ccc(OCCN2CCOCC2)cc1)c1cccs1

>  <score_type>  (42) 
oracle

>  <origin>  (42) 
adg

>  <m_score__min__energy>  (42) 
-7.3200000000000003

>  <m_primary>  (42) 
energy

$$$$
42:0
     RDKit          3D

 40 42  0  0  0  0  0  0  0  0999 V2000
   58.8750   31.7760   50.4430 C   0  0  0  0  0  0  0  0  0  0  0  0
   59.9570   31.1750   49.7390 O   0  0  0  0  0  0  0  0  0  0  0  0
   60.9860   31.8840   49.0990 C   0  0  0  0  0  0  0  0  0  0  0  0
   61.4730   33.1070   49.6060 C   0  0  0  0  0  0  0  0  0  0  0  0
   62.4870   33.7960   48.9360 C   0  0  0  0  0  0  0  0  0  0  0  0
   62.9470   34.9730   49.4290 F   0  0  0  0  0  0  0  0  0  0  0  0
   63.0220   33.2800   47.7540 C   0  0  0  0  0  0  0  0  0  0  0  0
   62.5500   32.0690   47.2420 C   0  0  0  0  0  0  0  0  0  0  0  0
   61.5430   31.3570   47.9150 C   0  0  0  0  0  0  0  0  0  0  0  0
   61.0170   30.0750   47.3320 C   0  0  0  0  0  0  0  0  0  0  0  0
   60.6010   30.3150   45.9860 O   0  0  0  0  0  0  0  0  0  0  0  0
   59.4100   29.8740   45.3800 C   0  0  0  0  0  0  0  0  0  0  0  0
   59.2440   28.5410   44.9520 C   0  0  0  0  0  0  0  0  0  0  0  0
   58.0490   28.1510   44.3540 C   0  0  0  0  0  0  0  0  0  0  0  0
   57.0230   29.0730   44.1880 C   0  0  0  0  0  0  0  0  0  0  0  0
   57.1950   30.3840   44.6350 C   0  0  0  0  0  0  0  0  0  0  0  0
   56.2480   31.2060   44.4990 O   0  0  0  0  0  0  0  0  0  0  0  0
   58.3750   30.7660   45.2250 N   0  0  0  0  0  0  0  0  0  0  0  0
   58.5420   32.1230   45.6830 C   0  0  0  0  0  0  0  0  0  0  0  0
   58.8640   33.1430   44.7720 C   0  0  0  0  0  0  0  0  0  0  0  0
   59.0370   34.4570   45.2180 C   0  0  0  0  0  0  0  0  0  0  0  0
   58.8900   34.7610   46.5750 C   0  0  0  0  0  0  0  0  0  0  0  0
   58.5690   33.7520   47.4870 C   0  0  0  0  0  0  0  0  0  0  0  0
   58.3940   32.4370   47.0440 C   0  0  0  0  0  0  0  0  0  0  0  0
   59.0446   31.6818   51.5258 H   0  0  0  0  0  0  0  0  0  0  0  0
   58.8084   32.8404   50.1736 H   0  0  0  0  0  0  0  0  0  0  0  0
   57.9361   31.2701   50.1736 H   0  0  0  0  0  0  0  0  0  0  0  0
   61.0519   33.5206   50.5343 H   0  0  0  0  0  0  0  0  0  0  0  0
   63.8161   33.8277   47.2254 H   0  0  0  0  0  0  0  0  0  0  0  0
   62.9692   31.6705   46.3064 H   0  0  0  0  0  0  0  0  0  0  0  0
   61.8092   29.3119   47.3432 H   0  0  0  0  0  0  0  0  0  0  0  0
   60.1642   29.7170   47.9275 H   0  0  0  0  0  0  0  0  0  0  0  0
   60.0559   27.8118   45.0901 H   0  0  0  0  0  0  0  0  0  0  0  0
   57.9171   27.1135   44.0131 H   0  0  0  0  0  0  0  0  0  0  0  0
   56.0807   28.7716   43.7071 H   0  0  0  0  0  0  0  0  0  0  0  0
   58.9804   32.9071   43.7039 H   0  0  0  0  0  0  0  0  0  0  0  0
   59.2889   35.2521   44.5008 H   0  0  0  0  0  0  0  0  0  0  0  0
   59.0271   35.7949   46.9247 H   0  0  0  0  0  0  0  0  0  0  0  0
   58.4539   33.9922   48.5543 H   0  0  0  0  0  0  0  0  0  0  0  0
   58.1395   31.6456   47.7643 H   0  0  0  0  0  0  0  0  0  0  0  0
  1  2  1  0
  2  3  1  0
  3  4  2  0
  4  5  1  0
  5  6  1  0
  5  7  2  0
  7  8  1  0
  8  9  2  0
  9 10  1  0
 10 11  1  0
 11 12  1  0
 12 13  2  0
 13 14  1  0
 14 15  2  0
 15 16  1  0
 16 17  2  0
 16 18  1  0
 18 19  1  0
 19 20  2  0
 20 21  1  0
 21 22  2  0
 22 23  1  0
 23 24  2  0
  9  3  1  0
 18 12  1  0
 24 19  1  0
  1 25  1  0
  1 26  1  0
  1 27  1  0
  4 28  1  0
  7 29  1  0
  8 30  1  0
 10 31  1  0
 10 32  1  0
 13 33  1  0
 14 34  1  0
 15 35  1  0
 20 36  1  0
 21 37  1  0
 22 38  1  0
 23 39  1  0
 24 40  1  0
M  END
>  <UniqueID>  (43) 
39

>  <SMILES>  (43) 
COc1cc(F)ccc1COc1cccc(=O)n1-c1ccccc1

>  <Energy>  (43) 
56.170532260496046

>  <Genealogy>  (43) 
COc1cc(F)ccc1COc1cccc(=O)n1-c1ccccc1 (3D coordinates assigned)
COc1cc(F)ccc1COc1cccc(=O)n1-c1ccccc1 (optimized conformer: 56.170532260496046 kcal/mol)

>  <smiles>  (43) 
COc1cc(F)ccc1COc1cccc(=O)n1-c1ccccc1

>  <score_type>  (43) 
oracle

>  <origin>  (43) 
adg

>  <m_score__min__energy>  (43) 
-7.2000000000000002

>  <m_primary>  (43) 
energy

$$$$
43:0
     RDKit          3D

 41 44  0  0  0  0  0  0  0  0999 V2000
   50.6410   22.1840   47.9450 C   0  0  0  0  0  0  0  0  0  0  0  0
   51.6370   21.4270   47.0760 C   0  0  0  0  0  0  0  0  0  0  0  0
   52.5780   22.3570   46.4590 N   0  0  0  0  0  0  0  0  0  0  0  0
   53.6720   22.8780   47.0420 C   0  0  0  0  0  0  0  0  0  0  0  0
   54.2540   23.7570   46.1510 C   0  0  0  0  0  0  0  0  0  0  0  0
   55.4750   24.5560   46.3760 C   0  0  0  0  0  0  0  0  0  0  0  0
   56.5790   24.0420   47.0800 C   0  0  0  0  0  0  0  0  0  0  0  0
   57.6820   24.8160   47.2610 N   0  0  0  0  0  0  0  0  0  0  0  0
   57.7390   26.0820   46.7750 C   0  0  0  0  0  0  0  0  0  0  0  0
   58.8700   26.8770   46.9550 C   0  0  0  0  0  0  0  0  0  0  0  0
   58.8920   28.1750   46.4380 C   0  0  0  0  0  0  0  0  0  0  0  0
   57.7700   28.6720   45.7460 C   0  0  0  0  0  0  0  0  0  0  0  0
   57.7510   30.0440   45.1760 C   0  0  0  0  0  0  0  0  0  0  0  0
   57.3830   30.2760   43.8390 C   0  0  0  0  0  0  0  0  0  0  0  0
   57.3930   31.5710   43.3150 C   0  0  0  0  0  0  0  0  0  0  0  0
   57.7670   32.6500   44.1170 C   0  0  0  0  0  0  0  0  0  0  0  0
   58.1220   32.4480   45.4610 C   0  0  0  0  0  0  0  0  0  0  0  0
   58.5770   33.6050   46.3140 C   0  0  0  0  0  0  0  0  0  0  0  0
   58.3970   34.7850   45.6160 F   0  0  0  0  0  0  0  0  0  0  0  0
   57.8510   33.6640   47.4910 F   0  0  0  0  0  0  0  0  0  0  0  0
   59.9160   33.4740   46.6390 F   0  0  0  0  0  0  0  0  0  0  0  0
   58.1370   31.1390   45.9740 C   0  0  0  0  0  0  0  0  0  0  0  0
   56.6820   27.8660   45.5790 N   0  0  0  0  0  0  0  0  0  0  0  0
   56.6400   26.6010   46.0710 C   0  0  0  0  0  0  0  0  0  0  0  0
   55.5380   25.8280   45.8900 N   0  0  0  0  0  0  0  0  0  0  0  0
   53.4370   23.7250   45.0310 C   0  0  0  0  0  0  0  0  0  0  0  0
   52.4190   22.8690   45.2470 N   0  0  0  0  0  0  0  0  0  0  0  0
   50.8723   22.0082   49.0059 H   0  0  0  0  0  0  0  0  0  0  0  0
   50.7092   23.2603   47.7283 H   0  0  0  0  0  0  0  0  0  0  0  0
   49.6222   21.8302   47.7283 H   0  0  0  0  0  0  0  0  0  0  0  0
   52.1911   20.7098   47.6993 H   0  0  0  0  0  0  0  0  0  0  0  0
   51.0896   20.8934   46.2850 H   0  0  0  0  0  0  0  0  0  0  0  0
   54.0390   22.6445   48.0524 H   0  0  0  0  0  0  0  0  0  0  0  0
   56.5501   23.0186   47.4822 H   0  0  0  0  0  0  0  0  0  0  0  0
   59.7405   26.4846   47.5011 H   0  0  0  0  0  0  0  0  0  0  0  0
   59.7826   28.8068   46.5709 H   0  0  0  0  0  0  0  0  0  0  0  0
   57.0849   29.4313   43.2006 H   0  0  0  0  0  0  0  0  0  0  0  0
   57.1052   31.7406   42.2670 H   0  0  0  0  0  0  0  0  0  0  0  0
   57.7839   33.6653   43.6940 H   0  0  0  0  0  0  0  0  0  0  0  0
   58.4546   30.9674   47.0131 H   0  0  0  0  0  0  0  0  0  0  0  0
   53.5951   24.3069   44.1110 H   0  0  0  0  0  0  0  0  0  0  0  0
  1  2  1  0
  2  3  1  0
  3  4  1  0
  4  5  2  0
  5  6  1  0
  6  7  2  0
  7  8  1  0
  8  9  2  0
  9 10  1  0
 10 11  2  0
 11 12  1  0
 12 13  1  0
 13 14  2  0
 14 15  1  0
 15 16  2  0
 16 17  1  0
 17 18  1  0
 18 19  1  0
 18 20  1  0
 18 21  1  0
 17 22  2  0
 12 23  2  0
 23 24  1  0
 24 25  2  0
  5 26  1  0
 26 27  2  0
 27  3  1  0
 25  6  1  0
 24  9  1  0
 22 13  1  0
  1 28  1  0
  1 29  1  0
  1 30  1  0
  2 31  1  0
  2 32  1  0
  4 33  1  0
  7 34  1  0
 10 35  1  0
 11 36  1  0
 14 37  1  0
 15 38  1  0
 16 39  1  0
 22 40  1  0
 26 41  1  0
M  END
>  <UniqueID>  (44) 
40

>  <SMILES>  (44) 
CCn1cc(-c2cnc3ccc(-c4cccc(C(F)(F)F)c4)nc3n2)cn1

>  <Energy>  (44) 
81.34380269828168

>  <Genealogy>  (44) 
CCn1cc(-c2cnc3ccc(-c4cccc(C(F)(F)F)c4)nc3n2)cn1 (3D coordinates assigned)
CCn1cc(-c2cnc3ccc(-c4cccc(C(F)(F)F)c4)nc3n2)cn1 (optimized conformer: 81.34380269828168 kcal/mol)

>  <smiles>  (44) 
CCn1cc(-c2cnc3ccc(-c4cccc(C(F)(F)F)c4)nc3n2)cn1

>  <score_type>  (44) 
oracle

>  <origin>  (44) 
adg

>  <m_score__min__energy>  (44) 
-7.5499999999999998

>  <m_primary>  (44) 
energy

$$$$
44:0
     RDKit          3D

 30 31  0  0  0  0  0  0  0  0999 V2000
   60.5458   28.8827   48.1730 H   0  0  0  0  0  0  0  0  0  0  0  0
   59.9790   28.7280   47.2430 C   0  0  0  0  0  0  0  0  0  0  0  0
   60.4770   29.2170   46.0320 C   0  0  0  0  0  0  0  0  0  0  0  0
   61.4361   29.7553   46.0098 H   0  0  0  0  0  0  0  0  0  0  0  0
   59.7580   29.0230   44.8490 C   0  0  0  0  0  0  0  0  0  0  0  0
   60.1542   29.4080   43.8978 H   0  0  0  0  0  0  0  0  0  0  0  0
   58.5310   28.3380   44.8700 C   0  0  0  0  0  0  0  0  0  0  0  0
   57.7740   28.0850   43.5930 C   0  0  0  0  0  0  0  0  0  0  0  0
   57.0763   27.2498   43.7531 H   0  0  0  0  0  0  0  0  0  0  0  0
   58.5046   27.8472   42.8058 H   0  0  0  0  0  0  0  0  0  0  0  0
   56.9750   29.3210   43.1430 C   0  0  0  0  0  0  0  0  0  0  0  0
   56.2540   29.0097   42.3728 H   0  0  0  0  0  0  0  0  0  0  0  0
   57.6984   30.0556   42.7596 H   0  0  0  0  0  0  0  0  0  0  0  0
   56.2180   29.9830   44.2690 C   0  0  0  0  0  0  0  0  0  0  0  0
   55.3200   29.3390   44.8750 O   0  0  0  0  0  0  0  0  0  0  0  0
   56.3320   31.3910   44.5090 N   0  0  0  0  0  0  0  0  0  0  0  0
   57.3150   31.9940   45.1100 C   0  0  0  0  0  0  0  0  0  0  0  0
   57.7300   33.5980   44.8260 S   0  0  0  0  0  0  0  0  0  0  0  0
   58.9460   33.5130   45.9930 C   0  0  0  0  0  0  0  0  0  0  0  0
   59.8970   34.6150   46.3140 C   0  0  0  0  0  0  0  0  0  0  0  0
   59.9850   34.7170   47.4057 H   0  0  0  0  0  0  0  0  0  0  0  0
   60.8839   34.3838   45.8866 H   0  0  0  0  0  0  0  0  0  0  0  0
   59.5239   35.5574   45.8866 H   0  0  0  0  0  0  0  0  0  0  0  0
   59.0060   32.2860   46.5570 N   0  0  0  0  0  0  0  0  0  0  0  0
   58.0930   31.4460   46.0740 N   0  0  0  0  0  0  0  0  0  0  0  0
   57.9900   30.4820   46.4480 H   0  0  0  0  0  0  0  0  0  0  0  0
   58.0390   27.8460   46.0920 C   0  0  0  0  0  0  0  0  0  0  0  0
   57.0821   27.3042   46.1192 H   0  0  0  0  0  0  0  0  0  0  0  0
   58.7620   28.0430   47.2730 C   0  0  0  0  0  0  0  0  0  0  0  0
   58.3717   27.6580   48.2267 H   0  0  0  0  0  0  0  0  0  0  0  0
  1  2  1  0
  2  3  2  0
  3  4  1  0
  3  5  1  0
  5  6  1  0
  5  7  2  0
  7  8  1  0
  8  9  1  0
  8 10  1  0
  8 11  1  0
 11 12  1  0
 11 13  1  0
 11 14  1  0
 14 15  2  0
 14 16  1  0
 16 17  2  0
 17 18  1  0
 18 19  1  0
 19 20  1  0
 20 21  1  0
 20 22  1  0
 20 23  1  0
 19 24  2  0
 24 25  1  0
 25 26  1  0
  7 27  1  0
 27 28  1  0
 27 29  2  0
 29 30  1  0
 29  2  1  0
 25 17  1  0
M  END
>  <UniqueID>  (45) 
41

>  <SMILES>  (45) 
Cc1n[nH]/c(=N\C(=O)CCc2ccccc2)s1

>  <Energy>  (45) 
66.88935307276239

>  <Genealogy>  (45) 
Cc1n[nH]/c(=N\C(=O)CCc2ccccc2)s1 (cis-trans isomerization)
Cc1n[nH]/c(=N\C(=O)CCc2ccccc2)s1 (3D coordinates assigned)
Cc1n[nH]/c(=N\C(=O)CCc2ccccc2)s1 (optimized conformer: 66.88935307276239 kcal/mol)

>  <smiles>  (45) 
Cc1n[nH]c(=NC(=O)CCc2ccccc2)s1

>  <score_type>  (45) 
oracle

>  <origin>  (45) 
adg

>  <m_score__min__energy>  (45) 
-7.79

>  <m_primary>  (45) 
energy

$$$$
45:0
     RDKit          3D

 36 37  0  0  0  0  0  0  0  0999 V2000
   64.4379   33.2262   46.5574 H   0  0  0  0  0  0  0  0  0  0  0  0
   63.5630   33.3420   47.2140 C   0  0  0  0  0  0  0  0  0  0  0  0
   62.0170   33.7990   46.7310 S   0  0  0  0  0  0  0  0  0  0  0  0
   61.3990   33.7250   48.2900 C   0  0  0  0  0  0  0  0  0  0  0  0
   60.1630   33.9950   48.5860 N   0  0  0  0  0  0  0  0  0  0  0  0
   59.0040   33.2680   48.1410 C   0  0  0  0  0  0  0  0  0  0  0  0
   58.2590   32.6810   48.9740 O   0  0  0  0  0  0  0  0  0  0  0  0
   58.6820   33.2080   46.6960 C   0  0  0  0  0  0  0  0  0  0  0  0
   58.9300   34.3160   45.8630 C   0  0  0  0  0  0  0  0  0  0  0  0
   59.3609   35.2343   46.2885 H   0  0  0  0  0  0  0  0  0  0  0  0
   58.6320   34.2560   44.4990 C   0  0  0  0  0  0  0  0  0  0  0  0
   58.8304   35.1264   43.8563 H   0  0  0  0  0  0  0  0  0  0  0  0
   58.0840   33.0970   43.9490 C   0  0  0  0  0  0  0  0  0  0  0  0
   57.8565   33.0539   42.8736 H   0  0  0  0  0  0  0  0  0  0  0  0
   57.8230   31.9880   44.7640 C   0  0  0  0  0  0  0  0  0  0  0  0
   57.1470   30.5230   44.0550 S   0  0  0  0  0  0  0  0  0  0  0  0
   55.9990   30.0320   44.8950 O   0  0  0  0  0  0  0  0  0  0  0  0
   56.6280   30.8460   42.6820 O   0  0  0  0  0  0  0  0  0  0  0  0
   58.3800   29.2910   43.9470 N   0  0  0  0  0  0  0  0  0  0  0  0
   58.8300   29.3550   43.0040 H   0  0  0  0  0  0  0  0  0  0  0  0
   57.7690   27.9610   44.0930 C   0  0  0  0  0  0  0  0  0  0  0  0
   57.6597   27.7230   45.1614 H   0  0  0  0  0  0  0  0  0  0  0  0
   56.7791   27.9576   43.6134 H   0  0  0  0  0  0  0  0  0  0  0  0
   58.4113   27.2077   43.6134 H   0  0  0  0  0  0  0  0  0  0  0  0
   59.4010   29.5050   44.9820 C   0  0  0  0  0  0  0  0  0  0  0  0
   58.9408   29.4086   45.9765 H   0  0  0  0  0  0  0  0  0  0  0  0
   60.1975   28.7543   44.8721 H   0  0  0  0  0  0  0  0  0  0  0  0
   59.8290   30.5124   44.8721 H   0  0  0  0  0  0  0  0  0  0  0  0
   58.1280   32.0430   46.1310 C   0  0  0  0  0  0  0  0  0  0  0  0
   57.9328   31.1680   46.7684 H   0  0  0  0  0  0  0  0  0  0  0  0
   62.3390   33.3590   49.1910 N   0  0  0  0  0  0  0  0  0  0  0  0
   63.5400   33.1360   48.5920 C   0  0  0  0  0  0  0  0  0  0  0  0
   64.7540   32.7650   49.3790 C   0  0  0  0  0  0  0  0  0  0  0  0
   64.5294   32.8336   50.4536 H   0  0  0  0  0  0  0  0  0  0  0  0
   65.0508   31.7351   49.1315 H   0  0  0  0  0  0  0  0  0  0  0  0
   65.5758   33.4530   49.1315 H   0  0  0  0  0  0  0  0  0  0  0  0
  1  2  1  0
  2  3  1  0
  3  4  1  0
  4  5  2  0
  5  6  1  0
  6  7  2  0
  6  8  1  0
  8  9  2  0
  9 10  1  0
  9 11  1  0
 11 12  1  0
 11 13  2  0
 13 14  1  0
 13 15  1  0
 15 16  1  0
 16 17  2  0
 16 18  2  0
 16 19  1  0
 19 20  1  0
 19 21  1  0
 21 22  1  0
 21 23  1  0
 21 24  1  0
 19 25  1  0
 25 26  1  0
 25 27  1  0
 25 28  1  0
 15 29  2  0
 29 30  1  0
  4 31  1  0
 31 32  1  0
 32 33  1  0
 33 34  1  0
 33 35  1  0
 33 36  1  0
 32  2  2  0
 29  8  1  0
M  CHG  2  19   1  31  -1
M  END
>  <UniqueID>  (46) 
42

>  <SMILES>  (46) 
Cc1cs/c(=N/C(=O)c2cccc(S(=O)(=O)[NH+](C)C)c2)[n-]1

>  <Energy>  (46) 
64.34862493932395

>  <Genealogy>  (46) 
Cc1csc(=NC(=O)c2cccc(S(=O)(=O)[NH+](C)C)c2)[n-]1 (protonated)
Cc1cs/c(=N/C(=O)c2cccc(S(=O)(=O)[NH+](C)C)c2)[n-]1 (cis-trans isomerization)
Cc1cs/c(=N/C(=O)c2cccc(S(=O)(=O)[NH+](C)C)c2)[n-]1 (3D coordinates assigned)
Cc1cs/c(=N/C(=O)c2cccc(S(=O)(=O)[NH+](C)C)c2)[n-]1 (optimized conformer: 64.34862493932395 kcal/mol)

>  <smiles>  (46) 
Cc1csc(=NC(=O)c2cccc(S(=O)(=O)N(C)C)c2)[nH]1

>  <score_type>  (46) 
oracle

>  <origin>  (46) 
adg

>  <m_score__min__energy>  (46) 
-8.1999999999999993

>  <m_primary>  (46) 
energy

$$$$
46:0
     RDKit          3D

 55 58  0  0  0  0  0  0  0  0999 V2000
   59.9960   33.5550   54.4680 H   0  0  0  0  0  0  0  0  0  0  0  0
   59.3210   33.2470   53.7340 N   0  0  0  0  0  0  0  0  0  0  0  0
   59.6950   32.6630   52.6390 C   0  0  0  0  0  0  0  0  0  0  0  0
   60.9930   32.3860   52.3700 N   0  0  0  0  0  0  0  0  0  0  0  0
   61.8310   32.5930   52.9570 H   0  0  0  0  0  0  0  0  0  0  0  0
   60.9500   31.7650   51.1790 C   0  0  0  0  0  0  0  0  0  0  0  0
   62.0140   31.2460   50.4470 C   0  0  0  0  0  0  0  0  0  0  0  0
   63.0486   31.3263   50.8118 H   0  0  0  0  0  0  0  0  0  0  0  0
   61.7200   30.6150   49.2240 C   0  0  0  0  0  0  0  0  0  0  0  0
   62.5353   30.1974   48.6150 H   0  0  0  0  0  0  0  0  0  0  0  0
   60.3820   30.5140   48.7720 C   0  0  0  0  0  0  0  0  0  0  0  0
   60.0960   29.8610   47.5220 C   0  0  0  0  0  0  0  0  0  0  0  0
   59.8580   29.3160   46.4740 C   0  0  0  0  0  0  0  0  0  0  0  0
   59.5670   28.6560   45.2010 C   0  0  0  0  0  0  0  0  0  0  0  0
   59.9563   29.2666   44.3730 H   0  0  0  0  0  0  0  0  0  0  0  0
   60.0467   27.6663   45.1808 H   0  0  0  0  0  0  0  0  0  0  0  0
   58.1260   28.5030   45.0570 N   0  0  0  0  0  0  0  0  0  0  0  0
   57.1970   29.5900   44.9720 C   0  0  0  0  0  0  0  0  0  0  0  0
   55.9740   29.3600   45.1700 O   0  0  0  0  0  0  0  0  0  0  0  0
   57.6320   30.9740   44.6860 C   0  0  0  0  0  0  0  0  0  0  0  0
   57.7540   31.4100   43.3630 C   0  0  0  0  0  0  0  0  0  0  0  0
   57.5446   30.7174   42.5345 H   0  0  0  0  0  0  0  0  0  0  0  0
   58.1400   32.7190   43.0940 C   0  0  0  0  0  0  0  0  0  0  0  0
   58.2417   33.0636   42.0543 H   0  0  0  0  0  0  0  0  0  0  0  0
   58.3970   33.5910   44.1500 C   0  0  0  0  0  0  0  0  0  0  0  0
   58.7022   34.6264   43.9382 H   0  0  0  0  0  0  0  0  0  0  0  0
   58.2740   33.1740   45.4480 N   0  0  0  0  0  0  0  0  0  0  0  0
   58.5170   34.1430   46.5300 C   0  0  0  0  0  0  0  0  0  0  0  0
   58.4014   35.1634   46.1358 H   0  0  0  0  0  0  0  0  0  0  0  0
   57.7916   33.9664   47.3378 H   0  0  0  0  0  0  0  0  0  0  0  0
   59.9100   33.9770   47.0780 C   0  0  0  0  0  0  0  0  0  0  0  0
   60.9490   33.5350   46.2420 C   0  0  0  0  0  0  0  0  0  0  0  0
   60.7384   33.2847   45.1918 H   0  0  0  0  0  0  0  0  0  0  0  0
   62.2500   33.4120   46.7400 C   0  0  0  0  0  0  0  0  0  0  0  0
   63.0588   33.0610   46.0823 H   0  0  0  0  0  0  0  0  0  0  0  0
   62.5240   33.7340   48.0710 C   0  0  0  0  0  0  0  0  0  0  0  0
   63.7870   33.6140   48.5500 F   0  0  0  0  0  0  0  0  0  0  0  0
   61.4970   34.1830   48.9080 C   0  0  0  0  0  0  0  0  0  0  0  0
   61.7620   34.5000   50.2000 F   0  0  0  0  0  0  0  0  0  0  0  0
   60.1950   34.3080   48.4130 C   0  0  0  0  0  0  0  0  0  0  0  0
   59.3907   34.6671   49.0719 H   0  0  0  0  0  0  0  0  0  0  0  0
   57.8850   31.8860   45.7310 C   0  0  0  0  0  0  0  0  0  0  0  0
   57.7620   31.5080   46.9290 O   0  0  0  0  0  0  0  0  0  0  0  0
   59.3280   31.0500   49.5410 C   0  0  0  0  0  0  0  0  0  0  0  0
   58.2838   30.9783   49.2026 H   0  0  0  0  0  0  0  0  0  0  0  0
   59.6550   31.6750   50.7470 C   0  0  0  0  0  0  0  0  0  0  0  0
   58.8410   32.2500   51.6590 N   0  0  0  0  0  0  0  0  0  0  0  0
   57.3780   32.3400   51.6360 C   0  0  0  0  0  0  0  0  0  0  0  0
   57.0483   33.0707   52.3892 H   0  0  0  0  0  0  0  0  0  0  0  0
   57.0567   32.6581   50.6332 H   0  0  0  0  0  0  0  0  0  0  0  0
   56.7640   31.0030   51.9420 C   0  0  0  0  0  0  0  0  0  0  0  0
   57.4214   30.1478   52.1574 H   0  0  0  0  0  0  0  0  0  0  0  0
   55.4400   30.8270   51.9590 C   0  0  0  0  0  0  0  0  0  0  0  0
   55.0197   29.8362   52.1864 H   0  0  0  0  0  0  0  0  0  0  0  0
   54.7699   31.6729   51.7456 H   0  0  0  0  0  0  0  0  0  0  0  0
  1  2  1  0
  2  3  2  0
  3  4  1  0
  4  5  1  0
  4  6  1  0
  6  7  2  0
  7  8  1  0
  7  9  1  0
  9 10  1  0
  9 11  2  0
 11 12  1  0
 12 13  3  0
 13 14  1  0
 14 15  1  0
 14 16  1  0
 14 17  1  0
 17 18  1  0
 18 19  2  0
 18 20  1  0
 20 21  2  0
 21 22  1  0
 21 23  1  0
 23 24  1  0
 23 25  2  0
 25 26  1  0
 25 27  1  0
 27 28  1  0
 28 29  1  0
 28 30  1  0
 28 31  1  0
 31 32  2  0
 32 33  1  0
 32 34  1  0
 34 35  1  0
 34 36  2  0
 36 37  1  0
 36 38  1  0
 38 39  1  0
 38 40  2  0
 40 41  1  0
 27 42  1  0
 42 43  2  0
 11 44  1  0
 44 45  1  0
 44 46  2  0
 46 47  1  0
 47 48  1  0
 48 49  1  0
 48 50  1  0
 48 51  1  0
 51 52  1  0
 51 53  2  0
 53 54  1  0
 53 55  1  0
 47  3  1  0
 46  6  1  0
 42 20  1  0
 40 31  1  0
M  CHG  1  17  -1
M  END
>  <UniqueID>  (47) 
43

>  <SMILES>  (47) 
[H]/N=c1/[nH]c2ccc(C#CC[N-]C(=O)c3cccn(Cc4ccc(F)c(F)c4)c3=O)cc2n1CC=C

>  <Energy>  (47) 
98.1267241398267

>  <Genealogy>  (47) 
C=CCn1c(=N)[nH]c2ccc(C#CC[N-]C(=O)c3cccn(Cc4ccc(F)c(F)c4)c3=O)cc21 (protonated)
[H]/N=c1/[nH]c2ccc(C#CC[N-]C(=O)c3cccn(Cc4ccc(F)c(F)c4)c3=O)cc2n1CC=C (cis-trans isomerization)
[H]/N=c1/[nH]c2ccc(C#CC[N-]C(=O)c3cccn(Cc4ccc(F)c(F)c4)c3=O)cc2n1CC=C (3D coordinates assigned)
[H]/N=c1/[nH]c2ccc(C#CC[N-]C(=O)c3cccn(Cc4ccc(F)c(F)c4)c3=O)cc2n1CC=C (optimized conformer: 98.1267241398267 kcal/mol)

>  <smiles>  (47) 
C=CCn1c(=N)[nH]c2ccc(C#CCNC(=O)c3cccn(Cc4ccc(F)c(F)c4)c3=O)cc21

>  <score_type>  (47) 
oracle

>  <origin>  (47) 
adg

>  <m_score__min__energy>  (47) 
-9.9700000000000006

>  <m_primary>  (47) 
energy

$$$$
47:0
     RDKit          3D

 45 47  0  0  0  0  0  0  0  0999 V2000
   63.1060   33.7870   46.9730 C   0  0  0  0  0  0  0  0  0  0  0  0
   62.1250   33.8740   48.1370 C   0  0  0  0  0  0  0  0  0  0  0  0
   61.1900   32.6950   48.1370 C   0  0  0  0  0  0  0  0  0  0  0  0
   60.2580   32.5300   49.1760 C   0  0  0  0  0  0  0  0  0  0  0  0
   59.3850   31.4390   49.1770 C   0  0  0  0  0  0  0  0  0  0  0  0
   59.4300   30.5040   48.1380 C   0  0  0  0  0  0  0  0  0  0  0  0
   58.5340   29.4820   48.1000 N   0  0  0  0  0  0  0  0  0  0  0  0
   58.5080   28.5850   47.0780 C   0  0  0  0  0  0  0  0  0  0  0  0
   57.6410   27.6720   47.0830 O   0  0  0  0  0  0  0  0  0  0  0  0
   59.4310   28.6920   46.0190 C   0  0  0  0  0  0  0  0  0  0  0  0
   59.3250   27.8070   44.8000 C   0  0  0  0  0  0  0  0  0  0  0  0
   58.1890   28.2250   43.9610 N   0  0  0  0  0  0  0  0  0  0  0  0
   57.7690   27.4070   42.8200 C   0  0  0  0  0  0  0  0  0  0  0  0
   57.4330   29.4080   44.2880 C   0  0  0  0  0  0  0  0  0  0  0  0
   56.4910   29.3460   45.1250 O   0  0  0  0  0  0  0  0  0  0  0  0
   57.7380   30.6620   43.6670 N   0  0  0  0  0  0  0  0  0  0  0  0
   58.0370   31.8620   44.4040 C   0  0  0  0  0  0  0  0  0  0  0  0
   58.5240   33.0210   43.7650 C   0  0  0  0  0  0  0  0  0  0  0  0
   58.7220   34.1980   44.4930 C   0  0  0  0  0  0  0  0  0  0  0  0
   58.4380   34.2330   45.8600 C   0  0  0  0  0  0  0  0  0  0  0  0
   57.9540   33.0920   46.5020 C   0  0  0  0  0  0  0  0  0  0  0  0
   57.7480   31.9140   45.7780 C   0  0  0  0  0  0  0  0  0  0  0  0
   60.3930   29.7120   46.0650 C   0  0  0  0  0  0  0  0  0  0  0  0
   60.3820   30.6440   47.1080 C   0  0  0  0  0  0  0  0  0  0  0  0
   61.2650   31.7330   47.1170 C   0  0  0  0  0  0  0  0  0  0  0  0
   64.1305   33.6961   47.3630 H   0  0  0  0  0  0  0  0  0  0  0  0
   62.8683   32.9064   46.3581 H   0  0  0  0  0  0  0  0  0  0  0  0
   63.0269   34.6957   46.3581 H   0  0  0  0  0  0  0  0  0  0  0  0
   62.6874   33.8883   49.0823 H   0  0  0  0  0  0  0  0  0  0  0  0
   61.5320   34.7943   48.0303 H   0  0  0  0  0  0  0  0  0  0  0  0
   60.2156   33.2645   49.9937 H   0  0  0  0  0  0  0  0  0  0  0  0
   58.6613   31.3154   49.9962 H   0  0  0  0  0  0  0  0  0  0  0  0
   60.2541   27.8815   44.2158 H   0  0  0  0  0  0  0  0  0  0  0  0
   59.1660   26.7683   45.1252 H   0  0  0  0  0  0  0  0  0  0  0  0
   57.2951   26.4840   43.1853 H   0  0  0  0  0  0  0  0  0  0  0  0
   57.0493   27.9717   42.2091 H   0  0  0  0  0  0  0  0  0  0  0  0
   58.6473   27.1513   42.2091 H   0  0  0  0  0  0  0  0  0  0  0  0
   57.8600   30.6700   42.6300 H   0  0  0  0  0  0  0  0  0  0  0  0
   58.7492   32.9988   42.6885 H   0  0  0  0  0  0  0  0  0  0  0  0
   59.1022   35.0983   43.9881 H   0  0  0  0  0  0  0  0  0  0  0  0
   58.5958   35.1600   46.4308 H   0  0  0  0  0  0  0  0  0  0  0  0
   57.7343   33.1198   47.5795 H   0  0  0  0  0  0  0  0  0  0  0  0
   57.3568   31.0212   46.2878 H   0  0  0  0  0  0  0  0  0  0  0  0
   61.1587   29.7791   45.2781 H   0  0  0  0  0  0  0  0  0  0  0  0
   62.0189   31.8341   46.3224 H   0  0  0  0  0  0  0  0  0  0  0  0
  1  2  1  0
  2  3  1  0
  3  4  2  0
  4  5  1  0
  5  6  2  0
  6  7  1  0
  7  8  1  0
  8  9  2  0
  8 10  1  0
 10 11  1  0
 11 12  1  0
 12 13  1  0
 12 14  1  0
 14 15  2  0
 14 16  1  0
 16 17  1  0
 17 18  2  0
 18 19  1  0
 19 20  2  0
 20 21  1  0
 21 22  2  0
 10 23  2  0
 23 24  1  0
 24 25  2  0
 25  3  1  0
 24  6  1  0
 22 17  1  0
  1 26  1  0
  1 27  1  0
  1 28  1  0
  2 29  1  0
  2 30  1  0
  4 31  1  0
  5 32  1  0
 11 33  1  0
 11 34  1  0
 13 35  1  0
 13 36  1  0
 13 37  1  0
 16 38  1  0
 18 39  1  0
 19 40  1  0
 20 41  1  0
 21 42  1  0
 22 43  1  0
 23 44  1  0
 25 45  1  0
M  CHG  1   7  -1
M  END
>  <UniqueID>  (48) 
44

>  <SMILES>  (48) 
CCc1ccc2[n-]c(=O)c(CN(C)C(=O)Nc3ccccc3)cc2c1

>  <Energy>  (48) 
46.69694693900606

>  <Genealogy>  (48) 
CCc1ccc2[n-]c(=O)c(CN(C)C(=O)Nc3ccccc3)cc2c1 (protonated)
CCc1ccc2[n-]c(=O)c(CN(C)C(=O)Nc3ccccc3)cc2c1 (3D coordinates assigned)
CCc1ccc2[n-]c(=O)c(CN(C)C(=O)Nc3ccccc3)cc2c1 (optimized conformer: 46.69694693900606 kcal/mol)

>  <smiles>  (48) 
CCc1ccc2[nH]c(=O)c(CN(C)C(=O)Nc3ccccc3)cc2c1

>  <score_type>  (48) 
oracle

>  <origin>  (48) 
adg

>  <m_score__min__energy>  (48) 
-10.5

>  <m_primary>  (48) 
energy

$$$$
48:0
     RDKit          3D

 46 48  0  0  0  0  0  0  0  0999 V2000
   57.3310   28.4940   45.5670 C   0  0  0  0  0  0  0  0  0  0  0  0
   56.7110   29.7420   45.2740 O   0  0  0  0  0  0  0  0  0  0  0  0
   57.0690   30.5780   44.2060 C   0  0  0  0  0  0  0  0  0  0  0  0
   56.6160   30.3430   42.8920 C   0  0  0  0  0  0  0  0  0  0  0  0
   56.9590   31.2200   41.8590 C   0  0  0  0  0  0  0  0  0  0  0  0
   57.7550   32.3360   42.1220 C   0  0  0  0  0  0  0  0  0  0  0  0
   58.2200   32.5740   43.4170 C   0  0  0  0  0  0  0  0  0  0  0  0
   57.8920   31.6960   44.4610 C   0  0  0  0  0  0  0  0  0  0  0  0
   58.3920   31.9580   45.7810 N   0  0  0  0  0  0  0  0  0  0  0  0
   59.4790   31.1300   46.3070 C   0  0  0  0  0  0  0  0  0  0  0  0
   59.4060   31.0350   47.8420 C   0  0  0  0  0  0  0  0  0  0  0  0
   59.1670   32.3380   48.5070 N   0  0  0  0  0  0  0  0  0  0  0  0
   60.2980   33.2530   48.5420 C   0  0  0  0  0  0  0  0  0  0  0  0
   60.1810   34.3420   49.1670 O   0  0  0  0  0  0  0  0  0  0  0  0
   61.5470   32.9800   47.8820 N   0  0  0  0  0  0  0  0  0  0  0  0
   62.5160   32.0630   48.4990 C   0  0  0  0  0  0  0  0  0  0  0  0
   63.9490   32.6520   48.5110 C   0  0  0  0  0  0  0  0  0  0  0  0
   64.0890   33.8600   47.7820 O   0  0  0  0  0  0  0  0  0  0  0  0
   63.4490   33.7490   46.5310 C   0  0  0  0  0  0  0  0  0  0  0  0
   61.9400   33.8170   46.7420 C   0  0  0  0  0  0  0  0  0  0  0  0
   57.9600   32.9970   47.9610 C   0  0  0  0  0  0  0  0  0  0  0  0
   58.0650   33.2190   46.4500 C   0  0  0  0  0  0  0  0  0  0  0  0
   57.3957   28.3638   46.6573 H   0  0  0  0  0  0  0  0  0  0  0  0
   56.7338   27.6775   45.1350 H   0  0  0  0  0  0  0  0  0  0  0  0
   58.3425   28.4767   45.1350 H   0  0  0  0  0  0  0  0  0  0  0  0
   55.9892   29.4647   42.6784 H   0  0  0  0  0  0  0  0  0  0  0  0
   56.6008   31.0302   40.8364 H   0  0  0  0  0  0  0  0  0  0  0  0
   58.0163   33.0287   41.3084 H   0  0  0  0  0  0  0  0  0  0  0  0
   58.8470   33.4548   43.6197 H   0  0  0  0  0  0  0  0  0  0  0  0
   59.4007   30.1194   45.8798 H   0  0  0  0  0  0  0  0  0  0  0  0
   60.4378   31.5921   46.0293 H   0  0  0  0  0  0  0  0  0  0  0  0
   58.5858   30.3526   48.1095 H   0  0  0  0  0  0  0  0  0  0  0  0
   60.3840   30.6705   48.1893 H   0  0  0  0  0  0  0  0  0  0  0  0
   58.9520   32.1140   49.5080 H   0  0  0  0  0  0  0  0  0  0  0  0
   62.2057   31.8636   49.5353 H   0  0  0  0  0  0  0  0  0  0  0  0
   62.5345   31.1384   47.9033 H   0  0  0  0  0  0  0  0  0  0  0  0
   64.2334   32.8452   49.5559 H   0  0  0  0  0  0  0  0  0  0  0  0
   64.5983   31.9113   48.0214 H   0  0  0  0  0  0  0  0  0  0  0  0
   63.7684   34.5746   45.8780 H   0  0  0  0  0  0  0  0  0  0  0  0
   63.7171   32.7927   46.0580 H   0  0  0  0  0  0  0  0  0  0  0  0
   61.6477   34.8590   46.9390 H   0  0  0  0  0  0  0  0  0  0  0  0
   61.4351   33.4488   45.8368 H   0  0  0  0  0  0  0  0  0  0  0  0
   57.0848   32.3634   48.1674 H   0  0  0  0  0  0  0  0  0  0  0  0
   57.8605   33.9803   48.4439 H   0  0  0  0  0  0  0  0  0  0  0  0
   57.1040   33.5951   46.0692 H   0  0  0  0  0  0  0  0  0  0  0  0
   58.8591   33.9526   46.2467 H   0  0  0  0  0  0  0  0  0  0  0  0
  1  2  1  0
  2  3  1  0
  3  4  2  0
  4  5  1  0
  5  6  2  0
  6  7  1  0
  7  8  2  0
  8  9  1  0
  9 10  1  0
 10 11  1  0
 11 12  1  0
 12 13  1  0
 13 14  2  0
 13 15  1  0
 15 16  1  0
 16 17  1  0
 17 18  1  0
 18 19  1  0
 19 20  1  0
 12 21  1  0
 21 22  1  0
  8  3  1  0
 22  9  1  0
 20 15  1  0
  1 23  1  0
  1 24  1  0
  1 25  1  0
  4 26  1  0
  5 27  1  0
  6 28  1  0
  7 29  1  0
 10 30  1  0
 10 31  1  0
 11 32  1  0
 11 33  1  0
 12 34  1  0
 16 35  1  0
 16 36  1  0
 17 37  1  0
 17 38  1  0
 19 39  1  0
 19 40  1  0
 20 41  1  0
 20 42  1  0
 21 43  1  0
 21 44  1  0
 22 45  1  0
 22 46  1  0
M  CHG  1  12   1
M  END
>  <UniqueID>  (49) 
45

>  <SMILES>  (49) 
COc1ccccc1N1CC[NH+](C(=O)N2CCOCC2)CC1

>  <Energy>  (49) 
69.28454959588615

>  <Genealogy>  (49) 
COc1ccccc1N1CC[NH+](C(=O)N2CCOCC2)CC1 (protonated)
COc1ccccc1N1CC[NH+](C(=O)N2CCOCC2)CC1 (3D coordinates assigned)
COc1ccccc1N1CC[NH+](C(=O)N2CCOCC2)CC1 (nonaromatic ring conformer: 69.28454959588615 kcal/mol)

>  <smiles>  (49) 
COc1ccccc1N1CCN(C(=O)N2CCOCC2)CC1

>  <score_type>  (49) 
oracle

>  <origin>  (49) 
adg

>  <m_score__min__energy>  (49) 
-5.6299999999999999

>  <m_primary>  (49) 
energy

$$$$
49:0
     RDKit          3D

 29 30  0  0  0  0  0  0  0  0999 V2000
   58.6670   34.2760   46.2500 C   0  0  0  0  0  0  0  0  0  0  0  0
   58.3370   33.2100   45.2580 C   0  0  0  0  0  0  0  0  0  0  0  0
   57.8110   31.9670   45.5450 C   0  0  0  0  0  0  0  0  0  0  0  0
   57.5670   31.3440   44.3770 N   0  0  0  0  0  0  0  0  0  0  0  0
   56.8490   29.7770   44.1830 S   0  0  0  0  0  0  0  0  0  0  0  0
   55.5060   29.7690   44.8590 O   0  0  0  0  0  0  0  0  0  0  0  0
   56.6620   29.4790   42.7220 O   0  0  0  0  0  0  0  0  0  0  0  0
   57.9050   28.5570   44.8830 C   0  0  0  0  0  0  0  0  0  0  0  0
   59.2840   28.7980   44.9640 C   0  0  0  0  0  0  0  0  0  0  0  0
   60.1320   27.8400   45.5310 C   0  0  0  0  0  0  0  0  0  0  0  0
   59.6060   26.6380   46.0140 C   0  0  0  0  0  0  0  0  0  0  0  0
   60.4290   25.7100   46.5640 F   0  0  0  0  0  0  0  0  0  0  0  0
   58.2320   26.3930   45.9320 C   0  0  0  0  0  0  0  0  0  0  0  0
   57.3820   27.3490   45.3670 C   0  0  0  0  0  0  0  0  0  0  0  0
   57.9370   32.2100   43.4070 C   0  0  0  0  0  0  0  0  0  0  0  0
   57.7610   31.9710   41.9400 C   0  0  0  0  0  0  0  0  0  0  0  0
   58.3990   33.3670   43.9210 N   0  0  0  0  0  0  0  0  0  0  0  0
   58.5443   33.8796   47.2687 H   0  0  0  0  0  0  0  0  0  0  0  0
   59.7079   34.6013   46.1061 H   0  0  0  0  0  0  0  0  0  0  0  0
   57.9919   35.1325   46.1061 H   0  0  0  0  0  0  0  0  0  0  0  0
   57.6244   31.5582   46.5490 H   0  0  0  0  0  0  0  0  0  0  0  0
   59.6999   29.7417   44.5812 H   0  0  0  0  0  0  0  0  0  0  0  0
   61.2130   28.0328   45.5967 H   0  0  0  0  0  0  0  0  0  0  0  0
   57.8190   25.4471   46.3124 H   0  0  0  0  0  0  0  0  0  0  0  0
   56.3015   27.1532   45.3021 H   0  0  0  0  0  0  0  0  0  0  0  0
   57.1151   31.0939   41.7863 H   0  0  0  0  0  0  0  0  0  0  0  0
   57.2961   32.8543   41.4778 H   0  0  0  0  0  0  0  0  0  0  0  0
   58.7425   31.7891   41.4778 H   0  0  0  0  0  0  0  0  0  0  0  0
   58.7120   34.2150   43.3970 H   0  0  0  0  0  0  0  0  0  0  0  0
  1  2  1  0
  2  3  2  0
  3  4  1  0
  4  5  1  0
  5  6  2  0
  5  7  2  0
  5  8  1  0
  8  9  2  0
  9 10  1  0
 10 11  2  0
 11 12  1  0
 11 13  1  0
 13 14  2  0
  4 15  1  0
 15 16  1  0
 15 17  2  0
 17  2  1  0
 14  8  1  0
  1 18  1  0
  1 19  1  0
  1 20  1  0
  3 21  1  0
  9 22  1  0
 10 23  1  0
 13 24  1  0
 14 25  1  0
 16 26  1  0
 16 27  1  0
 16 28  1  0
 17 29  1  0
M  CHG  1  17   1
M  END
>  <UniqueID>  (50) 
46

>  <SMILES>  (50) 
Cc1cn(S(=O)(=O)c2ccc(F)cc2)c(C)[nH+]1

>  <Energy>  (50) 
58.630201298002746

>  <Genealogy>  (50) 
Cc1cn(S(=O)(=O)c2ccc(F)cc2)c(C)[nH+]1 (protonated)
Cc1cn(S(=O)(=O)c2ccc(F)cc2)c(C)[nH+]1 (3D coordinates assigned)
Cc1cn(S(=O)(=O)c2ccc(F)cc2)c(C)[nH+]1 (optimized conformer: 58.630201298002746 kcal/mol)

>  <smiles>  (50) 
Cc1cn(S(=O)(=O)c2ccc(F)cc2)c(C)n1

>  <score_type>  (50) 
oracle

>  <origin>  (50) 
adg

>  <m_score__min__energy>  (50) 
-5.2199999999999998

>  <m_primary>  (50) 
energy

$$$$
