0:0
     RDKit          3D

 51 55  0  0  0  0  0  0  0  0999 V2000
   52.7700   27.4940   54.5470 C   0  0  0  0  0  0  0  0  0  0  0  0
   53.5090   28.5130   53.7300 C   0  0  0  0  0  0  0  0  0  0  0  0
   52.7970   29.5530   53.0790 C   0  0  0  0  0  0  0  0  0  0  0  0
   53.4760   30.5020   52.2830 C   0  0  0  0  0  0  0  0  0  0  0  0
   52.7360   31.5850   51.5590 C   0  0  0  0  0  0  0  0  0  0  0  0
   54.8540   30.3430   52.1380 C   0  0  0  0  0  0  0  0  0  0  0  0
   55.6970   31.0600   51.4450 O   0  0  0  0  0  0  0  0  0  0  0  0
   56.8850   30.5030   51.6260 C   0  0  0  0  0  0  0  0  0  0  0  0
   58.1240   31.0140   51.0090 C   0  0  0  0  0  0  0  0  0  0  0  0
   58.5240   32.3420   51.2260 C   0  0  0  0  0  0  0  0  0  0  0  0
   59.6970   32.8330   50.6450 C   0  0  0  0  0  0  0  0  0  0  0  0
   60.4940   32.0020   49.8400 C   0  0  0  0  0  0  0  0  0  0  0  0
   61.7360   32.5210   49.2180 C   0  0  0  0  0  0  0  0  0  0  0  0
   62.9480   31.8350   49.4130 C   0  0  0  0  0  0  0  0  0  0  0  0
   64.1270   32.2960   48.8220 C   0  0  0  0  0  0  0  0  0  0  0  0
   64.1120   33.4510   48.0400 C   0  0  0  0  0  0  0  0  0  0  0  0
   62.9190   34.1470   47.8440 C   0  0  0  0  0  0  0  0  0  0  0  0
   61.7210   33.6870   48.4220 C   0  0  0  0  0  0  0  0  0  0  0  0
   60.5260   34.4100   48.2740 O   0  0  0  0  0  0  0  0  0  0  0  0
   59.5860   34.2240   47.2510 C   0  0  0  0  0  0  0  0  0  0  0  0
   58.4870   33.3890   47.4920 C   0  0  0  0  0  0  0  0  0  0  0  0
   57.5360   33.1650   46.4910 C   0  0  0  0  0  0  0  0  0  0  0  0
   57.6850   33.7630   45.2380 C   0  0  0  0  0  0  0  0  0  0  0  0
   58.7880   34.5810   44.9810 C   0  0  0  0  0  0  0  0  0  0  0  0
   59.7400   34.8090   45.9800 C   0  0  0  0  0  0  0  0  0  0  0  0
   60.0880   30.6770   49.6150 C   0  0  0  0  0  0  0  0  0  0  0  0
   58.9150   30.1860   50.1950 C   0  0  0  0  0  0  0  0  0  0  0  0
   56.8440   29.4110   52.4380 N   0  0  0  0  0  0  0  0  0  0  0  0
   55.5390   29.3370   52.7480 C   0  0  0  0  0  0  0  0  0  0  0  0
   54.9050   28.3950   53.5510 C   0  0  0  0  0  0  0  0  0  0  0  0
   52.9209   27.7021   55.6165 H   0  0  0  0  0  0  0  0  0  0  0  0
   51.6966   27.5438   54.3117 H   0  0  0  0  0  0  0  0  0  0  0  0
   53.1508   26.4892   54.3117 H   0  0  0  0  0  0  0  0  0  0  0  0
   51.7053   29.6211   53.1952 H   0  0  0  0  0  0  0  0  0  0  0  0
   52.2722   32.2638   52.2898 H   0  0  0  0  0  0  0  0  0  0  0  0
   53.4378   32.1499   50.9278 H   0  0  0  0  0  0  0  0  0  0  0  0
   51.9547   31.1364   50.9278 H   0  0  0  0  0  0  0  0  0  0  0  0
   57.9102   33.0009   51.8577 H   0  0  0  0  0  0  0  0  0  0  0  0
   59.9978   33.8766   50.8193 H   0  0  0  0  0  0  0  0  0  0  0  0
   62.9679   30.9284   50.0357 H   0  0  0  0  0  0  0  0  0  0  0  0
   65.0683   31.7474   48.9735 H   0  0  0  0  0  0  0  0  0  0  0  0
   65.0419   33.8134   47.5774 H   0  0  0  0  0  0  0  0  0  0  0  0
   62.9146   35.0619   47.2333 H   0  0  0  0  0  0  0  0  0  0  0  0
   58.3714   32.9069   48.4739 H   0  0  0  0  0  0  0  0  0  0  0  0
   56.6699   32.5171   46.6911 H   0  0  0  0  0  0  0  0  0  0  0  0
   56.9339   33.5900   44.4532 H   0  0  0  0  0  0  0  0  0  0  0  0
   58.9079   35.0464   43.9916 H   0  0  0  0  0  0  0  0  0  0  0  0
   60.6114   35.4472   45.7719 H   0  0  0  0  0  0  0  0  0  0  0  0
   60.6978   30.0202   48.9773 H   0  0  0  0  0  0  0  0  0  0  0  0
   58.6093   29.1451   50.0131 H   0  0  0  0  0  0  0  0  0  0  0  0
   55.4725   27.5842   54.0312 H   0  0  0  0  0  0  0  0  0  0  0  0
  1  2  1  0
  2  3  2  0
  3  4  1  0
  4  5  1  0
  4  6  2  0
  6  7  1  0
  7  8  1  0
  8  9  1  0
  9 10  2  0
 10 11  1  0
 11 12  2  0
 12 13  1  0
 13 14  2  0
 14 15  1  0
 15 16  2  0
 16 17  1  0
 17 18  2  0
 18 19  1  0
 19 20  1  0
 20 21  2  0
 21 22  1  0
 22 23  2  0
 23 24  1  0
 24 25  2  0
 12 26  1  0
 26 27  2  0
  8 28  2  0
 28 29  1  0
 29 30  2  0
 30  2  1  0
 29  6  1  0
 27  9  1  0
 18 13  1  0
 25 20  1  0
  1 31  1  0
  1 32  1  0
  1 33  1  0
  3 34  1  0
  5 35  1  0
  5 36  1  0
  5 37  1  0
 10 38  1  0
 11 39  1  0
 14 40  1  0
 15 41  1  0
 16 42  1  0
 17 43  1  0
 21 44  1  0
 22 45  1  0
 23 46  1  0
 24 47  1  0
 25 48  1  0
 26 49  1  0
 27 50  1  0
 30 51  1  0
M  END
>  <UniqueID>  (1) 
1

>  <SMILES>  (1) 
Cc1cc(C)c2oc(-c3ccc(-c4ccccc4Oc4ccccc4)cc3)nc2c1

>  <Energy>  (1) 
105.66678913374454

>  <Genealogy>  (1) 
Cc1cc(C)c2oc(-c3ccc(-c4ccccc4Oc4ccccc4)cc3)nc2c1 (3D coordinates assigned)
Cc1cc(C)c2oc(-c3ccc(-c4ccccc4Oc4ccccc4)cc3)nc2c1 (optimized conformer: 105.66678913374454 kcal/mol)

>  <smiles>  (1) 
Cc1cc(C)c2oc(-c3ccc(-c4ccccc4Oc4ccccc4)cc3)nc2c1

>  <score_type>  (1) 
oracle

>  <origin>  (1) 
adg

>  <m_score__min__energy>  (1) 
-8.7799999999999994

>  <m_primary>  (1) 
energy

$$$$
1:0
     RDKit          3D

 50 49  0  0  0  0  0  0  0  0999 V2000
   59.1890   31.4990   46.3440 H   0  0  0  0  0  0  0  0  0  0  0  0
   58.3100   31.0430   46.0160 N   0  0  0  0  0  0  0  0  0  0  0  0
   58.0270   30.1460   46.4660 H   0  0  0  0  0  0  0  0  0  0  0  0
   57.5250   31.5720   44.9410 C   0  0  0  0  0  0  0  0  0  0  0  0
   57.8090   32.7170   44.3870 N   0  0  0  0  0  0  0  0  0  0  0  0
   57.5870   34.0290   44.9890 C   0  0  0  0  0  0  0  0  0  0  0  0
   57.3049   33.9018   46.0446 H   0  0  0  0  0  0  0  0  0  0  0  0
   56.7806   34.5426   44.4449 H   0  0  0  0  0  0  0  0  0  0  0  0
   58.8640   34.8710   44.9040 C   0  0  0  0  0  0  0  0  0  0  0  0
   58.5884   35.8925   44.6031 H   0  0  0  0  0  0  0  0  0  0  0  0
   59.5246   34.3848   44.1711 H   0  0  0  0  0  0  0  0  0  0  0  0
   59.6370   34.9460   46.2310 C   0  0  0  0  0  0  0  0  0  0  0  0
   59.0834   35.5970   46.9236 H   0  0  0  0  0  0  0  0  0  0  0  0
   60.6382   35.3436   46.0084 H   0  0  0  0  0  0  0  0  0  0  0  0
   59.8180   33.6050   46.8760 C   0  0  0  0  0  0  0  0  0  0  0  0
   60.8200   32.8950   46.5860 O   0  0  0  0  0  0  0  0  0  0  0  0
   58.8370   33.1280   47.7530 O   0  0  0  0  0  0  0  0  0  0  0  0
   59.0890   32.8180   49.1220 C   0  0  0  0  0  0  0  0  0  0  0  0
   59.5418   31.8177   49.1884 H   0  0  0  0  0  0  0  0  0  0  0  0
   58.1365   32.8427   49.6717 H   0  0  0  0  0  0  0  0  0  0  0  0
   60.0380   33.8390   49.7390 C   0  0  0  0  0  0  0  0  0  0  0  0
   59.9805   33.7771   50.8357 H   0  0  0  0  0  0  0  0  0  0  0  0
   61.0670   33.6269   49.4132 H   0  0  0  0  0  0  0  0  0  0  0  0
   59.7513   34.8498   49.4132 H   0  0  0  0  0  0  0  0  0  0  0  0
   56.3480   30.8630   44.5330 N   0  0  0  0  0  0  0  0  0  0  0  0
   56.2950   29.6780   43.9920 C   0  0  0  0  0  0  0  0  0  0  0  0
   55.6270   29.5260   42.7400 N   0  0  0  0  0  0  0  0  0  0  0  0
   55.2160   30.3550   42.2530 H   0  0  0  0  0  0  0  0  0  0  0  0
   55.5400   28.5860   42.2950 H   0  0  0  0  0  0  0  0  0  0  0  0
   56.8170   28.5050   44.6450 N   0  0  0  0  0  0  0  0  0  0  0  0
   56.9570   27.6340   44.0840 H   0  0  0  0  0  0  0  0  0  0  0  0
   57.0460   28.4570   45.9850 O   0  0  0  0  0  0  0  0  0  0  0  0
   57.5350   27.1700   46.2820 C   0  0  0  0  0  0  0  0  0  0  0  0
   57.0382   26.7850   47.1848 H   0  0  0  0  0  0  0  0  0  0  0  0
   57.3305   26.4895   45.4423 H   0  0  0  0  0  0  0  0  0  0  0  0
   59.0410   27.2590   46.5230 C   0  0  0  0  0  0  0  0  0  0  0  0
   59.4016   26.2916   46.9026 H   0  0  0  0  0  0  0  0  0  0  0  0
   59.5324   27.5091   45.5712 H   0  0  0  0  0  0  0  0  0  0  0  0
   59.3760   28.3590   47.5500 C   0  0  0  0  0  0  0  0  0  0  0  0
   58.4357   28.7042   48.0047 H   0  0  0  0  0  0  0  0  0  0  0  0
   60.0636   27.9094   48.2815 H   0  0  0  0  0  0  0  0  0  0  0  0
   60.0730   29.5330   46.9770 N   0  0  0  0  0  0  0  0  0  0  0  0
   61.0170   30.1560   47.9180 C   0  0  0  0  0  0  0  0  0  0  0  0
   60.6987   29.9459   48.9498 H   0  0  0  0  0  0  0  0  0  0  0  0
   62.0238   29.7443   47.7539 H   0  0  0  0  0  0  0  0  0  0  0  0
   61.0343   31.2436   47.7539 H   0  0  0  0  0  0  0  0  0  0  0  0
   60.7190   29.2430   45.6870 C   0  0  0  0  0  0  0  0  0  0  0  0
   61.7094   28.7984   45.8646 H   0  0  0  0  0  0  0  0  0  0  0  0
   60.0974   28.5375   45.1161 H   0  0  0  0  0  0  0  0  0  0  0  0
   60.8331   30.1763   45.1161 H   0  0  0  0  0  0  0  0  0  0  0  0
  1  2  1  0
  2  3  1  0
  2  4  1  0
  4  5  2  0
  5  6  1  0
  6  7  1  0
  6  8  1  0
  6  9  1  0
  9 10  1  0
  9 11  1  0
  9 12  1  0
 12 13  1  0
 12 14  1  0
 12 15  1  0
 15 16  2  0
 15 17  1  0
 17 18  1  0
 18 19  1  0
 18 20  1  0
 18 21  1  0
 21 22  1  0
 21 23  1  0
 21 24  1  0
  4 25  1  0
 25 26  2  0
 26 27  1  0
 27 28  1  0
 27 29  1  0
 26 30  1  0
 30 31  1  0
 30 32  1  0
 32 33  1  0
 33 34  1  0
 33 35  1  0
 33 36  1  0
 36 37  1  0
 36 38  1  0
 36 39  1  0
 39 40  1  0
 39 41  1  0
 39 42  1  0
 42 43  1  0
 43 44  1  0
 43 45  1  0
 43 46  1  0
 42 47  1  0
 47 48  1  0
 47 49  1  0
 47 50  1  0
M  END
>  <UniqueID>  (2) 
2

>  <SMILES>  (2) 
CCOC(=O)CCCN=C(N)/N=C(/N)NOCCCN(C)C

>  <Energy>  (2) 
35.087925530950606

>  <Genealogy>  (2) 
CCOC(=O)CCCN=C(N)/N=C(/N)NOCCCN(C)C (cis-trans isomerization)
CCOC(=O)CCCN=C(N)/N=C(/N)NOCCCN(C)C (3D coordinates assigned)
CCOC(=O)CCCN=C(N)/N=C(/N)NOCCCN(C)C (optimized conformer: 35.087925530950606 kcal/mol)

>  <smiles>  (2) 
CCOC(=O)CCCN=C(N)N=C(N)NOCCCN(C)C

>  <score_type>  (2) 
oracle

>  <origin>  (2) 
adg

>  <m_score__min__energy>  (2) 
-5.7599999999999998

>  <m_primary>  (2) 
energy

$$$$
2:0
     RDKit          3D

 56 58  0  0  0  0  0  0  0  0999 V2000
   57.1070   26.6690   45.6870 C   0  0  0  0  0  0  0  0  0  0  0  0
   58.2330   27.4720   45.0250 C   0  0  0  0  0  0  0  0  0  0  0  0
   57.7770   28.8830   44.6680 C   0  0  0  0  0  0  0  0  0  0  0  0
   57.0070   28.9960   43.5050 C   0  0  0  0  0  0  0  0  0  0  0  0
   56.7990   30.2300   42.9140 C   0  0  0  0  0  0  0  0  0  0  0  0
   57.3410   31.3620   43.4960 C   0  0  0  0  0  0  0  0  0  0  0  0
   58.0150   31.3100   44.6920 N   0  0  0  0  0  0  0  0  0  0  0  0
   58.2530   30.0870   45.3070 C   0  0  0  0  0  0  0  0  0  0  0  0
   58.9730   30.0660   46.5340 C   0  0  0  0  0  0  0  0  0  0  0  0
   58.6190   29.0880   47.6320 C   0  0  0  0  0  0  0  0  0  0  0  0
   59.8150   31.1590   46.8580 C   0  0  0  0  0  0  0  0  0  0  0  0
   60.8970   30.9960   47.8150 N   0  0  0  0  0  0  0  0  0  0  0  0
   62.3180   31.1980   47.4950 C   0  0  0  0  0  0  0  0  0  0  0  0
   63.1400   31.5930   48.7430 C   0  0  0  0  0  0  0  0  0  0  0  0
   64.0690   32.7470   48.5560 N   0  0  0  0  0  0  0  0  0  0  0  0
   64.7200   33.1180   49.8380 C   0  0  0  0  0  0  0  0  0  0  0  0
   65.9930   32.3020   50.1170 C   0  0  0  0  0  0  0  0  0  0  0  0
   63.4390   33.9300   47.9080 C   0  0  0  0  0  0  0  0  0  0  0  0
   63.4430   33.8640   46.3730 C   0  0  0  0  0  0  0  0  0  0  0  0
   59.5160   32.4100   46.2640 C   0  0  0  0  0  0  0  0  0  0  0  0
   60.1250   33.6220   46.7030 C   0  0  0  0  0  0  0  0  0  0  0  0
   59.7090   34.8530   46.2060 C   0  0  0  0  0  0  0  0  0  0  0  0
   58.6610   34.9240   45.3050 C   0  0  0  0  0  0  0  0  0  0  0  0
   58.0450   33.7590   44.8500 C   0  0  0  0  0  0  0  0  0  0  0  0
   58.5220   32.4780   45.2500 C   0  0  0  0  0  0  0  0  0  0  0  0
   57.2023   26.7370   46.7808 H   0  0  0  0  0  0  0  0  0  0  0  0
   56.1340   27.0782   45.3776 H   0  0  0  0  0  0  0  0  0  0  0  0
   57.1769   25.6157   45.3776 H   0  0  0  0  0  0  0  0  0  0  0  0
   59.0830   27.5361   45.7203 H   0  0  0  0  0  0  0  0  0  0  0  0
   58.5244   26.9580   44.0972 H   0  0  0  0  0  0  0  0  0  0  0  0
   56.5628   28.0953   43.0562 H   0  0  0  0  0  0  0  0  0  0  0  0
   56.2080   30.3100   41.9897 H   0  0  0  0  0  0  0  0  0  0  0  0
   57.2292   32.3307   42.9870 H   0  0  0  0  0  0  0  0  0  0  0  0
   58.7894   29.5589   48.6114 H   0  0  0  0  0  0  0  0  0  0  0  0
   57.5605   28.8026   47.5416 H   0  0  0  0  0  0  0  0  0  0  0  0
   59.2496   28.1912   47.5416 H   0  0  0  0  0  0  0  0  0  0  0  0
   60.7040   30.8600   48.8440 H   0  0  0  0  0  0  0  0  0  0  0  0
   62.7257   30.2636   47.0819 H   0  0  0  0  0  0  0  0  0  0  0  0
   62.3897   32.0187   46.7661 H   0  0  0  0  0  0  0  0  0  0  0  0
   62.4348   31.8512   49.5467 H   0  0  0  0  0  0  0  0  0  0  0  0
   63.7752   30.7257   48.9759 H   0  0  0  0  0  0  0  0  0  0  0  0
   64.8190   32.4030   47.9110 H   0  0  0  0  0  0  0  0  0  0  0  0
   64.9870   34.1845   49.8010 H   0  0  0  0  0  0  0  0  0  0  0  0
   64.0055   32.9045   50.6466 H   0  0  0  0  0  0  0  0  0  0  0  0
   66.1381   32.2090   51.2034 H   0  0  0  0  0  0  0  0  0  0  0  0
   65.8911   31.3005   49.6736 H   0  0  0  0  0  0  0  0  0  0  0  0
   66.8605   32.8128   49.6736 H   0  0  0  0  0  0  0  0  0  0  0  0
   62.3960   34.0001   48.2505 H   0  0  0  0  0  0  0  0  0  0  0  0
   64.0331   34.8102   48.1951 H   0  0  0  0  0  0  0  0  0  0  0  0
   63.5067   32.8140   46.0513 H   0  0  0  0  0  0  0  0  0  0  0  0
   62.5161   34.3110   45.9844 H   0  0  0  0  0  0  0  0  0  0  0  0
   64.3091   34.4197   45.9844 H   0  0  0  0  0  0  0  0  0  0  0  0
   60.9356   33.5832   47.4455 H   0  0  0  0  0  0  0  0  0  0  0  0
   60.2153   35.7740   46.5306 H   0  0  0  0  0  0  0  0  0  0  0  0
   58.3125   35.9038   44.9463 H   0  0  0  0  0  0  0  0  0  0  0  0
   57.1802   33.8300   44.1739 H   0  0  0  0  0  0  0  0  0  0  0  0
  1  2  1  0
  2  3  1  0
  3  4  2  0
  4  5  1  0
  5  6  2  0
  6  7  1  0
  7  8  2  0
  8  9  1  0
  9 10  1  0
  9 11  2  0
 11 12  1  0
 12 13  1  0
 13 14  1  0
 14 15  1  0
 15 16  1  0
 16 17  1  0
 15 18  1  0
 18 19  1  0
 11 20  1  0
 20 21  2  0
 21 22  1  0
 22 23  2  0
 23 24  1  0
 24 25  2  0
  8  3  1  0
 25 20  1  0
 25  7  1  0
  1 26  1  0
  1 27  1  0
  1 28  1  0
  2 29  1  0
  2 30  1  0
  4 31  1  0
  5 32  1  0
  6 33  1  0
 10 34  1  0
 10 35  1  0
 10 36  1  0
 12 37  1  0
 13 38  1  0
 13 39  1  0
 14 40  1  0
 14 41  1  0
 15 42  1  0
 16 43  1  0
 16 44  1  0
 17 45  1  0
 17 46  1  0
 17 47  1  0
 18 48  1  0
 18 49  1  0
 19 50  1  0
 19 51  1  0
 19 52  1  0
 21 53  1  0
 22 54  1  0
 23 55  1  0
 24 56  1  0
M  CHG  2   7   1  15   1
M  END
>  <UniqueID>  (3) 
3

>  <SMILES>  (3) 
CCc1ccc[n+]2c1c(C)c(NCC[NH+](CC)CC)c1ccccc12

>  <Energy>  (3) 
105.82494900060698

>  <Genealogy>  (3) 
CCc1ccc[n+]2c1c(C)c(NCC[NH+](CC)CC)c1ccccc12 (protonated)
CCc1ccc[n+]2c1c(C)c(NCC[NH+](CC)CC)c1ccccc12 (3D coordinates assigned)
CCc1ccc[n+]2c1c(C)c(NCC[NH+](CC)CC)c1ccccc12 (optimized conformer: 105.82494900060698 kcal/mol)

>  <smiles>  (3) 
CCc1ccc[n+]2c1c(C)c(NCCN(CC)CC)c1ccccc12

>  <score_type>  (3) 
oracle

>  <origin>  (3) 
adg

>  <m_score__min__energy>  (3) 
-5.3499999999999996

>  <m_primary>  (3) 
energy

$$$$
3:0
     RDKit          3D

 50 52  0  0  0  0  0  0  0  0999 V2000
   62.8040   34.0960   49.5160 C   0  0  0  0  0  0  0  0  0  0  0  0
   63.8540   33.1320   48.9500 C   0  0  0  0  0  0  0  0  0  0  0  0
   63.6020   32.7800   47.5290 N   0  0  1  0  0  0  0  0  0  0  0  0
   62.7580   31.5720   47.4280 C   0  0  0  0  0  0  0  0  0  0  0  0
   62.9410   33.9030   46.8160 C   0  0  0  0  0  0  0  0  0  0  0  0
   61.5060   33.5530   46.3600 C   0  0  0  0  0  0  0  0  0  0  0  0
   60.4550   34.5130   46.9390 C   0  0  0  0  0  0  0  0  0  0  0  0
   59.1010   34.0130   46.6900 N   0  0  0  0  0  0  0  0  0  0  0  0
   58.8530   32.6290   46.4080 C   0  0  0  0  0  0  0  0  0  0  0  0
   59.0520   31.6070   47.3670 C   0  0  0  0  0  0  0  0  0  0  0  0
   59.4130   31.9180   48.6920 C   0  0  0  0  0  0  0  0  0  0  0  0
   59.6120   30.9060   49.6290 C   0  0  0  0  0  0  0  0  0  0  0  0
   59.4470   29.5710   49.2670 C   0  0  0  0  0  0  0  0  0  0  0  0
   59.0710   29.2330   47.9670 C   0  0  0  0  0  0  0  0  0  0  0  0
   58.8580   30.2330   46.9910 C   0  0  0  0  0  0  0  0  0  0  0  0
   58.4680   29.9120   45.6990 N   0  0  0  0  0  0  0  0  0  0  0  0
   58.2720   28.5200   45.2640 C   0  0  0  0  0  0  0  0  0  0  0  0
   58.2650   30.9290   44.8120 C   0  0  0  0  0  0  0  0  0  0  0  0
   57.9250   30.8110   43.5500 O   0  0  0  0  0  0  0  0  0  0  0  0
   57.8660   32.0290   43.0440 C   0  0  0  0  0  0  0  0  0  0  0  0
   57.5490   32.3230   41.6160 C   0  0  0  0  0  0  0  0  0  0  0  0
   58.1790   32.9800   44.0070 C   0  0  0  0  0  0  0  0  0  0  0  0
   58.4290   32.2420   45.1440 C   0  0  0  0  0  0  0  0  0  0  0  0
   62.8349   34.0676   50.6152 H   0  0  0  0  0  0  0  0  0  0  0  0
   63.0194   35.1175   49.1694 H   0  0  0  0  0  0  0  0  0  0  0  0
   61.8046   33.7943   49.1694 H   0  0  0  0  0  0  0  0  0  0  0  0
   64.8437   33.6061   49.0249 H   0  0  0  0  0  0  0  0  0  0  0  0
   63.8026   32.2029   49.5366 H   0  0  0  0  0  0  0  0  0  0  0  0
   64.5120   32.5670   47.0540 H   0  0  0  0  0  0  0  0  0  0  0  0
   62.5079   31.2140   48.4376 H   0  0  0  0  0  0  0  0  0  0  0  0
   61.8325   31.8156   46.8856 H   0  0  0  0  0  0  0  0  0  0  0  0
   63.3050   30.7868   46.8856 H   0  0  0  0  0  0  0  0  0  0  0  0
   62.8948   34.7706   47.4907 H   0  0  0  0  0  0  0  0  0  0  0  0
   63.5335   34.1216   45.9154 H   0  0  0  0  0  0  0  0  0  0  0  0
   61.4626   33.6027   45.2620 H   0  0  0  0  0  0  0  0  0  0  0  0
   61.2750   32.5425   46.7280 H   0  0  0  0  0  0  0  0  0  0  0  0
   60.6110   34.6069   48.0238 H   0  0  0  0  0  0  0  0  0  0  0  0
   60.5647   35.4924   46.4504 H   0  0  0  0  0  0  0  0  0  0  0  0
   58.3910   34.7080   46.3620 H   0  0  0  0  0  0  0  0  0  0  0  0
   59.5391   32.9693   48.9901 H   0  0  0  0  0  0  0  0  0  0  0  0
   59.9006   31.1624   50.6590 H   0  0  0  0  0  0  0  0  0  0  0  0
   59.6143   28.7783   50.0111 H   0  0  0  0  0  0  0  0  0  0  0  0
   58.9385   28.1747   47.6979 H   0  0  0  0  0  0  0  0  0  0  0  0
   58.1804   27.8696   46.1463 H   0  0  0  0  0  0  0  0  0  0  0  0
   57.3552   28.4502   44.6602 H   0  0  0  0  0  0  0  0  0  0  0  0
   59.1339   28.1997   44.6602 H   0  0  0  0  0  0  0  0  0  0  0  0
   56.7433   33.0702   41.5656 H   0  0  0  0  0  0  0  0  0  0  0  0
   58.4457   32.7163   41.1148 H   0  0  0  0  0  0  0  0  0  0  0  0
   57.2242   31.3992   41.1148 H   0  0  0  0  0  0  0  0  0  0  0  0
   58.2184   34.0729   43.8891 H   0  0  0  0  0  0  0  0  0  0  0  0
  1  2  1  0
  2  3  1  0
  3  4  1  0
  3  5  1  0
  5  6  1  0
  6  7  1  0
  7  8  1  0
  8  9  1  0
  9 10  2  0
 10 11  1  0
 11 12  2  0
 12 13  1  0
 13 14  2  0
 14 15  1  0
 15 16  2  0
 16 17  1  0
 16 18  1  0
 18 19  1  0
 19 20  1  0
 20 21  1  0
 20 22  2  0
 22 23  1  0
 23  9  1  0
 15 10  1  0
 23 18  2  0
  1 24  1  0
  1 25  1  0
  1 26  1  0
  2 27  1  0
  2 28  1  0
  3 29  1  6
  4 30  1  0
  4 31  1  0
  4 32  1  0
  5 33  1  0
  5 34  1  0
  6 35  1  0
  6 36  1  0
  7 37  1  0
  7 38  1  0
  8 39  1  0
 11 40  1  0
 12 41  1  0
 13 42  1  0
 14 43  1  0
 17 44  1  0
 17 45  1  0
 17 46  1  0
 21 47  1  0
 21 48  1  0
 21 49  1  0
 22 50  1  0
M  CHG  2   3   1  16   1
M  END
>  <UniqueID>  (4) 
4

>  <SMILES>  (4) 
CC[N@@H+](C)CCCNc1c2ccccc2[n+](C)c2oc(C)cc12

>  <Energy>  (4) 
93.34102363806907

>  <Genealogy>  (4) 
CC[NH+](C)CCCNc1c2ccccc2[n+](C)c2oc(C)cc12 (protonated)
CC[N@@H+](C)CCCNc1c2ccccc2[n+](C)c2oc(C)cc12 (chirality)
CC[N@@H+](C)CCCNc1c2ccccc2[n+](C)c2oc(C)cc12 (3D coordinates assigned)
CC[N@@H+](C)CCCNc1c2ccccc2[n+](C)c2oc(C)cc12 (optimized conformer: 93.34102363806907 kcal/mol)

>  <smiles>  (4) 
CCN(C)CCCNc1c2ccccc2[n+](C)c2oc(C)cc12

>  <score_type>  (4) 
oracle

>  <origin>  (4) 
adg

>  <m_score__min__energy>  (4) 
-4.1299999999999999

>  <m_primary>  (4) 
energy

$$$$
4:0
     RDKit          3D

 47 49  0  0  0  0  0  0  0  0999 V2000
   56.1750   29.7220   42.6470 C   0  0  0  0  0  0  0  0  0  0  0  0
   57.1810   29.9820   43.7320 C   0  0  0  0  0  0  0  0  0  0  0  0
   58.0190   28.9610   44.1690 C   0  0  0  0  0  0  0  0  0  0  0  0
   58.9480   29.1960   45.1790 C   0  0  0  0  0  0  0  0  0  0  0  0
   59.0860   30.4760   45.7740 C   0  0  0  0  0  0  0  0  0  0  0  0
   59.9710   30.7190   46.8660 C   0  0  0  0  0  0  0  0  0  0  0  0
   60.7740   29.6470   47.4460 N   0  0  0  0  0  0  0  0  0  0  0  0
   60.1380   29.0670   48.6460 C   0  0  0  0  0  0  0  0  0  0  0  0
   59.9880   27.5400   48.5510 C   0  0  0  0  0  0  0  0  0  0  0  0
   59.6880   27.1340   47.1600 N   0  0  0  0  0  0  0  0  0  0  0  0
   58.4480   26.3390   47.0960 C   0  0  0  0  0  0  0  0  0  0  0  0
   60.8010   26.3440   46.6070 C   0  0  0  0  0  0  0  0  0  0  0  0
   60.0200   32.0290   47.4220 C   0  0  0  0  0  0  0  0  0  0  0  0
   60.8390   32.3360   48.5400 C   0  0  0  0  0  0  0  0  0  0  0  0
   60.8250   33.6020   49.1180 C   0  0  0  0  0  0  0  0  0  0  0  0
   59.9970   34.5910   48.6110 C   0  0  0  0  0  0  0  0  0  0  0  0
   59.2060   34.3320   47.4970 C   0  0  0  0  0  0  0  0  0  0  0  0
   59.2330   33.0680   46.8510 C   0  0  0  0  0  0  0  0  0  0  0  0
   58.5050   32.8380   45.7030 N   0  0  0  0  0  0  0  0  0  0  0  0
   57.9660   33.9830   44.9320 C   0  0  0  0  0  0  0  0  0  0  0  0
   58.3120   31.5510   45.2480 C   0  0  0  0  0  0  0  0  0  0  0  0
   57.3360   31.2660   44.2580 C   0  0  0  0  0  0  0  0  0  0  0  0
   55.2043   29.4711   43.0995 H   0  0  0  0  0  0  0  0  0  0  0  0
   56.0673   30.6218   42.0235 H   0  0  0  0  0  0  0  0  0  0  0  0
   56.5168   28.8827   42.0235 H   0  0  0  0  0  0  0  0  0  0  0  0
   57.9471   27.9622   43.7138 H   0  0  0  0  0  0  0  0  0  0  0  0
   59.5890   28.3709   45.5230 H   0  0  0  0  0  0  0  0  0  0  0  0
   60.9220   28.8960   46.7380 H   0  0  0  0  0  0  0  0  0  0  0  0
   61.7540   29.9270   47.6570 H   0  0  0  0  0  0  0  0  0  0  0  0
   60.7557   29.3071   49.5239 H   0  0  0  0  0  0  0  0  0  0  0  0
   59.1296   29.4979   48.7320 H   0  0  0  0  0  0  0  0  0  0  0  0
   60.9257   27.0635   48.8729 H   0  0  0  0  0  0  0  0  0  0  0  0
   59.1589   27.2230   49.2007 H   0  0  0  0  0  0  0  0  0  0  0  0
   58.1017   26.1170   48.1162 H   0  0  0  0  0  0  0  0  0  0  0  0
   57.6738   26.9095   46.5620 H   0  0  0  0  0  0  0  0  0  0  0  0
   58.6433   25.3973   46.5620 H   0  0  0  0  0  0  0  0  0  0  0  0
   61.3957   25.9219   47.4305 H   0  0  0  0  0  0  0  0  0  0  0  0
   60.3995   25.5276   45.9887 H   0  0  0  0  0  0  0  0  0  0  0  0
   61.4392   26.9924   45.9887 H   0  0  0  0  0  0  0  0  0  0  0  0
   61.4967   31.5592   48.9571 H   0  0  0  0  0  0  0  0  0  0  0  0
   61.4732   33.8183   49.9800 H   0  0  0  0  0  0  0  0  0  0  0  0
   59.9655   35.5808   49.0898 H   0  0  0  0  0  0  0  0  0  0  0  0
   58.5464   35.1220   47.1087 H   0  0  0  0  0  0  0  0  0  0  0  0
   57.6028   34.7545   45.6269 H   0  0  0  0  0  0  0  0  0  0  0  0
   58.7601   34.4047   44.2984 H   0  0  0  0  0  0  0  0  0  0  0  0
   57.1349   33.6397   44.2984 H   0  0  0  0  0  0  0  0  0  0  0  0
   56.6859   32.0763   43.8963 H   0  0  0  0  0  0  0  0  0  0  0  0
  1  2  1  0
  2  3  2  0
  3  4  1  0
  4  5  2  0
  5  6  1  0
  6  7  1  0
  7  8  1  0
  8  9  1  0
  9 10  1  0
 10 11  1  0
 10 12  1  0
  6 13  2  0
 13 14  1  0
 14 15  2  0
 15 16  1  0
 16 17  2  0
 17 18  1  0
 18 19  2  0
 19 20  1  0
 19 21  1  0
 21 22  2  0
 22  2  1  0
 21  5  1  0
 18 13  1  0
  1 23  1  0
  1 24  1  0
  1 25  1  0
  3 26  1  0
  4 27  1  0
  7 28  1  0
  7 29  1  0
  8 30  1  0
  8 31  1  0
  9 32  1  0
  9 33  1  0
 11 34  1  0
 11 35  1  0
 11 36  1  0
 12 37  1  0
 12 38  1  0
 12 39  1  0
 14 40  1  0
 15 41  1  0
 16 42  1  0
 17 43  1  0
 20 44  1  0
 20 45  1  0
 20 46  1  0
 22 47  1  0
M  CHG  2   7   1  19   1
M  END
>  <UniqueID>  (5) 
5

>  <SMILES>  (5) 
Cc1ccc2c([NH2+]CCN(C)C)c3ccccc3[n+](C)c2c1

>  <Energy>  (5) 
77.26042415777538

>  <Genealogy>  (5) 
Cc1ccc2c([NH2+]CCN(C)C)c3ccccc3[n+](C)c2c1 (protonated)
Cc1ccc2c([NH2+]CCN(C)C)c3ccccc3[n+](C)c2c1 (3D coordinates assigned)
Cc1ccc2c([NH2+]CCN(C)C)c3ccccc3[n+](C)c2c1 (optimized conformer: 77.26042415777538 kcal/mol)

>  <smiles>  (5) 
Cc1ccc2c(NCCN(C)C)c3ccccc3[n+](C)c2c1

>  <score_type>  (5) 
oracle

>  <origin>  (5) 
adg

>  <m_score__min__energy>  (5) 
-3.9500000000000002

>  <m_primary>  (5) 
energy

$$$$
5:0
     RDKit          3D

 54 57  0  0  0  0  0  0  0  0999 V2000
   59.6940   34.1740   49.8040 C   0  0  0  0  0  0  0  0  0  0  0  0
   60.7650   33.9410   48.8280 N   0  0  0  0  0  0  0  0  0  0  0  0
   60.7210   34.2160   47.4950 C   0  0  0  0  0  0  0  0  0  0  0  0
   59.5200   34.7660   46.7620 C   0  0  0  0  0  0  0  0  0  0  0  0
   58.8410   33.7410   45.9340 N   0  0  0  0  0  0  0  0  0  0  0  0
   57.3640   33.8180   46.0550 C   0  0  0  0  0  0  0  0  0  0  0  0
   56.6680   32.7190   45.2190 C   0  0  0  0  0  0  0  0  0  0  0  0
   57.6160   32.0470   44.3030 N   0  0  0  0  0  0  0  0  0  0  0  0
   56.9340   31.0790   43.4180 C   0  0  0  0  0  0  0  0  0  0  0  0
   56.8010   29.7380   44.1410 C   0  0  0  0  0  0  0  0  0  0  0  0
   57.0560   29.9430   45.5270 O   0  0  0  0  0  0  0  0  0  0  0  0
   58.3450   29.9700   46.0510 C   0  0  0  0  0  0  0  0  0  0  0  0
   59.4160   29.3620   45.3780 C   0  0  0  0  0  0  0  0  0  0  0  0
   60.7060   29.4270   45.9150 C   0  0  0  0  0  0  0  0  0  0  0  0
   60.9300   30.0910   47.1260 C   0  0  0  0  0  0  0  0  0  0  0  0
   59.8620   30.6910   47.8030 C   0  0  0  0  0  0  0  0  0  0  0  0
   58.5750   30.6400   47.2630 C   0  0  0  0  0  0  0  0  0  0  0  0
   58.3780   33.0550   43.5490 C   0  0  0  0  0  0  0  0  0  0  0  0
   59.2520   33.8910   44.5110 C   0  0  0  0  0  0  0  0  0  0  0  0
   61.9400   33.9150   46.8880 C   0  0  0  0  0  0  0  0  0  0  0  0
   62.7530   33.4730   47.9100 C   0  0  0  0  0  0  0  0  0  0  0  0
   64.0830   33.0650   47.8860 C   0  0  0  0  0  0  0  0  0  0  0  0
   64.6770   32.6920   49.1060 C   0  0  0  0  0  0  0  0  0  0  0  0
   63.9360   32.7470   50.3080 C   0  0  0  0  0  0  0  0  0  0  0  0
   62.5940   33.1600   50.3010 C   0  0  0  0  0  0  0  0  0  0  0  0
   62.0200   33.5180   49.0750 C   0  0  0  0  0  0  0  0  0  0  0  0
   60.1004   34.0856   50.8224 H   0  0  0  0  0  0  0  0  0  0  0  0
   59.2804   35.1831   49.6606 H   0  0  0  0  0  0  0  0  0  0  0  0
   58.8985   33.4279   49.6606 H   0  0  0  0  0  0  0  0  0  0  0  0
   58.8033   35.1540   47.5008 H   0  0  0  0  0  0  0  0  0  0  0  0
   59.8750   35.5589   46.0872 H   0  0  0  0  0  0  0  0  0  0  0  0
   59.1580   32.7980   46.2670 H   0  0  0  0  0  0  0  0  0  0  0  0
   57.0851   33.6935   47.1117 H   0  0  0  0  0  0  0  0  0  0  0  0
   57.0377   34.7978   45.6763 H   0  0  0  0  0  0  0  0  0  0  0  0
   56.2392   31.9699   45.9009 H   0  0  0  0  0  0  0  0  0  0  0  0
   55.8830   33.1943   44.6125 H   0  0  0  0  0  0  0  0  0  0  0  0
   55.9340   31.4581   43.1605 H   0  0  0  0  0  0  0  0  0  0  0  0
   57.5216   30.9443   42.4979 H   0  0  0  0  0  0  0  0  0  0  0  0
   55.7833   29.3432   44.0057 H   0  0  0  0  0  0  0  0  0  0  0  0
   57.5207   29.0154   43.7289 H   0  0  0  0  0  0  0  0  0  0  0  0
   59.2411   28.8346   44.4287 H   0  0  0  0  0  0  0  0  0  0  0  0
   61.5460   28.9551   45.3842 H   0  0  0  0  0  0  0  0  0  0  0  0
   61.9454   30.1415   47.5460 H   0  0  0  0  0  0  0  0  0  0  0  0
   60.0364   31.2030   48.7609 H   0  0  0  0  0  0  0  0  0  0  0  0
   57.7397   31.1259   47.7885 H   0  0  0  0  0  0  0  0  0  0  0  0
   59.0247   32.5493   42.8169 H   0  0  0  0  0  0  0  0  0  0  0  0
   57.6749   33.7229   43.0298 H   0  0  0  0  0  0  0  0  0  0  0  0
   60.2978   33.5652   44.4101 H   0  0  0  0  0  0  0  0  0  0  0  0
   59.1289   34.9495   44.2383 H   0  0  0  0  0  0  0  0  0  0  0  0
   62.1975   34.0099   45.8228 H   0  0  0  0  0  0  0  0  0  0  0  0
   64.6513   33.0350   46.9447 H   0  0  0  0  0  0  0  0  0  0  0  0
   65.7242   32.3557   49.1241 H   0  0  0  0  0  0  0  0  0  0  0  0
   64.4145   32.4639   51.2571 H   0  0  0  0  0  0  0  0  0  0  0  0
   62.0101   33.2011   51.2323 H   0  0  0  0  0  0  0  0  0  0  0  0
  1  2  1  0
  2  3  1  0
  3  4  1  0
  4  5  1  0
  5  6  1  0
  6  7  1  0
  7  8  1  0
  8  9  1  0
  9 10  1  0
 10 11  1  0
 11 12  1  0
 12 13  2  0
 13 14  1  0
 14 15  2  0
 15 16  1  0
 16 17  2  0
  8 18  1  0
 18 19  1  0
  3 20  2  0
 20 21  1  0
 21 22  2  0
 22 23  1  0
 23 24  2  0
 24 25  1  0
 25 26  2  0
 26  2  1  0
 19  5  1  0
 26 21  1  0
 17 12  1  0
  1 27  1  0
  1 28  1  0
  1 29  1  0
  4 30  1  0
  4 31  1  0
  5 32  1  0
  6 33  1  0
  6 34  1  0
  7 35  1  0
  7 36  1  0
  9 37  1  0
  9 38  1  0
 10 39  1  0
 10 40  1  0
 13 41  1  0
 14 42  1  0
 15 43  1  0
 16 44  1  0
 17 45  1  0
 18 46  1  0
 18 47  1  0
 19 48  1  0
 19 49  1  0
 20 50  1  0
 22 51  1  0
 23 52  1  0
 24 53  1  0
 25 54  1  0
M  CHG  1   5   1
M  END
>  <UniqueID>  (6) 
6

>  <SMILES>  (6) 
Cn1c(C[NH+]2CCN(CCOc3ccccc3)CC2)cc2ccccc21

>  <Energy>  (6) 
105.03644274627045

>  <Genealogy>  (6) 
Cn1c(C[NH+]2CCN(CCOc3ccccc3)CC2)cc2ccccc21 (protonated)
Cn1c(C[NH+]2CCN(CCOc3ccccc3)CC2)cc2ccccc21 (3D coordinates assigned)
Cn1c(C[NH+]2CCN(CCOc3ccccc3)CC2)cc2ccccc21 (nonaromatic ring conformer: 105.03644274627045 kcal/mol)

>  <smiles>  (6) 
Cn1c(CN2CCN(CCOc3ccccc3)CC2)cc2ccccc21

>  <score_type>  (6) 
oracle

>  <origin>  (6) 
adg

>  <m_score__min__energy>  (6) 
-6.9800000000000004

>  <m_primary>  (6) 
energy

$$$$
6:0
     RDKit          3D

 62 64  0  0  0  0  0  0  0  0999 V2000
   63.1110   32.4220   47.9470 C   0  0  0  0  0  0  0  0  0  0  0  0
   62.1190   31.2640   47.8040 C   0  0  0  0  0  0  0  0  0  0  0  0
   61.8940   30.5670   49.0880 N   0  0  0  0  0  0  0  0  0  0  0  0
   62.7150   31.1130   50.1900 C   0  0  0  0  0  0  0  0  0  0  0  0
   62.2980   30.5600   51.5600 C   0  0  0  0  0  0  0  0  0  0  0  0
   61.0620   29.8810   51.4450 O   0  0  0  0  0  0  0  0  0  0  0  0
   61.2240   28.5000   51.7100 C   0  0  0  0  0  0  0  0  0  0  0  0
   60.7890   27.6680   50.4980 C   0  0  0  0  0  0  0  0  0  0  0  0
   60.3900   28.4990   49.4230 O   0  0  0  0  0  0  0  0  0  0  0  0
   60.3810   27.7770   48.2090 C   0  0  0  0  0  0  0  0  0  0  0  0
   59.6970   28.6060   47.1250 C   0  0  0  0  0  0  0  0  0  0  0  0
   58.9170   29.7050   47.7020 N   0  0  0  0  0  0  0  0  0  0  0  0
   58.5180   30.8470   46.9220 C   0  0  0  0  0  0  0  0  0  0  0  0
   57.9280   30.6440   45.6610 C   0  0  0  0  0  0  0  0  0  0  0  0
   57.6010   29.3450   45.2160 C   0  0  0  0  0  0  0  0  0  0  0  0
   57.0740   29.1350   43.9450 C   0  0  0  0  0  0  0  0  0  0  0  0
   56.8890   30.2100   43.0860 C   0  0  0  0  0  0  0  0  0  0  0  0
   57.1890   31.5040   43.5070 C   0  0  0  0  0  0  0  0  0  0  0  0
   57.6710   31.7560   44.8170 C   0  0  0  0  0  0  0  0  0  0  0  0
   57.9140   33.0400   45.2670 N   0  0  0  0  0  0  0  0  0  0  0  0
   57.4010   34.1980   44.5010 C   0  0  0  0  0  0  0  0  0  0  0  0
   58.5870   33.2440   46.4570 C   0  0  0  0  0  0  0  0  0  0  0  0
   59.0790   34.5240   46.8110 C   0  0  0  0  0  0  0  0  0  0  0  0
   59.6540   34.7540   48.0550 C   0  0  0  0  0  0  0  0  0  0  0  0
   59.7350   33.7310   48.9880 C   0  0  0  0  0  0  0  0  0  0  0  0
   59.2990   32.4350   48.6660 C   0  0  0  0  0  0  0  0  0  0  0  0
   59.3090   31.4190   49.6400 O   0  0  0  0  0  0  0  0  0  0  0  0
   58.4030   31.3220   50.7360 C   0  0  0  0  0  0  0  0  0  0  0  0
   58.8100   32.1630   47.3560 C   0  0  0  0  0  0  0  0  0  0  0  0
   63.2855   32.6257   49.0138 H   0  0  0  0  0  0  0  0  0  0  0  0
   64.0621   32.1517   47.4650 H   0  0  0  0  0  0  0  0  0  0  0  0
   62.6979   33.3203   47.4650 H   0  0  0  0  0  0  0  0  0  0  0  0
   61.1591   31.6611   47.4423 H   0  0  0  0  0  0  0  0  0  0  0  0
   62.5424   30.5392   47.0931 H   0  0  0  0  0  0  0  0  0  0  0  0
   62.1080   29.5480   48.9740 H   0  0  0  0  0  0  0  0  0  0  0  0
   60.8760   30.6280   49.3270 H   0  0  0  0  0  0  0  0  0  0  0  0
   63.7680   30.8514   50.0091 H   0  0  0  0  0  0  0  0  0  0  0  0
   62.5680   32.2030   50.2095 H   0  0  0  0  0  0  0  0  0  0  0  0
   63.0667   29.8611   51.9214 H   0  0  0  0  0  0  0  0  0  0  0  0
   62.1912   31.3923   52.2712 H   0  0  0  0  0  0  0  0  0  0  0  0
   62.2822   28.2948   51.9294 H   0  0  0  0  0  0  0  0  0  0  0  0
   60.5989   28.2268   52.5729 H   0  0  0  0  0  0  0  0  0  0  0  0
   61.6317   27.0402   50.1726 H   0  0  0  0  0  0  0  0  0  0  0  0
   59.9321   27.0445   50.7929 H   0  0  0  0  0  0  0  0  0  0  0  0
   61.4155   27.5591   47.9050 H   0  0  0  0  0  0  0  0  0  0  0  0
   59.8318   26.8342   48.3488 H   0  0  0  0  0  0  0  0  0  0  0  0
   60.4644   29.0244   46.4572 H   0  0  0  0  0  0  0  0  0  0  0  0
   59.0107   27.9497   46.5697 H   0  0  0  0  0  0  0  0  0  0  0  0
   58.5520   29.6050   48.6770 H   0  0  0  0  0  0  0  0  0  0  0  0
   57.7651   28.4861   45.8834 H   0  0  0  0  0  0  0  0  0  0  0  0
   56.8045   28.1188   43.6215 H   0  0  0  0  0  0  0  0  0  0  0  0
   56.5043   30.0396   42.0696 H   0  0  0  0  0  0  0  0  0  0  0  0
   57.0496   32.3446   42.8114 H   0  0  0  0  0  0  0  0  0  0  0  0
   57.0565   34.9756   45.1987 H   0  0  0  0  0  0  0  0  0  0  0  0
   58.2038   34.6033   43.8675 H   0  0  0  0  0  0  0  0  0  0  0  0
   56.5614   33.8757   43.8675 H   0  0  0  0  0  0  0  0  0  0  0  0
   59.0047   35.3504   46.0888 H   0  0  0  0  0  0  0  0  0  0  0  0
   60.0466   35.7517   48.3008 H   0  0  0  0  0  0  0  0  0  0  0  0
   60.1440   33.9361   49.9883 H   0  0  0  0  0  0  0  0  0  0  0  0
   58.9629   31.3819   51.6810 H   0  0  0  0  0  0  0  0  0  0  0  0
   57.6778   32.1476   50.6865 H   0  0  0  0  0  0  0  0  0  0  0  0
   57.8691   30.3616   50.6865 H   0  0  0  0  0  0  0  0  0  0  0  0
  1  2  1  0
  2  3  1  0
  3  4  1  0
  4  5  1  0
  5  6  1  0
  6  7  1  0
  7  8  1  0
  8  9  1  0
  9 10  1  0
 10 11  1  0
 11 12  1  0
 12 13  1  0
 13 14  2  0
 14 15  1  0
 15 16  2  0
 16 17  1  0
 17 18  2  0
 18 19  1  0
 19 20  2  0
 20 21  1  0
 20 22  1  0
 22 23  2  0
 23 24  1  0
 24 25  2  0
 25 26  1  0
 26 27  1  0
 27 28  1  0
 26 29  2  0
 29 13  1  0
 19 14  1  0
 29 22  1  0
  1 30  1  0
  1 31  1  0
  1 32  1  0
  2 33  1  0
  2 34  1  0
  3 35  1  0
  3 36  1  0
  4 37  1  0
  4 38  1  0
  5 39  1  0
  5 40  1  0
  7 41  1  0
  7 42  1  0
  8 43  1  0
  8 44  1  0
 10 45  1  0
 10 46  1  0
 11 47  1  0
 11 48  1  0
 12 49  1  0
 15 50  1  0
 16 51  1  0
 17 52  1  0
 18 53  1  0
 21 54  1  0
 21 55  1  0
 21 56  1  0
 23 57  1  0
 24 58  1  0
 25 59  1  0
 28 60  1  0
 28 61  1  0
 28 62  1  0
M  CHG  2   3   1  20   1
M  END
>  <UniqueID>  (7) 
7

>  <SMILES>  (7) 
CC[NH2+]CCOCCOCCNc1c2ccccc2[n+](C)c2cccc(OC)c12

>  <Energy>  (7) 
90.97888256711613

>  <Genealogy>  (7) 
CC[NH2+]CCOCCOCCNc1c2ccccc2[n+](C)c2cccc(OC)c12 (protonated)
CC[NH2+]CCOCCOCCNc1c2ccccc2[n+](C)c2cccc(OC)c12 (3D coordinates assigned)
CC[NH2+]CCOCCOCCNc1c2ccccc2[n+](C)c2cccc(OC)c12 (optimized conformer: 90.97888256711613 kcal/mol)

>  <smiles>  (7) 
CCNCCOCCOCCNc1c2ccccc2[n+](C)c2cccc(OC)c12

>  <score_type>  (7) 
oracle

>  <origin>  (7) 
adg

>  <m_score__min__energy>  (7) 
-2.4199999999999999

>  <m_primary>  (7) 
energy

$$$$
7:0
     RDKit          3D

 59 61  0  0  0  0  0  0  0  0999 V2000
   61.4750   31.0520   47.3070 C   0  0  0  0  0  0  0  0  0  0  0  0
   61.2970   31.7820   48.6350 C   0  0  0  0  0  0  0  0  0  0  0  0
   62.3630   32.7930   48.8130 N   0  0  0  0  0  0  0  0  0  0  0  0
   63.4740   32.5880   47.8540 C   0  0  0  0  0  0  0  0  0  0  0  0
   63.4640   33.6300   46.7360 C   0  0  0  0  0  0  0  0  0  0  0  0
   61.8250   34.1760   48.8350 C   0  0  0  0  0  0  0  0  0  0  0  0
   60.3850   34.2850   49.3750 C   0  0  0  0  0  0  0  0  0  0  0  0
   59.5080   34.9290   48.3930 N   0  0  0  0  0  0  0  0  0  0  0  0
   59.0420   34.2680   47.2030 C   0  0  0  0  0  0  0  0  0  0  0  0
   58.9760   34.9330   45.9500 C   0  0  0  0  0  0  0  0  0  0  0  0
   58.5170   34.2600   44.8060 C   0  0  0  0  0  0  0  0  0  0  0  0
   58.1340   32.9310   44.9480 C   0  0  0  0  0  0  0  0  0  0  0  0
   57.6740   32.1220   43.9760 N   0  0  0  0  0  0  0  0  0  0  0  0
   57.4450   30.9430   44.6000 C   0  0  0  0  0  0  0  0  0  0  0  0
   56.9480   29.6980   43.9070 C   0  0  0  0  0  0  0  0  0  0  0  0
   57.7960   28.5100   44.1670 N   0  0  0  0  0  0  0  0  0  0  0  0
   59.1850   28.8930   44.5180 C   0  0  0  0  0  0  0  0  0  0  0  0
   60.0260   27.6780   44.9190 C   0  0  0  0  0  0  0  0  0  0  0  0
   60.1910   27.5110   46.4360 C   0  0  0  0  0  0  0  0  0  0  0  0
   58.8630   27.1580   47.1240 C   0  0  0  0  0  0  0  0  0  0  0  0
   57.6590   27.9590   46.6030 C   0  0  0  0  0  0  0  0  0  0  0  0
   57.1960   27.6080   45.1810 C   0  0  0  0  0  0  0  0  0  0  0  0
   57.7700   31.0580   45.9450 C   0  0  0  0  0  0  0  0  0  0  0  0
   58.2010   32.3160   46.1400 N   0  0  0  0  0  0  0  0  0  0  0  0
   58.6370   32.9200   47.2730 C   0  0  0  0  0  0  0  0  0  0  0  0
   61.7316   29.9996   47.4986 H   0  0  0  0  0  0  0  0  0  0  0  0
   60.5383   31.1023   46.7325 H   0  0  0  0  0  0  0  0  0  0  0  0
   62.2834   31.5278   46.7325 H   0  0  0  0  0  0  0  0  0  0  0  0
   60.3173   32.2821   48.6456 H   0  0  0  0  0  0  0  0  0  0  0  0
   61.3564   31.0515   49.4553 H   0  0  0  0  0  0  0  0  0  0  0  0
   64.4286   32.6577   48.3961 H   0  0  0  0  0  0  0  0  0  0  0  0
   63.3487   31.5960   47.3954 H   0  0  0  0  0  0  0  0  0  0  0  0
   63.4543   34.6386   47.1749 H   0  0  0  0  0  0  0  0  0  0  0  0
   64.3633   33.5093   46.1142 H   0  0  0  0  0  0  0  0  0  0  0  0
   62.5671   33.4921   46.1142 H   0  0  0  0  0  0  0  0  0  0  0  0
   62.4793   34.7907   49.4706 H   0  0  0  0  0  0  0  0  0  0  0  0
   61.7983   34.5216   47.7910 H   0  0  0  0  0  0  0  0  0  0  0  0
   60.0039   33.2762   49.5919 H   0  0  0  0  0  0  0  0  0  0  0  0
   60.3970   34.8949   50.2903 H   0  0  0  0  0  0  0  0  0  0  0  0
   59.2060   35.9160   48.5560 H   0  0  0  0  0  0  0  0  0  0  0  0
   59.2874   35.9853   45.8747 H   0  0  0  0  0  0  0  0  0  0  0  0
   58.4624   34.7668   43.8313 H   0  0  0  0  0  0  0  0  0  0  0  0
   57.5290   32.3550   42.9690 H   0  0  0  0  0  0  0  0  0  0  0  0
   55.9283   29.4843   44.2599 H   0  0  0  0  0  0  0  0  0  0  0  0
   56.9771   29.8913   42.8245 H   0  0  0  0  0  0  0  0  0  0  0  0
   59.6516   29.3773   43.6475 H   0  0  0  0  0  0  0  0  0  0  0  0
   59.1438   29.5787   45.3771 H   0  0  0  0  0  0  0  0  0  0  0  0
   59.5410   26.7743   44.5215 H   0  0  0  0  0  0  0  0  0  0  0  0
   61.0323   27.8340   44.5029 H   0  0  0  0  0  0  0  0  0  0  0  0
   60.9155   26.7058   46.6279 H   0  0  0  0  0  0  0  0  0  0  0  0
   60.5426   28.4688   46.8471 H   0  0  0  0  0  0  0  0  0  0  0  0
   58.6632   26.0884   46.9629 H   0  0  0  0  0  0  0  0  0  0  0  0
   58.9780   27.4107   48.1884 H   0  0  0  0  0  0  0  0  0  0  0  0
   56.8150   27.7852   47.2867 H   0  0  0  0  0  0  0  0  0  0  0  0
   57.9887   29.0076   46.5628 H   0  0  0  0  0  0  0  0  0  0  0  0
   57.4916   26.5727   44.9558 H   0  0  0  0  0  0  0  0  0  0  0  0
   56.1031   27.7256   45.1388 H   0  0  0  0  0  0  0  0  0  0  0  0
   57.6899   30.2687   46.7069 H   0  0  0  0  0  0  0  0  0  0  0  0
   58.6737   32.3703   48.2251 H   0  0  0  0  0  0  0  0  0  0  0  0
  1  2  1  0
  2  3  1  0
  3  4  1  0
  4  5  1  0
  3  6  1  0
  6  7  1  0
  7  8  1  0
  8  9  1  0
  9 10  1  0
 10 11  2  0
 11 12  1  0
 12 13  2  0
 13 14  1  0
 14 15  1  0
 15 16  1  0
 16 17  1  0
 17 18  1  0
 18 19  1  0
 19 20  1  0
 20 21  1  0
 21 22  1  0
 14 23  2  0
 23 24  1  0
 24 25  1  0
 25  9  2  0
 24 12  1  0
 22 16  1  0
  1 26  1  0
  1 27  1  0
  1 28  1  0
  2 29  1  0
  2 30  1  0
  4 31  1  0
  4 32  1  0
  5 33  1  0
  5 34  1  0
  5 35  1  0
  6 36  1  0
  6 37  1  0
  7 38  1  0
  7 39  1  0
  8 40  1  0
 10 41  1  0
 11 42  1  0
 13 43  1  0
 15 44  1  0
 15 45  1  0
 17 46  1  0
 17 47  1  0
 18 48  1  0
 18 49  1  0
 19 50  1  0
 19 51  1  0
 20 52  1  0
 20 53  1  0
 21 54  1  0
 21 55  1  0
 22 56  1  0
 22 57  1  0
 23 58  1  0
 25 59  1  0
M  CHG  1  13   1
M  END
>  <UniqueID>  (8) 
8

>  <SMILES>  (8) 
CCN(CC)CCNc1ccc2[nH+]c(CN3CCCCCC3)cn2c1

>  <Energy>  (8) 
98.94517250064186

>  <Genealogy>  (8) 
CCN(CC)CCNc1ccc2[nH+]c(CN3CCCCCC3)cn2c1 (protonated)
CCN(CC)CCNc1ccc2[nH+]c(CN3CCCCCC3)cn2c1 (3D coordinates assigned)
CCN(CC)CCNc1ccc2[nH+]c(CN3CCCCCC3)cn2c1 (nonaromatic ring conformer: 98.94517250064186 kcal/mol)

>  <smiles>  (8) 
CCN(CC)CCNc1ccc2nc(CN3CCCCCC3)cn2c1

>  <score_type>  (8) 
oracle

>  <origin>  (8) 
adg

>  <m_score__min__energy>  (8) 
-3.73

>  <m_primary>  (8) 
energy

$$$$
8:0
     RDKit          3D

 44 46  0  0  0  0  0  0  0  0999 V2000
   63.1010   34.1550   46.3820 C   0  0  0  0  0  0  0  0  0  0  0  0
   63.7450   33.4120   47.5550 C   0  0  0  0  0  0  0  0  0  0  0  0
   63.7780   31.9540   47.3480 N   0  0  0  0  0  0  0  0  0  0  0  0
   62.4340   31.3850   47.1500 C   0  0  0  0  0  0  0  0  0  0  0  0
   61.8250   30.8870   48.4740 C   0  0  0  0  0  0  0  0  0  0  0  0
   60.3960   31.1990   48.6070 N   0  0  0  0  0  0  0  0  0  0  0  0
   59.5160   31.2950   47.4730 C   0  0  0  0  0  0  0  0  0  0  0  0
   58.9160   30.1320   46.9620 C   0  0  0  0  0  0  0  0  0  0  0  0
   58.8760   28.9430   47.7220 C   0  0  0  0  0  0  0  0  0  0  0  0
   58.2590   27.7990   47.2220 C   0  0  0  0  0  0  0  0  0  0  0  0
   57.6570   27.8240   45.9690 C   0  0  0  0  0  0  0  0  0  0  0  0
   57.6800   28.9890   45.2030 C   0  0  0  0  0  0  0  0  0  0  0  0
   58.3300   30.1600   45.6730 C   0  0  0  0  0  0  0  0  0  0  0  0
   58.4000   31.3080   44.9110 N   0  0  0  0  0  0  0  0  0  0  0  0
   58.1100   31.2500   43.4610 C   0  0  0  0  0  0  0  0  0  0  0  0
   58.7430   32.5090   45.5040 C   0  0  0  0  0  0  0  0  0  0  0  0
   58.5320   33.7400   44.8370 C   0  0  0  0  0  0  0  0  0  0  0  0
   58.8960   34.9470   45.4200 C   0  0  0  0  0  0  0  0  0  0  0  0
   59.4390   34.9710   46.6950 C   0  0  0  0  0  0  0  0  0  0  0  0
   59.6290   33.7890   47.4100 C   0  0  0  0  0  0  0  0  0  0  0  0
   60.1570   34.0000   49.0820 Cl  0  0  0  0  0  0  0  0  0  0  0  0
   59.3080   32.5300   46.8170 C   0  0  0  0  0  0  0  0  0  0  0  0
   62.4262   34.9336   46.7672 H   0  0  0  0  0  0  0  0  0  0  0  0
   63.8857   34.6210   45.7679 H   0  0  0  0  0  0  0  0  0  0  0  0
   62.5283   33.4444   45.7679 H   0  0  0  0  0  0  0  0  0  0  0  0
   64.7762   33.7743   47.6789 H   0  0  0  0  0  0  0  0  0  0  0  0
   63.1372   33.6093   48.4504 H   0  0  0  0  0  0  0  0  0  0  0  0
   64.3850   31.7250   46.5260 H   0  0  0  0  0  0  0  0  0  0  0  0
   64.2140   31.5290   48.1960 H   0  0  0  0  0  0  0  0  0  0  0  0
   61.7783   32.1592   46.7250 H   0  0  0  0  0  0  0  0  0  0  0  0
   62.5226   30.5258   46.4689 H   0  0  0  0  0  0  0  0  0  0  0  0
   61.9511   29.7956   48.5281 H   0  0  0  0  0  0  0  0  0  0  0  0
   62.3500   31.4046   49.2904 H   0  0  0  0  0  0  0  0  0  0  0  0
   59.9520   30.9760   49.5260 H   0  0  0  0  0  0  0  0  0  0  0  0
   59.3374   28.9199   48.7203 H   0  0  0  0  0  0  0  0  0  0  0  0
   58.2479   26.8750   47.8188 H   0  0  0  0  0  0  0  0  0  0  0  0
   57.1611   26.9221   45.5808 H   0  0  0  0  0  0  0  0  0  0  0  0
   57.1870   29.0007   44.2197 H   0  0  0  0  0  0  0  0  0  0  0  0
   57.0417   31.0363   43.3090 H   0  0  0  0  0  0  0  0  0  0  0  0
   58.3602   32.2160   42.9981 H   0  0  0  0  0  0  0  0  0  0  0  0
   58.7125   30.4546   42.9981 H   0  0  0  0  0  0  0  0  0  0  0  0
   58.0711   33.7405   43.8382 H   0  0  0  0  0  0  0  0  0  0  0  0
   58.7528   35.8874   44.8677 H   0  0  0  0  0  0  0  0  0  0  0  0
   59.7230   35.9325   47.1476 H   0  0  0  0  0  0  0  0  0  0  0  0
  1  2  1  0
  2  3  1  0
  3  4  1  0
  4  5  1  0
  5  6  1  0
  6  7  1  0
  7  8  2  0
  8  9  1  0
  9 10  2  0
 10 11  1  0
 11 12  2  0
 12 13  1  0
 13 14  2  0
 14 15  1  0
 14 16  1  0
 16 17  2  0
 17 18  1  0
 18 19  2  0
 19 20  1  0
 20 21  1  0
 20 22  2  0
 22  7  1  0
 13  8  1  0
 22 16  1  0
  1 23  1  0
  1 24  1  0
  1 25  1  0
  2 26  1  0
  2 27  1  0
  3 28  1  0
  3 29  1  0
  4 30  1  0
  4 31  1  0
  5 32  1  0
  5 33  1  0
  6 34  1  0
  9 35  1  0
 10 36  1  0
 11 37  1  0
 12 38  1  0
 15 39  1  0
 15 40  1  0
 15 41  1  0
 17 42  1  0
 18 43  1  0
 19 44  1  0
M  CHG  2   3   1  14   1
M  END
>  <UniqueID>  (9) 
9

>  <SMILES>  (9) 
CC[NH2+]CCNc1c2ccccc2[n+](C)c2cccc(Cl)c12

>  <Energy>  (9) 
77.19997053651942

>  <Genealogy>  (9) 
CC[NH2+]CCNc1c2ccccc2[n+](C)c2cccc(Cl)c12 (protonated)
CC[NH2+]CCNc1c2ccccc2[n+](C)c2cccc(Cl)c12 (3D coordinates assigned)
CC[NH2+]CCNc1c2ccccc2[n+](C)c2cccc(Cl)c12 (optimized conformer: 77.19997053651942 kcal/mol)

>  <smiles>  (9) 
CCNCCNc1c2ccccc2[n+](C)c2cccc(Cl)c12

>  <score_type>  (9) 
oracle

>  <origin>  (9) 
adg

>  <m_score__min__energy>  (9) 
-4.6600000000000001

>  <m_primary>  (9) 
energy

$$$$
9:0
     RDKit          3D

 47 49  0  0  0  0  0  0  0  0999 V2000
   63.0950   31.0430   50.5410 C   0  0  0  0  0  0  0  0  0  0  0  0
   64.4790   31.5080   50.5280 N   0  0  0  0  0  0  0  0  0  0  0  0
   65.4970   30.9670   51.2260 C   0  0  0  0  0  0  0  0  0  0  0  0
   66.6570   31.6800   50.9930 C   0  0  0  0  0  0  0  0  0  0  0  0
   66.3280   32.7010   50.1230 C   0  0  0  0  0  0  0  0  0  0  0  0
   64.9760   32.5760   49.8690 C   0  0  0  0  0  0  0  0  0  0  0  0
   64.1940   33.4460   48.9220 C   0  0  0  0  0  0  0  0  0  0  0  0
   63.9240   32.7260   47.6670 N   0  0  0  0  0  0  0  0  0  0  0  0
   63.1170   33.5300   46.7270 C   0  0  0  0  0  0  0  0  0  0  0  0
   61.5920   33.4020   46.9750 C   0  0  0  0  0  0  0  0  0  0  0  0
   61.1320   34.2190   48.2100 C   0  0  0  0  0  0  0  0  0  0  0  0
   59.9920   33.5410   48.9940 C   0  0  0  0  0  0  0  0  0  0  0  0
   59.0390   32.8440   48.1080 N   0  0  0  0  0  0  0  0  0  0  0  0
   58.2400   33.7800   47.2880 C   0  0  0  0  0  0  0  0  0  0  0  0
   58.3090   33.3630   45.8120 C   0  0  0  0  0  0  0  0  0  0  0  0
   57.3960   34.1340   44.8710 C   0  0  0  0  0  0  0  0  0  0  0  0
   58.8930   34.4030   44.8690 C   0  0  0  0  0  0  0  0  0  0  0  0
   59.6750   31.7630   47.3060 C   0  0  0  0  0  0  0  0  0  0  0  0
   61.2000   31.9230   47.1280 C   0  0  0  0  0  0  0  0  0  0  0  0
   62.7562   30.9292   51.5813 H   0  0  0  0  0  0  0  0  0  0  0  0
   62.4570   31.7761   50.0257 H   0  0  0  0  0  0  0  0  0  0  0  0
   63.0291   30.0734   50.0257 H   0  0  0  0  0  0  0  0  0  0  0  0
   65.4163   30.0886   51.8833 H   0  0  0  0  0  0  0  0  0  0  0  0
   67.6505   31.4744   51.4181 H   0  0  0  0  0  0  0  0  0  0  0  0
   67.0078   33.4627   49.7136 H   0  0  0  0  0  0  0  0  0  0  0  0
   63.2395   33.7260   49.3916 H   0  0  0  0  0  0  0  0  0  0  0  0
   64.7834   34.3470   48.6964 H   0  0  0  0  0  0  0  0  0  0  0  0
   64.8410   32.5160   47.2080 H   0  0  0  0  0  0  0  0  0  0  0  0
   63.4560   31.8120   47.8680 H   0  0  0  0  0  0  0  0  0  0  0  0
   63.4023   34.5868   46.8353 H   0  0  0  0  0  0  0  0  0  0  0  0
   63.3185   33.1520   45.7138 H   0  0  0  0  0  0  0  0  0  0  0  0
   61.0773   33.8218   46.0982 H   0  0  0  0  0  0  0  0  0  0  0  0
   61.9916   34.3482   48.8840 H   0  0  0  0  0  0  0  0  0  0  0  0
   60.7486   35.1819   47.8415 H   0  0  0  0  0  0  0  0  0  0  0  0
   60.4280   32.8091   49.6899 H   0  0  0  0  0  0  0  0  0  0  0  0
   59.4395   34.3264   49.5305 H   0  0  0  0  0  0  0  0  0  0  0  0
   57.1932   33.7596   47.6252 H   0  0  0  0  0  0  0  0  0  0  0  0
   58.6438   34.7972   47.3985 H   0  0  0  0  0  0  0  0  0  0  0  0
   58.4990   32.2985   46.0140 H   0  0  0  0  0  0  0  0  0  0  0  0
   56.9279   33.6225   44.0170 H   0  0  0  0  0  0  0  0  0  0  0  0
   56.4947   34.7523   44.9947 H   0  0  0  0  0  0  0  0  0  0  0  0
   59.5076   34.0862   44.0135 H   0  0  0  0  0  0  0  0  0  0  0  0
   59.5228   35.2966   44.9906 H   0  0  0  0  0  0  0  0  0  0  0  0
   59.4849   30.8030   47.8083 H   0  0  0  0  0  0  0  0  0  0  0  0
   59.2318   31.8121   46.3004 H   0  0  0  0  0  0  0  0  0  0  0  0
   61.7094   31.5065   48.0095 H   0  0  0  0  0  0  0  0  0  0  0  0
   61.5013   31.3875   46.2156 H   0  0  0  0  0  0  0  0  0  0  0  0
  1  2  1  0
  2  3  1  0
  3  4  2  0
  4  5  1  0
  5  6  2  0
  6  7  1  0
  7  8  1  0
  8  9  1  0
  9 10  1  0
 10 11  1  0
 11 12  1  0
 12 13  1  0
 13 14  1  0
 14 15  1  0
 15 16  1  0
 16 17  1  0
 13 18  1  0
 18 19  1  0
  6  2  1  0
 19 10  1  0
 17 15  1  0
  1 20  1  0
  1 21  1  0
  1 22  1  0
  3 23  1  0
  4 24  1  0
  5 25  1  0
  7 26  1  0
  7 27  1  0
  8 28  1  0
  8 29  1  0
  9 30  1  0
  9 31  1  0
 10 32  1  0
 11 33  1  0
 11 34  1  0
 12 35  1  0
 12 36  1  0
 14 37  1  0
 14 38  1  0
 15 39  1  0
 16 40  1  0
 16 41  1  0
 17 42  1  0
 17 43  1  0
 18 44  1  0
 18 45  1  0
 19 46  1  0
 19 47  1  0
M  CHG  1   8   1
M  END
>  <UniqueID>  (10) 
10

>  <SMILES>  (10) 
Cn1cccc1C[NH2+]CC1CCN(CC2CC2)CC1

>  <Energy>  (10) 
341.8496994374587

>  <Genealogy>  (10) 
Cn1cccc1C[NH2+]CC1CCN(CC2CC2)CC1 (protonated)
Cn1cccc1C[NH2+]CC1CCN(CC2CC2)CC1 (3D coordinates assigned)
Cn1cccc1C[NH2+]CC1CCN(CC2CC2)CC1 (nonaromatic ring conformer: 341.8496994374587 kcal/mol)

>  <smiles>  (10) 
Cn1cccc1CNCC1CCN(CC2CC2)CC1

>  <score_type>  (10) 
oracle

>  <origin>  (10) 
adg

>  <m_score__min__energy>  (10) 
-5.6600000000000001

>  <m_primary>  (10) 
energy

$$$$
10:0
     RDKit          3D

 53 55  0  0  0  0  0  0  0  0999 V2000
   64.8330   32.3660   50.2530 C   0  0  0  0  0  0  0  0  0  0  0  0
   63.3240   32.3470   50.5300 C   0  0  0  0  0  0  0  0  0  0  0  0
   62.4810   32.5200   49.3210 N   0  0  0  0  0  0  0  0  0  0  0  0
   61.8290   33.8470   49.2240 C   0  0  0  0  0  0  0  0  0  0  0  0
   60.3910   33.8110   49.7380 C   0  0  0  0  0  0  0  0  0  0  0  0
   63.2120   32.1790   48.0790 C   0  0  0  0  0  0  0  0  0  0  0  0
   62.3060   31.3620   47.1400 C   0  0  0  0  0  0  0  0  0  0  0  0
   60.9190   31.2610   47.6120 N   0  0  0  0  0  0  0  0  0  0  0  0
   59.7800   31.1280   46.7450 C   0  0  0  0  0  0  0  0  0  0  0  0
   59.2760   32.2780   46.1100 C   0  0  0  0  0  0  0  0  0  0  0  0
   59.7570   33.5620   46.4480 C   0  0  0  0  0  0  0  0  0  0  0  0
   59.2450   34.7010   45.8320 C   0  0  0  0  0  0  0  0  0  0  0  0
   58.2370   34.5840   44.8820 C   0  0  0  0  0  0  0  0  0  0  0  0
   57.7470   33.3260   44.5330 C   0  0  0  0  0  0  0  0  0  0  0  0
   58.2740   32.1470   45.1190 C   0  0  0  0  0  0  0  0  0  0  0  0
   57.8260   30.8950   44.7560 N   0  0  0  0  0  0  0  0  0  0  0  0
   57.0350   30.7280   43.5160 C   0  0  0  0  0  0  0  0  0  0  0  0
   58.1250   29.7980   45.5420 C   0  0  0  0  0  0  0  0  0  0  0  0
   57.4070   28.5860   45.3910 C   0  0  0  0  0  0  0  0  0  0  0  0
   57.7120   27.4670   46.1510 C   0  0  0  0  0  0  0  0  0  0  0  0
   58.7320   27.5170   47.0840 C   0  0  0  0  0  0  0  0  0  0  0  0
   59.4630   28.6910   47.2900 C   0  0  0  0  0  0  0  0  0  0  0  0
   60.7150   28.5840   48.5880 S   0  0  0  0  0  0  0  0  0  0  0  0
   59.6810   29.3880   49.8530 C   0  0  0  0  0  0  0  0  0  0  0  0
   59.1490   29.8730   46.5390 C   0  0  0  0  0  0  0  0  0  0  0  0
   65.3808   32.3729   51.2069 H   0  0  0  0  0  0  0  0  0  0  0  0
   65.1113   31.4713   49.6768 H   0  0  0  0  0  0  0  0  0  0  0  0
   65.0887   33.2674   49.6768 H   0  0  0  0  0  0  0  0  0  0  0  0
   63.0703   31.3815   50.9921 H   0  0  0  0  0  0  0  0  0  0  0  0
   63.1127   33.2031   51.1876 H   0  0  0  0  0  0  0  0  0  0  0  0
   62.4029   34.5703   49.8219 H   0  0  0  0  0  0  0  0  0  0  0  0
   61.8062   34.1403   48.1641 H   0  0  0  0  0  0  0  0  0  0  0  0
   60.3947   33.8111   50.8380 H   0  0  0  0  0  0  0  0  0  0  0  0
   59.8489   34.6959   49.3731 H   0  0  0  0  0  0  0  0  0  0  0  0
   59.8939   32.9001   49.3731 H   0  0  0  0  0  0  0  0  0  0  0  0
   63.5203   33.1053   47.5722 H   0  0  0  0  0  0  0  0  0  0  0  0
   64.0984   31.5802   48.3355 H   0  0  0  0  0  0  0  0  0  0  0  0
   62.3038   31.8436   46.1510 H   0  0  0  0  0  0  0  0  0  0  0  0
   62.7124   30.3405   47.1034 H   0  0  0  0  0  0  0  0  0  0  0  0
   60.7360   31.4680   48.6200 H   0  0  0  0  0  0  0  0  0  0  0  0
   60.5461   33.6637   47.2075 H   0  0  0  0  0  0  0  0  0  0  0  0
   59.6382   35.6935   46.0972 H   0  0  0  0  0  0  0  0  0  0  0  0
   57.8251   35.4854   44.4047 H   0  0  0  0  0  0  0  0  0  0  0  0
   56.9386   33.2469   43.7912 H   0  0  0  0  0  0  0  0  0  0  0  0
   55.9890   30.5072   43.7753 H   0  0  0  0  0  0  0  0  0  0  0  0
   57.0785   31.6551   42.9256 H   0  0  0  0  0  0  0  0  0  0  0  0
   57.4496   29.8976   42.9256 H   0  0  0  0  0  0  0  0  0  0  0  0
   56.5907   28.5315   44.6557 H   0  0  0  0  0  0  0  0  0  0  0  0
   57.1413   26.5370   46.0116 H   0  0  0  0  0  0  0  0  0  0  0  0
   58.9717   26.6194   47.6729 H   0  0  0  0  0  0  0  0  0  0  0  0
   60.0416   29.1076   50.8537 H   0  0  0  0  0  0  0  0  0  0  0  0
   59.7397   30.4800   49.7347 H   0  0  0  0  0  0  0  0  0  0  0  0
   58.6371   29.0620   49.7347 H   0  0  0  0  0  0  0  0  0  0  0  0
  1  2  1  0
  2  3  1  0
  3  4  1  0
  4  5  1  0
  3  6  1  0
  6  7  1  0
  7  8  1  0
  8  9  1  0
  9 10  2  0
 10 11  1  0
 11 12  2  0
 12 13  1  0
 13 14  2  0
 14 15  1  0
 15 16  2  0
 16 17  1  0
 16 18  1  0
 18 19  2  0
 19 20  1  0
 20 21  2  0
 21 22  1  0
 22 23  1  0
 23 24  1  0
 22 25  2  0
 25  9  1  0
 15 10  1  0
 25 18  1  0
  1 26  1  0
  1 27  1  0
  1 28  1  0
  2 29  1  0
  2 30  1  0
  4 31  1  0
  4 32  1  0
  5 33  1  0
  5 34  1  0
  5 35  1  0
  6 36  1  0
  6 37  1  0
  7 38  1  0
  7 39  1  0
  8 40  1  0
 11 41  1  0
 12 42  1  0
 13 43  1  0
 14 44  1  0
 17 45  1  0
 17 46  1  0
 17 47  1  0
 19 48  1  0
 20 49  1  0
 21 50  1  0
 24 51  1  0
 24 52  1  0
 24 53  1  0
M  CHG  1  16   1
M  END
>  <UniqueID>  (11) 
11

>  <SMILES>  (11) 
CCN(CC)CCNc1c2ccccc2[n+](C)c2cccc(SC)c12

>  <Energy>  (11) 
85.92606139085845

>  <Genealogy>  (11) 
CCN(CC)CCNc1c2ccccc2[n+](C)c2cccc(SC)c12 (3D coordinates assigned)
CCN(CC)CCNc1c2ccccc2[n+](C)c2cccc(SC)c12 (optimized conformer: 85.92606139085845 kcal/mol)

>  <smiles>  (11) 
CCN(CC)CCNc1c2ccccc2[n+](C)c2cccc(SC)c12

>  <score_type>  (11) 
oracle

>  <origin>  (11) 
adg

>  <m_score__min__energy>  (11) 
-5.79

>  <m_primary>  (11) 
energy

$$$$
11:0
     RDKit          3D

 49 51  0  0  0  0  0  0  0  0999 V2000
   58.5280   26.6470   44.8800 C   0  0  0  0  0  0  0  0  0  0  0  0
   57.3990   27.2580   44.1740 N   0  0  0  0  0  0  0  0  0  0  0  0
   57.5440   28.6930   44.1610 C   0  0  0  0  0  0  0  0  0  0  0  0
   56.5460   29.4990   43.5900 C   0  0  0  0  0  0  0  0  0  0  0  0
   56.7230   30.8820   43.4940 C   0  0  0  0  0  0  0  0  0  0  0  0
   57.9110   31.4800   43.9450 C   0  0  0  0  0  0  0  0  0  0  0  0
   58.1480   32.9620   43.7590 C   0  0  0  0  0  0  0  0  0  0  0  0
   57.9220   33.7540   44.9910 N   0  0  0  0  0  0  0  0  0  0  0  0
   57.5930   32.9760   46.2060 C   0  0  0  0  0  0  0  0  0  0  0  0
   58.8340   32.6220   47.0490 C   0  0  0  0  0  0  0  0  0  0  0  0
   59.8380   33.6900   47.0140 N   0  0  0  0  0  0  0  0  0  0  0  0
   61.1850   33.4290   47.4660 C   0  0  0  0  0  0  0  0  0  0  0  0
   62.2660   33.6630   46.5980 C   0  0  0  0  0  0  0  0  0  0  0  0
   63.5790   33.4450   47.0200 C   0  0  0  0  0  0  0  0  0  0  0  0
   63.8300   32.9910   48.3130 C   0  0  0  0  0  0  0  0  0  0  0  0
   62.7710   32.7580   49.1910 C   0  0  0  0  0  0  0  0  0  0  0  0
   61.4400   32.9820   48.7830 C   0  0  0  0  0  0  0  0  0  0  0  0
   60.3630   32.7900   49.6630 O   0  0  0  0  0  0  0  0  0  0  0  0
   59.6610   33.8340   50.3280 C   0  0  0  0  0  0  0  0  0  0  0  0
   59.4150   35.0210   46.5770 C   0  0  0  0  0  0  0  0  0  0  0  0
   58.8130   34.9270   45.1700 C   0  0  0  0  0  0  0  0  0  0  0  0
   58.8830   30.6800   44.5690 C   0  0  0  0  0  0  0  0  0  0  0  0
   58.7090   29.2970   44.6600 C   0  0  0  0  0  0  0  0  0  0  0  0
   58.3710   26.7320   45.9654 H   0  0  0  0  0  0  0  0  0  0  0  0
   58.6028   25.5853   44.6023 H   0  0  0  0  0  0  0  0  0  0  0  0
   59.4578   27.1650   44.6023 H   0  0  0  0  0  0  0  0  0  0  0  0
   56.5070   26.9880   44.6500 H   0  0  0  0  0  0  0  0  0  0  0  0
   57.3670   26.8920   43.1940 H   0  0  0  0  0  0  0  0  0  0  0  0
   55.6194   29.0391   43.2160 H   0  0  0  0  0  0  0  0  0  0  0  0
   55.9267   31.5062   43.0624 H   0  0  0  0  0  0  0  0  0  0  0  0
   59.1887   33.1106   43.4351 H   0  0  0  0  0  0  0  0  0  0  0  0
   57.4244   33.3147   43.0093 H   0  0  0  0  0  0  0  0  0  0  0  0
   56.9053   33.5693   46.8266 H   0  0  0  0  0  0  0  0  0  0  0  0
   57.1376   32.0301   45.8777 H   0  0  0  0  0  0  0  0  0  0  0  0
   58.5222   32.4603   48.0914 H   0  0  0  0  0  0  0  0  0  0  0  0
   59.2867   31.7128   46.6265 H   0  0  0  0  0  0  0  0  0  0  0  0
   62.0754   34.0216   45.5757 H   0  0  0  0  0  0  0  0  0  0  0  0
   64.4159   33.6319   46.3310 H   0  0  0  0  0  0  0  0  0  0  0  0
   64.8649   32.8159   48.6422 H   0  0  0  0  0  0  0  0  0  0  0  0
   62.9760   32.3967   50.2095 H   0  0  0  0  0  0  0  0  0  0  0  0
   59.7506   33.7008   51.4162 H   0  0  0  0  0  0  0  0  0  0  0  0
   60.0902   34.8053   50.0409 H   0  0  0  0  0  0  0  0  0  0  0  0
   58.5996   33.8029   50.0409 H   0  0  0  0  0  0  0  0  0  0  0  0
   58.6598   35.4134   47.2739 H   0  0  0  0  0  0  0  0  0  0  0  0
   60.2834   35.6960   46.5610 H   0  0  0  0  0  0  0  0  0  0  0  0
   58.2311   35.8403   44.9773 H   0  0  0  0  0  0  0  0  0  0  0  0
   59.6491   34.8123   44.4644 H   0  0  0  0  0  0  0  0  0  0  0  0
   59.7869   31.1458   44.9886 H   0  0  0  0  0  0  0  0  0  0  0  0
   59.4896   28.6773   45.1255 H   0  0  0  0  0  0  0  0  0  0  0  0
  1  2  1  0
  2  3  1  0
  3  4  2  0
  4  5  1  0
  5  6  2  0
  6  7  1  0
  7  8  1  0
  8  9  1  0
  9 10  1  0
 10 11  1  0
 11 12  1  0
 12 13  2  0
 13 14  1  0
 14 15  2  0
 15 16  1  0
 16 17  2  0
 17 18  1  0
 18 19  1  0
 11 20  1  0
 20 21  1  0
  6 22  1  0
 22 23  2  0
 23  3  1  0
 21  8  1  0
 17 12  1  0
  1 24  1  0
  1 25  1  0
  1 26  1  0
  2 27  1  0
  2 28  1  0
  4 29  1  0
  5 30  1  0
  7 31  1  0
  7 32  1  0
  9 33  1  0
  9 34  1  0
 10 35  1  0
 10 36  1  0
 13 37  1  0
 14 38  1  0
 15 39  1  0
 16 40  1  0
 19 41  1  0
 19 42  1  0
 19 43  1  0
 20 44  1  0
 20 45  1  0
 21 46  1  0
 21 47  1  0
 22 48  1  0
 23 49  1  0
M  CHG  1   2   1
M  END
>  <UniqueID>  (12) 
12

>  <SMILES>  (12) 
C[NH2+]c1ccc(CN2CCN(c3ccccc3OC)CC2)cc1

>  <Energy>  (12) 
62.11984887914647

>  <Genealogy>  (12) 
C[NH2+]c1ccc(CN2CCN(c3ccccc3OC)CC2)cc1 (protonated)
C[NH2+]c1ccc(CN2CCN(c3ccccc3OC)CC2)cc1 (3D coordinates assigned)
C[NH2+]c1ccc(CN2CCN(c3ccccc3OC)CC2)cc1 (nonaromatic ring conformer: 62.11984887914647 kcal/mol)

>  <smiles>  (12) 
CNc1ccc(CN2CCN(c3ccccc3OC)CC2)cc1

>  <score_type>  (12) 
oracle

>  <origin>  (12) 
adg

>  <m_score__min__energy>  (12) 
-6.6600000000000001

>  <m_primary>  (12) 
energy

$$$$
12:0
     RDKit          3D

 37 40  0  0  0  0  0  0  0  0999 V2000
   61.2390   30.1320   46.4460 C   0  0  0  0  0  0  0  0  0  0  0  0
   60.1860   30.0410   47.4550 N   0  0  0  0  0  0  0  0  0  0  0  0
   59.8000   28.9490   48.1430 C   0  0  0  0  0  0  0  0  0  0  0  0
   60.4780   27.3000   47.9280 S   0  0  0  0  0  0  0  0  0  0  0  0
   60.0730   27.1750   46.1470 C   0  0  0  0  0  0  0  0  0  0  0  0
   58.5870   27.3460   45.9020 C   0  0  0  0  0  0  0  0  0  0  0  0
   57.7310   26.3510   46.3950 C   0  0  0  0  0  0  0  0  0  0  0  0
   56.3520   26.4790   46.2330 C   0  0  0  0  0  0  0  0  0  0  0  0
   55.5820   25.5850   46.6710 O   0  0  0  0  0  0  0  0  0  0  0  0
   55.8440   27.5420   45.6230 O   0  0  0  0  0  0  0  0  0  0  0  0
   56.5980   28.5230   45.1410 C   0  0  0  0  0  0  0  0  0  0  0  0
   55.9780   29.6150   44.5240 C   0  0  0  0  0  0  0  0  0  0  0  0
   56.7440   30.6660   44.0180 C   0  0  0  0  0  0  0  0  0  0  0  0
   58.1340   30.6290   44.1190 C   0  0  0  0  0  0  0  0  0  0  0  0
   58.7690   29.5400   44.7230 C   0  0  0  0  0  0  0  0  0  0  0  0
   58.0120   28.4710   45.2520 C   0  0  0  0  0  0  0  0  0  0  0  0
   58.8050   29.2270   49.0030 N   0  0  0  0  0  0  0  0  0  0  0  0
   58.5250   30.5140   48.8620 N   0  0  0  0  0  0  0  0  0  0  0  0
   59.3480   31.0010   47.9120 C   0  0  0  0  0  0  0  0  0  0  0  0
   59.2760   32.3970   47.4470 C   0  0  0  0  0  0  0  0  0  0  0  0
   60.2730   33.3680   47.5200 C   0  0  0  0  0  0  0  0  0  0  0  0
   59.9130   34.5790   46.9150 C   0  0  0  0  0  0  0  0  0  0  0  0
   58.6450   34.5680   46.3500 C   0  0  0  0  0  0  0  0  0  0  0  0
   57.9760   33.0460   46.5990 S   0  0  0  0  0  0  0  0  0  0  0  0
   62.2167   30.2165   46.9430 H   0  0  0  0  0  0  0  0  0  0  0  0
   61.2238   29.2292   45.8177 H   0  0  0  0  0  0  0  0  0  0  0  0
   61.0692   31.0188   45.8177 H   0  0  0  0  0  0  0  0  0  0  0  0
   60.6179   27.9589   45.6006 H   0  0  0  0  0  0  0  0  0  0  0  0
   60.3680   26.1754   45.7953 H   0  0  0  0  0  0  0  0  0  0  0  0
   58.1464   25.4713   46.9085 H   0  0  0  0  0  0  0  0  0  0  0  0
   54.8818   29.6452   44.4374 H   0  0  0  0  0  0  0  0  0  0  0  0
   56.2506   31.5245   43.5390 H   0  0  0  0  0  0  0  0  0  0  0  0
   58.7340   31.4609   43.7214 H   0  0  0  0  0  0  0  0  0  0  0  0
   59.8669   29.5152   44.7869 H   0  0  0  0  0  0  0  0  0  0  0  0
   61.2461   33.2001   48.0046 H   0  0  0  0  0  0  0  0  0  0  0  0
   60.5742   35.4578   46.8899 H   0  0  0  0  0  0  0  0  0  0  0  0
   58.1622   35.4086   45.8301 H   0  0  0  0  0  0  0  0  0  0  0  0
  1  2  1  0
  2  3  1  0
  3  4  1  0
  4  5  1  0
  5  6  1  0
  6  7  2  0
  7  8  1  0
  8  9  2  0
  8 10  1  0
 10 11  1  0
 11 12  2  0
 12 13  1  0
 13 14  2  0
 14 15  1  0
 15 16  2  0
  3 17  2  0
 17 18  1  0
 18 19  2  0
 19 20  1  0
 20 21  2  0
 21 22  1  0
 22 23  2  0
 23 24  1  0
 19  2  1  0
 24 20  1  0
 16  6  1  0
 16 11  1  0
  1 25  1  0
  1 26  1  0
  1 27  1  0
  5 28  1  0
  5 29  1  0
  7 30  1  0
 12 31  1  0
 13 32  1  0
 14 33  1  0
 15 34  1  0
 21 35  1  0
 22 36  1  0
 23 37  1  0
M  END
>  <UniqueID>  (13) 
13

>  <SMILES>  (13) 
Cn1c(SCc2cc(=O)oc3ccccc23)nnc1-c1cccs1

>  <Energy>  (13) 
105.93650801029345

>  <Genealogy>  (13) 
Cn1c(SCc2cc(=O)oc3ccccc23)nnc1-c1cccs1 (3D coordinates assigned)
Cn1c(SCc2cc(=O)oc3ccccc23)nnc1-c1cccs1 (optimized conformer: 105.93650801029345 kcal/mol)

>  <smiles>  (13) 
Cn1c(SCc2cc(=O)oc3ccccc23)nnc1-c1cccs1

>  <score_type>  (13) 
oracle

>  <origin>  (13) 
adg

>  <m_score__min__energy>  (13) 
-8.5399999999999991

>  <m_primary>  (13) 
energy

$$$$
13:0
     RDKit          3D

 79 82  0  0  0  0  0  0  0  0999 V2000
   63.1090   33.8510   46.3970 C   0  0  0  0  0  0  0  0  0  0  0  0
   63.4210   32.7040   47.3670 C   0  0  0  0  0  0  0  0  0  0  0  0
   62.4520   32.5930   48.4890 N   0  0  0  0  0  0  0  0  0  0  0  0
   61.9810   33.9090   49.0090 C   0  0  0  0  0  0  0  0  0  0  0  0
   60.6220   33.8860   49.7230 C   0  0  0  0  0  0  0  0  0  0  0  0
   62.8340   31.5670   49.4940 C   0  0  0  0  0  0  0  0  0  0  0  0
   61.7530   30.4720   49.6530 C   0  0  0  0  0  0  0  0  0  0  0  0
   60.4970   30.6660   48.7720 C   0  0  0  0  0  0  0  0  0  0  0  0
   60.7080   30.5910   47.3070 N   0  0  0  0  0  0  0  0  0  0  0  0
   59.5400   30.7810   46.4550 C   0  0  0  0  0  0  0  0  0  0  0  0
   59.1250   32.0560   46.0000 C   0  0  0  0  0  0  0  0  0  0  0  0
   59.4900   33.2380   46.6700 C   0  0  0  0  0  0  0  0  0  0  0  0
   59.1840   34.4850   46.1280 C   0  0  0  0  0  0  0  0  0  0  0  0
   58.5440   34.5720   44.8970 C   0  0  0  0  0  0  0  0  0  0  0  0
   58.0820   33.4150   44.2700 C   0  0  0  0  0  0  0  0  0  0  0  0
   58.3170   32.1370   44.8410 C   0  0  0  0  0  0  0  0  0  0  0  0
   57.7550   30.9890   44.3120 N   0  0  0  0  0  0  0  0  0  0  0  0
   57.0870   31.0220   42.9900 C   0  0  0  0  0  0  0  0  0  0  0  0
   57.7630   29.8300   45.0620 C   0  0  0  0  0  0  0  0  0  0  0  0
   56.8090   28.8030   44.8550 C   0  0  0  0  0  0  0  0  0  0  0  0
   56.7730   27.6690   45.6820 C   0  0  0  0  0  0  0  0  0  0  0  0
   55.7620   26.6960   45.6220 O   0  0  0  0  0  0  0  0  0  0  0  0
   55.8680   25.3300   46.0230 C   0  0  0  0  0  0  0  0  0  0  0  0
   55.6480   24.4030   44.8120 C   0  0  0  0  0  0  0  0  0  0  0  0
   56.8900   24.1500   44.0180 N   0  0  0  0  0  0  0  0  0  0  0  0
   57.4210   25.3820   43.7260 O   0  0  0  0  0  0  0  0  0  0  0  0
   56.5480   23.4780   42.7250 C   0  0  0  0  0  0  0  0  0  0  0  0
   56.6320   21.9350   42.7930 C   0  0  0  0  0  0  0  0  0  0  0  0
   56.3440   21.4730   44.1590 N   0  0  0  0  0  0  0  0  0  0  0  0
   56.2120   20.0080   44.1980 C   0  0  0  0  0  0  0  0  0  0  0  0
   57.3880   21.9250   45.1040 C   0  0  0  0  0  0  0  0  0  0  0  0
   57.8960   23.3490   44.7780 C   0  0  0  0  0  0  0  0  0  0  0  0
   57.7540   27.5090   46.6550 C   0  0  0  0  0  0  0  0  0  0  0  0
   58.6930   28.5030   46.8950 C   0  0  0  0  0  0  0  0  0  0  0  0
   58.6940   29.6930   46.1280 C   0  0  0  0  0  0  0  0  0  0  0  0
   62.8623   34.7578   46.9687 H   0  0  0  0  0  0  0  0  0  0  0  0
   63.9871   34.0445   45.7634 H   0  0  0  0  0  0  0  0  0  0  0  0
   62.2538   33.5730   45.7634 H   0  0  0  0  0  0  0  0  0  0  0  0
   63.4102   31.7594   46.8035 H   0  0  0  0  0  0  0  0  0  0  0  0
   64.4052   32.9154   47.8105 H   0  0  0  0  0  0  0  0  0  0  0  0
   62.7323   34.2813   49.7210 H   0  0  0  0  0  0  0  0  0  0  0  0
   61.8498   34.5541   48.1277 H   0  0  0  0  0  0  0  0  0  0  0  0
   60.7797   33.8887   50.8116 H   0  0  0  0  0  0  0  0  0  0  0  0
   60.0411   34.7744   49.4345 H   0  0  0  0  0  0  0  0  0  0  0  0
   60.0715   32.9784   49.4345 H   0  0  0  0  0  0  0  0  0  0  0  0
   63.7742   31.0928   49.1760 H   0  0  0  0  0  0  0  0  0  0  0  0
   62.9478   32.0718   50.4647 H   0  0  0  0  0  0  0  0  0  0  0  0
   62.2063   29.5038   49.3938 H   0  0  0  0  0  0  0  0  0  0  0  0
   61.4097   30.5258   50.6967 H   0  0  0  0  0  0  0  0  0  0  0  0
   59.7706   29.8870   49.0469 H   0  0  0  0  0  0  0  0  0  0  0  0
   60.1553   31.6930   48.9682 H   0  0  0  0  0  0  0  0  0  0  0  0
   61.4080   31.3400   47.1070 H   0  0  0  0  0  0  0  0  0  0  0  0
   61.1460   29.6680   47.0710 H   0  0  0  0  0  0  0  0  0  0  0  0
   60.0220   33.1774   47.6309 H   0  0  0  0  0  0  0  0  0  0  0  0
   59.4493   35.4017   46.6751 H   0  0  0  0  0  0  0  0  0  0  0  0
   58.4021   35.5521   44.4181 H   0  0  0  0  0  0  0  0  0  0  0  0
   57.5292   33.4938   43.3222 H   0  0  0  0  0  0  0  0  0  0  0  0
   55.9974   31.0758   43.1310 H   0  0  0  0  0  0  0  0  0  0  0  0
   57.4281   31.9044   42.4287 H   0  0  0  0  0  0  0  0  0  0  0  0
   57.3395   30.1103   42.4287 H   0  0  0  0  0  0  0  0  0  0  0  0
   56.0844   28.8957   44.0326 H   0  0  0  0  0  0  0  0  0  0  0  0
   56.8694   25.1504   46.4412 H   0  0  0  0  0  0  0  0  0  0  0  0
   55.1011   25.1176   46.7824 H   0  0  0  0  0  0  0  0  0  0  0  0
   55.2663   23.4382   45.1774 H   0  0  0  0  0  0  0  0  0  0  0  0
   54.9355   24.9089   44.1438 H   0  0  0  0  0  0  0  0  0  0  0  0
   56.6980   26.0670   43.7500 H   0  0  0  0  0  0  0  0  0  0  0  0
   55.5216   23.7593   42.4468 H   0  0  0  0  0  0  0  0  0  0  0  0
   57.2868   23.8107   41.9810 H   0  0  0  0  0  0  0  0  0  0  0  0
   55.8976   21.4997   42.0993 H   0  0  0  0  0  0  0  0  0  0  0  0
   57.6468   21.6169   42.5118 H   0  0  0  0  0  0  0  0  0  0  0  0
   56.1816   19.6703   45.2444 H   0  0  0  0  0  0  0  0  0  0  0  0
   55.2834   19.7098   43.6894 H   0  0  0  0  0  0  0  0  0  0  0  0
   57.0724   19.5487   43.6894 H   0  0  0  0  0  0  0  0  0  0  0  0
   56.9696   21.9226   46.1213 H   0  0  0  0  0  0  0  0  0  0  0  0
   58.2407   21.2353   45.0195 H   0  0  0  0  0  0  0  0  0  0  0  0
   58.1222   23.8683   45.7209 H   0  0  0  0  0  0  0  0  0  0  0  0
   58.7926   23.2503   44.1483 H   0  0  0  0  0  0  0  0  0  0  0  0
   57.7863   26.5803   47.2436 H   0  0  0  0  0  0  0  0  0  0  0  0
   59.4427   28.3648   47.6880 H   0  0  0  0  0  0  0  0  0  0  0  0
  1  2  1  0
  2  3  1  0
  3  4  1  0
  4  5  1  0
  3  6  1  0
  6  7  1  0
  7  8  1  0
  8  9  1  0
  9 10  1  0
 10 11  2  0
 11 12  1  0
 12 13  2  0
 13 14  1  0
 14 15  2  0
 15 16  1  0
 16 17  2  0
 17 18  1  0
 17 19  1  0
 19 20  2  0
 20 21  1  0
 21 22  1  0
 22 23  1  0
 23 24  1  0
 24 25  1  0
 25 26  1  0
 25 27  1  0
 27 28  1  0
 28 29  1  0
 29 30  1  0
 29 31  1  0
 31 32  1  0
 21 33  2  0
 33 34  1  0
 34 35  2  0
 35 10  1  0
 16 11  1  0
 35 19  1  0
 32 25  1  0
  1 36  1  0
  1 37  1  0
  1 38  1  0
  2 39  1  0
  2 40  1  0
  4 41  1  0
  4 42  1  0
  5 43  1  0
  5 44  1  0
  5 45  1  0
  6 46  1  0
  6 47  1  0
  7 48  1  0
  7 49  1  0
  8 50  1  0
  8 51  1  0
  9 52  1  0
  9 53  1  0
 12 54  1  0
 13 55  1  0
 14 56  1  0
 15 57  1  0
 18 58  1  0
 18 59  1  0
 18 60  1  0
 20 61  1  0
 23 62  1  0
 23 63  1  0
 24 64  1  0
 24 65  1  0
 26 66  1  0
 27 67  1  0
 27 68  1  0
 28 69  1  0
 28 70  1  0
 30 71  1  0
 30 72  1  0
 30 73  1  0
 31 74  1  0
 31 75  1  0
 32 76  1  0
 32 77  1  0
 33 78  1  0
 34 79  1  0
M  CHG  3   9   1  17   1  25   1
M  END
>  <UniqueID>  (14) 
14

>  <SMILES>  (14) 
CCN(CC)CCC[NH2+]c1c2ccccc2[n+](C)c2cc(OCC[N+]3(O)CCN(C)CC3)ccc12

>  <Energy>  (14) 
142.89111974852898

>  <Genealogy>  (14) 
CCN(CC)CCC[NH2+]c1c2ccccc2[n+](C)c2cc(OCC[N+]3(O)CCN(C)CC3)ccc12 (protonated)
CCN(CC)CCC[NH2+]c1c2ccccc2[n+](C)c2cc(OCC[N+]3(O)CCN(C)CC3)ccc12 (3D coordinates assigned)
CCN(CC)CCC[NH2+]c1c2ccccc2[n+](C)c2cc(OCC[N+]3(O)CCN(C)CC3)ccc12 (nonaromatic ring conformer: 142.89111974852898 kcal/mol)

>  <smiles>  (14) 
CCN(CC)CCCNc1c2ccccc2[n+](C)c2cc(OCC[N+]3([O-])CCN(C)CC3)ccc12

>  <score_type>  (14) 
oracle

>  <origin>  (14) 
adg

>  <m_score__min__energy>  (14) 
-4.75

>  <m_primary>  (14) 
energy

$$$$
14:0
     RDKit          3D

 57 60  0  0  0  0  0  0  0  0999 V2000
   55.9060   30.0400   43.9910 C   0  0  0  0  0  0  0  0  0  0  0  0
   57.2230   30.5650   43.4160 C   0  0  0  0  0  0  0  0  0  0  0  0
   58.1460   30.9710   44.4890 N   0  0  0  0  0  0  0  0  0  0  0  0
   58.3400   32.2600   44.8730 C   0  0  0  0  0  0  0  0  0  0  0  0
   57.8390   33.4190   44.2620 C   0  0  0  0  0  0  0  0  0  0  0  0
   58.1210   34.6620   44.8490 C   0  0  0  0  0  0  0  0  0  0  0  0
   58.8740   34.7350   46.0370 C   0  0  0  0  0  0  0  0  0  0  0  0
   59.3500   33.5670   46.6500 C   0  0  0  0  0  0  0  0  0  0  0  0
   59.0760   32.3390   46.0360 C   0  0  0  0  0  0  0  0  0  0  0  0
   59.3500   31.0370   46.4080 C   0  0  0  0  0  0  0  0  0  0  0  0
   60.0130   30.5140   47.5160 C   0  0  0  0  0  0  0  0  0  0  0  0
   60.7160   31.3710   48.4250 N   0  0  0  0  0  0  0  0  0  0  0  0
   62.1660   31.2750   48.6220 C   0  0  0  0  0  0  0  0  0  0  0  0
   62.9420   31.5700   47.3200 C   0  0  0  0  0  0  0  0  0  0  0  0
   63.7710   32.8030   47.4090 N   0  0  1  0  0  0  0  0  0  0  0  0
   63.3080   33.8230   46.4480 C   0  0  0  0  0  0  0  0  0  0  0  0
   63.8640   33.3360   48.7950 C   0  0  0  0  0  0  0  0  0  0  0  0
   65.0100   32.7530   49.6390 C   0  0  0  0  0  0  0  0  0  0  0  0
   59.9820   29.1160   47.6940 C   0  0  0  0  0  0  0  0  0  0  0  0
   60.4800   28.5290   48.8740 C   0  0  0  0  0  0  0  0  0  0  0  0
   60.4260   27.1490   49.0590 C   0  0  0  0  0  0  0  0  0  0  0  0
   59.8600   26.3350   48.0840 C   0  0  0  0  0  0  0  0  0  0  0  0
   59.3520   26.8900   46.9100 C   0  0  0  0  0  0  0  0  0  0  0  0
   59.4150   28.2870   46.6740 C   0  0  0  0  0  0  0  0  0  0  0  0
   58.9360   28.8470   45.4980 N   0  0  0  0  0  0  0  0  0  0  0  0
   58.7110   27.9880   44.3220 C   0  0  0  0  0  0  0  0  0  0  0  0
   58.7970   30.2190   45.4360 C   0  0  0  0  0  0  0  0  0  0  0  0
   55.9524   30.0585   45.0899 H   0  0  0  0  0  0  0  0  0  0  0  0
   55.0768   30.6763   43.6483 H   0  0  0  0  0  0  0  0  0  0  0  0
   55.7419   29.0077   43.6483 H   0  0  0  0  0  0  0  0  0  0  0  0
   57.6949   29.7720   42.8172 H   0  0  0  0  0  0  0  0  0  0  0  0
   57.0055   31.4439   42.7914 H   0  0  0  0  0  0  0  0  0  0  0  0
   57.2382   33.3549   43.3428 H   0  0  0  0  0  0  0  0  0  0  0  0
   57.7517   35.5851   44.3784 H   0  0  0  0  0  0  0  0  0  0  0  0
   59.0903   35.7151   46.4872 H   0  0  0  0  0  0  0  0  0  0  0  0
   59.9231   33.6144   47.5877 H   0  0  0  0  0  0  0  0  0  0  0  0
   60.1650   32.0410   49.0070 H   0  0  0  0  0  0  0  0  0  0  0  0
   62.4699   32.0014   49.3901 H   0  0  0  0  0  0  0  0  0  0  0  0
   62.4014   30.2471   48.9351 H   0  0  0  0  0  0  0  0  0  0  0  0
   63.6025   30.7174   47.1037 H   0  0  0  0  0  0  0  0  0  0  0  0
   62.2017   31.7258   46.5215 H   0  0  0  0  0  0  0  0  0  0  0  0
   64.7500   32.5740   47.1230 H   0  0  0  0  0  0  0  0  0  0  0  0
   62.9139   34.6913   46.9964 H   0  0  0  0  0  0  0  0  0  0  0  0
   64.1504   34.1402   45.8157 H   0  0  0  0  0  0  0  0  0  0  0  0
   62.5147   33.3977   45.8157 H   0  0  0  0  0  0  0  0  0  0  0  0
   64.0054   34.4251   48.7332 H   0  0  0  0  0  0  0  0  0  0  0  0
   62.9310   33.0452   49.2999 H   0  0  0  0  0  0  0  0  0  0  0  0
   64.7760   32.8721   50.7072 H   0  0  0  0  0  0  0  0  0  0  0  0
   65.1296   31.6845   49.4067 H   0  0  0  0  0  0  0  0  0  0  0  0
   65.9441   33.2855   49.4067 H   0  0  0  0  0  0  0  0  0  0  0  0
   60.9159   29.1666   49.6572 H   0  0  0  0  0  0  0  0  0  0  0  0
   60.8321   26.7024   49.9786 H   0  0  0  0  0  0  0  0  0  0  0  0
   59.8127   25.2471   48.2397 H   0  0  0  0  0  0  0  0  0  0  0  0
   58.8950   26.2337   46.1547 H   0  0  0  0  0  0  0  0  0  0  0  0
   58.4453   26.9736   44.6543 H   0  0  0  0  0  0  0  0  0  0  0  0
   57.8910   28.4022   43.7169 H   0  0  0  0  0  0  0  0  0  0  0  0
   59.6287   27.9470   43.7169 H   0  0  0  0  0  0  0  0  0  0  0  0
  1  2  1  0
  2  3  1  0
  3  4  1  0
  4  5  2  0
  5  6  1  0
  6  7  2  0
  7  8  1  0
  8  9  2  0
  9 10  1  0
 10 11  2  0
 11 12  1  0
 12 13  1  0
 13 14  1  0
 14 15  1  0
 15 16  1  0
 15 17  1  0
 17 18  1  0
 11 19  1  0
 19 20  2  0
 20 21  1  0
 21 22  2  0
 22 23  1  0
 23 24  2  0
 24 25  1  0
 25 26  1  0
 25 27  2  0
 27  3  1  0
  9  4  1  0
 27 10  1  0
 24 19  1  0
  1 28  1  0
  1 29  1  0
  1 30  1  0
  2 31  1  0
  2 32  1  0
  5 33  1  0
  6 34  1  0
  7 35  1  0
  8 36  1  0
 12 37  1  0
 13 38  1  0
 13 39  1  0
 14 40  1  0
 14 41  1  0
 15 42  1  6
 16 43  1  0
 16 44  1  0
 16 45  1  0
 17 46  1  0
 17 47  1  0
 18 48  1  0
 18 49  1  0
 18 50  1  0
 20 51  1  0
 21 52  1  0
 22 53  1  0
 23 54  1  0
 26 55  1  0
 26 56  1  0
 26 57  1  0
M  CHG  2  15   1  25   1
M  END
>  <UniqueID>  (15) 
15

>  <SMILES>  (15) 
CCn1c2ccccc2c2c(NCC[N@@H+](C)CC)c3ccccc3[n+](C)c21

>  <Energy>  (15) 
127.7020735448474

>  <Genealogy>  (15) 
CCn1c2ccccc2c2c(NCC[NH+](C)CC)c3ccccc3[n+](C)c21 (protonated)
CCn1c2ccccc2c2c(NCC[N@@H+](C)CC)c3ccccc3[n+](C)c21 (chirality)
CCn1c2ccccc2c2c(NCC[N@@H+](C)CC)c3ccccc3[n+](C)c21 (3D coordinates assigned)
CCn1c2ccccc2c2c(NCC[N@@H+](C)CC)c3ccccc3[n+](C)c21 (optimized conformer: 127.7020735448474 kcal/mol)

>  <smiles>  (15) 
CCN(C)CCNc1c2ccccc2[n+](C)c2c1c1ccccc1n2CC

>  <score_type>  (15) 
oracle

>  <origin>  (15) 
adg

>  <m_score__min__energy>  (15) 
-5.5499999999999998

>  <m_primary>  (15) 
energy

$$$$
15:0
     RDKit          3D

 37 37  0  0  0  0  0  0  0  0999 V2000
   58.2040   34.1130   44.8870 C   0  0  0  0  0  0  0  0  0  0  0  0
   57.0090   33.4860   45.5890 C   0  0  0  0  0  0  0  0  0  0  0  0
   56.9490   32.1130   45.2620 O   0  0  0  0  0  0  0  0  0  0  0  0
   57.4090   31.8950   43.9410 C   0  0  0  0  0  0  0  0  0  0  0  0
   56.6380   30.7470   43.2720 C   0  0  0  0  0  0  0  0  0  0  0  0
   57.0160   29.3710   43.8330 C   0  0  0  0  0  0  0  0  0  0  0  0
   56.3890   29.1600   45.1470 N   0  0  0  0  0  0  0  0  0  0  0  0
   57.1710   28.2390   45.9860 C   0  0  0  0  0  0  0  0  0  0  0  0
   58.3460   28.9230   46.6290 C   0  0  0  0  0  0  0  0  0  0  0  0
   59.0820   28.2690   47.4160 O   0  0  0  0  0  0  0  0  0  0  0  0
   58.5750   30.3240   46.4050 N   0  0  0  0  0  0  0  0  0  0  0  0
   59.7410   31.0330   46.8580 C   0  0  0  0  0  0  0  0  0  0  0  0
   61.0280   30.4750   46.7520 C   0  0  0  0  0  0  0  0  0  0  0  0
   62.1470   31.1960   47.1790 C   0  0  0  0  0  0  0  0  0  0  0  0
   61.9950   32.4830   47.7040 C   0  0  0  0  0  0  0  0  0  0  0  0
   63.5250   33.4670   48.2850 Br  0  0  0  0  0  0  0  0  0  0  0  0
   60.7210   33.0530   47.7920 C   0  0  0  0  0  0  0  0  0  0  0  0
   59.6010   32.3350   47.3660 C   0  0  0  0  0  0  0  0  0  0  0  0
   58.9159   34.4865   45.6378 H   0  0  0  0  0  0  0  0  0  0  0  0
   58.6974   33.3576   44.2578 H   0  0  0  0  0  0  0  0  0  0  0  0
   57.8628   34.9483   44.2578 H   0  0  0  0  0  0  0  0  0  0  0  0
   57.1192   33.6010   46.6774 H   0  0  0  0  0  0  0  0  0  0  0  0
   56.0843   33.9852   45.2638 H   0  0  0  0  0  0  0  0  0  0  0  0
   57.2662   32.8143   43.3541 H   0  0  0  0  0  0  0  0  0  0  0  0
   58.4746   31.6250   43.9810 H   0  0  0  0  0  0  0  0  0  0  0  0
   55.5614   30.9075   43.4305 H   0  0  0  0  0  0  0  0  0  0  0  0
   56.8984   30.7518   42.2033 H   0  0  0  0  0  0  0  0  0  0  0  0
   56.6725   28.5902   43.1385 H   0  0  0  0  0  0  0  0  0  0  0  0
   58.1088   29.3220   43.9485 H   0  0  0  0  0  0  0  0  0  0  0  0
   56.3050   30.0820   45.6360 H   0  0  0  0  0  0  0  0  0  0  0  0
   56.5187   27.8367   46.7751 H   0  0  0  0  0  0  0  0  0  0  0  0
   57.5566   27.4358   45.3408 H   0  0  0  0  0  0  0  0  0  0  0  0
   57.8040   30.8790   45.9700 H   0  0  0  0  0  0  0  0  0  0  0  0
   61.1545   29.4666   46.3311 H   0  0  0  0  0  0  0  0  0  0  0  0
   63.1495   30.7498   47.1018 H   0  0  0  0  0  0  0  0  0  0  0  0
   60.6006   34.0685   48.1974 H   0  0  0  0  0  0  0  0  0  0  0  0
   58.6026   32.7924   47.4288 H   0  0  0  0  0  0  0  0  0  0  0  0
  1  2  1  0
  2  3  1  0
  3  4  1  0
  4  5  1  0
  5  6  1  0
  6  7  1  0
  7  8  1  0
  8  9  1  0
  9 10  2  0
  9 11  1  0
 11 12  1  0
 12 13  2  0
 13 14  1  0
 14 15  2  0
 15 16  1  0
 15 17  1  0
 17 18  2  0
 18 12  1  0
  1 19  1  0
  1 20  1  0
  1 21  1  0
  2 22  1  0
  2 23  1  0
  4 24  1  0
  4 25  1  0
  5 26  1  0
  5 27  1  0
  6 28  1  0
  6 29  1  0
  7 30  1  0
  8 31  1  0
  8 32  1  0
 11 33  1  0
 13 34  1  0
 14 35  1  0
 17 36  1  0
 18 37  1  0
M  END
>  <UniqueID>  (16) 
16

>  <SMILES>  (16) 
CCOCCCNCC(=O)Nc1ccc(Br)cc1

>  <Energy>  (16) 
32.02873967042111

>  <Genealogy>  (16) 
CCOCCCNCC(=O)Nc1ccc(Br)cc1 (3D coordinates assigned)
CCOCCCNCC(=O)Nc1ccc(Br)cc1 (optimized conformer: 32.02873967042111 kcal/mol)

>  <smiles>  (16) 
CCOCCCNCC(=O)Nc1ccc(Br)cc1

>  <score_type>  (16) 
oracle

>  <origin>  (16) 
adg

>  <m_score__min__energy>  (16) 
-6.1799999999999997

>  <m_primary>  (16) 
energy

$$$$
16:0
     RDKit          3D

 27 28  0  0  0  0  0  0  0  0999 V2000
   58.1450   27.0890   42.7270 C   0  0  0  0  0  0  0  0  0  0  0  0
   58.6570   27.5260   44.0940 C   0  0  0  0  0  0  0  0  0  0  0  0
   57.2810   27.7030   45.2810 S   0  0  0  0  0  0  0  0  0  0  0  0
   57.2630   29.4990   45.2260 C   0  0  0  0  0  0  0  0  0  0  0  0
   56.2780   30.2110   44.6510 N   0  0  0  0  0  0  0  0  0  0  0  0
   56.5880   31.4900   44.8020 N   0  0  0  0  0  0  0  0  0  0  0  0
   57.7640   31.5400   45.4610 C   0  0  0  0  0  0  0  0  0  0  0  0
   58.4240   32.8140   45.8080 C   0  0  0  0  0  0  0  0  0  0  0  0
   58.6680   33.8070   44.8460 C   0  0  0  0  0  0  0  0  0  0  0  0
   59.2700   35.0050   45.2340 C   0  0  0  0  0  0  0  0  0  0  0  0
   59.6090   35.2120   46.5720 C   0  0  0  0  0  0  0  0  0  0  0  0
   59.3300   34.2140   47.5070 C   0  0  0  0  0  0  0  0  0  0  0  0
   58.7440   33.0540   47.1100 N   0  0  0  0  0  0  0  0  0  0  0  0
   58.2050   30.2970   45.7640 N   0  0  0  0  0  0  0  0  0  0  0  0
   59.3940   29.8900   46.5120 C   0  0  0  0  0  0  0  0  0  0  0  0
   57.3141   26.3798   42.8562 H   0  0  0  0  0  0  0  0  0  0  0  0
   57.7926   27.9690   42.1690 H   0  0  0  0  0  0  0  0  0  0  0  0
   58.9587   26.6027   42.1690 H   0  0  0  0  0  0  0  0  0  0  0  0
   59.3633   26.7720   44.4716 H   0  0  0  0  0  0  0  0  0  0  0  0
   59.1554   28.5007   43.9868 H   0  0  0  0  0  0  0  0  0  0  0  0
   58.3871   33.6423   43.7953 H   0  0  0  0  0  0  0  0  0  0  0  0
   59.4770   35.7849   44.4864 H   0  0  0  0  0  0  0  0  0  0  0  0
   60.0901   36.1501   46.8858 H   0  0  0  0  0  0  0  0  0  0  0  0
   59.5847   34.3666   48.5662 H   0  0  0  0  0  0  0  0  0  0  0  0
   59.1903   29.9597   47.5907 H   0  0  0  0  0  0  0  0  0  0  0  0
   59.6522   28.8523   46.2539 H   0  0  0  0  0  0  0  0  0  0  0  0
   60.2339   30.5518   46.2539 H   0  0  0  0  0  0  0  0  0  0  0  0
  1  2  1  0
  2  3  1  0
  3  4  1  0
  4  5  2  0
  5  6  1  0
  6  7  2  0
  7  8  1  0
  8  9  2  0
  9 10  1  0
 10 11  2  0
 11 12  1  0
 12 13  2  0
  7 14  1  0
 14 15  1  0
 14  4  1  0
 13  8  1  0
  1 16  1  0
  1 17  1  0
  1 18  1  0
  2 19  1  0
  2 20  1  0
  9 21  1  0
 10 22  1  0
 11 23  1  0
 12 24  1  0
 15 25  1  0
 15 26  1  0
 15 27  1  0
M  END
>  <UniqueID>  (17) 
17

>  <SMILES>  (17) 
CCSc1nnc(-c2ccccn2)n1C

>  <Energy>  (17) 
60.42135916205732

>  <Genealogy>  (17) 
CCSc1nnc(-c2ccccn2)n1C (3D coordinates assigned)
CCSc1nnc(-c2ccccn2)n1C (optimized conformer: 60.42135916205732 kcal/mol)

>  <smiles>  (17) 
CCSc1nnc(-c2ccccn2)n1C

>  <score_type>  (17) 
oracle

>  <origin>  (17) 
adg

>  <m_score__min__energy>  (17) 
-6.3300000000000001

>  <m_primary>  (17) 
energy

$$$$
17:0
     RDKit          3D

 32 33  0  0  1  0  0  0  0  0999 V2000
   59.3900   32.9900   46.6040 C   0  0  0  0  0  0  0  0  0  0  0  0
   59.3140   31.7430   47.0800 C   0  0  0  0  0  0  0  0  0  0  0  0
   60.2590   30.6820   46.6690 C   0  0  0  0  0  0  0  0  0  0  0  0
   60.0200   29.4080   47.3210 N   0  0  0  0  0  0  0  0  0  0  0  0
   59.0790   28.5930   46.9490 C   0  0  0  0  0  0  0  0  0  0  0  0
   58.0980   29.0220   46.1480 N   0  0  0  0  0  0  0  0  0  0  0  0
   57.0780   28.2060   45.7240 C   0  0  0  0  0  0  0  0  0  0  0  0
   56.0630   28.7520   44.9330 N   0  0  0  0  0  0  0  0  0  0  0  0
   56.0230   29.9420   44.1600 C   0  0  0  0  0  0  0  0  0  0  0  0
   56.2960   30.0240   42.7060 C   0  0  0  0  0  0  0  0  0  0  0  0
   57.3200   30.4950   43.6850 C   0  0  0  0  0  0  0  0  0  0  0  0
   57.1440   26.9130   46.1840 C   0  0  0  0  0  0  0  0  0  0  0  0
   56.1850   25.9370   45.8940 N   0  0  0  0  0  0  0  0  0  0  0  0
   56.3910   24.7480   45.6140 O   0  0  0  0  0  0  0  0  0  0  0  0
   54.8460   26.3170   45.9740 O   0  0  0  0  0  0  0  0  0  0  0  0
   58.1940   26.4880   47.0270 C   0  0  0  0  0  0  0  0  0  0  0  0
   58.2220   25.2710   47.4430 N   0  0  0  0  0  0  0  0  0  0  0  0
   59.1620   27.3400   47.4070 N   0  0  0  0  0  0  0  0  0  0  0  0
   58.6673   33.7502   46.9354 H   0  0  0  0  0  0  0  0  0  0  0  0
   60.1752   33.2558   45.8810 H   0  0  0  0  0  0  0  0  0  0  0  0
   58.5214   31.4976   47.8022 H   0  0  0  0  0  0  0  0  0  0  0  0
   60.1699   30.5387   45.5820 H   0  0  0  0  0  0  0  0  0  0  0  0
   61.2652   31.0130   46.9658 H   0  0  0  0  0  0  0  0  0  0  0  0
   58.1300   30.0190   45.8480 H   0  0  0  0  0  0  0  0  0  0  0  0
   55.1520   28.1740   44.8980 H   0  0  0  0  0  0  0  0  0  0  0  0
   55.1615   30.2688   44.7608 H   0  0  0  0  0  0  0  0  0  0  0  0
   56.4707   29.1054   42.1266 H   0  0  0  0  0  0  0  0  0  0  0  0
   55.7822   30.4712   41.8423 H   0  0  0  0  0  0  0  0  0  0  0  0
   58.2487   29.9233   43.8291 H   0  0  0  0  0  0  0  0  0  0  0  0
   57.8738   31.4319   43.8446 H   0  0  0  0  0  0  0  0  0  0  0  0
   57.6100   24.5700   46.9870 H   0  0  0  0  0  0  0  0  0  0  0  0
   59.9170   26.9850   48.0320 H   0  0  0  0  0  0  0  0  0  0  0  0
  1  2  2  0
  2  3  1  0
  3  4  1  0
  4  5  2  0
  5  6  1  0
  6  7  1  0
  7  8  1  0
  8  9  1  0
  9 10  1  0
 10 11  1  0
  7 12  2  0
 12 13  1  0
 13 14  2  0
 13 15  1  0
 12 16  1  0
 16 17  2  3
 16 18  1  0
 18  5  1  0
 11  9  1  0
  1 19  1  0
  1 20  1  0
  2 21  1  0
  3 22  1  0
  3 23  1  0
  6 24  1  0
  8 25  1  0
  9 26  1  0
 10 27  1  0
 10 28  1  0
 11 29  1  0
 11 30  1  0
 17 31  1  0
 18 32  1  0
M  CHG  2  13   1  15  -1
M  END
>  <smiles>  (18) 
C=CCN=c1[nH]c(NC2CC2)c([N+](=O)[O-])c(=N)[nH]1

>  <score_type>  (18) 
oracle

>  <origin>  (18) 
adg

>  <m_score__min__energy>  (18) 
-5.3700000000000001

>  <m_primary>  (18) 
energy

$$$$
18:0
     RDKit          3D

 72 74  0  0  0  0  0  0  0  0999 V2000
   63.0020   33.8180   46.3470 C   0  0  0  0  0  0  0  0  0  0  0  0
   63.6780   32.6870   47.1230 C   0  0  0  0  0  0  0  0  0  0  0  0
   63.7110   32.9460   48.6360 C   0  0  0  0  0  0  0  0  0  0  0  0
   62.5530   33.8400   49.1090 C   0  0  0  0  0  0  0  0  0  0  0  0
   62.2230   33.6190   50.6090 C   0  0  0  0  0  0  0  0  0  0  0  0
   60.9020   32.9870   50.8780 N   0  0  0  0  0  0  0  0  0  0  0  0
   60.2800   33.4700   52.1410 C   0  0  0  0  0  0  0  0  0  0  0  0
   58.8590   34.0400   51.9250 C   0  0  0  0  0  0  0  0  0  0  0  0
   57.7510   33.0680   52.3720 C   0  0  0  0  0  0  0  0  0  0  0  0
   57.4120   31.9700   51.3490 C   0  0  0  0  0  0  0  0  0  0  0  0
   56.4140   30.9460   51.8860 C   0  0  0  0  0  0  0  0  0  0  0  0
   60.9890   31.5000   50.8560 C   0  0  0  0  0  0  0  0  0  0  0  0
   60.2020   30.8690   49.6890 C   0  0  0  0  0  0  0  0  0  0  0  0
   60.7310   31.2950   48.3910 N   0  0  0  0  0  0  0  0  0  0  0  0
   59.9030   31.3080   47.2160 C   0  0  0  0  0  0  0  0  0  0  0  0
   59.3100   32.5070   46.7880 C   0  0  0  0  0  0  0  0  0  0  0  0
   58.5680   32.5290   45.5920 C   0  0  0  0  0  0  0  0  0  0  0  0
   58.2790   31.3570   44.9240 N   0  0  0  0  0  0  0  0  0  0  0  0
   57.2710   31.3590   43.8440 C   0  0  0  0  0  0  0  0  0  0  0  0
   58.9170   30.1840   45.2820 C   0  0  0  0  0  0  0  0  0  0  0  0
   58.8130   29.0080   44.4950 C   0  0  0  0  0  0  0  0  0  0  0  0
   59.4060   27.8140   44.9040 C   0  0  0  0  0  0  0  0  0  0  0  0
   60.1180   27.7590   46.0970 C   0  0  0  0  0  0  0  0  0  0  0  0
   60.2720   28.9060   46.8710 C   0  0  0  0  0  0  0  0  0  0  0  0
   59.7120   30.1350   46.4600 C   0  0  0  0  0  0  0  0  0  0  0  0
   58.1140   33.8880   45.0850 C   0  0  0  0  0  0  0  0  0  0  0  0
   59.2220   34.9280   45.3000 C   0  0  0  0  0  0  0  0  0  0  0  0
   59.6920   35.0190   46.7660 C   0  0  0  0  0  0  0  0  0  0  0  0
   59.3680   33.7760   47.6130 C   0  0  0  0  0  0  0  0  0  0  0  0
   62.5699   34.5409   47.0546 H   0  0  0  0  0  0  0  0  0  0  0  0
   63.7458   34.3241   45.7141 H   0  0  0  0  0  0  0  0  0  0  0  0
   62.2040   33.4025   45.7141 H   0  0  0  0  0  0  0  0  0  0  0  0
   63.1263   31.7536   46.9374 H   0  0  0  0  0  0  0  0  0  0  0  0
   64.7190   32.6195   46.7739 H   0  0  0  0  0  0  0  0  0  0  0  0
   63.6475   31.9809   49.1600 H   0  0  0  0  0  0  0  0  0  0  0  0
   64.6508   33.4705   48.8635 H   0  0  0  0  0  0  0  0  0  0  0  0
   62.8330   34.8931   48.9584 H   0  0  0  0  0  0  0  0  0  0  0  0
   61.6601   33.5778   48.5226 H   0  0  0  0  0  0  0  0  0  0  0  0
   63.0034   32.9735   51.0382 H   0  0  0  0  0  0  0  0  0  0  0  0
   62.1828   34.6194   51.0647 H   0  0  0  0  0  0  0  0  0  0  0  0
   60.2830   33.2800   50.0870 H   0  0  0  0  0  0  0  0  0  0  0  0
   60.2184   32.6290   52.8473 H   0  0  0  0  0  0  0  0  0  0  0  0
   60.9090   34.2834   52.5318 H   0  0  0  0  0  0  0  0  0  0  0  0
   58.7628   34.9717   52.5018 H   0  0  0  0  0  0  0  0  0  0  0  0
   58.7322   34.2127   50.8461 H   0  0  0  0  0  0  0  0  0  0  0  0
   58.0767   32.5810   53.3030 H   0  0  0  0  0  0  0  0  0  0  0  0
   56.8391   33.6704   52.4968 H   0  0  0  0  0  0  0  0  0  0  0  0
   56.9816   32.4442   50.4546 H   0  0  0  0  0  0  0  0  0  0  0  0
   58.3443   31.4335   51.1189 H   0  0  0  0  0  0  0  0  0  0  0  0
   56.4289   30.9613   52.9858 H   0  0  0  0  0  0  0  0  0  0  0  0
   55.4040   31.1965   51.5295 H   0  0  0  0  0  0  0  0  0  0  0  0
   56.6904   29.9428   51.5295 H   0  0  0  0  0  0  0  0  0  0  0  0
   62.0464   31.2118   50.7624 H   0  0  0  0  0  0  0  0  0  0  0  0
   60.5446   31.1298   51.7917 H   0  0  0  0  0  0  0  0  0  0  0  0
   60.2725   29.7737   49.7615 H   0  0  0  0  0  0  0  0  0  0  0  0
   59.1554   31.2001   49.7602 H   0  0  0  0  0  0  0  0  0  0  0  0
   61.7630   31.4070   48.2790 H   0  0  0  0  0  0  0  0  0  0  0  0
   56.2627   31.3610   44.2836 H   0  0  0  0  0  0  0  0  0  0  0  0
   57.4017   32.2569   43.2221 H   0  0  0  0  0  0  0  0  0  0  0  0
   57.3981   30.4606   43.2221 H   0  0  0  0  0  0  0  0  0  0  0  0
   58.2557   29.0386   43.5471 H   0  0  0  0  0  0  0  0  0  0  0  0
   59.3102   26.9127   44.2807 H   0  0  0  0  0  0  0  0  0  0  0  0
   60.5601   26.8083   46.4297 H   0  0  0  0  0  0  0  0  0  0  0  0
   60.8365   28.8540   47.8137 H   0  0  0  0  0  0  0  0  0  0  0  0
   57.8843   33.8177   44.0116 H   0  0  0  0  0  0  0  0  0  0  0  0
   57.2165   34.1980   45.6402 H   0  0  0  0  0  0  0  0  0  0  0  0
   60.0836   34.6560   44.6726 H   0  0  0  0  0  0  0  0  0  0  0  0
   58.8069   35.9096   45.0277 H   0  0  0  0  0  0  0  0  0  0  0  0
   60.7824   35.1639   46.7698 H   0  0  0  0  0  0  0  0  0  0  0  0
   59.1474   35.8602   47.2198 H   0  0  0  0  0  0  0  0  0  0  0  0
   60.1464   33.6610   48.3817 H   0  0  0  0  0  0  0  0  0  0  0  0
   58.3746   33.9278   48.0604 H   0  0  0  0  0  0  0  0  0  0  0  0
  1  2  1  0
  2  3  1  0
  3  4  1  0
  4  5  1  0
  5  6  1  0
  6  7  1  0
  7  8  1  0
  8  9  1  0
  9 10  1  0
 10 11  1  0
  6 12  1  0
 12 13  1  0
 13 14  1  0
 14 15  1  0
 15 16  2  0
 16 17  1  0
 17 18  2  0
 18 19  1  0
 18 20  1  0
 20 21  2  0
 21 22  1  0
 22 23  2  0
 23 24  1  0
 24 25  2  0
 17 26  1  0
 26 27  1  0
 27 28  1  0
 28 29  1  0
 25 15  1  0
 29 16  1  0
 25 20  1  0
  1 30  1  0
  1 31  1  0
  1 32  1  0
  2 33  1  0
  2 34  1  0
  3 35  1  0
  3 36  1  0
  4 37  1  0
  4 38  1  0
  5 39  1  0
  5 40  1  0
  6 41  1  0
  7 42  1  0
  7 43  1  0
  8 44  1  0
  8 45  1  0
  9 46  1  0
  9 47  1  0
 10 48  1  0
 10 49  1  0
 11 50  1  0
 11 51  1  0
 11 52  1  0
 12 53  1  0
 12 54  1  0
 13 55  1  0
 13 56  1  0
 14 57  1  0
 19 58  1  0
 19 59  1  0
 19 60  1  0
 21 61  1  0
 22 62  1  0
 23 63  1  0
 24 64  1  0
 26 65  1  0
 26 66  1  0
 27 67  1  0
 27 68  1  0
 28 69  1  0
 28 70  1  0
 29 71  1  0
 29 72  1  0
M  CHG  2   6   1  18   1
M  END
>  <UniqueID>  (19) 
18

>  <SMILES>  (19) 
CCCCC[NH+](CCCCC)CCNc1c2c([n+](C)c3ccccc13)CCCC2

>  <Energy>  (19) 
91.28525701458538

>  <Genealogy>  (19) 
CCCCC[NH+](CCCCC)CCNc1c2c([n+](C)c3ccccc13)CCCC2 (protonated)
CCCCC[NH+](CCCCC)CCNc1c2c([n+](C)c3ccccc13)CCCC2 (3D coordinates assigned)
CCCCC[NH+](CCCCC)CCNc1c2c([n+](C)c3ccccc13)CCCC2 (nonaromatic ring conformer: 91.28525701458538 kcal/mol)

>  <smiles>  (19) 
CCCCCN(CCCCC)CCNc1c2c([n+](C)c3ccccc13)CCCC2

>  <score_type>  (19) 
oracle

>  <origin>  (19) 
adg

>  <m_score__min__energy>  (19) 
-4.8899999999999997

>  <m_primary>  (19) 
energy

$$$$
19:0
     RDKit          3D

 68 70  0  0  0  0  0  0  0  0999 V2000
   59.6780   33.4540   50.3750 C   0  0  0  0  0  0  0  0  0  0  0  0
   58.9560   32.2090   49.8410 C   0  0  0  0  0  0  0  0  0  0  0  0
   59.5650   30.9200   50.2490 N   0  0  0  0  0  0  0  0  0  0  0  0
   59.8250   30.8630   51.6960 C   0  0  0  0  0  0  0  0  0  0  0  0
   60.7680   30.5240   49.4850 C   0  0  0  0  0  0  0  0  0  0  0  0
   60.4250   29.8600   48.1420 C   0  0  0  0  0  0  0  0  0  0  0  0
   58.9770   29.8010   47.9190 N   0  0  0  0  0  0  0  0  0  0  0  0
   58.4080   29.6340   46.6070 C   0  0  0  0  0  0  0  0  0  0  0  0
   58.2180   28.3410   46.0860 C   0  0  0  0  0  0  0  0  0  0  0  0
   58.4570   27.1990   46.8800 C   0  0  0  0  0  0  0  0  0  0  0  0
   58.3730   25.9220   46.3360 C   0  0  0  0  0  0  0  0  0  0  0  0
   58.0540   25.7570   44.9940 C   0  0  0  0  0  0  0  0  0  0  0  0
   57.7730   26.8690   44.1990 C   0  0  0  0  0  0  0  0  0  0  0  0
   57.8010   28.1820   44.7370 C   0  0  0  0  0  0  0  0  0  0  0  0
   57.4560   29.2870   43.9810 N   0  0  0  0  0  0  0  0  0  0  0  0
   56.7660   29.1080   42.6820 C   0  0  0  0  0  0  0  0  0  0  0  0
   57.7060   30.5610   44.4590 C   0  0  0  0  0  0  0  0  0  0  0  0
   57.5660   31.7080   43.6370 C   0  0  0  0  0  0  0  0  0  0  0  0
   57.7260   32.9930   44.1550 C   0  0  0  0  0  0  0  0  0  0  0  0
   58.0350   33.1780   45.5070 C   0  0  0  0  0  0  0  0  0  0  0  0
   58.1700   34.4510   46.0810 O   0  0  0  0  0  0  0  0  0  0  0  0
   59.1550   34.7960   47.0520 C   0  0  0  0  0  0  0  0  0  0  0  0
   60.5410   34.4020   46.5350 C   0  0  0  0  0  0  0  0  0  0  0  0
   61.1780   33.1740   47.2390 C   0  0  0  0  0  0  0  0  0  0  0  0
   62.6560   33.2070   47.4940 N   0  0  0  0  0  0  0  0  0  0  0  0
   63.3920   33.9340   46.4320 C   0  0  0  0  0  0  0  0  0  0  0  0
   62.9670   33.8060   48.8150 C   0  0  0  0  0  0  0  0  0  0  0  0
   63.1440   31.8040   47.5150 C   0  0  0  0  0  0  0  0  0  0  0  0
   58.2280   32.0600   46.3190 C   0  0  0  0  0  0  0  0  0  0  0  0
   58.1250   30.7520   45.8020 C   0  0  0  0  0  0  0  0  0  0  0  0
   59.6695   33.4393   51.4749 H   0  0  0  0  0  0  0  0  0  0  0  0
   60.7179   33.4569   50.0164 H   0  0  0  0  0  0  0  0  0  0  0  0
   59.1640   34.3580   50.0164 H   0  0  0  0  0  0  0  0  0  0  0  0
   57.9191   32.2299   50.2077 H   0  0  0  0  0  0  0  0  0  0  0  0
   59.0266   32.2540   48.7442 H   0  0  0  0  0  0  0  0  0  0  0  0
   58.8935   31.0672   52.2442 H   0  0  0  0  0  0  0  0  0  0  0  0
   60.1956   29.8623   51.9628 H   0  0  0  0  0  0  0  0  0  0  0  0
   60.5803   31.6169   51.9628 H   0  0  0  0  0  0  0  0  0  0  0  0
   61.3723   31.4221   49.2895 H   0  0  0  0  0  0  0  0  0  0  0  0
   61.3181   29.7875   50.0892 H   0  0  0  0  0  0  0  0  0  0  0  0
   60.8872   30.4399   47.3295 H   0  0  0  0  0  0  0  0  0  0  0  0
   60.8107   28.8300   48.1609 H   0  0  0  0  0  0  0  0  0  0  0  0
   58.3410   29.8030   48.7490 H   0  0  0  0  0  0  0  0  0  0  0  0
   58.7130   27.3206   47.9429 H   0  0  0  0  0  0  0  0  0  0  0  0
   58.5593   25.0418   46.9688 H   0  0  0  0  0  0  0  0  0  0  0  0
   58.0228   24.7479   44.5572 H   0  0  0  0  0  0  0  0  0  0  0  0
   57.5255   26.7253   43.1369 H   0  0  0  0  0  0  0  0  0  0  0  0
   55.7152   28.8354   42.8595 H   0  0  0  0  0  0  0  0  0  0  0  0
   56.8097   30.0472   42.1111 H   0  0  0  0  0  0  0  0  0  0  0  0
   57.2608   28.3085   42.1111 H   0  0  0  0  0  0  0  0  0  0  0  0
   57.3267   31.5819   42.5708 H   0  0  0  0  0  0  0  0  0  0  0  0
   57.6085   33.8663   43.4966 H   0  0  0  0  0  0  0  0  0  0  0  0
   59.1262   35.8804   47.2342 H   0  0  0  0  0  0  0  0  0  0  0  0
   58.9479   34.2609   47.9905 H   0  0  0  0  0  0  0  0  0  0  0  0
   60.4531   34.1732   45.4627 H   0  0  0  0  0  0  0  0  0  0  0  0
   61.2023   35.2552   46.7462 H   0  0  0  0  0  0  0  0  0  0  0  0
   60.6790   33.0576   48.2123 H   0  0  0  0  0  0  0  0  0  0  0  0
   61.0357   32.3430   46.5325 H   0  0  0  0  0  0  0  0  0  0  0  0
   64.1025   34.6359   46.8930 H   0  0  0  0  0  0  0  0  0  0  0  0
   63.9409   33.2138   45.8075 H   0  0  0  0  0  0  0  0  0  0  0  0
   62.6786   34.4917   45.8075 H   0  0  0  0  0  0  0  0  0  0  0  0
   62.6183   33.1344   49.6134 H   0  0  0  0  0  0  0  0  0  0  0  0
   64.0538   33.9500   48.9056 H   0  0  0  0  0  0  0  0  0  0  0  0
   62.4595   34.7777   48.9056 H   0  0  0  0  0  0  0  0  0  0  0  0
   63.2596   31.4716   48.5572 H   0  0  0  0  0  0  0  0  0  0  0  0
   62.4186   31.1557   47.0017 H   0  0  0  0  0  0  0  0  0  0  0  0
   64.1152   31.7459   47.0017 H   0  0  0  0  0  0  0  0  0  0  0  0
   58.4652   32.2016   47.3837 H   0  0  0  0  0  0  0  0  0  0  0  0
  1  2  1  0
  2  3  1  0
  3  4  1  0
  3  5  1  0
  5  6  1  0
  6  7  1  0
  7  8  1  0
  8  9  2  0
  9 10  1  0
 10 11  2  0
 11 12  1  0
 12 13  2  0
 13 14  1  0
 14 15  2  0
 15 16  1  0
 15 17  1  0
 17 18  2  0
 18 19  1  0
 19 20  2  0
 20 21  1  0
 21 22  1  0
 22 23  1  0
 23 24  1  0
 24 25  1  0
 25 26  1  0
 25 27  1  0
 25 28  1  0
 20 29  1  0
 29 30  2  0
 30  8  1  0
 14  9  1  0
 30 17  1  0
  1 31  1  0
  1 32  1  0
  1 33  1  0
  2 34  1  0
  2 35  1  0
  4 36  1  0
  4 37  1  0
  4 38  1  0
  5 39  1  0
  5 40  1  0
  6 41  1  0
  6 42  1  0
  7 43  1  0
 10 44  1  0
 11 45  1  0
 12 46  1  0
 13 47  1  0
 16 48  1  0
 16 49  1  0
 16 50  1  0
 18 51  1  0
 19 52  1  0
 22 53  1  0
 22 54  1  0
 23 55  1  0
 23 56  1  0
 24 57  1  0
 24 58  1  0
 26 59  1  0
 26 60  1  0
 26 61  1  0
 27 62  1  0
 27 63  1  0
 27 64  1  0
 28 65  1  0
 28 66  1  0
 28 67  1  0
 29 68  1  0
M  CHG  2  15   1  25   1
M  END
>  <UniqueID>  (20) 
19

>  <SMILES>  (20) 
CCN(C)CCNc1c2ccccc2[n+](C)c2ccc(OCCC[N+](C)(C)C)cc12

>  <Energy>  (20) 
103.77130985641556

>  <Genealogy>  (20) 
CCN(C)CCNc1c2ccccc2[n+](C)c2ccc(OCCC[N+](C)(C)C)cc12 (3D coordinates assigned)
CCN(C)CCNc1c2ccccc2[n+](C)c2ccc(OCCC[N+](C)(C)C)cc12 (optimized conformer: 103.77130985641556 kcal/mol)

>  <smiles>  (20) 
CCN(C)CCNc1c2ccccc2[n+](C)c2ccc(OCCC[N+](C)(C)C)cc12

>  <score_type>  (20) 
oracle

>  <origin>  (20) 
adg

>  <m_score__min__energy>  (20) 
-4.2000000000000002

>  <m_primary>  (20) 
energy

$$$$
20:0
     RDKit          3D

 33 33  0  0  0  0  0  0  0  0999 V2000
   57.0700   31.1760   42.6700 C   0  0  0  0  0  0  0  0  0  0  0  0
   56.6010   29.7440   42.8990 C   0  0  0  0  0  0  0  0  0  0  0  0
   56.4450   29.4570   44.3690 C   0  0  0  0  0  0  0  0  0  0  0  0
   55.3140   29.6500   44.8930 O   0  0  0  0  0  0  0  0  0  0  0  0
   57.5270   28.9520   45.1840 N   0  0  0  0  0  0  0  0  0  0  0  0
   57.3850   27.6760   45.8760 C   0  0  0  0  0  0  0  0  0  0  0  0
   59.0420   27.0400   46.2450 S   0  0  0  0  0  0  0  0  0  0  0  0
   59.7060   28.7240   46.2200 C   0  0  0  0  0  0  0  0  0  0  0  0
   58.8590   29.5560   45.2560 C   0  0  2  0  0  0  0  0  0  0  0  0
   58.7960   30.9850   45.7330 C   0  0  0  0  0  0  0  0  0  0  0  0
   59.8650   31.6040   45.9920 O   0  0  0  0  0  0  0  0  0  0  0  0
   57.5290   31.6550   45.8310 N   0  0  0  0  0  0  0  0  0  0  0  0
   57.4160   33.0950   46.0890 C   0  0  0  0  0  0  0  0  0  0  0  0
   58.1310   33.4560   47.3960 C   0  0  0  0  0  0  0  0  0  0  0  0
   58.0070   33.8930   44.9220 C   0  0  0  0  0  0  0  0  0  0  0  0
   57.2313   31.6686   43.6402 H   0  0  0  0  0  0  0  0  0  0  0  0
   58.0121   31.1669   42.1022 H   0  0  0  0  0  0  0  0  0  0  0  0
   56.3050   31.7260   42.1022 H   0  0  0  0  0  0  0  0  0  0  0  0
   55.6321   29.5983   42.3990 H   0  0  0  0  0  0  0  0  0  0  0  0
   57.3545   29.0576   42.4854 H   0  0  0  0  0  0  0  0  0  0  0  0
   56.8254   27.8208   46.8119 H   0  0  0  0  0  0  0  0  0  0  0  0
   56.8372   26.9614   45.2441 H   0  0  0  0  0  0  0  0  0  0  0  0
   59.6572   29.1588   47.2292 H   0  0  0  0  0  0  0  0  0  0  0  0
   60.7561   28.7141   45.8925 H   0  0  0  0  0  0  0  0  0  0  0  0
   59.3045   29.5658   44.2503 H   0  0  0  0  0  0  0  0  0  0  0  0
   56.6640   31.1030   45.6280 H   0  0  0  0  0  0  0  0  0  0  0  0
   56.3511   33.3530   46.1862 H   0  0  0  0  0  0  0  0  0  0  0  0
   57.5127   33.1438   48.2505 H   0  0  0  0  0  0  0  0  0  0  0  0
   59.1015   32.9399   47.4377 H   0  0  0  0  0  0  0  0  0  0  0  0
   58.2919   34.5434   47.4377 H   0  0  0  0  0  0  0  0  0  0  0  0
   58.6185   34.7187   45.3148 H   0  0  0  0  0  0  0  0  0  0  0  0
   58.6351   33.2321   44.3067 H   0  0  0  0  0  0  0  0  0  0  0  0
   57.1916   34.3011   44.3067 H   0  0  0  0  0  0  0  0  0  0  0  0
  1  2  1  0
  2  3  1  0
  3  4  2  0
  3  5  1  0
  5  6  1  0
  6  7  1  0
  7  8  1  0
  8  9  1  0
  9 10  1  0
 10 11  2  0
 10 12  1  0
 12 13  1  0
 13 14  1  0
 13 15  1  0
  9  5  1  0
  1 16  1  0
  1 17  1  0
  1 18  1  0
  2 19  1  0
  2 20  1  0
  6 21  1  0
  6 22  1  0
  8 23  1  0
  8 24  1  0
  9 25  1  6
 12 26  1  0
 13 27  1  0
 14 28  1  0
 14 29  1  0
 14 30  1  0
 15 31  1  0
 15 32  1  0
 15 33  1  0
M  END
>  <UniqueID>  (21) 
20

>  <SMILES>  (21) 
CCC(=O)N1CSC[C@@H]1C(=O)NC(C)C

>  <Energy>  (21) 
15.852993550649984

>  <Genealogy>  (21) 
CCC(=O)N1CSC[C@@H]1C(=O)NC(C)C (chirality)
CCC(=O)N1CSC[C@@H]1C(=O)NC(C)C (3D coordinates assigned)
CCC(=O)N1CSC[C@@H]1C(=O)NC(C)C (nonaromatic ring conformer: 15.852993550649984 kcal/mol)

>  <smiles>  (21) 
CCC(=O)N1CSCC1C(=O)NC(C)C

>  <score_type>  (21) 
oracle

>  <origin>  (21) 
adg

>  <m_score__min__energy>  (21) 
-6.3200000000000003

>  <m_primary>  (21) 
energy

$$$$
21:0
     RDKit          3D

 32 33  0  0  0  0  0  0  0  0999 V2000
   54.7930   24.8180   45.3050 C   0  0  0  0  0  0  0  0  0  0  0  0
   55.8140   25.5690   46.1530 C   0  0  0  0  0  0  0  0  0  0  0  0
   55.9860   26.9420   45.6780 N   0  0  0  0  0  0  0  0  0  0  0  0
   57.2710   27.5820   45.7220 C   0  0  0  0  0  0  0  0  0  0  0  0
   58.3800   26.9040   46.1360 N   0  0  0  0  0  0  0  0  0  0  0  0
   59.4870   27.6760   46.1520 C   0  0  0  0  0  0  0  0  0  0  0  0
   59.1330   29.2370   45.6520 S   0  0  0  0  0  0  0  0  0  0  0  0
   57.4980   28.9280   45.3940 C   0  0  0  0  0  0  0  0  0  0  0  0
   56.5530   29.9310   44.8680 C   0  0  0  0  0  0  0  0  0  0  0  0
   55.3160   29.6960   44.8290 O   0  0  0  0  0  0  0  0  0  0  0  0
   57.0570   31.1750   44.3700 N   0  0  0  0  0  0  0  0  0  0  0  0
   56.6980   32.4750   44.9250 C   0  0  0  0  0  0  0  0  0  0  0  0
   57.8230   33.0130   45.7650 C   0  0  0  0  0  0  0  0  0  0  0  0
   58.1300   32.4320   47.0080 C   0  0  0  0  0  0  0  0  0  0  0  0
   59.1640   32.9540   47.7930 C   0  0  0  0  0  0  0  0  0  0  0  0
   59.8940   34.0580   47.3460 C   0  0  0  0  0  0  0  0  0  0  0  0
   60.8950   34.5630   48.1090 F   0  0  0  0  0  0  0  0  0  0  0  0
   59.5910   34.6450   46.1140 C   0  0  0  0  0  0  0  0  0  0  0  0
   58.5580   34.1260   45.3270 C   0  0  0  0  0  0  0  0  0  0  0  0
   54.0829   24.2957   45.9631 H   0  0  0  0  0  0  0  0  0  0  0  0
   54.2476   25.5318   44.6701 H   0  0  0  0  0  0  0  0  0  0  0  0
   55.3120   24.0848   44.6701 H   0  0  0  0  0  0  0  0  0  0  0  0
   55.4675   25.5908   47.1968 H   0  0  0  0  0  0  0  0  0  0  0  0
   56.7807   25.0496   46.0770 H   0  0  0  0  0  0  0  0  0  0  0  0
   55.1500   27.4680   45.3460 H   0  0  0  0  0  0  0  0  0  0  0  0
   60.4864   27.3282   46.4524 H   0  0  0  0  0  0  0  0  0  0  0  0
   56.4918   33.1761   44.1028 H   0  0  0  0  0  0  0  0  0  0  0  0
   55.8041   32.3601   45.5557 H   0  0  0  0  0  0  0  0  0  0  0  0
   57.5555   31.5643   47.3645 H   0  0  0  0  0  0  0  0  0  0  0  0
   59.4024   32.4944   48.7635 H   0  0  0  0  0  0  0  0  0  0  0  0
   60.1652   35.5153   45.7635 H   0  0  0  0  0  0  0  0  0  0  0  0
   58.3201   34.5924   44.3596 H   0  0  0  0  0  0  0  0  0  0  0  0
  1  2  1  0
  2  3  1  0
  3  4  1  0
  4  5  1  0
  5  6  2  0
  6  7  1  0
  7  8  1  0
  8  9  1  0
  9 10  2  0
  9 11  1  0
 11 12  1  0
 12 13  1  0
 13 14  2  0
 14 15  1  0
 15 16  2  0
 16 17  1  0
 16 18  1  0
 18 19  2  0
  8  4  2  0
 19 13  1  0
  1 20  1  0
  1 21  1  0
  1 22  1  0
  2 23  1  0
  2 24  1  0
  3 25  1  0
  6 26  1  0
 12 27  1  0
 12 28  1  0
 14 29  1  0
 15 30  1  0
 18 31  1  0
 19 32  1  0
M  CHG  1  11  -1
M  END
>  <UniqueID>  (22) 
21

>  <SMILES>  (22) 
CCNc1ncsc1C(=O)[N-]Cc1ccc(F)cc1

>  <Energy>  (22) 
56.58869133153325

>  <Genealogy>  (22) 
CCNc1ncsc1C(=O)[N-]Cc1ccc(F)cc1 (protonated)
CCNc1ncsc1C(=O)[N-]Cc1ccc(F)cc1 (3D coordinates assigned)
CCNc1ncsc1C(=O)[N-]Cc1ccc(F)cc1 (optimized conformer: 56.58869133153325 kcal/mol)

>  <smiles>  (22) 
CCNc1ncsc1C(=O)NCc1ccc(F)cc1

>  <score_type>  (22) 
oracle

>  <origin>  (22) 
adg

>  <m_score__min__energy>  (22) 
-8.2400000000000002

>  <m_primary>  (22) 
energy

$$$$
22:0
     RDKit          3D

 52 54  0  0  0  0  0  0  0  0999 V2000
   59.3910   31.6300   50.0200 C   0  0  0  0  0  0  0  0  0  0  0  0
   58.8430   30.4970   49.1420 C   0  0  0  0  0  0  0  0  0  0  0  0
   59.9150   29.6070   48.6220 N   0  0  1  0  0  0  0  0  0  0  0  0
   61.1170   29.7080   49.4770 C   0  0  0  0  0  0  0  0  0  0  0  0
   59.4620   28.1890   48.5650 C   0  0  0  0  0  0  0  0  0  0  0  0
   58.9800   27.7560   47.1630 C   0  0  0  0  0  0  0  0  0  0  0  0
   58.8210   28.8780   46.3120 O   0  0  0  0  0  0  0  0  0  0  0  0
   58.4650   28.5040   44.9920 C   0  0  0  0  0  0  0  0  0  0  0  0
   57.8090   29.6590   44.2220 C   0  0  0  0  0  0  0  0  0  0  0  0
   56.9660   30.4540   45.1220 N   0  0  0  0  0  0  0  0  0  0  0  0
   56.9750   31.8710   44.7430 C   0  0  0  0  0  0  0  0  0  0  0  0
   57.9920   32.5930   45.5820 C   0  0  0  0  0  0  0  0  0  0  0  0
   57.7130   33.8640   46.0890 C   0  0  0  0  0  0  0  0  0  0  0  0
   58.6150   34.4890   46.9420 C   0  0  0  0  0  0  0  0  0  0  0  0
   59.8030   33.8390   47.2940 C   0  0  0  0  0  0  0  0  0  0  0  0
   60.7020   34.4740   48.1700 C   0  0  0  0  0  0  0  0  0  0  0  0
   61.8640   33.7910   48.4920 C   0  0  0  0  0  0  0  0  0  0  0  0
   62.8910   34.1910   49.3210 C   0  0  0  0  0  0  0  0  0  0  0  0
   63.8110   33.1500   49.3010 C   0  0  0  0  0  0  0  0  0  0  0  0
   63.3020   32.1680   48.4640 C   0  0  0  0  0  0  0  0  0  0  0  0
   62.1140   32.5780   47.9820 N   0  0  0  0  0  0  0  0  0  0  0  0
   61.2570   31.9470   47.1380 C   0  0  0  0  0  0  0  0  0  0  0  0
   61.5450   30.7990   46.6910 O   0  0  0  0  0  0  0  0  0  0  0  0
   60.0830   32.5770   46.7870 N   0  0  0  0  0  0  0  0  0  0  0  0
   59.1870   31.9620   45.9500 C   0  0  0  0  0  0  0  0  0  0  0  0
   59.2636   31.3665   51.0804 H   0  0  0  0  0  0  0  0  0  0  0  0
   60.4597   31.7767   49.8045 H   0  0  0  0  0  0  0  0  0  0  0  0
   58.8426   32.5589   49.8045 H   0  0  0  0  0  0  0  0  0  0  0  0
   58.1440   29.8942   49.7404 H   0  0  0  0  0  0  0  0  0  0  0  0
   58.3436   30.9576   48.2769 H   0  0  0  0  0  0  0  0  0  0  0  0
   60.1910   29.9170   47.6600 H   0  0  0  0  0  0  0  0  0  0  0  0
   60.8175   29.6828   50.5351 H   0  0  0  0  0  0  0  0  0  0  0  0
   61.7891   28.8632   49.2660 H   0  0  0  0  0  0  0  0  0  0  0  0
   61.6387   30.6531   49.2660 H   0  0  0  0  0  0  0  0  0  0  0  0
   60.3015   27.5424   48.8604 H   0  0  0  0  0  0  0  0  0  0  0  0
   58.6045   28.0939   49.2474 H   0  0  0  0  0  0  0  0  0  0  0  0
   59.7212   27.0728   46.7228 H   0  0  0  0  0  0  0  0  0  0  0  0
   58.0068   27.2537   47.2665 H   0  0  0  0  0  0  0  0  0  0  0  0
   59.3724   28.1900   44.4553 H   0  0  0  0  0  0  0  0  0  0  0  0
   57.7359   27.6829   45.0573 H   0  0  0  0  0  0  0  0  0  0  0  0
   58.5925   30.3024   43.7952 H   0  0  0  0  0  0  0  0  0  0  0  0
   57.1837   29.2445   43.4175 H   0  0  0  0  0  0  0  0  0  0  0  0
   57.3500   30.3720   46.0930 H   0  0  0  0  0  0  0  0  0  0  0  0
   57.2385   31.9671   43.6794 H   0  0  0  0  0  0  0  0  0  0  0  0
   55.9787   32.3072   44.9077 H   0  0  0  0  0  0  0  0  0  0  0  0
   56.7771   34.3717   45.8126 H   0  0  0  0  0  0  0  0  0  0  0  0
   58.3957   35.4911   47.3390 H   0  0  0  0  0  0  0  0  0  0  0  0
   60.4913   35.4717   48.5825 H   0  0  0  0  0  0  0  0  0  0  0  0
   62.9660   35.1353   49.8802 H   0  0  0  0  0  0  0  0  0  0  0  0
   64.7651   33.1117   49.8471 H   0  0  0  0  0  0  0  0  0  0  0  0
   63.7899   31.2099   48.2319 H   0  0  0  0  0  0  0  0  0  0  0  0
   59.4106   30.9574   45.5617 H   0  0  0  0  0  0  0  0  0  0  0  0
  1  2  1  0
  2  3  1  0
  3  4  1  0
  3  5  1  0
  5  6  1  0
  6  7  1  0
  7  8  1  0
  8  9  1  0
  9 10  1  0
 10 11  1  0
 11 12  1  0
 12 13  1  0
 13 14  2  0
 14 15  1  0
 15 16  2  0
 16 17  1  0
 17 18  2  0
 18 19  1  0
 19 20  2  0
 20 21  1  0
 21 22  1  0
 22 23  2  0
 22 24  1  0
 24 25  1  0
 25 12  2  0
 24 15  1  0
 21 17  1  0
  1 26  1  0
  1 27  1  0
  1 28  1  0
  2 29  1  0
  2 30  1  0
  3 31  1  6
  4 32  1  0
  4 33  1  0
  4 34  1  0
  5 35  1  0
  5 36  1  0
  6 37  1  0
  6 38  1  0
  8 39  1  0
  8 40  1  0
  9 41  1  0
  9 42  1  0
 10 43  1  0
 11 44  1  0
 11 45  1  0
 13 46  1  0
 14 47  1  0
 16 48  1  0
 18 49  1  0
 19 50  1  0
 20 51  1  0
 25 52  1  0
M  CHG  1   3   1
M  END
>  <UniqueID>  (23) 
22

>  <SMILES>  (23) 
CC[N@@H+](C)CCOCCNCc1ccc2cc3cccn3c(=O)n2c1

>  <Energy>  (23) 
89.49534479462359

>  <Genealogy>  (23) 
CC[NH+](C)CCOCCNCc1ccc2cc3cccn3c(=O)n2c1 (protonated)
CC[N@@H+](C)CCOCCNCc1ccc2cc3cccn3c(=O)n2c1 (chirality)
CC[N@@H+](C)CCOCCNCc1ccc2cc3cccn3c(=O)n2c1 (3D coordinates assigned)
CC[N@@H+](C)CCOCCNCc1ccc2cc3cccn3c(=O)n2c1 (optimized conformer: 89.49534479462359 kcal/mol)

>  <smiles>  (23) 
CCN(C)CCOCCNCc1ccc2cc3cccn3c(=O)n2c1

>  <score_type>  (23) 
oracle

>  <origin>  (23) 
adg

>  <m_score__min__energy>  (23) 
-5.2999999999999998

>  <m_primary>  (23) 
energy

$$$$
