0:0
     RDKit          3D

 68 70  0  0  0  0  0  0  0  0999 V2000
   60.5860   28.9470   45.1300 C   0  0  0  0  0  0  0  0  0  0  0  0
   60.1350   30.0550   46.0820 C   0  0  0  0  0  0  0  0  0  0  0  0
   58.7650   29.7930   46.5820 N   0  0  0  0  0  0  0  0  0  0  0  0
   58.8110   29.1300   47.9060 C   0  0  0  0  0  0  0  0  0  0  0  0
   59.1920   30.1300   48.9930 C   0  0  0  0  0  0  0  0  0  0  0  0
   58.0080   28.9660   45.6190 C   0  0  0  0  0  0  0  0  0  0  0  0
   56.7680   29.6610   45.2450 N   0  0  0  0  0  0  0  0  0  0  0  0
   56.8200   30.1630   43.8650 C   0  0  0  0  0  0  0  0  0  0  0  0
   58.1060   30.9700   43.6340 C   0  0  0  0  0  0  0  0  0  0  0  0
   57.8600   32.4840   43.5140 C   0  0  0  0  0  0  0  0  0  0  0  0
   58.0770   33.2300   44.8390 C   0  0  0  0  0  0  0  0  0  0  0  0
   57.4630   32.4880   45.9520 N   0  0  0  0  0  0  0  0  0  0  0  0
   58.0180   32.9000   47.2490 C   0  0  0  0  0  0  0  0  0  0  0  0
   58.5950   34.3160   47.1670 C   0  0  0  0  0  0  0  0  0  0  0  0
   59.2740   34.6790   48.4130 N   0  0  0  0  0  0  0  0  0  0  0  0
   60.2450   33.8060   49.0230 C   0  0  0  0  0  0  0  0  0  0  0  0
   61.4170   33.4450   48.3290 C   0  0  0  0  0  0  0  0  0  0  0  0
   61.6940   33.9640   47.0440 C   0  0  0  0  0  0  0  0  0  0  0  0
   62.8650   33.6200   46.3740 C   0  0  0  0  0  0  0  0  0  0  0  0
   63.7840   32.7650   46.9710 C   0  0  0  0  0  0  0  0  0  0  0  0
   63.5210   32.2190   48.2270 C   0  0  0  0  0  0  0  0  0  0  0  0
   62.3170   32.5140   48.9160 C   0  0  0  0  0  0  0  0  0  0  0  0
   62.0010   31.9090   50.1180 N   0  0  0  0  0  0  0  0  0  0  0  0
   62.7460   30.7090   50.5610 C   0  0  0  0  0  0  0  0  0  0  0  0
   60.9630   32.4010   50.8880 C   0  0  0  0  0  0  0  0  0  0  0  0
   60.7810   32.0040   52.2370 C   0  0  0  0  0  0  0  0  0  0  0  0
   59.7170   32.4950   52.9980 C   0  0  0  0  0  0  0  0  0  0  0  0
   59.5190   31.9890   54.6680 Cl  0  0  0  0  0  0  0  0  0  0  0  0
   58.8240   33.4060   52.4450 C   0  0  0  0  0  0  0  0  0  0  0  0
   58.9950   33.8400   51.1330 C   0  0  0  0  0  0  0  0  0  0  0  0
   60.0550   33.3470   50.3400 C   0  0  0  0  0  0  0  0  0  0  0  0
   60.9376   28.0831   45.7132 H   0  0  0  0  0  0  0  0  0  0  0  0
   59.7406   28.6417   44.4959 H   0  0  0  0  0  0  0  0  0  0  0  0
   61.4043   29.3189   44.4959 H   0  0  0  0  0  0  0  0  0  0  0  0
   60.8277   30.1016   46.9353 H   0  0  0  0  0  0  0  0  0  0  0  0
   60.1349   31.0103   45.5367 H   0  0  0  0  0  0  0  0  0  0  0  0
   57.8211   28.7079   48.1337 H   0  0  0  0  0  0  0  0  0  0  0  0
   59.5671   28.3316   47.8772 H   0  0  0  0  0  0  0  0  0  0  0  0
   59.0205   29.6798   49.9819 H   0  0  0  0  0  0  0  0  0  0  0  0
   60.2544   30.3959   48.8905 H   0  0  0  0  0  0  0  0  0  0  0  0
   58.5759   31.0355   48.8905 H   0  0  0  0  0  0  0  0  0  0  0  0
   58.6194   28.7977   44.7202 H   0  0  0  0  0  0  0  0  0  0  0  0
   57.7612   27.9987   46.0810 H   0  0  0  0  0  0  0  0  0  0  0  0
   56.6450   30.4750   45.8920 H   0  0  0  0  0  0  0  0  0  0  0  0
   56.7971   29.3115   43.1690 H   0  0  0  0  0  0  0  0  0  0  0  0
   55.9533   30.8179   43.6919 H   0  0  0  0  0  0  0  0  0  0  0  0
   58.7864   30.7926   44.4799 H   0  0  0  0  0  0  0  0  0  0  0  0
   58.5357   30.6327   42.6793 H   0  0  0  0  0  0  0  0  0  0  0  0
   58.5513   32.8938   42.7628 H   0  0  0  0  0  0  0  0  0  0  0  0
   56.8089   32.6263   43.2225 H   0  0  0  0  0  0  0  0  0  0  0  0
   59.1564   33.3335   45.0241 H   0  0  0  0  0  0  0  0  0  0  0  0
   57.6084   34.2228   44.7704 H   0  0  0  0  0  0  0  0  0  0  0  0
   57.6870   31.4740   45.8170 H   0  0  0  0  0  0  0  0  0  0  0  0
   57.2202   32.8787   48.0061 H   0  0  0  0  0  0  0  0  0  0  0  0
   58.8251   32.2052   47.5245 H   0  0  0  0  0  0  0  0  0  0  0  0
   59.3159   34.3632   46.3375 H   0  0  0  0  0  0  0  0  0  0  0  0
   57.7684   35.0222   46.9997 H   0  0  0  0  0  0  0  0  0  0  0  0
   59.2250   35.6760   48.7230 H   0  0  0  0  0  0  0  0  0  0  0  0
   60.9760   34.6478   46.5676 H   0  0  0  0  0  0  0  0  0  0  0  0
   63.0632   34.0254   45.3708 H   0  0  0  0  0  0  0  0  0  0  0  0
   64.7215   32.5183   46.4512 H   0  0  0  0  0  0  0  0  0  0  0  0
   64.2595   31.5486   48.6909 H   0  0  0  0  0  0  0  0  0  0  0  0
   62.7668   30.6754   51.6603 H   0  0  0  0  0  0  0  0  0  0  0  0
   62.2493   29.8062   50.1760 H   0  0  0  0  0  0  0  0  0  0  0  0
   63.7754   30.7536   50.1760 H   0  0  0  0  0  0  0  0  0  0  0  0
   61.4900   31.2970   52.6925 H   0  0  0  0  0  0  0  0  0  0  0  0
   57.9823   33.7839   53.0440 H   0  0  0  0  0  0  0  0  0  0  0  0
   58.2960   34.5759   50.7088 H   0  0  0  0  0  0  0  0  0  0  0  0
  1  2  1  0
  2  3  1  0
  3  4  1  0
  4  5  1  0
  3  6  1  0
  6  7  1  0
  7  8  1  0
  8  9  1  0
  9 10  1  0
 10 11  1  0
 11 12  1  0
 12 13  1  0
 13 14  1  0
 14 15  1  0
 15 16  1  0
 16 17  2  0
 17 18  1  0
 18 19  2  0
 19 20  1  0
 20 21  2  0
 21 22  1  0
 22 23  2  0
 23 24  1  0
 23 25  1  0
 25 26  2  0
 26 27  1  0
 27 28  1  0
 27 29  2  0
 29 30  1  0
 30 31  2  0
 31 16  1  0
 22 17  1  0
 31 25  1  0
  1 32  1  0
  1 33  1  0
  1 34  1  0
  2 35  1  0
  2 36  1  0
  4 37  1  0
  4 38  1  0
  5 39  1  0
  5 40  1  0
  5 41  1  0
  6 42  1  0
  6 43  1  0
  7 44  1  0
  8 45  1  0
  8 46  1  0
  9 47  1  0
  9 48  1  0
 10 49  1  0
 10 50  1  0
 11 51  1  0
 11 52  1  0
 12 53  1  0
 13 54  1  0
 13 55  1  0
 14 56  1  0
 14 57  1  0
 15 58  1  0
 18 59  1  0
 19 60  1  0
 20 61  1  0
 21 62  1  0
 24 63  1  0
 24 64  1  0
 24 65  1  0
 26 66  1  0
 29 67  1  0
 30 68  1  0
M  CHG  1  23   1
M  END
>  <UniqueID>  (1) 
1

>  <SMILES>  (1) 
CCN(CC)CNCCCCNCCNc1c2ccccc2[n+](C)c2cc(Cl)ccc12

>  <Energy>  (1) 
80.90778501768267

>  <Genealogy>  (1) 
CCN(CC)CNCCCCNCCNc1c2ccccc2[n+](C)c2cc(Cl)ccc12 (3D coordinates assigned)
CCN(CC)CNCCCCNCCNc1c2ccccc2[n+](C)c2cc(Cl)ccc12 (optimized conformer: 80.90778501768267 kcal/mol)

>  <smiles>  (1) 
CCN(CC)CNCCCCNCCNc1c2ccccc2[n+](C)c2cc(Cl)ccc12

>  <score_type>  (1) 
oracle

>  <origin>  (1) 
adg

>  <m_score__min__energy>  (1) 
-6.04

>  <m_primary>  (1) 
energy

$$$$
1:0
     RDKit          3D

 88 93  0  0  0  0  0  0  0  0999 V2000
   56.6540   30.4910   42.5320 C   0  0  0  0  0  0  0  0  0  0  0  0
   56.1000   29.8890   43.8130 C   0  0  0  0  0  0  0  0  0  0  0  0
   56.1940   30.8440   44.8670 O   0  0  0  0  0  0  0  0  0  0  0  0
   57.3610   31.5410   45.2130 C   0  0  0  0  0  0  0  0  0  0  0  0
   57.4750   32.8720   44.8100 C   0  0  0  0  0  0  0  0  0  0  0  0
   58.6090   33.6150   45.1340 C   0  0  0  0  0  0  0  0  0  0  0  0
   59.6550   33.0320   45.8530 C   0  0  0  0  0  0  0  0  0  0  0  0
   60.7300   33.7890   46.1770 N   0  0  0  0  0  0  0  0  0  0  0  0
   61.7720   33.3030   46.8910 C   0  0  0  0  0  0  0  0  0  0  0  0
   62.8290   34.1600   47.2190 C   0  0  0  0  0  0  0  0  0  0  0  0
   63.9040   33.6920   47.9730 C   0  0  0  0  0  0  0  0  0  0  0  0
   63.9290   32.3680   48.4070 C   0  0  0  0  0  0  0  0  0  0  0  0
   62.8840   31.4990   48.0800 C   0  0  0  0  0  0  0  0  0  0  0  0
   61.7860   31.9480   47.3060 C   0  0  0  0  0  0  0  0  0  0  0  0
   60.7000   31.1010   46.9350 C   0  0  0  0  0  0  0  0  0  0  0  0
   60.7370   29.6130   47.2600 C   0  0  0  0  0  0  0  0  0  0  0  0
   59.7730   29.2770   48.4080 C   0  0  0  0  0  0  0  0  0  0  0  0
   60.1530   29.9760   49.6460 N   0  0  0  0  0  0  0  0  0  0  0  0
   59.5850   31.3320   49.7730 C   0  0  0  0  0  0  0  0  0  0  0  0
   58.2110   31.3940   50.4850 C   0  0  0  0  0  0  0  0  0  0  0  0
   57.7560   30.1080   51.0430 N   0  0  0  0  0  0  0  0  0  0  0  0
   57.4060   30.1620   52.4760 C   0  0  0  0  0  0  0  0  0  0  0  0
   58.5390   29.6210   53.3570 C   0  0  0  0  0  0  0  0  0  0  0  0
   59.7660   29.4670   52.5690 N   0  0  0  0  0  0  0  0  0  0  0  0
   60.6280   28.4460   53.1790 C   0  0  0  0  0  0  0  0  0  0  0  0
   62.1030   28.7340   52.8620 C   0  0  0  0  0  0  0  0  0  0  0  0
   62.2720   29.4790   51.6000 N   0  0  0  0  0  0  0  0  0  0  0  0
   63.4950   30.2770   51.5930 C   0  0  0  0  0  0  0  0  0  0  0  0
   63.4510   31.7020   51.5180 C   0  0  0  0  0  0  0  0  0  0  0  0
   62.2300   32.4230   51.4360 C   0  0  0  0  0  0  0  0  0  0  0  0
   62.2150   33.8090   51.2960 C   0  0  0  0  0  0  0  0  0  0  0  0
   63.4050   34.5140   51.2200 C   0  0  0  0  0  0  0  0  0  0  0  0
   64.6180   33.8450   51.3310 C   0  0  0  0  0  0  0  0  0  0  0  0
   64.6710   32.4400   51.5310 C   0  0  0  0  0  0  0  0  0  0  0  0
   65.8760   31.7970   51.7270 N   0  0  0  0  0  0  0  0  0  0  0  0
   67.0830   32.5820   52.0780 C   0  0  0  0  0  0  0  0  0  0  0  0
   65.9520   30.4240   51.6390 C   0  0  0  0  0  0  0  0  0  0  0  0
   67.2050   29.7630   51.5530 C   0  0  0  0  0  0  0  0  0  0  0  0
   67.2920   28.3740   51.5470 C   0  0  0  0  0  0  0  0  0  0  0  0
   66.1400   27.6080   51.6160 C   0  0  0  0  0  0  0  0  0  0  0  0
   64.8910   28.2230   51.6500 C   0  0  0  0  0  0  0  0  0  0  0  0
   64.7660   29.6370   51.6270 C   0  0  0  0  0  0  0  0  0  0  0  0
   59.5870   31.6740   46.2490 C   0  0  0  0  0  0  0  0  0  0  0  0
   58.4080   30.9490   45.9470 C   0  0  0  0  0  0  0  0  0  0  0  0
   57.3795   31.2794   42.7812 H   0  0  0  0  0  0  0  0  0  0  0  0
   57.1526   29.7065   41.9439 H   0  0  0  0  0  0  0  0  0  0  0  0
   55.8308   30.9228   41.9439 H   0  0  0  0  0  0  0  0  0  0  0  0
   55.0461   29.6122   43.6621 H   0  0  0  0  0  0  0  0  0  0  0  0
   56.6805   28.9929   44.0777 H   0  0  0  0  0  0  0  0  0  0  0  0
   56.6636   33.3386   44.2321 H   0  0  0  0  0  0  0  0  0  0  0  0
   58.6806   34.6672   44.8214 H   0  0  0  0  0  0  0  0  0  0  0  0
   62.8113   35.2065   46.8806 H   0  0  0  0  0  0  0  0  0  0  0  0
   64.7336   34.3687   48.2257 H   0  0  0  0  0  0  0  0  0  0  0  0
   64.7747   32.0051   49.0095 H   0  0  0  0  0  0  0  0  0  0  0  0
   62.9147   30.4557   48.4274 H   0  0  0  0  0  0  0  0  0  0  0  0
   60.4451   29.0421   46.3662 H   0  0  0  0  0  0  0  0  0  0  0  0
   61.7583   29.3469   47.5702 H   0  0  0  0  0  0  0  0  0  0  0  0
   58.7553   29.5815   48.1223 H   0  0  0  0  0  0  0  0  0  0  0  0
   59.8170   28.1936   48.5930 H   0  0  0  0  0  0  0  0  0  0  0  0
   59.8740   29.3900   50.4640 H   0  0  0  0  0  0  0  0  0  0  0  0
   60.2948   31.9487   50.3438 H   0  0  0  0  0  0  0  0  0  0  0  0
   59.4208   31.6973   48.7485 H   0  0  0  0  0  0  0  0  0  0  0  0
   58.2825   32.1202   51.3081 H   0  0  0  0  0  0  0  0  0  0  0  0
   57.4742   31.6830   49.7210 H   0  0  0  0  0  0  0  0  0  0  0  0
   58.4230   29.3360   50.8160 H   0  0  0  0  0  0  0  0  0  0  0  0
   57.2054   31.2070   52.7549 H   0  0  0  0  0  0  0  0  0  0  0  0
   56.5172   29.5339   52.6360 H   0  0  0  0  0  0  0  0  0  0  0  0
   58.7238   30.3237   54.1829 H   0  0  0  0  0  0  0  0  0  0  0  0
   58.2444   28.6394   53.7567 H   0  0  0  0  0  0  0  0  0  0  0  0
   59.4880   29.1290   51.6180 H   0  0  0  0  0  0  0  0  0  0  0  0
   60.4832   28.4533   54.2694 H   0  0  0  0  0  0  0  0  0  0  0  0
   60.3601   27.4608   52.7695 H   0  0  0  0  0  0  0  0  0  0  0  0
   62.5313   29.3279   53.6829 H   0  0  0  0  0  0  0  0  0  0  0  0
   62.6173   27.7678   52.7525 H   0  0  0  0  0  0  0  0  0  0  0  0
   61.4140   30.0280   51.3950 H   0  0  0  0  0  0  0  0  0  0  0  0
   62.2820   28.8060   50.8020 H   0  0  0  0  0  0  0  0  0  0  0  0
   61.2769   31.8759   51.4840 H   0  0  0  0  0  0  0  0  0  0  0  0
   61.2557   34.3449   51.2457 H   0  0  0  0  0  0  0  0  0  0  0  0
   63.3898   35.6039   51.0717 H   0  0  0  0  0  0  0  0  0  0  0  0
   65.5561   34.4153   51.2626 H   0  0  0  0  0  0  0  0  0  0  0  0
   67.1757   32.6423   53.1724 H   0  0  0  0  0  0  0  0  0  0  0  0
   67.9743   32.0903   51.6611 H   0  0  0  0  0  0  0  0  0  0  0  0
   66.9949   33.5961   51.6611 H   0  0  0  0  0  0  0  0  0  0  0  0
   68.1262   30.3608   51.4898 H   0  0  0  0  0  0  0  0  0  0  0  0
   68.2753   27.8846   51.4875 H   0  0  0  0  0  0  0  0  0  0  0  0
   66.2119   26.5107   51.6440 H   0  0  0  0  0  0  0  0  0  0  0  0
   63.9844   27.6016   51.6955 H   0  0  0  0  0  0  0  0  0  0  0  0
   58.3084   29.9088   46.2905 H   0  0  0  0  0  0  0  0  0  0  0  0
  1  2  1  0
  2  3  1  0
  3  4  1  0
  4  5  2  0
  5  6  1  0
  6  7  2  0
  7  8  1  0
  8  9  2  0
  9 10  1  0
 10 11  2  0
 11 12  1  0
 12 13  2  0
 13 14  1  0
 14 15  2  0
 15 16  1  0
 16 17  1  0
 17 18  1  0
 18 19  1  0
 19 20  1  0
 20 21  1  0
 21 22  1  0
 22 23  1  0
 23 24  1  0
 24 25  1  0
 25 26  1  0
 26 27  1  0
 27 28  1  0
 28 29  1  0
 29 30  2  0
 30 31  1  0
 31 32  2  0
 32 33  1  0
 33 34  2  0
 34 35  1  0
 35 36  1  0
 35 37  2  0
 37 38  1  0
 38 39  2  0
 39 40  1  0
 40 41  2  0
 41 42  1  0
 15 43  1  0
 43 44  2  0
 44  4  1  0
 43  7  1  0
 14  9  1  0
 42 28  2  0
 34 29  1  0
 42 37  1  0
  1 45  1  0
  1 46  1  0
  1 47  1  0
  2 48  1  0
  2 49  1  0
  5 50  1  0
  6 51  1  0
 10 52  1  0
 11 53  1  0
 12 54  1  0
 13 55  1  0
 16 56  1  0
 16 57  1  0
 17 58  1  0
 17 59  1  0
 18 60  1  0
 19 61  1  0
 19 62  1  0
 20 63  1  0
 20 64  1  0
 21 65  1  0
 22 66  1  0
 22 67  1  0
 23 68  1  0
 23 69  1  0
 24 70  1  0
 25 71  1  0
 25 72  1  0
 26 73  1  0
 26 74  1  0
 27 75  1  0
 27 76  1  0
 30 77  1  0
 31 78  1  0
 32 79  1  0
 33 80  1  0
 36 81  1  0
 36 82  1  0
 36 83  1  0
 38 84  1  0
 39 85  1  0
 40 86  1  0
 41 87  1  0
 44 88  1  0
M  CHG  2  27   1  35   1
M  END
>  <UniqueID>  (2) 
2

>  <SMILES>  (2) 
CCOc1ccc2nc3ccccc3c(CCNCCNCCNCC[NH2+]c3c4ccccc4[n+](C)c4ccccc34)c2c1

>  <Energy>  (2) 
132.88472872898973

>  <Genealogy>  (2) 
CCOc1ccc2nc3ccccc3c(CCNCCNCCNCC[NH2+]c3c4ccccc4[n+](C)c4ccccc34)c2c1 (protonated)
CCOc1ccc2nc3ccccc3c(CCNCCNCCNCC[NH2+]c3c4ccccc4[n+](C)c4ccccc34)c2c1 (3D coordinates assigned)
CCOc1ccc2nc3ccccc3c(CCNCCNCCNCC[NH2+]c3c4ccccc4[n+](C)c4ccccc34)c2c1 (optimized conformer: 132.88472872898973 kcal/mol)

>  <smiles>  (2) 
CCOc1ccc2nc3ccccc3c(CCNCCNCCNCCNc3c4ccccc4[n+](C)c4ccccc34)c2c1

>  <score_type>  (2) 
oracle

>  <origin>  (2) 
adg

>  <m_score__min__energy>  (2) 
-6.4900000000000002

>  <m_primary>  (2) 
energy

$$$$
2:0
     RDKit          3D

 64 66  0  0  0  0  0  0  0  0999 V2000
   56.5030   25.1510   46.6870 C   0  0  0  0  0  0  0  0  0  0  0  0
   55.6290   26.1910   46.0500 C   0  0  0  0  0  0  0  0  0  0  0  0
   54.3950   25.9630   45.9270 O   0  0  0  0  0  0  0  0  0  0  0  0
   56.1480   27.4550   45.6120 N   0  0  0  0  0  0  0  0  0  0  0  0
   57.5210   27.6970   45.1660 C   0  0  1  0  0  0  0  0  0  0  0  0
   57.7870   26.9410   43.8570 C   0  0  0  0  0  0  0  0  0  0  0  0
   57.7510   29.1970   45.0770 C   0  0  0  0  0  0  0  0  0  0  0  0
   58.8670   29.7380   45.7380 C   0  0  0  0  0  0  0  0  0  0  0  0
   59.1220   31.1110   45.7030 C   0  0  0  0  0  0  0  0  0  0  0  0
   58.2760   31.9750   45.0030 C   0  0  0  0  0  0  0  0  0  0  0  0
   58.6000   33.3400   44.9800 O   0  0  0  0  0  0  0  0  0  0  0  0
   58.9300   34.1380   46.1210 C   0  0  1  0  0  0  0  0  0  0  0  0
   58.2350   33.6310   47.3890 C   0  0  0  0  0  0  0  0  0  0  0  0
   59.2530   33.7830   48.5110 C   0  0  0  0  0  0  0  0  0  0  0  0
   60.5390   33.9520   47.8570 N   0  0  0  0  0  0  0  0  0  0  0  0
   61.7780   33.6610   48.5180 C   0  0  0  0  0  0  0  0  0  0  0  0
   62.2280   34.5150   49.4770 N   0  0  0  0  0  0  0  0  0  0  0  0
   63.3750   34.2920   50.1680 C   0  0  0  0  0  0  0  0  0  0  0  0
   64.1410   33.1530   49.9180 C   0  0  0  0  0  0  0  0  0  0  0  0
   65.3080   32.9570   50.6740 O   0  0  0  0  0  0  0  0  0  0  0  0
   66.4300   32.1620   50.2830 C   0  0  0  0  0  0  0  0  0  0  0  0
   67.1590   31.5890   51.5080 C   0  0  0  0  0  0  0  0  0  0  0  0
   66.6300   30.2550   51.8720 N   0  0  0  0  0  0  0  0  0  0  0  0
   67.3390   29.2070   51.1200 C   0  0  0  0  0  0  0  0  0  0  0  0
   65.1850   30.1630   51.5990 C   0  0  0  0  0  0  0  0  0  0  0  0
   63.7040   32.2530   48.9290 C   0  0  0  0  0  0  0  0  0  0  0  0
   62.5340   32.5120   48.2000 C   0  0  0  0  0  0  0  0  0  0  0  0
   62.1130   31.5500   47.1230 C   0  0  0  0  0  0  0  0  0  0  0  0
   60.4240   34.0360   46.4110 C   0  0  0  0  0  0  0  0  0  0  0  0
   57.1500   31.4460   44.3470 C   0  0  0  0  0  0  0  0  0  0  0  0
   56.8810   30.0740   44.3980 C   0  0  0  0  0  0  0  0  0  0  0  0
   56.4333   25.2339   47.7817 H   0  0  0  0  0  0  0  0  0  0  0  0
   56.1706   24.1505   46.3732 H   0  0  0  0  0  0  0  0  0  0  0  0
   57.5458   25.3061   46.3732 H   0  0  0  0  0  0  0  0  0  0  0  0
   58.2518   27.3052   45.8888 H   0  0  0  0  0  0  0  0  0  0  0  0
   58.1441   25.9261   44.0858 H   0  0  0  0  0  0  0  0  0  0  0  0
   56.8565   26.8795   43.2735 H   0  0  0  0  0  0  0  0  0  0  0  0
   58.5510   27.4757   43.2735 H   0  0  0  0  0  0  0  0  0  0  0  0
   59.5476   29.0726   46.2893 H   0  0  0  0  0  0  0  0  0  0  0  0
   59.9975   31.5159   46.2317 H   0  0  0  0  0  0  0  0  0  0  0  0
   58.6128   35.1643   45.8844 H   0  0  0  0  0  0  0  0  0  0  0  0
   57.3390   34.2328   47.6010 H   0  0  0  0  0  0  0  0  0  0  0  0
   57.9066   32.5869   47.2799 H   0  0  0  0  0  0  0  0  0  0  0  0
   59.0170   34.6641   49.1258 H   0  0  0  0  0  0  0  0  0  0  0  0
   59.2507   32.9108   49.1813 H   0  0  0  0  0  0  0  0  0  0  0  0
   63.7027   35.0142   50.9302 H   0  0  0  0  0  0  0  0  0  0  0  0
   66.0790   31.3312   49.6533 H   0  0  0  0  0  0  0  0  0  0  0  0
   67.1323   32.8004   49.7269 H   0  0  0  0  0  0  0  0  0  0  0  0
   68.2309   31.4990   51.2777 H   0  0  0  0  0  0  0  0  0  0  0  0
   66.9998   32.2698   52.3573 H   0  0  0  0  0  0  0  0  0  0  0  0
   67.8125   28.5071   51.8242 H   0  0  0  0  0  0  0  0  0  0  0  0
   66.6233   28.6621   50.4869 H   0  0  0  0  0  0  0  0  0  0  0  0
   68.1111   29.6686   50.4869 H   0  0  0  0  0  0  0  0  0  0  0  0
   64.6336   30.1279   52.5502 H   0  0  0  0  0  0  0  0  0  0  0  0
   64.8642   31.0425   51.0215 H   0  0  0  0  0  0  0  0  0  0  0  0
   64.9784   29.2499   51.0215 H   0  0  0  0  0  0  0  0  0  0  0  0
   64.2835   31.3403   48.7261 H   0  0  0  0  0  0  0  0  0  0  0  0
   61.7127   30.6352   47.5845 H   0  0  0  0  0  0  0  0  0  0  0  0
   61.3364   32.0157   46.4985 H   0  0  0  0  0  0  0  0  0  0  0  0
   62.9820   31.2955   46.4985 H   0  0  0  0  0  0  0  0  0  0  0  0
   60.9492   34.9266   46.0356 H   0  0  0  0  0  0  0  0  0  0  0  0
   60.8749   33.1630   45.9165 H   0  0  0  0  0  0  0  0  0  0  0  0
   56.4769   32.1149   43.7906 H   0  0  0  0  0  0  0  0  0  0  0  0
   55.9825   29.6760   43.9038 H   0  0  0  0  0  0  0  0  0  0  0  0
  1  2  1  0
  2  3  2  0
  2  4  1  0
  4  5  1  0
  5  6  1  0
  5  7  1  0
  7  8  2  0
  8  9  1  0
  9 10  2  0
 10 11  1  0
 11 12  1  0
 12 13  1  0
 13 14  1  0
 14 15  1  0
 15 16  1  0
 16 17  2  0
 17 18  1  0
 18 19  2  0
 19 20  1  0
 20 21  1  0
 21 22  1  0
 22 23  1  0
 23 24  1  0
 23 25  1  0
 19 26  1  0
 26 27  2  0
 27 28  1  0
 15 29  1  0
 10 30  1  0
 30 31  2  0
 31  7  1  0
 29 12  1  0
 27 16  1  0
  1 32  1  0
  1 33  1  0
  1 34  1  0
  5 35  1  1
  6 36  1  0
  6 37  1  0
  6 38  1  0
  8 39  1  0
  9 40  1  0
 12 41  1  6
 13 42  1  0
 13 43  1  0
 14 44  1  0
 14 45  1  0
 18 46  1  0
 21 47  1  0
 21 48  1  0
 22 49  1  0
 22 50  1  0
 24 51  1  0
 24 52  1  0
 24 53  1  0
 25 54  1  0
 25 55  1  0
 25 56  1  0
 26 57  1  0
 28 58  1  0
 28 59  1  0
 28 60  1  0
 29 61  1  0
 29 62  1  0
 30 63  1  0
 31 64  1  0
M  CHG  1   4  -1
M  END
>  <UniqueID>  (3) 
3

>  <SMILES>  (3) 
CC(=O)[N-][C@@H](C)c1ccc(O[C@H]2CCN(c3ncc(OCCN(C)C)cc3C)C2)cc1

>  <Energy>  (3) 
69.50649636764543

>  <Genealogy>  (3) 
CC(=O)[N-]C(C)c1ccc(OC2CCN(c3ncc(OCCN(C)C)cc3C)C2)cc1 (protonated)
CC(=O)[N-][C@@H](C)c1ccc(O[C@H]2CCN(c3ncc(OCCN(C)C)cc3C)C2)cc1 (chirality)
CC(=O)[N-][C@@H](C)c1ccc(O[C@H]2CCN(c3ncc(OCCN(C)C)cc3C)C2)cc1 (3D coordinates assigned)
CC(=O)[N-][C@@H](C)c1ccc(O[C@H]2CCN(c3ncc(OCCN(C)C)cc3C)C2)cc1 (nonaromatic ring conformer: 69.50649636764543 kcal/mol)

>  <smiles>  (3) 
CC(=O)NC(C)c1ccc(OC2CCN(c3ncc(OCCN(C)C)cc3C)C2)cc1

>  <score_type>  (3) 
oracle

>  <origin>  (3) 
adg

>  <m_score__min__energy>  (3) 
-10.48

>  <m_primary>  (3) 
energy

$$$$
3:0
     RDKit          3D

 69 71  0  0  0  0  0  0  0  0999 V2000
   62.9420   33.4380   46.6780 C   0  0  0  0  0  0  0  0  0  0  0  0
   63.4340   33.5950   48.1170 C   0  0  0  0  0  0  0  0  0  0  0  0
   63.1990   32.3310   48.9680 C   0  0  0  0  0  0  0  0  0  0  0  0
   61.8430   32.2650   49.5480 N   0  0  0  0  0  0  0  0  0  0  0  0
   61.3750   33.5840   50.0100 C   0  0  0  0  0  0  0  0  0  0  0  0
   60.4000   34.2010   48.9990 C   0  0  0  0  0  0  0  0  0  0  0  0
   59.2150   33.2670   48.7370 C   0  0  0  0  0  0  0  0  0  0  0  0
   59.5130   32.3960   47.6470 O   0  0  0  0  0  0  0  0  0  0  0  0
   58.8840   32.4030   46.3900 C   0  0  0  0  0  0  0  0  0  0  0  0
   58.6390   33.6180   45.7150 C   0  0  0  0  0  0  0  0  0  0  0  0
   58.9300   34.8350   46.3530 O   0  0  0  0  0  0  0  0  0  0  0  0
   59.9750   35.7260   45.9790 C   0  0  0  0  0  0  0  0  0  0  0  0
   58.0960   33.5910   44.4260 C   0  0  0  0  0  0  0  0  0  0  0  0
   57.7490   32.3900   43.8270 C   0  0  0  0  0  0  0  0  0  0  0  0
   57.8920   31.1590   44.5060 C   0  0  0  0  0  0  0  0  0  0  0  0
   58.4840   31.1650   45.8010 C   0  0  0  0  0  0  0  0  0  0  0  0
   58.6820   29.9230   46.4550 C   0  0  0  0  0  0  0  0  0  0  0  0
   59.1360   29.8630   47.8180 N   0  0  0  0  0  0  0  0  0  0  0  0
   60.3570   29.1440   48.1800 C   0  0  0  0  0  0  0  0  0  0  0  0
   60.6540   29.3030   49.6700 C   0  0  0  0  0  0  0  0  0  0  0  0
   60.0210   30.5240   50.1790 N   0  0  0  0  0  0  0  0  0  0  0  0
   58.8480   30.2330   51.0180 C   0  0  0  0  0  0  0  0  0  0  0  0
   57.9570   31.4610   51.2350 C   0  0  0  0  0  0  0  0  0  0  0  0
   58.4680   28.7240   45.7520 C   0  0  0  0  0  0  0  0  0  0  0  0
   58.8360   27.4800   46.3110 C   0  0  0  0  0  0  0  0  0  0  0  0
   58.6650   26.2980   45.5950 C   0  0  0  0  0  0  0  0  0  0  0  0
   58.1430   26.3340   44.3070 C   0  0  0  0  0  0  0  0  0  0  0  0
   57.7660   27.5500   43.7380 C   0  0  0  0  0  0  0  0  0  0  0  0
   57.8940   28.7670   44.4570 C   0  0  0  0  0  0  0  0  0  0  0  0
   57.4870   29.9720   43.9230 N   0  0  0  0  0  0  0  0  0  0  0  0
   56.6050   29.9910   42.7350 C   0  0  0  0  0  0  0  0  0  0  0  0
   61.8941   33.1036   46.6832 H   0  0  0  0  0  0  0  0  0  0  0  0
   63.0159   34.4044   46.1577 H   0  0  0  0  0  0  0  0  0  0  0  0
   63.5620   32.6931   46.1577 H   0  0  0  0  0  0  0  0  0  0  0  0
   64.5124   33.8112   48.0985 H   0  0  0  0  0  0  0  0  0  0  0  0
   62.8622   34.4151   48.5758 H   0  0  0  0  0  0  0  0  0  0  0  0
   63.3502   31.4472   48.3307 H   0  0  0  0  0  0  0  0  0  0  0  0
   63.9118   32.3631   49.8052 H   0  0  0  0  0  0  0  0  0  0  0  0
   61.1640   31.8640   48.8610 H   0  0  0  0  0  0  0  0  0  0  0  0
   61.8790   31.6230   50.3760 H   0  0  0  0  0  0  0  0  0  0  0  0
   60.8651   33.4671   50.9776 H   0  0  0  0  0  0  0  0  0  0  0  0
   62.2442   34.2502   50.1132 H   0  0  0  0  0  0  0  0  0  0  0  0
   60.0245   35.1549   49.3978 H   0  0  0  0  0  0  0  0  0  0  0  0
   60.9344   34.3625   48.0512 H   0  0  0  0  0  0  0  0  0  0  0  0
   59.0167   32.6683   49.6382 H   0  0  0  0  0  0  0  0  0  0  0  0
   58.3288   33.8688   48.4870 H   0  0  0  0  0  0  0  0  0  0  0  0
   60.4516   36.1323   46.8833 H   0  0  0  0  0  0  0  0  0  0  0  0
   60.7233   35.1837   45.3823 H   0  0  0  0  0  0  0  0  0  0  0  0
   59.5578   36.5506   45.3823 H   0  0  0  0  0  0  0  0  0  0  0  0
   57.9425   34.5342   43.8812 H   0  0  0  0  0  0  0  0  0  0  0  0
   57.3536   32.3953   42.8005 H   0  0  0  0  0  0  0  0  0  0  0  0
   58.6960   30.5020   48.5180 H   0  0  0  0  0  0  0  0  0  0  0  0
   60.2295   28.0761   47.9489 H   0  0  0  0  0  0  0  0  0  0  0  0
   61.1971   29.5606   47.6049 H   0  0  0  0  0  0  0  0  0  0  0  0
   60.2590   28.4331   50.2152 H   0  0  0  0  0  0  0  0  0  0  0  0
   61.7420   29.3718   49.8165 H   0  0  0  0  0  0  0  0  0  0  0  0
   59.7260   31.1190   49.3700 H   0  0  0  0  0  0  0  0  0  0  0  0
   58.2522   29.4477   50.5298 H   0  0  0  0  0  0  0  0  0  0  0  0
   59.2158   29.9110   52.0034 H   0  0  0  0  0  0  0  0  0  0  0  0
   57.8301   31.6359   52.3136 H   0  0  0  0  0  0  0  0  0  0  0  0
   58.4277   32.3417   50.7736 H   0  0  0  0  0  0  0  0  0  0  0  0
   56.9738   31.2868   50.7736 H   0  0  0  0  0  0  0  0  0  0  0  0
   59.2628   27.4446   47.3242 H   0  0  0  0  0  0  0  0  0  0  0  0
   58.9431   25.3353   46.0487 H   0  0  0  0  0  0  0  0  0  0  0  0
   58.0271   25.4013   43.7355 H   0  0  0  0  0  0  0  0  0  0  0  0
   57.3626   27.5663   42.7148 H   0  0  0  0  0  0  0  0  0  0  0  0
   55.5540   30.0136   43.0589 H   0  0  0  0  0  0  0  0  0  0  0  0
   56.8220   30.8847   42.1315 H   0  0  0  0  0  0  0  0  0  0  0  0
   56.7833   29.0888   42.1315 H   0  0  0  0  0  0  0  0  0  0  0  0
  1  2  1  0
  2  3  1  0
  3  4  1  0
  4  5  1  0
  5  6  1  0
  6  7  1  0
  7  8  1  0
  8  9  1  0
  9 10  2  0
 10 11  1  0
 11 12  1  0
 10 13  1  0
 13 14  2  0
 14 15  1  0
 15 16  2  0
 16 17  1  0
 17 18  1  0
 18 19  1  0
 19 20  1  0
 20 21  1  0
 21 22  1  0
 22 23  1  0
 17 24  2  0
 24 25  1  0
 25 26  2  0
 26 27  1  0
 27 28  2  0
 28 29  1  0
 29 30  2  0
 30 31  1  0
 16  9  1  0
 29 24  1  0
 30 15  1  0
  1 32  1  0
  1 33  1  0
  1 34  1  0
  2 35  1  0
  2 36  1  0
  3 37  1  0
  3 38  1  0
  4 39  1  0
  4 40  1  0
  5 41  1  0
  5 42  1  0
  6 43  1  0
  6 44  1  0
  7 45  1  0
  7 46  1  0
 12 47  1  0
 12 48  1  0
 12 49  1  0
 13 50  1  0
 14 51  1  0
 18 52  1  0
 19 53  1  0
 19 54  1  0
 20 55  1  0
 20 56  1  0
 21 57  1  0
 22 58  1  0
 22 59  1  0
 23 60  1  0
 23 61  1  0
 23 62  1  0
 25 63  1  0
 26 64  1  0
 27 65  1  0
 28 66  1  0
 31 67  1  0
 31 68  1  0
 31 69  1  0
M  CHG  2   4   1  30   1
M  END
>  <UniqueID>  (4) 
4

>  <SMILES>  (4) 
CCC[NH2+]CCCOc1c(OC)ccc2c1c(NCCNCC)c1ccccc1[n+]2C

>  <Energy>  (4) 
92.31658171286581

>  <Genealogy>  (4) 
CCC[NH2+]CCCOc1c(OC)ccc2c1c(NCCNCC)c1ccccc1[n+]2C (protonated)
CCC[NH2+]CCCOc1c(OC)ccc2c1c(NCCNCC)c1ccccc1[n+]2C (3D coordinates assigned)
CCC[NH2+]CCCOc1c(OC)ccc2c1c(NCCNCC)c1ccccc1[n+]2C (optimized conformer: 92.31658171286581 kcal/mol)

>  <smiles>  (4) 
CCCNCCCOc1c(OC)ccc2c1c(NCCNCC)c1ccccc1[n+]2C

>  <score_type>  (4) 
oracle

>  <origin>  (4) 
adg

>  <m_score__min__energy>  (4) 
-2.8900000000000001

>  <m_primary>  (4) 
energy

$$$$
4:0
     RDKit          3D

 63 65  0  0  0  0  0  0  0  0999 V2000
   63.3850   34.1740   47.7650 C   0  0  0  0  0  0  0  0  0  0  0  0
   63.3710   32.9700   46.8330 C   0  0  0  0  0  0  0  0  0  0  0  0
   63.5190   31.7310   47.6070 N   0  0  0  0  0  0  0  0  0  0  0  0
   63.4850   32.0330   49.0420 C   0  0  0  0  0  0  0  0  0  0  0  0
   62.6240   31.0090   49.7870 C   0  0  0  0  0  0  0  0  0  0  0  0
   61.1800   31.4970   50.0120 C   0  0  0  0  0  0  0  0  0  0  0  0
   60.1440   30.8210   49.0910 C   0  0  0  0  0  0  0  0  0  0  0  0
   60.5720   30.8520   47.6900 N   0  0  0  0  0  0  0  0  0  0  0  0
   59.6800   31.2580   46.6360 C   0  0  0  0  0  0  0  0  0  0  0  0
   59.5660   32.6170   46.2900 C   0  0  0  0  0  0  0  0  0  0  0  0
   60.1400   33.6200   47.0990 C   0  0  0  0  0  0  0  0  0  0  0  0
   60.0020   34.9650   46.7680 C   0  0  0  0  0  0  0  0  0  0  0  0
   59.2740   35.3340   45.6420 C   0  0  0  0  0  0  0  0  0  0  0  0
   58.6910   34.3600   44.8330 C   0  0  0  0  0  0  0  0  0  0  0  0
   58.8420   32.9810   45.1250 C   0  0  0  0  0  0  0  0  0  0  0  0
   58.2960   32.0030   44.3170 N   0  0  0  0  0  0  0  0  0  0  0  0
   57.8280   32.3430   42.9560 C   0  0  0  0  0  0  0  0  0  0  0  0
   58.2090   30.7010   44.7740 C   0  0  0  0  0  0  0  0  0  0  0  0
   57.4180   29.7340   44.1140 C   0  0  0  0  0  0  0  0  0  0  0  0
   57.3930   28.4070   44.5360 C   0  0  0  0  0  0  0  0  0  0  0  0
   58.1430   27.9830   45.6450 C   0  0  0  0  0  0  0  0  0  0  0  0
   58.1300   26.5890   46.0710 N   0  0  0  0  0  0  0  0  0  0  0  0
   56.9190   25.9710   46.6380 C   0  0  0  0  0  0  0  0  0  0  0  0
   57.2540   24.6540   47.3360 C   0  0  0  0  0  0  0  0  0  0  0  0
   59.3340   25.7460   45.9630 C   0  0  0  0  0  0  0  0  0  0  0  0
   60.5000   26.3590   46.7360 C   0  0  0  0  0  0  0  0  0  0  0  0
   58.8970   28.9500   46.3380 C   0  0  0  0  0  0  0  0  0  0  0  0
   58.9230   30.3020   45.9310 C   0  0  0  0  0  0  0  0  0  0  0  0
   63.3810   33.8292   48.8095 H   0  0  0  0  0  0  0  0  0  0  0  0
   64.2901   34.7709   47.5794 H   0  0  0  0  0  0  0  0  0  0  0  0
   62.4940   34.7918   47.5794 H   0  0  0  0  0  0  0  0  0  0  0  0
   62.4174   32.9450   46.2852 H   0  0  0  0  0  0  0  0  0  0  0  0
   64.2079   33.0538   46.1240 H   0  0  0  0  0  0  0  0  0  0  0  0
   64.4610   31.3270   47.3870 H   0  0  0  0  0  0  0  0  0  0  0  0
   64.5092   32.0038   49.4421 H   0  0  0  0  0  0  0  0  0  0  0  0
   63.0499   33.0332   49.1841 H   0  0  0  0  0  0  0  0  0  0  0  0
   62.5938   30.0801   49.1985 H   0  0  0  0  0  0  0  0  0  0  0  0
   63.0786   30.8497   50.7759 H   0  0  0  0  0  0  0  0  0  0  0  0
   60.9028   31.2903   51.0563 H   0  0  0  0  0  0  0  0  0  0  0  0
   61.1647   32.5715   49.7771 H   0  0  0  0  0  0  0  0  0  0  0  0
   60.0172   29.7739   49.4032 H   0  0  0  0  0  0  0  0  0  0  0  0
   59.1954   31.3715   49.1750 H   0  0  0  0  0  0  0  0  0  0  0  0
   61.5900   30.7380   47.4800 H   0  0  0  0  0  0  0  0  0  0  0  0
   60.7025   33.3363   48.0007 H   0  0  0  0  0  0  0  0  0  0  0  0
   60.4692   35.7366   47.3976 H   0  0  0  0  0  0  0  0  0  0  0  0
   59.1578   36.3982   45.3889 H   0  0  0  0  0  0  0  0  0  0  0  0
   58.1045   34.6662   43.9542 H   0  0  0  0  0  0  0  0  0  0  0  0
   56.9398   32.9883   43.0242 H   0  0  0  0  0  0  0  0  0  0  0  0
   58.6259   32.8734   42.4157 H   0  0  0  0  0  0  0  0  0  0  0  0
   57.5702   31.4202   42.4157 H   0  0  0  0  0  0  0  0  0  0  0  0
   56.8093   30.0355   43.2488 H   0  0  0  0  0  0  0  0  0  0  0  0
   56.7750   27.6782   43.9911 H   0  0  0  0  0  0  0  0  0  0  0  0
   56.4704   26.6612   47.3676 H   0  0  0  0  0  0  0  0  0  0  0  0
   56.2136   25.7651   45.8194 H   0  0  0  0  0  0  0  0  0  0  0  0
   57.2176   24.7971   48.4260 H   0  0  0  0  0  0  0  0  0  0  0  0
   56.5224   23.8869   47.0423 H   0  0  0  0  0  0  0  0  0  0  0  0
   58.2632   24.3297   47.0423 H   0  0  0  0  0  0  0  0  0  0  0  0
   59.1139   24.7495   46.3737 H   0  0  0  0  0  0  0  0  0  0  0  0
   59.6163   25.6709   44.9025 H   0  0  0  0  0  0  0  0  0  0  0  0
   60.3153   26.2619   47.8160 H   0  0  0  0  0  0  0  0  0  0  0  0
   61.4301   25.8333   46.4743 H   0  0  0  0  0  0  0  0  0  0  0  0
   60.5943   27.4233   46.4743 H   0  0  0  0  0  0  0  0  0  0  0  0
   59.4806   28.6442   47.2189 H   0  0  0  0  0  0  0  0  0  0  0  0
  1  2  1  0
  2  3  1  0
  3  4  1  0
  4  5  1  0
  5  6  1  0
  6  7  1  0
  7  8  1  0
  8  9  1  0
  9 10  2  0
 10 11  1  0
 11 12  2  0
 12 13  1  0
 13 14  2  0
 14 15  1  0
 15 16  2  0
 16 17  1  0
 16 18  1  0
 18 19  2  0
 19 20  1  0
 20 21  2  0
 21 22  1  0
 22 23  1  0
 23 24  1  0
 22 25  1  0
 25 26  1  0
 21 27  1  0
 27 28  2  0
 28  9  1  0
 15 10  1  0
 28 18  1  0
  1 29  1  0
  1 30  1  0
  1 31  1  0
  2 32  1  0
  2 33  1  0
  3 34  1  0
  4 35  1  0
  4 36  1  0
  5 37  1  0
  5 38  1  0
  6 39  1  0
  6 40  1  0
  7 41  1  0
  7 42  1  0
  8 43  1  0
 11 44  1  0
 12 45  1  0
 13 46  1  0
 14 47  1  0
 17 48  1  0
 17 49  1  0
 17 50  1  0
 19 51  1  0
 20 52  1  0
 23 53  1  0
 23 54  1  0
 24 55  1  0
 24 56  1  0
 24 57  1  0
 25 58  1  0
 25 59  1  0
 26 60  1  0
 26 61  1  0
 26 62  1  0
 27 63  1  0
M  CHG  1  16   1
M  END
>  <UniqueID>  (5) 
5

>  <SMILES>  (5) 
CCNCCCCNc1c2ccccc2[n+](C)c2ccc(N(CC)CC)cc12

>  <Energy>  (5) 
78.19782557797338

>  <Genealogy>  (5) 
CCNCCCCNc1c2ccccc2[n+](C)c2ccc(N(CC)CC)cc12 (3D coordinates assigned)
CCNCCCCNc1c2ccccc2[n+](C)c2ccc(N(CC)CC)cc12 (optimized conformer: 78.19782557797338 kcal/mol)

>  <smiles>  (5) 
CCNCCCCNc1c2ccccc2[n+](C)c2ccc(N(CC)CC)cc12

>  <score_type>  (5) 
oracle

>  <origin>  (5) 
adg

>  <m_score__min__energy>  (5) 
-6.7800000000000002

>  <m_primary>  (5) 
energy

$$$$
5:0
     RDKit          3D

 47 49  0  0  0  0  0  0  0  0999 V2000
   57.2080   32.3420   40.8530 C   0  0  0  0  0  0  0  0  0  0  0  0
   58.1280   32.2860   42.0660 C   0  0  0  0  0  0  0  0  0  0  0  0
   57.6650   31.2690   43.0180 N   0  0  0  0  0  0  0  0  0  0  0  0
   56.6430   30.2950   42.6200 C   0  0  0  0  0  0  0  0  0  0  0  0
   55.6760   30.0340   43.7700 C   0  0  0  0  0  0  0  0  0  0  0  0
   58.0310   31.3760   44.4050 C   0  0  0  0  0  0  0  0  0  0  0  0
   57.8210   32.5910   45.0710 C   0  0  0  0  0  0  0  0  0  0  0  0
   58.1830   32.7520   46.4190 C   0  0  0  0  0  0  0  0  0  0  0  0
   58.0150   34.0090   47.1020 N   0  0  0  0  0  0  0  0  0  0  0  0
   59.0810   34.9970   47.2800 C   0  0  0  0  0  0  0  0  0  0  0  0
   60.3970   34.3170   47.5540 C   0  0  0  0  0  0  0  0  0  0  0  0
   61.2720   33.9900   46.5060 C   0  0  0  0  0  0  0  0  0  0  0  0
   62.4750   33.3410   46.7800 C   0  0  0  0  0  0  0  0  0  0  0  0
   62.8010   33.0300   48.1000 C   0  0  0  0  0  0  0  0  0  0  0  0
   61.9520   33.3620   49.1110 N   0  0  0  0  0  0  0  0  0  0  0  0
   60.7700   33.9930   48.8670 C   0  0  0  0  0  0  0  0  0  0  0  0
   58.7280   31.6630   47.1120 C   0  0  0  0  0  0  0  0  0  0  0  0
   58.9430   30.4370   46.4670 C   0  0  0  0  0  0  0  0  0  0  0  0
   59.5080   29.3600   47.1700 C   0  0  0  0  0  0  0  0  0  0  0  0
   59.7430   28.1450   46.5220 C   0  0  0  0  0  0  0  0  0  0  0  0
   59.4210   27.9950   45.1730 C   0  0  0  0  0  0  0  0  0  0  0  0
   58.8570   29.0570   44.4610 C   0  0  0  0  0  0  0  0  0  0  0  0
   58.6020   30.2870   45.0990 C   0  0  0  0  0  0  0  0  0  0  0  0
   56.1623   32.4056   41.1885 H   0  0  0  0  0  0  0  0  0  0  0  0
   57.4533   33.2269   40.2473 H   0  0  0  0  0  0  0  0  0  0  0  0
   57.3441   31.4339   40.2473 H   0  0  0  0  0  0  0  0  0  0  0  0
   59.1469   32.0352   41.7359 H   0  0  0  0  0  0  0  0  0  0  0  0
   58.1203   33.2673   42.5631 H   0  0  0  0  0  0  0  0  0  0  0  0
   56.0833   30.6892   41.7590 H   0  0  0  0  0  0  0  0  0  0  0  0
   57.1381   29.3504   42.3507 H   0  0  0  0  0  0  0  0  0  0  0  0
   56.1985   30.1750   44.7276 H   0  0  0  0  0  0  0  0  0  0  0  0
   54.8319   30.7365   43.7059 H   0  0  0  0  0  0  0  0  0  0  0  0
   55.3000   29.0022   43.7059 H   0  0  0  0  0  0  0  0  0  0  0  0
   57.3651   33.4328   44.5293 H   0  0  0  0  0  0  0  0  0  0  0  0
   57.1020   34.2020   47.5730 H   0  0  0  0  0  0  0  0  0  0  0  0
   59.1702   35.6008   46.3649 H   0  0  0  0  0  0  0  0  0  0  0  0
   58.8291   35.6384   48.1374 H   0  0  0  0  0  0  0  0  0  0  0  0
   61.0085   34.2458   45.4691 H   0  0  0  0  0  0  0  0  0  0  0  0
   63.1613   33.0764   45.9621 H   0  0  0  0  0  0  0  0  0  0  0  0
   63.7467   32.5151   48.3247 H   0  0  0  0  0  0  0  0  0  0  0  0
   62.2100   33.1250   50.0940 H   0  0  0  0  0  0  0  0  0  0  0  0
   60.1042   34.2500   49.7040 H   0  0  0  0  0  0  0  0  0  0  0  0
   58.9903   31.7713   48.1748 H   0  0  0  0  0  0  0  0  0  0  0  0
   59.7660   29.4737   48.2333 H   0  0  0  0  0  0  0  0  0  0  0  0
   60.1834   27.3038   47.0773 H   0  0  0  0  0  0  0  0  0  0  0  0
   59.6118   27.0368   44.6676 H   0  0  0  0  0  0  0  0  0  0  0  0
   58.6107   28.9319   43.3963 H   0  0  0  0  0  0  0  0  0  0  0  0
  1  2  1  0
  2  3  1  0
  3  4  1  0
  4  5  1  0
  3  6  1  0
  6  7  2  0
  7  8  1  0
  8  9  1  0
  9 10  1  0
 10 11  1  0
 11 12  2  0
 12 13  1  0
 13 14  2  0
 14 15  1  0
 15 16  2  0
  8 17  2  0
 17 18  1  0
 18 19  2  0
 19 20  1  0
 20 21  2  0
 21 22  1  0
 22 23  2  0
 23  6  1  0
 16 11  1  0
 23 18  1  0
  1 24  1  0
  1 25  1  0
  1 26  1  0
  2 27  1  0
  2 28  1  0
  4 29  1  0
  4 30  1  0
  5 31  1  0
  5 32  1  0
  5 33  1  0
  7 34  1  0
  9 35  1  0
 10 36  1  0
 10 37  1  0
 12 38  1  0
 13 39  1  0
 14 40  1  0
 15 41  1  0
 16 42  1  0
 17 43  1  0
 19 44  1  0
 20 45  1  0
 21 46  1  0
 22 47  1  0
M  CHG  1  15   1
M  END
>  <UniqueID>  (6) 
6

>  <SMILES>  (6) 
CCN(CC)c1cc(NCc2ccc[nH+]c2)cc2ccccc12

>  <Energy>  (6) 
48.69062713206427

>  <Genealogy>  (6) 
CCN(CC)c1cc(NCc2ccc[nH+]c2)cc2ccccc12 (protonated)
CCN(CC)c1cc(NCc2ccc[nH+]c2)cc2ccccc12 (3D coordinates assigned)
CCN(CC)c1cc(NCc2ccc[nH+]c2)cc2ccccc12 (optimized conformer: 48.69062713206427 kcal/mol)

>  <smiles>  (6) 
CCN(CC)c1cc(NCc2cccnc2)cc2ccccc12

>  <score_type>  (6) 
oracle

>  <origin>  (6) 
adg

>  <m_score__min__energy>  (6) 
-6.2400000000000002

>  <m_primary>  (6) 
energy

$$$$
6:0
     RDKit          3D

 53 54  0  0  0  0  0  0  0  0999 V2000
   59.1060   28.7180   47.2280 C   0  0  0  0  0  0  0  0  0  0  0  0
   58.8870   27.2510   46.8690 C   0  0  0  0  0  0  0  0  0  0  0  0
   57.3930   26.9340   46.7110 C   0  0  0  0  0  0  0  0  0  0  0  0
   57.0910   26.5710   45.3080 N   0  0  0  0  0  0  0  0  0  0  0  0
   56.6020   25.1760   45.2020 C   0  0  0  0  0  0  0  0  0  0  0  0
   57.2330   24.4670   43.9960 C   0  0  0  0  0  0  0  0  0  0  0  0
   56.2830   23.4390   43.3820 C   0  0  0  0  0  0  0  0  0  0  0  0
   58.2490   26.8190   44.4120 C   0  0  0  0  0  0  0  0  0  0  0  0
   58.1970   28.2440   43.8560 C   0  0  0  0  0  0  0  0  0  0  0  0
   57.0140   28.9580   44.3550 N   0  0  0  0  0  0  0  0  0  0  0  0
   56.7110   30.1320   43.5260 C   0  0  0  0  0  0  0  0  0  0  0  0
   57.4200   31.3550   44.0610 C   0  0  0  0  0  0  0  0  0  0  0  0
   57.6290   31.4590   45.4430 C   0  0  0  0  0  0  0  0  0  0  0  0
   58.2980   32.5650   45.9760 C   0  0  0  0  0  0  0  0  0  0  0  0
   58.5140   32.6830   47.3570 C   0  0  0  0  0  0  0  0  0  0  0  0
   59.1870   33.7940   47.8800 C   0  0  0  0  0  0  0  0  0  0  0  0
   59.3760   33.8650   49.2680 O   0  0  0  0  0  0  0  0  0  0  0  0
   59.3000   32.7480   50.1470 C   0  0  0  0  0  0  0  0  0  0  0  0
   59.6490   34.7960   47.0040 C   0  0  0  0  0  0  0  0  0  0  0  0
   59.4370   34.6820   45.6270 C   0  0  0  0  0  0  0  0  0  0  0  0
   58.7630   33.5700   45.1020 C   0  0  0  0  0  0  0  0  0  0  0  0
   58.5580   33.4520   43.7600 N   0  0  0  0  0  0  0  0  0  0  0  0
   57.9080   32.3820   43.2210 C   0  0  0  0  0  0  0  0  0  0  0  0
   57.7080   32.3230   41.4720 Cl  0  0  0  0  0  0  0  0  0  0  0  0
   59.1226   28.8292   48.3222 H   0  0  0  0  0  0  0  0  0  0  0  0
   60.0649   29.0585   46.8103 H   0  0  0  0  0  0  0  0  0  0  0  0
   58.2883   29.3237   46.8103 H   0  0  0  0  0  0  0  0  0  0  0  0
   59.4020   27.0329   45.9218 H   0  0  0  0  0  0  0  0  0  0  0  0
   59.2903   26.6299   47.6824 H   0  0  0  0  0  0  0  0  0  0  0  0
   57.1289   26.0926   47.3685 H   0  0  0  0  0  0  0  0  0  0  0  0
   56.8072   27.8239   46.9846 H   0  0  0  0  0  0  0  0  0  0  0  0
   56.8665   24.6305   46.1199 H   0  0  0  0  0  0  0  0  0  0  0  0
   55.5103   25.1945   45.0684 H   0  0  0  0  0  0  0  0  0  0  0  0
   57.4860   25.2183   43.2334 H   0  0  0  0  0  0  0  0  0  0  0  0
   58.1327   23.9375   44.3425 H   0  0  0  0  0  0  0  0  0  0  0  0
   55.7724   22.8864   44.1844 H   0  0  0  0  0  0  0  0  0  0  0  0
   55.5369   23.9549   42.7598 H   0  0  0  0  0  0  0  0  0  0  0  0
   56.8561   22.7358   42.7598 H   0  0  0  0  0  0  0  0  0  0  0  0
   59.1817   26.6851   44.9795 H   0  0  0  0  0  0  0  0  0  0  0  0
   58.2111   26.1072   43.5742 H   0  0  0  0  0  0  0  0  0  0  0  0
   59.1025   28.7854   44.1673 H   0  0  0  0  0  0  0  0  0  0  0  0
   58.1392   28.1915   42.7588 H   0  0  0  0  0  0  0  0  0  0  0  0
   56.1960   28.3090   44.2740 H   0  0  0  0  0  0  0  0  0  0  0  0
   57.0439   29.9427   42.4948 H   0  0  0  0  0  0  0  0  0  0  0  0
   55.6260   30.3120   43.5471 H   0  0  0  0  0  0  0  0  0  0  0  0
   57.2645   30.6658   46.1123 H   0  0  0  0  0  0  0  0  0  0  0  0
   58.1516   31.8961   48.0348 H   0  0  0  0  0  0  0  0  0  0  0  0
   59.3239   33.0992   51.1891 H   0  0  0  0  0  0  0  0  0  0  0  0
   58.3626   32.2018   49.9656 H   0  0  0  0  0  0  0  0  0  0  0  0
   60.1548   32.0798   49.9656 H   0  0  0  0  0  0  0  0  0  0  0  0
   60.1791   35.6722   47.4055 H   0  0  0  0  0  0  0  0  0  0  0  0
   59.8012   35.4696   44.9509 H   0  0  0  0  0  0  0  0  0  0  0  0
   58.9070   34.1990   43.1170 H   0  0  0  0  0  0  0  0  0  0  0  0
  1  2  1  0
  2  3  1  0
  3  4  1  0
  4  5  1  0
  5  6  1  0
  6  7  1  0
  4  8  1  0
  8  9  1  0
  9 10  1  0
 10 11  1  0
 11 12  1  0
 12 13  2  0
 13 14  1  0
 14 15  2  0
 15 16  1  0
 16 17  1  0
 17 18  1  0
 16 19  2  0
 19 20  1  0
 20 21  2  0
 21 22  1  0
 22 23  2  0
 23 24  1  0
 23 12  1  0
 21 14  1  0
  1 25  1  0
  1 26  1  0
  1 27  1  0
  2 28  1  0
  2 29  1  0
  3 30  1  0
  3 31  1  0
  5 32  1  0
  5 33  1  0
  6 34  1  0
  6 35  1  0
  7 36  1  0
  7 37  1  0
  7 38  1  0
  8 39  1  0
  8 40  1  0
  9 41  1  0
  9 42  1  0
 10 43  1  0
 11 44  1  0
 11 45  1  0
 13 46  1  0
 15 47  1  0
 18 48  1  0
 18 49  1  0
 18 50  1  0
 19 51  1  0
 20 52  1  0
 22 53  1  0
M  CHG  1  22   1
M  END
>  <UniqueID>  (7) 
7

>  <SMILES>  (7) 
CCCN(CCC)CCNCc1cc2cc(OC)ccc2[nH+]c1Cl

>  <Energy>  (7) 
48.363124823846064

>  <Genealogy>  (7) 
CCCN(CCC)CCNCc1cc2cc(OC)ccc2[nH+]c1Cl (protonated)
CCCN(CCC)CCNCc1cc2cc(OC)ccc2[nH+]c1Cl (3D coordinates assigned)
CCCN(CCC)CCNCc1cc2cc(OC)ccc2[nH+]c1Cl (optimized conformer: 48.363124823846064 kcal/mol)

>  <smiles>  (7) 
CCCN(CCC)CCNCc1cc2cc(OC)ccc2nc1Cl

>  <score_type>  (7) 
oracle

>  <origin>  (7) 
adg

>  <m_score__min__energy>  (7) 
-5.4699999999999998

>  <m_primary>  (7) 
energy

$$$$
7:0
     RDKit          3D

 67 70  0  0  0  0  0  0  0  0999 V2000
   66.3990   32.5770   50.1200 C   0  0  0  0  0  0  0  0  0  0  0  0
   64.9840   32.4760   50.6910 C   0  0  0  0  0  0  0  0  0  0  0  0
   64.0350   33.4800   49.9880 C   0  0  0  0  0  0  0  0  0  0  0  0
   63.0540   32.8370   49.0850 N   0  0  0  0  0  0  0  0  0  0  0  0
   63.6890   32.2650   47.8790 C   0  0  0  0  0  0  0  0  0  0  0  0
   62.6920   31.3630   47.1210 C   0  0  0  0  0  0  0  0  0  0  0  0
   61.3990   31.3090   47.8360 N   0  0  0  0  0  0  0  0  0  0  0  0
   60.2870   31.3640   46.8900 C   0  0  0  0  0  0  0  0  0  0  0  0
   59.8510   30.1500   46.3320 C   0  0  0  0  0  0  0  0  0  0  0  0
   60.3990   28.8880   46.7400 C   0  0  0  0  0  0  0  0  0  0  0  0
   59.8920   27.6880   46.2460 C   0  0  0  0  0  0  0  0  0  0  0  0
   58.8740   27.6960   45.2930 C   0  0  0  0  0  0  0  0  0  0  0  0
   58.3630   28.8960   44.8180 C   0  0  0  0  0  0  0  0  0  0  0  0
   58.8070   30.1590   45.3330 C   0  0  0  0  0  0  0  0  0  0  0  0
   58.3090   31.3410   44.8350 N   0  0  0  0  0  0  0  0  0  0  0  0
   57.1830   31.3440   43.8650 C   0  0  0  0  0  0  0  0  0  0  0  0
   58.8700   32.5600   45.2330 C   0  0  0  0  0  0  0  0  0  0  0  0
   58.5920   33.7560   44.5220 C   0  0  0  0  0  0  0  0  0  0  0  0
   58.9700   34.9830   45.0040 C   0  0  0  0  0  0  0  0  0  0  0  0
   59.6220   35.0900   46.2120 C   0  0  0  0  0  0  0  0  0  0  0  0
   60.0160   33.9470   46.9230 C   0  0  0  0  0  0  0  0  0  0  0  0
   60.3140   34.1220   48.3240 N   0  0  0  0  0  0  0  0  0  0  0  0
   59.4930   33.7140   49.4860 C   0  0  0  0  0  0  0  0  0  0  0  0
   60.2520   32.9030   50.5570 C   0  0  0  0  0  0  0  0  0  0  0  0
   60.5700   31.4770   50.2000 N   0  0  0  0  0  0  0  0  0  0  0  0
   59.3190   30.7010   49.9890 C   0  0  0  0  0  0  0  0  0  0  0  0
   58.9910   29.9750   51.3020 C   0  0  0  0  0  0  0  0  0  0  0  0
   60.1200   30.3310   52.2550 C   0  0  0  0  0  0  0  0  0  0  0  0
   61.2310   30.7400   51.3260 C   0  0  0  0  0  0  0  0  0  0  0  0
   59.7940   32.6290   46.3690 C   0  0  0  0  0  0  0  0  0  0  0  0
   67.1245   32.6288   50.9452 H   0  0  0  0  0  0  0  0  0  0  0  0
   66.6091   31.6916   49.5020 H   0  0  0  0  0  0  0  0  0  0  0  0
   66.4812   33.4833   49.5020 H   0  0  0  0  0  0  0  0  0  0  0  0
   64.6055   31.4545   50.5387 H   0  0  0  0  0  0  0  0  0  0  0  0
   65.0185   32.7149   51.7642 H   0  0  0  0  0  0  0  0  0  0  0  0
   63.4838   34.0364   50.7604 H   0  0  0  0  0  0  0  0  0  0  0  0
   64.6628   34.1359   49.3670 H   0  0  0  0  0  0  0  0  0  0  0  0
   62.5790   32.0500   49.6040 H   0  0  0  0  0  0  0  0  0  0  0  0
   64.0129   33.0823   47.2179 H   0  0  0  0  0  0  0  0  0  0  0  0
   64.5551   31.6600   48.1853 H   0  0  0  0  0  0  0  0  0  0  0  0
   62.5312   31.7691   46.1114 H   0  0  0  0  0  0  0  0  0  0  0  0
   63.1075   30.3464   47.0579 H   0  0  0  0  0  0  0  0  0  0  0  0
   61.2710   31.9670   48.6780 H   0  0  0  0  0  0  0  0  0  0  0  0
   61.3540   30.4420   48.4180 H   0  0  0  0  0  0  0  0  0  0  0  0
   61.2342   28.8677   47.4555 H   0  0  0  0  0  0  0  0  0  0  0  0
   60.2960   26.7313   46.6088 H   0  0  0  0  0  0  0  0  0  0  0  0
   58.4729   26.7441   44.9148 H   0  0  0  0  0  0  0  0  0  0  0  0
   57.5987   28.8780   44.0271 H   0  0  0  0  0  0  0  0  0  0  0  0
   56.2283   31.3465   44.4114 H   0  0  0  0  0  0  0  0  0  0  0  0
   57.2460   32.2420   43.2328 H   0  0  0  0  0  0  0  0  0  0  0  0
   57.2412   30.4457   43.2328 H   0  0  0  0  0  0  0  0  0  0  0  0
   58.0603   33.6976   43.5608 H   0  0  0  0  0  0  0  0  0  0  0  0
   58.7505   35.8893   44.4206 H   0  0  0  0  0  0  0  0  0  0  0  0
   59.8370   36.0864   46.6255 H   0  0  0  0  0  0  0  0  0  0  0  0
   61.2460   33.6680   48.4750 H   0  0  0  0  0  0  0  0  0  0  0  0
   59.0962   34.6230   49.9616 H   0  0  0  0  0  0  0  0  0  0  0  0
   58.7061   33.0526   49.0943 H   0  0  0  0  0  0  0  0  0  0  0  0
   61.2019   33.4192   50.7599 H   0  0  0  0  0  0  0  0  0  0  0  0
   59.5760   32.8488   51.4231 H   0  0  0  0  0  0  0  0  0  0  0  0
   58.4969   31.3814   49.7220 H   0  0  0  0  0  0  0  0  0  0  0  0
   59.4488   29.9769   49.1712 H   0  0  0  0  0  0  0  0  0  0  0  0
   58.0265   30.3209   51.7021 H   0  0  0  0  0  0  0  0  0  0  0  0
   58.9062   28.8879   51.1573 H   0  0  0  0  0  0  0  0  0  0  0  0
   59.8320   31.1613   52.9165 H   0  0  0  0  0  0  0  0  0  0  0  0
   60.3979   29.5046   52.9257 H   0  0  0  0  0  0  0  0  0  0  0  0
   61.9442   31.3958   51.8468 H   0  0  0  0  0  0  0  0  0  0  0  0
   61.7973   29.8694   50.9634 H   0  0  0  0  0  0  0  0  0  0  0  0
  1  2  1  0
  2  3  1  0
  3  4  1  0
  4  5  1  0
  5  6  1  0
  6  7  1  0
  7  8  1  0
  8  9  2  0
  9 10  1  0
 10 11  2  0
 11 12  1  0
 12 13  2  0
 13 14  1  0
 14 15  2  0
 15 16  1  0
 15 17  1  0
 17 18  2  0
 18 19  1  0
 19 20  2  0
 20 21  1  0
 21 22  1  0
 22 23  1  0
 23 24  1  0
 24 25  1  0
 25 26  1  0
 26 27  1  0
 27 28  1  0
 28 29  1  0
 21 30  2  0
 30  8  1  0
 14  9  1  0
 30 17  1  0
 29 25  1  0
  1 31  1  0
  1 32  1  0
  1 33  1  0
  2 34  1  0
  2 35  1  0
  3 36  1  0
  3 37  1  0
  4 38  1  0
  5 39  1  0
  5 40  1  0
  6 41  1  0
  6 42  1  0
  7 43  1  0
  7 44  1  0
 10 45  1  0
 11 46  1  0
 12 47  1  0
 13 48  1  0
 16 49  1  0
 16 50  1  0
 16 51  1  0
 18 52  1  0
 19 53  1  0
 20 54  1  0
 22 55  1  0
 23 56  1  0
 23 57  1  0
 24 58  1  0
 24 59  1  0
 26 60  1  0
 26 61  1  0
 27 62  1  0
 27 63  1  0
 28 64  1  0
 28 65  1  0
 29 66  1  0
 29 67  1  0
M  CHG  2   7   1  15   1
M  END
>  <UniqueID>  (8) 
8

>  <SMILES>  (8) 
CCCNCC[NH2+]c1c2ccccc2[n+](C)c2cccc(NCCN3CCCC3)c12

>  <Energy>  (8) 
150.81680806762049

>  <Genealogy>  (8) 
CCCNCC[NH2+]c1c2ccccc2[n+](C)c2cccc(NCCN3CCCC3)c12 (protonated)
CCCNCC[NH2+]c1c2ccccc2[n+](C)c2cccc(NCCN3CCCC3)c12 (3D coordinates assigned)
CCCNCC[NH2+]c1c2ccccc2[n+](C)c2cccc(NCCN3CCCC3)c12 (nonaromatic ring conformer: 150.81680806762049 kcal/mol)

>  <smiles>  (8) 
CCCNCCNc1c2ccccc2[n+](C)c2cccc(NCCN3CCCC3)c12

>  <score_type>  (8) 
oracle

>  <origin>  (8) 
adg

>  <m_score__min__energy>  (8) 
-4.3499999999999996

>  <m_primary>  (8) 
energy

$$$$
8:0
     RDKit          3D

 53 55  0  0  0  0  0  0  0  0999 V2000
   57.0230   33.1610   45.6430 C   0  0  0  0  0  0  0  0  0  0  0  0
   58.0720   34.1530   45.1560 C   0  0  0  0  0  0  0  0  0  0  0  0
   59.2210   34.1570   46.0550 N   0  0  0  0  0  0  0  0  0  0  0  0
   59.1800   34.3530   47.3860 C   0  0  0  0  0  0  0  0  0  0  0  0
   60.4610   34.2140   47.8830 C   0  0  0  0  0  0  0  0  0  0  0  0
   60.8560   34.2010   49.3370 C   0  0  0  0  0  0  0  0  0  0  0  0
   60.6560   32.9060   50.0420 N   0  0  0  0  0  0  0  0  0  0  0  0
   61.6370   31.8460   49.6970 C   0  0  0  0  0  0  0  0  0  0  0  0
   61.1860   30.9020   48.5590 C   0  0  0  0  0  0  0  0  0  0  0  0
   59.8020   30.4240   48.7140 N   0  0  0  0  0  0  0  0  0  0  0  0
   59.6460   29.3790   49.7540 C   0  0  0  0  0  0  0  0  0  0  0  0
   60.1340   28.0350   49.2210 C   0  0  0  0  0  0  0  0  0  0  0  0
   59.2720   27.5810   48.1800 O   0  0  0  0  0  0  0  0  0  0  0  0
   59.1700   28.1780   46.9160 C   0  0  0  0  0  0  0  0  0  0  0  0
   60.3460   28.3800   46.1820 C   0  0  0  0  0  0  0  0  0  0  0  0
   60.2980   28.9670   44.9140 C   0  0  0  0  0  0  0  0  0  0  0  0
   59.0710   29.3650   44.3730 C   0  0  0  0  0  0  0  0  0  0  0  0
   57.8910   29.1710   45.0960 C   0  0  0  0  0  0  0  0  0  0  0  0
   56.2160   29.7170   44.3570 Br  0  0  0  0  0  0  0  0  0  0  0  0
   57.9360   28.5780   46.3640 C   0  0  0  0  0  0  0  0  0  0  0  0
   58.8770   31.5560   48.8740 C   0  0  0  0  0  0  0  0  0  0  0  0
   59.2520   32.4330   50.0760 C   0  0  0  0  0  0  0  0  0  0  0  0
   61.2320   33.8810   46.7760 C   0  0  0  0  0  0  0  0  0  0  0  0
   62.6600   33.4420   46.7770 C   0  0  0  0  0  0  0  0  0  0  0  0
   60.4510   33.8450   45.6780 N   0  0  0  0  0  0  0  0  0  0  0  0
   57.0114   33.1500   46.7429 H   0  0  0  0  0  0  0  0  0  0  0  0
   56.0330   33.4610   45.2689 H   0  0  0  0  0  0  0  0  0  0  0  0
   57.2672   32.1558   45.2689 H   0  0  0  0  0  0  0  0  0  0  0  0
   58.4020   33.8659   44.1467 H   0  0  0  0  0  0  0  0  0  0  0  0
   57.6300   35.1601   45.1358 H   0  0  0  0  0  0  0  0  0  0  0  0
   58.2810   34.5841   47.9763 H   0  0  0  0  0  0  0  0  0  0  0  0
   61.9230   34.4608   49.4010 H   0  0  0  0  0  0  0  0  0  0  0  0
   60.1939   34.9233   49.8370 H   0  0  0  0  0  0  0  0  0  0  0  0
   60.8690   33.1460   51.0410 H   0  0  0  0  0  0  0  0  0  0  0  0
   62.5744   32.3323   49.3890 H   0  0  0  0  0  0  0  0  0  0  0  0
   61.7518   31.2213   50.5951 H   0  0  0  0  0  0  0  0  0  0  0  0
   61.2637   31.4434   47.6046 H   0  0  0  0  0  0  0  0  0  0  0  0
   61.8413   30.0190   48.5887 H   0  0  0  0  0  0  0  0  0  0  0  0
   60.2366   29.6557   50.6398 H   0  0  0  0  0  0  0  0  0  0  0  0
   58.5832   29.2954   50.0252 H   0  0  0  0  0  0  0  0  0  0  0  0
   61.1541   28.1487   48.8256 H   0  0  0  0  0  0  0  0  0  0  0  0
   60.1307   27.2995   50.0390 H   0  0  0  0  0  0  0  0  0  0  0  0
   61.3139   28.0747   46.6062 H   0  0  0  0  0  0  0  0  0  0  0  0
   61.2255   29.1159   44.3416 H   0  0  0  0  0  0  0  0  0  0  0  0
   59.0349   29.8312   43.3773 H   0  0  0  0  0  0  0  0  0  0  0  0
   57.0059   28.4239   46.9308 H   0  0  0  0  0  0  0  0  0  0  0  0
   58.9054   32.1706   47.9622 H   0  0  0  0  0  0  0  0  0  0  0  0
   57.8687   31.1517   49.0471 H   0  0  0  0  0  0  0  0  0  0  0  0
   58.5884   33.3102   50.0886 H   0  0  0  0  0  0  0  0  0  0  0  0
   59.1388   31.8142   50.9784 H   0  0  0  0  0  0  0  0  0  0  0  0
   63.0098   33.3345   47.8143 H   0  0  0  0  0  0  0  0  0  0  0  0
   62.7469   32.4757   46.2587 H   0  0  0  0  0  0  0  0  0  0  0  0
   63.2747   34.1926   46.2587 H   0  0  0  0  0  0  0  0  0  0  0  0
  1  2  1  0
  2  3  1  0
  3  4  1  0
  4  5  2  0
  5  6  1  0
  6  7  1  0
  7  8  1  0
  8  9  1  0
  9 10  1  0
 10 11  1  0
 11 12  1  0
 12 13  1  0
 13 14  1  0
 14 15  2  0
 15 16  1  0
 16 17  2  0
 17 18  1  0
 18 19  1  0
 18 20  2  0
 10 21  1  0
 21 22  1  0
  5 23  1  0
 23 24  1  0
 23 25  2  0
 25  3  1  0
 22  7  1  0
 20 14  1  0
  1 26  1  0
  1 27  1  0
  1 28  1  0
  2 29  1  0
  2 30  1  0
  4 31  1  0
  6 32  1  0
  6 33  1  0
  7 34  1  0
  8 35  1  0
  8 36  1  0
  9 37  1  0
  9 38  1  0
 11 39  1  0
 11 40  1  0
 12 41  1  0
 12 42  1  0
 15 43  1  0
 16 44  1  0
 17 45  1  0
 20 46  1  0
 21 47  1  0
 21 48  1  0
 22 49  1  0
 22 50  1  0
 24 51  1  0
 24 52  1  0
 24 53  1  0
M  CHG  1   7   1
M  END
>  <UniqueID>  (9) 
9

>  <SMILES>  (9) 
CCn1cc(C[NH+]2CCN(CCOc3cccc(Br)c3)CC2)c(C)n1

>  <Energy>  (9) 
90.99328599013991

>  <Genealogy>  (9) 
CCn1cc(C[NH+]2CCN(CCOc3cccc(Br)c3)CC2)c(C)n1 (protonated)
CCn1cc(C[NH+]2CCN(CCOc3cccc(Br)c3)CC2)c(C)n1 (3D coordinates assigned)
CCn1cc(C[NH+]2CCN(CCOc3cccc(Br)c3)CC2)c(C)n1 (nonaromatic ring conformer: 90.99328599013991 kcal/mol)

>  <smiles>  (9) 
CCn1cc(CN2CCN(CCOc3cccc(Br)c3)CC2)c(C)n1

>  <score_type>  (9) 
oracle

>  <origin>  (9) 
adg

>  <m_score__min__energy>  (9) 
-6.2000000000000002

>  <m_primary>  (9) 
energy

$$$$
9:0
     RDKit          3D

 46 46  0  0  0  0  0  0  0  0999 V2000
   59.8950   34.5140   47.8590 C   0  0  0  0  0  0  0  0  0  0  0  0
   59.6350   34.8730   46.4050 C   0  0  0  0  0  0  0  0  0  0  0  0
   58.2930   34.5990   46.0920 O   0  0  0  0  0  0  0  0  0  0  0  0
   58.2930   33.7290   44.6000 S   0  0  0  0  0  0  0  0  0  0  0  0
   57.1290   32.4570   45.2090 C   0  0  0  0  0  0  0  0  0  0  0  0
   56.9470   31.3150   44.2120 C   0  0  0  0  0  0  0  0  0  0  0  0
   56.3710   30.2020   44.8640 O   0  0  0  0  0  0  0  0  0  0  0  0
   57.0670   29.0310   44.4980 C   0  0  0  0  0  0  0  0  0  0  0  0
   58.2980   28.8750   45.3830 C   0  0  0  0  0  0  0  0  0  0  0  0
   57.8890   28.5630   46.7000 O   0  0  0  0  0  0  0  0  0  0  0  0
   58.9540   27.9850   47.4300 C   0  0  0  0  0  0  0  0  0  0  0  0
   58.8220   26.4590   47.4690 C   0  0  0  0  0  0  0  0  0  0  0  0
   57.5490   26.0450   46.8770 N   0  0  0  0  0  0  0  0  0  0  0  0
   57.4210   25.0290   45.8610 C   0  0  0  0  0  0  0  0  0  0  0  0
   58.5390   24.2700   45.4680 C   0  0  0  0  0  0  0  0  0  0  0  0
   58.4090   23.2190   44.5580 C   0  0  0  0  0  0  0  0  0  0  0  0
   57.1550   22.8930   44.0210 C   0  0  0  0  0  0  0  0  0  0  0  0
   57.0160   21.8030   43.0910 N   0  0  0  0  0  0  0  0  0  0  0  0
   55.8980   21.5010   42.6260 O   0  0  0  0  0  0  0  0  0  0  0  0
   58.1110   21.0560   42.7190 O   0  0  0  0  0  0  0  0  0  0  0  0
   56.0360   23.6520   44.3990 C   0  0  0  0  0  0  0  0  0  0  0  0
   56.1560   24.7310   45.2990 C   0  0  0  0  0  0  0  0  0  0  0  0
   55.0000   25.5360   45.5910 N   0  0  0  0  0  0  0  0  0  0  0  0
   55.1360   26.7090   45.9960 O   0  0  0  0  0  0  0  0  0  0  0  0
   53.7560   24.9510   45.6820 O   0  0  0  0  0  0  0  0  0  0  0  0
   59.3758   35.2308   48.5122 H   0  0  0  0  0  0  0  0  0  0  0  0
   59.5212   33.4989   48.0585 H   0  0  0  0  0  0  0  0  0  0  0  0
   60.9761   34.5525   48.0585 H   0  0  0  0  0  0  0  0  0  0  0  0
   59.8377   35.9428   46.2487 H   0  0  0  0  0  0  0  0  0  0  0  0
   60.2938   34.2784   45.7551 H   0  0  0  0  0  0  0  0  0  0  0  0
   57.5168   32.0449   46.1523 H   0  0  0  0  0  0  0  0  0  0  0  0
   56.1501   32.9375   45.3536 H   0  0  0  0  0  0  0  0  0  0  0  0
   56.2862   31.6434   43.3963 H   0  0  0  0  0  0  0  0  0  0  0  0
   57.9268   31.0300   43.8011 H   0  0  0  0  0  0  0  0  0  0  0  0
   56.4098   28.1583   44.6266 H   0  0  0  0  0  0  0  0  0  0  0  0
   57.3785   29.1030   43.4455 H   0  0  0  0  0  0  0  0  0  0  0  0
   58.9309   28.0643   44.9928 H   0  0  0  0  0  0  0  0  0  0  0  0
   58.8707   29.8141   45.3873 H   0  0  0  0  0  0  0  0  0  0  0  0
   59.9070   28.2524   46.9501 H   0  0  0  0  0  0  0  0  0  0  0  0
   58.9235   28.3679   48.4607 H   0  0  0  0  0  0  0  0  0  0  0  0
   59.6498   26.0084   46.9018 H   0  0  0  0  0  0  0  0  0  0  0  0
   58.8564   26.1230   48.5159 H   0  0  0  0  0  0  0  0  0  0  0  0
   56.6830   26.4720   47.2760 H   0  0  0  0  0  0  0  0  0  0  0  0
   59.5293   24.5081   45.8836 H   0  0  0  0  0  0  0  0  0  0  0  0
   59.2970   22.6422   44.2599 H   0  0  0  0  0  0  0  0  0  0  0  0
   55.0481   23.4005   43.9858 H   0  0  0  0  0  0  0  0  0  0  0  0
  1  2  1  0
  2  3  1  0
  3  4  1  0
  4  5  1  0
  5  6  1  0
  6  7  1  0
  7  8  1  0
  8  9  1  0
  9 10  1  0
 10 11  1  0
 11 12  1  0
 12 13  1  0
 13 14  1  0
 14 15  2  0
 15 16  1  0
 16 17  2  0
 17 18  1  0
 18 19  2  0
 18 20  1  0
 17 21  1  0
 21 22  2  0
 22 23  1  0
 23 24  2  0
 23 25  1  0
 22 14  1  0
  1 26  1  0
  1 27  1  0
  1 28  1  0
  2 29  1  0
  2 30  1  0
  5 31  1  0
  5 32  1  0
  6 33  1  0
  6 34  1  0
  8 35  1  0
  8 36  1  0
  9 37  1  0
  9 38  1  0
 11 39  1  0
 11 40  1  0
 12 41  1  0
 12 42  1  0
 13 43  1  0
 15 44  1  0
 16 45  1  0
 21 46  1  0
M  CHG  4  18   1  20  -1  23   1  25  -1
M  END
>  <UniqueID>  (10) 
10

>  <SMILES>  (10) 
CCOSCCOCCOCCNc1ccc([N+](=O)[O-])cc1[N+](=O)[O-]

>  <Energy>  (10) 
41.850510215813166

>  <Genealogy>  (10) 
CCOSCCOCCOCCNc1ccc([N+](=O)[O-])cc1[N+](=O)[O-] (3D coordinates assigned)
CCOSCCOCCOCCNc1ccc([N+](=O)[O-])cc1[N+](=O)[O-] (optimized conformer: 41.850510215813166 kcal/mol)

>  <smiles>  (10) 
CCOSCCOCCOCCNc1ccc([N+](=O)[O-])cc1[N+](=O)[O-]

>  <score_type>  (10) 
oracle

>  <origin>  (10) 
adg

>  <m_score__min__energy>  (10) 
-7

>  <m_primary>  (10) 
energy

$$$$
10:0
     RDKit          3D

 37 38  0  0  0  0  0  0  0  0999 V2000
   57.2400   29.2560   43.3850 C   0  0  0  0  0  0  0  0  0  0  0  0
   57.7860   30.3650   44.2410 C   0  0  0  0  0  0  0  0  0  0  0  0
   58.1040   30.1180   45.5850 C   0  0  0  0  0  0  0  0  0  0  0  0
   58.6160   31.1330   46.4010 C   0  0  0  0  0  0  0  0  0  0  0  0
   59.0380   30.6800   48.2180 Br  0  0  0  0  0  0  0  0  0  0  0  0
   58.8110   32.4260   45.8720 C   0  0  0  0  0  0  0  0  0  0  0  0
   59.4770   33.7450   46.8520 S   0  0  0  0  0  0  0  0  0  0  0  0
   58.5540   34.0020   48.0110 O   0  0  0  0  0  0  0  0  0  0  0  0
   59.5480   34.9980   46.0240 O   0  0  0  0  0  0  0  0  0  0  0  0
   61.0760   33.3250   47.4340 N   0  0  0  0  0  0  0  0  0  0  0  0
   61.3540   33.9930   48.7330 C   0  0  0  0  0  0  0  0  0  0  0  0
   62.2390   33.1880   49.7140 C   0  0  0  0  0  0  0  0  0  0  0  0
   63.7120   32.9680   49.2850 C   0  0  0  0  0  0  0  0  0  0  0  0
   64.1280   33.6610   47.9760 C   0  0  0  0  0  0  0  0  0  0  0  0
   63.4830   33.0710   46.7030 C   0  0  0  0  0  0  0  0  0  0  0  0
   62.0680   33.5810   46.3660 C   0  0  0  0  0  0  0  0  0  0  0  0
   58.5010   32.6690   44.5260 C   0  0  0  0  0  0  0  0  0  0  0  0
   57.9900   31.6520   43.7130 C   0  0  0  0  0  0  0  0  0  0  0  0
   57.5930   32.0670   41.8810 Br  0  0  0  0  0  0  0  0  0  0  0  0
   56.8461   28.4558   44.0289 H   0  0  0  0  0  0  0  0  0  0  0  0
   56.4315   29.6471   42.7499 H   0  0  0  0  0  0  0  0  0  0  0  0
   58.0430   28.8537   42.7499 H   0  0  0  0  0  0  0  0  0  0  0  0
   57.9487   29.1125   46.0031 H   0  0  0  0  0  0  0  0  0  0  0  0
   61.0630   32.2940   47.6100 H   0  0  0  0  0  0  0  0  0  0  0  0
   61.8600   34.9469   48.5232 H   0  0  0  0  0  0  0  0  0  0  0  0
   60.3794   34.1111   49.2292 H   0  0  0  0  0  0  0  0  0  0  0  0
   62.2459   33.7224   50.6754 H   0  0  0  0  0  0  0  0  0  0  0  0
   61.7921   32.1838   49.7568 H   0  0  0  0  0  0  0  0  0  0  0  0
   64.3600   33.3455   50.0898 H   0  0  0  0  0  0  0  0  0  0  0  0
   63.8169   31.8882   49.1032 H   0  0  0  0  0  0  0  0  0  0  0  0
   63.8445   34.7216   48.0442 H   0  0  0  0  0  0  0  0  0  0  0  0
   65.2128   33.5099   47.8745 H   0  0  0  0  0  0  0  0  0  0  0  0
   64.1383   33.3088   45.8521 H   0  0  0  0  0  0  0  0  0  0  0  0
   63.3724   31.9940   46.8975 H   0  0  0  0  0  0  0  0  0  0  0  0
   62.1213   34.6661   46.1937 H   0  0  0  0  0  0  0  0  0  0  0  0
   61.7310   33.0319   45.4744 H   0  0  0  0  0  0  0  0  0  0  0  0
   58.6618   33.6722   44.1043 H   0  0  0  0  0  0  0  0  0  0  0  0
  1  2  1  0
  2  3  2  0
  3  4  1  0
  4  5  1  0
  4  6  2  0
  6  7  1  0
  7  8  2  0
  7  9  2  0
  7 10  1  0
 10 11  1  0
 11 12  1  0
 12 13  1  0
 13 14  1  0
 14 15  1  0
 15 16  1  0
  6 17  1  0
 17 18  2  0
 18 19  1  0
 18  2  1  0
 16 10  1  0
  1 20  1  0
  1 21  1  0
  1 22  1  0
  3 23  1  0
 10 24  1  0
 11 25  1  0
 11 26  1  0
 12 27  1  0
 12 28  1  0
 13 29  1  0
 13 30  1  0
 14 31  1  0
 14 32  1  0
 15 33  1  0
 15 34  1  0
 16 35  1  0
 16 36  1  0
 17 37  1  0
M  CHG  1  10   1
M  END
>  <UniqueID>  (11) 
11

>  <SMILES>  (11) 
Cc1cc(Br)c(S(=O)(=O)[NH+]2CCCCCC2)cc1Br

>  <Energy>  (11) 
50.51823743845418

>  <Genealogy>  (11) 
Cc1cc(Br)c(S(=O)(=O)[NH+]2CCCCCC2)cc1Br (protonated)
Cc1cc(Br)c(S(=O)(=O)[NH+]2CCCCCC2)cc1Br (3D coordinates assigned)
Cc1cc(Br)c(S(=O)(=O)[NH+]2CCCCCC2)cc1Br (nonaromatic ring conformer: 50.51823743845418 kcal/mol)

>  <smiles>  (11) 
Cc1cc(Br)c(S(=O)(=O)N2CCCCCC2)cc1Br

>  <score_type>  (11) 
oracle

>  <origin>  (11) 
adg

>  <m_score__min__energy>  (11) 
-5.1100000000000003

>  <m_primary>  (11) 
energy

$$$$
11:0
     RDKit          3D

 72 75  0  0  0  0  0  0  0  0999 V2000
   59.6770   33.8220   50.3640 C   0  0  0  0  0  0  0  0  0  0  0  0
   59.1570   32.4110   50.1420 C   0  0  0  0  0  0  0  0  0  0  0  0
   60.2350   31.5710   49.7840 O   0  0  0  0  0  0  0  0  0  0  0  0
   59.8730   30.2250   50.0010 C   0  0  0  0  0  0  0  0  0  0  0  0
   59.7050   29.5290   48.6530 C   0  0  0  0  0  0  0  0  0  0  0  0
   60.2140   30.3660   47.5630 N   0  0  0  0  0  0  0  0  0  0  0  0
   59.4830   30.5340   46.3360 C   0  0  0  0  0  0  0  0  0  0  0  0
   59.1000   29.3920   45.6110 C   0  0  0  0  0  0  0  0  0  0  0  0
   59.5800   28.1140   45.9730 C   0  0  0  0  0  0  0  0  0  0  0  0
   59.1590   26.9750   45.2940 C   0  0  0  0  0  0  0  0  0  0  0  0
   58.2420   27.0830   44.2560 C   0  0  0  0  0  0  0  0  0  0  0  0
   57.7560   28.3330   43.8770 C   0  0  0  0  0  0  0  0  0  0  0  0
   58.1970   29.5200   44.5230 C   0  0  0  0  0  0  0  0  0  0  0  0
   57.7390   30.7660   44.1440 N   0  0  0  0  0  0  0  0  0  0  0  0
   56.9880   30.9230   42.8770 C   0  0  0  0  0  0  0  0  0  0  0  0
   58.0140   31.8750   44.9230 C   0  0  0  0  0  0  0  0  0  0  0  0
   57.3240   33.0970   44.7340 C   0  0  0  0  0  0  0  0  0  0  0  0
   57.6700   34.2360   45.4510 C   0  0  0  0  0  0  0  0  0  0  0  0
   58.7320   34.2040   46.3420 C   0  0  0  0  0  0  0  0  0  0  0  0
   59.4210   33.0090   46.5900 C   0  0  0  0  0  0  0  0  0  0  0  0
   60.6340   33.0510   47.3660 N   0  0  0  0  0  0  0  0  0  0  0  0
   61.8760   33.6600   46.8910 C   0  0  0  0  0  0  0  0  0  0  0  0
   63.0510   32.7060   47.1290 C   0  0  0  0  0  0  0  0  0  0  0  0
   64.1370   33.2240   48.1160 C   0  0  0  0  0  0  0  0  0  0  0  0
   63.9260   33.0020   49.5930 N   0  0  0  0  0  0  0  0  0  0  0  0
   62.9650   33.9970   50.1450 C   0  0  0  0  0  0  0  0  0  0  0  0
   63.3150   31.6350   49.7630 C   0  0  0  0  0  0  0  0  0  0  0  0
   63.6230   30.9940   51.1270 C   0  0  0  0  0  0  0  0  0  0  0  0
   65.1320   30.7710   51.2980 C   0  0  0  0  0  0  0  0  0  0  0  0
   65.9670   31.7750   50.4880 C   0  0  0  0  0  0  0  0  0  0  0  0
   65.2280   33.1160   50.3410 C   0  0  0  0  0  0  0  0  0  0  0  0
   58.9900   31.8050   45.9560 C   0  0  0  0  0  0  0  0  0  0  0  0
   59.7501   34.0202   51.4435 H   0  0  0  0  0  0  0  0  0  0  0  0
   60.6714   33.9228   49.9046 H   0  0  0  0  0  0  0  0  0  0  0  0
   58.9859   34.5440   49.9046 H   0  0  0  0  0  0  0  0  0  0  0  0
   58.6927   32.0399   51.0676 H   0  0  0  0  0  0  0  0  0  0  0  0
   58.4077   32.4151   49.3367 H   0  0  0  0  0  0  0  0  0  0  0  0
   60.6605   29.7207   50.5803 H   0  0  0  0  0  0  0  0  0  0  0  0
   58.9271   30.1815   50.5608 H   0  0  0  0  0  0  0  0  0  0  0  0
   60.2601   28.5794   48.6667 H   0  0  0  0  0  0  0  0  0  0  0  0
   58.6335   29.3465   48.4838 H   0  0  0  0  0  0  0  0  0  0  0  0
   61.1730   30.7700   47.6420 H   0  0  0  0  0  0  0  0  0  0  0  0
   60.2960   28.0179   46.8025 H   0  0  0  0  0  0  0  0  0  0  0  0
   59.5525   25.9882   45.5792 H   0  0  0  0  0  0  0  0  0  0  0  0
   57.8984   26.1791   43.7316 H   0  0  0  0  0  0  0  0  0  0  0  0
   57.0184   28.4023   43.0639 H   0  0  0  0  0  0  0  0  0  0  0  0
   55.9337   31.1434   43.1006 H   0  0  0  0  0  0  0  0  0  0  0  0
   57.4201   31.7502   42.2948 H   0  0  0  0  0  0  0  0  0  0  0  0
   57.0525   29.9920   42.2948 H   0  0  0  0  0  0  0  0  0  0  0  0
   56.4999   33.1455   44.0071 H   0  0  0  0  0  0  0  0  0  0  0  0
   57.0995   35.1661   45.3113 H   0  0  0  0  0  0  0  0  0  0  0  0
   59.0367   35.1257   46.8593 H   0  0  0  0  0  0  0  0  0  0  0  0
   60.6540   32.5700   48.2920 H   0  0  0  0  0  0  0  0  0  0  0  0
   61.7901   33.8710   45.8148 H   0  0  0  0  0  0  0  0  0  0  0  0
   62.0531   34.5958   47.4413 H   0  0  0  0  0  0  0  0  0  0  0  0
   62.6485   31.7641   47.5300 H   0  0  0  0  0  0  0  0  0  0  0  0
   63.5525   32.5916   46.1567 H   0  0  0  0  0  0  0  0  0  0  0  0
   65.0837   32.7337   47.8450 H   0  0  0  0  0  0  0  0  0  0  0  0
   64.1100   34.3175   47.9995 H   0  0  0  0  0  0  0  0  0  0  0  0
   62.9954   33.9655   51.2441 H   0  0  0  0  0  0  0  0  0  0  0  0
   63.2409   35.0041   49.7993 H   0  0  0  0  0  0  0  0  0  0  0  0
   61.9489   33.7562   49.7993 H   0  0  0  0  0  0  0  0  0  0  0  0
   62.2237   31.7253   49.6585 H   0  0  0  0  0  0  0  0  0  0  0  0
   63.7539   30.9848   48.9919 H   0  0  0  0  0  0  0  0  0  0  0  0
   63.2641   31.6585   51.9267 H   0  0  0  0  0  0  0  0  0  0  0  0
   63.1150   30.0198   51.1807 H   0  0  0  0  0  0  0  0  0  0  0  0
   65.3866   30.8774   52.3628 H   0  0  0  0  0  0  0  0  0  0  0  0
   65.3666   29.7624   50.9268 H   0  0  0  0  0  0  0  0  0  0  0  0
   66.9234   31.9461   51.0039 H   0  0  0  0  0  0  0  0  0  0  0  0
   66.1391   31.3583   49.4846 H   0  0  0  0  0  0  0  0  0  0  0  0
   65.0193   33.5112   51.3461 H   0  0  0  0  0  0  0  0  0  0  0  0
   65.8798   33.7841   49.7588 H   0  0  0  0  0  0  0  0  0  0  0  0
  1  2  1  0
  2  3  1  0
  3  4  1  0
  4  5  1  0
  5  6  1  0
  6  7  1  0
  7  8  2  0
  8  9  1  0
  9 10  2  0
 10 11  1  0
 11 12  2  0
 12 13  1  0
 13 14  2  0
 14 15  1  0
 14 16  1  0
 16 17  2  0
 17 18  1  0
 18 19  2  0
 19 20  1  0
 20 21  1  0
 21 22  1  0
 22 23  1  0
 23 24  1  0
 24 25  1  0
 25 26  1  0
 25 27  1  0
 27 28  1  0
 28 29  1  0
 29 30  1  0
 30 31  1  0
 20 32  2  0
 32  7  1  0
 13  8  1  0
 32 16  1  0
 31 25  1  0
  1 33  1  0
  1 34  1  0
  1 35  1  0
  2 36  1  0
  2 37  1  0
  4 38  1  0
  4 39  1  0
  5 40  1  0
  5 41  1  0
  6 42  1  0
  9 43  1  0
 10 44  1  0
 11 45  1  0
 12 46  1  0
 15 47  1  0
 15 48  1  0
 15 49  1  0
 17 50  1  0
 18 51  1  0
 19 52  1  0
 21 53  1  0
 22 54  1  0
 22 55  1  0
 23 56  1  0
 23 57  1  0
 24 58  1  0
 24 59  1  0
 26 60  1  0
 26 61  1  0
 26 62  1  0
 27 63  1  0
 27 64  1  0
 28 65  1  0
 28 66  1  0
 29 67  1  0
 29 68  1  0
 30 69  1  0
 30 70  1  0
 31 71  1  0
 31 72  1  0
M  CHG  2  14   1  25   1
M  END
>  <UniqueID>  (12) 
12

>  <SMILES>  (12) 
CCOCCNc1c2ccccc2[n+](C)c2cccc(NCCC[N+]3(C)CCCCC3)c12

>  <Energy>  (12) 
122.28119924553091

>  <Genealogy>  (12) 
CCOCCNc1c2ccccc2[n+](C)c2cccc(NCCC[N+]3(C)CCCCC3)c12 (3D coordinates assigned)
CCOCCNc1c2ccccc2[n+](C)c2cccc(NCCC[N+]3(C)CCCCC3)c12 (nonaromatic ring conformer: 122.28119924553091 kcal/mol)

>  <smiles>  (12) 
CCOCCNc1c2ccccc2[n+](C)c2cccc(NCCC[N+]3(C)CCCCC3)c12

>  <score_type>  (12) 
oracle

>  <origin>  (12) 
adg

>  <m_score__min__energy>  (12) 
-4.7800000000000002

>  <m_primary>  (12) 
energy

$$$$
12:0
     RDKit          3D

 68 70  0  0  0  0  0  0  0  0999 V2000
   59.6270   35.2850   46.7060 C   0  0  0  0  0  0  0  0  0  0  0  0
   58.4490   34.3670   46.4210 C   0  0  0  0  0  0  0  0  0  0  0  0
   58.9240   33.1470   45.9080 O   0  0  0  0  0  0  0  0  0  0  0  0
   57.8240   32.4510   45.5180 N   0  0  0  0  0  0  0  0  0  0  0  0
   57.7510   32.5160   44.0580 C   0  0  0  0  0  0  0  0  0  0  0  0
   57.4720   31.1280   43.4710 C   0  0  0  0  0  0  0  0  0  0  0  0
   56.3250   30.4230   44.2080 C   0  0  0  0  0  0  0  0  0  0  0  0
   56.7320   29.0120   44.6520 C   0  0  0  0  0  0  0  0  0  0  0  0
   58.1080   28.5850   44.1130 C   0  0  0  0  0  0  0  0  0  0  0  0
   58.6400   27.2740   44.7270 C   0  0  0  0  0  0  0  0  0  0  0  0
   59.8380   27.5320   45.5410 N   0  0  0  0  0  0  0  0  0  0  0  0
   60.1040   28.9710   45.6690 C   0  0  0  0  0  0  0  0  0  0  0  0
   60.3960   29.3290   47.1350 C   0  0  0  0  0  0  0  0  0  0  0  0
   59.1960   30.0060   47.8330 C   0  0  0  0  0  0  0  0  0  0  0  0
   59.1680   31.4720   47.6450 N   0  0  0  0  0  0  0  0  0  0  0  0
   59.9310   32.1790   48.6680 C   0  0  0  0  0  0  0  0  0  0  0  0
   59.4180   32.3740   49.9870 C   0  0  0  0  0  0  0  0  0  0  0  0
   58.0900   32.0220   50.3530 C   0  0  0  0  0  0  0  0  0  0  0  0
   57.6060   32.2560   51.6360 C   0  0  0  0  0  0  0  0  0  0  0  0
   58.4110   32.8580   52.5870 C   0  0  0  0  0  0  0  0  0  0  0  0
   59.7190   33.2040   52.2710 C   0  0  0  0  0  0  0  0  0  0  0  0
   60.2630   32.9370   50.9870 C   0  0  0  0  0  0  0  0  0  0  0  0
   61.5830   33.2210   50.7090 N   0  0  0  0  0  0  0  0  0  0  0  0
   62.5370   33.4700   51.8140 C   0  0  0  0  0  0  0  0  0  0  0  0
   62.0260   33.2420   49.4040 C   0  0  0  0  0  0  0  0  0  0  0  0
   63.2750   33.8240   49.0650 C   0  0  0  0  0  0  0  0  0  0  0  0
   63.7630   33.7760   47.7630 C   0  0  0  0  0  0  0  0  0  0  0  0
   63.0230   33.1580   46.7670 C   0  0  0  0  0  0  0  0  0  0  0  0
   61.7730   32.6180   47.0570 C   0  0  0  0  0  0  0  0  0  0  0  0
   61.2330   32.6760   48.3680 C   0  0  0  0  0  0  0  0  0  0  0  0
   59.7577   35.3869   47.7934 H   0  0  0  0  0  0  0  0  0  0  0  0
   60.5398   34.8577   46.2654 H   0  0  0  0  0  0  0  0  0  0  0  0
   59.4357   36.2746   46.2654 H   0  0  0  0  0  0  0  0  0  0  0  0
   57.8932   34.1826   47.3522 H   0  0  0  0  0  0  0  0  0  0  0  0
   57.7819   34.8410   45.6860 H   0  0  0  0  0  0  0  0  0  0  0  0
   56.9920   32.9530   45.9060 H   0  0  0  0  0  0  0  0  0  0  0  0
   56.9416   33.2015   43.7664 H   0  0  0  0  0  0  0  0  0  0  0  0
   58.7142   32.8788   43.6699 H   0  0  0  0  0  0  0  0  0  0  0  0
   57.2013   31.2368   42.4104 H   0  0  0  0  0  0  0  0  0  0  0  0
   58.3802   30.5177   43.5841 H   0  0  0  0  0  0  0  0  0  0  0  0
   56.0527   31.0133   45.0953 H   0  0  0  0  0  0  0  0  0  0  0  0
   55.4707   30.3378   43.5203 H   0  0  0  0  0  0  0  0  0  0  0  0
   56.7627   28.9858   45.7513 H   0  0  0  0  0  0  0  0  0  0  0  0
   55.9877   28.3118   44.2448 H   0  0  0  0  0  0  0  0  0  0  0  0
   58.0268   28.4497   43.0244 H   0  0  0  0  0  0  0  0  0  0  0  0
   58.8189   29.3781   44.3880 H   0  0  0  0  0  0  0  0  0  0  0  0
   57.8598   26.8299   45.3627 H   0  0  0  0  0  0  0  0  0  0  0  0
   58.9063   26.5837   43.9130 H   0  0  0  0  0  0  0  0  0  0  0  0
   60.6620   27.0980   45.0660 H   0  0  0  0  0  0  0  0  0  0  0  0
   60.9739   29.2361   45.0501 H   0  0  0  0  0  0  0  0  0  0  0  0
   59.2189   29.5307   45.3325 H   0  0  0  0  0  0  0  0  0  0  0  0
   60.6455   28.4065   47.6797 H   0  0  0  0  0  0  0  0  0  0  0  0
   61.2318   30.0441   47.1425 H   0  0  0  0  0  0  0  0  0  0  0  0
   58.2675   29.5825   47.4224 H   0  0  0  0  0  0  0  0  0  0  0  0
   59.2935   29.8152   48.9119 H   0  0  0  0  0  0  0  0  0  0  0  0
   59.5460   31.7060   46.7000 H   0  0  0  0  0  0  0  0  0  0  0  0
   58.1830   31.7870   47.5560 H   0  0  0  0  0  0  0  0  0  0  0  0
   57.4315   31.5548   49.6060 H   0  0  0  0  0  0  0  0  0  0  0  0
   56.5786   31.9611   51.8958 H   0  0  0  0  0  0  0  0  0  0  0  0
   58.0155   33.0626   53.5928 H   0  0  0  0  0  0  0  0  0  0  0  0
   60.3455   33.6945   53.0306 H   0  0  0  0  0  0  0  0  0  0  0  0
   62.0245   33.3362   52.7781 H   0  0  0  0  0  0  0  0  0  0  0  0
   63.3744   32.7603   51.7424 H   0  0  0  0  0  0  0  0  0  0  0  0
   62.9208   34.4984   51.7424 H   0  0  0  0  0  0  0  0  0  0  0  0
   63.8682   34.3222   49.8459 H   0  0  0  0  0  0  0  0  0  0  0  0
   64.7366   34.2287   47.5238 H   0  0  0  0  0  0  0  0  0  0  0  0
   63.4245   33.0941   45.7449 H   0  0  0  0  0  0  0  0  0  0  0  0
   61.1933   32.1375   46.2551 H   0  0  0  0  0  0  0  0  0  0  0  0
  1  2  1  0
  2  3  1  0
  3  4  1  0
  4  5  1  0
  5  6  1  0
  6  7  1  0
  7  8  1  0
  8  9  1  0
  9 10  1  0
 10 11  1  0
 11 12  1  0
 12 13  1  0
 13 14  1  0
 14 15  1  0
 15 16  1  0
 16 17  2  0
 17 18  1  0
 18 19  2  0
 19 20  1  0
 20 21  2  0
 21 22  1  0
 22 23  2  0
 23 24  1  0
 23 25  1  0
 25 26  2  0
 26 27  1  0
 27 28  2  0
 28 29  1  0
 29 30  2  0
 30 16  1  0
 22 17  1  0
 30 25  1  0
  1 31  1  0
  1 32  1  0
  1 33  1  0
  2 34  1  0
  2 35  1  0
  4 36  1  0
  5 37  1  0
  5 38  1  0
  6 39  1  0
  6 40  1  0
  7 41  1  0
  7 42  1  0
  8 43  1  0
  8 44  1  0
  9 45  1  0
  9 46  1  0
 10 47  1  0
 10 48  1  0
 11 49  1  0
 12 50  1  0
 12 51  1  0
 13 52  1  0
 13 53  1  0
 14 54  1  0
 14 55  1  0
 15 56  1  0
 15 57  1  0
 18 58  1  0
 19 59  1  0
 20 60  1  0
 21 61  1  0
 24 62  1  0
 24 63  1  0
 24 64  1  0
 26 65  1  0
 27 66  1  0
 28 67  1  0
 29 68  1  0
M  CHG  2  15   1  23   1
M  END
>  <UniqueID>  (13) 
13

>  <SMILES>  (13) 
CCONCCCCCCNCCC[NH2+]c1c2ccccc2[n+](C)c2ccccc12

>  <Energy>  (13) 
82.93092071690516

>  <Genealogy>  (13) 
CCONCCCCCCNCCC[NH2+]c1c2ccccc2[n+](C)c2ccccc12 (protonated)
CCONCCCCCCNCCC[NH2+]c1c2ccccc2[n+](C)c2ccccc12 (3D coordinates assigned)
CCONCCCCCCNCCC[NH2+]c1c2ccccc2[n+](C)c2ccccc12 (optimized conformer: 82.93092071690516 kcal/mol)

>  <smiles>  (13) 
CCONCCCCCCNCCCNc1c2ccccc2[n+](C)c2ccccc12

>  <score_type>  (13) 
oracle

>  <origin>  (13) 
adg

>  <m_score__min__energy>  (13) 
-3.46

>  <m_primary>  (13) 
energy

$$$$
13:0
     RDKit          3D

 45 48  0  0  0  0  0  0  0  0999 V2000
   61.7250   32.9140   51.0740 C   0  0  0  0  0  0  0  0  0  0  0  0
   62.8900   32.7710   50.2100 N   0  0  0  0  0  0  0  0  0  0  0  0
   64.0940   33.3600   50.3490 C   0  0  0  0  0  0  0  0  0  0  0  0
   64.8960   33.0880   49.2980 N   0  0  0  0  0  0  0  0  0  0  0  0
   64.1880   32.3270   48.4780 N   0  0  0  0  0  0  0  0  0  0  0  0
   62.9740   32.1460   49.0220 C   0  0  0  0  0  0  0  0  0  0  0  0
   61.6430   31.2300   48.2390 S   0  0  0  0  0  0  0  0  0  0  0  0
   61.4630   32.3790   46.8230 C   0  0  0  0  0  0  0  0  0  0  0  0
   61.5920   33.8380   47.2750 C   0  0  0  0  0  0  0  0  0  0  0  0
   60.3570   34.3660   48.0340 C   0  0  0  0  0  0  0  0  0  0  0  0
   59.1670   34.4250   47.1600 N   0  0  0  0  0  0  0  0  0  0  0  0
   59.4860   34.7470   45.7590 C   0  0  0  0  0  0  0  0  0  0  0  0
   58.5020   34.0080   44.8680 C   0  0  2  0  0  0  0  0  0  0  0  0
   57.0230   34.1680   45.1960 C   0  0  0  0  0  0  0  0  0  0  0  0
   57.8230   32.9960   45.7590 C   0  0  1  0  0  0  0  0  0  0  0  0
   57.6300   31.6320   45.1520 C   0  0  0  0  0  0  0  0  0  0  0  0
   57.0150   31.4890   43.8960 C   0  0  0  0  0  0  0  0  0  0  0  0
   56.8700   30.2220   43.3230 C   0  0  0  0  0  0  0  0  0  0  0  0
   57.3500   29.0930   43.9920 C   0  0  0  0  0  0  0  0  0  0  0  0
   57.9800   29.2290   45.2320 C   0  0  0  0  0  0  0  0  0  0  0  0
   58.1250   30.4940   45.8090 C   0  0  0  0  0  0  0  0  0  0  0  0
   58.4490   33.1410   47.1350 C   0  0  0  0  0  0  0  0  0  0  0  0
   62.0421   32.8751   52.1266 H   0  0  0  0  0  0  0  0  0  0  0  0
   61.2362   33.8789   50.8738 H   0  0  0  0  0  0  0  0  0  0  0  0
   61.0174   32.0960   50.8738 H   0  0  0  0  0  0  0  0  0  0  0  0
   64.3856   33.9821   51.2080 H   0  0  0  0  0  0  0  0  0  0  0  0
   64.5310   31.9580   47.5630 H   0  0  0  0  0  0  0  0  0  0  0  0
   62.2469   32.1619   46.0825 H   0  0  0  0  0  0  0  0  0  0  0  0
   60.4648   32.2370   46.3831 H   0  0  0  0  0  0  0  0  0  0  0  0
   62.4670   33.9201   47.9366 H   0  0  0  0  0  0  0  0  0  0  0  0
   61.6937   34.4476   46.3650 H   0  0  0  0  0  0  0  0  0  0  0  0
   60.1453   33.6969   48.8810 H   0  0  0  0  0  0  0  0  0  0  0  0
   60.5778   35.3849   48.3847 H   0  0  0  0  0  0  0  0  0  0  0  0
   59.3951   35.8310   45.5958 H   0  0  0  0  0  0  0  0  0  0  0  0
   60.5163   34.4420   45.5234 H   0  0  0  0  0  0  0  0  0  0  0  0
   59.0354   34.0624   43.9075 H   0  0  0  0  0  0  0  0  0  0  0  0
   56.6897   34.9786   45.8607 H   0  0  0  0  0  0  0  0  0  0  0  0
   56.0990   34.2733   44.6086 H   0  0  0  0  0  0  0  0  0  0  0  0
   56.6465   32.3773   43.3620 H   0  0  0  0  0  0  0  0  0  0  0  0
   56.3779   30.1138   42.3452 H   0  0  0  0  0  0  0  0  0  0  0  0
   57.2318   28.0962   43.5421 H   0  0  0  0  0  0  0  0  0  0  0  0
   58.3622   28.3397   45.7546 H   0  0  0  0  0  0  0  0  0  0  0  0
   58.6287   30.5983   46.7813 H   0  0  0  0  0  0  0  0  0  0  0  0
   57.6654   33.1336   47.9070 H   0  0  0  0  0  0  0  0  0  0  0  0
   59.1377   32.3075   47.3376 H   0  0  0  0  0  0  0  0  0  0  0  0
  1  2  1  0
  2  3  1  0
  3  4  2  0
  4  5  1  0
  5  6  2  0
  6  7  1  0
  7  8  1  0
  8  9  1  0
  9 10  1  0
 10 11  1  0
 11 12  1  0
 12 13  1  0
 13 14  1  0
 14 15  1  0
 15 16  1  6
 16 17  2  0
 17 18  1  0
 18 19  2  0
 19 20  1  0
 20 21  2  0
 15 22  1  0
  6  2  1  0
 22 11  1  0
 15 13  1  0
 21 16  1  0
  1 23  1  0
  1 24  1  0
  1 25  1  0
  3 26  1  0
  5 27  1  0
  8 28  1  0
  8 29  1  0
  9 30  1  0
  9 31  1  0
 10 32  1  0
 10 33  1  0
 12 34  1  0
 12 35  1  0
 13 36  1  6
 14 37  1  0
 14 38  1  0
 17 39  1  0
 18 40  1  0
 19 41  1  0
 20 42  1  0
 21 43  1  0
 22 44  1  0
 22 45  1  0
M  CHG  1   5   1
M  END
>  <UniqueID>  (14) 
14

>  <SMILES>  (14) 
Cn1cn[nH+]c1SCCCN1C[C@@H]2C[C@]2(c2ccccc2)C1

>  <Energy>  (14) 
348.24721847793745

>  <Genealogy>  (14) 
Cn1cn[nH+]c1SCCCN1CC2CC2(c2ccccc2)C1 (protonated)
Cn1cn[nH+]c1SCCCN1C[C@@H]2C[C@]2(c2ccccc2)C1 (chirality)
Cn1cn[nH+]c1SCCCN1C[C@@H]2C[C@]2(c2ccccc2)C1 (3D coordinates assigned)
Cn1cn[nH+]c1SCCCN1C[C@@H]2C[C@]2(c2ccccc2)C1 (nonaromatic ring conformer: 348.24721847793745 kcal/mol)

>  <smiles>  (14) 
Cn1cnnc1SCCCN1CC2CC2(c2ccccc2)C1

>  <score_type>  (14) 
oracle

>  <origin>  (14) 
adg

>  <m_score__min__energy>  (14) 
-7.1299999999999999

>  <m_primary>  (14) 
energy

$$$$
14:0
     RDKit          3D

 68 70  0  0  0  0  0  0  0  0999 V2000
   58.3070   34.2179   45.3742 H   0  0  0  0  0  0  0  0  0  0  0  0
   58.7830   33.5390   46.0970 C   0  0  0  0  0  0  0  0  0  0  0  0
   59.9360   33.8470   46.6110 N   0  0  0  0  0  0  0  0  0  0  0  0
   61.1560   33.3780   46.1490 O   0  0  0  0  0  0  0  0  0  0  0  0
   62.4140   33.8140   46.6570 C   0  0  0  0  0  0  0  0  0  0  0  0
   62.2507   34.4992   47.5019 H   0  0  0  0  0  0  0  0  0  0  0  0
   62.9689   34.3360   45.8635 H   0  0  0  0  0  0  0  0  0  0  0  0
   63.2200   32.6030   47.1310 C   0  0  0  0  0  0  0  0  0  0  0  0
   64.0944   32.9607   47.6945 H   0  0  0  0  0  0  0  0  0  0  0  0
   63.5172   32.0316   46.2393 H   0  0  0  0  0  0  0  0  0  0  0  0
   62.4030   31.6640   48.0340 C   0  0  0  0  0  0  0  0  0  0  0  0
   62.9384   31.5318   48.9858 H   0  0  0  0  0  0  0  0  0  0  0  0
   62.2839   30.7053   47.5080 H   0  0  0  0  0  0  0  0  0  0  0  0
   61.0570   32.2000   48.3150 N   0  0  0  0  0  0  0  0  0  0  0  0
   60.4080   31.9150   47.5440 H   0  0  0  0  0  0  0  0  0  0  0  0
   61.0870   33.2460   48.3500 H   0  0  0  0  0  0  0  0  0  0  0  0
   60.5040   31.6850   49.5820 C   0  0  0  0  0  0  0  0  0  0  0  0
   61.2648   31.7933   50.3691 H   0  0  0  0  0  0  0  0  0  0  0  0
   60.2329   30.6306   49.4249 H   0  0  0  0  0  0  0  0  0  0  0  0
   59.2390   32.4320   50.0150 C   0  0  0  0  0  0  0  0  0  0  0  0
   59.1886   32.4617   51.1134 H   0  0  0  0  0  0  0  0  0  0  0  0
   59.2666   33.4587   49.6213 H   0  0  0  0  0  0  0  0  0  0  0  0
   58.3532   31.9120   49.6213 H   0  0  0  0  0  0  0  0  0  0  0  0
   58.0990   32.2640   46.4840 C   0  0  0  0  0  0  0  0  0  0  0  0
   58.2598   32.0853   47.5574 H   0  0  0  0  0  0  0  0  0  0  0  0
   57.0278   32.3681   46.2566 H   0  0  0  0  0  0  0  0  0  0  0  0
   58.6400   31.0640   45.6940 C   0  0  0  0  0  0  0  0  0  0  0  0
   57.8013   30.4066   45.4210 H   0  0  0  0  0  0  0  0  0  0  0  0
   59.1472   31.4402   44.7933 H   0  0  0  0  0  0  0  0  0  0  0  0
   59.6180   30.2920   46.4950 N   0  0  0  0  0  0  0  0  0  0  0  0
   58.9650   29.4320   47.5200 C   0  0  0  0  0  0  0  0  0  0  0  0
   59.2379   29.8099   48.5163 H   0  0  0  0  0  0  0  0  0  0  0  0
   57.8812   29.4786   47.3378 H   0  0  0  0  0  0  0  0  0  0  0  0
   59.3750   27.9500   47.4320 C   0  0  0  0  0  0  0  0  0  0  0  0
   60.4192   27.8481   47.7625 H   0  0  0  0  0  0  0  0  0  0  0  0
   58.7008   27.3672   48.0768 H   0  0  0  0  0  0  0  0  0  0  0  0
   59.2560   27.4350   46.0530 N   0  0  0  0  0  0  0  0  0  0  0  0
   57.8490   27.1610   45.6820 C   0  0  0  0  0  0  0  0  0  0  0  0
   57.2736   28.0971   45.7331 H   0  0  0  0  0  0  0  0  0  0  0  0
   57.8263   26.7533   44.6606 H   0  0  0  0  0  0  0  0  0  0  0  0
   57.2250   26.1340   46.6360 C   0  0  0  0  0  0  0  0  0  0  0  0
   58.0073   25.7373   47.2998 H   0  0  0  0  0  0  0  0  0  0  0  0
   56.4390   26.6319   47.2228 H   0  0  0  0  0  0  0  0  0  0  0  0
   56.6170   25.0180   45.8850 N   0  0  0  0  0  0  0  0  0  0  0  0
   55.2030   25.0460   45.5880 C   0  0  0  0  0  0  0  0  0  0  0  0
   54.4720   25.9910   45.9960 O   0  0  0  0  0  0  0  0  0  0  0  0
   54.5750   23.9180   44.8250 C   0  0  0  0  0  0  0  0  0  0  0  0
   54.3581   23.0888   45.5144 H   0  0  0  0  0  0  0  0  0  0  0  0
   53.6429   24.2724   44.3607 H   0  0  0  0  0  0  0  0  0  0  0  0
   55.5240   23.4310   43.7320 C   0  0  0  0  0  0  0  0  0  0  0  0
   55.1128   22.5166   43.2795 H   0  0  0  0  0  0  0  0  0  0  0  0
   55.6240   24.2233   42.9755 H   0  0  0  0  0  0  0  0  0  0  0  0
   56.8880   23.1310   44.2970 C   0  0  0  0  0  0  0  0  0  0  0  0
   57.6600   22.1010   43.7390 C   0  0  0  0  0  0  0  0  0  0  0  0
   57.2492   21.4913   42.9207 H   0  0  0  0  0  0  0  0  0  0  0  0
   58.9450   21.8460   44.2160 C   0  0  0  0  0  0  0  0  0  0  0  0
   59.5402   21.0288   43.7824 H   0  0  0  0  0  0  0  0  0  0  0  0
   59.4760   22.6260   45.2420 C   0  0  0  0  0  0  0  0  0  0  0  0
   60.4898   22.4215   45.6166 H   0  0  0  0  0  0  0  0  0  0  0  0
   58.7260   23.6670   45.7970 C   0  0  0  0  0  0  0  0  0  0  0  0
   59.1543   24.2769   46.6060 H   0  0  0  0  0  0  0  0  0  0  0  0
   57.4220   23.9420   45.3270 C   0  0  0  0  0  0  0  0  0  0  0  0
   59.9550   28.2810   45.0480 C   0  0  0  0  0  0  0  0  0  0  0  0
   60.7577   27.6845   44.5898 H   0  0  0  0  0  0  0  0  0  0  0  0
   59.1995   28.6006   44.3152 H   0  0  0  0  0  0  0  0  0  0  0  0
   60.5770   29.5600   45.6410 C   0  0  0  0  0  0  0  0  0  0  0  0
   61.4527   29.2825   46.2461 H   0  0  0  0  0  0  0  0  0  0  0  0
   60.8644   30.2183   44.8079 H   0  0  0  0  0  0  0  0  0  0  0  0
  1  2  1  0
  2  3  2  0
  3  4  1  0
  4  5  1  0
  5  6  1  0
  5  7  1  0
  5  8  1  0
  8  9  1  0
  8 10  1  0
  8 11  1  0
 11 12  1  0
 11 13  1  0
 11 14  1  0
 14 15  1  0
 14 16  1  0
 14 17  1  0
 17 18  1  0
 17 19  1  0
 17 20  1  0
 20 21  1  0
 20 22  1  0
 20 23  1  0
  2 24  1  0
 24 25  1  0
 24 26  1  0
 24 27  1  0
 27 28  1  0
 27 29  1  0
 27 30  1  0
 30 31  1  0
 31 32  1  0
 31 33  1  0
 31 34  1  0
 34 35  1  0
 34 36  1  0
 34 37  1  0
 37 38  1  0
 38 39  1  0
 38 40  1  0
 38 41  1  0
 41 42  1  0
 41 43  1  0
 41 44  1  0
 44 45  1  0
 45 46  2  0
 45 47  1  0
 47 48  1  0
 47 49  1  0
 47 50  1  0
 50 51  1  0
 50 52  1  0
 50 53  1  0
 53 54  2  0
 54 55  1  0
 54 56  1  0
 56 57  1  0
 56 58  2  0
 58 59  1  0
 58 60  1  0
 60 61  1  0
 60 62  2  0
 37 63  1  0
 63 64  1  0
 63 65  1  0
 63 66  1  0
 66 67  1  0
 66 68  1  0
 66 30  1  0
 62 44  1  0
 62 53  1  0
M  CHG  1  14   1
M  END
>  <UniqueID>  (15) 
15

>  <SMILES>  (15) 
CC[NH2+]CCCO/N=C/CCN1CCN(CCN2C(=O)CCc3ccccc32)CC1

>  <Energy>  (15) 
75.93935537119555

>  <Genealogy>  (15) 
CC[NH2+]CCCON=CCCN1CCN(CCN2C(=O)CCc3ccccc32)CC1 (protonated)
CC[NH2+]CCCO/N=C/CCN1CCN(CCN2C(=O)CCc3ccccc32)CC1 (cis-trans isomerization)
CC[NH2+]CCCO/N=C/CCN1CCN(CCN2C(=O)CCc3ccccc32)CC1 (3D coordinates assigned)
CC[NH2+]CCCO/N=C/CCN1CCN(CCN2C(=O)CCc3ccccc32)CC1 (nonaromatic ring conformer: 75.93935537119555 kcal/mol)

>  <smiles>  (15) 
CCNCCCON=CCCN1CCN(CCN2C(=O)CCc3ccccc32)CC1

>  <score_type>  (15) 
oracle

>  <origin>  (15) 
adg

>  <m_score__min__energy>  (15) 
-6.1299999999999999

>  <m_primary>  (15) 
energy

$$$$
15:0
     RDKit          3D

 70 72  0  0  0  0  0  0  0  0999 V2000
   58.7490   32.5220   49.8840 C   0  0  0  0  0  0  0  0  0  0  0  0
   59.6740   33.7350   49.9160 C   0  0  0  0  0  0  0  0  0  0  0  0
   60.9510   33.3670   50.4030 O   0  0  0  0  0  0  0  0  0  0  0  0
   60.8650   32.7940   51.6950 C   0  0  0  0  0  0  0  0  0  0  0  0
   61.3270   31.3390   51.6640 C   0  0  0  0  0  0  0  0  0  0  0  0
   62.2520   31.1740   50.6110 O   0  0  0  0  0  0  0  0  0  0  0  0
   63.1950   30.1640   50.9250 C   0  0  0  0  0  0  0  0  0  0  0  0
   64.3380   30.7750   51.7420 C   0  0  0  0  0  0  0  0  0  0  0  0
   65.4720   31.3070   50.8460 C   0  0  0  0  0  0  0  0  0  0  0  0
   65.6910   32.8180   51.0310 C   0  0  0  0  0  0  0  0  0  0  0  0
   64.3770   33.6000   51.1900 C   0  0  0  0  0  0  0  0  0  0  0  0
   63.5000   33.4700   50.0150 N   0  0  0  0  0  0  0  0  0  0  0  0
   64.3020   33.4280   48.7780 C   0  0  0  0  0  0  0  0  0  0  0  0
   63.7470   32.4170   47.7610 C   0  0  0  0  0  0  0  0  0  0  0  0
   62.3830   32.8290   47.1690 C   0  0  0  0  0  0  0  0  0  0  0  0
   61.2800   32.1170   47.8190 N   0  0  0  0  0  0  0  0  0  0  0  0
   60.1900   31.5470   47.0710 C   0  0  0  0  0  0  0  0  0  0  0  0
   59.9310   30.1670   47.1460 C   0  0  0  0  0  0  0  0  0  0  0  0
   60.6680   29.3380   48.0200 C   0  0  0  0  0  0  0  0  0  0  0  0
   60.4000   27.9740   48.1030 C   0  0  0  0  0  0  0  0  0  0  0  0
   59.3880   27.4160   47.3320 C   0  0  0  0  0  0  0  0  0  0  0  0
   58.6480   28.2130   46.4600 C   0  0  0  0  0  0  0  0  0  0  0  0
   58.9200   29.6000   46.3250 C   0  0  0  0  0  0  0  0  0  0  0  0
   58.2230   30.3930   45.4330 N   0  0  0  0  0  0  0  0  0  0  0  0
   57.3720   29.7620   44.3990 C   0  0  0  0  0  0  0  0  0  0  0  0
   58.3300   31.7710   45.5040 C   0  0  0  0  0  0  0  0  0  0  0  0
   57.4370   32.6280   44.8100 C   0  0  0  0  0  0  0  0  0  0  0  0
   57.5760   34.0130   44.8680 C   0  0  0  0  0  0  0  0  0  0  0  0
   58.5820   34.5840   45.6390 C   0  0  0  0  0  0  0  0  0  0  0  0
   59.4490   33.7730   46.3660 C   0  0  0  0  0  0  0  0  0  0  0  0
   59.3410   32.3660   46.3080 C   0  0  0  0  0  0  0  0  0  0  0  0
   58.5135   32.2132   50.9132 H   0  0  0  0  0  0  0  0  0  0  0  0
   57.8191   32.7838   49.3579 H   0  0  0  0  0  0  0  0  0  0  0  0
   59.2475   31.6945   49.3579 H   0  0  0  0  0  0  0  0  0  0  0  0
   59.7767   34.1398   48.8984 H   0  0  0  0  0  0  0  0  0  0  0  0
   59.2427   34.4960   50.5829 H   0  0  0  0  0  0  0  0  0  0  0  0
   61.5039   33.3625   52.3868 H   0  0  0  0  0  0  0  0  0  0  0  0
   59.8184   32.8289   52.0318 H   0  0  0  0  0  0  0  0  0  0  0  0
   61.8071   31.0839   52.6202 H   0  0  0  0  0  0  0  0  0  0  0  0
   60.4624   30.6774   51.5068 H   0  0  0  0  0  0  0  0  0  0  0  0
   62.7050   29.3736   51.5125 H   0  0  0  0  0  0  0  0  0  0  0  0
   63.5958   29.7323   49.9960 H   0  0  0  0  0  0  0  0  0  0  0  0
   63.9399   31.6070   52.3415 H   0  0  0  0  0  0  0  0  0  0  0  0
   64.7558   29.9846   52.3829 H   0  0  0  0  0  0  0  0  0  0  0  0
   66.4030   30.7793   51.1005 H   0  0  0  0  0  0  0  0  0  0  0  0
   65.1885   31.1303   49.7979 H   0  0  0  0  0  0  0  0  0  0  0  0
   66.3040   32.9759   51.9306 H   0  0  0  0  0  0  0  0  0  0  0  0
   66.1890   33.1919   50.1242 H   0  0  0  0  0  0  0  0  0  0  0  0
   63.8434   33.2181   52.0728 H   0  0  0  0  0  0  0  0  0  0  0  0
   64.6319   34.6642   51.3017 H   0  0  0  0  0  0  0  0  0  0  0  0
   62.8510   34.2920   49.9840 H   0  0  0  0  0  0  0  0  0  0  0  0
   62.9390   32.5910   50.0940 H   0  0  0  0  0  0  0  0  0  0  0  0
   64.3003   34.4283   48.3204 H   0  0  0  0  0  0  0  0  0  0  0  0
   65.3211   33.1128   49.0464 H   0  0  0  0  0  0  0  0  0  0  0  0
   64.4693   32.3189   46.9372 H   0  0  0  0  0  0  0  0  0  0  0  0
   63.5953   31.4681   48.2963 H   0  0  0  0  0  0  0  0  0  0  0  0
   62.2435   33.9108   47.3111 H   0  0  0  0  0  0  0  0  0  0  0  0
   62.3783   32.5714   46.0996 H   0  0  0  0  0  0  0  0  0  0  0  0
   61.3370   31.9310   48.8470 H   0  0  0  0  0  0  0  0  0  0  0  0
   61.4629   29.7747   48.6424 H   0  0  0  0  0  0  0  0  0  0  0  0
   60.9899   27.3380   48.7794 H   0  0  0  0  0  0  0  0  0  0  0  0
   59.1697   26.3407   47.4099 H   0  0  0  0  0  0  0  0  0  0  0  0
   57.8401   27.7599   45.8667 H   0  0  0  0  0  0  0  0  0  0  0  0
   56.5794   29.1743   44.8851 H   0  0  0  0  0  0  0  0  0  0  0  0
   56.9172   30.5429   43.7718 H   0  0  0  0  0  0  0  0  0  0  0  0
   57.9871   29.1000   43.7718 H   0  0  0  0  0  0  0  0  0  0  0  0
   56.6208   32.1912   44.2159 H   0  0  0  0  0  0  0  0  0  0  0  0
   56.8872   34.6571   44.3017 H   0  0  0  0  0  0  0  0  0  0  0  0
   58.6931   35.6778   45.6747 H   0  0  0  0  0  0  0  0  0  0  0  0
   60.2270   34.2332   46.9928 H   0  0  0  0  0  0  0  0  0  0  0  0
  1  2  1  0
  2  3  1  0
  3  4  1  0
  4  5  1  0
  5  6  1  0
  6  7  1  0
  7  8  1  0
  8  9  1  0
  9 10  1  0
 10 11  1  0
 11 12  1  0
 12 13  1  0
 13 14  1  0
 14 15  1  0
 15 16  1  0
 16 17  1  0
 17 18  2  0
 18 19  1  0
 19 20  2  0
 20 21  1  0
 21 22  2  0
 22 23  1  0
 23 24  2  0
 24 25  1  0
 24 26  1  0
 26 27  2  0
 27 28  1  0
 28 29  2  0
 29 30  1  0
 30 31  2  0
 31 17  1  0
 23 18  1  0
 31 26  1  0
  1 32  1  0
  1 33  1  0
  1 34  1  0
  2 35  1  0
  2 36  1  0
  4 37  1  0
  4 38  1  0
  5 39  1  0
  5 40  1  0
  7 41  1  0
  7 42  1  0
  8 43  1  0
  8 44  1  0
  9 45  1  0
  9 46  1  0
 10 47  1  0
 10 48  1  0
 11 49  1  0
 11 50  1  0
 12 51  1  0
 12 52  1  0
 13 53  1  0
 13 54  1  0
 14 55  1  0
 14 56  1  0
 15 57  1  0
 15 58  1  0
 16 59  1  0
 19 60  1  0
 20 61  1  0
 21 62  1  0
 22 63  1  0
 25 64  1  0
 25 65  1  0
 25 66  1  0
 27 67  1  0
 28 68  1  0
 29 69  1  0
 30 70  1  0
M  CHG  2  12   1  24   1
M  END
>  <UniqueID>  (16) 
16

>  <SMILES>  (16) 
CCOCCOCCCCC[NH2+]CCCNc1c2ccccc2[n+](C)c2ccccc12

>  <Energy>  (16) 
86.5982408560025

>  <Genealogy>  (16) 
CCOCCOCCCCC[NH2+]CCCNc1c2ccccc2[n+](C)c2ccccc12 (protonated)
CCOCCOCCCCC[NH2+]CCCNc1c2ccccc2[n+](C)c2ccccc12 (3D coordinates assigned)
CCOCCOCCCCC[NH2+]CCCNc1c2ccccc2[n+](C)c2ccccc12 (optimized conformer: 86.5982408560025 kcal/mol)

>  <smiles>  (16) 
CCOCCOCCCCCNCCCNc1c2ccccc2[n+](C)c2ccccc12

>  <score_type>  (16) 
oracle

>  <origin>  (16) 
adg

>  <m_score__min__energy>  (16) 
-4.1200000000000001

>  <m_primary>  (16) 
energy

$$$$
16:0
     RDKit          3D

 54 56  0  0  0  0  0  0  0  0999 V2000
   57.3330   33.9250   45.1970 C   0  0  0  0  0  0  0  0  0  0  0  0
   58.7760   34.4230   45.2160 C   0  0  0  0  0  0  0  0  0  0  0  0
   59.4690   33.9310   46.4280 N   0  0  0  0  0  0  0  0  0  0  0  0
   59.5050   34.9700   47.4830 C   0  0  0  0  0  0  0  0  0  0  0  0
   59.7190   34.3300   48.8520 C   0  0  0  0  0  0  0  0  0  0  0  0
   58.8330   32.6930   46.9320 C   0  0  0  0  0  0  0  0  0  0  0  0
   59.5530   31.5150   46.4320 N   0  0  0  0  0  0  0  0  0  0  0  0
   60.8230   31.1020   46.7110 C   0  0  0  0  0  0  0  0  0  0  0  0
   61.8080   31.8690   47.4960 C   0  0  0  0  0  0  0  0  0  0  0  0
   62.0610   31.5500   48.8410 C   0  0  0  0  0  0  0  0  0  0  0  0
   62.9780   32.3020   49.5810 C   0  0  0  0  0  0  0  0  0  0  0  0
   63.6360   33.3830   48.9910 C   0  0  0  0  0  0  0  0  0  0  0  0
   63.3730   33.7200   47.6600 C   0  0  0  0  0  0  0  0  0  0  0  0
   62.4560   32.9720   46.9160 C   0  0  0  0  0  0  0  0  0  0  0  0
   61.1150   29.8760   46.2000 N   0  0  0  0  0  0  0  0  0  0  0  0
   59.9800   29.5310   45.5680 C   0  0  0  0  0  0  0  0  0  0  0  0
   59.7230   28.3520   44.8740 C   0  0  0  0  0  0  0  0  0  0  0  0
   58.4430   28.1840   44.2990 C   0  0  0  0  0  0  0  0  0  0  0  0
   58.1220   26.9260   43.5260 C   0  0  0  0  0  0  0  0  0  0  0  0
   57.4300   25.9260   44.3570 N   0  0  0  0  0  0  0  0  0  0  0  0
   57.6520   26.1230   45.7980 C   0  0  0  0  0  0  0  0  0  0  0  0
   56.3500   25.9540   46.5860 C   0  0  0  0  0  0  0  0  0  0  0  0
   55.2860   26.5850   45.9250 O   0  0  0  0  0  0  0  0  0  0  0  0
   57.4670   29.2050   44.4460 C   0  0  0  0  0  0  0  0  0  0  0  0
   57.7620   30.3830   45.1550 C   0  0  0  0  0  0  0  0  0  0  0  0
   59.0400   30.5090   45.7020 C   0  0  0  0  0  0  0  0  0  0  0  0
   56.9742   33.8012   46.2294 H   0  0  0  0  0  0  0  0  0  0  0  0
   56.6995   34.6565   44.6739 H   0  0  0  0  0  0  0  0  0  0  0  0
   57.2855   32.9585   44.6739 H   0  0  0  0  0  0  0  0  0  0  0  0
   59.3000   34.0535   44.3222 H   0  0  0  0  0  0  0  0  0  0  0  0
   58.7768   35.5230   45.2229 H   0  0  0  0  0  0  0  0  0  0  0  0
   60.3295   35.6682   47.2763 H   0  0  0  0  0  0  0  0  0  0  0  0
   58.5459   35.5087   47.4866 H   0  0  0  0  0  0  0  0  0  0  0  0
   59.4754   35.0585   49.6394 H   0  0  0  0  0  0  0  0  0  0  0  0
   59.0661   33.4503   48.9516 H   0  0  0  0  0  0  0  0  0  0  0  0
   60.7697   34.0200   48.9516 H   0  0  0  0  0  0  0  0  0  0  0  0
   58.8565   32.6938   48.0317 H   0  0  0  0  0  0  0  0  0  0  0  0
   57.7918   32.6544   46.5794 H   0  0  0  0  0  0  0  0  0  0  0  0
   61.5360   30.7063   49.3128 H   0  0  0  0  0  0  0  0  0  0  0  0
   63.1816   32.0416   50.6302 H   0  0  0  0  0  0  0  0  0  0  0  0
   64.3615   33.9696   49.5737 H   0  0  0  0  0  0  0  0  0  0  0  0
   63.8883   34.5748   47.1976 H   0  0  0  0  0  0  0  0  0  0  0  0
   62.2412   33.2480   45.8731 H   0  0  0  0  0  0  0  0  0  0  0  0
   60.4940   27.5735   44.7760 H   0  0  0  0  0  0  0  0  0  0  0  0
   57.4763   27.1878   42.6748 H   0  0  0  0  0  0  0  0  0  0  0  0
   59.0712   26.4857   43.1865 H   0  0  0  0  0  0  0  0  0  0  0  0
   56.4020   25.9680   44.1630 H   0  0  0  0  0  0  0  0  0  0  0  0
   58.3849   25.3834   46.1527 H   0  0  0  0  0  0  0  0  0  0  0  0
   58.0255   27.1454   45.9568 H   0  0  0  0  0  0  0  0  0  0  0  0
   56.1265   24.8819   46.6888 H   0  0  0  0  0  0  0  0  0  0  0  0
   56.4738   26.4143   47.5773 H   0  0  0  0  0  0  0  0  0  0  0  0
   55.5810   26.7350   44.9880 H   0  0  0  0  0  0  0  0  0  0  0  0
   56.4699   29.0730   44.0006 H   0  0  0  0  0  0  0  0  0  0  0  0
   57.0113   31.1781   45.2745 H   0  0  0  0  0  0  0  0  0  0  0  0
  1  2  1  0
  2  3  1  0
  3  4  1  0
  4  5  1  0
  3  6  1  0
  6  7  1  0
  7  8  1  0
  8  9  1  0
  9 10  2  0
 10 11  1  0
 11 12  2  0
 12 13  1  0
 13 14  2  0
  8 15  2  0
 15 16  1  0
 16 17  2  0
 17 18  1  0
 18 19  1  0
 19 20  1  0
 20 21  1  0
 21 22  1  0
 22 23  1  0
 18 24  2  0
 24 25  1  0
 25 26  2  0
 26  7  1  0
 14  9  1  0
 26 16  1  0
  1 27  1  0
  1 28  1  0
  1 29  1  0
  2 30  1  0
  2 31  1  0
  4 32  1  0
  4 33  1  0
  5 34  1  0
  5 35  1  0
  5 36  1  0
  6 37  1  0
  6 38  1  0
 10 39  1  0
 11 40  1  0
 12 41  1  0
 13 42  1  0
 14 43  1  0
 17 44  1  0
 19 45  1  0
 19 46  1  0
 20 47  1  0
 21 48  1  0
 21 49  1  0
 22 50  1  0
 22 51  1  0
 23 52  1  0
 24 53  1  0
 25 54  1  0
M  END
>  <UniqueID>  (17) 
17

>  <SMILES>  (17) 
CCN(CC)Cn1c(-c2ccccc2)nc2cc(CNCCO)ccc21

>  <Energy>  (17) 
93.79829923154635

>  <Genealogy>  (17) 
CCN(CC)Cn1c(-c2ccccc2)nc2cc(CNCCO)ccc21 (3D coordinates assigned)
CCN(CC)Cn1c(-c2ccccc2)nc2cc(CNCCO)ccc21 (optimized conformer: 93.79829923154635 kcal/mol)

>  <smiles>  (17) 
CCN(CC)Cn1c(-c2ccccc2)nc2cc(CNCCO)ccc21

>  <score_type>  (17) 
oracle

>  <origin>  (17) 
adg

>  <m_score__min__energy>  (17) 
-8.0500000000000007

>  <m_primary>  (17) 
energy

$$$$
17:0
     RDKit          3D

 59 61  0  0  0  0  0  0  0  0999 V2000
   59.6340   34.8950   45.8080 C   0  0  0  0  0  0  0  0  0  0  0  0
   58.8450   34.3920   47.0270 C   0  0  0  0  0  0  0  0  0  0  0  0
   58.0490   33.2620   46.6990 O   0  0  0  0  0  0  0  0  0  0  0  0
   57.3960   33.4110   45.4470 C   0  0  0  0  0  0  0  0  0  0  0  0
   57.6850   32.1860   44.5720 C   0  0  0  0  0  0  0  0  0  0  0  0
   57.3670   30.9880   45.2610 O   0  0  0  0  0  0  0  0  0  0  0  0
   57.9410   29.8560   44.6360 C   0  0  0  0  0  0  0  0  0  0  0  0
   58.1130   28.6780   45.6090 C   0  0  0  0  0  0  0  0  0  0  0  0
   59.5360   28.3390   45.8390 N   0  0  0  0  0  0  0  0  0  0  0  0
   60.4330   28.9770   44.8520 C   0  0  0  0  0  0  0  0  0  0  0  0
   59.9620   28.6170   47.2340 C   0  0  0  0  0  0  0  0  0  0  0  0
   58.9290   29.4120   48.0770 C   0  0  0  0  0  0  0  0  0  0  0  0
   59.0410   30.8600   47.8530 N   0  0  0  0  0  0  0  0  0  0  0  0
   59.8470   31.7350   48.6620 C   0  0  0  0  0  0  0  0  0  0  0  0
   59.6160   32.0770   49.9970 C   0  0  0  0  0  0  0  0  0  0  0  0
   58.5840   31.5410   50.9180 C   0  0  0  0  0  0  0  0  0  0  0  0
   57.5450   32.3480   51.4120 C   0  0  0  0  0  0  0  0  0  0  0  0
   56.5770   31.8190   52.2680 C   0  0  0  0  0  0  0  0  0  0  0  0
   56.6400   30.4710   52.6490 C   0  0  0  0  0  0  0  0  0  0  0  0
   55.3200   29.7480   53.8190 Br  0  0  0  0  0  0  0  0  0  0  0  0
   57.6750   29.6630   52.1710 C   0  0  0  0  0  0  0  0  0  0  0  0
   58.6420   30.1910   51.3120 C   0  0  0  0  0  0  0  0  0  0  0  0
   60.5840   32.9390   50.3910 N   0  0  0  0  0  0  0  0  0  0  0  0
   61.3860   33.0850   49.3200 C   0  0  0  0  0  0  0  0  0  0  0  0
   62.5530   33.8460   49.2720 C   0  0  0  0  0  0  0  0  0  0  0  0
   63.3160   33.7990   48.0950 C   0  0  0  0  0  0  0  0  0  0  0  0
   62.9210   32.9720   47.0290 C   0  0  0  0  0  0  0  0  0  0  0  0
   61.7410   32.2190   47.1360 C   0  0  0  0  0  0  0  0  0  0  0  0
   60.9890   32.3470   48.2660 N   0  0  0  0  0  0  0  0  0  0  0  0
   60.5159   35.4573   46.1486 H   0  0  0  0  0  0  0  0  0  0  0  0
   59.9582   34.0366   45.2014 H   0  0  0  0  0  0  0  0  0  0  0  0
   58.9926   35.5512   45.2014 H   0  0  0  0  0  0  0  0  0  0  0  0
   59.5530   34.1127   47.8212 H   0  0  0  0  0  0  0  0  0  0  0  0
   58.1781   35.1990   47.3647 H   0  0  0  0  0  0  0  0  0  0  0  0
   56.3114   33.4997   45.6072 H   0  0  0  0  0  0  0  0  0  0  0  0
   57.7673   34.3165   44.9449 H   0  0  0  0  0  0  0  0  0  0  0  0
   57.0794   32.2465   43.6557 H   0  0  0  0  0  0  0  0  0  0  0  0
   58.7565   32.1756   44.3232 H   0  0  0  0  0  0  0  0  0  0  0  0
   57.2885   29.5395   43.8089 H   0  0  0  0  0  0  0  0  0  0  0  0
   58.9393   30.1416   44.2728 H   0  0  0  0  0  0  0  0  0  0  0  0
   57.6534   28.9452   46.5720 H   0  0  0  0  0  0  0  0  0  0  0  0
   57.6270   27.7989   45.1606 H   0  0  0  0  0  0  0  0  0  0  0  0
   61.2197   29.5365   45.3794 H   0  0  0  0  0  0  0  0  0  0  0  0
   60.8939   28.2027   44.2211 H   0  0  0  0  0  0  0  0  0  0  0  0
   59.8528   29.6665   44.2211 H   0  0  0  0  0  0  0  0  0  0  0  0
   60.1466   27.6552   47.7348 H   0  0  0  0  0  0  0  0  0  0  0  0
   60.8613   29.2469   47.1665 H   0  0  0  0  0  0  0  0  0  0  0  0
   57.9159   29.0859   47.7989 H   0  0  0  0  0  0  0  0  0  0  0  0
   59.1300   29.2138   49.1402 H   0  0  0  0  0  0  0  0  0  0  0  0
   58.6930   31.2280   46.9380 H   0  0  0  0  0  0  0  0  0  0  0  0
   57.4938   33.4076   51.1212 H   0  0  0  0  0  0  0  0  0  0  0  0
   55.7653   32.4595   52.6434 H   0  0  0  0  0  0  0  0  0  0  0  0
   57.7286   28.6065   52.4724 H   0  0  0  0  0  0  0  0  0  0  0  0
   59.4537   29.5478   50.9413 H   0  0  0  0  0  0  0  0  0  0  0  0
   60.7070   33.3710   51.3330 H   0  0  0  0  0  0  0  0  0  0  0  0
   62.8653   34.4625   50.1278 H   0  0  0  0  0  0  0  0  0  0  0  0
   64.2257   34.4110   48.0064 H   0  0  0  0  0  0  0  0  0  0  0  0
   63.5328   32.9153   46.1166 H   0  0  0  0  0  0  0  0  0  0  0  0
   61.4304   31.5415   46.3270 H   0  0  0  0  0  0  0  0  0  0  0  0
  1  2  1  0
  2  3  1  0
  3  4  1  0
  4  5  1  0
  5  6  1  0
  6  7  1  0
  7  8  1  0
  8  9  1  0
  9 10  1  0
  9 11  1  0
 11 12  1  0
 12 13  1  0
 13 14  1  0
 14 15  2  0
 15 16  1  0
 16 17  2  0
 17 18  1  0
 18 19  2  0
 19 20  1  0
 19 21  1  0
 21 22  2  0
 15 23  1  0
 23 24  2  0
 24 25  1  0
 25 26  2  0
 26 27  1  0
 27 28  2  0
 28 29  1  0
 29 14  1  0
 22 16  1  0
 29 24  1  0
  1 30  1  0
  1 31  1  0
  1 32  1  0
  2 33  1  0
  2 34  1  0
  4 35  1  0
  4 36  1  0
  5 37  1  0
  5 38  1  0
  7 39  1  0
  7 40  1  0
  8 41  1  0
  8 42  1  0
 10 43  1  0
 10 44  1  0
 10 45  1  0
 11 46  1  0
 11 47  1  0
 12 48  1  0
 12 49  1  0
 13 50  1  0
 17 51  1  0
 18 52  1  0
 21 53  1  0
 22 54  1  0
 23 55  1  0
 25 56  1  0
 26 57  1  0
 27 58  1  0
 28 59  1  0
M  CHG  1  23   1
M  END
>  <UniqueID>  (18) 
18

>  <SMILES>  (18) 
CCOCCOCCN(C)CCNc1c(-c2ccc(Br)cc2)[nH+]c2ccccn12

>  <Energy>  (18) 
110.65880580411726

>  <Genealogy>  (18) 
CCOCCOCCN(C)CCNc1c(-c2ccc(Br)cc2)[nH+]c2ccccn12 (protonated)
CCOCCOCCN(C)CCNc1c(-c2ccc(Br)cc2)[nH+]c2ccccn12 (3D coordinates assigned)
CCOCCOCCN(C)CCNc1c(-c2ccc(Br)cc2)[nH+]c2ccccn12 (optimized conformer: 110.65880580411726 kcal/mol)

>  <smiles>  (18) 
CCOCCOCCN(C)CCNc1c(-c2ccc(Br)cc2)nc2ccccn12

>  <score_type>  (18) 
oracle

>  <origin>  (18) 
adg

>  <m_score__min__energy>  (18) 
-6.1299999999999999

>  <m_primary>  (18) 
energy

$$$$
18:0
     RDKit          3D

 39 41  0  0  0  0  0  0  0  0999 V2000
   57.3350   23.4920   46.9640 C   0  0  0  0  0  0  0  0  0  0  0  0
   56.2850   24.4720   47.4730 C   0  0  0  0  0  0  0  0  0  0  0  0
   55.8940   25.3970   46.3810 N   0  0  0  0  0  0  0  0  0  0  0  0
   54.7650   24.8500   45.6090 C   0  0  0  0  0  0  0  0  0  0  0  0
   57.0210   25.7010   45.4740 C   0  0  0  0  0  0  0  0  0  0  0  0
   57.4170   27.1410   45.5850 C   0  0  0  0  0  0  0  0  0  0  0  0
   58.0010   27.7380   46.6930 C   0  0  0  0  0  0  0  0  0  0  0  0
   58.3150   29.0870   46.4930 C   0  0  0  0  0  0  0  0  0  0  0  0
   57.9900   29.5540   45.2200 C   0  0  0  0  0  0  0  0  0  0  0  0
   58.2010   30.9350   44.7330 C   0  0  0  0  0  0  0  0  0  0  0  0
   58.1050   31.3010   43.4310 N   0  0  0  0  0  0  0  0  0  0  0  0
   58.3570   32.5770   43.3310 O   0  0  0  0  0  0  0  0  0  0  0  0
   58.6130   33.0680   44.5180 C   0  0  0  0  0  0  0  0  0  0  0  0
   58.9190   34.3820   44.8530 C   0  0  0  0  0  0  0  0  0  0  0  0
   59.1450   34.6750   46.2090 C   0  0  0  0  0  0  0  0  0  0  0  0
   59.0710   33.6540   47.1920 C   0  0  0  0  0  0  0  0  0  0  0  0
   59.2680   33.9910   48.6400 C   0  0  0  0  0  0  0  0  0  0  0  0
   58.7420   32.3330   46.8130 C   0  0  0  0  0  0  0  0  0  0  0  0
   58.5310   32.0730   45.4560 C   0  0  0  0  0  0  0  0  0  0  0  0
   57.3050   28.2800   44.3560 S   0  0  0  0  0  0  0  0  0  0  0  0
   57.8409   23.0198   47.8190 H   0  0  0  0  0  0  0  0  0  0  0  0
   56.8482   22.7178   46.3528 H   0  0  0  0  0  0  0  0  0  0  0  0
   58.0739   24.0310   46.3528 H   0  0  0  0  0  0  0  0  0  0  0  0
   55.4002   23.9151   47.8149 H   0  0  0  0  0  0  0  0  0  0  0  0
   56.7025   25.0515   48.3096 H   0  0  0  0  0  0  0  0  0  0  0  0
   53.9948   24.4769   46.3001 H   0  0  0  0  0  0  0  0  0  0  0  0
   54.3369   25.6406   44.9752 H   0  0  0  0  0  0  0  0  0  0  0  0
   55.1201   24.0241   44.9752 H   0  0  0  0  0  0  0  0  0  0  0  0
   57.8804   25.0686   45.7415 H   0  0  0  0  0  0  0  0  0  0  0  0
   56.7062   25.4998   44.4394 H   0  0  0  0  0  0  0  0  0  0  0  0
   58.1975   27.2043   47.6345 H   0  0  0  0  0  0  0  0  0  0  0  0
   58.7748   29.7192   47.2669 H   0  0  0  0  0  0  0  0  0  0  0  0
   57.8780   30.6860   42.6200 H   0  0  0  0  0  0  0  0  0  0  0  0
   58.9821   35.1654   44.0834 H   0  0  0  0  0  0  0  0  0  0  0  0
   59.3816   35.7059   46.5113 H   0  0  0  0  0  0  0  0  0  0  0  0
   58.8108   33.2089   49.2640 H   0  0  0  0  0  0  0  0  0  0  0  0
   60.3442   34.0524   48.8591 H   0  0  0  0  0  0  0  0  0  0  0  0
   58.7935   34.9589   48.8591 H   0  0  0  0  0  0  0  0  0  0  0  0
   58.6546   31.5334   47.5633 H   0  0  0  0  0  0  0  0  0  0  0  0
  1  2  1  0
  2  3  1  0
  3  4  1  0
  3  5  1  0
  5  6  1  0
  6  7  2  0
  7  8  1  0
  8  9  2  0
  9 10  1  0
 10 11  2  0
 11 12  1  0
 12 13  1  0
 13 14  2  0
 14 15  1  0
 15 16  2  0
 16 17  1  0
 16 18  1  0
 18 19  2  0
  9 20  1  0
 20  6  1  0
 19 10  1  0
 19 13  1  0
  1 21  1  0
  1 22  1  0
  1 23  1  0
  2 24  1  0
  2 25  1  0
  4 26  1  0
  4 27  1  0
  4 28  1  0
  5 29  1  0
  5 30  1  0
  7 31  1  0
  8 32  1  0
 11 33  1  0
 14 34  1  0
 15 35  1  0
 17 36  1  0
 17 37  1  0
 17 38  1  0
 18 39  1  0
M  CHG  1  11   1
M  END
>  <UniqueID>  (19) 
19

>  <SMILES>  (19) 
CCN(C)Cc1ccc(-c2[nH+]oc3ccc(C)cc23)s1

>  <Energy>  (19) 
106.25327124837571

>  <Genealogy>  (19) 
CCN(C)Cc1ccc(-c2[nH+]oc3ccc(C)cc23)s1 (protonated)
CCN(C)Cc1ccc(-c2[nH+]oc3ccc(C)cc23)s1 (3D coordinates assigned)
CCN(C)Cc1ccc(-c2[nH+]oc3ccc(C)cc23)s1 (optimized conformer: 106.25327124837571 kcal/mol)

>  <smiles>  (19) 
CCN(C)Cc1ccc(-c2noc3ccc(C)cc23)s1

>  <score_type>  (19) 
oracle

>  <origin>  (19) 
adg

>  <m_score__min__energy>  (19) 
-5.75

>  <m_primary>  (19) 
energy

$$$$
19:0
     RDKit          3D

 60 61  0  0  0  0  0  0  0  0999 V2000
   59.9120   34.9550   46.3760 C   0  0  0  0  0  0  0  0  0  0  0  0
   60.2690   33.5280   46.7640 C   0  0  0  0  0  0  0  0  0  0  0  0
   59.1570   32.6910   46.5290 O   0  0  0  0  0  0  0  0  0  0  0  0
   57.9820   33.4620   46.3610 C   0  0  0  0  0  0  0  0  0  0  0  0
   57.3170   33.1210   45.0300 C   0  0  0  0  0  0  0  0  0  0  0  0
   58.0810   32.1310   44.3730 O   0  0  0  0  0  0  0  0  0  0  0  0
   57.4110   31.7190   43.2000 C   0  0  0  0  0  0  0  0  0  0  0  0
   56.3810   30.6540   43.5560 C   0  0  0  0  0  0  0  0  0  0  0  0
   56.6760   30.1280   44.8340 O   0  0  0  0  0  0  0  0  0  0  0  0
   57.4500   28.9490   44.7190 C   0  0  0  0  0  0  0  0  0  0  0  0
   58.9580   29.2720   44.6810 C   0  0  0  0  0  0  0  0  0  0  0  0
   59.3010   30.3400   45.6370 N   0  0  0  0  0  0  0  0  0  0  0  0
   60.1060   29.8380   46.7680 C   0  0  0  0  0  0  0  0  0  0  0  0
   59.2690   29.5800   48.0280 C   0  0  0  0  0  0  0  0  0  0  0  0
   59.5420   28.2860   48.5270 O   0  0  0  0  0  0  0  0  0  0  0  0
   59.2810   27.2990   47.5440 C   0  0  0  0  0  0  0  0  0  0  0  0
   57.7720   27.1060   47.3850 C   0  0  0  0  0  0  0  0  0  0  0  0
   57.4780   26.2070   46.2690 N   0  0  0  0  0  0  0  0  0  0  0  0
   56.2760   26.0110   45.6760 C   0  0  0  0  0  0  0  0  0  0  0  0
   55.1150   26.7080   45.9860 O   0  0  0  0  0  0  0  0  0  0  0  0
   56.3740   24.9340   44.8220 C   0  0  0  0  0  0  0  0  0  0  0  0
   57.5960   24.4420   44.8990 N   0  0  0  0  0  0  0  0  0  0  0  0
   58.2460   25.1880   45.8090 C   0  0  0  0  0  0  0  0  0  0  0  0
   59.3940   24.9120   46.2520 O   0  0  0  0  0  0  0  0  0  0  0  0
   57.6770   23.0510   44.5240 C   0  0  0  0  0  0  0  0  0  0  0  0
   56.2510   22.7340   44.0040 C   0  0  0  0  0  0  0  0  0  0  0  0
   55.3730   23.9750   44.3170 C   0  0  0  0  0  0  0  0  0  0  0  0
   59.7618   35.5555   47.2853 H   0  0  0  0  0  0  0  0  0  0  0  0
   60.7293   35.3886   45.7811 H   0  0  0  0  0  0  0  0  0  0  0  0
   58.9868   34.9527   45.7811 H   0  0  0  0  0  0  0  0  0  0  0  0
   61.1219   33.1849   46.1599 H   0  0  0  0  0  0  0  0  0  0  0  0
   60.5403   33.4916   47.8294 H   0  0  0  0  0  0  0  0  0  0  0  0
   57.2837   33.2449   47.1828 H   0  0  0  0  0  0  0  0  0  0  0  0
   58.2476   34.5294   46.3678 H   0  0  0  0  0  0  0  0  0  0  0  0
   56.3007   32.7416   45.2123 H   0  0  0  0  0  0  0  0  0  0  0  0
   57.2593   34.0225   44.4023 H   0  0  0  0  0  0  0  0  0  0  0  0
   56.9043   32.5822   42.7438 H   0  0  0  0  0  0  0  0  0  0  0  0
   58.1383   31.3043   42.4866 H   0  0  0  0  0  0  0  0  0  0  0  0
   55.3768   31.1028   43.5662 H   0  0  0  0  0  0  0  0  0  0  0  0
   56.4120   29.8470   42.8091 H   0  0  0  0  0  0  0  0  0  0  0  0
   57.2441   28.2992   45.5823 H   0  0  0  0  0  0  0  0  0  0  0  0
   57.1784   28.4447   43.7799 H   0  0  0  0  0  0  0  0  0  0  0  0
   59.5253   28.3653   44.9380 H   0  0  0  0  0  0  0  0  0  0  0  0
   59.2138   29.6171   43.6683 H   0  0  0  0  0  0  0  0  0  0  0  0
   58.4100   30.7290   46.0280 H   0  0  0  0  0  0  0  0  0  0  0  0
   59.8030   31.1180   45.1500 H   0  0  0  0  0  0  0  0  0  0  0  0
   60.5859   28.8953   46.4662 H   0  0  0  0  0  0  0  0  0  0  0  0
   60.8463   30.6129   47.0161 H   0  0  0  0  0  0  0  0  0  0  0  0
   59.5220   30.3278   48.7940 H   0  0  0  0  0  0  0  0  0  0  0  0
   58.2008   29.6545   47.7762 H   0  0  0  0  0  0  0  0  0  0  0  0
   59.7106   27.6190   46.5833 H   0  0  0  0  0  0  0  0  0  0  0  0
   59.7359   26.3478   47.8574 H   0  0  0  0  0  0  0  0  0  0  0  0
   57.3638   26.6761   48.3116 H   0  0  0  0  0  0  0  0  0  0  0  0
   57.3111   28.0837   47.1810 H   0  0  0  0  0  0  0  0  0  0  0  0
   58.4267   22.8997   43.7334 H   0  0  0  0  0  0  0  0  0  0  0  0
   57.9850   22.3999   45.3554 H   0  0  0  0  0  0  0  0  0  0  0  0
   56.2754   22.5512   42.9196 H   0  0  0  0  0  0  0  0  0  0  0  0
   55.8463   21.8324   44.4870 H   0  0  0  0  0  0  0  0  0  0  0  0
   54.8772   24.3536   43.4110 H   0  0  0  0  0  0  0  0  0  0  0  0
   54.5534   23.7740   45.0226 H   0  0  0  0  0  0  0  0  0  0  0  0
  1  2  1  0
  2  3  1  0
  3  4  1  0
  4  5  1  0
  5  6  1  0
  6  7  1  0
  7  8  1  0
  8  9  1  0
  9 10  1  0
 10 11  1  0
 11 12  1  0
 12 13  1  0
 13 14  1  0
 14 15  1  0
 15 16  1  0
 16 17  1  0
 17 18  1  0
 18 19  1  0
 19 20  1  0
 19 21  2  0
 21 22  1  0
 22 23  1  0
 23 24  2  0
 22 25  1  0
 25 26  1  0
 26 27  1  0
 23 18  1  0
 27 21  1  0
  1 28  1  0
  1 29  1  0
  1 30  1  0
  2 31  1  0
  2 32  1  0
  4 33  1  0
  4 34  1  0
  5 35  1  0
  5 36  1  0
  7 37  1  0
  7 38  1  0
  8 39  1  0
  8 40  1  0
 10 41  1  0
 10 42  1  0
 11 43  1  0
 11 44  1  0
 12 45  1  0
 12 46  1  0
 13 47  1  0
 13 48  1  0
 14 49  1  0
 14 50  1  0
 16 51  1  0
 16 52  1  0
 17 53  1  0
 17 54  1  0
 25 55  1  0
 25 56  1  0
 26 57  1  0
 26 58  1  0
 27 59  1  0
 27 60  1  0
M  CHG  2  12   1  20  -1
M  END
>  <UniqueID>  (20) 
20

>  <SMILES>  (20) 
CCOCCOCCOCC[NH2+]CCOCCn1c([O-])c2n(c1=O)CCC2

>  <Energy>  (20) 
109.43364737484099

>  <Genealogy>  (20) 
CCOCCOCCOCC[NH2+]CCOCCn1c([O-])c2n(c1=O)CCC2 (protonated)
CCOCCOCCOCC[NH2+]CCOCCn1c([O-])c2n(c1=O)CCC2 (3D coordinates assigned)
CCOCCOCCOCC[NH2+]CCOCCn1c([O-])c2n(c1=O)CCC2 (nonaromatic ring conformer: 109.43364737484099 kcal/mol)

>  <smiles>  (20) 
CCOCCOCCOCCNCCOCCn1c(O)c2n(c1=O)CCC2

>  <score_type>  (20) 
oracle

>  <origin>  (20) 
adg

>  <m_score__min__energy>  (20) 
-7.0800000000000001

>  <m_primary>  (20) 
energy

$$$$
20:0
     RDKit          3D

 48 51  0  0  0  0  0  0  0  0999 V2000
   59.6460   29.0550   50.0030 C   0  0  0  0  0  0  0  0  0  0  0  0
   60.3390   29.5570   48.8170 N   0  0  0  0  0  0  0  0  0  0  0  0
   61.1120   30.6570   48.7240 C   0  0  0  0  0  0  0  0  0  0  0  0
   61.4390   31.7960   50.0700 S   0  0  0  0  0  0  0  0  0  0  0  0
   60.0240   32.8710   49.6500 C   0  0  0  0  0  0  0  0  0  0  0  0
   60.4940   34.2350   49.1360 C   0  0  0  0  0  0  0  0  0  0  0  0
   59.8950   34.6050   47.7690 C   0  0  0  0  0  0  0  0  0  0  0  0
   60.1750   33.6100   46.7820 O   0  0  0  0  0  0  0  0  0  0  0  0
   59.2160   32.8650   46.0790 C   0  0  0  0  0  0  0  0  0  0  0  0
   57.9720   33.4560   45.8360 C   0  0  0  0  0  0  0  0  0  0  0  0
   56.9870   32.7490   45.1500 C   0  0  0  0  0  0  0  0  0  0  0  0
   57.2470   31.4500   44.7040 C   0  0  0  0  0  0  0  0  0  0  0  0
   56.2730   30.7140   44.0130 C   0  0  0  0  0  0  0  0  0  0  0  0
   56.5570   29.4170   43.5760 C   0  0  0  0  0  0  0  0  0  0  0  0
   57.8110   28.8500   43.8220 C   0  0  0  0  0  0  0  0  0  0  0  0
   58.7880   29.5770   44.5080 C   0  0  0  0  0  0  0  0  0  0  0  0
   58.5160   30.8800   44.9550 C   0  0  0  0  0  0  0  0  0  0  0  0
   59.4650   31.5970   45.6280 N   0  0  0  0  0  0  0  0  0  0  0  0
   61.6040   30.8160   47.4820 N   0  0  0  0  0  0  0  0  0  0  0  0
   61.1380   29.8120   46.7540 N   0  0  0  0  0  0  0  0  0  0  0  0
   60.3590   29.0610   47.5600 C   0  0  0  0  0  0  0  0  0  0  0  0
   59.6390   27.8600   47.0870 C   0  0  0  0  0  0  0  0  0  0  0  0
   60.3600   26.8020   46.5070 C   0  0  0  0  0  0  0  0  0  0  0  0
   59.6920   25.6690   46.0330 C   0  0  0  0  0  0  0  0  0  0  0  0
   58.2980   25.5880   46.1190 C   0  0  0  0  0  0  0  0  0  0  0  0
   57.4630   24.1670   45.5200 Cl  0  0  0  0  0  0  0  0  0  0  0  0
   57.5720   26.6470   46.6720 C   0  0  0  0  0  0  0  0  0  0  0  0
   58.2370   27.7810   47.1490 C   0  0  0  0  0  0  0  0  0  0  0  0
   60.1534   29.4225   50.9072 H   0  0  0  0  0  0  0  0  0  0  0  0
   58.6048   29.4098   49.9969 H   0  0  0  0  0  0  0  0  0  0  0  0
   59.6586   27.9551   49.9969 H   0  0  0  0  0  0  0  0  0  0  0  0
   59.4220   32.3822   48.8698 H   0  0  0  0  0  0  0  0  0  0  0  0
   59.4270   33.0301   50.5601 H   0  0  0  0  0  0  0  0  0  0  0  0
   60.2010   35.0039   49.8660 H   0  0  0  0  0  0  0  0  0  0  0  0
   61.5855   34.1795   49.0110 H   0  0  0  0  0  0  0  0  0  0  0  0
   58.8047   34.7066   47.8734 H   0  0  0  0  0  0  0  0  0  0  0  0
   60.3496   35.5512   47.4404 H   0  0  0  0  0  0  0  0  0  0  0  0
   57.7713   34.4791   46.1866 H   0  0  0  0  0  0  0  0  0  0  0  0
   56.0073   33.2117   44.9598 H   0  0  0  0  0  0  0  0  0  0  0  0
   55.2860   31.1574   43.8151 H   0  0  0  0  0  0  0  0  0  0  0  0
   55.7911   28.8404   43.0366 H   0  0  0  0  0  0  0  0  0  0  0  0
   58.0293   27.8293   43.4748 H   0  0  0  0  0  0  0  0  0  0  0  0
   59.7734   29.1268   44.6984 H   0  0  0  0  0  0  0  0  0  0  0  0
   60.3990   31.1600   45.7860 H   0  0  0  0  0  0  0  0  0  0  0  0
   61.4551   26.8658   46.4256 H   0  0  0  0  0  0  0  0  0  0  0  0
   60.2637   24.8394   45.5915 H   0  0  0  0  0  0  0  0  0  0  0  0
   56.4752   26.5882   46.7321 H   0  0  0  0  0  0  0  0  0  0  0  0
   57.6601   28.6152   47.5748 H   0  0  0  0  0  0  0  0  0  0  0  0
  1  2  1  0
  2  3  1  0
  3  4  1  0
  4  5  1  0
  5  6  1  0
  6  7  1  0
  7  8  1  0
  8  9  1  0
  9 10  2  0
 10 11  1  0
 11 12  2  0
 12 13  1  0
 13 14  2  0
 14 15  1  0
 15 16  2  0
 16 17  1  0
 17 18  2  0
  3 19  2  0
 19 20  1  0
 20 21  2  0
 21 22  1  0
 22 23  2  0
 23 24  1  0
 24 25  2  0
 25 26  1  0
 25 27  1  0
 27 28  2  0
 21  2  1  0
 28 22  1  0
 18  9  1  0
 17 12  1  0
  1 29  1  0
  1 30  1  0
  1 31  1  0
  5 32  1  0
  5 33  1  0
  6 34  1  0
  6 35  1  0
  7 36  1  0
  7 37  1  0
 10 38  1  0
 11 39  1  0
 13 40  1  0
 14 41  1  0
 15 42  1  0
 16 43  1  0
 18 44  1  0
 23 45  1  0
 24 46  1  0
 27 47  1  0
 28 48  1  0
M  CHG  1  18   1
M  END
>  <UniqueID>  (21) 
21

>  <SMILES>  (21) 
Cn1c(SCCCOc2ccc3ccccc3[nH+]2)nnc1-c1ccc(Cl)cc1

>  <Energy>  (21) 
86.65511064102414

>  <Genealogy>  (21) 
Cn1c(SCCCOc2ccc3ccccc3[nH+]2)nnc1-c1ccc(Cl)cc1 (protonated)
Cn1c(SCCCOc2ccc3ccccc3[nH+]2)nnc1-c1ccc(Cl)cc1 (3D coordinates assigned)
Cn1c(SCCCOc2ccc3ccccc3[nH+]2)nnc1-c1ccc(Cl)cc1 (optimized conformer: 86.65511064102414 kcal/mol)

>  <smiles>  (21) 
Cn1c(SCCCOc2ccc3ccccc3n2)nnc1-c1ccc(Cl)cc1

>  <score_type>  (21) 
oracle

>  <origin>  (21) 
adg

>  <m_score__min__energy>  (21) 
-6.6500000000000004

>  <m_primary>  (21) 
energy

$$$$
21:0
     RDKit          3D

 87 91  0  0  0  0  0  0  0  0999 V2000
   63.3800   33.8330   46.4820 C   0  0  0  0  0  0  0  0  0  0  0  0
   63.2480   32.7300   47.5200 C   0  0  0  0  0  0  0  0  0  0  0  0
   61.8860   32.4610   47.7390 O   0  0  0  0  0  0  0  0  0  0  0  0
   61.6250   32.8360   49.0190 N   0  0  0  0  0  0  0  0  0  0  0  0
   60.2490   33.3320   49.0640 C   0  0  0  0  0  0  0  0  0  0  0  0
   60.0990   34.6030   48.2190 C   0  0  0  0  0  0  0  0  0  0  0  0
   59.1420   34.4060   47.0280 C   0  0  0  0  0  0  0  0  0  0  0  0
   58.6520   32.9490   46.8800 C   0  0  0  0  0  0  0  0  0  0  0  0
   59.7220   32.0060   46.4880 N   0  0  0  0  0  0  0  0  0  0  0  0
   59.1890   30.7340   46.0310 C   0  0  0  0  0  0  0  0  0  0  0  0
   58.3760   30.6140   44.8550 C   0  0  0  0  0  0  0  0  0  0  0  0
   58.0310   31.7340   44.0540 C   0  0  0  0  0  0  0  0  0  0  0  0
   57.1960   31.5990   42.9480 C   0  0  0  0  0  0  0  0  0  0  0  0
   56.6760   30.3590   42.6070 C   0  0  0  0  0  0  0  0  0  0  0  0
   57.0170   29.2320   43.3450 C   0  0  0  0  0  0  0  0  0  0  0  0
   57.8990   29.3160   44.4520 C   0  0  0  0  0  0  0  0  0  0  0  0
   58.2910   28.1770   45.1340 N   0  0  0  0  0  0  0  0  0  0  0  0
   57.9600   26.8280   44.6340 C   0  0  0  0  0  0  0  0  0  0  0  0
   58.9980   28.3210   46.2950 C   0  0  0  0  0  0  0  0  0  0  0  0
   59.3350   27.3200   47.1450 N   0  0  0  0  0  0  0  0  0  0  0  0
   59.9980   27.9130   48.1500 C   0  0  0  0  0  0  0  0  0  0  0  0
   60.5180   27.2800   49.2760 C   0  0  0  0  0  0  0  0  0  0  0  0
   61.1470   28.0650   50.2500 C   0  0  0  0  0  0  0  0  0  0  0  0
   61.2360   29.4720   50.0940 C   0  0  0  0  0  0  0  0  0  0  0  0
   61.8120   30.2980   51.0700 O   0  0  0  0  0  0  0  0  0  0  0  0
   62.4710   29.8270   52.2430 C   0  0  0  0  0  0  0  0  0  0  0  0
   63.3530   30.9580   52.8160 C   0  0  0  0  0  0  0  0  0  0  0  0
   64.6230   31.2590   52.0710 N   0  0  0  0  0  0  0  0  0  0  0  0
   65.1160   29.9520   51.5510 C   0  0  0  0  0  0  0  0  0  0  0  0
   65.6330   31.8340   53.0080 C   0  0  0  0  0  0  0  0  0  0  0  0
   66.9200   32.3230   52.3070 C   0  0  0  0  0  0  0  0  0  0  0  0
   66.6600   33.2480   51.1690 N   0  0  0  0  0  0  0  0  0  0  0  0
   66.2080   34.5760   51.6630 C   0  0  0  0  0  0  0  0  0  0  0  0
   67.9310   33.4540   50.4320 C   0  0  0  0  0  0  0  0  0  0  0  0
   65.6620   32.6630   50.2310 C   0  0  0  0  0  0  0  0  0  0  0  0
   64.3700   32.1890   50.9320 C   0  0  0  0  0  0  0  0  0  0  0  0
   60.7200   30.0800   48.9360 C   0  0  0  0  0  0  0  0  0  0  0  0
   60.0940   29.2780   47.9670 C   0  0  0  0  0  0  0  0  0  0  0  0
   59.4420   29.5490   46.7560 C   0  0  0  0  0  0  0  0  0  0  0  0
   63.4960   34.8021   46.9894 H   0  0  0  0  0  0  0  0  0  0  0  0
   64.2615   33.6408   45.8528 H   0  0  0  0  0  0  0  0  0  0  0  0
   62.4780   33.8542   45.8528 H   0  0  0  0  0  0  0  0  0  0  0  0
   63.7486   31.8206   47.1560 H   0  0  0  0  0  0  0  0  0  0  0  0
   63.7170   33.0512   48.4617 H   0  0  0  0  0  0  0  0  0  0  0  0
   61.6690   31.9670   49.6010 H   0  0  0  0  0  0  0  0  0  0  0  0
   59.5736   32.5571   48.6724 H   0  0  0  0  0  0  0  0  0  0  0  0
   59.9948   33.5708   50.1072 H   0  0  0  0  0  0  0  0  0  0  0  0
   59.7069   35.4080   48.8580 H   0  0  0  0  0  0  0  0  0  0  0  0
   61.0902   34.8563   47.8148 H   0  0  0  0  0  0  0  0  0  0  0  0
   58.2669   35.0570   47.1705 H   0  0  0  0  0  0  0  0  0  0  0  0
   59.6990   34.6595   46.1139 H   0  0  0  0  0  0  0  0  0  0  0  0
   58.2349   32.6219   47.8439 H   0  0  0  0  0  0  0  0  0  0  0  0
   57.9005   32.9393   46.0768 H   0  0  0  0  0  0  0  0  0  0  0  0
   60.4220   31.9240   47.2520 H   0  0  0  0  0  0  0  0  0  0  0  0
   60.2930   32.4130   45.7180 H   0  0  0  0  0  0  0  0  0  0  0  0
   58.4304   32.7260   44.3116 H   0  0  0  0  0  0  0  0  0  0  0  0
   56.9470   32.4816   42.3405 H   0  0  0  0  0  0  0  0  0  0  0  0
   55.9921   30.2676   41.7503 H   0  0  0  0  0  0  0  0  0  0  0  0
   56.5945   28.2558   43.0649 H   0  0  0  0  0  0  0  0  0  0  0  0
   57.7941   26.1518   45.4856 H   0  0  0  0  0  0  0  0  0  0  0  0
   57.0474   26.8775   44.0219 H   0  0  0  0  0  0  0  0  0  0  0  0
   58.7919   26.4495   44.0219 H   0  0  0  0  0  0  0  0  0  0  0  0
   59.1020   26.3040   47.0900 H   0  0  0  0  0  0  0  0  0  0  0  0
   60.4366   26.1898   49.3974 H   0  0  0  0  0  0  0  0  0  0  0  0
   61.5755   27.5868   51.1432 H   0  0  0  0  0  0  0  0  0  0  0  0
   61.7222   29.5288   52.9915 H   0  0  0  0  0  0  0  0  0  0  0  0
   63.0983   28.9589   51.9923 H   0  0  0  0  0  0  0  0  0  0  0  0
   62.7491   31.8773   52.8326 H   0  0  0  0  0  0  0  0  0  0  0  0
   63.6731   30.6045   53.8073 H   0  0  0  0  0  0  0  0  0  0  0  0
   65.3650   29.2920   52.3950 H   0  0  0  0  0  0  0  0  0  0  0  0
   64.3331   29.4828   50.9371 H   0  0  0  0  0  0  0  0  0  0  0  0
   66.0138   30.1167   50.9371 H   0  0  0  0  0  0  0  0  0  0  0  0
   65.1762   32.6873   53.5307 H   0  0  0  0  0  0  0  0  0  0  0  0
   65.9275   31.0294   53.6978 H   0  0  0  0  0  0  0  0  0  0  0  0
   67.5422   32.8474   53.0472 H   0  0  0  0  0  0  0  0  0  0  0  0
   67.4222   31.4352   51.8950 H   0  0  0  0  0  0  0  0  0  0  0  0
   66.2076   34.5773   52.7630 H   0  0  0  0  0  0  0  0  0  0  0  0
   66.8913   35.3559   51.2957 H   0  0  0  0  0  0  0  0  0  0  0  0
   65.1908   34.7771   51.2957 H   0  0  0  0  0  0  0  0  0  0  0  0
   68.7537   33.5873   51.1499 H   0  0  0  0  0  0  0  0  0  0  0  0
   68.1345   32.5771   49.7998 H   0  0  0  0  0  0  0  0  0  0  0  0
   67.8472   34.3503   49.7998 H   0  0  0  0  0  0  0  0  0  0  0  0
   65.3948   33.4259   49.4850 H   0  0  0  0  0  0  0  0  0  0  0  0
   66.1265   31.7784   49.7708 H   0  0  0  0  0  0  0  0  0  0  0  0
   63.8362   33.0717   51.3141 H   0  0  0  0  0  0  0  0  0  0  0  0
   63.7787   31.6372   50.1864 H   0  0  0  0  0  0  0  0  0  0  0  0
   60.8051   31.1671   48.7909 H   0  0  0  0  0  0  0  0  0  0  0  0
  1  2  1  0
  2  3  1  0
  3  4  1  0
  4  5  1  0
  5  6  1  0
  6  7  1  0
  7  8  1  0
  8  9  1  0
  9 10  1  0
 10 11  2  0
 11 12  1  0
 12 13  2  0
 13 14  1  0
 14 15  2  0
 15 16  1  0
 16 17  2  0
 17 18  1  0
 17 19  1  0
 19 20  1  0
 20 21  1  0
 21 22  2  0
 22 23  1  0
 23 24  2  0
 24 25  1  0
 25 26  1  0
 26 27  1  0
 27 28  1  0
 28 29  1  0
 28 30  1  0
 30 31  1  0
 31 32  1  0
 32 33  1  0
 32 34  1  0
 32 35  1  0
 35 36  1  0
 24 37  1  0
 37 38  2  0
 38 39  1  0
 39 10  1  0
 16 11  1  0
 39 19  2  0
 38 21  1  0
 36 28  1  0
  1 40  1  0
  1 41  1  0
  1 42  1  0
  2 43  1  0
  2 44  1  0
  4 45  1  0
  5 46  1  0
  5 47  1  0
  6 48  1  0
  6 49  1  0
  7 50  1  0
  7 51  1  0
  8 52  1  0
  8 53  1  0
  9 54  1  0
  9 55  1  0
 12 56  1  0
 13 57  1  0
 14 58  1  0
 15 59  1  0
 18 60  1  0
 18 61  1  0
 18 62  1  0
 20 63  1  0
 22 64  1  0
 23 65  1  0
 26 66  1  0
 26 67  1  0
 27 68  1  0
 27 69  1  0
 29 70  1  0
 29 71  1  0
 29 72  1  0
 30 73  1  0
 30 74  1  0
 31 75  1  0
 31 76  1  0
 33 77  1  0
 33 78  1  0
 33 79  1  0
 34 80  1  0
 34 81  1  0
 34 82  1  0
 35 83  1  0
 35 84  1  0
 36 85  1  0
 36 86  1  0
 37 87  1  0
M  CHG  4   9   1  17   1  28   1  32   1
M  END
>  <UniqueID>  (22) 
22

>  <SMILES>  (22) 
CCONCCCC[NH2+]c1c2ccccc2[n+](C)c2[nH]c3ccc(OCC[N+]4(C)CC[N+](C)(C)CC4)cc3c12

>  <Energy>  (22) 
161.5957619746607

>  <Genealogy>  (22) 
CCONCCCC[NH2+]c1c2ccccc2[n+](C)c2[nH]c3ccc(OCC[N+]4(C)CC[N+](C)(C)CC4)cc3c12 (protonated)
CCONCCCC[NH2+]c1c2ccccc2[n+](C)c2[nH]c3ccc(OCC[N+]4(C)CC[N+](C)(C)CC4)cc3c12 (3D coordinates assigned)
CCONCCCC[NH2+]c1c2ccccc2[n+](C)c2[nH]c3ccc(OCC[N+]4(C)CC[N+](C)(C)CC4)cc3c12 (nonaromatic ring conformer: 161.5957619746607 kcal/mol)

>  <smiles>  (22) 
CCONCCCCNc1c2ccccc2[n+](C)c2[nH]c3ccc(OCC[N+]4(C)CC[N+](C)(C)CC4)cc3c12

>  <score_type>  (22) 
oracle

>  <origin>  (22) 
adg

>  <m_score__min__energy>  (22) 
-4.4299999999999997

>  <m_primary>  (22) 
energy

$$$$
