0:0
     RDKit          3D

 47 50  0  0  0  0  0  0  0  0999 V2000
   66.7248   32.0133   51.3829 H   0  0  0  0  0  0  0  0  0  0  0  0
   65.8040   32.0450   50.7820 C   0  0  0  0  0  0  0  0  0  0  0  0
   65.6860   32.9600   49.7330 C   0  0  0  0  0  0  0  0  0  0  0  0
   66.5142   33.6483   49.5088 H   0  0  0  0  0  0  0  0  0  0  0  0
   64.5170   33.0020   48.9680 C   0  0  0  0  0  0  0  0  0  0  0  0
   64.4292   33.7252   48.1438 H   0  0  0  0  0  0  0  0  0  0  0  0
   63.4510   32.1250   49.2450 C   0  0  0  0  0  0  0  0  0  0  0  0
   62.2090   32.1690   48.4320 C   0  0  0  0  0  0  0  0  0  0  0  0
   61.5580   33.3790   48.1920 C   0  0  0  0  0  0  0  0  0  0  0  0
   61.9626   34.3113   48.6128 H   0  0  0  0  0  0  0  0  0  0  0  0
   60.3980   33.4120   47.4220 C   0  0  0  0  0  0  0  0  0  0  0  0
   59.7700   34.6910   47.1780 C   0  0  0  0  0  0  0  0  0  0  0  0
   59.2690   35.7160   46.9820 N   0  0  0  0  0  0  0  0  0  0  0  0
   59.8780   32.2200   46.8720 C   0  0  0  0  0  0  0  0  0  0  0  0
   58.8460   32.3450   46.0700 N   0  0  0  0  0  0  0  0  0  0  0  0
   58.6760   32.4240   44.6180 C   0  0  0  0  0  0  0  0  0  0  0  0
   58.2419   33.4034   44.3682 H   0  0  0  0  0  0  0  0  0  0  0  0
   59.6675   32.2872   44.1617 H   0  0  0  0  0  0  0  0  0  0  0  0
   57.7710   31.3410   44.0710 C   0  0  0  0  0  0  0  0  0  0  0  0
   57.1210   30.4920   44.9840 C   0  0  0  0  0  0  0  0  0  0  0  0
   57.2944   30.6195   46.0627 H   0  0  0  0  0  0  0  0  0  0  0  0
   56.2580   29.4890   44.5380 C   0  0  0  0  0  0  0  0  0  0  0  0
   55.7816   28.8115   45.2619 H   0  0  0  0  0  0  0  0  0  0  0  0
   56.0000   29.3460   43.1750 C   0  0  0  0  0  0  0  0  0  0  0  0
   55.3350   28.5438   42.8226 H   0  0  0  0  0  0  0  0  0  0  0  0
   56.5850   30.2200   42.2580 C   0  0  0  0  0  0  0  0  0  0  0  0
   56.3636   30.1151   41.1856 H   0  0  0  0  0  0  0  0  0  0  0  0
   57.4530   31.2310   42.6940 C   0  0  0  0  0  0  0  0  0  0  0  0
   58.0560   32.3600   41.4850 Cl  0  0  0  0  0  0  0  0  0  0  0  0
   60.5010   31.0170   47.1620 N   0  0  0  0  0  0  0  0  0  0  0  0
   59.9660   29.7240   46.8360 C   0  0  0  0  0  0  0  0  0  0  0  0
   59.3750   28.9370   47.8380 C   0  0  0  0  0  0  0  0  0  0  0  0
   59.2287   29.3523   48.8460 H   0  0  0  0  0  0  0  0  0  0  0  0
   58.9720   27.6280   47.5590 C   0  0  0  0  0  0  0  0  0  0  0  0
   58.4779   27.0279   48.3373 H   0  0  0  0  0  0  0  0  0  0  0  0
   59.1960   27.0800   46.2920 C   0  0  0  0  0  0  0  0  0  0  0  0
   58.6910   25.4370   45.9440 Cl  0  0  0  0  0  0  0  0  0  0  0  0
   59.8340   27.8390   45.3070 C   0  0  0  0  0  0  0  0  0  0  0  0
   60.0272   27.4023   44.3160 H   0  0  0  0  0  0  0  0  0  0  0  0
   60.2270   29.1530   45.5800 C   0  0  0  0  0  0  0  0  0  0  0  0
   60.7429   29.7419   44.8074 H   0  0  0  0  0  0  0  0  0  0  0  0
   61.6510   30.9960   47.9080 C   0  0  0  0  0  0  0  0  0  0  0  0
   62.1481   30.0337   48.0999 H   0  0  0  0  0  0  0  0  0  0  0  0
   63.5820   31.2090   50.3050 C   0  0  0  0  0  0  0  0  0  0  0  0
   62.7575   30.5182   50.5353 H   0  0  0  0  0  0  0  0  0  0  0  0
   64.7540   31.1710   51.0680 C   0  0  0  0  0  0  0  0  0  0  0  0
   64.8481   30.4513   51.8945 H   0  0  0  0  0  0  0  0  0  0  0  0
  1  2  1  0
  2  3  2  0
  3  4  1  0
  3  5  1  0
  5  6  1  0
  5  7  2  0
  7  8  1  0
  8  9  1  0
  9 10  1  0
  9 11  2  0
 11 12  1  0
 12 13  3  0
 11 14  1  0
 14 15  2  0
 15 16  1  0
 16 17  1  0
 16 18  1  0
 16 19  1  0
 19 20  2  0
 20 21  1  0
 20 22  1  0
 22 23  1  0
 22 24  2  0
 24 25  1  0
 24 26  1  0
 26 27  1  0
 26 28  2  0
 28 29  1  0
 14 30  1  0
 30 31  1  0
 31 32  2  0
 32 33  1  0
 32 34  1  0
 34 35  1  0
 34 36  2  0
 36 37  1  0
 36 38  1  0
 38 39  1  0
 38 40  2  0
 40 41  1  0
 30 42  1  0
 42 43  1  0
  7 44  1  0
 44 45  1  0
 44 46  2  0
 46 47  1  0
 46  2  1  0
 42  8  2  0
 28 19  1  0
 40 31  1  0
M  END
>  <UniqueID>  (1) 
1

>  <SMILES>  (1) 
N#Cc1cc(-c2ccccc2)cn(-c2ccc(Cl)cc2)/c1=N\Cc1ccccc1Cl

>  <Energy>  (1) 
79.19812953719614

>  <Genealogy>  (1) 
N#Cc1cc(-c2ccccc2)cn(-c2ccc(Cl)cc2)/c1=N\Cc1ccccc1Cl (cis-trans isomerization)
N#Cc1cc(-c2ccccc2)cn(-c2ccc(Cl)cc2)/c1=N\Cc1ccccc1Cl (3D coordinates assigned)
N#Cc1cc(-c2ccccc2)cn(-c2ccc(Cl)cc2)/c1=N\Cc1ccccc1Cl (optimized conformer: 79.19812953719614 kcal/mol)

>  <smiles>  (1) 
N#Cc1cc(-c2ccccc2)cn(-c2ccc(Cl)cc2)c1=NCc1ccccc1Cl

>  <score_type>  (1) 
oracle

>  <origin>  (1) 
adg

>  <m_score__min__energy>  (1) 
-8.4600000000000009

>  <m_primary>  (1) 
energy

$$$$
1:0
     RDKit          3D

 29 31  0  0  0  0  0  0  0  0999 V2000
   56.5840   30.2660   43.4630 C   0  0  0  0  0  0  0  0  0  0  0  0
   56.3670   31.2130   44.5050 O   0  0  0  0  0  0  0  0  0  0  0  0
   57.3870   31.9270   45.1480 C   0  0  0  0  0  0  0  0  0  0  0  0
   57.4480   33.3280   44.9570 C   0  0  0  0  0  0  0  0  0  0  0  0
   58.4490   34.0990   45.5760 C   0  0  0  0  0  0  0  0  0  0  0  0
   59.3730   33.4390   46.3780 C   0  0  0  0  0  0  0  0  0  0  0  0
   60.3760   33.9600   47.0410 O   0  0  0  0  0  0  0  0  0  0  0  0
   60.9970   32.9770   47.6720 C   0  0  0  0  0  0  0  0  0  0  0  0
   62.1880   33.1880   48.5280 C   0  0  0  0  0  0  0  0  0  0  0  0
   62.1460   34.0310   49.6560 C   0  0  0  0  0  0  0  0  0  0  0  0
   63.2840   34.2130   50.4470 C   0  0  0  0  0  0  0  0  0  0  0  0
   64.4750   33.5580   50.1240 C   0  0  0  0  0  0  0  0  0  0  0  0
   64.5290   32.7200   49.0080 C   0  0  0  0  0  0  0  0  0  0  0  0
   63.3930   32.5340   48.2140 C   0  0  0  0  0  0  0  0  0  0  0  0
   60.3650   31.7580   47.4060 C   0  0  0  0  0  0  0  0  0  0  0  0
   59.3240   32.0880   46.5700 C   0  0  0  0  0  0  0  0  0  0  0  0
   58.3480   31.2910   45.9750 C   0  0  0  0  0  0  0  0  0  0  0  0
   56.8093   29.2829   43.9021 H   0  0  0  0  0  0  0  0  0  0  0  0
   55.6797   30.1913   42.8412 H   0  0  0  0  0  0  0  0  0  0  0  0
   57.4306   30.5926   42.8412 H   0  0  0  0  0  0  0  0  0  0  0  0
   56.7025   33.8209   44.3157 H   0  0  0  0  0  0  0  0  0  0  0  0
   58.4988   35.1881   45.4301 H   0  0  0  0  0  0  0  0  0  0  0  0
   61.2113   34.5495   49.9160 H   0  0  0  0  0  0  0  0  0  0  0  0
   63.2417   34.8734   51.3257 H   0  0  0  0  0  0  0  0  0  0  0  0
   65.3693   33.7021   50.7480 H   0  0  0  0  0  0  0  0  0  0  0  0
   65.4671   32.2052   48.7531 H   0  0  0  0  0  0  0  0  0  0  0  0
   63.4422   31.8713   47.3374 H   0  0  0  0  0  0  0  0  0  0  0  0
   60.6387   30.7607   47.7808 H   0  0  0  0  0  0  0  0  0  0  0  0
   58.3236   30.2039   46.1413 H   0  0  0  0  0  0  0  0  0  0  0  0
  1  2  1  0
  2  3  1  0
  3  4  2  0
  4  5  1  0
  5  6  2  0
  6  7  1  0
  7  8  1  0
  8  9  1  0
  9 10  2  0
 10 11  1  0
 11 12  2  0
 12 13  1  0
 13 14  2  0
  8 15  2  0
 15 16  1  0
 16 17  2  0
 17  3  1  0
 16  6  1  0
 14  9  1  0
  1 18  1  0
  1 19  1  0
  1 20  1  0
  4 21  1  0
  5 22  1  0
 10 23  1  0
 11 24  1  0
 12 25  1  0
 13 26  1  0
 14 27  1  0
 15 28  1  0
 17 29  1  0
M  END
>  <UniqueID>  (2) 
2

>  <SMILES>  (2) 
COc1ccc2oc(-c3ccccc3)cc2c1

>  <Energy>  (2) 
65.63243175664341

>  <Genealogy>  (2) 
COc1ccc2oc(-c3ccccc3)cc2c1 (3D coordinates assigned)
COc1ccc2oc(-c3ccccc3)cc2c1 (optimized conformer: 65.63243175664341 kcal/mol)

>  <smiles>  (2) 
COc1ccc2oc(-c3ccccc3)cc2c1

>  <score_type>  (2) 
oracle

>  <origin>  (2) 
adg

>  <m_score__min__energy>  (2) 
-5.9900000000000002

>  <m_primary>  (2) 
energy

$$$$
2:0
     RDKit          3D

 32 34  0  0  0  0  0  0  0  0999 V2000
   56.7640   27.3570   45.6990 C   0  0  0  0  0  0  0  0  0  0  0  0
   55.9160   28.4060   45.2440 O   0  0  0  0  0  0  0  0  0  0  0  0
   56.3820   29.4750   44.4740 C   0  0  0  0  0  0  0  0  0  0  0  0
   57.0130   30.5300   45.0600 N   0  0  0  0  0  0  0  0  0  0  0  0
   57.4740   31.5840   44.3340 C   0  0  0  0  0  0  0  0  0  0  0  0
   58.1590   32.6890   45.0470 C   0  0  0  0  0  0  0  0  0  0  0  0
   57.6330   33.9890   45.1300 C   0  0  0  0  0  0  0  0  0  0  0  0
   58.3090   34.9420   45.8200 N   0  0  0  0  0  0  0  0  0  0  0  0
   59.4920   34.6740   46.4300 C   0  0  0  0  0  0  0  0  0  0  0  0
   60.0320   33.3800   46.3580 C   0  0  0  0  0  0  0  0  0  0  0  0
   61.3120   33.0160   47.0180 C   0  0  0  0  0  0  0  0  0  0  0  0
   62.4850   33.7700   46.8270 C   0  0  0  0  0  0  0  0  0  0  0  0
   63.6730   33.3930   47.4560 C   0  0  0  0  0  0  0  0  0  0  0  0
   63.6870   32.2600   48.2690 C   0  0  0  0  0  0  0  0  0  0  0  0
   62.5540   31.5310   48.4400 N   0  0  0  0  0  0  0  0  0  0  0  0
   61.3840   31.8750   47.8380 C   0  0  0  0  0  0  0  0  0  0  0  0
   59.3380   32.4280   45.6740 N   0  0  0  0  0  0  0  0  0  0  0  0
   57.3040   31.5700   42.9390 C   0  0  0  0  0  0  0  0  0  0  0  0
   56.6550   30.4830   42.3540 C   0  0  0  0  0  0  0  0  0  0  0  0
   56.2040   29.4600   43.1260 N   0  0  0  0  0  0  0  0  0  0  0  0
   56.7740   27.3446   46.7989 H   0  0  0  0  0  0  0  0  0  0  0  0
   56.3881   26.3933   45.3249 H   0  0  0  0  0  0  0  0  0  0  0  0
   57.7851   27.5225   45.3249 H   0  0  0  0  0  0  0  0  0  0  0  0
   56.6794   34.2328   44.6389 H   0  0  0  0  0  0  0  0  0  0  0  0
   60.0242   35.4660   46.9773 H   0  0  0  0  0  0  0  0  0  0  0  0
   62.4657   34.6593   46.1799 H   0  0  0  0  0  0  0  0  0  0  0  0
   64.5894   33.9841   47.3117 H   0  0  0  0  0  0  0  0  0  0  0  0
   64.6168   31.9564   48.7723 H   0  0  0  0  0  0  0  0  0  0  0  0
   60.4876   31.2567   47.9933 H   0  0  0  0  0  0  0  0  0  0  0  0
   57.6756   32.4003   42.3205 H   0  0  0  0  0  0  0  0  0  0  0  0
   56.5078   30.4538   41.2643 H   0  0  0  0  0  0  0  0  0  0  0  0
   55.7200   28.6520   42.6760 H   0  0  0  0  0  0  0  0  0  0  0  0
  1  2  1  0
  2  3  1  0
  3  4  2  0
  4  5  1  0
  5  6  1  0
  6  7  2  0
  7  8  1  0
  8  9  2  0
  9 10  1  0
 10 11  1  0
 11 12  2  0
 12 13  1  0
 13 14  2  0
 14 15  1  0
 15 16  2  0
 10 17  2  0
  5 18  2  0
 18 19  1  0
 19 20  2  0
 20  3  1  0
 17  6  1  0
 16 11  1  0
  1 21  1  0
  1 22  1  0
  1 23  1  0
  7 24  1  0
  9 25  1  0
 12 26  1  0
 13 27  1  0
 14 28  1  0
 16 29  1  0
 18 30  1  0
 19 31  1  0
 20 32  1  0
M  CHG  1  20   1
M  END
>  <UniqueID>  (3) 
3

>  <SMILES>  (3) 
COc1nc(-c2cncc(-c3cccnc3)n2)cc[nH+]1

>  <Energy>  (3) 
41.95336576137815

>  <Genealogy>  (3) 
COc1nc(-c2cncc(-c3cccnc3)n2)cc[nH+]1 (protonated)
COc1nc(-c2cncc(-c3cccnc3)n2)cc[nH+]1 (3D coordinates assigned)
COc1nc(-c2cncc(-c3cccnc3)n2)cc[nH+]1 (optimized conformer: 41.95336576137815 kcal/mol)

>  <smiles>  (3) 
COc1nccc(-c2cncc(-c3cccnc3)n2)n1

>  <score_type>  (3) 
oracle

>  <origin>  (3) 
adg

>  <m_score__min__energy>  (3) 
-6.0999999999999996

>  <m_primary>  (3) 
energy

$$$$
3:0
     RDKit          3D

 50 53  0  0  1  0  0  0  0  0999 V2000
   63.3900   33.8250   48.8490 C   0  0  0  0  0  0  0  0  0  0  0  0
   61.9110   33.5930   48.9440 C   0  0  0  0  0  0  0  0  0  0  0  0
   61.2900   33.5290   50.1880 C   0  0  0  0  0  0  0  0  0  0  0  0
   59.9290   33.3140   50.2220 C   0  0  0  0  0  0  0  0  0  0  0  0
   59.1790   33.2280   51.4290 N   0  0  0  0  0  0  0  0  0  0  0  0
   58.4270   32.2670   51.7710 C   0  0  0  0  0  0  0  0  0  0  0  0
   58.9840   31.1010   52.2740 C   0  0  0  0  0  0  0  0  0  0  0  0
   58.1010   30.0910   52.6260 C   0  0  0  0  0  0  0  0  0  0  0  0
   56.7760   30.2700   52.4740 N   0  0  0  0  0  0  0  0  0  0  0  0
   55.7770   29.4110   52.7590 C   0  0  0  0  0  0  0  0  0  0  0  0
   54.6060   30.0470   52.4320 C   0  0  0  0  0  0  0  0  0  0  0  0
   54.9120   31.2690   51.9580 N   0  0  0  0  0  0  0  0  0  0  0  0
   56.2560   31.4280   51.9760 C   0  0  0  0  0  0  0  0  0  0  0  0
   57.0950   32.4210   51.6280 N   0  0  0  0  0  0  0  0  0  0  0  0
   59.2070   33.1660   49.0380 C   0  0  0  0  0  0  0  0  0  0  0  0
   59.8050   33.2270   47.8030 C   0  0  0  0  0  0  0  0  0  0  0  0
   59.0800   33.0780   46.5450 C   0  0  0  0  0  0  0  0  0  0  0  0
   58.9170   34.2440   45.7930 C   0  0  0  0  0  0  0  0  0  0  0  0
   58.2420   34.2070   44.5800 C   0  0  0  0  0  0  0  0  0  0  0  0
   57.7340   32.9950   44.1340 C   0  0  0  0  0  0  0  0  0  0  0  0
   57.9040   31.8390   44.8980 C   0  0  0  0  0  0  0  0  0  0  0  0
   57.2230   30.3660   44.2450 S   0  0  0  0  0  0  0  0  0  0  0  0
   55.8490   30.2190   44.8680 O   0  0  0  0  0  0  0  0  0  0  0  0
   57.0290   30.4430   42.7730 O   0  0  0  0  0  0  0  0  0  0  0  0
   58.2010   29.0320   44.7100 N   0  0  0  0  0  0  0  0  0  0  0  0
   57.8240   27.8100   44.0560 C   0  0  0  0  0  0  0  0  0  0  0  0
   59.6130   29.3390   44.5740 C   0  0  0  0  0  0  0  0  0  0  0  0
   58.5770   31.8910   46.0990 C   0  0  0  0  0  0  0  0  0  0  0  0
   61.1860   33.4460   47.7790 C   0  0  0  0  0  0  0  0  0  0  0  0
   63.8164   33.8919   49.8608 H   0  0  0  0  0  0  0  0  0  0  0  0
   63.8583   32.9893   48.3083 H   0  0  0  0  0  0  0  0  0  0  0  0
   63.5799   34.7639   48.3083 H   0  0  0  0  0  0  0  0  0  0  0  0
   61.8682   33.6465   51.1164 H   0  0  0  0  0  0  0  0  0  0  0  0
   60.0717   30.9830   52.3881 H   0  0  0  0  0  0  0  0  0  0  0  0
   58.4843   29.1424   53.0300 H   0  0  0  0  0  0  0  0  0  0  0  0
   55.8805   28.3972   53.1732 H   0  0  0  0  0  0  0  0  0  0  0  0
   53.5934   29.6307   52.5387 H   0  0  0  0  0  0  0  0  0  0  0  0
   54.2110   31.9610   51.6360 H   0  0  0  0  0  0  0  0  0  0  0  0
   58.1219   32.9946   49.0951 H   0  0  0  0  0  0  0  0  0  0  0  0
   59.3253   35.1959   46.1635 H   0  0  0  0  0  0  0  0  0  0  0  0
   58.1123   35.1220   43.9833 H   0  0  0  0  0  0  0  0  0  0  0  0
   57.1959   32.9451   43.1759 H   0  0  0  0  0  0  0  0  0  0  0  0
   57.5886   27.0468   44.8124 H   0  0  0  0  0  0  0  0  0  0  0  0
   56.9391   27.9884   43.4274 H   0  0  0  0  0  0  0  0  0  0  0  0
   58.6556   27.4589   43.4274 H   0  0  0  0  0  0  0  0  0  0  0  0
   60.0647   29.4372   45.5722 H   0  0  0  0  0  0  0  0  0  0  0  0
   60.1131   28.5286   44.0234 H   0  0  0  0  0  0  0  0  0  0  0  0
   59.7314   30.2839   44.0234 H   0  0  0  0  0  0  0  0  0  0  0  0
   58.7085   30.9772   46.6971 H   0  0  0  0  0  0  0  0  0  0  0  0
   61.7054   33.5023   46.8110 H   0  0  0  0  0  0  0  0  0  0  0  0
  1  2  1  0
  2  3  2  0
  3  4  1  0
  4  5  1  0
  5  6  2  0
  6  7  1  0
  7  8  2  0
  8  9  1  0
  9 10  1  0
 10 11  2  0
 11 12  1  0
 12 13  1  0
 13 14  2  0
  4 15  2  0
 15 16  1  0
 16 17  1  0
 17 18  2  0
 18 19  1  0
 19 20  2  0
 20 21  1  0
 21 22  1  0
 22 23  2  0
 22 24  2  0
 22 25  1  0
 25 26  1  0
 25 27  1  0
 21 28  2  0
 16 29  2  0
 29  2  1  0
 14  6  1  0
 28 17  1  0
 13  9  1  0
  1 30  1  0
  1 31  1  0
  1 32  1  0
  3 33  1  0
  7 34  1  0
  8 35  1  0
 10 36  1  0
 11 37  1  0
 12 38  1  0
 15 39  1  0
 18 40  1  0
 19 41  1  0
 20 42  1  0
 26 43  1  0
 26 44  1  0
 26 45  1  0
 27 46  1  0
 27 47  1  0
 27 48  1  0
 28 49  1  0
 29 50  1  0
M  END
>  <smiles>  (4) 
Cc1cc(N=c2ccn3cc[nH]c3n2)cc(-c2cccc(S(=O)(=O)N(C)C)c2)c1

>  <score_type>  (4) 
oracle

>  <origin>  (4) 
adg

>  <m_score__min__energy>  (4) 
-10.17

>  <m_primary>  (4) 
energy

$$$$
4:0
     RDKit          3D

 53 55  0  0  0  0  0  0  0  0999 V2000
   61.4860   33.3260   46.7980 C   0  0  0  0  0  0  0  0  0  0  0  0
   62.3410   33.2540   48.0040 C   0  0  0  0  0  0  0  0  0  0  0  0
   63.6980   32.9980   48.0120 C   0  0  0  0  0  0  0  0  0  0  0  0
   64.0760   33.0230   49.3160 N   0  0  0  0  0  0  0  0  0  0  0  0
   65.4590   32.7900   49.7040 C   0  0  0  0  0  0  0  0  0  0  0  0
   63.0290   33.2790   50.0750 N   0  0  0  0  0  0  0  0  0  0  0  0
   63.0190   33.3850   51.5050 C   0  0  0  0  0  0  0  0  0  0  0  0
   61.9610   33.4230   49.3000 N   0  0  0  0  0  0  0  0  0  0  0  0
   60.5810   33.7170   49.7390 C   0  0  0  0  0  0  0  0  0  0  0  0
   60.1290   32.4700   50.4560 C   0  0  0  0  0  0  0  0  0  0  0  0
   59.3240   31.5510   49.6050 C   0  0  0  0  0  0  0  0  0  0  0  0
   58.5520   32.3530   48.5900 C   0  0  0  0  0  0  0  0  0  0  0  0
   58.5070   31.5950   47.3440 N   0  0  0  0  0  0  0  0  0  0  0  0
   58.6940   30.2800   47.1430 C   0  0  0  0  0  0  0  0  0  0  0  0
   58.5610   29.9990   45.7990 C   0  0  0  0  0  0  0  0  0  0  0  0
   58.6800   28.7070   45.1020 C   0  0  0  0  0  0  0  0  0  0  0  0
   57.5270   28.5440   44.1660 C   0  0  0  0  0  0  0  0  0  0  0  0
   56.2910   28.6170   44.9370 N   0  0  0  0  0  0  0  0  0  0  0  0
   55.8960   27.6470   45.6180 O   0  0  0  0  0  0  0  0  0  0  0  0
   55.5790   29.7940   44.8860 O   0  0  0  0  0  0  0  0  0  0  0  0
   58.2830   31.1890   45.1610 C   0  0  0  0  0  0  0  0  0  0  0  0
   58.0510   31.5430   43.8430 C   0  0  0  0  0  0  0  0  0  0  0  0
   57.7970   32.8500   43.5210 C   0  0  0  0  0  0  0  0  0  0  0  0
   57.7620   33.8400   44.4760 C   0  0  0  0  0  0  0  0  0  0  0  0
   57.9960   33.4820   45.7990 C   0  0  0  0  0  0  0  0  0  0  0  0
   58.2570   32.1590   46.1450 C   0  0  0  0  0  0  0  0  0  0  0  0
   60.4321   33.4147   47.1005 H   0  0  0  0  0  0  0  0  0  0  0  0
   61.7706   34.2034   46.1986 H   0  0  0  0  0  0  0  0  0  0  0  0
   61.6199   32.4134   46.1986 H   0  0  0  0  0  0  0  0  0  0  0  0
   64.3417   32.8118   47.1396 H   0  0  0  0  0  0  0  0  0  0  0  0
   65.5348   32.7772   50.8013 H   0  0  0  0  0  0  0  0  0  0  0  0
   65.7946   31.8227   49.3020 H   0  0  0  0  0  0  0  0  0  0  0  0
   66.0930   33.5940   49.3020 H   0  0  0  0  0  0  0  0  0  0  0  0
   63.1136   32.3824   51.9477 H   0  0  0  0  0  0  0  0  0  0  0  0
   63.8621   34.0113   51.8322 H   0  0  0  0  0  0  0  0  0  0  0  0
   62.0737   33.8426   51.8322 H   0  0  0  0  0  0  0  0  0  0  0  0
   60.5670   34.5813   50.4192 H   0  0  0  0  0  0  0  0  0  0  0  0
   59.9229   33.9714   48.8951 H   0  0  0  0  0  0  0  0  0  0  0  0
   61.0199   31.9283   50.8065 H   0  0  0  0  0  0  0  0  0  0  0  0
   59.4815   32.7917   51.2850 H   0  0  0  0  0  0  0  0  0  0  0  0
   59.9946   30.8506   49.0856 H   0  0  0  0  0  0  0  0  0  0  0  0
   58.6223   30.9868   50.2369 H   0  0  0  0  0  0  0  0  0  0  0  0
   57.5294   32.5292   48.9551 H   0  0  0  0  0  0  0  0  0  0  0  0
   59.0402   33.3248   48.4246 H   0  0  0  0  0  0  0  0  0  0  0  0
   58.9182   29.5424   47.9277 H   0  0  0  0  0  0  0  0  0  0  0  0
   59.6214   28.6813   44.5336 H   0  0  0  0  0  0  0  0  0  0  0  0
   58.6764   27.8892   45.8377 H   0  0  0  0  0  0  0  0  0  0  0  0
   57.5432   29.3467   43.4140 H   0  0  0  0  0  0  0  0  0  0  0  0
   57.5935   27.5740   43.6515 H   0  0  0  0  0  0  0  0  0  0  0  0
   58.0706   30.7756   43.0551 H   0  0  0  0  0  0  0  0  0  0  0  0
   57.6159   33.1157   42.4690 H   0  0  0  0  0  0  0  0  0  0  0  0
   57.5548   34.8846   44.2007 H   0  0  0  0  0  0  0  0  0  0  0  0
   57.9746   34.2540   46.5823 H   0  0  0  0  0  0  0  0  0  0  0  0
  1  2  1  0
  2  3  2  0
  3  4  1  0
  4  5  1  0
  4  6  2  0
  6  7  1  0
  6  8  1  0
  8  9  1  0
  9 10  1  0
 10 11  1  0
 11 12  1  0
 12 13  1  0
 13 14  1  0
 14 15  2  0
 15 16  1  0
 16 17  1  0
 17 18  1  0
 18 19  2  0
 18 20  1  0
 15 21  1  0
 21 22  2  0
 22 23  1  0
 23 24  2  0
 24 25  1  0
 25 26  2  0
  8  2  1  0
 26 13  1  0
 26 21  1  0
  1 27  1  0
  1 28  1  0
  1 29  1  0
  3 30  1  0
  5 31  1  0
  5 32  1  0
  5 33  1  0
  7 34  1  0
  7 35  1  0
  7 36  1  0
  9 37  1  0
  9 38  1  0
 10 39  1  0
 10 40  1  0
 11 41  1  0
 11 42  1  0
 12 43  1  0
 12 44  1  0
 14 45  1  0
 16 46  1  0
 16 47  1  0
 17 48  1  0
 17 49  1  0
 22 50  1  0
 23 51  1  0
 24 52  1  0
 25 53  1  0
M  CHG  4   4   1   6   1  18   1  20  -1
M  END
>  <smiles>  (5) 
Cc1c[n+](C)[n+](C)n1CCCCn1cc(CC[N+](=O)[O-])c2ccccc21

>  <score_type>  (5) 
oracle

>  <origin>  (5) 
adg

>  <m_score__min__energy>  (5) 
-6.46

>  <m_primary>  (5) 
energy

$$$$
5:0
     RDKit          3D

 36 38  0  0  0  0  0  0  0  0999 V2000
   59.9990   33.9740   49.7520 C   0  0  0  0  0  0  0  0  0  0  0  0
   61.1390   33.8680   48.7860 C   0  0  0  0  0  0  0  0  0  0  0  0
   61.0360   33.7430   47.3810 C   0  0  0  0  0  0  0  0  0  0  0  0
   59.7980   33.8090   46.5820 C   0  0  0  0  0  0  0  0  0  0  0  0
   59.6490   34.8590   45.6650 C   0  0  0  0  0  0  0  0  0  0  0  0
   58.5060   34.9480   44.8710 C   0  0  0  0  0  0  0  0  0  0  0  0
   57.4950   33.9960   44.9940 C   0  0  0  0  0  0  0  0  0  0  0  0
   57.6190   32.9560   45.9170 C   0  0  0  0  0  0  0  0  0  0  0  0
   58.7690   32.8460   46.7250 C   0  0  0  0  0  0  0  0  0  0  0  0
   58.8740   31.8120   47.7270 N   0  0  0  0  0  0  0  0  0  0  0  0
   59.4610   30.4900   47.4890 C   0  0  0  0  0  0  0  0  0  0  0  0
   59.6150   30.2550   45.9840 C   0  0  0  0  0  0  0  0  0  0  0  0
   60.8190   30.3940   48.1890 C   0  0  0  0  0  0  0  0  0  0  0  0
   62.5900   33.4230   46.7090 S   0  0  0  0  0  0  0  0  0  0  0  0
   63.2860   33.4990   48.2310 C   0  0  0  0  0  0  0  0  0  0  0  0
   64.5140   33.2630   48.7040 N   0  0  0  0  0  0  0  0  0  0  0  0
   64.3070   33.3740   50.0480 C   0  0  0  0  0  0  0  0  0  0  0  0
   63.0060   33.6480   50.3620 N   0  0  0  0  0  0  0  0  0  0  0  0
   62.4210   33.7250   49.1830 N   0  0  0  0  0  0  0  0  0  0  0  0
   60.3859   33.9380   50.7811 H   0  0  0  0  0  0  0  0  0  0  0  0
   59.4702   34.9252   49.5921 H   0  0  0  0  0  0  0  0  0  0  0  0
   59.3039   33.1366   49.5921 H   0  0  0  0  0  0  0  0  0  0  0  0
   60.4395   35.6182   45.5711 H   0  0  0  0  0  0  0  0  0  0  0  0
   58.4021   35.7698   44.1473 H   0  0  0  0  0  0  0  0  0  0  0  0
   56.5972   34.0645   44.3621 H   0  0  0  0  0  0  0  0  0  0  0  0
   56.8117   32.2153   46.0148 H   0  0  0  0  0  0  0  0  0  0  0  0
   58.4510   31.9870   48.6670 H   0  0  0  0  0  0  0  0  0  0  0  0
   58.7972   29.7150   47.8998 H   0  0  0  0  0  0  0  0  0  0  0  0
   60.2107   29.3460   45.8139 H   0  0  0  0  0  0  0  0  0  0  0  0
   58.6213   30.1328   45.5284 H   0  0  0  0  0  0  0  0  0  0  0  0
   60.1237   31.1174   45.5284 H   0  0  0  0  0  0  0  0  0  0  0  0
   60.6712   30.4044   49.2790 H   0  0  0  0  0  0  0  0  0  0  0  0
   61.3175   29.4584   47.8955 H   0  0  0  0  0  0  0  0  0  0  0  0
   61.4441   31.2502   47.8955 H   0  0  0  0  0  0  0  0  0  0  0  0
   65.3880   33.0200   48.1870 H   0  0  0  0  0  0  0  0  0  0  0  0
   65.1025   33.2555   50.7984 H   0  0  0  0  0  0  0  0  0  0  0  0
  1  2  1  0
  2  3  2  0
  3  4  1  0
  4  5  2  0
  5  6  1  0
  6  7  2  0
  7  8  1  0
  8  9  2  0
  9 10  1  0
 10 11  1  0
 11 12  1  0
 11 13  1  0
  3 14  1  0
 14 15  1  0
 15 16  2  0
 16 17  1  0
 17 18  2  0
 18 19  1  0
 19  2  1  0
  9  4  1  0
 19 15  1  0
  1 20  1  0
  1 21  1  0
  1 22  1  0
  5 23  1  0
  6 24  1  0
  7 25  1  0
  8 26  1  0
 10 27  1  0
 11 28  1  0
 12 29  1  0
 12 30  1  0
 12 31  1  0
 13 32  1  0
 13 33  1  0
 13 34  1  0
 16 35  1  0
 17 36  1  0
M  CHG  1  16   1
M  END
>  <UniqueID>  (6) 
4

>  <SMILES>  (6) 
Cc1c(-c2ccccc2NC(C)C)sc2[nH+]cnn12

>  <Energy>  (6) 
126.039970566734

>  <Genealogy>  (6) 
Cc1c(-c2ccccc2NC(C)C)sc2[nH+]cnn12 (protonated)
Cc1c(-c2ccccc2NC(C)C)sc2[nH+]cnn12 (3D coordinates assigned)
Cc1c(-c2ccccc2NC(C)C)sc2[nH+]cnn12 (optimized conformer: 126.039970566734 kcal/mol)

>  <smiles>  (6) 
Cc1c(-c2ccccc2NC(C)C)sc2ncnn12

>  <score_type>  (6) 
oracle

>  <origin>  (6) 
adg

>  <m_score__min__energy>  (6) 
-5.5300000000000002

>  <m_primary>  (6) 
energy

$$$$
6:0
     RDKit          3D

 31 33  0  0  0  0  0  0  0  0999 V2000
   60.7750   28.0010   47.4450 O   0  0  0  0  0  0  0  0  0  0  0  0
   59.8640   28.7980   47.0940 C   0  0  0  0  0  0  0  0  0  0  0  0
   59.9960   30.2120   47.3300 N   0  0  0  0  0  0  0  0  0  0  0  0
   61.1550   30.8240   47.9190 C   0  0  0  0  0  0  0  0  0  0  0  0
   61.4840   30.6260   49.2720 C   0  0  0  0  0  0  0  0  0  0  0  0
   62.6040   31.2540   49.8250 C   0  0  0  0  0  0  0  0  0  0  0  0
   63.3990   32.0940   49.0390 C   0  0  0  0  0  0  0  0  0  0  0  0
   64.8020   32.8790   49.7450 Cl  0  0  0  0  0  0  0  0  0  0  0  0
   63.0630   32.3160   47.6970 C   0  0  0  0  0  0  0  0  0  0  0  0
   63.8200   33.1380   46.9290 F   0  0  0  0  0  0  0  0  0  0  0  0
   61.9430   31.6900   47.1450 C   0  0  0  0  0  0  0  0  0  0  0  0
   58.6470   28.2570   46.4580 C   0  0  0  0  0  0  0  0  0  0  0  0
   58.3520   27.0180   46.7180 N   0  0  0  0  0  0  0  0  0  0  0  0
   56.9290   26.2640   46.1130 S   0  0  0  0  0  0  0  0  0  0  0  0
   57.2710   25.3800   44.9470 O   0  0  0  0  0  0  0  0  0  0  0  0
   56.2630   25.4640   47.1960 O   0  0  0  0  0  0  0  0  0  0  0  0
   55.9090   27.5170   45.6140 O   0  0  0  0  0  0  0  0  0  0  0  0
   56.4510   28.7440   45.2330 C   0  0  0  0  0  0  0  0  0  0  0  0
   55.6480   29.6110   44.4860 C   0  0  0  0  0  0  0  0  0  0  0  0
   56.1590   30.8200   44.0150 C   0  0  0  0  0  0  0  0  0  0  0  0
   57.4830   31.1680   44.2800 C   0  0  0  0  0  0  0  0  0  0  0  0
   58.1340   32.6730   43.6570 Cl  0  0  0  0  0  0  0  0  0  0  0  0
   58.2900   30.3210   45.0440 C   0  0  0  0  0  0  0  0  0  0  0  0
   57.7810   29.1150   45.5720 C   0  0  0  0  0  0  0  0  0  0  0  0
   59.2460   30.8460   46.9750 H   0  0  0  0  0  0  0  0  0  0  0  0
   60.8572   29.9740   49.8980 H   0  0  0  0  0  0  0  0  0  0  0  0
   62.8606   31.0868   50.8815 H   0  0  0  0  0  0  0  0  0  0  0  0
   61.6762   31.8774   46.0944 H   0  0  0  0  0  0  0  0  0  0  0  0
   54.6051   29.3374   44.2681 H   0  0  0  0  0  0  0  0  0  0  0  0
   55.5175   31.4992   43.4343 H   0  0  0  0  0  0  0  0  0  0  0  0
   59.3370   30.5980   45.2367 H   0  0  0  0  0  0  0  0  0  0  0  0
  1  2  2  0
  2  3  1  0
  3  4  1  0
  4  5  2  0
  5  6  1  0
  6  7  2  0
  7  8  1  0
  7  9  1  0
  9 10  1  0
  9 11  2  0
  2 12  1  0
 12 13  2  0
 13 14  1  0
 14 15  2  0
 14 16  2  0
 14 17  1  0
 17 18  1  0
 18 19  2  0
 19 20  1  0
 20 21  2  0
 21 22  1  0
 21 23  1  0
 23 24  2  0
 11  4  1  0
 24 12  1  0
 24 18  1  0
  3 25  1  0
  5 26  1  0
  6 27  1  0
 11 28  1  0
 19 29  1  0
 20 30  1  0
 23 31  1  0
M  END
>  <UniqueID>  (7) 
5

>  <SMILES>  (7) 
O=C(Nc1ccc(Cl)c(F)c1)C1=NS(=O)(=O)Oc2ccc(Cl)cc21

>  <Energy>  (7) 
48.429203864756595

>  <Genealogy>  (7) 
O=C(Nc1ccc(Cl)c(F)c1)C1=NS(=O)(=O)Oc2ccc(Cl)cc21 (3D coordinates assigned)
O=C(Nc1ccc(Cl)c(F)c1)C1=NS(=O)(=O)Oc2ccc(Cl)cc21 (nonaromatic ring conformer: 48.429203864756595 kcal/mol)

>  <smiles>  (7) 
O=C(Nc1ccc(Cl)c(F)c1)C1=NS(=O)(=O)Oc2ccc(Cl)cc21

>  <score_type>  (7) 
oracle

>  <origin>  (7) 
adg

>  <m_score__min__energy>  (7) 
-7.9100000000000001

>  <m_primary>  (7) 
energy

$$$$
7:0
     RDKit          3D

 42 44  0  0  0  0  0  0  0  0999 V2000
   56.2140   29.7080   42.7030 C   0  0  0  0  0  0  0  0  0  0  0  0
   55.9870   29.7500   44.2110 C   0  0  0  0  0  0  0  0  0  0  0  0
   57.0830   30.4950   44.8710 N   0  0  0  0  0  0  0  0  0  0  0  0
   57.3720   31.7600   44.1630 C   0  0  0  0  0  0  0  0  0  0  0  0
   57.9630   32.7640   45.1170 C   0  0  0  0  0  0  0  0  0  0  0  0
   57.8090   32.6140   46.5040 C   0  0  0  0  0  0  0  0  0  0  0  0
   58.3550   33.5720   47.3620 C   0  0  0  0  0  0  0  0  0  0  0  0
   59.0290   34.6380   46.8550 N   0  0  0  0  0  0  0  0  0  0  0  0
   59.1920   34.8070   45.5160 C   0  0  0  0  0  0  0  0  0  0  0  0
   58.6630   33.8730   44.6220 C   0  0  0  0  0  0  0  0  0  0  0  0
   58.3020   29.6630   44.9800 C   0  0  0  0  0  0  0  0  0  0  0  0
   57.9330   28.2700   45.3850 C   0  0  0  0  0  0  0  0  0  0  0  0
   57.7640   27.8110   46.6700 C   0  0  0  0  0  0  0  0  0  0  0  0
   57.4640   26.5390   46.5940 O   0  0  0  0  0  0  0  0  0  0  0  0
   57.4470   26.2160   45.3170 C   0  0  0  0  0  0  0  0  0  0  0  0
   57.1490   24.8580   44.8190 C   0  0  0  0  0  0  0  0  0  0  0  0
   56.9200   24.6310   43.4510 C   0  0  0  0  0  0  0  0  0  0  0  0
   56.6380   23.3430   42.9870 C   0  0  0  0  0  0  0  0  0  0  0  0
   56.5830   22.2670   43.8830 C   0  0  0  0  0  0  0  0  0  0  0  0
   56.3040   20.9800   43.4310 O   0  0  0  0  0  0  0  0  0  0  0  0
   56.8110   22.4870   45.2450 C   0  0  0  0  0  0  0  0  0  0  0  0
   57.0920   23.7750   45.7130 C   0  0  0  0  0  0  0  0  0  0  0  0
   57.7350   27.2630   44.5140 N   0  0  0  0  0  0  0  0  0  0  0  0
   57.2766   29.5114   42.4975 H   0  0  0  0  0  0  0  0  0  0  0  0
   55.6011   28.9080   42.2621 H   0  0  0  0  0  0  0  0  0  0  0  0
   55.9279   30.6743   42.2621 H   0  0  0  0  0  0  0  0  0  0  0  0
   55.0298   30.2497   44.4208 H   0  0  0  0  0  0  0  0  0  0  0  0
   55.9661   28.7214   44.6002 H   0  0  0  0  0  0  0  0  0  0  0  0
   58.0868   31.5665   43.3496 H   0  0  0  0  0  0  0  0  0  0  0  0
   56.4356   32.1635   43.7504 H   0  0  0  0  0  0  0  0  0  0  0  0
   57.2635   31.7502   46.9117 H   0  0  0  0  0  0  0  0  0  0  0  0
   58.2392   33.4633   48.4505 H   0  0  0  0  0  0  0  0  0  0  0  0
   59.7415   35.6808   45.1358 H   0  0  0  0  0  0  0  0  0  0  0  0
   58.7947   34.0068   43.5381 H   0  0  0  0  0  0  0  0  0  0  0  0
   58.8138   29.6365   44.0067 H   0  0  0  0  0  0  0  0  0  0  0  0
   58.9697   30.0962   45.7393 H   0  0  0  0  0  0  0  0  0  0  0  0
   57.8627   28.4032   47.5917 H   0  0  0  0  0  0  0  0  0  0  0  0
   56.9629   25.4710   42.7421 H   0  0  0  0  0  0  0  0  0  0  0  0
   56.4587   23.1735   41.9150 H   0  0  0  0  0  0  0  0  0  0  0  0
   56.9970   20.2420   43.4730 H   0  0  0  0  0  0  0  0  0  0  0  0
   56.7693   21.6443   45.9508 H   0  0  0  0  0  0  0  0  0  0  0  0
   57.2692   23.9410   46.7859 H   0  0  0  0  0  0  0  0  0  0  0  0
  1  2  1  0
  2  3  1  0
  3  4  1  0
  4  5  1  0
  5  6  2  0
  6  7  1  0
  7  8  2  0
  8  9  1  0
  9 10  2  0
  3 11  1  0
 11 12  1  0
 12 13  2  0
 13 14  1  0
 14 15  1  0
 15 16  1  0
 16 17  2  0
 17 18  1  0
 18 19  2  0
 19 20  1  0
 19 21  1  0
 21 22  2  0
 15 23  2  0
 10  5  1  0
 23 12  1  0
 22 16  1  0
  1 24  1  0
  1 25  1  0
  1 26  1  0
  2 27  1  0
  2 28  1  0
  4 29  1  0
  4 30  1  0
  6 31  1  0
  7 32  1  0
  9 33  1  0
 10 34  1  0
 11 35  1  0
 11 36  1  0
 13 37  1  0
 17 38  1  0
 18 39  1  0
 20 40  1  0
 21 41  1  0
 22 42  1  0
M  END
>  <UniqueID>  (8) 
6

>  <SMILES>  (8) 
CCN(Cc1ccncc1)Cc1coc(-c2ccc(O)cc2)n1

>  <Energy>  (8) 
72.97804084204911

>  <Genealogy>  (8) 
CCN(Cc1ccncc1)Cc1coc(-c2ccc(O)cc2)n1 (3D coordinates assigned)
CCN(Cc1ccncc1)Cc1coc(-c2ccc(O)cc2)n1 (optimized conformer: 72.97804084204911 kcal/mol)

>  <smiles>  (8) 
CCN(Cc1ccncc1)Cc1coc(-c2ccc(O)cc2)n1

>  <score_type>  (8) 
oracle

>  <origin>  (8) 
adg

>  <m_score__min__energy>  (8) 
-7.6299999999999999

>  <m_primary>  (8) 
energy

$$$$
8:0
     RDKit          3D

 45 47  0  0  0  0  0  0  0  0999 V2000
   59.3180   29.8550   49.0330 C   0  0  0  0  0  0  0  0  0  0  0  0
   60.2340   30.6520   48.2220 N   0  0  0  0  0  0  0  0  0  0  0  0
   61.5510   30.8310   48.4520 C   0  0  0  0  0  0  0  0  0  0  0  0
   62.0960   31.6810   47.5580 N   0  0  0  0  0  0  0  0  0  0  0  0
   63.4690   32.1730   47.5480 C   0  0  0  0  0  0  0  0  0  0  0  0
   63.7570   32.9180   48.8240 C   0  0  0  0  0  0  0  0  0  0  0  0
   64.8830   32.5800   49.5930 C   0  0  0  0  0  0  0  0  0  0  0  0
   65.1360   33.2390   50.8010 C   0  0  0  0  0  0  0  0  0  0  0  0
   64.2630   34.2290   51.2550 C   0  0  0  0  0  0  0  0  0  0  0  0
   63.1310   34.5620   50.5040 C   0  0  0  0  0  0  0  0  0  0  0  0
   62.8720   33.9070   49.2950 C   0  0  0  0  0  0  0  0  0  0  0  0
   61.7610   34.2360   48.5880 F   0  0  0  0  0  0  0  0  0  0  0  0
   61.0920   32.0750   46.7500 C   0  0  0  0  0  0  0  0  0  0  0  0
   59.9380   31.4350   47.1600 C   0  0  0  0  0  0  0  0  0  0  0  0
   58.5750   31.6070   46.5450 C   0  0  0  0  0  0  0  0  0  0  0  0
   57.8910   32.9160   47.0060 C   0  0  0  0  0  0  0  0  0  0  0  0
   58.8430   33.8370   47.8290 C   0  0  0  0  0  0  0  0  0  0  0  0
   59.3180   35.0900   47.0710 C   0  0  0  0  0  0  0  0  0  0  0  0
   59.5990   34.7770   45.6000 C   0  0  0  0  0  0  0  0  0  0  0  0
   58.3460   34.2600   44.8640 C   0  0  0  0  0  0  0  0  0  0  0  0
   57.2780   33.6670   45.8040 C   0  0  0  0  0  0  0  0  0  0  0  0
   59.5225   30.0330   50.0991 H   0  0  0  0  0  0  0  0  0  0  0  0
   58.2811   30.1434   48.8055 H   0  0  0  0  0  0  0  0  0  0  0  0
   59.4602   28.7882   48.8055 H   0  0  0  0  0  0  0  0  0  0  0  0
   62.1097   30.3453   49.2656 H   0  0  0  0  0  0  0  0  0  0  0  0
   64.1604   31.3222   47.4587 H   0  0  0  0  0  0  0  0  0  0  0  0
   63.6031   32.8532   46.6940 H   0  0  0  0  0  0  0  0  0  0  0  0
   65.5687   31.7939   49.2439 H   0  0  0  0  0  0  0  0  0  0  0  0
   66.0245   32.9765   51.3940 H   0  0  0  0  0  0  0  0  0  0  0  0
   64.4654   34.7475   52.2038 H   0  0  0  0  0  0  0  0  0  0  0  0
   62.4428   35.3406   50.8647 H   0  0  0  0  0  0  0  0  0  0  0  0
   61.1763   32.7819   45.9114 H   0  0  0  0  0  0  0  0  0  0  0  0
   58.6796   31.6277   45.4502 H   0  0  0  0  0  0  0  0  0  0  0  0
   57.9475   30.7638   46.8694 H   0  0  0  0  0  0  0  0  0  0  0  0
   57.0766   32.6292   47.6875 H   0  0  0  0  0  0  0  0  0  0  0  0
   58.3104   34.1627   48.7347 H   0  0  0  0  0  0  0  0  0  0  0  0
   59.7414   33.2435   48.0539 H   0  0  0  0  0  0  0  0  0  0  0  0
   58.5367   35.8621   47.1301 H   0  0  0  0  0  0  0  0  0  0  0  0
   60.2506   35.4435   47.5349 H   0  0  0  0  0  0  0  0  0  0  0  0
   59.9483   35.6942   45.1032 H   0  0  0  0  0  0  0  0  0  0  0  0
   60.3624   33.9859   45.5632 H   0  0  0  0  0  0  0  0  0  0  0  0
   57.8963   35.0985   44.3121 H   0  0  0  0  0  0  0  0  0  0  0  0
   58.6753   33.4488   44.1980 H   0  0  0  0  0  0  0  0  0  0  0  0
   56.6502   34.4863   46.1843 H   0  0  0  0  0  0  0  0  0  0  0  0
   56.6914   32.9402   45.2229 H   0  0  0  0  0  0  0  0  0  0  0  0
  1  2  1  0
  2  3  1  0
  3  4  2  0
  4  5  1  0
  5  6  1  0
  6  7  2  0
  7  8  1  0
  8  9  2  0
  9 10  1  0
 10 11  2  0
 11 12  1  0
  4 13  1  0
 13 14  2  0
 14 15  1  0
 15 16  1  0
 16 17  1  0
 17 18  1  0
 18 19  1  0
 19 20  1  0
 20 21  1  0
 14  2  1  0
 21 16  1  0
 11  6  1  0
  1 22  1  0
  1 23  1  0
  1 24  1  0
  3 25  1  0
  5 26  1  0
  5 27  1  0
  7 28  1  0
  8 29  1  0
  9 30  1  0
 10 31  1  0
 13 32  1  0
 15 33  1  0
 15 34  1  0
 16 35  1  0
 17 36  1  0
 17 37  1  0
 18 38  1  0
 18 39  1  0
 19 40  1  0
 19 41  1  0
 20 42  1  0
 20 43  1  0
 21 44  1  0
 21 45  1  0
M  CHG  1   4   1
M  END
>  <UniqueID>  (9) 
7

>  <SMILES>  (9) 
Cn1c[n+](Cc2ccccc2F)cc1CC1CCCCC1

>  <Energy>  (9) 
75.58934216619942

>  <Genealogy>  (9) 
Cn1c[n+](Cc2ccccc2F)cc1CC1CCCCC1 (3D coordinates assigned)
Cn1c[n+](Cc2ccccc2F)cc1CC1CCCCC1 (nonaromatic ring conformer: 75.58934216619942 kcal/mol)

>  <smiles>  (9) 
Cn1c[n+](Cc2ccccc2F)cc1CC1CCCCC1

>  <score_type>  (9) 
oracle

>  <origin>  (9) 
adg

>  <m_score__min__energy>  (9) 
-5.9100000000000001

>  <m_primary>  (9) 
energy

$$$$
9:0
     RDKit          3D

 43 45  0  0  0  0  0  0  0  0999 V2000
   55.1540   29.4480   44.6370 O   0  0  0  0  0  0  0  0  0  0  0  0
   56.1230   28.7050   44.9520 C   0  0  0  0  0  0  0  0  0  0  0  0
   57.5080   29.0750   44.5090 C   0  0  0  0  0  0  0  0  0  0  0  0
   58.2010   29.8440   45.5570 N   0  0  0  0  0  0  0  0  0  0  0  0
   59.2100   29.2380   46.2560 C   0  0  0  0  0  0  0  0  0  0  0  0
   59.9500   29.9500   47.1970 C   0  0  0  0  0  0  0  0  0  0  0  0
   59.6700   31.2940   47.4170 C   0  0  0  0  0  0  0  0  0  0  0  0
   58.6480   31.9260   46.6950 C   0  0  0  0  0  0  0  0  0  0  0  0
   58.3630   33.3250   46.8830 N   0  0  0  0  0  0  0  0  0  0  0  0
   59.3050   34.3880   46.5310 C   0  0  0  0  0  0  0  0  0  0  0  0
   60.6450   34.1300   47.1660 C   0  0  0  0  0  0  0  0  0  0  0  0
   60.7930   34.2290   48.5600 C   0  0  0  0  0  0  0  0  0  0  0  0
   62.0440   34.0300   49.1520 C   0  0  0  0  0  0  0  0  0  0  0  0
   63.1580   33.7390   48.3580 C   0  0  0  0  0  0  0  0  0  0  0  0
   64.3710   33.5550   48.9330 F   0  0  0  0  0  0  0  0  0  0  0  0
   63.0190   33.6380   46.9700 C   0  0  0  0  0  0  0  0  0  0  0  0
   61.7680   33.8340   46.3740 C   0  0  0  0  0  0  0  0  0  0  0  0
   57.9090   31.1720   45.7660 C   0  0  0  0  0  0  0  0  0  0  0  0
   56.9940   31.7330   45.1030 O   0  0  0  0  0  0  0  0  0  0  0  0
   55.9030   27.4600   45.6330 N   0  0  0  0  0  0  0  0  0  0  0  0
   56.6770   26.2570   45.5240 C   0  0  0  0  0  0  0  0  0  0  0  0
   58.0640   26.2260   45.7790 C   0  0  0  0  0  0  0  0  0  0  0  0
   58.7800   25.0350   45.6170 C   0  0  0  0  0  0  0  0  0  0  0  0
   58.1270   23.8750   45.1870 C   0  0  0  0  0  0  0  0  0  0  0  0
   59.1120   22.2520   44.9630 Br  0  0  0  0  0  0  0  0  0  0  0  0
   56.7560   23.9060   44.9140 C   0  0  0  0  0  0  0  0  0  0  0  0
   56.0370   25.0930   45.0800 C   0  0  0  0  0  0  0  0  0  0  0  0
   58.0770   28.1575   44.2982 H   0  0  0  0  0  0  0  0  0  0  0  0
   57.4361   29.6956   43.6036 H   0  0  0  0  0  0  0  0  0  0  0  0
   59.4387   28.1778   46.0726 H   0  0  0  0  0  0  0  0  0  0  0  0
   60.7512   29.4520   47.7627 H   0  0  0  0  0  0  0  0  0  0  0  0
   60.2511   31.8620   48.1584 H   0  0  0  0  0  0  0  0  0  0  0  0
   57.4020   33.6090   47.1740 H   0  0  0  0  0  0  0  0  0  0  0  0
   59.4220   34.4218   45.4378 H   0  0  0  0  0  0  0  0  0  0  0  0
   58.9141   35.3485   46.8981 H   0  0  0  0  0  0  0  0  0  0  0  0
   59.9210   34.4640   49.1880 H   0  0  0  0  0  0  0  0  0  0  0  0
   62.1522   34.1024   50.2443 H   0  0  0  0  0  0  0  0  0  0  0  0
   63.8941   33.4042   46.3459 H   0  0  0  0  0  0  0  0  0  0  0  0
   61.6631   33.7561   45.2818 H   0  0  0  0  0  0  0  0  0  0  0  0
   58.5832   27.1391   46.1055 H   0  0  0  0  0  0  0  0  0  0  0  0
   59.8592   25.0107   45.8283 H   0  0  0  0  0  0  0  0  0  0  0  0
   56.2433   22.9962   44.5686 H   0  0  0  0  0  0  0  0  0  0  0  0
   54.9594   25.1132   44.8601 H   0  0  0  0  0  0  0  0  0  0  0  0
  1  2  2  0
  2  3  1  0
  3  4  1  0
  4  5  1  0
  5  6  2  0
  6  7  1  0
  7  8  2  0
  8  9  1  0
  9 10  1  0
 10 11  1  0
 11 12  2  0
 12 13  1  0
 13 14  2  0
 14 15  1  0
 14 16  1  0
 16 17  2  0
  8 18  1  0
 18 19  2  0
  2 20  1  0
 20 21  1  0
 21 22  2  0
 22 23  1  0
 23 24  2  0
 24 25  1  0
 24 26  1  0
 26 27  2  0
 18  4  1  0
 27 21  1  0
 17 11  1  0
  3 28  1  0
  3 29  1  0
  5 30  1  0
  6 31  1  0
  7 32  1  0
  9 33  1  0
 10 34  1  0
 10 35  1  0
 12 36  1  0
 13 37  1  0
 16 38  1  0
 17 39  1  0
 22 40  1  0
 23 41  1  0
 26 42  1  0
 27 43  1  0
M  CHG  1  20  -1
M  END
>  <UniqueID>  (10) 
8

>  <SMILES>  (10) 
O=C(Cn1cccc(NCc2ccc(F)cc2)c1=O)[N-]c1ccc(Br)cc1

>  <Energy>  (10) 
49.05237643055281

>  <Genealogy>  (10) 
O=C(Cn1cccc(NCc2ccc(F)cc2)c1=O)[N-]c1ccc(Br)cc1 (protonated)
O=C(Cn1cccc(NCc2ccc(F)cc2)c1=O)[N-]c1ccc(Br)cc1 (3D coordinates assigned)
O=C(Cn1cccc(NCc2ccc(F)cc2)c1=O)[N-]c1ccc(Br)cc1 (optimized conformer: 49.05237643055281 kcal/mol)

>  <smiles>  (10) 
O=C(Cn1cccc(NCc2ccc(F)cc2)c1=O)Nc1ccc(Br)cc1

>  <score_type>  (10) 
oracle

>  <origin>  (10) 
adg

>  <m_score__min__energy>  (10) 
-9.9499999999999993

>  <m_primary>  (10) 
energy

$$$$
10:0
     RDKit          3D

 51 53  0  0  0  0  0  0  0  0999 V2000
   55.1850   30.4320   51.9930 C   0  0  0  0  0  0  0  0  0  0  0  0
   56.5490   30.4100   51.6340 O   0  0  0  0  0  0  0  0  0  0  0  0
   57.2720   31.3800   52.3690 C   0  0  0  0  0  0  0  0  0  0  0  0
   58.5100   31.8390   51.5980 C   0  0  0  0  0  0  0  0  0  0  0  0
   58.2580   31.9860   50.0870 C   0  0  0  0  0  0  0  0  0  0  0  0
   59.4970   31.8470   49.2860 N   0  0  0  0  0  0  0  0  0  0  0  0
   60.2160   30.6690   49.2680 C   0  0  0  0  0  0  0  0  0  0  0  0
   59.5570   29.1250   49.9450 S   0  0  0  0  0  0  0  0  0  0  0  0
   60.0080   28.0010   48.5620 C   0  0  0  0  0  0  0  0  0  0  0  0
   59.4020   28.3790   47.2400 C   0  0  0  0  0  0  0  0  0  0  0  0
   58.5640   27.6120   46.6940 O   0  0  0  0  0  0  0  0  0  0  0  0
   59.8350   29.5740   46.5730 N   0  0  0  0  0  0  0  0  0  0  0  0
   59.0030   30.3950   45.7330 C   0  0  0  0  0  0  0  0  0  0  0  0
   58.3520   29.8070   44.6390 C   0  0  0  0  0  0  0  0  0  0  0  0
   57.5840   30.5830   43.7690 C   0  0  0  0  0  0  0  0  0  0  0  0
   57.4710   31.9600   43.9710 C   0  0  0  0  0  0  0  0  0  0  0  0
   58.1410   32.5770   45.0400 C   0  0  0  0  0  0  0  0  0  0  0  0
   58.0200   34.0600   45.2870 C   0  0  0  0  0  0  0  0  0  0  0  0
   56.9700   34.5620   44.5420 F   0  0  0  0  0  0  0  0  0  0  0  0
   57.7740   34.2950   46.6270 F   0  0  0  0  0  0  0  0  0  0  0  0
   59.1790   34.7310   44.9350 F   0  0  0  0  0  0  0  0  0  0  0  0
   58.8990   31.7860   45.9220 C   0  0  0  0  0  0  0  0  0  0  0  0
   61.4580   30.6370   48.7200 N   0  0  0  0  0  0  0  0  0  0  0  0
   61.9870   31.7060   48.0850 C   0  0  0  0  0  0  0  0  0  0  0  0
   63.2400   31.6060   47.4700 C   0  0  0  0  0  0  0  0  0  0  0  0
   63.7590   32.6930   46.7610 C   0  0  0  0  0  0  0  0  0  0  0  0
   63.0310   33.8820   46.6700 C   0  0  0  0  0  0  0  0  0  0  0  0
   61.7830   33.9910   47.2900 C   0  0  0  0  0  0  0  0  0  0  0  0
   61.2500   32.9000   48.0020 C   0  0  0  0  0  0  0  0  0  0  0  0
   60.0050   32.9560   48.6480 C   0  0  0  0  0  0  0  0  0  0  0  0
   59.3590   34.0430   48.6530 O   0  0  0  0  0  0  0  0  0  0  0  0
   55.0944   30.4335   53.0893 H   0  0  0  0  0  0  0  0  0  0  0  0
   54.7130   31.3379   51.5848 H   0  0  0  0  0  0  0  0  0  0  0  0
   54.6840   29.5418   51.5848 H   0  0  0  0  0  0  0  0  0  0  0  0
   56.6223   32.2477   52.5563 H   0  0  0  0  0  0  0  0  0  0  0  0
   57.5967   30.9305   53.3190 H   0  0  0  0  0  0  0  0  0  0  0  0
   58.8296   32.8133   51.9963 H   0  0  0  0  0  0  0  0  0  0  0  0
   59.2834   31.0678   51.7288 H   0  0  0  0  0  0  0  0  0  0  0  0
   57.5457   31.2094   49.7715 H   0  0  0  0  0  0  0  0  0  0  0  0
   57.8603   32.9967   49.9125 H   0  0  0  0  0  0  0  0  0  0  0  0
   61.1027   28.0079   48.4545 H   0  0  0  0  0  0  0  0  0  0  0  0
   59.6119   27.0076   48.8194 H   0  0  0  0  0  0  0  0  0  0  0  0
   60.8090   29.9020   46.7590 H   0  0  0  0  0  0  0  0  0  0  0  0
   58.4473   28.7251   44.4649 H   0  0  0  0  0  0  0  0  0  0  0  0
   57.0666   30.1085   42.9222 H   0  0  0  0  0  0  0  0  0  0  0  0
   56.8543   32.5644   43.2896 H   0  0  0  0  0  0  0  0  0  0  0  0
   59.4165   32.2598   46.7692 H   0  0  0  0  0  0  0  0  0  0  0  0
   63.8164   30.6721   47.5445 H   0  0  0  0  0  0  0  0  0  0  0  0
   64.7420   32.6122   46.2740 H   0  0  0  0  0  0  0  0  0  0  0  0
   63.4411   34.7347   46.1089 H   0  0  0  0  0  0  0  0  0  0  0  0
   61.2163   34.9313   47.2214 H   0  0  0  0  0  0  0  0  0  0  0  0
  1  2  1  0
  2  3  1  0
  3  4  1  0
  4  5  1  0
  5  6  1  0
  6  7  1  0
  7  8  1  0
  8  9  1  0
  9 10  1  0
 10 11  2  0
 10 12  1  0
 12 13  1  0
 13 14  2  0
 14 15  1  0
 15 16  2  0
 16 17  1  0
 17 18  1  0
 18 19  1  0
 18 20  1  0
 18 21  1  0
 17 22  2  0
  7 23  2  0
 23 24  1  0
 24 25  2  0
 25 26  1  0
 26 27  2  0
 27 28  1  0
 28 29  2  0
 29 30  1  0
 30 31  2  0
 30  6  1  0
 22 13  1  0
 29 24  1  0
  1 32  1  0
  1 33  1  0
  1 34  1  0
  3 35  1  0
  3 36  1  0
  4 37  1  0
  4 38  1  0
  5 39  1  0
  5 40  1  0
  9 41  1  0
  9 42  1  0
 12 43  1  0
 14 44  1  0
 15 45  1  0
 16 46  1  0
 22 47  1  0
 25 48  1  0
 26 49  1  0
 27 50  1  0
 28 51  1  0
M  END
>  <UniqueID>  (11) 
9

>  <SMILES>  (11) 
COCCCn1c(SCC(=O)Nc2cccc(C(F)(F)F)c2)nc2ccccc2c1=O

>  <Energy>  (11) 
62.26258987449575

>  <Genealogy>  (11) 
COCCCn1c(SCC(=O)Nc2cccc(C(F)(F)F)c2)nc2ccccc2c1=O (3D coordinates assigned)
COCCCn1c(SCC(=O)Nc2cccc(C(F)(F)F)c2)nc2ccccc2c1=O (optimized conformer: 62.26258987449575 kcal/mol)

>  <smiles>  (11) 
COCCCn1c(SCC(=O)Nc2cccc(C(F)(F)F)c2)nc2ccccc2c1=O

>  <score_type>  (11) 
oracle

>  <origin>  (11) 
adg

>  <m_score__min__energy>  (11) 
-8.0899999999999999

>  <m_primary>  (11) 
energy

$$$$
11:0
     RDKit          3D

 32 34  0  0  0  0  0  0  0  0999 V2000
   57.9380   34.1110   45.0510 C   0  0  0  0  0  0  0  0  0  0  0  0
   57.4060   33.0500   44.2650 O   0  0  0  0  0  0  0  0  0  0  0  0
   57.6230   31.6880   44.5210 C   0  0  0  0  0  0  0  0  0  0  0  0
   57.0440   30.7490   43.6610 C   0  0  0  0  0  0  0  0  0  0  0  0
   57.2290   29.3800   43.8730 C   0  0  0  0  0  0  0  0  0  0  0  0
   58.0050   28.9240   44.9540 C   0  0  0  0  0  0  0  0  0  0  0  0
   58.2070   27.4710   45.1820 C   0  0  0  0  0  0  0  0  0  0  0  0
   59.0790   26.9620   46.1470 C   0  0  0  0  0  0  0  0  0  0  0  0
   59.0060   25.2850   46.0740 S   0  0  0  0  0  0  0  0  0  0  0  0
   57.8750   25.2540   44.8260 C   0  0  0  0  0  0  0  0  0  0  0  0
   57.3080   24.0240   44.2180 C   0  0  0  0  0  0  0  0  0  0  0  0
   57.9000   22.7720   44.4620 C   0  0  0  0  0  0  0  0  0  0  0  0
   57.3570   21.6230   43.8810 C   0  0  0  0  0  0  0  0  0  0  0  0
   56.2650   21.7140   43.0800 N   0  0  0  0  0  0  0  0  0  0  0  0
   55.6720   22.9090   42.8180 C   0  0  0  0  0  0  0  0  0  0  0  0
   56.1810   24.0840   43.3790 C   0  0  0  0  0  0  0  0  0  0  0  0
   57.5470   26.5170   44.4610 N   0  0  0  0  0  0  0  0  0  0  0  0
   58.5860   29.8690   45.8170 C   0  0  0  0  0  0  0  0  0  0  0  0
   58.3980   31.2380   45.6050 C   0  0  0  0  0  0  0  0  0  0  0  0
   57.8184   33.8724   46.1181 H   0  0  0  0  0  0  0  0  0  0  0  0
   59.0062   34.2376   44.8211 H   0  0  0  0  0  0  0  0  0  0  0  0
   57.4005   35.0428   44.8211 H   0  0  0  0  0  0  0  0  0  0  0  0
   56.4373   31.0913   42.8097 H   0  0  0  0  0  0  0  0  0  0  0  0
   56.7644   28.6539   43.1896 H   0  0  0  0  0  0  0  0  0  0  0  0
   59.7028   27.5539   46.8330 H   0  0  0  0  0  0  0  0  0  0  0  0
   58.7873   22.6974   45.1079 H   0  0  0  0  0  0  0  0  0  0  0  0
   57.8158   20.6419   44.0733 H   0  0  0  0  0  0  0  0  0  0  0  0
   54.7894   22.9515   42.1629 H   0  0  0  0  0  0  0  0  0  0  0  0
   55.7022   25.0510   43.1651 H   0  0  0  0  0  0  0  0  0  0  0  0
   56.8280   26.7430   43.7400 H   0  0  0  0  0  0  0  0  0  0  0  0
   59.1946   29.5281   46.6675 H   0  0  0  0  0  0  0  0  0  0  0  0
   58.8582   31.9664   46.2889 H   0  0  0  0  0  0  0  0  0  0  0  0
  1  2  1  0
  2  3  1  0
  3  4  2  0
  4  5  1  0
  5  6  2  0
  6  7  1  0
  7  8  2  0
  8  9  1  0
  9 10  1  0
 10 11  1  0
 11 12  2  0
 12 13  1  0
 13 14  2  0
 14 15  1  0
 15 16  2  0
 10 17  2  0
  6 18  1  0
 18 19  2  0
 19  3  1  0
 17  7  1  0
 16 11  1  0
  1 20  1  0
  1 21  1  0
  1 22  1  0
  4 23  1  0
  5 24  1  0
  8 25  1  0
 12 26  1  0
 13 27  1  0
 15 28  1  0
 16 29  1  0
 17 30  1  0
 18 31  1  0
 19 32  1  0
M  CHG  1  17   1
M  END
>  <UniqueID>  (12) 
10

>  <SMILES>  (12) 
COc1ccc(-c2csc(-c3ccncc3)[nH+]2)cc1

>  <Energy>  (12) 
69.82414161006186

>  <Genealogy>  (12) 
COc1ccc(-c2csc(-c3ccncc3)[nH+]2)cc1 (protonated)
COc1ccc(-c2csc(-c3ccncc3)[nH+]2)cc1 (3D coordinates assigned)
COc1ccc(-c2csc(-c3ccncc3)[nH+]2)cc1 (optimized conformer: 69.82414161006186 kcal/mol)

>  <smiles>  (12) 
COc1ccc(-c2csc(-c3ccncc3)n2)cc1

>  <score_type>  (12) 
oracle

>  <origin>  (12) 
adg

>  <m_score__min__energy>  (12) 
-5.4100000000000001

>  <m_primary>  (12) 
energy

$$$$
12:0
     RDKit          3D

 40 43  0  0  0  0  0  0  0  0999 V2000
   57.0960   31.0220   42.9090 O   0  0  0  0  0  0  0  0  0  0  0  0
   56.7560   30.9950   44.1100 N   0  0  0  0  0  0  0  0  0  0  0  0
   55.7810   30.1070   44.5030 O   0  0  0  0  0  0  0  0  0  0  0  0
   57.3740   31.8760   45.0680 C   0  0  0  0  0  0  0  0  0  0  0  0
   58.1660   31.3620   46.1100 C   0  0  0  0  0  0  0  0  0  0  0  0
   58.7600   32.2220   47.0380 C   0  0  0  0  0  0  0  0  0  0  0  0
   58.5780   33.6080   46.9390 C   0  0  0  0  0  0  0  0  0  0  0  0
   59.1810   34.5250   47.9710 C   0  0  0  0  0  0  0  0  0  0  0  0
   60.3830   33.9140   48.5490 N   0  0  0  0  0  0  0  0  0  0  0  0
   60.4850   33.1990   49.7070 C   0  0  0  0  0  0  0  0  0  0  0  0
   59.3930   33.0280   50.6810 C   0  0  0  0  0  0  0  0  0  0  0  0
   58.4540   31.9950   50.5340 C   0  0  0  0  0  0  0  0  0  0  0  0
   57.4280   31.8390   51.4690 C   0  0  0  0  0  0  0  0  0  0  0  0
   57.3240   32.7200   52.5500 C   0  0  0  0  0  0  0  0  0  0  0  0
   58.2440   33.7650   52.6900 C   0  0  0  0  0  0  0  0  0  0  0  0
   59.2710   33.9230   51.7550 C   0  0  0  0  0  0  0  0  0  0  0  0
   61.6850   32.5830   49.8590 N   0  0  0  0  0  0  0  0  0  0  0  0
   62.3550   32.9410   48.7510 C   0  0  0  0  0  0  0  0  0  0  0  0
   63.6440   32.5610   48.3830 C   0  0  0  0  0  0  0  0  0  0  0  0
   64.1350   33.0200   47.1470 C   0  0  0  0  0  0  0  0  0  0  0  0
   63.3300   33.8310   46.3150 C   0  0  0  0  0  0  0  0  0  0  0  0
   62.0310   34.1940   46.7130 C   0  0  0  0  0  0  0  0  0  0  0  0
   61.5770   33.7310   47.9540 C   0  0  0  0  0  0  0  0  0  0  0  0
   57.7880   34.1240   45.9020 C   0  0  0  0  0  0  0  0  0  0  0  0
   57.1910   33.2670   44.9740 C   0  0  0  0  0  0  0  0  0  0  0  0
   58.3191   30.2761   46.1954 H   0  0  0  0  0  0  0  0  0  0  0  0
   59.3743   31.8082   47.8513 H   0  0  0  0  0  0  0  0  0  0  0  0
   59.4509   35.4796   47.4958 H   0  0  0  0  0  0  0  0  0  0  0  0
   58.4460   34.6990   48.7707 H   0  0  0  0  0  0  0  0  0  0  0  0
   58.5264   31.3060   49.6796 H   0  0  0  0  0  0  0  0  0  0  0  0
   56.7006   31.0218   51.3548 H   0  0  0  0  0  0  0  0  0  0  0  0
   56.5198   32.5917   53.2895 H   0  0  0  0  0  0  0  0  0  0  0  0
   58.1590   34.4625   53.5363 H   0  0  0  0  0  0  0  0  0  0  0  0
   59.9862   34.7519   51.8615 H   0  0  0  0  0  0  0  0  0  0  0  0
   64.2572   31.9235   49.0369 H   0  0  0  0  0  0  0  0  0  0  0  0
   65.1510   32.7462   46.8263 H   0  0  0  0  0  0  0  0  0  0  0  0
   63.7226   34.1809   45.3488 H   0  0  0  0  0  0  0  0  0  0  0  0
   61.3935   34.8201   46.0715 H   0  0  0  0  0  0  0  0  0  0  0  0
   57.6373   35.2104   45.8185 H   0  0  0  0  0  0  0  0  0  0  0  0
   56.5736   33.6833   44.1643 H   0  0  0  0  0  0  0  0  0  0  0  0
  1  2  2  0
  2  3  1  0
  2  4  1  0
  4  5  2  0
  5  6  1  0
  6  7  2  0
  7  8  1  0
  8  9  1  0
  9 10  1  0
 10 11  1  0
 11 12  2  0
 12 13  1  0
 13 14  2  0
 14 15  1  0
 15 16  2  0
 10 17  2  0
 17 18  1  0
 18 19  2  0
 19 20  1  0
 20 21  2  0
 21 22  1  0
 22 23  2  0
  7 24  1  0
 24 25  2  0
 25  4  1  0
 23  9  1  0
 16 11  1  0
 23 18  1  0
  5 26  1  0
  6 27  1  0
  8 28  1  0
  8 29  1  0
 12 30  1  0
 13 31  1  0
 14 32  1  0
 15 33  1  0
 16 34  1  0
 19 35  1  0
 20 36  1  0
 21 37  1  0
 22 38  1  0
 24 39  1  0
 25 40  1  0
M  CHG  2   2   1   3  -1
M  END
>  <UniqueID>  (13) 
11

>  <SMILES>  (13) 
O=[N+]([O-])c1ccc(Cn2c(-c3ccccc3)nc3ccccc32)cc1

>  <Energy>  (13) 
86.81894589567439

>  <Genealogy>  (13) 
O=[N+]([O-])c1ccc(Cn2c(-c3ccccc3)nc3ccccc32)cc1 (3D coordinates assigned)
O=[N+]([O-])c1ccc(Cn2c(-c3ccccc3)nc3ccccc32)cc1 (optimized conformer: 86.81894589567439 kcal/mol)

>  <smiles>  (13) 
O=[N+]([O-])c1ccc(Cn2c(-c3ccccc3)nc3ccccc32)cc1

>  <score_type>  (13) 
oracle

>  <origin>  (13) 
adg

>  <m_score__min__energy>  (13) 
-8.4399999999999995

>  <m_primary>  (13) 
energy

$$$$
13:0
     RDKit          3D

 50 52  0  0  0  0  0  0  0  0999 V2000
   58.0720   32.1530   42.5260 C   0  0  0  0  0  0  0  0  0  0  0  0
   57.4040   32.6280   43.6900 O   0  0  0  0  0  0  0  0  0  0  0  0
   58.0550   33.1030   44.8380 C   0  0  0  0  0  0  0  0  0  0  0  0
   57.5430   32.7410   46.0910 C   0  0  0  0  0  0  0  0  0  0  0  0
   58.1570   33.1890   47.2650 C   0  0  0  0  0  0  0  0  0  0  0  0
   59.2890   34.0090   47.1960 C   0  0  0  0  0  0  0  0  0  0  0  0
   60.0750   34.5840   48.7020 S   0  0  0  0  0  0  0  0  0  0  0  0
   60.4420   32.8990   49.2980 C   0  0  0  0  0  0  0  0  0  0  0  0
   61.1140   32.0880   48.2280 C   0  0  0  0  0  0  0  0  0  0  0  0
   62.2310   32.4630   47.7790 O   0  0  0  0  0  0  0  0  0  0  0  0
   60.5180   30.8730   47.7340 N   0  0  0  0  0  0  0  0  0  0  0  0
   60.8430   30.4040   46.3800 C   0  0  0  0  0  0  0  0  0  0  0  0
   59.6150   29.7580   45.7340 C   0  0  0  0  0  0  0  0  0  0  0  0
   58.9980   28.8120   46.6690 N   0  0  0  0  0  0  0  0  0  0  0  0
   58.5880   27.5020   46.2350 C   0  0  0  0  0  0  0  0  0  0  0  0
   59.4540   26.4130   46.4200 C   0  0  0  0  0  0  0  0  0  0  0  0
   59.0830   25.1360   45.9960 C   0  0  0  0  0  0  0  0  0  0  0  0
   57.8440   24.9340   45.3860 C   0  0  0  0  0  0  0  0  0  0  0  0
   56.9700   26.0080   45.2020 C   0  0  0  0  0  0  0  0  0  0  0  0
   57.3300   27.3030   45.6290 C   0  0  0  0  0  0  0  0  0  0  0  0
   56.4640   28.3980   45.4830 O   0  0  0  0  0  0  0  0  0  0  0  0
   56.5810   29.3920   44.4710 C   0  0  0  0  0  0  0  0  0  0  0  0
   58.6690   29.2830   48.0170 C   0  0  0  0  0  0  0  0  0  0  0  0
   59.9050   29.9100   48.6600 C   0  0  0  0  0  0  0  0  0  0  0  0
   59.8090   34.3730   45.9500 C   0  0  0  0  0  0  0  0  0  0  0  0
   59.1970   33.9260   44.7740 C   0  0  0  0  0  0  0  0  0  0  0  0
   58.9351   31.5393   42.8233 H   0  0  0  0  0  0  0  0  0  0  0  0
   57.3780   31.5444   41.9276 H   0  0  0  0  0  0  0  0  0  0  0  0
   58.4190   33.0083   41.9276 H   0  0  0  0  0  0  0  0  0  0  0  0
   56.6514   32.0996   46.1518 H   0  0  0  0  0  0  0  0  0  0  0  0
   57.7496   32.8964   48.2440 H   0  0  0  0  0  0  0  0  0  0  0  0
   61.1062   32.9628   50.1725 H   0  0  0  0  0  0  0  0  0  0  0  0
   59.4960   32.4080   49.5699 H   0  0  0  0  0  0  0  0  0  0  0  0
   61.1681   31.2583   45.7681 H   0  0  0  0  0  0  0  0  0  0  0  0
   61.6490   29.6580   46.4429 H   0  0  0  0  0  0  0  0  0  0  0  0
   58.8867   30.5399   45.4727 H   0  0  0  0  0  0  0  0  0  0  0  0
   59.9248   29.2196   44.8262 H   0  0  0  0  0  0  0  0  0  0  0  0
   60.4308   26.5669   46.9019 H   0  0  0  0  0  0  0  0  0  0  0  0
   59.7679   24.2878   46.1428 H   0  0  0  0  0  0  0  0  0  0  0  0
   57.5553   23.9273   45.0496 H   0  0  0  0  0  0  0  0  0  0  0  0
   55.9947   25.8426   44.7210 H   0  0  0  0  0  0  0  0  0  0  0  0
   56.6973   30.3804   44.9396 H   0  0  0  0  0  0  0  0  0  0  0  0
   57.4600   29.1769   43.8457 H   0  0  0  0  0  0  0  0  0  0  0  0
   55.6761   29.3869   43.8457 H   0  0  0  0  0  0  0  0  0  0  0  0
   57.8677   30.0341   47.9563 H   0  0  0  0  0  0  0  0  0  0  0  0
   58.3328   28.4323   48.6279 H   0  0  0  0  0  0  0  0  0  0  0  0
   59.6114   30.4292   49.5842 H   0  0  0  0  0  0  0  0  0  0  0  0
   60.6326   29.1185   48.8926 H   0  0  0  0  0  0  0  0  0  0  0  0
   60.7020   35.0128   45.8943 H   0  0  0  0  0  0  0  0  0  0  0  0
   59.6085   34.2179   43.7965 H   0  0  0  0  0  0  0  0  0  0  0  0
  1  2  1  0
  2  3  1  0
  3  4  2  0
  4  5  1  0
  5  6  2  0
  6  7  1  0
  7  8  1  0
  8  9  1  0
  9 10  2  0
  9 11  1  0
 11 12  1  0
 12 13  1  0
 13 14  1  0
 14 15  1  0
 15 16  2  0
 16 17  1  0
 17 18  2  0
 18 19  1  0
 19 20  2  0
 20 21  1  0
 21 22  1  0
 14 23  1  0
 23 24  1  0
  6 25  1  0
 25 26  2  0
 26  3  1  0
 24 11  1  0
 20 15  1  0
  1 27  1  0
  1 28  1  0
  1 29  1  0
  4 30  1  0
  5 31  1  0
  8 32  1  0
  8 33  1  0
 12 34  1  0
 12 35  1  0
 13 36  1  0
 13 37  1  0
 16 38  1  0
 17 39  1  0
 18 40  1  0
 19 41  1  0
 22 42  1  0
 22 43  1  0
 22 44  1  0
 23 45  1  0
 23 46  1  0
 24 47  1  0
 24 48  1  0
 25 49  1  0
 26 50  1  0
M  END
>  <UniqueID>  (14) 
12

>  <SMILES>  (14) 
COc1ccc(SCC(=O)N2CCN(c3ccccc3OC)CC2)cc1

>  <Energy>  (14) 
51.61281445187818

>  <Genealogy>  (14) 
COc1ccc(SCC(=O)N2CCN(c3ccccc3OC)CC2)cc1 (3D coordinates assigned)
COc1ccc(SCC(=O)N2CCN(c3ccccc3OC)CC2)cc1 (nonaromatic ring conformer: 51.61281445187818 kcal/mol)

>  <smiles>  (14) 
COc1ccc(SCC(=O)N2CCN(c3ccccc3OC)CC2)cc1

>  <score_type>  (14) 
oracle

>  <origin>  (14) 
adg

>  <m_score__min__energy>  (14) 
-7.0899999999999999

>  <m_primary>  (14) 
energy

$$$$
14:0
     RDKit          3D

 54 58  0  0  1  0  0  0  0  0999 V2000
   55.6290   21.9070   45.2440 C   0  0  0  0  0  0  0  0  0  0  0  0
   55.1150   23.1970   44.8990 O   0  0  0  0  0  0  0  0  0  0  0  0
   55.8880   24.3300   45.0760 C   0  0  0  0  0  0  0  0  0  0  0  0
   57.0380   24.5810   44.3390 C   0  0  0  0  0  0  0  0  0  0  0  0
   57.7970   25.7270   44.5360 C   0  0  0  0  0  0  0  0  0  0  0  0
   57.3650   26.6180   45.4980 C   0  0  0  0  0  0  0  0  0  0  0  0
   58.0660   27.8590   45.8080 C   0  0  0  0  0  0  0  0  0  0  0  0
   59.0080   28.0970   46.7390 N   0  0  0  0  0  0  0  0  0  0  0  0
   59.3880   29.3970   46.6820 C   0  0  0  0  0  0  0  0  0  0  0  0
   60.3890   30.0240   47.5370 C   0  0  0  0  0  0  0  0  0  0  0  0
   60.5220   29.7460   48.8770 C   0  0  0  0  0  0  0  0  0  0  0  0
   61.4940   30.3670   49.6580 C   0  0  0  0  0  0  0  0  0  0  0  0
   62.3200   31.2600   49.0860 N   0  0  0  0  0  0  0  0  0  0  0  0
   62.2350   31.5680   47.7820 C   0  0  0  0  0  0  0  0  0  0  0  0
   63.1270   32.5450   47.1180 C   0  0  0  0  0  0  0  0  0  0  0  0
   61.2650   30.9480   47.0000 C   0  0  0  0  0  0  0  0  0  0  0  0
   58.6400   29.9790   45.6650 C   0  0  0  0  0  0  0  0  0  0  0  0
   58.6140   31.2450   45.1830 N   0  0  0  0  0  0  0  0  0  0  0  0
   57.7920   31.6060   44.1670 C   0  0  0  0  0  0  0  0  0  0  0  0
   57.8110   32.8280   43.7470 N   0  0  0  0  0  0  0  0  0  0  0  0
   57.3900   33.8560   44.6660 C   0  0  0  0  0  0  0  0  0  0  0  0
   58.3360   34.0170   45.7980 C   0  0  0  0  0  0  0  0  0  0  0  0
   58.0580   33.4870   47.0540 C   0  0  0  0  0  0  0  0  0  0  0  0
   58.8930   33.6060   48.1240 C   0  0  0  0  0  0  0  0  0  0  0  0
   60.0810   34.2870   47.9670 C   0  0  0  0  0  0  0  0  0  0  0  0
   60.3960   34.8310   46.7320 C   0  0  0  0  0  0  0  0  0  0  0  0
   59.5410   34.7050   45.6420 C   0  0  0  0  0  0  0  0  0  0  0  0
   56.9710   30.6340   43.6300 C   0  0  0  0  0  0  0  0  0  0  0  0
   57.0120   29.3500   44.1350 C   0  0  0  0  0  0  0  0  0  0  0  0
   57.8440   29.0120   45.1540 N   0  0  0  0  0  0  0  0  0  0  0  0
   56.2070   26.3730   46.2450 C   0  0  0  0  0  0  0  0  0  0  0  0
   55.5200   25.2420   46.0010 N   0  0  0  0  0  0  0  0  0  0  0  0
   55.6682   21.8087   46.3389 H   0  0  0  0  0  0  0  0  0  0  0  0
   54.9726   21.1278   44.8292 H   0  0  0  0  0  0  0  0  0  0  0  0
   56.6414   21.7927   44.8292 H   0  0  0  0  0  0  0  0  0  0  0  0
   57.3562   23.8524   43.5788 H   0  0  0  0  0  0  0  0  0  0  0  0
   58.7072   25.9175   43.9484 H   0  0  0  0  0  0  0  0  0  0  0  0
   59.8445   29.0156   49.3435 H   0  0  0  0  0  0  0  0  0  0  0  0
   61.5844   30.1298   50.7283 H   0  0  0  0  0  0  0  0  0  0  0  0
   63.6616   33.1306   47.8804 H   0  0  0  0  0  0  0  0  0  0  0  0
   63.8544   32.0097   46.4901 H   0  0  0  0  0  0  0  0  0  0  0  0
   62.5278   33.2208   46.4901 H   0  0  0  0  0  0  0  0  0  0  0  0
   61.1941   31.1989   45.9313 H   0  0  0  0  0  0  0  0  0  0  0  0
   59.2330   31.9820   45.5870 H   0  0  0  0  0  0  0  0  0  0  0  0
   57.3214   34.8102   44.1231 H   0  0  0  0  0  0  0  0  0  0  0  0
   56.4148   33.5603   45.0801 H   0  0  0  0  0  0  0  0  0  0  0  0
   57.1123   32.9421   47.1906 H   0  0  0  0  0  0  0  0  0  0  0  0
   58.6239   33.1665   49.0958 H   0  0  0  0  0  0  0  0  0  0  0  0
   60.7731   34.3977   48.8147 H   0  0  0  0  0  0  0  0  0  0  0  0
   61.3443   35.3751   46.6108 H   0  0  0  0  0  0  0  0  0  0  0  0
   59.8108   35.1419   44.6692 H   0  0  0  0  0  0  0  0  0  0  0  0
   56.2879   30.8817   42.8041 H   0  0  0  0  0  0  0  0  0  0  0  0
   56.3548   28.5817   43.7016 H   0  0  0  0  0  0  0  0  0  0  0  0
   55.8676   27.0858   47.0109 H   0  0  0  0  0  0  0  0  0  0  0  0
  1  2  1  0
  2  3  1  0
  3  4  2  0
  4  5  1  0
  5  6  2  0
  6  7  1  0
  7  8  2  0
  8  9  1  0
  9 10  1  0
 10 11  2  0
 11 12  1  0
 12 13  2  0
 13 14  1  0
 14 15  1  0
 14 16  2  0
  9 17  2  0
 17 18  1  0
 18 19  1  0
 19 20  2  0
 20 21  1  0
 21 22  1  0
 22 23  2  0
 23 24  1  0
 24 25  2  0
 25 26  1  0
 26 27  2  0
 19 28  1  0
 28 29  2  0
 29 30  1  0
  6 31  1  0
 31 32  2  0
 32  3  1  0
 30  7  1  0
 16 10  1  0
 30 17  1  0
 27 22  1  0
  1 33  1  0
  1 34  1  0
  1 35  1  0
  4 36  1  0
  5 37  1  0
 11 38  1  0
 12 39  1  0
 15 40  1  0
 15 41  1  0
 15 42  1  0
 16 43  1  0
 18 44  1  0
 21 45  1  0
 21 46  1  0
 23 47  1  0
 24 48  1  0
 25 49  1  0
 26 50  1  0
 27 51  1  0
 28 52  1  0
 29 53  1  0
 31 54  1  0
M  END
>  <smiles>  (15) 
COc1ccc(-c2nc(-c3ccnc(C)c3)c3[nH]c(=NCc4ccccc4)ccn23)cn1

>  <score_type>  (15) 
oracle

>  <origin>  (15) 
adg

>  <m_score__min__energy>  (15) 
-8.8599999999999994

>  <m_primary>  (15) 
energy

$$$$
15:0
     RDKit          3D

 39 41  0  0  0  0  0  0  0  0999 V2000
   58.2060   28.1620   44.1430 C   0  0  0  0  0  0  0  0  0  0  0  0
   57.7720   28.4370   45.5820 C   0  0  2  0  0  0  0  0  0  0  0  0
   56.6140   29.3300   45.5880 N   0  0  0  0  0  0  0  0  0  0  0  0
   56.2540   30.1990   44.5110 C   0  0  0  0  0  0  0  0  0  0  0  0
   55.1860   29.9810   43.8820 O   0  0  0  0  0  0  0  0  0  0  0  0
   57.1070   31.3310   44.1020 C   0  0  0  0  0  0  0  0  0  0  0  0
   57.4790   31.6370   42.8050 C   0  0  0  0  0  0  0  0  0  0  0  0
   58.2870   32.7130   42.8320 N   0  0  0  0  0  0  0  0  0  0  0  0
   58.4510   33.0980   44.0880 N   0  0  0  0  0  0  0  0  0  0  0  0
   59.3070   34.2100   44.4920 C   0  0  0  0  0  0  0  0  0  0  0  0
   57.7740   32.2550   44.9000 C   0  0  0  0  0  0  0  0  0  0  0  0
   57.7680   32.3390   46.4060 C   0  0  0  0  0  0  0  0  0  0  0  0
   57.7740   33.7610   46.9490 C   0  0  0  0  0  0  0  0  0  0  0  0
   59.0250   32.9090   47.0490 C   0  0  0  0  0  0  0  0  0  0  0  0
   58.9020   29.0600   46.3690 C   0  0  0  0  0  0  0  0  0  0  0  0
   58.8370   29.1520   47.7730 C   0  0  0  0  0  0  0  0  0  0  0  0
   59.8810   29.7410   48.4910 C   0  0  0  0  0  0  0  0  0  0  0  0
   60.9950   30.2490   47.8180 C   0  0  0  0  0  0  0  0  0  0  0  0
   61.0640   30.1750   46.4250 C   0  0  0  0  0  0  0  0  0  0  0  0
   60.0210   29.5880   45.7020 C   0  0  0  0  0  0  0  0  0  0  0  0
   59.1352   27.5732   44.1464 H   0  0  0  0  0  0  0  0  0  0  0  0
   57.4169   27.5987   43.6233 H   0  0  0  0  0  0  0  0  0  0  0  0
   58.3784   29.1161   43.6233 H   0  0  0  0  0  0  0  0  0  0  0  0
   57.5002   27.4816   46.0546 H   0  0  0  0  0  0  0  0  0  0  0  0
   57.1665   31.0917   41.9022 H   0  0  0  0  0  0  0  0  0  0  0  0
   58.7250   33.1720   42.0030 H   0  0  0  0  0  0  0  0  0  0  0  0
   59.3469   34.2619   45.5901 H   0  0  0  0  0  0  0  0  0  0  0  0
   60.3211   34.0550   44.0951 H   0  0  0  0  0  0  0  0  0  0  0  0
   58.8977   35.1507   44.0951 H   0  0  0  0  0  0  0  0  0  0  0  0
   57.1651   31.4327   46.5647 H   0  0  0  0  0  0  0  0  0  0  0  0
   57.7441   34.6143   46.2555 H   0  0  0  0  0  0  0  0  0  0  0  0
   57.1563   34.3215   47.6661 H   0  0  0  0  0  0  0  0  0  0  0  0
   59.9017   33.1447   46.4279 H   0  0  0  0  0  0  0  0  0  0  0  0
   59.6890   32.5965   47.8684 H   0  0  0  0  0  0  0  0  0  0  0  0
   57.9597   28.7581   48.3071 H   0  0  0  0  0  0  0  0  0  0  0  0
   59.8257   29.8048   49.5878 H   0  0  0  0  0  0  0  0  0  0  0  0
   61.8182   30.7075   48.3856 H   0  0  0  0  0  0  0  0  0  0  0  0
   61.9398   30.5789   45.8961 H   0  0  0  0  0  0  0  0  0  0  0  0
   60.0765   29.5391   44.6045 H   0  0  0  0  0  0  0  0  0  0  0  0
  1  2  1  0
  2  3  1  0
  3  4  1  0
  4  5  2  0
  4  6  1  0
  6  7  1  0
  7  8  2  0
  8  9  1  0
  9 10  1  0
  9 11  1  0
 11 12  1  0
 12 13  1  0
 13 14  1  0
  2 15  1  0
 15 16  2  0
 16 17  1  0
 17 18  2  0
 18 19  1  0
 19 20  2  0
 11  6  2  0
 14 12  1  0
 20 15  1  0
  1 21  1  0
  1 22  1  0
  1 23  1  0
  2 24  1  1
  7 25  1  0
  8 26  1  0
 10 27  1  0
 10 28  1  0
 10 29  1  0
 12 30  1  0
 13 31  1  0
 13 32  1  0
 14 33  1  0
 14 34  1  0
 16 35  1  0
 17 36  1  0
 18 37  1  0
 19 38  1  0
 20 39  1  0
M  CHG  2   3  -1   8   1
M  END
>  <UniqueID>  (16) 
13

>  <SMILES>  (16) 
C[C@H]([N-]C(=O)c1c[nH+]n(C)c1C1CC1)c1ccccc1

>  <Energy>  (16) 
334.9555986695727

>  <Genealogy>  (16) 
CC([N-]C(=O)c1c[nH+]n(C)c1C1CC1)c1ccccc1 (protonated)
C[C@H]([N-]C(=O)c1c[nH+]n(C)c1C1CC1)c1ccccc1 (chirality)
C[C@H]([N-]C(=O)c1c[nH+]n(C)c1C1CC1)c1ccccc1 (3D coordinates assigned)
C[C@H]([N-]C(=O)c1c[nH+]n(C)c1C1CC1)c1ccccc1 (nonaromatic ring conformer: 334.9555986695727 kcal/mol)

>  <smiles>  (16) 
CC(NC(=O)c1cnn(C)c1C1CC1)c1ccccc1

>  <score_type>  (16) 
oracle

>  <origin>  (16) 
adg

>  <m_score__min__energy>  (16) 
-7.7000000000000002

>  <m_primary>  (16) 
energy

$$$$
16:0
     RDKit          3D

 36 38  0  0  1  0  0  0  0  0999 V2000
   59.2330   35.1270   44.4290 F   0  0  0  0  0  0  0  0  0  0  0  0
   58.5200   33.9820   44.5100 C   0  0  0  0  0  0  0  0  0  0  0  0
   57.7700   33.6540   45.6450 C   0  0  0  0  0  0  0  0  0  0  0  0
   57.0450   32.4560   45.6880 C   0  0  0  0  0  0  0  0  0  0  0  0
   57.0470   31.5770   44.6250 C   0  0  0  0  0  0  0  0  0  0  0  0
   59.8690   28.4380   46.7620 N   0  0  0  0  0  0  0  0  0  0  0  0
   58.7030   28.3080   46.3180 C   0  0  0  0  0  0  0  0  0  0  0  0
   56.1120   28.2130   45.2660 N   0  0  0  0  0  0  0  0  0  0  0  0
   56.6840   27.1540   45.8670 C   0  0  0  0  0  0  0  0  0  0  0  0
   57.9390   27.1680   46.3880 C   0  0  0  0  0  0  0  0  0  0  0  0
   58.4630   26.0900   46.9760 F   0  0  0  0  0  0  0  0  0  0  0  0
   56.8820   29.3370   45.2040 C   0  0  0  0  0  0  0  0  0  0  0  0
   56.3240   30.3510   44.6250 N   0  0  0  0  0  0  0  0  0  0  0  0
   60.1950   29.0990   47.9750 C   0  0  0  0  0  0  0  0  0  0  0  0
   60.1540   30.5830   47.8840 C   0  0  0  0  0  0  0  0  0  0  0  0
   61.0100   31.3150   47.0840 C   0  0  0  0  0  0  0  0  0  0  0  0
   60.9610   32.7050   47.0150 C   0  0  0  0  0  0  0  0  0  0  0  0
   60.0540   33.3860   47.7450 N   0  0  0  0  0  0  0  0  0  0  0  0
   59.1950   32.7200   48.5420 C   0  0  0  0  0  0  0  0  0  0  0  0
   59.2360   31.3450   48.6180 C   0  0  0  0  0  0  0  0  0  0  0  0
   58.1270   29.3770   45.7120 N   0  0  0  0  0  0  0  0  0  0  0  0
   57.7970   31.9050   43.4900 C   0  0  0  0  0  0  0  0  0  0  0  0
   58.5170   33.0970   43.4530 C   0  0  0  0  0  0  0  0  0  0  0  0
   57.7497   34.3387   46.5057 H   0  0  0  0  0  0  0  0  0  0  0  0
   56.4621   32.2113   46.5882 H   0  0  0  0  0  0  0  0  0  0  0  0
   55.1440   28.1950   44.8680 H   0  0  0  0  0  0  0  0  0  0  0  0
   56.1024   26.2233   45.9409 H   0  0  0  0  0  0  0  0  0  0  0  0
   59.4789   28.7796   48.7465 H   0  0  0  0  0  0  0  0  0  0  0  0
   61.2314   28.8232   48.2197 H   0  0  0  0  0  0  0  0  0  0  0  0
   61.7575   30.7804   46.4795 H   0  0  0  0  0  0  0  0  0  0  0  0
   61.6625   33.2480   46.3646 H   0  0  0  0  0  0  0  0  0  0  0  0
   58.4562   33.2781   49.1358 H   0  0  0  0  0  0  0  0  0  0  0  0
   58.5235   30.8279   49.2776 H   0  0  0  0  0  0  0  0  0  0  0  0
   58.6500   30.2660   45.6260 H   0  0  0  0  0  0  0  0  0  0  0  0
   57.8180   31.2222   42.6278 H   0  0  0  0  0  0  0  0  0  0  0  0
   59.1010   33.3395   42.5529 H   0  0  0  0  0  0  0  0  0  0  0  0
  1  2  1  0
  2  3  2  0
  3  4  1  0
  4  5  2  0
  5  6  1  0
  6  7  2  0
  7  8  1  0
  8  9  1  0
  9 10  2  0
 10 11  1  0
 10 12  1  0
 12 13  2  0
 13 14  1  0
 14 15  1  0
 15 16  2  0
 16 17  1  0
 17 18  2  0
 18 19  1  0
 19 20  2  0
 12 21  1  0
  5 22  1  0
 22 23  2  0
 23  2  1  0
 21  7  1  0
 20 15  1  0
  3 24  1  0
  4 25  1  0
  8 26  1  0
  9 27  1  0
 14 28  1  0
 14 29  1  0
 16 30  1  0
 17 31  1  0
 19 32  1  0
 20 33  1  0
 21 34  1  0
 22 35  1  0
 23 36  1  0
M  END
>  <smiles>  (17) 
Fc1ccc(N=c2[nH]cc(F)c(=NCc3ccncc3)[nH]2)cc1

>  <score_type>  (17) 
oracle

>  <origin>  (17) 
adg

>  <m_score__min__energy>  (17) 
-7.5499999999999998

>  <m_primary>  (17) 
energy

$$$$
17:0
     RDKit          3D

 38 40  0  0  0  0  0  0  0  0999 V2000
   55.1500   29.3540   44.8570 O   0  0  0  0  0  0  0  0  0  0  0  0
   56.3970   29.5210   44.7690 C   0  0  0  0  0  0  0  0  0  0  0  0
   56.9270   30.7900   44.1750 C   0  0  0  0  0  0  0  0  0  0  0  0
   57.8530   31.4350   45.1110 N   0  0  0  0  0  0  0  0  0  0  0  0
   58.9430   30.7600   45.5100 N   0  0  0  0  0  0  0  0  0  0  0  0
   59.8420   31.3010   46.3390 N   0  0  0  0  0  0  0  0  0  0  0  0
   59.6360   32.5630   46.7730 C   0  0  0  0  0  0  0  0  0  0  0  0
   60.4100   33.3270   47.6130 C   0  0  0  0  0  0  0  0  0  0  0  0
   59.7020   34.5250   47.6840 C   0  0  0  0  0  0  0  0  0  0  0  0
   58.5800   34.4600   46.9250 N   0  0  0  0  0  0  0  0  0  0  0  0
   58.5700   33.2540   46.3860 N   0  0  0  0  0  0  0  0  0  0  0  0
   57.6530   32.7200   45.5480 C   0  0  0  0  0  0  0  0  0  0  0  0
   56.6500   33.3930   45.1820 O   0  0  0  0  0  0  0  0  0  0  0  0
   57.3090   28.4970   45.1980 N   0  0  0  0  0  0  0  0  0  0  0  0
   56.9010   27.2220   45.7160 C   0  0  0  0  0  0  0  0  0  0  0  0
   55.6780   26.9450   45.8450 O   0  0  0  0  0  0  0  0  0  0  0  0
   57.8960   26.2590   46.0910 N   0  0  0  0  0  0  0  0  0  0  0  0
   57.5560   24.9190   46.5590 C   0  0  0  0  0  0  0  0  0  0  0  0
   57.3810   23.9870   45.3910 C   0  0  0  0  0  0  0  0  0  0  0  0
   56.3320   24.1940   44.4790 C   0  0  0  0  0  0  0  0  0  0  0  0
   56.1500   23.3170   43.4040 C   0  0  0  0  0  0  0  0  0  0  0  0
   57.0090   22.2290   43.2350 C   0  0  0  0  0  0  0  0  0  0  0  0
   58.0520   22.0120   44.1410 C   0  0  0  0  0  0  0  0  0  0  0  0
   58.2370   22.8870   45.2180 C   0  0  0  0  0  0  0  0  0  0  0  0
   57.4570   30.5602   43.2389 H   0  0  0  0  0  0  0  0  0  0  0  0
   56.0874   31.4710   43.9717 H   0  0  0  0  0  0  0  0  0  0  0  0
   60.6800   30.7550   46.6360 H   0  0  0  0  0  0  0  0  0  0  0  0
   61.3553   33.0589   48.1074 H   0  0  0  0  0  0  0  0  0  0  0  0
   60.0101   35.4012   48.2734 H   0  0  0  0  0  0  0  0  0  0  0  0
   58.3330   28.6850   45.1090 H   0  0  0  0  0  0  0  0  0  0  0  0
   58.9060   26.5220   46.0220 H   0  0  0  0  0  0  0  0  0  0  0  0
   58.3640   24.5442   47.2045 H   0  0  0  0  0  0  0  0  0  0  0  0
   56.6134   24.9657   47.1240 H   0  0  0  0  0  0  0  0  0  0  0  0
   55.6517   25.0483   44.6107 H   0  0  0  0  0  0  0  0  0  0  0  0
   55.3293   23.4848   42.6911 H   0  0  0  0  0  0  0  0  0  0  0  0
   56.8651   21.5418   42.3882 H   0  0  0  0  0  0  0  0  0  0  0  0
   58.7270   21.1538   44.0074 H   0  0  0  0  0  0  0  0  0  0  0  0
   59.0558   22.7124   45.9314 H   0  0  0  0  0  0  0  0  0  0  0  0
  1  2  2  0
  2  3  1  0
  3  4  1  0
  4  5  1  0
  5  6  2  0
  6  7  1  0
  7  8  2  0
  8  9  1  0
  9 10  2  0
 10 11  1  0
 11 12  1  0
 12 13  2  0
  2 14  1  0
 14 15  1  0
 15 16  2  0
 15 17  1  0
 17 18  1  0
 18 19  1  0
 19 20  2  0
 20 21  1  0
 21 22  2  0
 22 23  1  0
 23 24  2  0
 12  4  1  0
 24 19  1  0
 11  7  1  0
  3 25  1  0
  3 26  1  0
  6 27  1  0
  8 28  1  0
  9 29  1  0
 14 30  1  0
 17 31  1  0
 18 32  1  0
 18 33  1  0
 20 34  1  0
 21 35  1  0
 22 36  1  0
 23 37  1  0
 24 38  1  0
M  CHG  1   6   1
M  END
>  <UniqueID>  (18) 
14

>  <SMILES>  (18) 
O=C(Cn1n[nH+]c2ccnn2c1=O)NC(=O)NCc1ccccc1

>  <Energy>  (18) 
74.0584925324169

>  <Genealogy>  (18) 
O=C(Cn1n[nH+]c2ccnn2c1=O)NC(=O)NCc1ccccc1 (protonated)
O=C(Cn1n[nH+]c2ccnn2c1=O)NC(=O)NCc1ccccc1 (3D coordinates assigned)
O=C(Cn1n[nH+]c2ccnn2c1=O)NC(=O)NCc1ccccc1 (optimized conformer: 74.0584925324169 kcal/mol)

>  <smiles>  (18) 
O=C(Cn1nnc2ccnn2c1=O)NC(=O)NCc1ccccc1

>  <score_type>  (18) 
oracle

>  <origin>  (18) 
adg

>  <m_score__min__energy>  (18) 
-7.3300000000000001

>  <m_primary>  (18) 
energy

$$$$
18:0
     RDKit          3D

 26 26  0  0  0  0  0  0  0  0999 V2000
   58.1470   29.6300   45.7060 C   0  0  0  0  0  0  0  0  0  0  0  0
   57.8060   28.3250   45.7450 C   0  0  0  0  0  0  0  0  0  0  0  0
   56.4270   27.9970   45.6210 C   0  0  0  0  0  0  0  0  0  0  0  0
   55.5420   28.9910   45.1490 O   0  0  0  0  0  0  0  0  0  0  0  0
   55.6490   29.7190   43.9300 C   0  0  0  0  0  0  0  0  0  0  0  0
   55.9870   26.7100   46.0020 C   0  0  0  0  0  0  0  0  0  0  0  0
   54.6520   26.3330   45.9180 O   0  0  0  0  0  0  0  0  0  0  0  0
   56.8920   25.7830   46.4990 C   0  0  0  0  0  0  0  0  0  0  0  0
   58.2510   26.0660   46.5370 C   0  0  0  0  0  0  0  0  0  0  0  0
   58.7640   27.2970   46.0620 C   0  0  0  0  0  0  0  0  0  0  0  0
   60.1210   27.4180   45.8680 C   0  0  0  0  0  0  0  0  0  0  0  0
   60.7370   28.4460   44.9450 C   0  0  0  0  0  0  0  0  0  0  0  0
   61.0990   26.4120   46.4380 C   0  0  0  0  0  0  0  0  0  0  0  0
   59.2025   29.9257   45.7984 H   0  0  0  0  0  0  0  0  0  0  0  0
   57.3695   30.3982   45.5818 H   0  0  0  0  0  0  0  0  0  0  0  0
   55.8057   30.7849   44.1520 H   0  0  0  0  0  0  0  0  0  0  0  0
   56.5006   29.3367   43.3481 H   0  0  0  0  0  0  0  0  0  0  0  0
   54.7234   29.5979   43.3481 H   0  0  0  0  0  0  0  0  0  0  0  0
   56.5286   24.8123   46.8673 H   0  0  0  0  0  0  0  0  0  0  0  0
   58.9448   25.3165   46.9455 H   0  0  0  0  0  0  0  0  0  0  0  0
   61.2116   29.2380   45.5429 H   0  0  0  0  0  0  0  0  0  0  0  0
   61.4941   27.9621   44.3104 H   0  0  0  0  0  0  0  0  0  0  0  0
   59.9533   28.8854   44.3104 H   0  0  0  0  0  0  0  0  0  0  0  0
   61.0637   26.4483   47.5368 H   0  0  0  0  0  0  0  0  0  0  0  0
   60.8279   25.4024   46.0956 H   0  0  0  0  0  0  0  0  0  0  0  0
   62.1158   26.6545   46.0956 H   0  0  0  0  0  0  0  0  0  0  0  0
  1  2  2  0
  2  3  1  0
  3  4  1  0
  4  5  1  0
  3  6  2  0
  6  7  1  0
  6  8  1  0
  8  9  2  0
  9 10  1  0
 10 11  2  3
 11 12  1  0
 11 13  1  0
 10  2  1  0
  1 14  1  0
  1 15  1  0
  5 16  1  0
  5 17  1  0
  5 18  1  0
  8 19  1  0
  9 20  1  0
 12 21  1  0
 12 22  1  0
 12 23  1  0
 13 24  1  0
 13 25  1  0
 13 26  1  0
M  CHG  1   7  -1
M  END
>  <UniqueID>  (19) 
15

>  <SMILES>  (19) 
C=c1c(OC)c([O-])ccc1=C(C)C

>  <Energy>  (19) 
50.97348549085205

>  <Genealogy>  (19) 
C=c1c(OC)c([O-])ccc1=C(C)C (protonated)
C=c1c(OC)c([O-])ccc1=C(C)C (3D coordinates assigned)
C=c1c(OC)c([O-])ccc1=C(C)C (optimized conformer: 50.97348549085205 kcal/mol)

>  <smiles>  (19) 
C=c1c(OC)c(O)ccc1=C(C)C

>  <score_type>  (19) 
oracle

>  <origin>  (19) 
adg

>  <m_score__min__energy>  (19) 
-9.7899999999999991

>  <m_primary>  (19) 
energy

$$$$
19:0
     RDKit          3D

 56 58  0  0  0  0  0  0  0  0999 V2000
   57.3940   21.1880   43.9130 C   0  0  0  0  0  0  0  0  0  0  0  0
   56.2630   21.9440   43.4980 O   0  0  0  0  0  0  0  0  0  0  0  0
   55.6160   22.8580   44.3380 C   0  0  0  0  0  0  0  0  0  0  0  0
   54.5180   22.5480   44.8800 O   0  0  0  0  0  0  0  0  0  0  0  0
   56.2060   24.1490   44.5790 N   0  0  0  0  0  0  0  0  0  0  0  0
   57.3860   24.5520   43.8060 C   0  0  0  0  0  0  0  0  0  0  0  0
   57.7290   26.0330   44.0160 C   0  0  0  0  0  0  0  0  0  0  0  0
   57.8720   26.3860   45.5260 C   0  0  0  0  0  0  0  0  0  0  0  0
   57.9810   27.8510   45.8280 N   0  0  0  0  0  0  0  0  0  0  0  0
   58.9090   28.0930   46.9570 C   0  0  0  0  0  0  0  0  0  0  0  0
   58.9320   29.5820   47.3000 C   0  0  0  0  0  0  0  0  0  0  0  0
   59.5140   30.3870   46.2030 N   0  0  0  0  0  0  0  0  0  0  0  0
   59.0190   31.7810   46.1960 C   0  0  0  0  0  0  0  0  0  0  0  0
   59.6310   32.5880   47.3480 C   0  0  0  0  0  0  0  0  0  0  0  0
   61.1300   32.6520   47.2160 C   0  0  0  0  0  0  0  0  0  0  0  0
   61.9260   31.5850   47.6580 C   0  0  0  0  0  0  0  0  0  0  0  0
   63.3160   31.6760   47.5580 C   0  0  0  0  0  0  0  0  0  0  0  0
   63.8940   32.7950   47.0420 N   0  0  0  0  0  0  0  0  0  0  0  0
   63.1450   33.8490   46.6180 C   0  0  0  0  0  0  0  0  0  0  0  0
   61.7510   33.7990   46.7010 C   0  0  0  0  0  0  0  0  0  0  0  0
   59.4280   29.7370   44.8720 C   0  0  0  0  0  0  0  0  0  0  0  0
   58.2020   28.7960   44.6880 C   0  0  2  0  0  0  0  0  0  0  0  0
   56.9200   29.6060   44.4600 C   0  0  0  0  0  0  0  0  0  0  0  0
   56.6870   25.7820   46.3530 C   0  0  0  0  0  0  0  0  0  0  0  0
   55.5990   25.0990   45.5160 C   0  0  0  0  0  0  0  0  0  0  0  0
   57.4340   21.1613   45.0119 H   0  0  0  0  0  0  0  0  0  0  0  0
   57.3122   20.1623   43.5240 H   0  0  0  0  0  0  0  0  0  0  0  0
   58.3105   21.6557   43.5240 H   0  0  0  0  0  0  0  0  0  0  0  0
   58.2439   23.9400   44.1215 H   0  0  0  0  0  0  0  0  0  0  0  0
   57.1626   24.4016   42.7395 H   0  0  0  0  0  0  0  0  0  0  0  0
   58.6790   26.2539   43.5074 H   0  0  0  0  0  0  0  0  0  0  0  0
   56.9081   26.6359   43.6006 H   0  0  0  0  0  0  0  0  0  0  0  0
   58.8306   25.9356   45.8229 H   0  0  0  0  0  0  0  0  0  0  0  0
   58.5728   27.5215   47.8347 H   0  0  0  0  0  0  0  0  0  0  0  0
   59.9210   27.7714   46.6699 H   0  0  0  0  0  0  0  0  0  0  0  0
   57.9020   29.9215   47.4837 H   0  0  0  0  0  0  0  0  0  0  0  0
   59.5573   29.7184   48.1947 H   0  0  0  0  0  0  0  0  0  0  0  0
   59.2910   32.2544   45.2410 H   0  0  0  0  0  0  0  0  0  0  0  0
   57.9263   31.7653   46.3212 H   0  0  0  0  0  0  0  0  0  0  0  0
   59.2230   33.6094   47.3300 H   0  0  0  0  0  0  0  0  0  0  0  0
   59.3805   32.0936   48.2982 H   0  0  0  0  0  0  0  0  0  0  0  0
   61.4588   30.6831   48.0803 H   0  0  0  0  0  0  0  0  0  0  0  0
   63.9458   30.8405   47.8974 H   0  0  0  0  0  0  0  0  0  0  0  0
   64.9350   32.8470   46.9730 H   0  0  0  0  0  0  0  0  0  0  0  0
   63.6383   34.7430   46.2087 H   0  0  0  0  0  0  0  0  0  0  0  0
   61.1451   34.6533   46.3648 H   0  0  0  0  0  0  0  0  0  0  0  0
   59.3724   30.5262   44.1078 H   0  0  0  0  0  0  0  0  0  0  0  0
   60.3231   29.1050   44.7755 H   0  0  0  0  0  0  0  0  0  0  0  0
   58.4393   28.1883   43.8024 H   0  0  0  0  0  0  0  0  0  0  0  0
   56.4831   29.8820   45.4310 H   0  0  0  0  0  0  0  0  0  0  0  0
   57.1584   30.5178   43.8927 H   0  0  0  0  0  0  0  0  0  0  0  0
   56.1989   28.9992   43.8927 H   0  0  0  0  0  0  0  0  0  0  0  0
   57.1005   25.0375   47.0492 H   0  0  0  0  0  0  0  0  0  0  0  0
   56.2009   26.6286   46.8599 H   0  0  0  0  0  0  0  0  0  0  0  0
   54.9100   24.5613   46.1840 H   0  0  0  0  0  0  0  0  0  0  0  0
   55.0490   25.8636   44.9477 H   0  0  0  0  0  0  0  0  0  0  0  0
  1  2  1  0
  2  3  1  0
  3  4  2  0
  3  5  1  0
  5  6  1  0
  6  7  1  0
  7  8  1  0
  8  9  1  0
  9 10  1  0
 10 11  1  0
 11 12  1  0
 12 13  1  0
 13 14  1  0
 14 15  1  0
 15 16  2  0
 16 17  1  0
 17 18  2  0
 18 19  1  0
 19 20  2  0
 12 21  1  0
 21 22  1  0
 22 23  1  0
  8 24  1  0
 24 25  1  0
 25  5  1  0
 22  9  1  0
 20 15  1  0
  1 26  1  0
  1 27  1  0
  1 28  1  0
  6 29  1  0
  6 30  1  0
  7 31  1  0
  7 32  1  0
  8 33  1  0
 10 34  1  0
 10 35  1  0
 11 36  1  0
 11 37  1  0
 13 38  1  0
 13 39  1  0
 14 40  1  0
 14 41  1  0
 16 42  1  0
 17 43  1  0
 18 44  1  0
 19 45  1  0
 20 46  1  0
 21 47  1  0
 21 48  1  0
 22 49  1  6
 23 50  1  0
 23 51  1  0
 23 52  1  0
 24 53  1  0
 24 54  1  0
 25 55  1  0
 25 56  1  0
M  CHG  1  18   1
M  END
>  <UniqueID>  (20) 
16

>  <SMILES>  (20) 
COC(=O)N1CCC(N2CCN(CCc3cc[nH+]cc3)C[C@@H]2C)CC1

>  <Energy>  (20) 
77.04522462333489

>  <Genealogy>  (20) 
COC(=O)N1CCC(N2CCN(CCc3cc[nH+]cc3)CC2C)CC1 (protonated)
COC(=O)N1CCC(N2CCN(CCc3cc[nH+]cc3)C[C@@H]2C)CC1 (chirality)
COC(=O)N1CCC(N2CCN(CCc3cc[nH+]cc3)C[C@@H]2C)CC1 (3D coordinates assigned)
COC(=O)N1CCC(N2CCN(CCc3cc[nH+]cc3)C[C@@H]2C)CC1 (nonaromatic ring conformer: 77.04522462333489 kcal/mol)

>  <smiles>  (20) 
COC(=O)N1CCC(N2CCN(CCc3ccncc3)CC2C)CC1

>  <score_type>  (20) 
oracle

>  <origin>  (20) 
adg

>  <m_score__min__energy>  (20) 
-6.6399999999999997

>  <m_primary>  (20) 
energy

$$$$
20:0
     RDKit          3D

 43 46  0  0  0  0  0  0  0  0999 V2000
   57.5450   29.8310   52.4710 C   0  0  0  0  0  0  0  0  0  0  0  0
   58.1760   29.4200   51.2630 O   0  0  0  0  0  0  0  0  0  0  0  0
   58.4750   30.2760   50.1920 C   0  0  0  0  0  0  0  0  0  0  0  0
   58.3000   31.6480   50.3720 C   0  0  0  0  0  0  0  0  0  0  0  0
   58.5730   32.5410   49.3360 C   0  0  0  0  0  0  0  0  0  0  0  0
   59.0260   32.0810   48.0860 C   0  0  0  0  0  0  0  0  0  0  0  0
   59.2330   30.6930   47.9040 C   0  0  0  0  0  0  0  0  0  0  0  0
   58.9410   29.8010   48.9530 C   0  0  0  0  0  0  0  0  0  0  0  0
   59.6990   30.1880   46.6410 N   0  0  0  0  0  0  0  0  0  0  0  0
   58.6300   30.2920   45.6900 C   0  0  0  0  0  0  0  0  0  0  0  0
   58.0020   29.1630   45.2560 N   0  0  0  0  0  0  0  0  0  0  0  0
   56.9860   29.2040   44.3550 C   0  0  0  0  0  0  0  0  0  0  0  0
   56.5570   30.4260   43.8430 C   0  0  0  0  0  0  0  0  0  0  0  0
   57.1750   31.6010   44.2700 C   0  0  0  0  0  0  0  0  0  0  0  0
   58.2110   31.5520   45.2160 C   0  0  0  0  0  0  0  0  0  0  0  0
   58.8720   32.8050   45.6530 C   0  0  0  0  0  0  0  0  0  0  0  0
   59.0450   33.7110   44.7920 O   0  0  0  0  0  0  0  0  0  0  0  0
   59.3050   33.0250   47.0220 N   0  0  0  0  0  0  0  0  0  0  0  0
   60.1130   34.2200   47.3280 C   0  0  0  0  0  0  0  0  0  0  0  0
   61.5320   33.8950   47.7560 C   0  0  0  0  0  0  0  0  0  0  0  0
   62.4550   33.5050   46.7670 C   0  0  0  0  0  0  0  0  0  0  0  0
   63.7640   33.1580   47.1090 C   0  0  0  0  0  0  0  0  0  0  0  0
   64.1670   33.1810   48.4440 C   0  0  0  0  0  0  0  0  0  0  0  0
   63.2610   33.5460   49.4400 C   0  0  0  0  0  0  0  0  0  0  0  0
   61.9470   33.8950   49.1070 C   0  0  0  0  0  0  0  0  0  0  0  0
   61.1040   34.2490   50.1080 F   0  0  0  0  0  0  0  0  0  0  0  0
   58.1199   29.4565   53.3308 H   0  0  0  0  0  0  0  0  0  0  0  0
   57.5039   30.9296   52.5078 H   0  0  0  0  0  0  0  0  0  0  0  0
   56.5235   29.4245   52.5078 H   0  0  0  0  0  0  0  0  0  0  0  0
   57.9433   32.0293   51.3402 H   0  0  0  0  0  0  0  0  0  0  0  0
   58.4322   33.6198   49.4985 H   0  0  0  0  0  0  0  0  0  0  0  0
   59.0789   28.7202   48.8020 H   0  0  0  0  0  0  0  0  0  0  0  0
   60.0050   29.1900   46.7240 H   0  0  0  0  0  0  0  0  0  0  0  0
   60.5270   30.7380   46.3160 H   0  0  0  0  0  0  0  0  0  0  0  0
   56.5019   28.2714   44.0297 H   0  0  0  0  0  0  0  0  0  0  0  0
   55.7387   30.4640   43.1089 H   0  0  0  0  0  0  0  0  0  0  0  0
   56.8494   32.5700   43.8639 H   0  0  0  0  0  0  0  0  0  0  0  0
   60.1562   34.8514   46.4283 H   0  0  0  0  0  0  0  0  0  0  0  0
   59.6285   34.7319   48.1725 H   0  0  0  0  0  0  0  0  0  0  0  0
   62.1417   33.4732   45.7130 H   0  0  0  0  0  0  0  0  0  0  0  0
   64.4778   32.8663   46.3246 H   0  0  0  0  0  0  0  0  0  0  0  0
   65.1993   32.9113   48.7116 H   0  0  0  0  0  0  0  0  0  0  0  0
   63.5808   33.5596   50.4924 H   0  0  0  0  0  0  0  0  0  0  0  0
  1  2  1  0
  2  3  1  0
  3  4  2  0
  4  5  1  0
  5  6  2  0
  6  7  1  0
  7  8  2  0
  7  9  1  0
  9 10  1  0
 10 11  2  0
 11 12  1  0
 12 13  2  0
 13 14  1  0
 14 15  2  0
 15 16  1  0
 16 17  2  0
 16 18  1  0
 18 19  1  0
 19 20  1  0
 20 21  2  0
 21 22  1  0
 22 23  2  0
 23 24  1  0
 24 25  2  0
 25 26  1  0
  8  3  1  0
 15 10  1  0
 25 20  1  0
 18  6  1  0
  1 27  1  0
  1 28  1  0
  1 29  1  0
  4 30  1  0
  5 31  1  0
  8 32  1  0
  9 33  1  0
  9 34  1  0
 12 35  1  0
 13 36  1  0
 14 37  1  0
 19 38  1  0
 19 39  1  0
 21 40  1  0
 22 41  1  0
 23 42  1  0
 24 43  1  0
M  CHG  1   9   1
M  END
>  <UniqueID>  (21) 
17

>  <SMILES>  (21) 
COc1ccc2c(c1)[NH2+]c1ncccc1C(=O)N2Cc1ccccc1F

>  <Energy>  (21) 
66.00162072515904

>  <Genealogy>  (21) 
COc1ccc2c(c1)[NH2+]c1ncccc1C(=O)N2Cc1ccccc1F (protonated)
COc1ccc2c(c1)[NH2+]c1ncccc1C(=O)N2Cc1ccccc1F (3D coordinates assigned)
COc1ccc2c(c1)[NH2+]c1ncccc1C(=O)N2Cc1ccccc1F (nonaromatic ring conformer: 66.00162072515904 kcal/mol)

>  <smiles>  (21) 
COc1ccc2c(c1)Nc1ncccc1C(=O)N2Cc1ccccc1F

>  <score_type>  (21) 
oracle

>  <origin>  (21) 
adg

>  <m_score__min__energy>  (21) 
-6.0899999999999999

>  <m_primary>  (21) 
energy

$$$$
21:0
     RDKit          3D

 34 36  0  0  0  0  0  0  0  0999 V2000
   56.9850   31.7701   46.7635 H   0  0  0  0  0  0  0  0  0  0  0  0
   57.7890   32.0320   46.0600 C   0  0  0  0  0  0  0  0  0  0  0  0
   58.9050   32.5990   46.5670 C   0  0  0  0  0  0  0  0  0  0  0  0
   60.1230   31.7700   46.7920 C   0  0  0  0  0  0  0  0  0  0  0  0
   60.1370   30.5560   46.4470 O   0  0  0  0  0  0  0  0  0  0  0  0
   61.3380   32.3670   47.4020 C   0  0  0  0  0  0  0  0  0  0  0  0
   62.5970   31.7770   47.1930 C   0  0  0  0  0  0  0  0  0  0  0  0
   62.6699   30.8206   46.6545 H   0  0  0  0  0  0  0  0  0  0  0  0
   63.7560   32.3980   47.6650 C   0  0  0  0  0  0  0  0  0  0  0  0
   64.7365   31.9267   47.5023 H   0  0  0  0  0  0  0  0  0  0  0  0
   63.6720   33.6160   48.3430 C   0  0  0  0  0  0  0  0  0  0  0  0
   64.5875   34.1109   48.6993 H   0  0  0  0  0  0  0  0  0  0  0  0
   62.4270   34.2060   48.5690 C   0  0  0  0  0  0  0  0  0  0  0  0
   62.3641   35.1678   49.0990 H   0  0  0  0  0  0  0  0  0  0  0  0
   61.2580   33.5770   48.1230 C   0  0  0  0  0  0  0  0  0  0  0  0
   59.6650   34.3140   48.5220 S   0  0  0  0  0  0  0  0  0  0  0  0
   59.0150   34.0830   46.8410 C   0  0  0  0  0  0  0  0  0  0  0  0
   59.6978   34.5449   46.1127 H   0  0  0  0  0  0  0  0  0  0  0  0
   58.0262   34.5565   46.7515 H   0  0  0  0  0  0  0  0  0  0  0  0
   57.5700   31.7380   44.6280 C   0  0  0  0  0  0  0  0  0  0  0  0
   58.0090   32.6470   43.6490 C   0  0  0  0  0  0  0  0  0  0  0  0
   58.5470   33.5582   43.9496 H   0  0  0  0  0  0  0  0  0  0  0  0
   57.7650   32.3980   42.2970 C   0  0  0  0  0  0  0  0  0  0  0  0
   58.1240   33.1049   41.5346 H   0  0  0  0  0  0  0  0  0  0  0  0
   57.0660   31.2530   41.9120 C   0  0  0  0  0  0  0  0  0  0  0  0
   56.8799   31.0562   40.8459 H   0  0  0  0  0  0  0  0  0  0  0  0
   56.6020   30.3560   42.8780 C   0  0  0  0  0  0  0  0  0  0  0  0
   56.0455   29.4590   42.5687 H   0  0  0  0  0  0  0  0  0  0  0  0
   56.8430   30.5940   44.2470 C   0  0  0  0  0  0  0  0  0  0  0  0
   56.3850   29.7190   45.2450 O   0  0  0  0  0  0  0  0  0  0  0  0
   57.0250   28.4990   45.6070 C   0  0  0  0  0  0  0  0  0  0  0  0
   57.0673   28.4184   46.7032 H   0  0  0  0  0  0  0  0  0  0  0  0
   56.4556   27.6510   45.1987 H   0  0  0  0  0  0  0  0  0  0  0  0
   58.0463   28.4855   45.1987 H   0  0  0  0  0  0  0  0  0  0  0  0
  1  2  1  0
  2  3  2  0
  3  4  1  0
  4  5  2  0
  4  6  1  0
  6  7  2  0
  7  8  1  0
  7  9  1  0
  9 10  1  0
  9 11  2  0
 11 12  1  0
 11 13  1  0
 13 14  1  0
 13 15  2  0
 15 16  1  0
 16 17  1  0
 17 18  1  0
 17 19  1  0
  2 20  1  0
 20 21  2  0
 21 22  1  0
 21 23  1  0
 23 24  1  0
 23 25  2  0
 25 26  1  0
 25 27  1  0
 27 28  1  0
 27 29  2  0
 29 30  1  0
 30 31  1  0
 31 32  1  0
 31 33  1  0
 31 34  1  0
 17  3  1  0
 29 20  1  0
 15  6  1  0
M  END
>  <UniqueID>  (22) 
18

>  <SMILES>  (22) 
COc1ccccc1/C=C1\CSc2ccccc2C1=O

>  <Energy>  (22) 
50.82397883190814

>  <Genealogy>  (22) 
COc1ccccc1/C=C1\CSc2ccccc2C1=O (cis-trans isomerization)
COc1ccccc1/C=C1\CSc2ccccc2C1=O (3D coordinates assigned)
COc1ccccc1/C=C1\CSc2ccccc2C1=O (nonaromatic ring conformer: 50.82397883190814 kcal/mol)

>  <smiles>  (22) 
COc1ccccc1C=C1CSc2ccccc2C1=O

>  <score_type>  (22) 
oracle

>  <origin>  (22) 
adg

>  <m_score__min__energy>  (22) 
-7.75

>  <m_primary>  (22) 
energy

$$$$
22:0
     RDKit          3D

 62 65  0  0  0  0  0  0  0  0999 V2000
   55.8980   30.6450   52.3850 C   0  0  0  0  0  0  0  0  0  0  0  0
   57.2080   31.0600   51.7870 C   0  0  0  0  0  0  0  0  0  0  0  0
   57.6500   32.3860   51.8990 C   0  0  0  0  0  0  0  0  0  0  0  0
   58.8580   32.7800   51.3180 C   0  0  0  0  0  0  0  0  0  0  0  0
   59.6400   31.8550   50.6120 C   0  0  0  0  0  0  0  0  0  0  0  0
   60.8840   32.2610   50.0130 N   0  0  0  0  0  0  0  0  0  0  0  0
   61.5420   33.4990   50.4350 C   0  0  0  0  0  0  0  0  0  0  0  0
   62.4700   34.0250   49.3240 C   0  0  0  0  0  0  0  0  0  0  0  0
   61.9060   33.7930   47.9710 N   0  0  0  0  0  0  0  0  0  0  0  0
   60.6750   34.5990   47.7560 C   0  0  0  0  0  0  0  0  0  0  0  0
   59.6480   33.8400   46.9550 C   0  0  0  0  0  0  0  0  0  0  0  0
   59.5620   34.0010   45.5650 C   0  0  0  0  0  0  0  0  0  0  0  0
   58.5750   33.3050   44.8650 C   0  0  0  0  0  0  0  0  0  0  0  0
   58.4790   33.4400   43.6150 O   0  0  0  0  0  0  0  0  0  0  0  0
   57.6920   32.4730   45.5580 C   0  0  0  0  0  0  0  0  0  0  0  0
   56.6710   31.8170   44.8500 O   0  0  0  0  0  0  0  0  0  0  0  0
   56.8670   30.7170   43.9630 C   0  0  0  0  0  0  0  0  0  0  0  0
   56.3440   29.4430   44.5570 C   0  0  0  0  0  0  0  0  0  0  0  0
   55.1330   29.3710   44.8930 O   0  0  0  0  0  0  0  0  0  0  0  0
   57.2380   28.3550   44.8260 N   0  0  0  0  0  0  0  0  0  0  0  0
   58.2410   28.3470   45.8520 C   0  0  0  0  0  0  0  0  0  0  0  0
   59.1950   29.3770   45.8480 C   0  0  0  0  0  0  0  0  0  0  0  0
   60.1920   29.4260   46.8260 C   0  0  0  0  0  0  0  0  0  0  0  0
   60.2580   28.4350   47.8030 C   0  0  0  0  0  0  0  0  0  0  0  0
   59.3400   27.3820   47.7990 C   0  0  0  0  0  0  0  0  0  0  0  0
   58.3390   27.3110   46.8130 C   0  0  0  0  0  0  0  0  0  0  0  0
   57.4210   26.1180   46.8110 C   0  0  0  0  0  0  0  0  0  0  0  0
   57.8580   32.3400   46.9480 C   0  0  0  0  0  0  0  0  0  0  0  0
   58.8120   33.0170   47.5820 O   0  0  0  0  0  0  0  0  0  0  0  0
   61.6930   32.3420   47.6850 C   0  0  0  0  0  0  0  0  0  0  0  0
   61.5030   31.4750   48.9440 C   0  0  0  0  0  0  0  0  0  0  0  0
   59.1800   30.5340   50.4730 C   0  0  0  0  0  0  0  0  0  0  0  0
   57.9680   30.1440   51.0490 C   0  0  0  0  0  0  0  0  0  0  0  0
   55.9720   30.6684   53.4823 H   0  0  0  0  0  0  0  0  0  0  0  0
   55.1090   31.3372   52.0558 H   0  0  0  0  0  0  0  0  0  0  0  0
   55.6515   29.6248   52.0558 H   0  0  0  0  0  0  0  0  0  0  0  0
   57.0420   33.1204   52.4476 H   0  0  0  0  0  0  0  0  0  0  0  0
   59.1974   33.8218   51.4150 H   0  0  0  0  0  0  0  0  0  0  0  0
   60.7770   34.2577   50.6565 H   0  0  0  0  0  0  0  0  0  0  0  0
   62.1441   33.2928   51.3322 H   0  0  0  0  0  0  0  0  0  0  0  0
   62.6173   35.1057   49.4666 H   0  0  0  0  0  0  0  0  0  0  0  0
   63.4234   33.4806   49.3922 H   0  0  0  0  0  0  0  0  0  0  0  0
   62.6300   34.1450   47.3000 H   0  0  0  0  0  0  0  0  0  0  0  0
   60.2437   34.8598   48.7337 H   0  0  0  0  0  0  0  0  0  0  0  0
   60.9498   35.5038   47.1940 H   0  0  0  0  0  0  0  0  0  0  0  0
   60.2607   34.6648   45.0347 H   0  0  0  0  0  0  0  0  0  0  0  0
   56.3373   30.9174   43.0200 H   0  0  0  0  0  0  0  0  0  0  0  0
   57.9461   30.6012   43.7840 H   0  0  0  0  0  0  0  0  0  0  0  0
   59.1574   30.1521   45.0684 H   0  0  0  0  0  0  0  0  0  0  0  0
   60.9244   30.2467   46.8244 H   0  0  0  0  0  0  0  0  0  0  0  0
   61.0353   28.4818   48.5799 H   0  0  0  0  0  0  0  0  0  0  0  0
   59.4003   26.6024   48.5727 H   0  0  0  0  0  0  0  0  0  0  0  0
   57.1966   25.8263   47.8476 H   0  0  0  0  0  0  0  0  0  0  0  0
   56.4860   26.3757   46.2920 H   0  0  0  0  0  0  0  0  0  0  0  0
   57.9096   25.2802   46.2920 H   0  0  0  0  0  0  0  0  0  0  0  0
   57.1942   31.6712   47.5155 H   0  0  0  0  0  0  0  0  0  0  0  0
   60.7951   32.2416   47.0575 H   0  0  0  0  0  0  0  0  0  0  0  0
   62.6032   31.9800   47.1845 H   0  0  0  0  0  0  0  0  0  0  0  0
   60.8557   30.6194   48.7012 H   0  0  0  0  0  0  0  0  0  0  0  0
   62.4862   31.1186   49.2850 H   0  0  0  0  0  0  0  0  0  0  0  0
   59.7773   29.8034   49.9078 H   0  0  0  0  0  0  0  0  0  0  0  0
   57.6090   29.1120   50.9221 H   0  0  0  0  0  0  0  0  0  0  0  0
  1  2  1  0
  2  3  2  0
  3  4  1  0
  4  5  2  0
  5  6  1  0
  6  7  1  0
  7  8  1  0
  8  9  1  0
  9 10  1  0
 10 11  1  0
 11 12  2  0
 12 13  1  0
 13 14  2  0
 13 15  1  0
 15 16  1  0
 16 17  1  0
 17 18  1  0
 18 19  2  0
 18 20  1  0
 20 21  1  0
 21 22  2  0
 22 23  1  0
 23 24  2  0
 24 25  1  0
 25 26  2  0
 26 27  1  0
 15 28  2  0
 28 29  1  0
  9 30  1  0
 30 31  1  0
  5 32  1  0
 32 33  2  0
 33  2  1  0
 31  6  1  0
 29 11  1  0
 26 21  1  0
  1 34  1  0
  1 35  1  0
  1 36  1  0
  3 37  1  0
  4 38  1  0
  7 39  1  0
  7 40  1  0
  8 41  1  0
  8 42  1  0
  9 43  1  0
 10 44  1  0
 10 45  1  0
 12 46  1  0
 17 47  1  0
 17 48  1  0
 22 49  1  0
 23 50  1  0
 24 51  1  0
 25 52  1  0
 27 53  1  0
 27 54  1  0
 27 55  1  0
 28 56  1  0
 30 57  1  0
 30 58  1  0
 31 59  1  0
 31 60  1  0
 32 61  1  0
 33 62  1  0
M  CHG  2   9   1  20  -1
M  END
>  <UniqueID>  (23) 
19

>  <SMILES>  (23) 
Cc1ccc(N2CC[NH+](Cc3cc(=O)c(OCC(=O)[N-]c4ccccc4C)co3)CC2)cc1

>  <Energy>  (23) 
84.14258852024169

>  <Genealogy>  (23) 
Cc1ccc(N2CC[NH+](Cc3cc(=O)c(OCC(=O)[N-]c4ccccc4C)co3)CC2)cc1 (protonated)
Cc1ccc(N2CC[NH+](Cc3cc(=O)c(OCC(=O)[N-]c4ccccc4C)co3)CC2)cc1 (3D coordinates assigned)
Cc1ccc(N2CC[NH+](Cc3cc(=O)c(OCC(=O)[N-]c4ccccc4C)co3)CC2)cc1 (nonaromatic ring conformer: 84.14258852024169 kcal/mol)

>  <smiles>  (23) 
Cc1ccc(N2CCN(Cc3cc(=O)c(OCC(=O)Nc4ccccc4C)co3)CC2)cc1

>  <score_type>  (23) 
oracle

>  <origin>  (23) 
adg

>  <m_score__min__energy>  (23) 
-8.5899999999999999

>  <m_primary>  (23) 
energy

$$$$
23:0
     RDKit          3D

 37 38  0  0  0  0  0  0  0  0999 V2000
   58.1097   31.2523   44.4478 H   0  0  0  0  0  0  0  0  0  0  0  0
   57.9280   30.2880   44.9450 C   0  0  0  0  0  0  0  0  0  0  0  0
   58.6830   29.9100   46.0670 C   0  0  0  0  0  0  0  0  0  0  0  0
   59.7560   30.7740   46.6240 C   0  0  0  0  0  0  0  0  0  0  0  0
   60.8200   30.1940   47.3380 C   0  0  0  0  0  0  0  0  0  0  0  0
   60.8454   29.1044   47.4870 H   0  0  0  0  0  0  0  0  0  0  0  0
   61.8450   30.9870   47.8600 C   0  0  0  0  0  0  0  0  0  0  0  0
   62.6662   30.5163   48.4204 H   0  0  0  0  0  0  0  0  0  0  0  0
   61.8370   32.3800   47.6760 C   0  0  0  0  0  0  0  0  0  0  0  0
   62.9300   33.2150   48.2340 C   0  0  0  0  0  0  0  0  0  0  0  0
   62.6220   34.3210   49.4070 S   0  0  0  0  0  0  0  0  0  0  0  0
   64.2690   33.0880   47.7430 N   0  0  0  0  0  0  0  0  0  0  0  0
   64.5330   32.3270   47.0800 H   0  0  0  0  0  0  0  0  0  0  0  0
   65.0240   33.7180   48.0950 H   0  0  0  0  0  0  0  0  0  0  0  0
   60.7820   32.9600   46.9490 C   0  0  0  0  0  0  0  0  0  0  0  0
   60.7646   34.0481   46.7887 H   0  0  0  0  0  0  0  0  0  0  0  0
   59.7550   32.1670   46.4280 C   0  0  0  0  0  0  0  0  0  0  0  0
   58.9387   32.6367   45.8596 H   0  0  0  0  0  0  0  0  0  0  0  0
   58.4130   28.7190   46.6660 N   0  0  0  0  0  0  0  0  0  0  0  0
   57.4500   27.8800   46.1970 C   0  0  0  0  0  0  0  0  0  0  0  0
   57.2150   26.7420   46.7750 N   0  0  0  0  0  0  0  0  0  0  0  0
   56.0680   25.5650   46.2100 S   0  0  0  0  0  0  0  0  0  0  0  0
   55.8590   24.5020   47.2540 O   0  0  0  0  0  0  0  0  0  0  0  0
   54.7570   26.2550   45.9660 O   0  0  0  0  0  0  0  0  0  0  0  0
   56.6200   24.8270   44.6790 C   0  0  0  0  0  0  0  0  0  0  0  0
   56.9211   25.6266   43.9862 H   0  0  0  0  0  0  0  0  0  0  0  0
   55.7894   24.2374   44.2637 H   0  0  0  0  0  0  0  0  0  0  0  0
   57.8030   23.8920   44.8980 C   0  0  0  0  0  0  0  0  0  0  0  0
   57.9707   23.7594   45.9770 H   0  0  0  0  0  0  0  0  0  0  0  0
   57.5892   22.9162   44.4375 H   0  0  0  0  0  0  0  0  0  0  0  0
   58.7031   24.3254   44.4375 H   0  0  0  0  0  0  0  0  0  0  0  0
   56.7250   28.2360   45.1060 N   0  0  0  0  0  0  0  0  0  0  0  0
   56.9410   29.4180   44.4700 C   0  0  0  0  0  0  0  0  0  0  0  0
   56.1110   29.7910   43.2760 C   0  0  0  0  0  0  0  0  0  0  0  0
   56.3840   31.0890   42.8810 F   0  0  0  0  0  0  0  0  0  0  0  0
   54.7680   29.6940   43.5930 F   0  0  0  0  0  0  0  0  0  0  0  0
   56.3950   28.9350   42.2270 F   0  0  0  0  0  0  0  0  0  0  0  0
  1  2  1  0
  2  3  1  0
  3  4  1  0
  4  5  2  0
  5  6  1  0
  5  7  1  0
  7  8  1  0
  7  9  2  0
  9 10  1  0
 10 11  2  0
 10 12  1  0
 12 13  1  0
 12 14  1  0
  9 15  1  0
 15 16  1  0
 15 17  2  0
 17 18  1  0
  3 19  2  0
 19 20  1  0
 20 21  2  0
 21 22  1  0
 22 23  2  0
 22 24  2  0
 22 25  1  0
 25 26  1  0
 25 27  1  0
 25 28  1  0
 28 29  1  0
 28 30  1  0
 28 31  1  0
 20 32  1  0
 32 33  1  0
 33 34  1  0
 34 35  1  0
 34 36  1  0
 34 37  1  0
 33  2  2  0
 17  4  1  0
M  CHG  1  32  -1
M  END
>  <UniqueID>  (24) 
20

>  <SMILES>  (24) 
CCS(=O)(=O)/N=c1\nc(-c2ccc(C(N)=S)cc2)cc(C(F)(F)F)[n-]1

>  <Energy>  (24) 
39.27889530950117

>  <Genealogy>  (24) 
CCS(=O)(=O)N=c1nc(-c2ccc(C(N)=S)cc2)cc(C(F)(F)F)[n-]1 (protonated)
CCS(=O)(=O)/N=c1\nc(-c2ccc(C(N)=S)cc2)cc(C(F)(F)F)[n-]1 (cis-trans isomerization)
CCS(=O)(=O)/N=c1\nc(-c2ccc(C(N)=S)cc2)cc(C(F)(F)F)[n-]1 (3D coordinates assigned)
CCS(=O)(=O)/N=c1\nc(-c2ccc(C(N)=S)cc2)cc(C(F)(F)F)[n-]1 (optimized conformer: 39.27889530950117 kcal/mol)

>  <smiles>  (24) 
CCS(=O)(=O)N=c1nc(-c2ccc(C(N)=S)cc2)cc(C(F)(F)F)[nH]1

>  <score_type>  (24) 
oracle

>  <origin>  (24) 
adg

>  <m_score__min__energy>  (24) 
-9.3100000000000005

>  <m_primary>  (24) 
energy

$$$$
24:0
     RDKit          3D

 59 62  0  0  0  0  0  0  0  0999 V2000
   55.6718   30.9854   43.5981 H   0  0  0  0  0  0  0  0  0  0  0  0
   56.6010   30.7350   44.1310 C   0  0  0  0  0  0  0  0  0  0  0  0
   57.0210   29.4610   44.0690 C   0  0  0  0  0  0  0  0  0  0  0  0
   56.5165   28.7973   43.3514 H   0  0  0  0  0  0  0  0  0  0  0  0
   58.1070   28.8770   44.8870 C   0  0  0  0  0  0  0  0  0  0  0  0
   57.8330   28.1240   46.0450 C   0  0  0  0  0  0  0  0  0  0  0  0
   56.7910   27.9412   46.3462 H   0  0  0  0  0  0  0  0  0  0  0  0
   58.8810   27.6080   46.8130 C   0  0  0  0  0  0  0  0  0  0  0  0
   58.6613   27.0059   47.7070 H   0  0  0  0  0  0  0  0  0  0  0  0
   60.2060   27.8550   46.4480 C   0  0  0  0  0  0  0  0  0  0  0  0
   61.0289   27.4418   47.0498 H   0  0  0  0  0  0  0  0  0  0  0  0
   60.4860   28.6280   45.3170 C   0  0  0  0  0  0  0  0  0  0  0  0
   61.5298   28.8291   45.0339 H   0  0  0  0  0  0  0  0  0  0  0  0
   59.4410   29.1460   44.5450 C   0  0  0  0  0  0  0  0  0  0  0  0
   59.6660   29.7672   43.6655 H   0  0  0  0  0  0  0  0  0  0  0  0
   57.2810   31.8280   44.8540 C   0  0  0  0  0  0  0  0  0  0  0  0
   57.7720   31.5760   46.0650 O   0  0  0  0  0  0  0  0  0  0  0  0
   58.4090   32.4900   46.7910 C   0  0  0  0  0  0  0  0  0  0  0  0
   58.8880   32.1530   48.0610 C   0  0  0  0  0  0  0  0  0  0  0  0
   58.7309   31.1372   48.4528 H   0  0  0  0  0  0  0  0  0  0  0  0
   59.5700   33.1060   48.8410 C   0  0  0  0  0  0  0  0  0  0  0  0
   60.0960   32.8140   50.1100 O   0  0  0  0  0  0  0  0  0  0  0  0
   60.8530   33.7120   50.9230 C   0  0  0  0  0  0  0  0  0  0  0  0
   61.1596   33.1885   51.8406 H   0  0  0  0  0  0  0  0  0  0  0  0
   60.2180   34.5797   51.1549 H   0  0  0  0  0  0  0  0  0  0  0  0
   62.1090   34.2210   50.1980 C   0  0  0  0  0  0  0  0  0  0  0  0
   62.1443   35.3171   50.2840 H   0  0  0  0  0  0  0  0  0  0  0  0
   62.0405   33.8954   49.1495 H   0  0  0  0  0  0  0  0  0  0  0  0
   63.4090   33.6410   50.7780 C   0  0  0  0  0  0  0  0  0  0  0  0
   63.1793   33.0996   51.7076 H   0  0  0  0  0  0  0  0  0  0  0  0
   64.1056   34.4682   50.9793 H   0  0  0  0  0  0  0  0  0  0  0  0
   64.0430   32.7090   49.8170 N   0  0  0  0  0  0  0  0  0  0  0  0
   64.2360   31.3590   50.3750 C   0  0  0  0  0  0  0  0  0  0  0  0
   64.6988   31.4495   51.3688 H   0  0  0  0  0  0  0  0  0  0  0  0
   64.8798   30.7968   49.6826 H   0  0  0  0  0  0  0  0  0  0  0  0
   62.9040   30.5880   50.5150 C   0  0  0  0  0  0  0  0  0  0  0  0
   62.4735   30.8094   51.5027 H   0  0  0  0  0  0  0  0  0  0  0  0
   63.1301   29.5182   50.3946 H   0  0  0  0  0  0  0  0  0  0  0  0
   61.9090   30.9500   49.4740 N   0  0  0  0  0  0  0  0  0  0  0  0
   61.3040   31.7250   49.8370 H   0  0  0  0  0  0  0  0  0  0  0  0
   61.0170   29.8120   49.1930 C   0  0  0  0  0  0  0  0  0  0  0  0
   60.6729   29.3730   50.1411 H   0  0  0  0  0  0  0  0  0  0  0  0
   60.1491   30.1606   48.6140 H   0  0  0  0  0  0  0  0  0  0  0  0
   61.5629   29.0525   48.6140 H   0  0  0  0  0  0  0  0  0  0  0  0
   62.5550   31.4120   48.2320 C   0  0  0  0  0  0  0  0  0  0  0  0
   61.7805   31.6270   47.4810 H   0  0  0  0  0  0  0  0  0  0  0  0
   63.2299   30.6221   47.8706 H   0  0  0  0  0  0  0  0  0  0  0  0
   63.3810   32.6900   48.4870 C   0  0  0  0  0  0  0  0  0  0  0  0
   62.7094   33.5585   48.4193 H   0  0  0  0  0  0  0  0  0  0  0  0
   64.1765   32.7194   47.7278 H   0  0  0  0  0  0  0  0  0  0  0  0
   59.7450   34.4020   48.3410 C   0  0  0  0  0  0  0  0  0  0  0  0
   60.2610   35.1562   48.9532 H   0  0  0  0  0  0  0  0  0  0  0  0
   59.2710   34.7480   47.0720 C   0  0  0  0  0  0  0  0  0  0  0  0
   59.4226   35.7677   46.6883 H   0  0  0  0  0  0  0  0  0  0  0  0
   58.6020   33.7960   46.2870 C   0  0  0  0  0  0  0  0  0  0  0  0
   58.1160   34.0900   45.0020 C   0  0  0  0  0  0  0  0  0  0  0  0
   58.2690   35.2340   44.4950 O   0  0  0  0  0  0  0  0  0  0  0  0
   57.4580   33.0970   44.2770 C   0  0  0  0  0  0  0  0  0  0  0  0
   57.0816   33.3048   43.2645 H   0  0  0  0  0  0  0  0  0  0  0  0
  1  2  1  0
  2  3  2  0
  3  4  1  0
  3  5  1  0
  5  6  2  0
  6  7  1  0
  6  8  1  0
  8  9  1  0
  8 10  2  0
 10 11  1  0
 10 12  1  0
 12 13  1  0
 12 14  2  0
 14 15  1  0
  2 16  1  0
 16 17  1  0
 17 18  1  0
 18 19  2  0
 19 20  1  0
 19 21  1  0
 21 22  1  0
 22 23  1  0
 23 24  1  0
 23 25  1  0
 23 26  1  0
 26 27  1  0
 26 28  1  0
 26 29  1  0
 29 30  1  0
 29 31  1  0
 29 32  1  0
 32 33  1  0
 33 34  1  0
 33 35  1  0
 33 36  1  0
 36 37  1  0
 36 38  1  0
 36 39  1  0
 39 40  1  0
 39 41  1  0
 41 42  1  0
 41 43  1  0
 41 44  1  0
 39 45  1  0
 45 46  1  0
 45 47  1  0
 45 48  1  0
 48 49  1  0
 48 50  1  0
 21 51  2  0
 51 52  1  0
 51 53  1  0
 53 54  1  0
 53 55  2  0
 55 56  1  0
 56 57  2  0
 56 58  1  0
 58 59  1  0
 14  5  1  0
 58 16  2  0
 55 18  1  0
 48 32  1  0
M  CHG  1  39   1
M  END
>  <UniqueID>  (25) 
21

>  <SMILES>  (25) 
C[NH+]1CCN(CCCOc2ccc3c(=O)cc(/C=C\c4ccccc4)oc3c2)CC1

>  <Energy>  (25) 
84.48119334890602

>  <Genealogy>  (25) 
C[NH+]1CCN(CCCOc2ccc3c(=O)cc(C=Cc4ccccc4)oc3c2)CC1 (protonated)
C[NH+]1CCN(CCCOc2ccc3c(=O)cc(/C=C\c4ccccc4)oc3c2)CC1 (cis-trans isomerization)
C[NH+]1CCN(CCCOc2ccc3c(=O)cc(/C=C\c4ccccc4)oc3c2)CC1 (3D coordinates assigned)
C[NH+]1CCN(CCCOc2ccc3c(=O)cc(/C=C\c4ccccc4)oc3c2)CC1 (nonaromatic ring conformer: 84.48119334890602 kcal/mol)

>  <smiles>  (25) 
CN1CCN(CCCOc2ccc3c(=O)cc(C=Cc4ccccc4)oc3c2)CC1

>  <score_type>  (25) 
oracle

>  <origin>  (25) 
adg

>  <m_score__min__energy>  (25) 
-6.8300000000000001

>  <m_primary>  (25) 
energy

$$$$
25:0
     RDKit          3D

 42 45  0  0  1  0  0  0  0  0999 V2000
   59.0150   26.2130   45.8660 F   0  0  0  0  0  0  0  0  0  0  0  0
   58.4650   27.3280   45.3330 C   0  0  0  0  0  0  0  0  0  0  0  0
   59.3020   28.2220   44.6770 C   0  0  0  0  0  0  0  0  0  0  0  0
   58.7370   29.3420   44.1440 C   0  0  0  0  0  0  0  0  0  0  0  0
   57.3920   29.6440   44.2150 C   0  0  0  0  0  0  0  0  0  0  0  0
   56.8310   30.9040   43.6040 C   0  0  0  0  0  0  0  0  0  0  0  0
   56.6310   31.7870   44.7360 N   0  0  0  0  0  0  0  0  0  0  0  0
   57.6070   32.5550   45.0790 C   0  0  0  0  0  0  0  0  0  0  0  0
   57.8210   33.7770   44.5720 N   0  0  0  0  0  0  0  0  0  0  0  0
   58.8860   34.5000   45.0060 C   0  0  0  0  0  0  0  0  0  0  0  0
   59.7410   34.0190   45.9400 N   0  0  0  0  0  0  0  0  0  0  0  0
   59.5490   32.8040   46.4600 C   0  0  0  0  0  0  0  0  0  0  0  0
   58.4770   32.0510   46.0370 C   0  0  0  0  0  0  0  0  0  0  0  0
   58.5320   30.8940   46.7190 N   0  0  0  0  0  0  0  0  0  0  0  0
   59.6070   30.9230   47.5450 C   0  0  0  0  0  0  0  0  0  0  0  0
   60.0300   29.5950   48.6090 Cl  0  0  0  0  0  0  0  0  0  0  0  0
   60.2510   32.1030   47.3970 N   0  0  0  0  0  0  0  0  0  0  0  0
   61.4500   32.5190   48.1040 C   0  0  0  0  0  0  0  0  0  0  0  0
   62.5190   31.4710   48.0950 C   0  0  0  0  0  0  0  0  0  0  0  0
   63.7790   32.1650   48.6330 C   0  0  0  0  0  0  0  0  0  0  0  0
   64.1620   33.0660   47.6210 O   0  0  0  0  0  0  0  0  0  0  0  0
   63.3280   34.1550   47.7290 C   0  0  0  0  0  0  0  0  0  0  0  0
   61.8670   33.8360   47.5230 C   0  0  0  0  0  0  0  0  0  0  0  0
   56.5640   28.7600   44.8640 C   0  0  0  0  0  0  0  0  0  0  0  0
   55.2290   28.9800   44.9800 F   0  0  0  0  0  0  0  0  0  0  0  0
   57.1000   27.5980   45.4250 C   0  0  0  0  0  0  0  0  0  0  0  0
   60.3822   28.0327   44.5908 H   0  0  0  0  0  0  0  0  0  0  0  0
   59.3962   30.0519   43.6230 H   0  0  0  0  0  0  0  0  0  0  0  0
   57.5428   31.3415   42.8885 H   0  0  0  0  0  0  0  0  0  0  0  0
   55.9038   30.7234   43.0404 H   0  0  0  0  0  0  0  0  0  0  0  0
   57.1840   34.1580   43.8640 H   0  0  0  0  0  0  0  0  0  0  0  0
   59.0586   35.5027   44.5879 H   0  0  0  0  0  0  0  0  0  0  0  0
   61.2465   32.6502   49.1770 H   0  0  0  0  0  0  0  0  0  0  0  0
   62.2372   30.6289   48.7441 H   0  0  0  0  0  0  0  0  0  0  0  0
   62.6786   31.0597   47.0874 H   0  0  0  0  0  0  0  0  0  0  0  0
   63.5547   32.7040   49.5653 H   0  0  0  0  0  0  0  0  0  0  0  0
   64.5772   31.4456   48.8680 H   0  0  0  0  0  0  0  0  0  0  0  0
   63.4493   34.5845   48.7344 H   0  0  0  0  0  0  0  0  0  0  0  0
   63.6153   34.8547   46.9303 H   0  0  0  0  0  0  0  0  0  0  0  0
   61.2685   34.6290   47.9952 H   0  0  0  0  0  0  0  0  0  0  0  0
   61.7013   33.7752   46.4373 H   0  0  0  0  0  0  0  0  0  0  0  0
   56.4386   26.8890   45.9445 H   0  0  0  0  0  0  0  0  0  0  0  0
  1  2  1  0
  2  3  2  0
  3  4  1  0
  4  5  2  0
  5  6  1  0
  6  7  1  0
  7  8  2  0
  8  9  1  0
  9 10  1  0
 10 11  2  0
 11 12  1  0
 12 13  2  0
 13 14  1  0
 14 15  2  0
 15 16  1  0
 15 17  1  0
 17 18  1  0
 18 19  1  0
 19 20  1  0
 20 21  1  0
 21 22  1  0
 22 23  1  0
  5 24  1  0
 24 25  1  0
 24 26  2  0
 26  2  1  0
 13  8  1  0
 23 18  1  0
 17 12  1  0
  3 27  1  0
  4 28  1  0
  6 29  1  0
  6 30  1  0
  9 31  1  0
 10 32  1  0
 18 33  1  0
 19 34  1  0
 19 35  1  0
 20 36  1  0
 20 37  1  0
 22 38  1  0
 22 39  1  0
 23 40  1  0
 23 41  1  0
 26 42  1  0
M  END
>  <smiles>  (26) 
Fc1ccc(CN=c2[nH]cnc3c2nc(Cl)n3C2CCOCC2)c(F)c1

>  <score_type>  (26) 
oracle

>  <origin>  (26) 
adg

>  <m_score__min__energy>  (26) 
-8

>  <m_primary>  (26) 
energy

$$$$
26:0
     RDKit          3D

 61 65  0  0  0  0  0  0  0  0999 V2000
   56.3014   29.5892   43.6506 H   0  0  0  0  0  0  0  0  0  0  0  0
   56.9680   29.7910   44.5020 C   0  0  0  0  0  0  0  0  0  0  0  0
   57.0250   31.0510   45.0340 N   0  0  0  0  0  0  0  0  0  0  0  0
   57.8320   31.3600   46.0950 C   0  0  0  0  0  0  0  0  0  0  0  0
   57.8550   32.5580   46.5940 N   0  0  0  0  0  0  0  0  0  0  0  0
   58.8450   33.5760   46.2610 C   0  0  0  0  0  0  0  0  0  0  0  0
   59.7374   33.0953   45.8338 H   0  0  0  0  0  0  0  0  0  0  0  0
   59.1284   34.1267   47.1700 H   0  0  0  0  0  0  0  0  0  0  0  0
   58.2490   34.5420   45.2420 C   0  0  0  0  0  0  0  0  0  0  0  0
   59.0620   35.0719   44.7240 H   0  0  0  0  0  0  0  0  0  0  0  0
   57.6049   35.2646   45.7644 H   0  0  0  0  0  0  0  0  0  0  0  0
   57.4460   33.8050   44.2590 N   0  0  0  0  0  0  0  0  0  0  0  0
   56.8530   33.1130   44.7780 H   0  0  0  0  0  0  0  0  0  0  0  0
   58.3190   33.0450   43.3630 C   0  0  0  0  0  0  0  0  0  0  0  0
   59.0165   32.4378   43.9586 H   0  0  0  0  0  0  0  0  0  0  0  0
   57.7086   32.3856   42.7285 H   0  0  0  0  0  0  0  0  0  0  0  0
   58.8880   33.7404   42.7285 H   0  0  0  0  0  0  0  0  0  0  0  0
   58.6240   30.3410   46.6340 C   0  0  0  0  0  0  0  0  0  0  0  0
   58.5750   29.0730   46.1230 C   0  0  0  0  0  0  0  0  0  0  0  0
   57.7560   28.7480   45.0350 C   0  0  0  0  0  0  0  0  0  0  0  0
   57.7140   27.4270   44.4700 N   0  0  0  0  0  0  0  0  0  0  0  0
   57.9910   27.0710   43.2010 C   0  0  0  0  0  0  0  0  0  0  0  0
   58.3330   27.7768   42.4297 H   0  0  0  0  0  0  0  0  0  0  0  0
   57.8030   25.7540   42.9800 N   0  0  0  0  0  0  0  0  0  0  0  0
   57.3830   25.2680   44.1690 C   0  0  0  0  0  0  0  0  0  0  0  0
   57.0500   23.8410   44.4010 C   0  0  0  0  0  0  0  0  0  0  0  0
   56.8410   23.3750   45.7130 C   0  0  0  0  0  0  0  0  0  0  0  0
   56.9279   24.0720   46.5596 H   0  0  0  0  0  0  0  0  0  0  0  0
   56.5240   22.0340   45.9490 C   0  0  0  0  0  0  0  0  0  0  0  0
   56.3609   21.6815   46.9781 H   0  0  0  0  0  0  0  0  0  0  0  0
   56.4140   21.1410   44.8810 C   0  0  0  0  0  0  0  0  0  0  0  0
   55.9820   19.3090   45.2060 Br  0  0  0  0  0  0  0  0  0  0  0  0
   56.6200   21.5900   43.5750 C   0  0  0  0  0  0  0  0  0  0  0  0
   56.5335   20.8868   42.7336 H   0  0  0  0  0  0  0  0  0  0  0  0
   56.9360   22.9310   43.3330 C   0  0  0  0  0  0  0  0  0  0  0  0
   57.0965   23.2768   42.3012 H   0  0  0  0  0  0  0  0  0  0  0  0
   57.3180   26.3010   45.0870 C   0  0  0  0  0  0  0  0  0  0  0  0
   56.9987   26.2156   46.1362 H   0  0  0  0  0  0  0  0  0  0  0  0
   59.3440   28.2610   46.8730 N   0  0  0  0  0  0  0  0  0  0  0  0
   59.4760   27.2300   46.7840 H   0  0  0  0  0  0  0  0  0  0  0  0
   59.8720   29.0710   47.8230 C   0  0  0  0  0  0  0  0  0  0  0  0
   60.7680   28.5740   48.9150 C   0  0  0  0  0  0  0  0  0  0  0  0
   60.3260   28.8192   49.8920 H   0  0  0  0  0  0  0  0  0  0  0  0
   60.8824   27.4835   48.8276 H   0  0  0  0  0  0  0  0  0  0  0  0
   61.7537   29.0543   48.8276 H   0  0  0  0  0  0  0  0  0  0  0  0
   59.4470   30.3560   47.7050 N   0  0  0  0  0  0  0  0  0  0  0  0
   59.7620   31.4600   48.5680 C   0  0  0  0  0  0  0  0  0  0  0  0
   58.9070   31.7770   49.6320 C   0  0  0  0  0  0  0  0  0  0  0  0
   58.0098   31.1670   49.8134 H   0  0  0  0  0  0  0  0  0  0  0  0
   59.1880   32.8630   50.4630 C   0  0  0  0  0  0  0  0  0  0  0  0
   58.5125   33.1073   51.2961 H   0  0  0  0  0  0  0  0  0  0  0  0
   60.3250   33.6380   50.2370 C   0  0  0  0  0  0  0  0  0  0  0  0
   60.5415   34.4966   50.8896 H   0  0  0  0  0  0  0  0  0  0  0  0
   61.1900   33.3280   49.1850 C   0  0  0  0  0  0  0  0  0  0  0  0
   62.0861   33.9424   49.0132 H   0  0  0  0  0  0  0  0  0  0  0  0
   60.9190   32.2310   48.3430 C   0  0  0  0  0  0  0  0  0  0  0  0
   61.7670   31.8800   47.2800 O   0  0  0  0  0  0  0  0  0  0  0  0
   63.1890   31.8640   47.3550 C   0  0  0  0  0  0  0  0  0  0  0  0
   63.5005   31.8605   48.4100 H   0  0  0  0  0  0  0  0  0  0  0  0
   63.5723   30.9615   46.8565 H   0  0  0  0  0  0  0  0  0  0  0  0
   63.5925   32.7577   46.8565 H   0  0  0  0  0  0  0  0  0  0  0  0
  1  2  1  0
  2  3  1  0
  3  4  1  0
  4  5  2  0
  5  6  1  0
  6  7  1  0
  6  8  1  0
  6  9  1  0
  9 10  1  0
  9 11  1  0
  9 12  1  0
 12 13  1  0
 12 14  1  0
 14 15  1  0
 14 16  1  0
 14 17  1  0
  4 18  1  0
 18 19  2  0
 19 20  1  0
 20 21  1  0
 21 22  1  0
 22 23  1  0
 22 24  2  0
 24 25  1  0
 25 26  1  0
 26 27  2  0
 27 28  1  0
 27 29  1  0
 29 30  1  0
 29 31  2  0
 31 32  1  0
 31 33  1  0
 33 34  1  0
 33 35  2  0
 35 36  1  0
 25 37  2  0
 37 38  1  0
 19 39  1  0
 39 40  1  0
 39 41  2  0
 41 42  1  0
 42 43  1  0
 42 44  1  0
 42 45  1  0
 41 46  1  0
 46 47  1  0
 47 48  2  0
 48 49  1  0
 48 50  1  0
 50 51  1  0
 50 52  2  0
 52 53  1  0
 52 54  1  0
 54 55  1  0
 54 56  2  0
 56 57  1  0
 57 58  1  0
 58 59  1  0
 58 60  1  0
 58 61  1  0
 20  2  2  0
 37 21  1  0
 56 47  1  0
 46 18  1  0
 35 26  1  0
M  CHG  2   3  -1  39   1
M  END
>  <UniqueID>  (27) 
22

>  <SMILES>  (27) 
CNCC/N=c1\[n-]cc(-n2cnc(-c3ccc(Br)cc3)c2)c2[nH+]c(C)n(-c3ccccc3OC)c12

>  <Energy>  (27) 
141.12729435033444

>  <Genealogy>  (27) 
CNCCN=c1[n-]cc(-n2cnc(-c3ccc(Br)cc3)c2)c2[nH+]c(C)n(-c3ccccc3OC)c12 (protonated)
CNCC/N=c1\[n-]cc(-n2cnc(-c3ccc(Br)cc3)c2)c2[nH+]c(C)n(-c3ccccc3OC)c12 (cis-trans isomerization)
CNCC/N=c1\[n-]cc(-n2cnc(-c3ccc(Br)cc3)c2)c2[nH+]c(C)n(-c3ccccc3OC)c12 (3D coordinates assigned)
CNCC/N=c1\[n-]cc(-n2cnc(-c3ccc(Br)cc3)c2)c2[nH+]c(C)n(-c3ccccc3OC)c12 (optimized conformer: 141.12729435033444 kcal/mol)

>  <smiles>  (27) 
CNCCN=c1[nH]cc(-n2cnc(-c3ccc(Br)cc3)c2)c2nc(C)n(-c3ccccc3OC)c12

>  <score_type>  (27) 
oracle

>  <origin>  (27) 
adg

>  <m_score__min__energy>  (27) 
-8.0199999999999996

>  <m_primary>  (27) 
energy

$$$$
27:0
     RDKit          3D

 65 69  0  0  0  0  0  0  0  0999 V2000
   56.8400   34.4300   45.0430 O   0  0  0  0  0  0  0  0  0  0  0  0
   57.7980   33.6620   44.7560 C   0  0  0  0  0  0  0  0  0  0  0  0
   57.5240   32.3470   44.1010 C   0  0  0  0  0  0  0  0  0  0  0  0
   58.0360   31.2530   44.9390 N   0  0  0  0  0  0  0  0  0  0  0  0
   59.1460   31.4620   45.6750 N   0  0  0  0  0  0  0  0  0  0  0  0
   59.6700   30.5040   46.4950 C   0  0  0  0  0  0  0  0  0  0  0  0
   59.0180   29.2790   46.5730 C   0  0  0  0  0  0  0  0  0  0  0  0
   57.8790   29.0620   45.8400 C   0  0  0  0  0  0  0  0  0  0  0  0
   57.3640   30.0530   45.0090 C   0  0  0  0  0  0  0  0  0  0  0  0
   56.3110   29.8520   44.3460 O   0  0  0  0  0  0  0  0  0  0  0  0
   57.4730   27.7740   46.1230 C   0  0  0  0  0  0  0  0  0  0  0  0
   56.3960   27.0150   45.6630 C   0  0  0  0  0  0  0  0  0  0  0  0
   56.2660   25.7010   46.1450 C   0  0  0  0  0  0  0  0  0  0  0  0
   57.2030   25.1790   47.0640 C   0  0  0  0  0  0  0  0  0  0  0  0
   58.2810   25.9630   47.5100 C   0  0  0  0  0  0  0  0  0  0  0  0
   58.3950   27.2690   47.0200 C   0  0  0  0  0  0  0  0  0  0  0  0
   59.3490   28.1870   47.3110 N   0  0  0  0  0  0  0  0  0  0  0  0
   60.5280   28.0020   48.1650 C   0  0  0  0  0  0  0  0  0  0  0  0
   60.3750   28.7850   49.4440 C   0  0  0  0  0  0  0  0  0  0  0  0
   59.2160   29.5400   49.6860 C   0  0  0  0  0  0  0  0  0  0  0  0
   59.0730   30.2490   50.8830 C   0  0  0  0  0  0  0  0  0  0  0  0
   60.0850   30.2090   51.8460 C   0  0  0  0  0  0  0  0  0  0  0  0
   61.2430   29.4620   51.6120 C   0  0  0  0  0  0  0  0  0  0  0  0
   61.3890   28.7530   50.4160 C   0  0  0  0  0  0  0  0  0  0  0  0
   59.1500   34.0610   45.0050 N   0  0  0  0  0  0  0  0  0  0  0  0
   59.5190   35.3380   45.6080 C   0  0  0  0  0  0  0  0  0  0  0  0
   59.6530   35.2150   47.1300 C   0  0  0  0  0  0  0  0  0  0  0  0
   59.5940   33.7420   47.5930 C   0  0  0  0  0  0  0  0  0  0  0  0
   60.8770   33.0230   47.4480 N   0  0  0  0  0  0  0  0  0  0  0  0
   61.2760   32.2410   48.6480 C   0  0  0  0  0  0  0  0  0  0  0  0
   62.6130   32.7010   49.2470 C   0  0  0  0  0  0  0  0  0  0  0  0
   63.7380   32.6680   48.1970 C   0  0  0  0  0  0  0  0  0  0  0  0
   63.2580   33.0560   46.7850 C   0  0  0  0  0  0  0  0  0  0  0  0
   61.9450   33.8400   46.8310 C   0  0  0  0  0  0  0  0  0  0  0  0
   56.4390   32.2259   43.9663 H   0  0  0  0  0  0  0  0  0  0  0  0
   58.0262   32.3186   43.1227 H   0  0  0  0  0  0  0  0  0  0  0  0
   59.6370   32.3840   45.6300 H   0  0  0  0  0  0  0  0  0  0  0  0
   60.5829   30.6965   47.0777 H   0  0  0  0  0  0  0  0  0  0  0  0
   55.6725   27.4314   44.9467 H   0  0  0  0  0  0  0  0  0  0  0  0
   55.4285   25.0747   45.8040 H   0  0  0  0  0  0  0  0  0  0  0  0
   57.0880   24.1495   47.4340 H   0  0  0  0  0  0  0  0  0  0  0  0
   59.0147   25.5612   48.2243 H   0  0  0  0  0  0  0  0  0  0  0  0
   60.6389   26.9341   48.4043 H   0  0  0  0  0  0  0  0  0  0  0  0
   61.4184   28.3623   47.6290 H   0  0  0  0  0  0  0  0  0  0  0  0
   58.4170   29.5739   48.9307 H   0  0  0  0  0  0  0  0  0  0  0  0
   58.1629   30.8389   51.0667 H   0  0  0  0  0  0  0  0  0  0  0  0
   59.9702   30.7653   52.7880 H   0  0  0  0  0  0  0  0  0  0  0  0
   62.0401   29.4320   52.3695 H   0  0  0  0  0  0  0  0  0  0  0  0
   62.3023   28.1672   50.2350 H   0  0  0  0  0  0  0  0  0  0  0  0
   60.4810   35.6680   45.1888 H   0  0  0  0  0  0  0  0  0  0  0  0
   58.7276   36.0691   45.3863 H   0  0  0  0  0  0  0  0  0  0  0  0
   60.6162   35.6472   47.4389 H   0  0  0  0  0  0  0  0  0  0  0  0
   58.8123   35.7531   47.5923 H   0  0  0  0  0  0  0  0  0  0  0  0
   59.3027   33.7225   48.6535 H   0  0  0  0  0  0  0  0  0  0  0  0
   58.8638   33.2309   46.9483 H   0  0  0  0  0  0  0  0  0  0  0  0
   60.4933   32.3495   49.4132 H   0  0  0  0  0  0  0  0  0  0  0  0
   61.3997   31.1945   48.3324 H   0  0  0  0  0  0  0  0  0  0  0  0
   62.5027   33.7294   49.6216 H   0  0  0  0  0  0  0  0  0  0  0  0
   62.8811   32.0153   50.0643 H   0  0  0  0  0  0  0  0  0  0  0  0
   64.5252   33.3719   48.5050 H   0  0  0  0  0  0  0  0  0  0  0  0
   64.1082   31.6335   48.1450 H   0  0  0  0  0  0  0  0  0  0  0  0
   64.0280   33.6775   46.3046 H   0  0  0  0  0  0  0  0  0  0  0  0
   63.0863   32.1314   46.2143 H   0  0  0  0  0  0  0  0  0  0  0  0
   62.0899   34.7548   47.4244 H   0  0  0  0  0  0  0  0  0  0  0  0
   61.6479   34.0983   45.8039 H   0  0  0  0  0  0  0  0  0  0  0  0
  1  2  2  0
  2  3  1  0
  3  4  1  0
  4  5  1  0
  5  6  2  0
  6  7  1  0
  7  8  2  0
  8  9  1  0
  9 10  2  0
  8 11  1  0
 11 12  2  0
 12 13  1  0
 13 14  2  0
 14 15  1  0
 15 16  2  0
 16 17  1  0
 17 18  1  0
 18 19  1  0
 19 20  2  0
 20 21  1  0
 21 22  2  0
 22 23  1  0
 23 24  2  0
  2 25  1  0
 25 26  1  0
 26 27  1  0
 27 28  1  0
 28 29  1  0
 29 30  1  0
 30 31  1  0
 31 32  1  0
 32 33  1  0
 33 34  1  0
  9  4  1  0
 16 11  1  0
 24 19  1  0
 34 29  1  0
 17  7  1  0
  3 35  1  0
  3 36  1  0
  5 37  1  0
  6 38  1  0
 12 39  1  0
 13 40  1  0
 14 41  1  0
 15 42  1  0
 18 43  1  0
 18 44  1  0
 20 45  1  0
 21 46  1  0
 22 47  1  0
 23 48  1  0
 24 49  1  0
 26 50  1  0
 26 51  1  0
 27 52  1  0
 27 53  1  0
 28 54  1  0
 28 55  1  0
 30 56  1  0
 30 57  1  0
 31 58  1  0
 31 59  1  0
 32 60  1  0
 32 61  1  0
 33 62  1  0
 33 63  1  0
 34 64  1  0
 34 65  1  0
M  CHG  2   5   1  25  -1
M  END
>  <UniqueID>  (28) 
23

>  <SMILES>  (28) 
O=C(Cn1[nH+]cc2c(c1=O)c1ccccc1n2Cc1ccccc1)[N-]CCCN1CCCCC1

>  <Energy>  (28) 
116.82186977386475

>  <Genealogy>  (28) 
O=C(Cn1[nH+]cc2c(c1=O)c1ccccc1n2Cc1ccccc1)[N-]CCCN1CCCCC1 (protonated)
O=C(Cn1[nH+]cc2c(c1=O)c1ccccc1n2Cc1ccccc1)[N-]CCCN1CCCCC1 (3D coordinates assigned)
O=C(Cn1[nH+]cc2c(c1=O)c1ccccc1n2Cc1ccccc1)[N-]CCCN1CCCCC1 (nonaromatic ring conformer: 116.82186977386475 kcal/mol)

>  <smiles>  (28) 
O=C(Cn1ncc2c(c1=O)c1ccccc1n2Cc1ccccc1)NCCCN1CCCCC1

>  <score_type>  (28) 
oracle

>  <origin>  (28) 
adg

>  <m_score__min__energy>  (28) 
-10.289999999999999

>  <m_primary>  (28) 
energy

$$$$
28:0
     RDKit          3D

 44 47  0  0  0  0  0  0  0  0999 V2000
   59.0852   34.9905   47.3115 H   0  0  0  0  0  0  0  0  0  0  0  0
   58.7950   34.2850   46.5190 C   0  0  0  0  0  0  0  0  0  0  0  0
   58.0530   32.7950   46.7510 S   0  0  0  0  0  0  0  0  0  0  0  0
   57.9570   32.3800   45.1230 C   0  0  0  0  0  0  0  0  0  0  0  0
   57.3810   31.1370   44.5950 C   0  0  0  0  0  0  0  0  0  0  0  0
   56.1300   31.0020   44.5500 O   0  0  0  0  0  0  0  0  0  0  0  0
   58.2640   30.0970   44.1450 N   0  0  0  0  0  0  0  0  0  0  0  0
   58.3490   28.8600   44.5540 C   0  0  0  0  0  0  0  0  0  0  0  0
   57.8600   27.7240   43.9220 C   0  0  0  0  0  0  0  0  0  0  0  0
   57.3471   27.6586   42.9511 H   0  0  0  0  0  0  0  0  0  0  0  0
   58.1670   26.6890   44.7970 C   0  0  0  0  0  0  0  0  0  0  0  0
   57.8550   25.2520   44.5990 C   0  0  0  0  0  0  0  0  0  0  0  0
   58.3910   24.2760   45.4620 C   0  0  0  0  0  0  0  0  0  0  0  0
   59.0462   24.5809   46.2913 H   0  0  0  0  0  0  0  0  0  0  0  0
   58.0960   22.9220   45.2720 C   0  0  0  0  0  0  0  0  0  0  0  0
   58.5218   22.1673   45.9496 H   0  0  0  0  0  0  0  0  0  0  0  0
   57.2620   22.5260   44.2240 C   0  0  0  0  0  0  0  0  0  0  0  0
   57.0286   21.4609   44.0790 H   0  0  0  0  0  0  0  0  0  0  0  0
   56.7250   23.4820   43.3610 C   0  0  0  0  0  0  0  0  0  0  0  0
   56.0691   23.1693   42.5351 H   0  0  0  0  0  0  0  0  0  0  0  0
   57.0190   24.8370   43.5440 C   0  0  0  0  0  0  0  0  0  0  0  0
   56.5939   25.5848   42.8584 H   0  0  0  0  0  0  0  0  0  0  0  0
   58.7990   27.1980   45.8760 N   0  0  0  0  0  0  0  0  0  0  0  0
   59.1400   26.6650   46.7070 H   0  0  0  0  0  0  0  0  0  0  0  0
   58.9150   28.5090   45.7300 N   0  0  0  0  0  0  0  0  0  0  0  0
   59.5160   29.3810   46.7090 C   0  0  0  0  0  0  0  0  0  0  0  0
   58.9030   29.5930   47.9570 C   0  0  0  0  0  0  0  0  0  0  0  0
   57.9492   29.0968   48.1896 H   0  0  0  0  0  0  0  0  0  0  0  0
   59.4990   30.4300   48.9020 C   0  0  0  0  0  0  0  0  0  0  0  0
   59.0174   30.5847   49.8788 H   0  0  0  0  0  0  0  0  0  0  0  0
   60.7040   31.0710   48.6110 C   0  0  0  0  0  0  0  0  0  0  0  0
   61.1693   31.7258   49.3625 H   0  0  0  0  0  0  0  0  0  0  0  0
   61.3250   30.8870   47.3700 C   0  0  0  0  0  0  0  0  0  0  0  0
   62.5330   31.5570   47.1250 O   0  0  0  0  0  0  0  0  0  0  0  0
   62.6920   32.9710   47.1660 C   0  0  0  0  0  0  0  0  0  0  0  0
   62.7296   33.3055   48.2132 H   0  0  0  0  0  0  0  0  0  0  0  0
   63.6271   33.2497   46.6582 H   0  0  0  0  0  0  0  0  0  0  0  0
   61.8421   33.4504   46.6582 H   0  0  0  0  0  0  0  0  0  0  0  0
   60.7220   30.0420   46.4180 C   0  0  0  0  0  0  0  0  0  0  0  0
   61.1993   29.8980   45.4375 H   0  0  0  0  0  0  0  0  0  0  0  0
   58.5110   33.4110   44.3720 C   0  0  0  0  0  0  0  0  0  0  0  0
   58.5750   33.3938   43.2740 H   0  0  0  0  0  0  0  0  0  0  0  0
   58.9790   34.4730   45.1550 C   0  0  0  0  0  0  0  0  0  0  0  0
   59.4486   35.3723   44.7298 H   0  0  0  0  0  0  0  0  0  0  0  0
  1  2  1  0
  2  3  1  0
  3  4  1  0
  4  5  1  0
  5  6  2  0
  5  7  1  0
  7  8  2  0
  8  9  1  0
  9 10  1  0
  9 11  2  0
 11 12  1  0
 12 13  2  0
 13 14  1  0
 13 15  1  0
 15 16  1  0
 15 17  2  0
 17 18  1  0
 17 19  1  0
 19 20  1  0
 19 21  2  0
 21 22  1  0
 11 23  1  0
 23 24  1  0
 23 25  1  0
 25 26  1  0
 26 27  2  0
 27 28  1  0
 27 29  1  0
 29 30  1  0
 29 31  2  0
 31 32  1  0
 31 33  1  0
 33 34  1  0
 34 35  1  0
 35 36  1  0
 35 37  1  0
 35 38  1  0
 33 39  2  0
 39 40  1  0
  4 41  2  0
 41 42  1  0
 41 43  1  0
 43 44  1  0
 43  2  2  0
 25  8  1  0
 39 26  1  0
 21 12  1  0
M  END
>  <UniqueID>  (29) 
24

>  <SMILES>  (29) 
COc1cccc(-n2[nH]c(-c3ccccc3)c/c2=N\C(=O)c2cccs2)c1

>  <Energy>  (29) 
115.9061868978761

>  <Genealogy>  (29) 
COc1cccc(-n2[nH]c(-c3ccccc3)c/c2=N\C(=O)c2cccs2)c1 (cis-trans isomerization)
COc1cccc(-n2[nH]c(-c3ccccc3)c/c2=N\C(=O)c2cccs2)c1 (3D coordinates assigned)
COc1cccc(-n2[nH]c(-c3ccccc3)c/c2=N\C(=O)c2cccs2)c1 (optimized conformer: 115.9061868978761 kcal/mol)

>  <smiles>  (29) 
COc1cccc(-n2[nH]c(-c3ccccc3)cc2=NC(=O)c2cccs2)c1

>  <score_type>  (29) 
oracle

>  <origin>  (29) 
adg

>  <m_score__min__energy>  (29) 
-8.4399999999999995

>  <m_primary>  (29) 
energy

$$$$
29:0
     RDKit          3D

 33 35  0  0  0  0  0  0  0  0999 V2000
   55.3415   28.9018   44.2033 H   0  0  0  0  0  0  0  0  0  0  0  0
   55.9920   29.7660   44.0030 C   0  0  0  0  0  0  0  0  0  0  0  0
   56.2690   30.7210   44.8630 O   0  0  0  0  0  0  0  0  0  0  0  0
   57.0680   31.5850   44.2820 C   0  0  0  0  0  0  0  0  0  0  0  0
   57.6230   32.7950   44.9580 C   0  0  0  0  0  0  0  0  0  0  0  0
   56.8086   33.5000   45.1810 H   0  0  0  0  0  0  0  0  0  0  0  0
   58.3543   33.2878   44.3005 H   0  0  0  0  0  0  0  0  0  0  0  0
   58.2690   32.3860   46.1970 N   0  0  0  0  0  0  0  0  0  0  0  0
   59.4480   32.6800   46.6750 C   0  0  0  0  0  0  0  0  0  0  0  0
   60.1290   34.1930   46.4270 S   0  0  0  0  0  0  0  0  0  0  0  0
   61.5460   33.8320   47.2440 C   0  0  0  0  0  0  0  0  0  0  0  0
   62.3986   34.5110   47.3926 H   0  0  0  0  0  0  0  0  0  0  0  0
   61.4540   32.5250   47.7000 C   0  0  0  0  0  0  0  0  0  0  0  0
   62.2634   32.0453   48.2699 H   0  0  0  0  0  0  0  0  0  0  0  0
   60.2910   31.8710   47.3950 N   0  0  0  0  0  0  0  0  0  0  0  0
   60.0650   30.5000   47.8800 C   0  0  0  0  0  0  0  0  0  0  0  0
   59.2554   30.5177   48.6245 H   0  0  0  0  0  0  0  0  0  0  0  0
   61.0076   30.1396   48.3177 H   0  0  0  0  0  0  0  0  0  0  0  0
   59.6810   29.5510   46.7680 C   0  0  0  0  0  0  0  0  0  0  0  0
   58.4990   28.7980   46.8830 C   0  0  0  0  0  0  0  0  0  0  0  0
   57.8828   28.8845   47.7901 H   0  0  0  0  0  0  0  0  0  0  0  0
   58.1010   27.9400   45.8530 C   0  0  0  0  0  0  0  0  0  0  0  0
   57.1832   27.3431   45.9591 H   0  0  0  0  0  0  0  0  0  0  0  0
   58.8680   27.8400   44.6890 C   0  0  0  0  0  0  0  0  0  0  0  0
   58.4810   27.0100   43.6900 F   0  0  0  0  0  0  0  0  0  0  0  0
   60.0290   28.6070   44.5510 C   0  0  0  0  0  0  0  0  0  0  0  0
   60.6281   28.5350   43.6313 H   0  0  0  0  0  0  0  0  0  0  0  0
   60.4300   29.4650   45.5790 C   0  0  0  0  0  0  0  0  0  0  0  0
   61.3362   30.0767   45.4583 H   0  0  0  0  0  0  0  0  0  0  0  0
   57.3420   31.1860   42.9900 C   0  0  0  0  0  0  0  0  0  0  0  0
   57.9843   31.6970   42.2576 H   0  0  0  0  0  0  0  0  0  0  0  0
   56.6420   30.0130   42.8100 C   0  0  0  0  0  0  0  0  0  0  0  0
   56.6078   29.3972   41.8992 H   0  0  0  0  0  0  0  0  0  0  0  0
  1  2  1  0
  2  3  1  0
  3  4  1  0
  4  5  1  0
  5  6  1  0
  5  7  1  0
  5  8  1  0
  8  9  2  0
  9 10  1  0
 10 11  1  0
 11 12  1  0
 11 13  2  0
 13 14  1  0
 13 15  1  0
 15 16  1  0
 16 17  1  0
 16 18  1  0
 16 19  1  0
 19 20  2  0
 20 21  1  0
 20 22  1  0
 22 23  1  0
 22 24  2  0
 24 25  1  0
 24 26  1  0
 26 27  1  0
 26 28  2  0
 28 29  1  0
  4 30  2  0
 30 31  1  0
 30 32  1  0
 32 33  1  0
 32  2  2  0
 15  9  1  0
 28 19  1  0
M  END
>  <UniqueID>  (30) 
25

>  <SMILES>  (30) 
Fc1ccc(Cn2ccs/c2=N/Cc2ccco2)cc1

>  <Energy>  (30) 
97.60681359305991

>  <Genealogy>  (30) 
Fc1ccc(Cn2ccs/c2=N/Cc2ccco2)cc1 (cis-trans isomerization)
Fc1ccc(Cn2ccs/c2=N/Cc2ccco2)cc1 (3D coordinates assigned)
Fc1ccc(Cn2ccs/c2=N/Cc2ccco2)cc1 (optimized conformer: 97.60681359305991 kcal/mol)

>  <smiles>  (30) 
Fc1ccc(Cn2ccsc2=NCc2ccco2)cc1

>  <score_type>  (30) 
oracle

>  <origin>  (30) 
adg

>  <m_score__min__energy>  (30) 
-6.8600000000000003

>  <m_primary>  (30) 
energy

$$$$
30:0
     RDKit          3D

 35 38  0  0  0  0  0  0  0  0999 V2000
   57.7720   22.5170   47.6200 H   0  0  0  0  0  0  0  0  0  0  0  0
   57.0690   22.8760   46.9850 O   0  0  0  0  0  0  0  0  0  0  0  0
   57.3170   23.9790   46.1700 C   0  0  0  0  0  0  0  0  0  0  0  0
   57.6700   25.2120   46.7370 C   0  0  0  0  0  0  0  0  0  0  0  0
   57.7497   25.3105   47.8297 H   0  0  0  0  0  0  0  0  0  0  0  0
   57.9210   26.3170   45.9170 C   0  0  0  0  0  0  0  0  0  0  0  0
   58.1808   27.2860   46.3682 H   0  0  0  0  0  0  0  0  0  0  0  0
   57.8430   26.1950   44.5230 C   0  0  0  0  0  0  0  0  0  0  0  0
   58.0630   27.3840   43.6790 C   0  0  0  0  0  0  0  0  0  0  0  0
   58.3537   27.2177   42.6312 H   0  0  0  0  0  0  0  0  0  0  0  0
   57.9350   28.6540   44.0940 C   0  0  0  0  0  0  0  0  0  0  0  0
   56.5160   29.5870   43.8230 S   0  0  0  0  0  0  0  0  0  0  0  0
   57.1610   30.9100   44.6230 C   0  0  0  0  0  0  0  0  0  0  0  0
   56.6580   32.1390   44.9000 N   0  0  0  0  0  0  0  0  0  0  0  0
   57.6940   32.6790   45.5990 C   0  0  0  0  0  0  0  0  0  0  0  0
   57.7630   33.9490   46.1600 C   0  0  0  0  0  0  0  0  0  0  0  0
   56.9278   34.6582   46.0622 H   0  0  0  0  0  0  0  0  0  0  0  0
   58.9360   34.3000   46.8580 C   0  0  0  0  0  0  0  0  0  0  0  0
   59.0196   35.2984   47.3121 H   0  0  0  0  0  0  0  0  0  0  0  0
   60.0160   33.3770   46.9830 C   0  0  0  0  0  0  0  0  0  0  0  0
   61.1960   33.6960   47.6700 O   0  0  0  0  0  0  0  0  0  0  0  0
   62.5050   33.3890   47.2020 C   0  0  0  0  0  0  0  0  0  0  0  0
   63.1741   33.2321   48.0609 H   0  0  0  0  0  0  0  0  0  0  0  0
   62.4711   32.4744   46.5917 H   0  0  0  0  0  0  0  0  0  0  0  0
   62.8813   34.2233   46.5917 H   0  0  0  0  0  0  0  0  0  0  0  0
   59.9130   32.0970   46.4020 C   0  0  0  0  0  0  0  0  0  0  0  0
   60.7310   31.3662   46.4846 H   0  0  0  0  0  0  0  0  0  0  0  0
   58.7390   31.7910   45.7200 C   0  0  0  0  0  0  0  0  0  0  0  0
   58.3780   30.6750   45.0890 N   0  0  0  0  0  0  0  0  0  0  0  0
   58.8530   29.4360   44.8340 C   0  0  0  0  0  0  0  0  0  0  0  0
   59.9700   29.0380   45.2600 O   0  0  0  0  0  0  0  0  0  0  0  0
   57.4580   24.9670   43.9590 C   0  0  0  0  0  0  0  0  0  0  0  0
   57.3525   24.8752   42.8679 H   0  0  0  0  0  0  0  0  0  0  0  0
   57.2080   23.8600   44.7780 C   0  0  0  0  0  0  0  0  0  0  0  0
   56.7080   22.1970   43.9760 Br  0  0  0  0  0  0  0  0  0  0  0  0
  1  2  1  0
  2  3  1  0
  3  4  2  0
  4  5  1  0
  4  6  1  0
  6  7  1  0
  6  8  2  0
  8  9  1  0
  9 10  1  0
  9 11  2  0
 11 12  1  0
 12 13  1  0
 13 14  2  0
 14 15  1  0
 15 16  2  0
 16 17  1  0
 16 18  1  0
 18 19  1  0
 18 20  2  0
 20 21  1  0
 21 22  1  0
 22 23  1  0
 22 24  1  0
 22 25  1  0
 20 26  1  0
 26 27  1  0
 26 28  2  0
 28 29  1  0
 29 30  1  0
 30 31  2  0
  8 32  1  0
 32 33  1  0
 32 34  2  0
 34 35  1  0
 34  3  1  0
 30 11  1  0
 29 13  1  0
 28 15  1  0
M  END
>  <UniqueID>  (31) 
26

>  <SMILES>  (31) 
COc1ccc2nc3s/c(=C/c4ccc(O)c(Br)c4)c(=O)n3c2c1

>  <Energy>  (31) 
135.35142699643487

>  <Genealogy>  (31) 
COc1ccc2nc3s/c(=C/c4ccc(O)c(Br)c4)c(=O)n3c2c1 (cis-trans isomerization)
COc1ccc2nc3s/c(=C/c4ccc(O)c(Br)c4)c(=O)n3c2c1 (3D coordinates assigned)
COc1ccc2nc3s/c(=C/c4ccc(O)c(Br)c4)c(=O)n3c2c1 (optimized conformer: 135.35142699643487 kcal/mol)

>  <smiles>  (31) 
COc1ccc2nc3sc(=Cc4ccc(O)c(Br)c4)c(=O)n3c2c1

>  <score_type>  (31) 
oracle

>  <origin>  (31) 
adg

>  <m_score__min__energy>  (31) 
-8.2300000000000004

>  <m_primary>  (31) 
energy

$$$$
31:0
     RDKit          3D

 44 46  0  0  0  0  0  0  0  0999 V2000
   55.1750   29.4280   44.8540 O   0  0  0  0  0  0  0  0  0  0  0  0
   56.2690   29.8540   44.3980 C   0  0  0  0  0  0  0  0  0  0  0  0
   57.1840   28.9040   43.6750 C   0  0  0  0  0  0  0  0  0  0  0  0
   58.1700   28.2900   44.6330 C   0  0  0  0  0  0  0  0  0  0  0  0
   57.7170   27.4660   45.6780 C   0  0  0  0  0  0  0  0  0  0  0  0
   58.6290   26.9170   46.5860 C   0  0  0  0  0  0  0  0  0  0  0  0
   59.9930   27.1930   46.4630 C   0  0  0  0  0  0  0  0  0  0  0  0
   60.4490   28.0210   45.4340 C   0  0  0  0  0  0  0  0  0  0  0  0
   59.5420   28.5730   44.5230 C   0  0  0  0  0  0  0  0  0  0  0  0
   56.5780   31.2480   44.5350 N   0  0  0  0  0  0  0  0  0  0  0  0
   57.3950   31.8380   45.5540 C   0  0  0  0  0  0  0  0  0  0  0  0
   57.4150   33.2260   45.7700 C   0  0  0  0  0  0  0  0  0  0  0  0
   58.2410   33.7750   46.7550 C   0  0  0  0  0  0  0  0  0  0  0  0
   59.0650   32.9450   47.5280 C   0  0  0  0  0  0  0  0  0  0  0  0
   60.1080   33.6380   48.7750 S   0  0  0  0  0  0  0  0  0  0  0  0
   59.5560   34.9730   49.1900 O   0  0  0  0  0  0  0  0  0  0  0  0
   60.0980   32.7360   49.9780 O   0  0  0  0  0  0  0  0  0  0  0  0
   61.7560   33.8440   48.2300 N   0  0  0  0  0  0  0  0  0  0  0  0
   61.8570   33.9250   46.7720 C   0  0  0  0  0  0  0  0  0  0  0  0
   63.2640   33.4690   46.4100 C   0  0  0  0  0  0  0  0  0  0  0  0
   63.7620   32.6920   47.6210 C   0  0  0  0  0  0  0  0  0  0  0  0
   62.6210   32.7330   48.6280 C   0  0  0  0  0  0  0  0  0  0  0  0
   59.0750   31.5640   47.2850 C   0  0  0  0  0  0  0  0  0  0  0  0
   58.2480   31.0170   46.3000 C   0  0  0  0  0  0  0  0  0  0  0  0
   56.5848   28.1064   43.2115 H   0  0  0  0  0  0  0  0  0  0  0  0
   57.7366   29.4601   42.9034 H   0  0  0  0  0  0  0  0  0  0  0  0
   56.6430   27.2523   45.7821 H   0  0  0  0  0  0  0  0  0  0  0  0
   58.2714   26.2669   47.3981 H   0  0  0  0  0  0  0  0  0  0  0  0
   60.7084   26.7582   47.1766 H   0  0  0  0  0  0  0  0  0  0  0  0
   61.5230   28.2392   45.3400 H   0  0  0  0  0  0  0  0  0  0  0  0
   59.9038   29.2302   43.7185 H   0  0  0  0  0  0  0  0  0  0  0  0
   56.7776   33.8839   45.1611 H   0  0  0  0  0  0  0  0  0  0  0  0
   58.2445   34.8619   46.9242 H   0  0  0  0  0  0  0  0  0  0  0  0
   62.1280   34.7310   48.6470 H   0  0  0  0  0  0  0  0  0  0  0  0
   61.1115   33.2665   46.3023 H   0  0  0  0  0  0  0  0  0  0  0  0
   61.6667   34.9484   46.4164 H   0  0  0  0  0  0  0  0  0  0  0  0
   63.2419   32.8223   45.5204 H   0  0  0  0  0  0  0  0  0  0  0  0
   63.9204   34.3188   46.1713 H   0  0  0  0  0  0  0  0  0  0  0  0
   63.9922   31.6529   47.3430 H   0  0  0  0  0  0  0  0  0  0  0  0
   64.6853   33.1257   48.0326 H   0  0  0  0  0  0  0  0  0  0  0  0
   62.0597   31.7872   48.6052 H   0  0  0  0  0  0  0  0  0  0  0  0
   62.9987   32.8697   49.6520 H   0  0  0  0  0  0  0  0  0  0  0  0
   59.7360   30.9090   47.8716 H   0  0  0  0  0  0  0  0  0  0  0  0
   58.2678   29.9337   46.1099 H   0  0  0  0  0  0  0  0  0  0  0  0
  1  2  2  0
  2  3  1  0
  3  4  1  0
  4  5  2  0
  5  6  1  0
  6  7  2  0
  7  8  1  0
  8  9  2  0
  2 10  1  0
 10 11  1  0
 11 12  2  0
 12 13  1  0
 13 14  2  0
 14 15  1  0
 15 16  2  0
 15 17  2  0
 15 18  1  0
 18 19  1  0
 19 20  1  0
 20 21  1  0
 21 22  1  0
 14 23  1  0
 23 24  2  0
  9  4  1  0
 24 11  1  0
 22 18  1  0
  3 25  1  0
  3 26  1  0
  5 27  1  0
  6 28  1  0
  7 29  1  0
  8 30  1  0
  9 31  1  0
 12 32  1  0
 13 33  1  0
 18 34  1  0
 19 35  1  0
 19 36  1  0
 20 37  1  0
 20 38  1  0
 21 39  1  0
 21 40  1  0
 22 41  1  0
 22 42  1  0
 23 43  1  0
 24 44  1  0
M  CHG  2  10  -1  18   1
M  END
>  <UniqueID>  (32) 
27

>  <SMILES>  (32) 
O=C(Cc1ccccc1)[N-]c1ccc(S(=O)(=O)[NH+]2CCCC2)cc1

>  <Energy>  (32) 
50.06200952889024

>  <Genealogy>  (32) 
O=C(Cc1ccccc1)[N-]c1ccc(S(=O)(=O)[NH+]2CCCC2)cc1 (protonated)
O=C(Cc1ccccc1)[N-]c1ccc(S(=O)(=O)[NH+]2CCCC2)cc1 (3D coordinates assigned)
O=C(Cc1ccccc1)[N-]c1ccc(S(=O)(=O)[NH+]2CCCC2)cc1 (nonaromatic ring conformer: 50.06200952889024 kcal/mol)

>  <smiles>  (32) 
O=C(Cc1ccccc1)Nc1ccc(S(=O)(=O)N2CCCC2)cc1

>  <score_type>  (32) 
oracle

>  <origin>  (32) 
adg

>  <m_score__min__energy>  (32) 
-8.7300000000000004

>  <m_primary>  (32) 
energy

$$$$
32:0
     RDKit          3D

 37 39  0  0  0  0  0  0  0  0999 V2000
   64.5110   34.6150   51.6540 C   0  0  0  0  0  0  0  0  0  0  0  0
   63.3650   33.7080   51.2250 C   0  0  0  0  0  0  0  0  0  0  0  0
   63.3390   33.5770   49.7670 N   0  0  0  0  0  0  0  0  0  0  0  0
   64.3250   33.1120   48.9590 C   0  0  0  0  0  0  0  0  0  0  0  0
   65.4640   32.7680   49.3760 O   0  0  0  0  0  0  0  0  0  0  0  0
   63.9620   33.0380   47.6560 N   0  0  0  0  0  0  0  0  0  0  0  0
   62.6870   33.4660   47.6560 C   0  0  0  0  0  0  0  0  0  0  0  0
   61.8160   33.5620   46.5740 C   0  0  0  0  0  0  0  0  0  0  0  0
   60.5010   34.0250   46.8220 C   0  0  0  0  0  0  0  0  0  0  0  0
   59.5370   34.1230   45.7600 N   0  0  0  0  0  0  0  0  0  0  0  0
   58.7770   33.0150   45.2460 C   0  0  0  0  0  0  0  0  0  0  0  0
   58.5750   31.8870   46.0520 C   0  0  0  0  0  0  0  0  0  0  0  0
   57.8180   30.8080   45.5850 C   0  0  0  0  0  0  0  0  0  0  0  0
   57.2220   30.8540   44.3130 C   0  0  0  0  0  0  0  0  0  0  0  0
   56.4480   29.6700   43.7880 C   0  0  0  0  0  0  0  0  0  0  0  0
   55.4010   29.3550   44.6360 F   0  0  0  0  0  0  0  0  0  0  0  0
   57.2940   28.5810   43.6930 F   0  0  0  0  0  0  0  0  0  0  0  0
   55.9230   29.9460   42.5370 F   0  0  0  0  0  0  0  0  0  0  0  0
   57.4280   31.9850   43.5040 C   0  0  0  0  0  0  0  0  0  0  0  0
   58.1840   33.0640   43.9740 C   0  0  0  0  0  0  0  0  0  0  0  0
   60.1040   34.3310   48.1490 C   0  0  0  0  0  0  0  0  0  0  0  0
   61.0100   34.2170   49.2190 C   0  0  0  0  0  0  0  0  0  0  0  0
   62.3040   33.7860   48.9290 C   0  0  0  0  0  0  0  0  0  0  0  0
   64.5578   34.6521   52.7524 H   0  0  0  0  0  0  0  0  0  0  0  0
   65.4588   34.2197   51.2597 H   0  0  0  0  0  0  0  0  0  0  0  0
   64.3440   35.6282   51.2597 H   0  0  0  0  0  0  0  0  0  0  0  0
   63.5005   32.7140   51.6763 H   0  0  0  0  0  0  0  0  0  0  0  0
   62.4149   34.1484   51.5616 H   0  0  0  0  0  0  0  0  0  0  0  0
   64.5320   32.7080   46.8460 H   0  0  0  0  0  0  0  0  0  0  0  0
   62.1390   33.2870   45.5591 H   0  0  0  0  0  0  0  0  0  0  0  0
   59.3760   35.0640   45.3340 H   0  0  0  0  0  0  0  0  0  0  0  0
   59.0151   31.8499   47.0595 H   0  0  0  0  0  0  0  0  0  0  0  0
   57.6881   29.9173   46.2173 H   0  0  0  0  0  0  0  0  0  0  0  0
   56.9919   32.0218   42.4948 H   0  0  0  0  0  0  0  0  0  0  0  0
   58.3147   33.9559   43.3436 H   0  0  0  0  0  0  0  0  0  0  0  0
   59.0733   34.6621   48.3440 H   0  0  0  0  0  0  0  0  0  0  0  0
   60.7082   34.4594   50.2486 H   0  0  0  0  0  0  0  0  0  0  0  0
  1  2  1  0
  2  3  1  0
  3  4  1  0
  4  5  2  0
  4  6  1  0
  6  7  1  0
  7  8  2  0
  8  9  1  0
  9 10  1  0
 10 11  1  0
 11 12  2  0
 12 13  1  0
 13 14  2  0
 14 15  1  0
 15 16  1  0
 15 17  1  0
 15 18  1  0
 14 19  1  0
 19 20  2  0
  9 21  2  0
 21 22  1  0
 22 23  2  0
 23  3  1  0
 23  7  1  0
 20 11  1  0
  1 24  1  0
  1 25  1  0
  1 26  1  0
  2 27  1  0
  2 28  1  0
  6 29  1  0
  8 30  1  0
 10 31  1  0
 12 32  1  0
 13 33  1  0
 19 34  1  0
 20 35  1  0
 21 36  1  0
 22 37  1  0
M  END
>  <UniqueID>  (33) 
28

>  <SMILES>  (33) 
CCn1c(=O)[nH]c2cc(Nc3ccc(C(F)(F)F)cc3)ccc21

>  <Energy>  (33) 
81.73973928281643

>  <Genealogy>  (33) 
CCn1c(=O)[nH]c2cc(Nc3ccc(C(F)(F)F)cc3)ccc21 (3D coordinates assigned)
CCn1c(=O)[nH]c2cc(Nc3ccc(C(F)(F)F)cc3)ccc21 (optimized conformer: 81.73973928281643 kcal/mol)

>  <smiles>  (33) 
CCn1c(=O)[nH]c2cc(Nc3ccc(C(F)(F)F)cc3)ccc21

>  <score_type>  (33) 
oracle

>  <origin>  (33) 
adg

>  <m_score__min__energy>  (33) 
-7.0199999999999996

>  <m_primary>  (33) 
energy

$$$$
33:0
     RDKit          3D

 36 38  0  0  0  0  0  0  0  0999 V2000
   64.1120   32.6800   48.3990 C   0  0  0  0  0  0  0  0  0  0  0  0
   63.1410   32.3180   47.4450 O   0  0  0  0  0  0  0  0  0  0  0  0
   61.8260   32.7470   47.5550 C   0  0  0  0  0  0  0  0  0  0  0  0
   61.5890   34.0940   47.7300 C   0  0  0  0  0  0  0  0  0  0  0  0
   60.3160   34.5960   47.8480 C   0  0  0  0  0  0  0  0  0  0  0  0
   59.2750   33.7040   47.7840 C   0  0  0  0  0  0  0  0  0  0  0  0
   59.5160   32.3540   47.6080 C   0  0  0  0  0  0  0  0  0  0  0  0
   60.7770   31.8170   47.4870 C   0  0  0  0  0  0  0  0  0  0  0  0
   61.0720   30.4600   47.3260 N   0  0  0  0  0  0  0  0  0  0  0  0
   60.1850   29.3860   47.2210 C   0  0  0  0  0  0  0  0  0  0  0  0
   60.3380   28.1460   47.7930 C   0  0  0  0  0  0  0  0  0  0  0  0
   59.4090   27.1280   47.6710 C   0  0  0  0  0  0  0  0  0  0  0  0
   58.2570   27.3340   46.9410 C   0  0  0  0  0  0  0  0  0  0  0  0
   57.3540   26.3480   46.8200 N   0  0  0  0  0  0  0  0  0  0  0  0
   56.2410   26.5750   46.1040 C   0  0  0  0  0  0  0  0  0  0  0  0
   55.3870   25.6240   45.9980 N   0  0  0  0  0  0  0  0  0  0  0  0
   56.0370   27.7750   45.5180 N   0  0  0  0  0  0  0  0  0  0  0  0
   56.9470   28.7860   45.6320 C   0  0  0  0  0  0  0  0  0  0  0  0
   56.6500   29.8780   45.0360 N   0  0  0  0  0  0  0  0  0  0  0  0
   58.0950   28.5740   46.3620 C   0  0  0  0  0  0  0  0  0  0  0  0
   59.0150   29.5900   46.4810 C   0  0  0  0  0  0  0  0  0  0  0  0
   63.7066   32.5289   49.4103 H   0  0  0  0  0  0  0  0  0  0  0  0
   65.0076   32.0554   48.2658 H   0  0  0  0  0  0  0  0  0  0  0  0
   64.3801   33.7385   48.2658 H   0  0  0  0  0  0  0  0  0  0  0  0
   62.4431   34.7857   47.7764 H   0  0  0  0  0  0  0  0  0  0  0  0
   60.1376   35.6723   47.9885 H   0  0  0  0  0  0  0  0  0  0  0  0
   58.2402   34.0661   47.8735 H   0  0  0  0  0  0  0  0  0  0  0  0
   58.6535   31.6728   47.5623 H   0  0  0  0  0  0  0  0  0  0  0  0
   62.1100   30.2040   47.2770 H   0  0  0  0  0  0  0  0  0  0  0  0
   61.2482   27.9523   48.3795 H   0  0  0  0  0  0  0  0  0  0  0  0
   59.5887   26.1567   48.1550 H   0  0  0  0  0  0  0  0  0  0  0  0
   57.5050   25.4100   47.2740 H   0  0  0  0  0  0  0  0  0  0  0  0
   54.4160   25.6410   46.3770 H   0  0  0  0  0  0  0  0  0  0  0  0
   55.1460   27.9150   44.9610 H   0  0  0  0  0  0  0  0  0  0  0  0
   57.2260   30.5020   44.4840 H   0  0  0  0  0  0  0  0  0  0  0  0
   58.8314   30.5600   45.9958 H   0  0  0  0  0  0  0  0  0  0  0  0
  1  2  1  0
  2  3  1  0
  3  4  2  0
  4  5  1  0
  5  6  2  0
  6  7  1  0
  7  8  2  0
  8  9  1  0
  9 10  1  0
 10 11  2  0
 11 12  1  0
 12 13  2  0
 13 14  1  0
 14 15  1  0
 15 16  2  3
 15 17  1  0
 17 18  1  0
 18 19  2  3
 18 20  1  0
 20 21  2  0
  8  3  1  0
 21 10  1  0
 20 13  1  0
  1 22  1  0
  1 23  1  0
  1 24  1  0
  4 25  1  0
  5 26  1  0
  6 27  1  0
  7 28  1  0
  9 29  1  0
 11 30  1  0
 12 31  1  0
 14 32  1  0
 16 33  1  0
 17 34  1  0
 19 35  1  0
 21 36  1  0
M  END
>  <smiles>  (34) 
COc1ccccc1Nc1ccc2[nH]c(=N)[nH]c(=N)c2c1

>  <score_type>  (34) 
oracle

>  <origin>  (34) 
adg

>  <m_score__min__energy>  (34) 
-7.0099999999999998

>  <m_primary>  (34) 
energy

$$$$
34:0
     RDKit          3D

 45 48  0  0  0  0  0  0  0  0999 V2000
   58.1790   27.1300   43.1850 C   0  0  0  0  0  0  0  0  0  0  0  0
   57.7690   26.2410   44.2920 C   0  0  0  0  0  0  0  0  0  0  0  0
   57.3120   24.9700   43.9760 C   0  0  0  0  0  0  0  0  0  0  0  0
   56.9150   24.0940   44.9660 C   0  0  0  0  0  0  0  0  0  0  0  0
   56.9820   24.5120   46.2860 C   0  0  0  0  0  0  0  0  0  0  0  0
   57.4470   25.7960   46.5770 C   0  0  0  0  0  0  0  0  0  0  0  0
   57.8450   26.6750   45.5950 C   0  0  0  0  0  0  0  0  0  0  0  0
   58.3200   27.9970   45.9360 C   0  0  0  0  0  0  0  0  0  0  0  0
   58.7140   29.1130   46.2030 C   0  0  0  0  0  0  0  0  0  0  0  0
   59.2030   30.4270   46.5120 C   0  0  0  0  0  0  0  0  0  0  0  0
   60.2760   30.8130   47.2000 N   0  0  0  0  0  0  0  0  0  0  0  0
   60.3700   32.1340   47.2540 N   0  0  0  0  0  0  0  0  0  0  0  0
   61.4100   32.9340   47.9200 C   0  0  0  0  0  0  0  0  0  0  0  0
   62.3140   32.1030   48.7510 C   0  0  0  0  0  0  0  0  0  0  0  0
   63.7640   32.2190   48.4810 C   0  0  0  0  0  0  0  0  0  0  0  0
   64.1600   33.4400   47.8230 N   0  0  0  0  0  0  0  0  0  0  0  0
   63.4690   33.4360   46.5460 C   0  0  0  0  0  0  0  0  0  0  0  0
   62.0290   33.7990   46.8890 C   0  0  0  0  0  0  0  0  0  0  0  0
   59.3020   32.6280   46.5640 C   0  0  0  0  0  0  0  0  0  0  0  0
   58.8830   33.8780   46.2880 N   0  0  0  0  0  0  0  0  0  0  0  0
   57.7510   34.0960   45.5580 C   0  0  0  0  0  0  0  0  0  0  0  0
   57.0050   33.0790   45.0830 N   0  0  0  0  0  0  0  0  0  0  0  0
   57.4050   31.8160   45.3470 C   0  0  0  0  0  0  0  0  0  0  0  0
   56.7110   30.8320   44.9050 N   0  0  0  0  0  0  0  0  0  0  0  0
   58.5420   31.5710   46.0800 C   0  0  0  0  0  0  0  0  0  0  0  0
   58.6061   28.0560   43.5974 H   0  0  0  0  0  0  0  0  0  0  0  0
   58.9336   26.6217   42.5668 H   0  0  0  0  0  0  0  0  0  0  0  0
   57.3025   27.3740   42.5668 H   0  0  0  0  0  0  0  0  0  0  0  0
   57.2654   24.6562   42.9228 H   0  0  0  0  0  0  0  0  0  0  0  0
   56.5534   23.0864   44.7131 H   0  0  0  0  0  0  0  0  0  0  0  0
   56.6714   23.8376   47.0976 H   0  0  0  0  0  0  0  0  0  0  0  0
   57.4971   26.1166   47.6281 H   0  0  0  0  0  0  0  0  0  0  0  0
   60.9940   33.6087   48.6827 H   0  0  0  0  0  0  0  0  0  0  0  0
   62.1482   32.3805   49.8024 H   0  0  0  0  0  0  0  0  0  0  0  0
   62.0576   31.0626   48.5025 H   0  0  0  0  0  0  0  0  0  0  0  0
   64.2970   32.1592   49.4414 H   0  0  0  0  0  0  0  0  0  0  0  0
   64.0178   31.3994   47.7927 H   0  0  0  0  0  0  0  0  0  0  0  0
   65.1930   33.4430   47.7320 H   0  0  0  0  0  0  0  0  0  0  0  0
   63.9061   34.1814   45.8653 H   0  0  0  0  0  0  0  0  0  0  0  0
   63.5446   32.4659   46.0330 H   0  0  0  0  0  0  0  0  0  0  0  0
   62.0133   34.8362   47.2551 H   0  0  0  0  0  0  0  0  0  0  0  0
   61.4422   33.6608   45.9689 H   0  0  0  0  0  0  0  0  0  0  0  0
   57.4387   35.1303   45.3515 H   0  0  0  0  0  0  0  0  0  0  0  0
   56.1590   33.2550   44.5370 H   0  0  0  0  0  0  0  0  0  0  0  0
   56.2710   30.2130   45.6300 H   0  0  0  0  0  0  0  0  0  0  0  0
  1  2  1  0
  2  3  2  0
  3  4  1  0
  4  5  2  0
  5  6  1  0
  6  7  2  0
  7  8  1  0
  8  9  3  0
  9 10  1  0
 10 11  2  0
 11 12  1  0
 12 13  1  0
 13 14  1  0
 14 15  1  0
 15 16  1  0
 16 17  1  0
 17 18  1  0
 12 19  1  0
 19 20  1  0
 20 21  2  0
 21 22  1  0
 22 23  1  0
 23 24  2  3
 23 25  1  0
  7  2  1  0
 25 10  1  0
 18 13  1  0
 25 19  2  0
  1 26  1  0
  1 27  1  0
  1 28  1  0
  3 29  1  0
  4 30  1  0
  5 31  1  0
  6 32  1  0
 13 33  1  0
 14 34  1  0
 14 35  1  0
 15 36  1  0
 15 37  1  0
 16 38  1  0
 17 39  1  0
 17 40  1  0
 18 41  1  0
 18 42  1  0
 21 43  1  0
 22 44  1  0
 24 45  1  0
M  END
>  <smiles>  (35) 
Cc1ccccc1C#Cc1nn(C2CCNCC2)c2nc[nH]c(=N)c12

>  <score_type>  (35) 
oracle

>  <origin>  (35) 
adg

>  <m_score__min__energy>  (35) 
-7.8899999999999997

>  <m_primary>  (35) 
energy

$$$$
35:0
     RDKit          3D

 35 36  0  0  0  0  0  0  0  0999 V2000
   60.2060   28.5160   47.7310 C   0  0  0  0  0  0  0  0  0  0  0  0
   60.4150   27.4540   46.2650 S   0  0  0  0  0  0  0  0  0  0  0  0
   59.1330   26.2300   46.7260 C   0  0  0  0  0  0  0  0  0  0  0  0
   58.1110   26.0200   45.6010 C   0  0  0  0  0  0  0  0  0  0  0  0
   56.9840   27.0590   45.6420 C   0  0  0  0  0  0  0  0  0  0  0  0
   57.5370   28.4120   45.6310 N   0  0  0  0  0  0  0  0  0  0  0  0
   56.7860   29.5470   45.1690 C   0  0  0  0  0  0  0  0  0  0  0  0
   55.5750   29.4020   44.8450 O   0  0  0  0  0  0  0  0  0  0  0  0
   57.4030   30.8920   45.0790 C   0  0  0  0  0  0  0  0  0  0  0  0
   57.4400   31.5940   43.8610 C   0  0  0  0  0  0  0  0  0  0  0  0
   58.0190   32.8640   43.7870 C   0  0  0  0  0  0  0  0  0  0  0  0
   58.5660   33.4580   44.9310 C   0  0  0  0  0  0  0  0  0  0  0  0
   59.1510   34.7330   44.8660 C   0  0  0  0  0  0  0  0  0  0  0  0
   59.6900   35.3160   46.0160 C   0  0  0  0  0  0  0  0  0  0  0  0
   59.6500   34.6340   47.2350 C   0  0  0  0  0  0  0  0  0  0  0  0
   59.0710   33.3660   47.3140 C   0  0  0  0  0  0  0  0  0  0  0  0
   58.5250   32.7680   46.1650 C   0  0  0  0  0  0  0  0  0  0  0  0
   57.9410   31.4940   46.2310 C   0  0  0  0  0  0  0  0  0  0  0  0
   60.3251   27.9111   48.6420 H   0  0  0  0  0  0  0  0  0  0  0  0
   60.9646   29.3124   47.7180 H   0  0  0  0  0  0  0  0  0  0  0  0
   59.2022   28.9656   47.7180 H   0  0  0  0  0  0  0  0  0  0  0  0
   59.6215   25.2694   46.9465 H   0  0  0  0  0  0  0  0  0  0  0  0
   58.5966   26.6136   47.6064 H   0  0  0  0  0  0  0  0  0  0  0  0
   58.6284   26.0964   44.6333 H   0  0  0  0  0  0  0  0  0  0  0  0
   57.6595   25.0260   45.7357 H   0  0  0  0  0  0  0  0  0  0  0  0
   56.3358   26.9253   44.7634 H   0  0  0  0  0  0  0  0  0  0  0  0
   56.4031   26.9187   46.5655 H   0  0  0  0  0  0  0  0  0  0  0  0
   58.5090   28.5390   45.9910 H   0  0  0  0  0  0  0  0  0  0  0  0
   57.0088   31.1389   42.9572 H   0  0  0  0  0  0  0  0  0  0  0  0
   58.0451   33.3990   42.8262 H   0  0  0  0  0  0  0  0  0  0  0  0
   59.1850   35.2735   43.9086 H   0  0  0  0  0  0  0  0  0  0  0  0
   60.1472   36.3150   45.9615 H   0  0  0  0  0  0  0  0  0  0  0  0
   60.0766   35.0982   48.1364 H   0  0  0  0  0  0  0  0  0  0  0  0
   59.0421   32.8343   48.2765 H   0  0  0  0  0  0  0  0  0  0  0  0
   57.9035   30.9609   47.1925 H   0  0  0  0  0  0  0  0  0  0  0  0
  1  2  1  0
  2  3  1  0
  3  4  1  0
  4  5  1  0
  5  6  1  0
  6  7  1  0
  7  8  2  0
  7  9  1  0
  9 10  2  0
 10 11  1  0
 11 12  2  0
 12 13  1  0
 13 14  2  0
 14 15  1  0
 15 16  2  0
 16 17  1  0
 17 18  2  0
 18  9  1  0
 17 12  1  0
  1 19  1  0
  1 20  1  0
  1 21  1  0
  3 22  1  0
  3 23  1  0
  4 24  1  0
  4 25  1  0
  5 26  1  0
  5 27  1  0
  6 28  1  0
 10 29  1  0
 11 30  1  0
 13 31  1  0
 14 32  1  0
 15 33  1  0
 16 34  1  0
 18 35  1  0
M  END
>  <UniqueID>  (36) 
29

>  <SMILES>  (36) 
CSCCCNC(=O)c1ccc2ccccc2c1

>  <Energy>  (36) 
32.11780879050935

>  <Genealogy>  (36) 
CSCCCNC(=O)c1ccc2ccccc2c1 (3D coordinates assigned)
CSCCCNC(=O)c1ccc2ccccc2c1 (optimized conformer: 32.11780879050935 kcal/mol)

>  <smiles>  (36) 
CSCCCNC(=O)c1ccc2ccccc2c1

>  <score_type>  (36) 
oracle

>  <origin>  (36) 
adg

>  <m_score__min__energy>  (36) 
-6.7400000000000002

>  <m_primary>  (36) 
energy

$$$$
36:0
     RDKit          3D

 31 34  0  0  0  0  0  0  0  0999 V2000
   65.2130   32.7570   49.7630 C   0  0  0  0  0  0  0  0  0  0  0  0
   64.3030   33.8410   49.6090 O   0  0  0  0  0  0  0  0  0  0  0  0
   63.1200   33.7800   48.8560 C   0  0  0  0  0  0  0  0  0  0  0  0
   63.1910   33.3010   47.5440 C   0  0  0  0  0  0  0  0  0  0  0  0
   62.0420   33.2190   46.7540 C   0  0  0  0  0  0  0  0  0  0  0  0
   60.7950   33.6110   47.2690 C   0  0  0  0  0  0  0  0  0  0  0  0
   59.5810   33.5340   46.4260 C   0  0  0  0  0  0  0  0  0  0  0  0
   58.6640   34.5860   46.2740 C   0  0  0  0  0  0  0  0  0  0  0  0
   57.3500   34.0640   45.3310 S   0  0  0  0  0  0  0  0  0  0  0  0
   58.0010   32.5540   45.0110 C   0  0  0  0  0  0  0  0  0  0  0  0
   59.1800   32.4060   45.6960 C   0  0  0  0  0  0  0  0  0  0  0  0
   59.4020   31.0210   45.9640 N   0  0  0  0  0  0  0  0  0  0  0  0
   59.9170   30.3320   46.9960 C   0  0  0  0  0  0  0  0  0  0  0  0
   59.2240   29.1310   47.1090 C   0  0  0  0  0  0  0  0  0  0  0  0
   58.2050   29.1440   46.1590 C   0  0  0  0  0  0  0  0  0  0  0  0
   58.3630   30.3340   45.4850 C   0  0  0  0  0  0  0  0  0  0  0  0
   57.3910   31.2340   44.8660 C   0  0  0  0  0  0  0  0  0  0  0  0
   56.2150   30.9660   44.5050 O   0  0  0  0  0  0  0  0  0  0  0  0
   60.7230   34.1010   48.5830 C   0  0  0  0  0  0  0  0  0  0  0  0
   61.8750   34.1820   49.3730 C   0  0  0  0  0  0  0  0  0  0  0  0
   65.3752   32.5637   50.8337 H   0  0  0  0  0  0  0  0  0  0  0  0
   64.7955   31.8574   49.2872 H   0  0  0  0  0  0  0  0  0  0  0  0
   66.1713   33.0123   49.2872 H   0  0  0  0  0  0  0  0  0  0  0  0
   64.1604   32.9860   47.1305 H   0  0  0  0  0  0  0  0  0  0  0  0
   62.1139   32.8451   45.7220 H   0  0  0  0  0  0  0  0  0  0  0  0
   58.7784   35.5937   46.6999 H   0  0  0  0  0  0  0  0  0  0  0  0
   60.7449   30.6611   47.6412 H   0  0  0  0  0  0  0  0  0  0  0  0
   59.4410   28.3192   47.8189 H   0  0  0  0  0  0  0  0  0  0  0  0
   57.4410   28.3719   45.9854 H   0  0  0  0  0  0  0  0  0  0  0  0
   59.7548   34.4232   48.9938 H   0  0  0  0  0  0  0  0  0  0  0  0
   61.8068   34.5618   50.4031 H   0  0  0  0  0  0  0  0  0  0  0  0
  1  2  1  0
  2  3  1  0
  3  4  2  0
  4  5  1  0
  5  6  2  0
  6  7  1  0
  7  8  2  0
  8  9  1  0
  9 10  1  0
 10 11  2  0
 11 12  1  0
 12 13  1  0
 13 14  2  0
 14 15  1  0
 15 16  2  0
 16 17  1  0
 17 18  2  0
  6 19  1  0
 19 20  2  0
 20  3  1  0
 11  7  1  0
 16 12  1  0
 17 10  1  0
  1 21  1  0
  1 22  1  0
  1 23  1  0
  4 24  1  0
  5 25  1  0
  8 26  1  0
 13 27  1  0
 14 28  1  0
 15 29  1  0
 19 30  1  0
 20 31  1  0
M  END
>  <UniqueID>  (37) 
30

>  <SMILES>  (37) 
COc1ccc(-c2csc3c2-n2cccc2C3=O)cc1

>  <Energy>  (37) 
157.9316877078837

>  <Genealogy>  (37) 
COc1ccc(-c2csc3c2-n2cccc2C3=O)cc1 (3D coordinates assigned)
COc1ccc(-c2csc3c2-n2cccc2C3=O)cc1 (nonaromatic ring conformer: 157.9316877078837 kcal/mol)

>  <smiles>  (37) 
COc1ccc(-c2csc3c2-n2cccc2C3=O)cc1

>  <score_type>  (37) 
oracle

>  <origin>  (37) 
adg

>  <m_score__min__energy>  (37) 
-7.2699999999999996

>  <m_primary>  (37) 
energy

$$$$
37:0
     RDKit          3D

 26 28  0  0  0  0  0  0  0  0999 V2000
   58.8550   34.0930   45.7000 Br  0  0  0  0  0  0  0  0  0  0  0  0
   58.3230   32.3740   45.0610 C   0  0  0  0  0  0  0  0  0  0  0  0
   57.4210   32.2730   43.9780 C   0  0  0  0  0  0  0  0  0  0  0  0
   57.0210   31.0120   43.4980 C   0  0  0  0  0  0  0  0  0  0  0  0
   57.5440   29.8820   44.1240 C   0  0  0  0  0  0  0  0  0  0  0  0
   57.2950   28.5960   43.8260 N   0  0  0  0  0  0  0  0  0  0  0  0
   58.0260   27.8560   44.7020 C   0  0  0  0  0  0  0  0  0  0  0  0
   58.0490   26.3650   44.7290 C   0  0  0  0  0  0  0  0  0  0  0  0
   58.7490   25.6750   45.7400 C   0  0  0  0  0  0  0  0  0  0  0  0
   58.7600   24.2810   45.7510 C   0  0  0  0  0  0  0  0  0  0  0  0
   58.0810   23.5730   44.7640 C   0  0  0  0  0  0  0  0  0  0  0  0
   57.3940   24.2750   43.7750 C   0  0  0  0  0  0  0  0  0  0  0  0
   57.3900   25.6360   43.7730 N   0  0  0  0  0  0  0  0  0  0  0  0
   58.7410   28.7000   45.5610 C   0  0  0  0  0  0  0  0  0  0  0  0
   58.4170   29.9800   45.1720 C   0  0  0  0  0  0  0  0  0  0  0  0
   58.8320   31.2120   45.6720 C   0  0  0  0  0  0  0  0  0  0  0  0
   57.0288   33.1863   43.5069 H   0  0  0  0  0  0  0  0  0  0  0  0
   56.3186   30.9212   42.6563 H   0  0  0  0  0  0  0  0  0  0  0  0
   56.6620   28.2650   43.0660 H   0  0  0  0  0  0  0  0  0  0  0  0
   59.2858   26.2360   46.5192 H   0  0  0  0  0  0  0  0  0  0  0  0
   59.3050   23.7411   46.5393 H   0  0  0  0  0  0  0  0  0  0  0  0
   58.0864   22.4730   44.7643 H   0  0  0  0  0  0  0  0  0  0  0  0
   56.8517   23.7256   42.9913 H   0  0  0  0  0  0  0  0  0  0  0  0
   56.8600   26.1060   43.0090 H   0  0  0  0  0  0  0  0  0  0  0  0
   59.4186   28.4027   46.3749 H   0  0  0  0  0  0  0  0  0  0  0  0
   59.5342   31.2751   46.5163 H   0  0  0  0  0  0  0  0  0  0  0  0
  1  2  1  0
  2  3  2  0
  3  4  1  0
  4  5  2  0
  5  6  1  0
  6  7  1  0
  7  8  1  0
  8  9  2  0
  9 10  1  0
 10 11  2  0
 11 12  1  0
 12 13  2  0
  7 14  2  0
 14 15  1  0
 15 16  2  0
 16  2  1  0
 15  5  1  0
 13  8  1  0
  3 17  1  0
  4 18  1  0
  6 19  1  0
  9 20  1  0
 10 21  1  0
 11 22  1  0
 12 23  1  0
 13 24  1  0
 14 25  1  0
 16 26  1  0
M  CHG  1  13   1
M  END
>  <UniqueID>  (38) 
31

>  <SMILES>  (38) 
Brc1ccc2[nH]c(-c3cccc[nH+]3)cc2c1

>  <Energy>  (38) 
64.09170722377857

>  <Genealogy>  (38) 
Brc1ccc2[nH]c(-c3cccc[nH+]3)cc2c1 (protonated)
Brc1ccc2[nH]c(-c3cccc[nH+]3)cc2c1 (3D coordinates assigned)
Brc1ccc2[nH]c(-c3cccc[nH+]3)cc2c1 (optimized conformer: 64.09170722377857 kcal/mol)

>  <smiles>  (38) 
Brc1ccc2[nH]c(-c3ccccn3)cc2c1

>  <score_type>  (38) 
oracle

>  <origin>  (38) 
adg

>  <m_score__min__energy>  (38) 
-5.4299999999999997

>  <m_primary>  (38) 
energy

$$$$
38:0
     RDKit          3D

 37 38  0  0  0  0  0  0  0  0999 V2000
   58.7530   34.3471   47.8051 H   0  0  0  0  0  0  0  0  0  0  0  0
   59.3610   33.8840   47.0140 C   0  0  0  0  0  0  0  0  0  0  0  0
   60.1720   32.8640   47.3560 C   0  0  0  0  0  0  0  0  0  0  0  0
   59.6900   31.4670   47.2450 C   0  0  0  0  0  0  0  0  0  0  0  0
   59.6410   30.8660   45.9760 C   0  0  0  0  0  0  0  0  0  0  0  0
   59.9567   31.4363   45.0900 H   0  0  0  0  0  0  0  0  0  0  0  0
   59.1950   29.5510   45.8300 C   0  0  0  0  0  0  0  0  0  0  0  0
   59.1682   29.0878   44.8327 H   0  0  0  0  0  0  0  0  0  0  0  0
   58.7830   28.8230   46.9480 C   0  0  0  0  0  0  0  0  0  0  0  0
   58.2210   27.1710   46.7610 Cl  0  0  0  0  0  0  0  0  0  0  0  0
   58.8100   29.4140   48.2140 C   0  0  0  0  0  0  0  0  0  0  0  0
   58.4788   28.8402   49.0921 H   0  0  0  0  0  0  0  0  0  0  0  0
   59.2560   30.7320   48.3720 C   0  0  0  0  0  0  0  0  0  0  0  0
   59.1920   31.4430   49.9800 Cl  0  0  0  0  0  0  0  0  0  0  0  0
   61.5420   33.0860   47.8650 C   0  0  0  0  0  0  0  0  0  0  0  0
   61.7680   33.7890   49.0570 C   0  0  0  0  0  0  0  0  0  0  0  0
   60.9182   34.1888   49.6297 H   0  0  0  0  0  0  0  0  0  0  0  0
   63.0710   33.9810   49.5160 C   0  0  0  0  0  0  0  0  0  0  0  0
   63.2561   34.5411   50.4444 H   0  0  0  0  0  0  0  0  0  0  0  0
   64.1380   33.4550   48.7850 C   0  0  0  0  0  0  0  0  0  0  0  0
   65.1698   33.6039   49.1361 H   0  0  0  0  0  0  0  0  0  0  0  0
   63.9050   32.7590   47.6400 N   0  0  0  0  0  0  0  0  0  0  0  0
   64.7130   32.3670   47.1070 H   0  0  0  0  0  0  0  0  0  0  0  0
   62.6420   32.5600   47.1730 C   0  0  0  0  0  0  0  0  0  0  0  0
   62.4838   31.9843   46.2491 H   0  0  0  0  0  0  0  0  0  0  0  0
   59.2350   34.4300   45.6150 C   0  0  0  0  0  0  0  0  0  0  0  0
   60.0520   34.0298   44.9967 H   0  0  0  0  0  0  0  0  0  0  0  0
   59.2903   35.5277   45.6584 H   0  0  0  0  0  0  0  0  0  0  0  0
   57.9400   34.0440   45.0160 N   0  0  0  0  0  0  0  0  0  0  0  0
   58.1360   33.0670   43.9310 C   0  0  0  0  0  0  0  0  0  0  0  0
   58.3350   32.0749   44.3625 H   0  0  0  0  0  0  0  0  0  0  0  0
   57.2291   33.0216   43.3102 H   0  0  0  0  0  0  0  0  0  0  0  0
   58.9903   33.3749   43.3102 H   0  0  0  0  0  0  0  0  0  0  0  0
   57.0520   33.4750   46.0410 C   0  0  0  0  0  0  0  0  0  0  0  0
   57.4392   33.7231   47.0403 H   0  0  0  0  0  0  0  0  0  0  0  0
   56.0418   33.8944   45.9247 H   0  0  0  0  0  0  0  0  0  0  0  0
   57.0109   32.3819   45.9247 H   0  0  0  0  0  0  0  0  0  0  0  0
  1  2  1  0
  2  3  2  0
  3  4  1  0
  4  5  2  0
  5  6  1  0
  5  7  1  0
  7  8  1  0
  7  9  2  0
  9 10  1  0
  9 11  1  0
 11 12  1  0
 11 13  2  0
 13 14  1  0
  3 15  1  0
 15 16  2  0
 16 17  1  0
 16 18  1  0
 18 19  1  0
 18 20  2  0
 20 21  1  0
 20 22  1  0
 22 23  1  0
 22 24  2  0
 24 25  1  0
  2 26  1  0
 26 27  1  0
 26 28  1  0
 26 29  1  0
 29 30  1  0
 30 31  1  0
 30 32  1  0
 30 33  1  0
 29 34  1  0
 34 35  1  0
 34 36  1  0
 34 37  1  0
 13  4  1  0
 24 15  1  0
M  CHG  1  22   1
M  END
>  <UniqueID>  (39) 
32

>  <SMILES>  (39) 
CN(C)C/C=C(\c1ccc[nH+]c1)c1ccc(Cl)cc1Cl

>  <Energy>  (39) 
48.015086114983475

>  <Genealogy>  (39) 
CN(C)CC=C(c1ccc[nH+]c1)c1ccc(Cl)cc1Cl (protonated)
CN(C)C/C=C(\c1ccc[nH+]c1)c1ccc(Cl)cc1Cl (cis-trans isomerization)
CN(C)C/C=C(\c1ccc[nH+]c1)c1ccc(Cl)cc1Cl (3D coordinates assigned)
CN(C)C/C=C(\c1ccc[nH+]c1)c1ccc(Cl)cc1Cl (optimized conformer: 48.015086114983475 kcal/mol)

>  <smiles>  (39) 
CN(C)CC=C(c1cccnc1)c1ccc(Cl)cc1Cl

>  <score_type>  (39) 
oracle

>  <origin>  (39) 
adg

>  <m_score__min__energy>  (39) 
-5.6799999999999997

>  <m_primary>  (39) 
energy

$$$$
39:0
     RDKit          3D

 25 27  0  0  0  0  0  0  0  0999 V2000
   56.4590   25.3500   46.6960 F   0  0  0  0  0  0  0  0  0  0  0  0
   57.0180   26.1390   45.7460 C   0  0  0  0  0  0  0  0  0  0  0  0
   57.3940   25.5910   44.5170 C   0  0  0  0  0  0  0  0  0  0  0  0
   57.9700   26.4030   43.5380 C   0  0  0  0  0  0  0  0  0  0  0  0
   58.1700   27.7640   43.7840 C   0  0  0  0  0  0  0  0  0  0  0  0
   57.7960   28.3300   45.0170 C   0  0  0  0  0  0  0  0  0  0  0  0
   58.0190   29.7750   45.2570 C   0  0  0  0  0  0  0  0  0  0  0  0
   59.1790   30.3680   45.7650 C   0  0  0  0  0  0  0  0  0  0  0  0
   58.8900   31.7120   45.7970 C   0  0  0  0  0  0  0  0  0  0  0  0
   59.6570   32.8010   46.2080 C   0  0  0  0  0  0  0  0  0  0  0  0
   59.0770   34.0800   46.1220 C   0  0  0  0  0  0  0  0  0  0  0  0
   57.7600   34.2360   45.6340 C   0  0  0  0  0  0  0  0  0  0  0  0
   57.0130   33.1140   45.2280 C   0  0  0  0  0  0  0  0  0  0  0  0
   57.6160   31.8620   45.3260 C   0  0  0  0  0  0  0  0  0  0  0  0
   57.1050   30.6990   45.0050 O   0  0  0  0  0  0  0  0  0  0  0  0
   57.2170   27.5010   45.9970 C   0  0  0  0  0  0  0  0  0  0  0  0
   57.2363   24.5202   44.3207 H   0  0  0  0  0  0  0  0  0  0  0  0
   58.2669   25.9705   42.5712 H   0  0  0  0  0  0  0  0  0  0  0  0
   58.6234   28.3979   43.0077 H   0  0  0  0  0  0  0  0  0  0  0  0
   60.1120   29.8715   46.0701 H   0  0  0  0  0  0  0  0  0  0  0  0
   60.6808   32.6651   46.5866 H   0  0  0  0  0  0  0  0  0  0  0  0
   59.6520   34.9635   46.4364 H   0  0  0  0  0  0  0  0  0  0  0  0
   57.3158   35.2403   45.5710 H   0  0  0  0  0  0  0  0  0  0  0  0
   55.9871   33.2223   44.8460 H   0  0  0  0  0  0  0  0  0  0  0  0
   56.9191   27.9271   46.9664 H   0  0  0  0  0  0  0  0  0  0  0  0
  1  2  1  0
  2  3  2  0
  3  4  1  0
  4  5  2  0
  5  6  1  0
  6  7  1  0
  7  8  2  0
  8  9  1  0
  9 10  2  0
 10 11  1  0
 11 12  2  0
 12 13  1  0
 13 14  2  0
 14 15  1  0
  6 16  2  0
 16  2  1  0
 15  7  1  0
 14  9  1  0
  3 17  1  0
  4 18  1  0
  5 19  1  0
  8 20  1  0
 10 21  1  0
 11 22  1  0
 12 23  1  0
 13 24  1  0
 16 25  1  0
M  END
>  <UniqueID>  (40) 
33

>  <SMILES>  (40) 
Fc1cccc(-c2cc3ccccc3o2)c1

>  <Energy>  (40) 
62.68976072765505

>  <Genealogy>  (40) 
Fc1cccc(-c2cc3ccccc3o2)c1 (3D coordinates assigned)
Fc1cccc(-c2cc3ccccc3o2)c1 (optimized conformer: 62.68976072765505 kcal/mol)

>  <smiles>  (40) 
Fc1cccc(-c2cc3ccccc3o2)c1

>  <score_type>  (40) 
oracle

>  <origin>  (40) 
adg

>  <m_score__min__energy>  (40) 
-6

>  <m_primary>  (40) 
energy

$$$$
40:0
     RDKit          3D

 40 41  0  0  0  0  0  0  0  0999 V2000
   62.7140   32.3970   47.2140 C   0  0  0  0  0  0  0  0  0  0  0  0
   61.5010   32.1450   47.9190 O   0  0  0  0  0  0  0  0  0  0  0  0
   60.5640   31.1660   47.5550 C   0  0  0  0  0  0  0  0  0  0  0  0
   59.4340   30.8730   48.3430 C   0  0  0  0  0  0  0  0  0  0  0  0
   58.5250   29.8920   47.9330 C   0  0  0  0  0  0  0  0  0  0  0  0
   58.7320   29.1880   46.7330 C   0  0  0  0  0  0  0  0  0  0  0  0
   57.8480   28.1970   46.2780 O   0  0  0  0  0  0  0  0  0  0  0  0
   57.4720   28.0180   44.9150 C   0  0  0  0  0  0  0  0  0  0  0  0
   56.8930   29.2940   44.3920 C   0  0  0  0  0  0  0  0  0  0  0  0
   55.8130   29.7270   44.8790 O   0  0  0  0  0  0  0  0  0  0  0  0
   57.5840   30.0430   43.3840 N   0  0  0  0  0  0  0  0  0  0  0  0
   57.0420   31.2970   42.8620 C   0  0  0  0  0  0  0  0  0  0  0  0
   58.1050   32.3990   42.8750 C   0  0  0  0  0  0  0  0  0  0  0  0
   58.1870   33.0410   44.2340 C   0  0  0  0  0  0  0  0  0  0  0  0
   57.3130   32.6440   45.2600 C   0  0  0  0  0  0  0  0  0  0  0  0
   57.4110   33.2170   46.5320 C   0  0  0  0  0  0  0  0  0  0  0  0
   58.3880   34.1830   46.7910 C   0  0  0  0  0  0  0  0  0  0  0  0
   59.2700   34.5740   45.7790 C   0  0  0  0  0  0  0  0  0  0  0  0
   59.1740   34.0030   44.5050 C   0  0  0  0  0  0  0  0  0  0  0  0
   59.8590   29.4800   45.9560 C   0  0  0  0  0  0  0  0  0  0  0  0
   60.7670   30.4620   46.3630 C   0  0  0  0  0  0  0  0  0  0  0  0
   63.5282   32.5662   47.9340 H   0  0  0  0  0  0  0  0  0  0  0  0
   62.9576   31.5303   46.5820 H   0  0  0  0  0  0  0  0  0  0  0  0
   62.5922   33.2890   46.5820 H   0  0  0  0  0  0  0  0  0  0  0  0
   59.2657   31.4174   49.2839 H   0  0  0  0  0  0  0  0  0  0  0  0
   57.6435   29.6699   48.5524 H   0  0  0  0  0  0  0  0  0  0  0  0
   58.3575   27.7457   44.3220 H   0  0  0  0  0  0  0  0  0  0  0  0
   56.7236   27.2153   44.8409 H   0  0  0  0  0  0  0  0  0  0  0  0
   58.4890   29.6710   43.0130 H   0  0  0  0  0  0  0  0  0  0  0  0
   56.6997   31.1389   41.8286 H   0  0  0  0  0  0  0  0  0  0  0  0
   56.2031   31.6103   43.5009 H   0  0  0  0  0  0  0  0  0  0  0  0
   59.0822   31.9615   42.6224 H   0  0  0  0  0  0  0  0  0  0  0  0
   57.8289   33.1663   42.1367 H   0  0  0  0  0  0  0  0  0  0  0  0
   56.5480   31.8788   45.0618 H   0  0  0  0  0  0  0  0  0  0  0  0
   56.7190   32.9075   47.3291 H   0  0  0  0  0  0  0  0  0  0  0  0
   58.4628   34.6354   47.7909 H   0  0  0  0  0  0  0  0  0  0  0  0
   60.0405   35.3316   45.9846 H   0  0  0  0  0  0  0  0  0  0  0  0
   59.8738   34.3085   43.7132 H   0  0  0  0  0  0  0  0  0  0  0  0
   60.0316   28.9325   45.0177 H   0  0  0  0  0  0  0  0  0  0  0  0
   61.6474   30.6828   45.7416 H   0  0  0  0  0  0  0  0  0  0  0  0
  1  2  1  0
  2  3  1  0
  3  4  2  0
  4  5  1  0
  5  6  2  0
  6  7  1  0
  7  8  1  0
  8  9  1  0
  9 10  2  0
  9 11  1  0
 11 12  1  0
 12 13  1  0
 13 14  1  0
 14 15  2  0
 15 16  1  0
 16 17  2  0
 17 18  1  0
 18 19  2  0
  6 20  1  0
 20 21  2  0
 21  3  1  0
 19 14  1  0
  1 22  1  0
  1 23  1  0
  1 24  1  0
  4 25  1  0
  5 26  1  0
  8 27  1  0
  8 28  1  0
 11 29  1  0
 12 30  1  0
 12 31  1  0
 13 32  1  0
 13 33  1  0
 15 34  1  0
 16 35  1  0
 17 36  1  0
 18 37  1  0
 19 38  1  0
 20 39  1  0
 21 40  1  0
M  END
>  <UniqueID>  (41) 
34

>  <SMILES>  (41) 
COc1ccc(OCC(=O)NCCc2ccccc2)cc1

>  <Energy>  (41) 
32.883932585582926

>  <Genealogy>  (41) 
COc1ccc(OCC(=O)NCCc2ccccc2)cc1 (3D coordinates assigned)
COc1ccc(OCC(=O)NCCc2ccccc2)cc1 (optimized conformer: 32.883932585582926 kcal/mol)

>  <smiles>  (41) 
COc1ccc(OCC(=O)NCCc2ccccc2)cc1

>  <score_type>  (41) 
oracle

>  <origin>  (41) 
adg

>  <m_score__min__energy>  (41) 
-7.7599999999999998

>  <m_primary>  (41) 
energy

$$$$
41:0
     RDKit          3D

 22 23  0  0  0  0  0  0  0  0999 V2000
   54.9150   26.4850   46.0200 O   0  0  0  0  0  0  0  0  0  0  0  0
   56.2790   26.2020   46.0670 C   0  0  0  0  0  0  0  0  0  0  0  0
   56.7110   24.9730   46.5720 C   0  0  0  0  0  0  0  0  0  0  0  0
   58.0750   24.6740   46.6210 C   0  0  0  0  0  0  0  0  0  0  0  0
   59.0140   25.6060   46.1680 C   0  0  0  0  0  0  0  0  0  0  0  0
   58.5910   26.8470   45.6610 C   0  0  0  0  0  0  0  0  0  0  0  0
   59.5940   27.8430   45.1460 C   0  0  0  0  0  0  0  0  0  0  0  0
   59.3880   29.4580   45.9750 S   0  0  0  0  0  0  0  0  0  0  0  0
   57.9390   29.9260   45.0340 C   0  0  0  0  0  0  0  0  0  0  0  0
   57.9810   30.3160   43.7470 N   0  0  0  0  0  0  0  0  0  0  0  0
   56.6800   30.5580   43.4920 C   0  0  0  0  0  0  0  0  0  0  0  0
   55.8970   30.3270   44.5610 N   0  0  0  0  0  0  0  0  0  0  0  0
   56.6930   29.9250   45.5370 N   0  0  0  0  0  0  0  0  0  0  0  0
   57.2180   27.1380   45.6110 C   0  0  0  0  0  0  0  0  0  0  0  0
   54.3880   26.6910   46.8620 H   0  0  0  0  0  0  0  0  0  0  0  0
   55.9753   24.2388   46.9320 H   0  0  0  0  0  0  0  0  0  0  0  0
   58.4107   23.7040   47.0165 H   0  0  0  0  0  0  0  0  0  0  0  0
   60.0870   25.3673   46.2085 H   0  0  0  0  0  0  0  0  0  0  0  0
   60.6090   27.4654   45.3388 H   0  0  0  0  0  0  0  0  0  0  0  0
   59.4347   27.9779   44.0660 H   0  0  0  0  0  0  0  0  0  0  0  0
   56.3012   30.9052   42.5194 H   0  0  0  0  0  0  0  0  0  0  0  0
   56.8776   28.1050   45.2121 H   0  0  0  0  0  0  0  0  0  0  0  0
  1  2  1  0
  2  3  2  0
  3  4  1  0
  4  5  2  0
  5  6  1  0
  6  7  1  0
  7  8  1  0
  8  9  1  0
  9 10  1  0
 10 11  2  0
 11 12  1  0
 12 13  1  0
  6 14  2  0
 14  2  1  0
 13  9  2  0
  1 15  1  0
  3 16  1  0
  4 17  1  0
  5 18  1  0
  7 19  1  0
  7 20  1  0
 11 21  1  0
 14 22  1  0
M  CHG  1  12  -1
M  END
>  <UniqueID>  (42) 
35

>  <SMILES>  (42) 
Oc1cccc(CSc2nc[n-]n2)c1

>  <Energy>  (42) 
49.35829107794946

>  <Genealogy>  (42) 
Oc1cccc(CSc2nc[n-]n2)c1 (protonated)
Oc1cccc(CSc2nc[n-]n2)c1 (3D coordinates assigned)
Oc1cccc(CSc2nc[n-]n2)c1 (optimized conformer: 49.35829107794946 kcal/mol)

>  <smiles>  (42) 
Oc1cccc(CSc2nc[nH]n2)c1

>  <score_type>  (42) 
oracle

>  <origin>  (42) 
adg

>  <m_score__min__energy>  (42) 
-8.3699999999999992

>  <m_primary>  (42) 
energy

$$$$
42:0
     RDKit          3D

 45 48  0  0  0  0  0  0  0  0999 V2000
   60.0740   34.5920   48.3670 C   0  0  0  0  0  0  0  0  0  0  0  0
   59.9180   33.3220   47.7440 O   0  0  0  0  0  0  0  0  0  0  0  0
   59.0840   33.0550   46.6460 C   0  0  0  0  0  0  0  0  0  0  0  0
   58.4310   34.1050   45.9740 C   0  0  0  0  0  0  0  0  0  0  0  0
   57.6080   33.8520   44.8800 C   0  0  0  0  0  0  0  0  0  0  0  0
   57.4160   32.5510   44.4300 C   0  0  0  0  0  0  0  0  0  0  0  0
   58.0470   31.4740   45.0710 C   0  0  0  0  0  0  0  0  0  0  0  0
   58.8960   31.7160   46.2020 C   0  0  0  0  0  0  0  0  0  0  0  0
   59.5260   30.5970   46.8430 C   0  0  0  0  0  0  0  0  0  0  0  0
   60.3740   30.7520   47.9880 N   0  0  0  0  0  0  0  0  0  0  0  0
   61.8250   30.8480   47.8170 C   0  0  0  0  0  0  0  0  0  0  0  0
   62.3720   32.1090   48.5130 C   0  0  0  0  0  0  0  0  0  0  0  0
   61.6680   32.4760   49.7630 N   0  0  0  0  0  0  0  0  0  0  0  0
   60.8380   31.3960   50.3160 C   0  0  0  0  0  0  0  0  0  0  0  0
   59.7700   30.9720   49.3030 C   0  0  0  0  0  0  0  0  0  0  0  0
   59.3220   29.3320   46.3780 N   0  0  0  0  0  0  0  0  0  0  0  0
   58.5250   29.1250   45.3070 C   0  0  0  0  0  0  0  0  0  0  0  0
   57.8850   30.1410   44.6520 C   0  0  0  0  0  0  0  0  0  0  0  0
   57.1580   29.4860   43.6480 C   0  0  0  0  0  0  0  0  0  0  0  0
   56.2440   30.0730   42.6210 C   0  0  0  0  0  0  0  0  0  0  0  0
   57.3910   28.1550   43.7520 N   0  0  0  0  0  0  0  0  0  0  0  0
   58.2320   27.9390   44.7530 N   0  0  0  0  0  0  0  0  0  0  0  0
   58.6520   26.6220   45.2190 C   0  0  0  0  0  0  0  0  0  0  0  0
   60.0588   34.4686   49.4600 H   0  0  0  0  0  0  0  0  0  0  0  0
   61.0333   35.0350   48.0613 H   0  0  0  0  0  0  0  0  0  0  0  0
   59.2504   35.2540   48.0613 H   0  0  0  0  0  0  0  0  0  0  0  0
   58.5729   35.1402   46.3180 H   0  0  0  0  0  0  0  0  0  0  0  0
   57.1066   34.6869   44.3686 H   0  0  0  0  0  0  0  0  0  0  0  0
   56.7639   32.3641   43.5641 H   0  0  0  0  0  0  0  0  0  0  0  0
   62.3002   29.9582   48.2558 H   0  0  0  0  0  0  0  0  0  0  0  0
   62.0516   30.9102   46.7424 H   0  0  0  0  0  0  0  0  0  0  0  0
   63.4314   31.9362   48.7536 H   0  0  0  0  0  0  0  0  0  0  0  0
   62.2200   32.9433   47.8124 H   0  0  0  0  0  0  0  0  0  0  0  0
   61.0480   33.3000   49.5740 H   0  0  0  0  0  0  0  0  0  0  0  0
   61.4770   30.5323   50.5521 H   0  0  0  0  0  0  0  0  0  0  0  0
   60.3412   31.7587   51.2279 H   0  0  0  0  0  0  0  0  0  0  0  0
   59.2958   30.0401   49.6447 H   0  0  0  0  0  0  0  0  0  0  0  0
   59.0179   31.7706   49.2215 H   0  0  0  0  0  0  0  0  0  0  0  0
   55.4203   30.6020   43.1227 H   0  0  0  0  0  0  0  0  0  0  0  0
   56.8049   30.7802   41.9923 H   0  0  0  0  0  0  0  0  0  0  0  0
   55.8342   29.2688   41.9923 H   0  0  0  0  0  0  0  0  0  0  0  0
   56.9730   27.4050   43.1560 H   0  0  0  0  0  0  0  0  0  0  0  0
   58.6569   26.6066   46.3189 H   0  0  0  0  0  0  0  0  0  0  0  0
   57.9522   25.8603   44.8448 H   0  0  0  0  0  0  0  0  0  0  0  0
   59.6636   26.4060   44.8448 H   0  0  0  0  0  0  0  0  0  0  0  0
  1  2  1  0
  2  3  1  0
  3  4  2  0
  4  5  1  0
  5  6  2  0
  6  7  1  0
  7  8  2  0
  8  9  1  0
  9 10  1  0
 10 11  1  0
 11 12  1  0
 12 13  1  0
 13 14  1  0
 14 15  1  0
  9 16  2  0
 16 17  1  0
 17 18  2  0
 18 19  1  0
 19 20  1  0
 19 21  2  0
 21 22  1  0
 22 23  1  0
  8  3  1  0
 15 10  1  0
 22 17  1  0
 18  7  1  0
  1 24  1  0
  1 25  1  0
  1 26  1  0
  4 27  1  0
  5 28  1  0
  6 29  1  0
 11 30  1  0
 11 31  1  0
 12 32  1  0
 12 33  1  0
 13 34  1  0
 14 35  1  0
 14 36  1  0
 15 37  1  0
 15 38  1  0
 20 39  1  0
 20 40  1  0
 20 41  1  0
 21 42  1  0
 23 43  1  0
 23 44  1  0
 23 45  1  0
M  CHG  1  21   1
M  END
>  <UniqueID>  (43) 
36

>  <SMILES>  (43) 
COc1cccc2c1c(N1CCNCC1)nc1c2c(C)[nH+]n1C

>  <Energy>  (43) 
105.68830612696401

>  <Genealogy>  (43) 
COc1cccc2c1c(N1CCNCC1)nc1c2c(C)[nH+]n1C (protonated)
COc1cccc2c1c(N1CCNCC1)nc1c2c(C)[nH+]n1C (3D coordinates assigned)
COc1cccc2c1c(N1CCNCC1)nc1c2c(C)[nH+]n1C (nonaromatic ring conformer: 105.68830612696401 kcal/mol)

>  <smiles>  (43) 
COc1cccc2c1c(N1CCNCC1)nc1c2c(C)nn1C

>  <score_type>  (43) 
oracle

>  <origin>  (43) 
adg

>  <m_score__min__energy>  (43) 
-5.7000000000000002

>  <m_primary>  (43) 
energy

$$$$
43:0
     RDKit          3D

 33 34  0  0  0  0  0  0  0  0999 V2000
   61.1090   30.4470   48.8100 C   0  0  0  0  0  0  0  0  0  0  0  0
   62.0350   31.2790   48.1500 O   0  0  0  0  0  0  0  0  0  0  0  0
   62.6780   32.1070   49.0950 C   0  0  0  0  0  0  0  0  0  0  0  0
   62.4690   33.5720   48.7110 C   0  0  0  0  0  0  0  0  0  0  0  0
   62.2470   33.7060   47.2630 N   0  0  0  0  0  0  0  0  0  0  0  0
   63.3970   33.8780   46.3690 C   0  0  0  0  0  0  0  0  0  0  0  0
   60.9110   33.6650   46.7150 C   0  0  0  0  0  0  0  0  0  0  0  0
   60.2570   32.5220   46.3960 N   0  0  0  0  0  0  0  0  0  0  0  0
   59.0120   32.7520   45.8840 C   0  0  0  0  0  0  0  0  0  0  0  0
   58.1060   31.6520   45.4680 C   0  0  0  0  0  0  0  0  0  0  0  0
   58.2200   30.3720   46.0390 C   0  0  0  0  0  0  0  0  0  0  0  0
   57.3560   29.3520   45.6330 C   0  0  0  0  0  0  0  0  0  0  0  0
   56.4090   29.5960   44.6870 N   0  0  0  0  0  0  0  0  0  0  0  0
   56.2740   30.8210   44.1160 C   0  0  0  0  0  0  0  0  0  0  0  0
   57.1170   31.8690   44.4940 C   0  0  0  0  0  0  0  0  0  0  0  0
   58.6690   34.1020   45.7880 C   0  0  0  0  0  0  0  0  0  0  0  0
   59.9600   35.0110   46.3660 S   0  0  0  0  0  0  0  0  0  0  0  0
   61.2294   30.5552   49.8980 H   0  0  0  0  0  0  0  0  0  0  0  0
   60.0871   30.7362   48.5236 H   0  0  0  0  0  0  0  0  0  0  0  0
   61.2876   29.4001   48.5236 H   0  0  0  0  0  0  0  0  0  0  0  0
   62.2523   31.9247   50.0927 H   0  0  0  0  0  0  0  0  0  0  0  0
   63.7544   31.8808   49.1100 H   0  0  0  0  0  0  0  0  0  0  0  0
   61.5927   33.9641   49.2480 H   0  0  0  0  0  0  0  0  0  0  0  0
   63.3708   34.1400   48.9835 H   0  0  0  0  0  0  0  0  0  0  0  0
   64.3097   34.0145   46.9677 H   0  0  0  0  0  0  0  0  0  0  0  0
   63.5048   32.9860   45.7344 H   0  0  0  0  0  0  0  0  0  0  0  0
   63.2390   34.7625   45.7344 H   0  0  0  0  0  0  0  0  0  0  0  0
   60.6680   31.5690   46.5040 H   0  0  0  0  0  0  0  0  0  0  0  0
   58.9867   30.1746   46.8026 H   0  0  0  0  0  0  0  0  0  0  0  0
   57.4415   28.3500   46.0788 H   0  0  0  0  0  0  0  0  0  0  0  0
   55.4987   30.9884   43.3538 H   0  0  0  0  0  0  0  0  0  0  0  0
   57.0068   32.8606   44.0307 H   0  0  0  0  0  0  0  0  0  0  0  0
   57.7197   34.5013   45.4016 H   0  0  0  0  0  0  0  0  0  0  0  0
  1  2  1  0
  2  3  1  0
  3  4  1  0
  4  5  1  0
  5  6  1  0
  5  7  1  0
  7  8  2  0
  8  9  1  0
  9 10  1  0
 10 11  2  0
 11 12  1  0
 12 13  2  0
 13 14  1  0
 14 15  2  0
  9 16  2  0
 16 17  1  0
 17  7  1  0
 15 10  1  0
  1 18  1  0
  1 19  1  0
  1 20  1  0
  3 21  1  0
  3 22  1  0
  4 23  1  0
  4 24  1  0
  6 25  1  0
  6 26  1  0
  6 27  1  0
  8 28  1  0
 11 29  1  0
 12 30  1  0
 14 31  1  0
 15 32  1  0
 16 33  1  0
M  CHG  1   8   1
M  END
>  <UniqueID>  (44) 
37

>  <SMILES>  (44) 
COCCN(C)c1[nH+]c(-c2ccncc2)cs1

>  <Energy>  (44) 
63.223443166681584

>  <Genealogy>  (44) 
COCCN(C)c1[nH+]c(-c2ccncc2)cs1 (protonated)
COCCN(C)c1[nH+]c(-c2ccncc2)cs1 (3D coordinates assigned)
COCCN(C)c1[nH+]c(-c2ccncc2)cs1 (optimized conformer: 63.223443166681584 kcal/mol)

>  <smiles>  (44) 
COCCN(C)c1nc(-c2ccncc2)cs1

>  <score_type>  (44) 
oracle

>  <origin>  (44) 
adg

>  <m_score__min__energy>  (44) 
-4.6200000000000001

>  <m_primary>  (44) 
energy

$$$$
44:0
     RDKit          3D

 26 26  0  0  0  0  0  0  0  0999 V2000
   58.1700   27.0100   42.9460 C   0  0  0  0  0  0  0  0  0  0  0  0
   57.7910   25.7600   43.7320 C   0  0  0  0  0  0  0  0  0  0  0  0
   57.7450   26.0380   45.1300 O   0  0  0  0  0  0  0  0  0  0  0  0
   56.5610   26.3040   45.8240 C   0  0  0  0  0  0  0  0  0  0  0  0
   56.0580   25.4350   46.5880 O   0  0  0  0  0  0  0  0  0  0  0  0
   55.9070   27.5620   45.6190 N   0  0  0  0  0  0  0  0  0  0  0  0
   56.5240   28.7900   45.2050 C   0  0  0  0  0  0  0  0  0  0  0  0
   55.8400   29.6140   44.3040 C   0  0  0  0  0  0  0  0  0  0  0  0
   56.4130   30.8090   43.8590 C   0  0  0  0  0  0  0  0  0  0  0  0
   57.6900   31.1800   44.2960 C   0  0  0  0  0  0  0  0  0  0  0  0
   58.4220   32.7210   43.7340 S   0  0  0  0  0  0  0  0  0  0  0  0
   57.8400   33.7030   45.1560 C   0  0  0  0  0  0  0  0  0  0  0  0
   57.2520   32.8780   46.0990 F   0  0  0  0  0  0  0  0  0  0  0  0
   56.9300   34.6570   44.7400 F   0  0  0  0  0  0  0  0  0  0  0  0
   58.3870   30.3540   45.1840 C   0  0  0  0  0  0  0  0  0  0  0  0
   57.8140   29.1590   45.6310 C   0  0  0  0  0  0  0  0  0  0  0  0
   58.4163   27.8224   43.6456 H   0  0  0  0  0  0  0  0  0  0  0  0
   59.0431   26.7942   42.3126 H   0  0  0  0  0  0  0  0  0  0  0  0
   57.3241   27.3154   42.3126 H   0  0  0  0  0  0  0  0  0  0  0  0
   56.8018   25.4112   43.4005 H   0  0  0  0  0  0  0  0  0  0  0  0
   58.5498   24.9846   43.5505 H   0  0  0  0  0  0  0  0  0  0  0  0
   54.8436   29.3190   43.9431 H   0  0  0  0  0  0  0  0  0  0  0  0
   55.8597   31.4584   43.1647 H   0  0  0  0  0  0  0  0  0  0  0  0
   58.7064   34.2072   45.6090 H   0  0  0  0  0  0  0  0  0  0  0  0
   59.3891   30.6452   45.5319 H   0  0  0  0  0  0  0  0  0  0  0  0
   58.3728   28.5057   46.3173 H   0  0  0  0  0  0  0  0  0  0  0  0
  1  2  1  0
  2  3  1  0
  3  4  1  0
  4  5  2  0
  4  6  1  0
  6  7  1  0
  7  8  2  0
  8  9  1  0
  9 10  2  0
 10 11  1  0
 11 12  1  0
 12 13  1  0
 12 14  1  0
 10 15  1  0
 15 16  2  0
 16  7  1  0
  1 17  1  0
  1 18  1  0
  1 19  1  0
  2 20  1  0
  2 21  1  0
  8 22  1  0
  9 23  1  0
 12 24  1  0
 15 25  1  0
 16 26  1  0
M  CHG  1   6  -1
M  END
>  <UniqueID>  (45) 
38

>  <SMILES>  (45) 
CCOC(=O)[N-]c1ccc(SC(F)F)cc1

>  <Energy>  (45) 
19.854818151172484

>  <Genealogy>  (45) 
CCOC(=O)[N-]c1ccc(SC(F)F)cc1 (protonated)
CCOC(=O)[N-]c1ccc(SC(F)F)cc1 (3D coordinates assigned)
CCOC(=O)[N-]c1ccc(SC(F)F)cc1 (optimized conformer: 19.854818151172484 kcal/mol)

>  <smiles>  (45) 
CCOC(=O)Nc1ccc(SC(F)F)cc1

>  <score_type>  (45) 
oracle

>  <origin>  (45) 
adg

>  <m_score__min__energy>  (45) 
-6.6699999999999999

>  <m_primary>  (45) 
energy

$$$$
45:0
     RDKit          3D

 32 33  0  0  0  0  0  0  0  0999 V2000
   56.2140   29.7130   43.2740 C   0  0  0  0  0  0  0  0  0  0  0  0
   57.1570   30.2900   44.2790 C   0  0  0  0  0  0  0  0  0  0  0  0
   58.3140   29.5940   44.6470 C   0  0  0  0  0  0  0  0  0  0  0  0
   59.1750   30.1740   45.5840 C   0  0  0  0  0  0  0  0  0  0  0  0
   60.4270   29.4710   46.0000 C   0  0  0  0  0  0  0  0  0  0  0  0
   58.8780   31.3950   46.1040 N   0  0  0  0  0  0  0  0  0  0  0  0
   57.7550   32.0610   45.7290 C   0  0  0  0  0  0  0  0  0  0  0  0
   57.4040   33.6750   46.4220 S   0  0  0  0  0  0  0  0  0  0  0  0
   58.4470   34.5850   45.2280 C   0  0  0  0  0  0  0  0  0  0  0  0
   59.6570   35.1760   45.9000 C   0  0  0  0  0  0  0  0  0  0  0  0
   59.9610   36.3700   45.6260 O   0  0  0  0  0  0  0  0  0  0  0  0
   60.5120   34.4030   46.8420 C   0  0  0  0  0  0  0  0  0  0  0  0
   60.1490   34.2260   48.1940 C   0  0  0  0  0  0  0  0  0  0  0  0
   60.9660   33.4920   49.0580 C   0  0  0  0  0  0  0  0  0  0  0  0
   62.1530   32.9240   48.5900 C   0  0  0  0  0  0  0  0  0  0  0  0
   62.5260   33.0910   47.2560 C   0  0  0  0  0  0  0  0  0  0  0  0
   61.7130   33.8250   46.3870 C   0  0  0  0  0  0  0  0  0  0  0  0
   56.9060   31.5100   44.8250 N   0  0  0  0  0  0  0  0  0  0  0  0
   55.3875   29.2073   43.7947 H   0  0  0  0  0  0  0  0  0  0  0  0
   55.8113   30.5196   42.6437 H   0  0  0  0  0  0  0  0  0  0  0  0
   56.7489   28.9873   42.6437 H   0  0  0  0  0  0  0  0  0  0  0  0
   58.5414   28.6112   44.2084 H   0  0  0  0  0  0  0  0  0  0  0  0
   60.4824   29.4399   47.0982 H   0  0  0  0  0  0  0  0  0  0  0  0
   60.4202   28.4448   45.6040 H   0  0  0  0  0  0  0  0  0  0  0  0
   61.2996   30.0111   45.6040 H   0  0  0  0  0  0  0  0  0  0  0  0
   58.7771   33.8925   44.4397 H   0  0  0  0  0  0  0  0  0  0  0  0
   57.8514   35.4051   44.8005 H   0  0  0  0  0  0  0  0  0  0  0  0
   59.2155   34.6693   48.5709 H   0  0  0  0  0  0  0  0  0  0  0  0
   60.6733   33.3611   50.1102 H   0  0  0  0  0  0  0  0  0  0  0  0
   62.7931   32.3456   49.2724 H   0  0  0  0  0  0  0  0  0  0  0  0
   63.4612   32.6445   46.8873 H   0  0  0  0  0  0  0  0  0  0  0  0
   62.0146   33.9524   45.3369 H   0  0  0  0  0  0  0  0  0  0  0  0
  1  2  1  0
  2  3  2  0
  3  4  1  0
  4  5  1  0
  4  6  2  0
  6  7  1  0
  7  8  1  0
  8  9  1  0
  9 10  1  0
 10 11  2  0
 10 12  1  0
 12 13  2  0
 13 14  1  0
 14 15  2  0
 15 16  1  0
 16 17  2  0
  7 18  2  0
 18  2  1  0
 17 12  1  0
  1 19  1  0
  1 20  1  0
  1 21  1  0
  3 22  1  0
  5 23  1  0
  5 24  1  0
  5 25  1  0
  9 26  1  0
  9 27  1  0
 13 28  1  0
 14 29  1  0
 15 30  1  0
 16 31  1  0
 17 32  1  0
M  END
>  <UniqueID>  (46) 
39

>  <SMILES>  (46) 
Cc1cc(C)nc(SCC(=O)c2ccccc2)n1

>  <Energy>  (46) 
27.716208703076042

>  <Genealogy>  (46) 
Cc1cc(C)nc(SCC(=O)c2ccccc2)n1 (3D coordinates assigned)
Cc1cc(C)nc(SCC(=O)c2ccccc2)n1 (optimized conformer: 27.716208703076042 kcal/mol)

>  <smiles>  (46) 
Cc1cc(C)nc(SCC(=O)c2ccccc2)n1

>  <score_type>  (46) 
oracle

>  <origin>  (46) 
adg

>  <m_score__min__energy>  (46) 
-7.5199999999999996

>  <m_primary>  (46) 
energy

$$$$
46:0
     RDKit          3D

 38 40  0  0  0  0  0  0  0  0999 V2000
   56.1650   29.7510   43.2540 C   0  0  0  0  0  0  0  0  0  0  0  0
   56.2490   30.4500   44.4910 O   0  0  0  0  0  0  0  0  0  0  0  0
   57.4240   30.6000   45.2430 C   0  0  0  0  0  0  0  0  0  0  0  0
   58.1410   29.4510   45.5780 C   0  0  0  0  0  0  0  0  0  0  0  0
   59.3130   29.5390   46.3250 C   0  0  0  0  0  0  0  0  0  0  0  0
   59.7900   30.7870   46.7510 C   0  0  0  0  0  0  0  0  0  0  0  0
   60.9650   30.8620   47.4950 C   0  0  0  0  0  0  0  0  0  0  0  0
   61.4520   32.0980   47.9230 C   0  0  0  0  0  0  0  0  0  0  0  0
   62.7110   32.1530   48.7080 C   0  0  0  0  0  0  0  0  0  0  0  0
   63.7260   33.0550   48.3590 C   0  0  0  0  0  0  0  0  0  0  0  0
   64.8960   33.1070   49.1180 C   0  0  0  0  0  0  0  0  0  0  0  0
   65.0540   32.2890   50.1930 N   0  0  0  0  0  0  0  0  0  0  0  0
   64.0910   31.3930   50.5560 C   0  0  0  0  0  0  0  0  0  0  0  0
   64.2770   30.5360   51.7730 C   0  0  0  0  0  0  0  0  0  0  0  0
   62.8950   31.3250   49.8270 C   0  0  0  0  0  0  0  0  0  0  0  0
   60.7310   33.2640   47.6010 C   0  0  0  0  0  0  0  0  0  0  0  0
   61.1520   34.3760   48.0250 O   0  0  0  0  0  0  0  0  0  0  0  0
   59.5730   33.1980   46.8540 N   0  0  0  0  0  0  0  0  0  0  0  0
   58.8500   34.4420   46.5220 C   0  0  0  0  0  0  0  0  0  0  0  0
   59.0890   31.9740   46.4270 C   0  0  0  0  0  0  0  0  0  0  0  0
   57.8970   31.8580   45.6680 C   0  0  0  0  0  0  0  0  0  0  0  0
   56.0358   28.6760   43.4483 H   0  0  0  0  0  0  0  0  0  0  0  0
   55.3054   30.1255   42.6788 H   0  0  0  0  0  0  0  0  0  0  0  0
   57.0889   29.9112   42.6788 H   0  0  0  0  0  0  0  0  0  0  0  0
   57.7772   28.4664   45.2490 H   0  0  0  0  0  0  0  0  0  0  0  0
   59.8676   28.6246   46.5823 H   0  0  0  0  0  0  0  0  0  0  0  0
   61.5124   29.9417   47.7468 H   0  0  0  0  0  0  0  0  0  0  0  0
   63.6007   33.7188   47.4908 H   0  0  0  0  0  0  0  0  0  0  0  0
   65.6943   33.8130   48.8455 H   0  0  0  0  0  0  0  0  0  0  0  0
   65.9370   32.3590   50.7480 H   0  0  0  0  0  0  0  0  0  0  0  0
   64.1440   31.1488   52.6768 H   0  0  0  0  0  0  0  0  0  0  0  0
   63.5340   29.7249   51.7673 H   0  0  0  0  0  0  0  0  0  0  0  0
   65.2894   30.1059   51.7673 H   0  0  0  0  0  0  0  0  0  0  0  0
   62.1030   30.6248   50.1310 H   0  0  0  0  0  0  0  0  0  0  0  0
   58.5533   34.9525   47.4501 H   0  0  0  0  0  0  0  0  0  0  0  0
   59.5056   35.1014   45.9343 H   0  0  0  0  0  0  0  0  0  0  0  0
   57.9525   34.1988   45.9343 H   0  0  0  0  0  0  0  0  0  0  0  0
   57.3319   32.7648   45.4065 H   0  0  0  0  0  0  0  0  0  0  0  0
  1  2  1  0
  2  3  1  0
  3  4  2  0
  4  5  1  0
  5  6  2  0
  6  7  1  0
  7  8  2  0
  8  9  1  0
  9 10  2  0
 10 11  1  0
 11 12  2  0
 12 13  1  0
 13 14  1  0
 13 15  2  0
  8 16  1  0
 16 17  2  0
 16 18  1  0
 18 19  1  0
 18 20  1  0
 20 21  2  0
 21  3  1  0
 20  6  1  0
 15  9  1  0
  1 22  1  0
  1 23  1  0
  1 24  1  0
  4 25  1  0
  5 26  1  0
  7 27  1  0
 10 28  1  0
 11 29  1  0
 12 30  1  0
 14 31  1  0
 14 32  1  0
 14 33  1  0
 15 34  1  0
 19 35  1  0
 19 36  1  0
 19 37  1  0
 21 38  1  0
M  CHG  1  12   1
M  END
>  <UniqueID>  (47) 
40

>  <SMILES>  (47) 
COc1ccc2cc(-c3cc[nH+]c(C)c3)c(=O)n(C)c2c1

>  <Energy>  (47) 
55.918087896442046

>  <Genealogy>  (47) 
COc1ccc2cc(-c3cc[nH+]c(C)c3)c(=O)n(C)c2c1 (protonated)
COc1ccc2cc(-c3cc[nH+]c(C)c3)c(=O)n(C)c2c1 (3D coordinates assigned)
COc1ccc2cc(-c3cc[nH+]c(C)c3)c(=O)n(C)c2c1 (optimized conformer: 55.918087896442046 kcal/mol)

>  <smiles>  (47) 
COc1ccc2cc(-c3ccnc(C)c3)c(=O)n(C)c2c1

>  <score_type>  (47) 
oracle

>  <origin>  (47) 
adg

>  <m_score__min__energy>  (47) 
-5.3099999999999996

>  <m_primary>  (47) 
energy

$$$$
