0:0
     RDKit          3D

 32 34  0  0  0  0  0  0  0  0999 V2000
   58.7980   31.8830   46.8930 C   0  0  0  0  0  0  0  0  0  0  0  0
   58.1500   30.8990   45.9920 C   0  0  0  0  0  0  0  0  0  0  0  0
   58.4560   29.5590   46.0070 C   0  0  0  0  0  0  0  0  0  0  0  0
   57.6680   28.9080   45.0370 C   0  0  0  0  0  0  0  0  0  0  0  0
   57.7670   27.4990   44.8220 C   0  0  0  0  0  0  0  0  0  0  0  0
   58.0720   27.0540   43.6690 O   0  0  0  0  0  0  0  0  0  0  0  0
   57.5370   26.4920   45.8140 N   0  0  0  0  0  0  0  0  0  0  0  0
   57.6740   25.1390   45.3240 C   0  0  0  0  0  0  0  0  0  0  0  0
   58.6930   24.3040   45.6440 C   0  0  0  0  0  0  0  0  0  0  0  0
   58.6780   23.0400   45.0490 C   0  0  0  0  0  0  0  0  0  0  0  0
   57.6740   22.6570   44.1750 C   0  0  0  0  0  0  0  0  0  0  0  0
   57.3910   21.5480   43.4650 N   0  0  0  0  0  0  0  0  0  0  0  0
   56.2690   21.7180   42.7660 N   0  0  0  0  0  0  0  0  0  0  0  0
   55.7690   22.9420   42.9860 C   0  0  0  0  0  0  0  0  0  0  0  0
   56.6450   23.5340   43.8680 C   0  0  0  0  0  0  0  0  0  0  0  0
   56.6490   24.7690   44.4430 C   0  0  0  0  0  0  0  0  0  0  0  0
   56.9250   29.9120   44.4880 C   0  0  0  0  0  0  0  0  0  0  0  0
   55.9290   29.7140   43.4030 C   0  0  0  0  0  0  0  0  0  0  0  0
   57.2400   31.0500   45.0760 O   0  0  0  0  0  0  0  0  0  0  0  0
   58.6117   31.6001   47.9395 H   0  0  0  0  0  0  0  0  0  0  0  0
   59.8815   31.8954   46.7038 H   0  0  0  0  0  0  0  0  0  0  0  0
   58.3813   32.8833   46.7038 H   0  0  0  0  0  0  0  0  0  0  0  0
   59.1926   29.0758   46.6658 H   0  0  0  0  0  0  0  0  0  0  0  0
   57.3030   26.7420   46.7720 H   0  0  0  0  0  0  0  0  0  0  0  0
   59.4916   24.6065   46.3374 H   0  0  0  0  0  0  0  0  0  0  0  0
   59.4853   22.3298   45.2809 H   0  0  0  0  0  0  0  0  0  0  0  0
   57.9720   20.6850   43.4750 H   0  0  0  0  0  0  0  0  0  0  0  0
   54.8562   23.3791   42.5551 H   0  0  0  0  0  0  0  0  0  0  0  0
   55.8421   25.4807   44.2141 H   0  0  0  0  0  0  0  0  0  0  0  0
   54.9406   29.5175   43.8440 H   0  0  0  0  0  0  0  0  0  0  0  0
   55.8795   30.6199   42.7810 H   0  0  0  0  0  0  0  0  0  0  0  0
   56.2297   28.8581   42.7810 H   0  0  0  0  0  0  0  0  0  0  0  0
  1  2  1  0
  2  3  2  0
  3  4  1  0
  4  5  1  0
  5  6  2  0
  5  7  1  0
  7  8  1  0
  8  9  2  0
  9 10  1  0
 10 11  2  0
 11 12  1  0
 12 13  1  0
 13 14  2  0
 14 15  1  0
 15 16  2  0
  4 17  2  0
 17 18  1  0
 17 19  1  0
 19  2  1  0
 16  8  1  0
 15 11  1  0
  1 20  1  0
  1 21  1  0
  1 22  1  0
  3 23  1  0
  7 24  1  0
  9 25  1  0
 10 26  1  0
 12 27  1  0
 14 28  1  0
 16 29  1  0
 18 30  1  0
 18 31  1  0
 18 32  1  0
M  END
>  <smiles>  (1) 
Cc1cc(C(=O)Nc2ccc3[nH]ncc3c2)c(C)o1

>  <score_type>  (1) 
oracle

>  <origin>  (1) 
adg

>  <m_score__min__energy>  (1) 
-6.8200000000000003

>  <m_primary>  (1) 
energy

$$$$
1:0
     RDKit          3D

 63 67  0  0  0  0  0  0  0  0999 V2000
   58.5450   31.1090   50.9480 C   0  0  0  0  0  0  0  0  0  0  0  0
   58.3400   29.7090   51.5350 C   0  0  0  0  0  0  0  0  0  0  0  0
   59.6130   28.9950   51.7330 N   0  0  0  0  0  0  0  0  0  0  0  0
   60.4060   29.5400   52.8470 C   0  0  0  0  0  0  0  0  0  0  0  0
   61.9070   29.5360   52.5110 C   0  0  0  0  0  0  0  0  0  0  0  0
   62.1850   29.0890   51.1310 N   0  0  0  0  0  0  0  0  0  0  0  0
   62.0480   30.1680   50.1700 C   0  0  0  0  0  0  0  0  0  0  0  0
   61.1550   30.0520   49.0970 C   0  0  0  0  0  0  0  0  0  0  0  0
   61.0310   31.0510   48.1580 C   0  0  0  0  0  0  0  0  0  0  0  0
   61.8570   32.1440   48.1420 N   0  0  0  0  0  0  0  0  0  0  0  0
   61.9510   32.9870   46.9390 C   0  0  0  0  0  0  0  0  0  0  0  0
   62.6470   32.3840   49.2530 C   0  0  0  0  0  0  0  0  0  0  0  0
   63.3350   33.6110   49.4120 C   0  0  0  0  0  0  0  0  0  0  0  0
   64.1450   33.8420   50.5220 C   0  0  0  0  0  0  0  0  0  0  0  0
   64.2820   32.8700   51.5050 C   0  0  0  0  0  0  0  0  0  0  0  0
   63.5990   31.6600   51.3970 C   0  0  0  0  0  0  0  0  0  0  0  0
   62.7690   31.3920   50.2840 C   0  0  0  0  0  0  0  0  0  0  0  0
   59.9580   30.6420   47.2420 C   0  0  0  0  0  0  0  0  0  0  0  0
   59.2820   31.3870   46.2710 C   0  0  0  0  0  0  0  0  0  0  0  0
   58.2360   30.7810   45.5320 C   0  0  0  0  0  0  0  0  0  0  0  0
   57.8380   29.4640   45.8930 C   0  0  0  0  0  0  0  0  0  0  0  0
   58.4810   28.8030   46.9590 C   0  0  0  0  0  0  0  0  0  0  0  0
   58.0950   27.6640   47.3390 O   0  0  0  0  0  0  0  0  0  0  0  0
   59.5170   29.4160   47.5890 N   0  0  0  0  0  0  0  0  0  0  0  0
   60.2150   28.9250   48.7760 C   0  0  0  0  0  0  0  0  0  0  0  0
   56.6550   28.8390   45.2040 C   0  0  0  0  0  0  0  0  0  0  0  0
   56.6280   29.2260   43.8390 O   0  0  0  0  0  0  0  0  0  0  0  0
   56.9240   30.5290   43.4380 C   0  0  0  0  0  0  0  0  0  0  0  0
   56.7210   30.8390   42.2360 O   0  0  0  0  0  0  0  0  0  0  0  0
   57.4280   31.5480   44.4560 C   0  0  1  0  0  0  0  0  0  0  0  0
   56.2990   32.1200   45.0720 O   0  0  0  0  0  0  0  0  0  0  0  0
   58.2730   32.6720   43.7590 C   0  0  0  0  0  0  0  0  0  0  0  0
   58.4120   33.9780   44.5560 C   0  0  0  0  0  0  0  0  0  0  0  0
   58.6516   31.8373   51.7654 H   0  0  0  0  0  0  0  0  0  0  0  0
   59.4539   31.1174   50.3285 H   0  0  0  0  0  0  0  0  0  0  0  0
   57.6766   31.3776   50.3285 H   0  0  0  0  0  0  0  0  0  0  0  0
   57.8323   29.8033   52.5063 H   0  0  0  0  0  0  0  0  0  0  0  0
   57.7361   29.1295   50.8212 H   0  0  0  0  0  0  0  0  0  0  0  0
   59.4200   27.9810   51.9130 H   0  0  0  0  0  0  0  0  0  0  0  0
   60.0848   30.5732   53.0451 H   0  0  0  0  0  0  0  0  0  0  0  0
   60.2443   28.9087   53.7332 H   0  0  0  0  0  0  0  0  0  0  0  0
   62.2973   30.5570   52.6347 H   0  0  0  0  0  0  0  0  0  0  0  0
   62.3965   28.8256   53.1934 H   0  0  0  0  0  0  0  0  0  0  0  0
   63.1370   28.6600   51.0880 H   0  0  0  0  0  0  0  0  0  0  0  0
   61.5320   28.3130   50.8770 H   0  0  0  0  0  0  0  0  0  0  0  0
   62.0683   34.0394   47.2370 H   0  0  0  0  0  0  0  0  0  0  0  0
   62.8201   32.6763   46.3405 H   0  0  0  0  0  0  0  0  0  0  0  0
   61.0348   32.8753   46.3405 H   0  0  0  0  0  0  0  0  0  0  0  0
   63.2285   34.3944   48.6472 H   0  0  0  0  0  0  0  0  0  0  0  0
   64.6786   34.7988   50.6204 H   0  0  0  0  0  0  0  0  0  0  0  0
   64.9324   33.0562   52.3724 H   0  0  0  0  0  0  0  0  0  0  0  0
   63.7070   30.9034   52.1881 H   0  0  0  0  0  0  0  0  0  0  0  0
   59.5598   32.4345   46.0824 H   0  0  0  0  0  0  0  0  0  0  0  0
   59.5127   28.7465   49.6036 H   0  0  0  0  0  0  0  0  0  0  0  0
   60.7251   27.9637   48.6157 H   0  0  0  0  0  0  0  0  0  0  0  0
   56.7315   27.7437   45.2706 H   0  0  0  0  0  0  0  0  0  0  0  0
   55.7307   29.1790   45.6940 H   0  0  0  0  0  0  0  0  0  0  0  0
   55.5100   31.9180   44.5040 H   0  0  0  0  0  0  0  0  0  0  0  0
   59.2828   32.2752   43.5780 H   0  0  0  0  0  0  0  0  0  0  0  0
   57.7308   32.9336   42.8383 H   0  0  0  0  0  0  0  0  0  0  0  0
   58.3882   33.7547   45.6328 H   0  0  0  0  0  0  0  0  0  0  0  0
   59.3667   34.4622   44.3029 H   0  0  0  0  0  0  0  0  0  0  0  0
   57.5805   34.6523   44.3029 H   0  0  0  0  0  0  0  0  0  0  0  0
  1  2  1  0
  2  3  1  0
  3  4  1  0
  4  5  1  0
  5  6  1  0
  6  7  1  0
  7  8  2  0
  8  9  1  0
  9 10  2  0
 10 11  1  0
 10 12  1  0
 12 13  2  0
 13 14  1  0
 14 15  2  0
 15 16  1  0
 16 17  2  0
  9 18  1  0
 18 19  2  0
 19 20  1  0
 20 21  2  0
 21 22  1  0
 22 23  2  0
 22 24  1  0
 24 25  1  0
 21 26  1  0
 26 27  1  0
 27 28  1  0
 28 29  2  0
 28 30  1  0
 30 31  1  1
 30 32  1  0
 32 33  1  0
 17  7  1  0
 24 18  1  0
 25  8  1  0
 17 12  1  0
 30 20  1  0
  1 34  1  0
  1 35  1  0
  1 36  1  0
  2 37  1  0
  2 38  1  0
  3 39  1  0
  4 40  1  0
  4 41  1  0
  5 42  1  0
  5 43  1  0
  6 44  1  0
  6 45  1  0
 11 46  1  0
 11 47  1  0
 11 48  1  0
 13 49  1  0
 14 50  1  0
 15 51  1  0
 16 52  1  0
 19 53  1  0
 25 54  1  0
 25 55  1  0
 26 56  1  0
 26 57  1  0
 31 58  1  0
 32 59  1  0
 32 60  1  0
 33 61  1  0
 33 62  1  0
 33 63  1  0
M  CHG  2   6   1  10   1
M  END
>  <UniqueID>  (2) 
1

>  <SMILES>  (2) 
CCNCC[NH2+]c1c2c([n+](C)c3ccccc13)-c1cc3c(c(=O)n1C2)COC(=O)[C@]3(O)CC

>  <Energy>  (2) 
120.65771069052015

>  <Genealogy>  (2) 
CCNCC[NH2+]c1c2c([n+](C)c3ccccc13)-c1cc3c(c(=O)n1C2)COC(=O)C3(O)CC (protonated)
CCNCC[NH2+]c1c2c([n+](C)c3ccccc13)-c1cc3c(c(=O)n1C2)COC(=O)[C@]3(O)CC (chirality)
CCNCC[NH2+]c1c2c([n+](C)c3ccccc13)-c1cc3c(c(=O)n1C2)COC(=O)[C@]3(O)CC (3D coordinates assigned)
CCNCC[NH2+]c1c2c([n+](C)c3ccccc13)-c1cc3c(c(=O)n1C2)COC(=O)[C@]3(O)CC (nonaromatic ring conformer: 120.65771069052015 kcal/mol)

>  <smiles>  (2) 
CCNCCNc1c2c([n+](C)c3ccccc13)-c1cc3c(c(=O)n1C2)COC(=O)C3(O)CC

>  <score_type>  (2) 
oracle

>  <origin>  (2) 
adg

>  <m_score__min__energy>  (2) 
-5.6299999999999999

>  <m_primary>  (2) 
energy

$$$$
2:0
     RDKit          3D

 59 61  0  0  0  0  0  0  0  0999 V2000
   58.0890   30.8260   44.8840 C   0  0  0  0  0  0  0  0  0  0  0  0
   58.8120   30.3000   46.1220 C   0  0  0  0  0  0  0  0  0  0  0  0
   59.1810   28.8770   45.9510 N   0  0  0  0  0  0  0  0  0  0  0  0
   59.4650   28.4910   44.5520 C   0  0  0  0  0  0  0  0  0  0  0  0
   58.4330   27.5310   43.9580 C   0  0  0  0  0  0  0  0  0  0  0  0
   60.1100   28.2980   46.9560 C   0  0  0  0  0  0  0  0  0  0  0  0
   59.7900   28.6570   48.4210 C   0  0  0  0  0  0  0  0  0  0  0  0
   60.7500   29.6380   48.9200 N   0  0  0  0  0  0  0  0  0  0  0  0
   61.1740   29.7810   50.1920 C   0  0  0  0  0  0  0  0  0  0  0  0
   62.1070   30.7460   50.3000 N   0  0  0  0  0  0  0  0  0  0  0  0
   62.2720   31.2240   49.0480 C   0  0  0  0  0  0  0  0  0  0  0  0
   63.2620   32.2840   48.6690 C   0  0  0  0  0  0  0  0  0  0  0  0
   63.0750   32.7650   47.2160 C   0  0  0  0  0  0  0  0  0  0  0  0
   61.6670   32.8530   46.7960 N   0  0  0  0  0  0  0  0  0  0  0  0
   61.2880   34.2040   46.3650 C   0  0  0  0  0  0  0  0  0  0  0  0
   59.8110   34.2400   46.0990 C   0  0  0  0  0  0  0  0  0  0  0  0
   59.2440   34.4700   44.8600 C   0  0  0  0  0  0  0  0  0  0  0  0
   57.8920   34.2340   45.0000 C   0  0  0  0  0  0  0  0  0  0  0  0
   57.6870   33.8520   46.3110 C   0  0  0  0  0  0  0  0  0  0  0  0
   58.8550   33.8620   46.9770 N   0  0  0  0  0  0  0  0  0  0  0  0
   59.0350   33.4630   48.3450 C   0  0  0  0  0  0  0  0  0  0  0  0
   59.8380   34.2250   49.2090 C   0  0  0  0  0  0  0  0  0  0  0  0
   60.0130   33.8300   50.5390 C   0  0  0  0  0  0  0  0  0  0  0  0
   59.3760   32.6790   51.0170 C   0  0  0  0  0  0  0  0  0  0  0  0
   59.5480   32.2960   52.3060 F   0  0  0  0  0  0  0  0  0  0  0  0
   58.5620   31.9260   50.1660 C   0  0  0  0  0  0  0  0  0  0  0  0
   58.3860   32.3180   48.8360 C   0  0  0  0  0  0  0  0  0  0  0  0
   61.4410   30.5340   48.1890 C   0  0  0  0  0  0  0  0  0  0  0  0
   57.2355   31.4469   45.1939 H   0  0  0  0  0  0  0  0  0  0  0  0
   58.7837   31.4313   44.2831 H   0  0  0  0  0  0  0  0  0  0  0  0
   57.7270   29.9787   44.2831 H   0  0  0  0  0  0  0  0  0  0  0  0
   59.7246   30.8920   46.2852 H   0  0  0  0  0  0  0  0  0  0  0  0
   58.1384   30.3878   46.9872 H   0  0  0  0  0  0  0  0  0  0  0  0
   59.4853   29.4030   43.9373 H   0  0  0  0  0  0  0  0  0  0  0  0
   60.4308   27.9645   44.5533 H   0  0  0  0  0  0  0  0  0  0  0  0
   57.8907   27.0265   44.7713 H   0  0  0  0  0  0  0  0  0  0  0  0
   57.7213   28.0956   43.3378 H   0  0  0  0  0  0  0  0  0  0  0  0
   58.9448   26.7804   43.3378 H   0  0  0  0  0  0  0  0  0  0  0  0
   60.0791   27.2028   46.8583 H   0  0  0  0  0  0  0  0  0  0  0  0
   61.1001   28.7273   46.7431 H   0  0  0  0  0  0  0  0  0  0  0  0
   58.7758   29.0789   48.4787 H   0  0  0  0  0  0  0  0  0  0  0  0
   59.8532   27.7472   49.0360 H   0  0  0  0  0  0  0  0  0  0  0  0
   60.8033   29.1829   51.0375 H   0  0  0  0  0  0  0  0  0  0  0  0
   62.6010   31.0490   51.1680 H   0  0  0  0  0  0  0  0  0  0  0  0
   63.1373   33.1428   49.3450 H   0  0  0  0  0  0  0  0  0  0  0  0
   64.2693   31.8501   48.7534 H   0  0  0  0  0  0  0  0  0  0  0  0
   63.5286   33.7625   47.1198 H   0  0  0  0  0  0  0  0  0  0  0  0
   63.5569   32.0190   46.5670 H   0  0  0  0  0  0  0  0  0  0  0  0
   61.4810   32.1760   46.0190 H   0  0  0  0  0  0  0  0  0  0  0  0
   61.5372   34.9263   47.1563 H   0  0  0  0  0  0  0  0  0  0  0  0
   61.8356   34.4671   45.4480 H   0  0  0  0  0  0  0  0  0  0  0  0
   59.7672   34.7800   43.9434 H   0  0  0  0  0  0  0  0  0  0  0  0
   57.1248   34.3314   44.2177 H   0  0  0  0  0  0  0  0  0  0  0  0
   56.7137   33.5802   46.7455 H   0  0  0  0  0  0  0  0  0  0  0  0
   60.3311   35.1358   48.8383 H   0  0  0  0  0  0  0  0  0  0  0  0
   60.6514   34.4239   51.2096 H   0  0  0  0  0  0  0  0  0  0  0  0
   58.0591   31.0235   50.5436 H   0  0  0  0  0  0  0  0  0  0  0  0
   57.7373   31.7281   48.1717 H   0  0  0  0  0  0  0  0  0  0  0  0
   61.3579   30.6879   47.1030 H   0  0  0  0  0  0  0  0  0  0  0  0
  1  2  1  0
  2  3  1  0
  3  4  1  0
  4  5  1  0
  3  6  1  0
  6  7  1  0
  7  8  1  0
  8  9  1  0
  9 10  2  0
 10 11  1  0
 11 12  1  0
 12 13  1  0
 13 14  1  0
 14 15  1  0
 15 16  1  0
 16 17  2  0
 17 18  1  0
 18 19  2  0
 19 20  1  0
 20 21  1  0
 21 22  2  0
 22 23  1  0
 23 24  2  0
 24 25  1  0
 24 26  1  0
 26 27  2  0
 11 28  2  0
 28  8  1  0
 20 16  1  0
 27 21  1  0
  1 29  1  0
  1 30  1  0
  1 31  1  0
  2 32  1  0
  2 33  1  0
  4 34  1  0
  4 35  1  0
  5 36  1  0
  5 37  1  0
  5 38  1  0
  6 39  1  0
  6 40  1  0
  7 41  1  0
  7 42  1  0
  9 43  1  0
 10 44  1  0
 12 45  1  0
 12 46  1  0
 13 47  1  0
 13 48  1  0
 14 49  1  0
 15 50  1  0
 15 51  1  0
 17 52  1  0
 18 53  1  0
 19 54  1  0
 22 55  1  0
 23 56  1  0
 26 57  1  0
 27 58  1  0
 28 59  1  0
M  CHG  1  10   1
M  END
>  <UniqueID>  (3) 
2

>  <SMILES>  (3) 
CCN(CC)CCn1c[nH+]c(CCNCc2cccn2-c2ccc(F)cc2)c1

>  <Energy>  (3) 
121.66574038589664

>  <Genealogy>  (3) 
CCN(CC)CCn1c[nH+]c(CCNCc2cccn2-c2ccc(F)cc2)c1 (protonated)
CCN(CC)CCn1c[nH+]c(CCNCc2cccn2-c2ccc(F)cc2)c1 (3D coordinates assigned)
CCN(CC)CCn1c[nH+]c(CCNCc2cccn2-c2ccc(F)cc2)c1 (optimized conformer: 121.66574038589664 kcal/mol)

>  <smiles>  (3) 
CCN(CC)CCn1cnc(CCNCc2cccn2-c2ccc(F)cc2)c1

>  <score_type>  (3) 
oracle

>  <origin>  (3) 
adg

>  <m_score__min__energy>  (3) 
-5.6500000000000004

>  <m_primary>  (3) 
energy

$$$$
3:0
     RDKit          3D

 42 44  0  0  0  0  0  0  0  0999 V2000
   64.9030   33.0410   50.0030 C   0  0  0  0  0  0  0  0  0  0  0  0
   63.4480   33.4880   49.8170 C   0  0  0  0  0  0  0  0  0  0  0  0
   62.7410   32.9130   48.6380 N   0  0  0  0  0  0  0  0  0  0  0  0
   63.5620   32.7660   47.4020 C   0  0  0  0  0  0  0  0  0  0  0  0
   63.3540   33.8460   46.3310 C   0  0  0  0  0  0  0  0  0  0  0  0
   61.7950   31.7970   48.9270 C   0  0  0  0  0  0  0  0  0  0  0  0
   60.3000   32.1680   48.9370 C   0  0  0  0  0  0  0  0  0  0  0  0
   59.8300   32.3660   47.5640 N   0  0  0  0  0  0  0  0  0  0  0  0
   59.9150   33.4940   46.8150 C   0  0  0  0  0  0  0  0  0  0  0  0
   60.4930   34.5450   47.1990 O   0  0  0  0  0  0  0  0  0  0  0  0
   59.3200   33.3820   45.6410 O   0  0  0  0  0  0  0  0  0  0  0  0
   58.8220   32.1690   45.6090 C   0  0  0  0  0  0  0  0  0  0  0  0
   58.0900   31.5480   44.5960 C   0  0  0  0  0  0  0  0  0  0  0  0
   57.7830   32.1980   43.3920 C   0  0  0  0  0  0  0  0  0  0  0  0
   57.0450   31.5290   42.4110 C   0  0  0  0  0  0  0  0  0  0  0  0
   56.6120   30.2160   42.6260 C   0  0  0  0  0  0  0  0  0  0  0  0
   56.9130   29.5590   43.8240 C   0  0  0  0  0  0  0  0  0  0  0  0
   57.6510   30.2140   44.8210 C   0  0  0  0  0  0  0  0  0  0  0  0
   57.9620   29.5610   46.0410 C   0  0  0  0  0  0  0  0  0  0  0  0
   58.7040   30.2210   47.0370 C   0  0  0  0  0  0  0  0  0  0  0  0
   59.1200   31.5300   46.7830 C   0  0  0  0  0  0  0  0  0  0  0  0
   65.1307   32.9711   51.0769 H   0  0  0  0  0  0  0  0  0  0  0  0
   65.0473   32.0571   49.5328 H   0  0  0  0  0  0  0  0  0  0  0  0
   65.5748   33.7742   49.5328 H   0  0  0  0  0  0  0  0  0  0  0  0
   62.8884   33.2013   50.7196 H   0  0  0  0  0  0  0  0  0  0  0  0
   63.4878   34.5734   49.6427 H   0  0  0  0  0  0  0  0  0  0  0  0
   62.0880   33.6920   48.3740 H   0  0  0  0  0  0  0  0  0  0  0  0
   64.6217   32.7821   47.6965 H   0  0  0  0  0  0  0  0  0  0  0  0
   63.2411   31.8207   46.9401 H   0  0  0  0  0  0  0  0  0  0  0  0
   63.1675   34.8144   46.8182 H   0  0  0  0  0  0  0  0  0  0  0  0
   64.2547   33.9186   45.7037 H   0  0  0  0  0  0  0  0  0  0  0  0
   62.4908   33.5789   45.7037 H   0  0  0  0  0  0  0  0  0  0  0  0
   61.9447   31.0215   48.1614 H   0  0  0  0  0  0  0  0  0  0  0  0
   62.0269   31.4677   49.9506 H   0  0  0  0  0  0  0  0  0  0  0  0
   59.7252   31.3561   49.4065 H   0  0  0  0  0  0  0  0  0  0  0  0
   60.1599   33.0982   49.5071 H   0  0  0  0  0  0  0  0  0  0  0  0
   58.1216   33.2304   43.2200 H   0  0  0  0  0  0  0  0  0  0  0  0
   56.8036   32.0372   41.4658 H   0  0  0  0  0  0  0  0  0  0  0  0
   56.0316   29.6973   41.8487 H   0  0  0  0  0  0  0  0  0  0  0  0
   56.5701   28.5262   43.9845 H   0  0  0  0  0  0  0  0  0  0  0  0
   57.6199   28.5293   46.2097 H   0  0  0  0  0  0  0  0  0  0  0  0
   58.9490   29.7220   47.9862 H   0  0  0  0  0  0  0  0  0  0  0  0
  1  2  1  0
  2  3  1  0
  3  4  1  0
  4  5  1  0
  3  6  1  0
  6  7  1  0
  7  8  1  0
  8  9  1  0
  9 10  2  0
  9 11  1  0
 11 12  1  0
 12 13  2  0
 13 14  1  0
 14 15  2  0
 15 16  1  0
 16 17  2  0
 17 18  1  0
 18 19  2  0
 19 20  1  0
 20 21  2  0
 21  8  1  0
 21 12  1  0
 18 13  1  0
  1 22  1  0
  1 23  1  0
  1 24  1  0
  2 25  1  0
  2 26  1  0
  3 27  1  0
  4 28  1  0
  4 29  1  0
  5 30  1  0
  5 31  1  0
  5 32  1  0
  6 33  1  0
  6 34  1  0
  7 35  1  0
  7 36  1  0
 14 37  1  0
 15 38  1  0
 16 39  1  0
 17 40  1  0
 19 41  1  0
 20 42  1  0
M  CHG  1   3   1
M  END
>  <UniqueID>  (4) 
3

>  <SMILES>  (4) 
CC[NH+](CC)CCn1c(=O)oc2c3ccccc3ccc21

>  <Energy>  (4) 
100.2173703506138

>  <Genealogy>  (4) 
CC[NH+](CC)CCn1c(=O)oc2c3ccccc3ccc21 (protonated)
CC[NH+](CC)CCn1c(=O)oc2c3ccccc3ccc21 (3D coordinates assigned)
CC[NH+](CC)CCn1c(=O)oc2c3ccccc3ccc21 (optimized conformer: 100.2173703506138 kcal/mol)

>  <smiles>  (4) 
CCN(CC)CCn1c(=O)oc2c3ccccc3ccc21

>  <score_type>  (4) 
oracle

>  <origin>  (4) 
adg

>  <m_score__min__energy>  (4) 
-5.2300000000000004

>  <m_primary>  (4) 
energy

$$$$
4:0
     RDKit          3D

 54 57  0  0  0  0  0  0  0  0999 V2000
   60.0160   26.3330   47.1920 C   0  0  0  0  0  0  0  0  0  0  0  0
   60.3490   27.2220   46.0010 C   0  0  0  0  0  0  0  0  0  0  0  0
   60.3150   28.6260   46.3930 N   0  0  0  0  0  0  0  0  0  0  0  0
   59.8130   29.1280   47.5330 C   0  0  0  0  0  0  0  0  0  0  0  0
   60.0770   30.4850   47.5040 C   0  0  0  0  0  0  0  0  0  0  0  0
   59.7890   31.5030   48.5370 C   0  0  0  0  0  0  0  0  0  0  0  0
   60.4760   31.6060   49.7300 C   0  0  0  0  0  0  0  0  0  0  0  0
   59.8920   32.6790   50.3740 C   0  0  0  0  0  0  0  0  0  0  0  0
   60.3160   33.2480   51.6910 C   0  0  0  0  0  0  0  0  0  0  0  0
   60.3900   32.2430   52.6370 F   0  0  0  0  0  0  0  0  0  0  0  0
   59.4040   34.1980   52.1130 F   0  0  0  0  0  0  0  0  0  0  0  0
   61.5580   33.8400   51.5550 F   0  0  0  0  0  0  0  0  0  0  0  0
   58.9320   33.2140   49.5960 N   0  0  0  0  0  0  0  0  0  0  0  0
   58.8690   32.5000   48.4820 N   0  0  0  0  0  0  0  0  0  0  0  0
   57.9440   32.8290   47.3990 C   0  0  0  0  0  0  0  0  0  0  0  0
   58.3520   34.1510   46.7380 C   0  0  0  0  0  0  0  0  0  0  0  0
   57.9340   34.2460   45.2600 C   0  0  0  0  0  0  0  0  0  0  0  0
   58.5320   33.1430   44.3720 C   0  0  0  0  0  0  0  0  0  0  0  0
   57.8170   31.8340   44.5260 C   0  0  0  0  0  0  0  0  0  0  0  0
   58.3480   30.5780   44.3330 C   0  0  0  0  0  0  0  0  0  0  0  0
   57.3450   29.7050   44.5570 N   0  0  0  0  0  0  0  0  0  0  0  0
   57.3890   28.2640   44.4920 C   0  0  0  0  0  0  0  0  0  0  0  0
   57.0290   27.5000   45.6150 C   0  0  0  0  0  0  0  0  0  0  0  0
   57.0680   26.1030   45.5710 C   0  0  0  0  0  0  0  0  0  0  0  0
   57.4730   25.4380   44.4030 C   0  0  0  0  0  0  0  0  0  0  0  0
   57.5130   24.0000   44.3600 N   0  0  0  0  0  0  0  0  0  0  0  0
   56.7490   23.3630   43.6060 O   0  0  0  0  0  0  0  0  0  0  0  0
   58.3970   23.3020   45.1510 O   0  0  0  0  0  0  0  0  0  0  0  0
   57.8370   26.2000   43.2790 C   0  0  0  0  0  0  0  0  0  0  0  0
   57.7970   27.5960   43.3230 C   0  0  0  0  0  0  0  0  0  0  0  0
   56.2590   30.4030   44.8570 N   0  0  0  0  0  0  0  0  0  0  0  0
   56.5150   31.7020   44.8430 N   0  0  0  0  0  0  0  0  0  0  0  0
   60.7530   30.7520   46.3670 N   0  0  0  0  0  0  0  0  0  0  0  0
   60.8830   29.6080   45.7120 N   0  0  0  0  0  0  0  0  0  0  0  0
   60.2203   26.8784   48.1251 H   0  0  0  0  0  0  0  0  0  0  0  0
   58.9525   26.0543   47.1555 H   0  0  0  0  0  0  0  0  0  0  0  0
   60.6347   25.4242   47.1555 H   0  0  0  0  0  0  0  0  0  0  0  0
   61.3547   26.9725   45.6318 H   0  0  0  0  0  0  0  0  0  0  0  0
   59.6045   27.0533   45.2090 H   0  0  0  0  0  0  0  0  0  0  0  0
   59.2962   28.5719   48.3291 H   0  0  0  0  0  0  0  0  0  0  0  0
   61.3031   30.9750   50.0874 H   0  0  0  0  0  0  0  0  0  0  0  0
   57.9636   32.0258   46.6477 H   0  0  0  0  0  0  0  0  0  0  0  0
   56.9297   32.9320   47.8119 H   0  0  0  0  0  0  0  0  0  0  0  0
   57.8789   34.9775   47.2886 H   0  0  0  0  0  0  0  0  0  0  0  0
   59.4501   34.2068   46.7706 H   0  0  0  0  0  0  0  0  0  0  0  0
   56.8374   34.1785   45.2051 H   0  0  0  0  0  0  0  0  0  0  0  0
   58.3174   35.2046   44.8805 H   0  0  0  0  0  0  0  0  0  0  0  0
   58.4648   33.4606   43.3210 H   0  0  0  0  0  0  0  0  0  0  0  0
   59.5767   32.9928   44.6820 H   0  0  0  0  0  0  0  0  0  0  0  0
   59.3835   30.3354   44.0522 H   0  0  0  0  0  0  0  0  0  0  0  0
   56.7130   28.0065   46.5389 H   0  0  0  0  0  0  0  0  0  0  0  0
   56.7791   25.5207   46.4584 H   0  0  0  0  0  0  0  0  0  0  0  0
   58.1562   25.6927   42.3566 H   0  0  0  0  0  0  0  0  0  0  0  0
   58.0871   28.1779   42.4357 H   0  0  0  0  0  0  0  0  0  0  0  0
  1  2  1  0
  2  3  1  0
  3  4  1  0
  4  5  2  0
  5  6  1  0
  6  7  2  0
  7  8  1  0
  8  9  1  0
  9 10  1  0
  9 11  1  0
  9 12  1  0
  8 13  2  0
 13 14  1  0
 14 15  1  0
 15 16  1  0
 16 17  1  0
 17 18  1  0
 18 19  1  0
 19 20  2  0
 20 21  1  0
 21 22  1  0
 22 23  2  0
 23 24  1  0
 24 25  2  0
 25 26  1  0
 26 27  2  0
 26 28  1  0
 25 29  1  0
 29 30  2  0
 21 31  1  0
 31 32  2  0
  5 33  1  0
 33 34  2  0
 34  3  1  0
 14  6  1  0
 32 19  1  0
 30 22  1  0
  1 35  1  0
  1 36  1  0
  1 37  1  0
  2 38  1  0
  2 39  1  0
  4 40  1  0
  7 41  1  0
 15 42  1  0
 15 43  1  0
 16 44  1  0
 16 45  1  0
 17 46  1  0
 17 47  1  0
 18 48  1  0
 18 49  1  0
 20 50  1  0
 23 51  1  0
 24 52  1  0
 29 53  1  0
 30 54  1  0
M  CHG  2  26   1  28  -1
M  END
>  <UniqueID>  (5) 
4

>  <SMILES>  (5) 
CCn1cc(-c2cc(C(F)(F)F)nn2CCCCc2cn(-c3ccc([N+](=O)[O-])cc3)nn2)nn1

>  <Energy>  (5) 
153.0699559865859

>  <Genealogy>  (5) 
CCn1cc(-c2cc(C(F)(F)F)nn2CCCCc2cn(-c3ccc([N+](=O)[O-])cc3)nn2)nn1 (3D coordinates assigned)
CCn1cc(-c2cc(C(F)(F)F)nn2CCCCc2cn(-c3ccc([N+](=O)[O-])cc3)nn2)nn1 (optimized conformer: 153.0699559865859 kcal/mol)

>  <smiles>  (5) 
CCn1cc(-c2cc(C(F)(F)F)nn2CCCCc2cn(-c3ccc([N+](=O)[O-])cc3)nn2)nn1

>  <score_type>  (5) 
oracle

>  <origin>  (5) 
adg

>  <m_score__min__energy>  (5) 
-9.0399999999999991

>  <m_primary>  (5) 
energy

$$$$
5:0
     RDKit          3D

 49 50  0  0  0  0  0  0  0  0999 V2000
   57.3980   30.9440   43.6500 C   0  0  0  0  0  0  0  0  0  0  0  0
   57.0140   31.5850   44.8630 O   0  0  0  0  0  0  0  0  0  0  0  0
   57.8090   32.5120   45.5540 C   0  0  0  0  0  0  0  0  0  0  0  0
   58.2870   33.6260   44.8560 C   0  0  0  0  0  0  0  0  0  0  0  0
   59.0910   34.5710   45.4960 C   0  0  0  0  0  0  0  0  0  0  0  0
   59.4220   34.4140   46.8430 C   0  0  0  0  0  0  0  0  0  0  0  0
   58.9390   33.3110   47.5720 C   0  0  0  0  0  0  0  0  0  0  0  0
   59.3210   33.0940   49.0290 C   0  0  1  0  0  0  0  0  0  0  0  0
   58.5170   31.9150   49.6400 C   0  0  0  0  0  0  0  0  0  0  0  0
   57.6460   32.3250   50.7620 N   0  0  0  0  0  0  0  0  0  0  0  0
   57.8460   31.5010   51.9680 C   0  0  0  0  0  0  0  0  0  0  0  0
   58.7980   32.1500   52.9940 C   0  0  0  0  0  0  0  0  0  0  0  0
   59.4140   33.3830   52.4550 N   0  0  0  0  0  0  0  0  0  0  0  0
   58.7810   34.5740   53.0410 C   0  0  0  0  0  0  0  0  0  0  0  0
   60.8630   33.4140   52.7220 C   0  0  0  0  0  0  0  0  0  0  0  0
   60.8360   33.0560   49.2340 C   0  0  0  0  0  0  0  0  0  0  0  0
   61.6370   34.2150   49.3440 C   0  0  0  0  0  0  0  0  0  0  0  0
   63.0200   34.1100   49.5210 C   0  0  0  0  0  0  0  0  0  0  0  0
   63.6290   32.8550   49.5800 C   0  0  0  0  0  0  0  0  0  0  0  0
   65.5180   32.7170   49.8230 Br  0  0  0  0  0  0  0  0  0  0  0  0
   62.8530   31.7000   49.4560 C   0  0  0  0  0  0  0  0  0  0  0  0
   61.4720   31.7990   49.2780 C   0  0  0  0  0  0  0  0  0  0  0  0
   58.1430   32.3560   46.9130 C   0  0  0  0  0  0  0  0  0  0  0  0
   57.9506   30.0215   43.8818 H   0  0  0  0  0  0  0  0  0  0  0  0
   56.4995   30.6962   43.0658 H   0  0  0  0  0  0  0  0  0  0  0  0
   58.0404   31.6193   43.0658 H   0  0  0  0  0  0  0  0  0  0  0  0
   58.0275   33.7584   43.7953 H   0  0  0  0  0  0  0  0  0  0  0  0
   59.4647   35.4417   44.9373 H   0  0  0  0  0  0  0  0  0  0  0  0
   60.0645   35.1571   47.3380 H   0  0  0  0  0  0  0  0  0  0  0  0
   59.0175   33.9725   49.6173 H   0  0  0  0  0  0  0  0  0  0  0  0
   57.8884   31.4747   48.8520 H   0  0  0  0  0  0  0  0  0  0  0  0
   59.2456   31.1934   50.0380 H   0  0  0  0  0  0  0  0  0  0  0  0
   57.8220   33.3310   50.9950 H   0  0  0  0  0  0  0  0  0  0  0  0
   56.6420   32.2410   50.4870 H   0  0  0  0  0  0  0  0  0  0  0  0
   56.8696   31.3414   52.4487 H   0  0  0  0  0  0  0  0  0  0  0  0
   58.3064   30.5553   51.6461 H   0  0  0  0  0  0  0  0  0  0  0  0
   58.2289   32.4014   53.9011 H   0  0  0  0  0  0  0  0  0  0  0  0
   59.6008   31.4336   53.2226 H   0  0  0  0  0  0  0  0  0  0  0  0
   58.8171   34.5060   54.1383 H   0  0  0  0  0  0  0  0  0  0  0  0
   59.3193   35.4749   52.7115 H   0  0  0  0  0  0  0  0  0  0  0  0
   57.7331   34.6319   52.7115 H   0  0  0  0  0  0  0  0  0  0  0  0
   61.0357   33.4177   53.8084 H   0  0  0  0  0  0  0  0  0  0  0  0
   61.3367   32.5258   52.2785 H   0  0  0  0  0  0  0  0  0  0  0  0
   61.2982   34.3217   52.2785 H   0  0  0  0  0  0  0  0  0  0  0  0
   61.1683   35.2087   49.2899 H   0  0  0  0  0  0  0  0  0  0  0  0
   63.6308   35.0201   49.6142 H   0  0  0  0  0  0  0  0  0  0  0  0
   63.3313   30.7103   49.4987 H   0  0  0  0  0  0  0  0  0  0  0  0
   60.8719   30.8834   49.1706 H   0  0  0  0  0  0  0  0  0  0  0  0
   57.7776   31.4778   47.4656 H   0  0  0  0  0  0  0  0  0  0  0  0
  1  2  1  0
  2  3  1  0
  3  4  2  0
  4  5  1  0
  5  6  2  0
  6  7  1  0
  7  8  1  0
  8  9  1  0
  9 10  1  0
 10 11  1  0
 11 12  1  0
 12 13  1  0
 13 14  1  0
 13 15  1  0
  8 16  1  0
 16 17  2  0
 17 18  1  0
 18 19  2  0
 19 20  1  0
 19 21  1  0
 21 22  2  0
  7 23  2  0
 23  3  1  0
 22 16  1  0
  1 24  1  0
  1 25  1  0
  1 26  1  0
  4 27  1  0
  5 28  1  0
  6 29  1  0
  8 30  1  1
  9 31  1  0
  9 32  1  0
 10 33  1  0
 10 34  1  0
 11 35  1  0
 11 36  1  0
 12 37  1  0
 12 38  1  0
 14 39  1  0
 14 40  1  0
 14 41  1  0
 15 42  1  0
 15 43  1  0
 15 44  1  0
 17 45  1  0
 18 46  1  0
 21 47  1  0
 22 48  1  0
 23 49  1  0
M  CHG  1  10   1
M  END
>  <UniqueID>  (6) 
5

>  <SMILES>  (6) 
COc1cccc([C@@H](C[NH2+]CCN(C)C)c2ccc(Br)cc2)c1

>  <Energy>  (6) 
53.41588993672576

>  <Genealogy>  (6) 
COc1cccc(C(C[NH2+]CCN(C)C)c2ccc(Br)cc2)c1 (protonated)
COc1cccc([C@@H](C[NH2+]CCN(C)C)c2ccc(Br)cc2)c1 (chirality)
COc1cccc([C@@H](C[NH2+]CCN(C)C)c2ccc(Br)cc2)c1 (3D coordinates assigned)
COc1cccc([C@@H](C[NH2+]CCN(C)C)c2ccc(Br)cc2)c1 (optimized conformer: 53.41588993672576 kcal/mol)

>  <smiles>  (6) 
COc1cccc(C(CNCCN(C)C)c2ccc(Br)cc2)c1

>  <score_type>  (6) 
oracle

>  <origin>  (6) 
adg

>  <m_score__min__energy>  (6) 
-5.4199999999999999

>  <m_primary>  (6) 
energy

$$$$
6:0
     RDKit          3D

 38 39  0  0  0  0  0  0  0  0999 V2000
   57.2600   32.3420   40.9660 C   0  0  0  0  0  0  0  0  0  0  0  0
   58.1810   32.4530   42.1740 C   0  0  0  0  0  0  0  0  0  0  0  0
   57.7250   31.5180   43.2360 N   0  0  0  0  0  0  0  0  0  0  0  0
   56.6660   30.6070   42.7510 C   0  0  0  0  0  0  0  0  0  0  0  0
   56.0810   29.7900   43.9030 C   0  0  0  0  0  0  0  0  0  0  0  0
   57.2730   32.2420   44.4460 C   0  0  0  0  0  0  0  0  0  0  0  0
   58.4320   32.5100   45.3700 C   0  0  0  0  0  0  0  0  0  0  0  0
   58.8800   33.8110   45.6170 C   0  0  0  0  0  0  0  0  0  0  0  0
   59.9440   34.0180   46.4340 N   0  0  0  0  0  0  0  0  0  0  0  0
   60.5940   32.9820   47.0310 C   0  0  0  0  0  0  0  0  0  0  0  0
   61.7520   33.2640   47.9150 C   0  0  0  0  0  0  0  0  0  0  0  0
   61.5620   33.9660   49.1210 C   0  0  0  0  0  0  0  0  0  0  0  0
   62.6440   34.2330   49.9650 C   0  0  0  0  0  0  0  0  0  0  0  0
   63.9260   33.7970   49.6210 C   0  0  0  0  0  0  0  0  0  0  0  0
   64.1260   33.0890   48.4340 C   0  0  0  0  0  0  0  0  0  0  0  0
   63.0480   32.8190   47.5860 C   0  0  0  0  0  0  0  0  0  0  0  0
   60.1780   31.7030   46.7930 N   0  0  0  0  0  0  0  0  0  0  0  0
   59.1150   31.4540   45.9810 C   0  0  0  0  0  0  0  0  0  0  0  0
   56.2217   32.2169   41.3068 H   0  0  0  0  0  0  0  0  0  0  0  0
   57.3391   33.2562   40.3594 H   0  0  0  0  0  0  0  0  0  0  0  0
   57.5541   31.4728   40.3594 H   0  0  0  0  0  0  0  0  0  0  0  0
   59.2082   32.1958   41.8761 H   0  0  0  0  0  0  0  0  0  0  0  0
   58.1564   33.4832   42.5589 H   0  0  0  0  0  0  0  0  0  0  0  0
   55.8646   31.2007   42.2870 H   0  0  0  0  0  0  0  0  0  0  0  0
   57.1055   29.9157   42.0169 H   0  0  0  0  0  0  0  0  0  0  0  0
   56.3957   30.2295   44.8610 H   0  0  0  0  0  0  0  0  0  0  0  0
   54.9829   29.7992   43.8385 H   0  0  0  0  0  0  0  0  0  0  0  0
   56.4434   28.7534   43.8385 H   0  0  0  0  0  0  0  0  0  0  0  0
   56.8212   33.1991   44.1464 H   0  0  0  0  0  0  0  0  0  0  0  0
   56.5353   31.6208   44.9750 H   0  0  0  0  0  0  0  0  0  0  0  0
   58.3705   34.6665   45.1495 H   0  0  0  0  0  0  0  0  0  0  0  0
   60.5544   34.3069   49.4011 H   0  0  0  0  0  0  0  0  0  0  0  0
   62.4857   34.7874   50.9018 H   0  0  0  0  0  0  0  0  0  0  0  0
   64.7769   34.0112   50.2844 H   0  0  0  0  0  0  0  0  0  0  0  0
   65.1350   32.7427   48.1655 H   0  0  0  0  0  0  0  0  0  0  0  0
   63.2124   32.2555   46.6557 H   0  0  0  0  0  0  0  0  0  0  0  0
   60.6840   30.8880   47.2030 H   0  0  0  0  0  0  0  0  0  0  0  0
   58.7916   30.4175   45.8045 H   0  0  0  0  0  0  0  0  0  0  0  0
  1  2  1  0
  2  3  1  0
  3  4  1  0
  4  5  1  0
  3  6  1  0
  6  7  1  0
  7  8  2  0
  8  9  1  0
  9 10  2  0
 10 11  1  0
 11 12  2  0
 12 13  1  0
 13 14  2  0
 14 15  1  0
 15 16  2  0
 10 17  1  0
 17 18  2  0
 18  7  1  0
 16 11  1  0
  1 19  1  0
  1 20  1  0
  1 21  1  0
  2 22  1  0
  2 23  1  0
  4 24  1  0
  4 25  1  0
  5 26  1  0
  5 27  1  0
  5 28  1  0
  6 29  1  0
  6 30  1  0
  8 31  1  0
 12 32  1  0
 13 33  1  0
 14 34  1  0
 15 35  1  0
 16 36  1  0
 17 37  1  0
 18 38  1  0
M  CHG  1  17   1
M  END
>  <UniqueID>  (7) 
6

>  <SMILES>  (7) 
CCN(CC)Cc1cnc(-c2ccccc2)[nH+]c1

>  <Energy>  (7) 
40.77322840122138

>  <Genealogy>  (7) 
CCN(CC)Cc1cnc(-c2ccccc2)[nH+]c1 (protonated)
CCN(CC)Cc1cnc(-c2ccccc2)[nH+]c1 (3D coordinates assigned)
CCN(CC)Cc1cnc(-c2ccccc2)[nH+]c1 (optimized conformer: 40.77322840122138 kcal/mol)

>  <smiles>  (7) 
CCN(CC)Cc1cnc(-c2ccccc2)nc1

>  <score_type>  (7) 
oracle

>  <origin>  (7) 
adg

>  <m_score__min__energy>  (7) 
-4.6399999999999997

>  <m_primary>  (7) 
energy

$$$$
7:0
     RDKit          3D

 53 55  0  0  0  0  0  0  0  0999 V2000
   56.0710   30.1040   43.5920 C   0  0  0  0  0  0  0  0  0  0  0  0
   57.4180   30.7930   43.3810 C   0  0  0  0  0  0  0  0  0  0  0  0
   58.1890   30.8570   44.6510 N   0  0  0  0  0  0  0  0  0  0  0  0
   58.4300   32.0830   45.2540 C   0  0  0  0  0  0  0  0  0  0  0  0
   58.1220   33.3130   44.6090 C   0  0  0  0  0  0  0  0  0  0  0  0
   58.3450   34.5370   45.2360 C   0  0  0  0  0  0  0  0  0  0  0  0
   58.8900   34.5800   46.5100 C   0  0  0  0  0  0  0  0  0  0  0  0
   59.2370   33.3990   47.1580 C   0  0  0  0  0  0  0  0  0  0  0  0
   59.0330   32.1440   46.5420 C   0  0  0  0  0  0  0  0  0  0  0  0
   59.4510   30.9580   47.1750 C   0  0  0  0  0  0  0  0  0  0  0  0
   60.2000   31.0280   48.4070 N   0  0  0  0  0  0  0  0  0  0  0  0
   61.6550   30.8320   48.5150 C   0  0  0  0  0  0  0  0  0  0  0  0
   62.4580   31.4300   47.3350 C   0  0  0  0  0  0  0  0  0  0  0  0
   63.7150   32.1080   47.7520 N   0  0  0  0  0  0  0  0  0  0  0  0
   63.7210   33.5270   47.2980 C   0  0  0  0  0  0  0  0  0  0  0  0
   62.5360   33.8430   46.3780 C   0  0  0  0  0  0  0  0  0  0  0  0
   63.8620   32.0510   49.2330 C   0  0  0  0  0  0  0  0  0  0  0  0
   65.1480   32.7240   49.7250 C   0  0  0  0  0  0  0  0  0  0  0  0
   59.1850   29.7210   46.5610 C   0  0  0  0  0  0  0  0  0  0  0  0
   59.4420   28.5080   47.2360 C   0  0  0  0  0  0  0  0  0  0  0  0
   59.2840   27.2850   46.5950 C   0  0  0  0  0  0  0  0  0  0  0  0
   58.8580   27.2440   45.2760 C   0  0  0  0  0  0  0  0  0  0  0  0
   58.5270   28.4240   44.6110 C   0  0  0  0  0  0  0  0  0  0  0  0
   58.6230   29.6880   45.2550 C   0  0  0  0  0  0  0  0  0  0  0  0
   55.8752   30.0039   44.6698 H   0  0  0  0  0  0  0  0  0  0  0  0
   55.2749   30.7056   43.1291 H   0  0  0  0  0  0  0  0  0  0  0  0
   56.0929   29.1064   43.1291 H   0  0  0  0  0  0  0  0  0  0  0  0
   57.9980   30.2283   42.6362 H   0  0  0  0  0  0  0  0  0  0  0  0
   57.2353   31.8194   43.0300 H   0  0  0  0  0  0  0  0  0  0  0  0
   57.6988   33.2973   43.5938 H   0  0  0  0  0  0  0  0  0  0  0  0
   58.0877   35.4728   44.7182 H   0  0  0  0  0  0  0  0  0  0  0  0
   59.0480   35.5478   47.0084 H   0  0  0  0  0  0  0  0  0  0  0  0
   59.6769   33.4429   48.1653 H   0  0  0  0  0  0  0  0  0  0  0  0
   59.6990   31.3480   49.2670 H   0  0  0  0  0  0  0  0  0  0  0  0
   62.0003   31.3073   49.4450 H   0  0  0  0  0  0  0  0  0  0  0  0
   61.8324   29.7465   48.5041 H   0  0  0  0  0  0  0  0  0  0  0  0
   62.7157   30.6157   46.6418 H   0  0  0  0  0  0  0  0  0  0  0  0
   61.8204   32.1936   46.8655 H   0  0  0  0  0  0  0  0  0  0  0  0
   64.5230   31.6130   47.3140 H   0  0  0  0  0  0  0  0  0  0  0  0
   63.6696   34.1819   48.1803 H   0  0  0  0  0  0  0  0  0  0  0  0
   64.6467   33.6966   46.7285 H   0  0  0  0  0  0  0  0  0  0  0  0
   61.6513   34.0789   46.9876 H   0  0  0  0  0  0  0  0  0  0  0  0
   62.7847   34.7062   45.7432 H   0  0  0  0  0  0  0  0  0  0  0  0
   62.3218   32.9706   45.7432 H   0  0  0  0  0  0  0  0  0  0  0  0
   63.0010   32.5588   49.6921 H   0  0  0  0  0  0  0  0  0  0  0  0
   63.9098   30.9907   49.5220 H   0  0  0  0  0  0  0  0  0  0  0  0
   65.1607   32.7306   50.8249 H   0  0  0  0  0  0  0  0  0  0  0  0
   66.0196   32.1664   49.3516 H   0  0  0  0  0  0  0  0  0  0  0  0
   65.1867   33.7580   49.3516 H   0  0  0  0  0  0  0  0  0  0  0  0
   59.7723   28.5312   48.2850 H   0  0  0  0  0  0  0  0  0  0  0  0
   59.4968   26.3499   47.1338 H   0  0  0  0  0  0  0  0  0  0  0  0
   58.7811   26.2791   44.7535 H   0  0  0  0  0  0  0  0  0  0  0  0
   58.1846   28.3760   43.5668 H   0  0  0  0  0  0  0  0  0  0  0  0
  1  2  1  0
  2  3  1  0
  3  4  2  0
  4  5  1  0
  5  6  2  0
  6  7  1  0
  7  8  2  0
  8  9  1  0
  9 10  2  0
 10 11  1  0
 11 12  1  0
 12 13  1  0
 13 14  1  0
 14 15  1  0
 15 16  1  0
 14 17  1  0
 17 18  1  0
 10 19  1  0
 19 20  2  0
 20 21  1  0
 21 22  2  0
 22 23  1  0
 23 24  2  0
 24  3  1  0
  9  4  1  0
 24 19  1  0
  1 25  1  0
  1 26  1  0
  1 27  1  0
  2 28  1  0
  2 29  1  0
  5 30  1  0
  6 31  1  0
  7 32  1  0
  8 33  1  0
 11 34  1  0
 12 35  1  0
 12 36  1  0
 13 37  1  0
 13 38  1  0
 14 39  1  0
 15 40  1  0
 15 41  1  0
 16 42  1  0
 16 43  1  0
 16 44  1  0
 17 45  1  0
 17 46  1  0
 18 47  1  0
 18 48  1  0
 18 49  1  0
 20 50  1  0
 21 51  1  0
 22 52  1  0
 23 53  1  0
M  CHG  2   3   1  14   1
M  END
>  <UniqueID>  (8) 
7

>  <SMILES>  (8) 
CC[n+]1c2ccccc2c(NCC[NH+](CC)CC)c2ccccc21

>  <Energy>  (8) 
79.5990768291334

>  <Genealogy>  (8) 
CC[n+]1c2ccccc2c(NCC[NH+](CC)CC)c2ccccc21 (protonated)
CC[n+]1c2ccccc2c(NCC[NH+](CC)CC)c2ccccc21 (3D coordinates assigned)
CC[n+]1c2ccccc2c(NCC[NH+](CC)CC)c2ccccc21 (optimized conformer: 79.5990768291334 kcal/mol)

>  <smiles>  (8) 
CCN(CC)CCNc1c2ccccc2[n+](CC)c2ccccc12

>  <score_type>  (8) 
oracle

>  <origin>  (8) 
adg

>  <m_score__min__energy>  (8) 
-4.8499999999999996

>  <m_primary>  (8) 
energy

$$$$
8:0
     RDKit          3D

 48 49  0  0  0  0  0  0  0  0999 V2000
   63.2980   33.8020   46.7360 C   0  0  0  0  0  0  0  0  0  0  0  0
   63.1130   32.4330   47.3990 C   0  0  0  0  0  0  0  0  0  0  0  0
   61.9240   32.3130   48.2860 N   0  0  0  0  0  0  0  0  0  0  0  0
   61.5270   30.8960   48.5360 C   0  0  0  0  0  0  0  0  0  0  0  0
   60.6770   30.2390   47.4340 C   0  0  0  0  0  0  0  0  0  0  0  0
   61.9810   33.1380   49.5240 C   0  0  0  0  0  0  0  0  0  0  0  0
   60.7830   34.0970   49.6840 C   0  0  0  0  0  0  0  0  0  0  0  0
   59.6210   33.6070   49.0110 O   0  0  0  0  0  0  0  0  0  0  0  0
   59.2710   33.8830   47.6790 C   0  0  0  0  0  0  0  0  0  0  0  0
   59.9030   34.9490   47.0330 C   0  0  0  0  0  0  0  0  0  0  0  0
   59.5970   35.2520   45.7440 N   0  0  0  0  0  0  0  0  0  0  0  0
   58.6740   34.5440   45.0420 C   0  0  0  0  0  0  0  0  0  0  0  0
   58.0020   33.4720   45.6430 C   0  0  0  0  0  0  0  0  0  0  0  0
   57.0050   32.6630   44.8580 C   0  0  0  0  0  0  0  0  0  0  0  0
   57.1640   31.2260   45.1520 N   0  0  0  0  0  0  0  0  0  0  0  0
   56.2930   30.3800   44.3290 C   0  0  0  0  0  0  0  0  0  0  0  0
   56.9770   29.0270   44.2140 C   0  0  0  0  0  0  0  0  0  0  0  0
   58.4320   29.2760   44.5820 C   0  0  0  0  0  0  0  0  0  0  0  0
   58.5250   30.7660   44.8680 C   0  0  0  0  0  0  0  0  0  0  0  0
   58.3150   33.1360   46.9680 C   0  0  0  0  0  0  0  0  0  0  0  0
   63.4024   34.5743   47.5123 H   0  0  0  0  0  0  0  0  0  0  0  0
   64.2023   33.7870   46.1099 H   0  0  0  0  0  0  0  0  0  0  0  0
   62.4222   34.0275   46.1099 H   0  0  0  0  0  0  0  0  0  0  0  0
   63.0210   31.6793   46.6031 H   0  0  0  0  0  0  0  0  0  0  0  0
   63.9912   32.2859   48.0448 H   0  0  0  0  0  0  0  0  0  0  0  0
   61.1360   32.7090   47.7190 H   0  0  0  0  0  0  0  0  0  0  0  0
   62.4459   30.3028   48.6534 H   0  0  0  0  0  0  0  0  0  0  0  0
   60.8922   30.9154   49.4341 H   0  0  0  0  0  0  0  0  0  0  0  0
   59.8869   29.6283   47.8954 H   0  0  0  0  0  0  0  0  0  0  0  0
   60.2190   31.0202   46.8095 H   0  0  0  0  0  0  0  0  0  0  0  0
   61.3175   29.5989   46.8095 H   0  0  0  0  0  0  0  0  0  0  0  0
   62.0033   32.4620   50.3915 H   0  0  0  0  0  0  0  0  0  0  0  0
   62.8851   33.7607   49.4548 H   0  0  0  0  0  0  0  0  0  0  0  0
   60.5551   34.2075   50.7544 H   0  0  0  0  0  0  0  0  0  0  0  0
   61.0558   35.0646   49.2375 H   0  0  0  0  0  0  0  0  0  0  0  0
   60.6531   35.5468   47.5715 H   0  0  0  0  0  0  0  0  0  0  0  0
   58.4538   34.8135   43.9985 H   0  0  0  0  0  0  0  0  0  0  0  0
   55.9871   32.9784   45.1308 H   0  0  0  0  0  0  0  0  0  0  0  0
   57.1769   32.8289   43.7843 H   0  0  0  0  0  0  0  0  0  0  0  0
   55.3099   30.2678   44.8096 H   0  0  0  0  0  0  0  0  0  0  0  0
   56.1317   30.8266   43.3368 H   0  0  0  0  0  0  0  0  0  0  0  0
   56.5224   28.3058   44.9092 H   0  0  0  0  0  0  0  0  0  0  0  0
   56.8778   28.6035   43.2036 H   0  0  0  0  0  0  0  0  0  0  0  0
   58.7086   28.6946   45.4739 H   0  0  0  0  0  0  0  0  0  0  0  0
   59.1164   28.9698   43.7771 H   0  0  0  0  0  0  0  0  0  0  0  0
   59.1748   30.9453   45.7372 H   0  0  0  0  0  0  0  0  0  0  0  0
   58.9549   31.3070   44.0121 H   0  0  0  0  0  0  0  0  0  0  0  0
   57.8116   32.2862   47.4522 H   0  0  0  0  0  0  0  0  0  0  0  0
  1  2  1  0
  2  3  1  0
  3  4  1  0
  4  5  1  0
  3  6  1  0
  6  7  1  0
  7  8  1  0
  8  9  1  0
  9 10  2  0
 10 11  1  0
 11 12  2  0
 12 13  1  0
 13 14  1  0
 14 15  1  0
 15 16  1  0
 16 17  1  0
 17 18  1  0
 18 19  1  0
 13 20  2  0
 20  9  1  0
 19 15  1  0
  1 21  1  0
  1 22  1  0
  1 23  1  0
  2 24  1  0
  2 25  1  0
  3 26  1  0
  4 27  1  0
  4 28  1  0
  5 29  1  0
  5 30  1  0
  5 31  1  0
  6 32  1  0
  6 33  1  0
  7 34  1  0
  7 35  1  0
 10 36  1  0
 12 37  1  0
 14 38  1  0
 14 39  1  0
 16 40  1  0
 16 41  1  0
 17 42  1  0
 17 43  1  0
 18 44  1  0
 18 45  1  0
 19 46  1  0
 19 47  1  0
 20 48  1  0
M  CHG  1   3   1
M  END
>  <UniqueID>  (9) 
8

>  <SMILES>  (9) 
CC[NH+](CC)CCOc1cncc(CN2CCCC2)c1

>  <Energy>  (9) 
55.825410248586124

>  <Genealogy>  (9) 
CC[NH+](CC)CCOc1cncc(CN2CCCC2)c1 (protonated)
CC[NH+](CC)CCOc1cncc(CN2CCCC2)c1 (3D coordinates assigned)
CC[NH+](CC)CCOc1cncc(CN2CCCC2)c1 (nonaromatic ring conformer: 55.825410248586124 kcal/mol)

>  <smiles>  (9) 
CCN(CC)CCOc1cncc(CN2CCCC2)c1

>  <score_type>  (9) 
oracle

>  <origin>  (9) 
adg

>  <m_score__min__energy>  (9) 
-4.5199999999999996

>  <m_primary>  (9) 
energy

$$$$
9:0
     RDKit          3D

 53 55  0  0  0  0  0  0  0  0999 V2000
   56.6430   31.3540   44.7170 O   0  0  0  0  0  0  0  0  0  0  0  0
   57.8450   31.1340   44.6990 C   0  0  0  0  0  0  0  0  0  0  0  0
   58.7780   32.2230   45.1750 C   0  0  0  0  0  0  0  0  0  0  0  0
   58.0570   33.3060   45.8850 N   0  0  0  0  0  0  0  0  0  0  0  0
   57.9950   33.0640   47.3530 C   0  0  0  0  0  0  0  0  0  0  0  0
   59.0030   33.9000   48.1690 C   0  0  0  0  0  0  0  0  0  0  0  0
   60.1790   34.2300   47.3580 N   0  0  0  0  0  0  0  0  0  0  0  0
   61.5050   33.8850   47.7950 C   0  0  0  0  0  0  0  0  0  0  0  0
   62.4520   33.3980   46.8770 C   0  0  0  0  0  0  0  0  0  0  0  0
   63.7650   33.1340   47.2850 C   0  0  0  0  0  0  0  0  0  0  0  0
   64.1370   33.3480   48.6120 C   0  0  0  0  0  0  0  0  0  0  0  0
   63.2040   33.8320   49.5350 C   0  0  0  0  0  0  0  0  0  0  0  0
   63.6830   34.1260   51.1930 Cl  0  0  0  0  0  0  0  0  0  0  0  0
   61.8930   34.1060   49.1270 C   0  0  0  0  0  0  0  0  0  0  0  0
   59.9850   34.8950   46.0680 C   0  0  0  0  0  0  0  0  0  0  0  0
   58.5550   34.6640   45.5540 C   0  0  0  0  0  0  0  0  0  0  0  0
   58.3670   29.8820   44.1650 N   0  0  0  0  0  0  0  0  0  0  0  0
   59.3220   29.2060   45.0820 C   0  0  0  0  0  0  0  0  0  0  0  0
   58.6250   28.4230   46.2160 C   0  0  0  0  0  0  0  0  0  0  0  0
   57.6180   27.5110   45.6470 N   0  0  0  0  0  0  0  0  0  0  0  0
   57.0510   26.5670   46.6370 C   0  0  0  0  0  0  0  0  0  0  0  0
   55.9510   25.6180   46.0980 C   0  0  0  0  0  0  0  0  0  0  0  0
   54.7780   26.3220   45.7770 O   0  0  0  0  0  0  0  0  0  0  0  0
   56.6040   28.2580   44.8880 C   0  0  0  0  0  0  0  0  0  0  0  0
   57.2800   28.9800   43.7170 C   0  0  0  0  0  0  0  0  0  0  0  0
   59.5178   31.7819   45.8592 H   0  0  0  0  0  0  0  0  0  0  0  0
   59.2631   32.6628   44.2911 H   0  0  0  0  0  0  0  0  0  0  0  0
   56.9806   33.3082   47.7015 H   0  0  0  0  0  0  0  0  0  0  0  0
   58.2543   32.0070   47.5130 H   0  0  0  0  0  0  0  0  0  0  0  0
   58.5179   34.8311   48.4972 H   0  0  0  0  0  0  0  0  0  0  0  0
   59.3277   33.3114   49.0397 H   0  0  0  0  0  0  0  0  0  0  0  0
   62.1593   33.2232   45.8311 H   0  0  0  0  0  0  0  0  0  0  0  0
   64.5021   32.7584   46.5600 H   0  0  0  0  0  0  0  0  0  0  0  0
   65.1672   33.1355   48.9338 H   0  0  0  0  0  0  0  0  0  0  0  0
   61.1638   34.4959   49.8524 H   0  0  0  0  0  0  0  0  0  0  0  0
   60.1568   35.9749   46.1878 H   0  0  0  0  0  0  0  0  0  0  0  0
   60.6967   34.4766   45.3410 H   0  0  0  0  0  0  0  0  0  0  0  0
   57.8881   35.4084   46.0134 H   0  0  0  0  0  0  0  0  0  0  0  0
   58.5680   34.7631   44.4585 H   0  0  0  0  0  0  0  0  0  0  0  0
   58.9180   30.1250   43.3070 H   0  0  0  0  0  0  0  0  0  0  0  0
   59.9321   28.5033   44.4955 H   0  0  0  0  0  0  0  0  0  0  0  0
   59.9333   29.9897   45.5534 H   0  0  0  0  0  0  0  0  0  0  0  0
   59.3743   27.8393   46.7708 H   0  0  0  0  0  0  0  0  0  0  0  0
   58.1299   29.1321   46.8958 H   0  0  0  0  0  0  0  0  0  0  0  0
   57.8733   25.9476   47.0245 H   0  0  0  0  0  0  0  0  0  0  0  0
   56.5654   27.1883   47.4039 H   0  0  0  0  0  0  0  0  0  0  0  0
   56.3245   25.1141   45.1943 H   0  0  0  0  0  0  0  0  0  0  0  0
   55.7111   24.8855   46.8828 H   0  0  0  0  0  0  0  0  0  0  0  0
   54.0680   25.9890   46.3820 H   0  0  0  0  0  0  0  0  0  0  0  0
   55.8461   27.5606   44.5018 H   0  0  0  0  0  0  0  0  0  0  0  0
   56.1192   28.9947   45.5455 H   0  0  0  0  0  0  0  0  0  0  0  0
   57.7029   28.2282   43.0344 H   0  0  0  0  0  0  0  0  0  0  0  0
   56.5180   29.5944   43.2152 H   0  0  0  0  0  0  0  0  0  0  0  0
  1  2  2  0
  2  3  1  0
  3  4  1  0
  4  5  1  0
  5  6  1  0
  6  7  1  0
  7  8  1  0
  8  9  2  0
  9 10  1  0
 10 11  2  0
 11 12  1  0
 12 13  1  0
 12 14  2  0
  7 15  1  0
 15 16  1  0
  2 17  1  0
 17 18  1  0
 18 19  1  0
 19 20  1  0
 20 21  1  0
 21 22  1  0
 22 23  1  0
 20 24  1  0
 24 25  1  0
 16  4  1  0
 25 17  1  0
 14  8  1  0
  3 26  1  0
  3 27  1  0
  5 28  1  0
  5 29  1  0
  6 30  1  0
  6 31  1  0
  9 32  1  0
 10 33  1  0
 11 34  1  0
 14 35  1  0
 15 36  1  0
 15 37  1  0
 16 38  1  0
 16 39  1  0
 17 40  1  0
 18 41  1  0
 18 42  1  0
 19 43  1  0
 19 44  1  0
 21 45  1  0
 21 46  1  0
 22 47  1  0
 22 48  1  0
 23 49  1  0
 24 50  1  0
 24 51  1  0
 25 52  1  0
 25 53  1  0
M  CHG  1  17   1
M  END
>  <UniqueID>  (10) 
9

>  <SMILES>  (10) 
O=C(CN1CCN(c2cccc(Cl)c2)CC1)[NH+]1CCN(CCO)CC1

>  <Energy>  (10) 
74.90133290432017

>  <Genealogy>  (10) 
O=C(CN1CCN(c2cccc(Cl)c2)CC1)[NH+]1CCN(CCO)CC1 (protonated)
O=C(CN1CCN(c2cccc(Cl)c2)CC1)[NH+]1CCN(CCO)CC1 (3D coordinates assigned)
O=C(CN1CCN(c2cccc(Cl)c2)CC1)[NH+]1CCN(CCO)CC1 (nonaromatic ring conformer: 74.90133290432017 kcal/mol)

>  <smiles>  (10) 
O=C(CN1CCN(c2cccc(Cl)c2)CC1)N1CCN(CCO)CC1

>  <score_type>  (10) 
oracle

>  <origin>  (10) 
adg

>  <m_score__min__energy>  (10) 
-8.0800000000000001

>  <m_primary>  (10) 
energy

$$$$
10:0
     RDKit          3D

 64 67  0  0  0  0  0  0  0  0999 V2000
   57.7270   33.8580   44.9740 C   0  0  0  0  0  0  0  0  0  0  0  0
   57.0520   32.4940   44.8460 C   0  0  0  0  0  0  0  0  0  0  0  0
   57.6190   31.7440   43.7020 N   0  0  0  0  0  0  0  0  0  0  0  0
   58.1490   32.6640   42.6690 C   0  0  0  0  0  0  0  0  0  0  0  0
   57.5640   32.3180   41.3010 C   0  0  0  0  0  0  0  0  0  0  0  0
   56.6230   30.8100   43.1250 C   0  0  0  0  0  0  0  0  0  0  0  0
   56.9750   29.3630   43.5010 C   0  0  0  0  0  0  0  0  0  0  0  0
   58.4170   29.1820   43.7690 N   0  0  0  0  0  0  0  0  0  0  0  0
   58.6760   28.7120   45.1250 C   0  0  0  0  0  0  0  0  0  0  0  0
   58.3860   27.3640   45.4800 C   0  0  0  0  0  0  0  0  0  0  0  0
   57.7520   26.4690   44.5820 C   0  0  0  0  0  0  0  0  0  0  0  0
   57.5200   25.1410   44.9310 C   0  0  0  0  0  0  0  0  0  0  0  0
   57.9130   24.6680   46.1750 C   0  0  0  0  0  0  0  0  0  0  0  0
   58.5380   25.5230   47.0790 C   0  0  0  0  0  0  0  0  0  0  0  0
   58.7830   26.8800   46.7550 C   0  0  0  0  0  0  0  0  0  0  0  0
   59.4040   27.7180   47.6510 N   0  0  0  0  0  0  0  0  0  0  0  0
   60.2940   27.1250   48.6740 C   0  0  0  0  0  0  0  0  0  0  0  0
   59.3740   29.0840   47.4550 C   0  0  0  0  0  0  0  0  0  0  0  0
   59.1790   29.5850   46.1370 C   0  0  0  0  0  0  0  0  0  0  0  0
   59.4950   30.9390   45.8810 C   0  0  0  0  0  0  0  0  0  0  0  0
   59.9010   31.7920   46.8990 C   0  0  0  0  0  0  0  0  0  0  0  0
   59.8970   31.3670   48.2290 C   0  0  0  0  0  0  0  0  0  0  0  0
   60.1880   32.2780   49.2690 C   0  0  0  0  0  0  0  0  0  0  0  0
   60.5960   33.5800   48.9460 O   0  0  0  0  0  0  0  0  0  0  0  0
   59.6910   34.5900   48.5100 C   0  0  0  0  0  0  0  0  0  0  0  0
   60.0250   31.8880   50.6110 C   0  0  0  0  0  0  0  0  0  0  0  0
   60.2640   32.8250   51.6290 O   0  0  0  0  0  0  0  0  0  0  0  0
   61.5360   33.3880   51.9310 C   0  0  0  0  0  0  0  0  0  0  0  0
   59.5820   30.5880   50.8990 C   0  0  0  0  0  0  0  0  0  0  0  0
   59.3390   29.6780   49.8720 C   0  0  0  0  0  0  0  0  0  0  0  0
   59.5680   30.0200   48.5230 C   0  0  0  0  0  0  0  0  0  0  0  0
   57.8505   34.1076   46.0382 H   0  0  0  0  0  0  0  0  0  0  0  0
   58.7133   33.8261   44.4880 H   0  0  0  0  0  0  0  0  0  0  0  0
   57.1034   34.6228   44.4880 H   0  0  0  0  0  0  0  0  0  0  0  0
   57.2136   31.9212   45.7711 H   0  0  0  0  0  0  0  0  0  0  0  0
   55.9752   32.6426   44.6773 H   0  0  0  0  0  0  0  0  0  0  0  0
   57.8767   33.6975   42.9293 H   0  0  0  0  0  0  0  0  0  0  0  0
   59.2434   32.5621   42.6265 H   0  0  0  0  0  0  0  0  0  0  0  0
   56.6242   31.7621   41.4341 H   0  0  0  0  0  0  0  0  0  0  0  0
   57.3661   33.2444   40.7419 H   0  0  0  0  0  0  0  0  0  0  0  0
   58.2805   31.6983   40.7419 H   0  0  0  0  0  0  0  0  0  0  0  0
   55.6249   31.0551   43.5171 H   0  0  0  0  0  0  0  0  0  0  0  0
   56.6300   30.9087   42.0295 H   0  0  0  0  0  0  0  0  0  0  0  0
   56.4110   29.0861   44.4039 H   0  0  0  0  0  0  0  0  0  0  0  0
   56.7112   28.7224   42.6466 H   0  0  0  0  0  0  0  0  0  0  0  0
   58.8050   28.4910   43.0870 H   0  0  0  0  0  0  0  0  0  0  0  0
   58.9450   30.0450   43.5230 H   0  0  0  0  0  0  0  0  0  0  0  0
   57.4376   26.8300   43.5916 H   0  0  0  0  0  0  0  0  0  0  0  0
   57.0240   24.4652   44.2188 H   0  0  0  0  0  0  0  0  0  0  0  0
   57.7308   23.6178   46.4469 H   0  0  0  0  0  0  0  0  0  0  0  0
   58.8469   25.1379   48.0620 H   0  0  0  0  0  0  0  0  0  0  0  0
   59.9179   27.3756   49.6769 H   0  0  0  0  0  0  0  0  0  0  0  0
   60.3148   26.0319   48.5527 H   0  0  0  0  0  0  0  0  0  0  0  0
   61.3108   27.5268   48.5527 H   0  0  0  0  0  0  0  0  0  0  0  0
   59.4177   31.3250   44.8539 H   0  0  0  0  0  0  0  0  0  0  0  0
   60.2292   32.8131   46.6549 H   0  0  0  0  0  0  0  0  0  0  0  0
   59.2462   35.0864   49.3851 H   0  0  0  0  0  0  0  0  0  0  0  0
   60.2329   35.3311   47.9041 H   0  0  0  0  0  0  0  0  0  0  0  0
   58.8951   34.1324   47.9041 H   0  0  0  0  0  0  0  0  0  0  0  0
   61.6625   33.4440   53.0223 H   0  0  0  0  0  0  0  0  0  0  0  0
   62.3278   32.7563   51.5021 H   0  0  0  0  0  0  0  0  0  0  0  0
   61.6007   34.3988   51.5021 H   0  0  0  0  0  0  0  0  0  0  0  0
   59.4252   30.2846   51.9446 H   0  0  0  0  0  0  0  0  0  0  0  0
   58.9616   28.6745   50.1180 H   0  0  0  0  0  0  0  0  0  0  0  0
  1  2  1  0
  2  3  1  0
  3  4  1  0
  4  5  1  0
  3  6  1  0
  6  7  1  0
  7  8  1  0
  8  9  1  0
  9 10  2  0
 10 11  1  0
 11 12  2  0
 12 13  1  0
 13 14  2  0
 14 15  1  0
 15 16  2  0
 16 17  1  0
 16 18  1  0
 18 19  2  0
 19 20  1  0
 20 21  2  0
 21 22  1  0
 22 23  2  0
 23 24  1  0
 24 25  1  0
 23 26  1  0
 26 27  1  0
 27 28  1  0
 26 29  2  0
 29 30  1  0
 30 31  2  0
 19  9  1  0
 31 22  1  0
 15 10  1  0
 31 18  1  0
  1 32  1  0
  1 33  1  0
  1 34  1  0
  2 35  1  0
  2 36  1  0
  4 37  1  0
  4 38  1  0
  5 39  1  0
  5 40  1  0
  5 41  1  0
  6 42  1  0
  6 43  1  0
  7 44  1  0
  7 45  1  0
  8 46  1  0
  8 47  1  0
 11 48  1  0
 12 49  1  0
 13 50  1  0
 14 51  1  0
 17 52  1  0
 17 53  1  0
 17 54  1  0
 20 55  1  0
 21 56  1  0
 25 57  1  0
 25 58  1  0
 25 59  1  0
 28 60  1  0
 28 61  1  0
 28 62  1  0
 29 63  1  0
 30 64  1  0
M  CHG  2   8   1  16   1
M  END
>  <UniqueID>  (11) 
10

>  <SMILES>  (11) 
CCN(CC)CC[NH2+]c1c2ccccc2[n+](C)c2c1ccc1c(OC)c(OC)ccc12

>  <Energy>  (11) 
115.2617283773358

>  <Genealogy>  (11) 
CCN(CC)CC[NH2+]c1c2ccccc2[n+](C)c2c1ccc1c(OC)c(OC)ccc12 (protonated)
CCN(CC)CC[NH2+]c1c2ccccc2[n+](C)c2c1ccc1c(OC)c(OC)ccc12 (3D coordinates assigned)
CCN(CC)CC[NH2+]c1c2ccccc2[n+](C)c2c1ccc1c(OC)c(OC)ccc12 (optimized conformer: 115.2617283773358 kcal/mol)

>  <smiles>  (11) 
CCN(CC)CCNc1c2ccccc2[n+](C)c2c1ccc1c(OC)c(OC)ccc12

>  <score_type>  (11) 
oracle

>  <origin>  (11) 
adg

>  <m_score__min__energy>  (11) 
-4.2999999999999998

>  <m_primary>  (11) 
energy

$$$$
11:0
     RDKit          3D

 58 59  0  0  0  0  0  0  0  0999 V2000
   59.2690   34.9230   47.2700 C   0  0  0  0  0  0  0  0  0  0  0  0
   59.1980   33.8490   46.2680 N   0  0  0  0  0  0  0  0  0  0  0  0
   59.1620   34.4390   44.9150 C   0  0  0  0  0  0  0  0  0  0  0  0
   58.0070   32.9990   46.5040 C   0  0  0  0  0  0  0  0  0  0  0  0
   57.4020   32.5600   45.1650 C   0  0  0  0  0  0  0  0  0  0  0  0
   57.1080   31.1760   45.1910 O   0  0  0  0  0  0  0  0  0  0  0  0
   56.2550   30.8060   44.1210 C   0  0  0  0  0  0  0  0  0  0  0  0
   56.6980   29.4690   43.5220 C   0  0  0  0  0  0  0  0  0  0  0  0
   56.8230   28.4930   44.5440 O   0  0  0  0  0  0  0  0  0  0  0  0
   57.7800   27.5060   44.2040 C   0  0  0  0  0  0  0  0  0  0  0  0
   59.2040   28.0130   44.5130 C   0  0  0  0  0  0  0  0  0  0  0  0
   59.2630   28.8880   45.7110 N   0  0  0  0  0  0  0  0  0  0  0  0
   60.4990   29.7030   45.7260 C   0  0  0  0  0  0  0  0  0  0  0  0
   60.4310   30.7460   46.8510 C   0  0  0  0  0  0  0  0  0  0  0  0
   59.8200   30.1740   48.0560 N   0  0  0  0  0  0  0  0  0  0  0  0
   59.4140   31.0310   49.1430 C   0  0  0  0  0  0  0  0  0  0  0  0
   58.5010   30.5710   50.1060 C   0  0  0  0  0  0  0  0  0  0  0  0
   58.1170   31.3920   51.1740 C   0  0  0  0  0  0  0  0  0  0  0  0
   58.6410   32.6860   51.3010 C   0  0  0  0  0  0  0  0  0  0  0  0
   58.2080   33.5540   52.4540 C   0  0  0  0  0  0  0  0  0  0  0  0
   56.8410   33.7700   52.3890 F   0  0  0  0  0  0  0  0  0  0  0  0
   58.8600   34.7720   52.3820 F   0  0  0  0  0  0  0  0  0  0  0  0
   58.4970   32.9640   53.6730 F   0  0  0  0  0  0  0  0  0  0  0  0
   59.5240   33.1630   50.3140 C   0  0  0  0  0  0  0  0  0  0  0  0
   59.9080   32.3410   49.2490 C   0  0  0  0  0  0  0  0  0  0  0  0
   59.7610   28.7160   48.1980 C   0  0  0  0  0  0  0  0  0  0  0  0
   59.1530   28.0570   46.9410 C   0  0  0  0  0  0  0  0  0  0  0  0
   59.2401   34.4857   48.2789 H   0  0  0  0  0  0  0  0  0  0  0  0
   60.2062   35.4841   47.1403 H   0  0  0  0  0  0  0  0  0  0  0  0
   58.4138   35.6026   47.1403 H   0  0  0  0  0  0  0  0  0  0  0  0
   59.0952   35.5341   44.9942 H   0  0  0  0  0  0  0  0  0  0  0  0
   60.0785   34.1659   44.3714 H   0  0  0  0  0  0  0  0  0  0  0  0
   58.2855   34.0565   44.3714 H   0  0  0  0  0  0  0  0  0  0  0  0
   58.3027   32.1093   47.0792 H   0  0  0  0  0  0  0  0  0  0  0  0
   57.2580   33.5753   47.0669 H   0  0  0  0  0  0  0  0  0  0  0  0
   56.4758   33.1247   44.9824 H   0  0  0  0  0  0  0  0  0  0  0  0
   58.1273   32.7575   44.3619 H   0  0  0  0  0  0  0  0  0  0  0  0
   55.2248   30.7118   44.4949 H   0  0  0  0  0  0  0  0  0  0  0  0
   56.3053   31.5801   43.3411 H   0  0  0  0  0  0  0  0  0  0  0  0
   55.9500   29.1336   42.7885 H   0  0  0  0  0  0  0  0  0  0  0  0
   57.6729   29.6010   43.0299 H   0  0  0  0  0  0  0  0  0  0  0  0
   57.5845   26.5945   44.7879 H   0  0  0  0  0  0  0  0  0  0  0  0
   57.7030   27.2880   43.1286 H   0  0  0  0  0  0  0  0  0  0  0  0
   59.8563   27.1435   44.6819 H   0  0  0  0  0  0  0  0  0  0  0  0
   59.5328   28.6131   43.6517 H   0  0  0  0  0  0  0  0  0  0  0  0
   58.4370   29.5360   45.6870 H   0  0  0  0  0  0  0  0  0  0  0  0
   61.3657   29.0461   45.8911 H   0  0  0  0  0  0  0  0  0  0  0  0
   60.5998   30.2211   44.7609 H   0  0  0  0  0  0  0  0  0  0  0  0
   61.4496   31.0857   47.0898 H   0  0  0  0  0  0  0  0  0  0  0  0
   59.8150   31.5915   46.5109 H   0  0  0  0  0  0  0  0  0  0  0  0
   58.0837   29.5568   50.0208 H   0  0  0  0  0  0  0  0  0  0  0  0
   57.3988   31.0185   51.9187 H   0  0  0  0  0  0  0  0  0  0  0  0
   59.9148   34.1891   50.3805 H   0  0  0  0  0  0  0  0  0  0  0  0
   60.6033   32.7245   48.4878 H   0  0  0  0  0  0  0  0  0  0  0  0
   60.7794   28.3287   48.3493 H   0  0  0  0  0  0  0  0  0  0  0  0
   59.1226   28.4755   49.0609 H   0  0  0  0  0  0  0  0  0  0  0  0
   59.6737   27.1045   46.7631 H   0  0  0  0  0  0  0  0  0  0  0  0
   58.0796   27.9210   47.1394 H   0  0  0  0  0  0  0  0  0  0  0  0
  1  2  1  0
  2  3  1  0
  2  4  1  0
  4  5  1  0
  5  6  1  0
  6  7  1  0
  7  8  1  0
  8  9  1  0
  9 10  1  0
 10 11  1  0
 11 12  1  0
 12 13  1  0
 13 14  1  0
 14 15  1  0
 15 16  1  0
 16 17  2  0
 17 18  1  0
 18 19  2  0
 19 20  1  0
 20 21  1  0
 20 22  1  0
 20 23  1  0
 19 24  1  0
 24 25  2  0
 15 26  1  0
 26 27  1  0
 27 12  1  0
 25 16  1  0
  1 28  1  0
  1 29  1  0
  1 30  1  0
  3 31  1  0
  3 32  1  0
  3 33  1  0
  4 34  1  0
  4 35  1  0
  5 36  1  0
  5 37  1  0
  7 38  1  0
  7 39  1  0
  8 40  1  0
  8 41  1  0
 10 42  1  0
 10 43  1  0
 11 44  1  0
 11 45  1  0
 12 46  1  0
 13 47  1  0
 13 48  1  0
 14 49  1  0
 14 50  1  0
 17 51  1  0
 18 52  1  0
 24 53  1  0
 25 54  1  0
 26 55  1  0
 26 56  1  0
 27 57  1  0
 27 58  1  0
M  CHG  1  12   1
M  END
>  <UniqueID>  (12) 
11

>  <SMILES>  (12) 
CN(C)CCOCCOCC[NH+]1CCN(c2ccc(C(F)(F)F)cc2)CC1

>  <Energy>  (12) 
71.62675553369148

>  <Genealogy>  (12) 
CN(C)CCOCCOCC[NH+]1CCN(c2ccc(C(F)(F)F)cc2)CC1 (protonated)
CN(C)CCOCCOCC[NH+]1CCN(c2ccc(C(F)(F)F)cc2)CC1 (3D coordinates assigned)
CN(C)CCOCCOCC[NH+]1CCN(c2ccc(C(F)(F)F)cc2)CC1 (nonaromatic ring conformer: 71.62675553369148 kcal/mol)

>  <smiles>  (12) 
CN(C)CCOCCOCCN1CCN(c2ccc(C(F)(F)F)cc2)CC1

>  <score_type>  (12) 
oracle

>  <origin>  (12) 
adg

>  <m_score__min__energy>  (12) 
-4.8399999999999999

>  <m_primary>  (12) 
energy

$$$$
12:0
     RDKit          3D

 37 37  0  0  0  0  0  0  0  0999 V2000
   56.2710   29.6570   42.6180 C   0  0  0  0  0  0  0  0  0  0  0  0
   55.8160   29.7400   44.0690 C   0  0  0  0  0  0  0  0  0  0  0  0
   56.9610   30.1230   44.9310 N   0  0  0  0  0  0  0  0  0  0  0  0
   57.5300   28.9700   45.6690 C   0  0  0  0  0  0  0  0  0  0  0  0
   59.0290   29.1000   45.9820 C   0  0  0  0  0  0  0  0  0  0  0  0
   57.9890   30.9140   44.2210 C   0  0  0  0  0  0  0  0  0  0  0  0
   57.6150   32.4040   44.1650 C   0  0  0  0  0  0  0  0  0  0  0  0
   56.7650   32.7930   45.3030 N   0  0  0  0  0  0  0  0  0  0  0  0
   57.3500   33.8630   46.1310 C   0  0  0  0  0  0  0  0  0  0  0  0
   58.7920   33.5720   46.4540 C   0  0  0  0  0  0  0  0  0  0  0  0
   59.8130   34.4200   45.9900 C   0  0  0  0  0  0  0  0  0  0  0  0
   61.1470   34.1670   46.3240 C   0  0  0  0  0  0  0  0  0  0  0  0
   61.4720   33.0750   47.1360 C   0  0  0  0  0  0  0  0  0  0  0  0
   63.2950   32.7240   47.5810 Br  0  0  0  0  0  0  0  0  0  0  0  0
   60.4600   32.2440   47.6250 C   0  0  0  0  0  0  0  0  0  0  0  0
   59.1240   32.4970   47.2960 C   0  0  0  0  0  0  0  0  0  0  0  0
   57.3526   29.4597   42.5836 H   0  0  0  0  0  0  0  0  0  0  0  0
   55.7333   28.8421   42.1112 H   0  0  0  0  0  0  0  0  0  0  0  0
   56.0557   30.6092   42.1112 H   0  0  0  0  0  0  0  0  0  0  0  0
   55.0211   30.4948   44.1603 H   0  0  0  0  0  0  0  0  0  0  0  0
   55.4326   28.7593   44.3872 H   0  0  0  0  0  0  0  0  0  0  0  0
   56.9867   28.8670   46.6199 H   0  0  0  0  0  0  0  0  0  0  0  0
   57.4183   28.0912   45.0170 H   0  0  0  0  0  0  0  0  0  0  0  0
   59.1762   29.1128   47.0720 H   0  0  0  0  0  0  0  0  0  0  0  0
   59.5695   28.2454   45.5490 H   0  0  0  0  0  0  0  0  0  0  0  0
   59.4143   30.0349   45.5490 H   0  0  0  0  0  0  0  0  0  0  0  0
   58.9492   30.8061   44.7468 H   0  0  0  0  0  0  0  0  0  0  0  0
   58.0624   30.5378   43.1899 H   0  0  0  0  0  0  0  0  0  0  0  0
   58.5365   33.0043   44.1862 H   0  0  0  0  0  0  0  0  0  0  0  0
   57.0510   32.5824   43.2376 H   0  0  0  0  0  0  0  0  0  0  0  0
   56.6610   31.9500   45.9160 H   0  0  0  0  0  0  0  0  0  0  0  0
   57.2897   34.8149   45.5830 H   0  0  0  0  0  0  0  0  0  0  0  0
   56.7862   33.9230   47.0736 H   0  0  0  0  0  0  0  0  0  0  0  0
   59.5611   35.2867   45.3612 H   0  0  0  0  0  0  0  0  0  0  0  0
   61.9421   34.8275   45.9478 H   0  0  0  0  0  0  0  0  0  0  0  0
   60.7145   31.3897   48.2696 H   0  0  0  0  0  0  0  0  0  0  0  0
   58.3295   31.8513   47.6984 H   0  0  0  0  0  0  0  0  0  0  0  0
  1  2  1  0
  2  3  1  0
  3  4  1  0
  4  5  1  0
  3  6  1  0
  6  7  1  0
  7  8  1  0
  8  9  1  0
  9 10  1  0
 10 11  2  0
 11 12  1  0
 12 13  2  0
 13 14  1  0
 13 15  1  0
 15 16  2  0
 16 10  1  0
  1 17  1  0
  1 18  1  0
  1 19  1  0
  2 20  1  0
  2 21  1  0
  4 22  1  0
  4 23  1  0
  5 24  1  0
  5 25  1  0
  5 26  1  0
  6 27  1  0
  6 28  1  0
  7 29  1  0
  7 30  1  0
  8 31  1  0
  9 32  1  0
  9 33  1  0
 11 34  1  0
 12 35  1  0
 15 36  1  0
 16 37  1  0
M  END
>  <UniqueID>  (13) 
12

>  <SMILES>  (13) 
CCN(CC)CCNCc1ccc(Br)cc1

>  <Energy>  (13) 
33.49040316212522

>  <Genealogy>  (13) 
CCN(CC)CCNCc1ccc(Br)cc1 (3D coordinates assigned)
CCN(CC)CCNCc1ccc(Br)cc1 (optimized conformer: 33.49040316212522 kcal/mol)

>  <smiles>  (13) 
CCN(CC)CCNCc1ccc(Br)cc1

>  <score_type>  (13) 
oracle

>  <origin>  (13) 
adg

>  <m_score__min__energy>  (13) 
-6.04

>  <m_primary>  (13) 
energy

$$$$
13:0
     RDKit          3D

 44 45  0  0  0  0  0  0  0  0999 V2000
   56.9570   29.0560   43.5260 C   0  0  0  0  0  0  0  0  0  0  0  0
   56.5820   28.9880   44.8980 O   0  0  0  0  0  0  0  0  0  0  0  0
   57.5210   28.7890   45.9130 C   0  0  0  0  0  0  0  0  0  0  0  0
   57.6020   27.5490   46.5770 C   0  0  0  0  0  0  0  0  0  0  0  0
   56.5060   26.0660   46.0610 Br  0  0  0  0  0  0  0  0  0  0  0  0
   58.5450   27.3590   47.5910 C   0  0  0  0  0  0  0  0  0  0  0  0
   59.4110   28.3920   47.9500 C   0  0  0  0  0  0  0  0  0  0  0  0
   60.6790   28.1300   49.3530 Br  0  0  0  0  0  0  0  0  0  0  0  0
   59.3530   29.6170   47.2820 C   0  0  0  0  0  0  0  0  0  0  0  0
   58.4180   29.8240   46.2540 C   0  0  0  0  0  0  0  0  0  0  0  0
   58.3920   31.1430   45.5250 C   0  0  0  0  0  0  0  0  0  0  0  0
   57.0520   31.7480   45.6290 N   0  0  0  0  0  0  0  0  0  0  0  0
   56.9300   33.0050   44.8720 C   0  0  0  0  0  0  0  0  0  0  0  0
   57.4550   34.1860   45.6920 C   0  0  0  0  0  0  0  0  0  0  0  0
   57.7730   33.7540   47.0530 N   0  0  0  0  0  0  0  0  0  0  0  0
   59.1250   33.5610   47.4940 C   0  0  0  0  0  0  0  0  0  0  0  0
   60.1940   34.0510   46.7290 C   0  0  0  0  0  0  0  0  0  0  0  0
   61.5120   33.8730   47.1570 C   0  0  0  0  0  0  0  0  0  0  0  0
   61.7790   33.1900   48.3490 C   0  0  0  0  0  0  0  0  0  0  0  0
   63.4390   32.9600   48.8890 S   0  0  0  0  0  0  0  0  0  0  0  0
   64.5190   33.2230   47.5650 N   0  0  0  0  0  0  0  0  0  0  0  0
   63.7520   33.9300   49.9920 O   0  0  0  0  0  0  0  0  0  0  0  0
   63.6190   31.5610   49.4100 O   0  0  0  0  0  0  0  0  0  0  0  0
   60.7160   32.7170   49.1280 C   0  0  0  0  0  0  0  0  0  0  0  0
   59.3940   32.9070   48.7130 C   0  0  0  0  0  0  0  0  0  0  0  0
   58.0950   32.2730   49.7160 Cl  0  0  0  0  0  0  0  0  0  0  0  0
   58.0368   29.2518   43.4503 H   0  0  0  0  0  0  0  0  0  0  0  0
   56.7222   28.1006   43.0339 H   0  0  0  0  0  0  0  0  0  0  0  0
   56.4017   29.8681   43.0339 H   0  0  0  0  0  0  0  0  0  0  0  0
   58.6046   26.3901   48.1085 H   0  0  0  0  0  0  0  0  0  0  0  0
   60.0442   30.4254   47.5626 H   0  0  0  0  0  0  0  0  0  0  0  0
   59.1339   31.8212   45.9717 H   0  0  0  0  0  0  0  0  0  0  0  0
   58.6320   30.9753   44.4647 H   0  0  0  0  0  0  0  0  0  0  0  0
   56.3570   31.0720   45.2340 H   0  0  0  0  0  0  0  0  0  0  0  0
   57.5124   32.9241   43.9423 H   0  0  0  0  0  0  0  0  0  0  0  0
   55.8678   33.1780   44.6444 H   0  0  0  0  0  0  0  0  0  0  0  0
   58.3630   34.5841   45.2156 H   0  0  0  0  0  0  0  0  0  0  0  0
   56.6806   34.9661   45.7346 H   0  0  0  0  0  0  0  0  0  0  0  0
   57.0020   33.3080   47.5980 H   0  0  0  0  0  0  0  0  0  0  0  0
   59.9930   34.5792   45.7853 H   0  0  0  0  0  0  0  0  0  0  0  0
   62.3424   34.2709   46.5552 H   0  0  0  0  0  0  0  0  0  0  0  0
   64.4690   32.3750   46.9580 H   0  0  0  0  0  0  0  0  0  0  0  0
   65.4850   33.2530   47.9610 H   0  0  0  0  0  0  0  0  0  0  0  0
   60.9220   32.1925   50.0727 H   0  0  0  0  0  0  0  0  0  0  0  0
  1  2  1  0
  2  3  1  0
  3  4  2  0
  4  5  1  0
  4  6  1  0
  6  7  2  0
  7  8  1  0
  7  9  1  0
  9 10  2  0
 10 11  1  0
 11 12  1  0
 12 13  1  0
 13 14  1  0
 14 15  1  0
 15 16  1  0
 16 17  2  0
 17 18  1  0
 18 19  2  0
 19 20  1  0
 20 21  1  0
 20 22  2  0
 20 23  2  0
 19 24  1  0
 24 25  2  0
 25 26  1  0
 10  3  1  0
 25 16  1  0
  1 27  1  0
  1 28  1  0
  1 29  1  0
  6 30  1  0
  9 31  1  0
 11 32  1  0
 11 33  1  0
 12 34  1  0
 13 35  1  0
 13 36  1  0
 14 37  1  0
 14 38  1  0
 15 39  1  0
 17 40  1  0
 18 41  1  0
 21 42  1  0
 21 43  1  0
 24 44  1  0
M  END
>  <UniqueID>  (14) 
13

>  <SMILES>  (14) 
COc1c(Br)cc(Br)cc1CNCCNc1ccc(S(N)(=O)=O)cc1Cl

>  <Energy>  (14) 
43.3898027844098

>  <Genealogy>  (14) 
COc1c(Br)cc(Br)cc1CNCCNc1ccc(S(N)(=O)=O)cc1Cl (3D coordinates assigned)
COc1c(Br)cc(Br)cc1CNCCNc1ccc(S(N)(=O)=O)cc1Cl (optimized conformer: 43.3898027844098 kcal/mol)

>  <smiles>  (14) 
COc1c(Br)cc(Br)cc1CNCCNc1ccc(S(N)(=O)=O)cc1Cl

>  <score_type>  (14) 
oracle

>  <origin>  (14) 
adg

>  <m_score__min__energy>  (14) 
-8.3699999999999992

>  <m_primary>  (14) 
energy

$$$$
14:0
     RDKit          3D

 59 63  0  0  0  0  0  0  0  0999 V2000
   60.0787   34.1230   51.0970 H   0  0  0  0  0  0  0  0  0  0  0  0
   59.6210   33.5560   50.2730 C   0  0  0  0  0  0  0  0  0  0  0  0
   59.6320   33.9180   48.9750 N   0  0  0  0  0  0  0  0  0  0  0  0
   58.9790   32.9920   48.2890 N   0  0  0  0  0  0  0  0  0  0  0  0
   58.7980   33.0460   46.8340 C   0  0  0  0  0  0  0  0  0  0  0  0
   59.4667   33.8205   46.4304 H   0  0  0  0  0  0  0  0  0  0  0  0
   59.2110   31.7110   46.1680 C   0  0  0  0  0  0  0  0  0  0  0  0
   59.8416   31.1454   46.8697 H   0  0  0  0  0  0  0  0  0  0  0  0
   59.7559   31.9499   45.2428 H   0  0  0  0  0  0  0  0  0  0  0  0
   57.9950   30.8490   45.7900 C   0  0  0  0  0  0  0  0  0  0  0  0
   57.4693   30.5621   46.7127 H   0  0  0  0  0  0  0  0  0  0  0  0
   58.3725   29.9739   45.2407 H   0  0  0  0  0  0  0  0  0  0  0  0
   57.0330   31.5520   44.8960 N   0  0  0  0  0  0  0  0  0  0  0  0
   57.2000   31.1640   43.4790 C   0  0  0  0  0  0  0  0  0  0  0  0
   56.2128   30.9447   43.0462 H   0  0  0  0  0  0  0  0  0  0  0  0
   57.8451   30.2744   43.4303 H   0  0  0  0  0  0  0  0  0  0  0  0
   57.8570   32.2900   42.6830 C   0  0  0  0  0  0  0  0  0  0  0  0
   58.2871   33.0271   43.3771 H   0  0  0  0  0  0  0  0  0  0  0  0
   58.6543   31.8743   42.0493 H   0  0  0  0  0  0  0  0  0  0  0  0
   57.1028   32.7795   42.0493 H   0  0  0  0  0  0  0  0  0  0  0  0
   57.0320   33.0280   45.0410 C   0  0  0  0  0  0  0  0  0  0  0  0
   56.0373   33.4116   44.7699 H   0  0  0  0  0  0  0  0  0  0  0  0
   57.8082   33.4369   44.3775 H   0  0  0  0  0  0  0  0  0  0  0  0
   57.3560   33.4600   46.4750 C   0  0  0  0  0  0  0  0  0  0  0  0
   56.6537   32.9757   47.1695 H   0  0  0  0  0  0  0  0  0  0  0  0
   57.2623   34.5531   46.5542 H   0  0  0  0  0  0  0  0  0  0  0  0
   58.5390   32.0310   49.1270 C   0  0  0  0  0  0  0  0  0  0  0  0
   57.9590   31.1412   48.8408 H   0  0  0  0  0  0  0  0  0  0  0  0
   58.9420   32.3570   50.4040 C   0  0  0  0  0  0  0  0  0  0  0  0
   58.6210   31.6190   51.6390 C   0  0  0  0  0  0  0  0  0  0  0  0
   59.5390   31.2080   52.6060 C   0  0  0  0  0  0  0  0  0  0  0  0
   60.6193   31.4117   52.5692 H   0  0  0  0  0  0  0  0  0  0  0  0
   58.9180   30.5240   53.5960 N   0  0  0  0  0  0  0  0  0  0  0  0
   59.3640   30.1040   54.4410 H   0  0  0  0  0  0  0  0  0  0  0  0
   57.6150   30.5090   53.2720 C   0  0  0  0  0  0  0  0  0  0  0  0
   56.5650   29.9530   53.9920 C   0  0  0  0  0  0  0  0  0  0  0  0
   56.7415   29.4161   54.9357 H   0  0  0  0  0  0  0  0  0  0  0  0
   55.2700   30.1020   53.4700 C   0  0  0  0  0  0  0  0  0  0  0  0
   54.4101   29.6669   54.0003 H   0  0  0  0  0  0  0  0  0  0  0  0
   55.0700   30.8140   52.2580 C   0  0  0  0  0  0  0  0  0  0  0  0
   53.7080   30.9950   51.7190 C   0  0  0  0  0  0  0  0  0  0  0  0
   53.2100   30.3270   50.6580 N   0  0  0  0  0  0  0  0  0  0  0  0
   51.9710   30.7630   50.4860 N   0  0  0  0  0  0  0  0  0  0  0  0
   51.7690   31.6760   51.4500 C   0  0  0  0  0  0  0  0  0  0  0  0
   50.6520   32.3230   51.5970 N   0  0  0  0  0  0  0  0  0  0  0  0
   49.9370   32.4330   52.8680 C   0  0  0  0  0  0  0  0  0  0  0  0
   48.8530   32.4176   52.6816 H   0  0  0  0  0  0  0  0  0  0  0  0
   50.3180   31.2500   53.7570 C   0  0  0  0  0  0  0  0  0  0  0  0
   50.2245   31.5404   54.8138 H   0  0  0  0  0  0  0  0  0  0  0  0
   49.6470   30.4036   53.5486 H   0  0  0  0  0  0  0  0  0  0  0  0
   51.3568   30.9543   53.5486 H   0  0  0  0  0  0  0  0  0  0  0  0
   50.2800   33.7560   53.5620 C   0  0  0  0  0  0  0  0  0  0  0  0
   50.2442   33.6179   54.6527 H   0  0  0  0  0  0  0  0  0  0  0  0
   51.2904   34.0743   53.2657 H   0  0  0  0  0  0  0  0  0  0  0  0
   49.5516   34.5251   53.2657 H   0  0  0  0  0  0  0  0  0  0  0  0
   52.8240   31.8300   52.2120 O   0  0  0  0  0  0  0  0  0  0  0  0
   56.1450   31.3460   51.5910 N   0  0  0  0  0  0  0  0  0  0  0  0
   55.9990   31.9050   50.7230 H   0  0  0  0  0  0  0  0  0  0  0  0
   57.3950   31.1660   52.0950 C   0  0  0  0  0  0  0  0  0  0  0  0
  1  2  1  0
  2  3  2  0
  3  4  1  0
  4  5  1  0
  5  6  1  0
  5  7  1  0
  7  8  1  0
  7  9  1  0
  7 10  1  0
 10 11  1  0
 10 12  1  0
 10 13  1  0
 13 14  1  0
 14 15  1  0
 14 16  1  0
 14 17  1  0
 17 18  1  0
 17 19  1  0
 17 20  1  0
 13 21  1  0
 21 22  1  0
 21 23  1  0
 21 24  1  0
 24 25  1  0
 24 26  1  0
  4 27  1  0
 27 28  1  0
 27 29  2  0
 29 30  1  0
 30 31  2  0
 31 32  1  0
 31 33  1  0
 33 34  1  0
 33 35  1  0
 35 36  2  0
 36 37  1  0
 36 38  1  0
 38 39  1  0
 38 40  2  0
 40 41  1  0
 41 42  2  0
 42 43  1  0
 43 44  1  0
 44 45  2  0
 45 46  1  0
 46 47  1  0
 46 48  1  0
 48 49  1  0
 48 50  1  0
 48 51  1  0
 46 52  1  0
 52 53  1  0
 52 54  1  0
 52 55  1  0
 44 56  1  0
 40 57  1  0
 57 58  1  0
 57 59  2  0
 29  2  1  0
 59 30  1  0
 24  5  1  0
 59 35  1  0
 56 41  1  0
M  CHG  2  43  -1  57   1
M  END
>  <UniqueID>  (15) 
14

>  <SMILES>  (15) 
CCN1CCC(n2cc(-c3c[nH]c4ccc(-c5n[n-]/c(=N/C(C)C)o5)[nH+]c34)cn2)CC1

>  <Energy>  (15) 
166.77805885300847

>  <Genealogy>  (15) 
CCN1CCC(n2cc(-c3c[nH]c4ccc(-c5n[n-]c(=NC(C)C)o5)[nH+]c34)cn2)CC1 (protonated)
CCN1CCC(n2cc(-c3c[nH]c4ccc(-c5n[n-]/c(=N/C(C)C)o5)[nH+]c34)cn2)CC1 (cis-trans isomerization)
CCN1CCC(n2cc(-c3c[nH]c4ccc(-c5n[n-]/c(=N/C(C)C)o5)[nH+]c34)cn2)CC1 (3D coordinates assigned)
CCN1CCC(n2cc(-c3c[nH]c4ccc(-c5n[n-]/c(=N/C(C)C)o5)[nH+]c34)cn2)CC1 (nonaromatic ring conformer: 166.77805885300847 kcal/mol)

>  <smiles>  (15) 
CCN1CCC(n2cc(-c3c[nH]c4ccc(-c5n[nH]c(=NC(C)C)o5)nc34)cn2)CC1

>  <score_type>  (15) 
oracle

>  <origin>  (15) 
adg

>  <m_score__min__energy>  (15) 
-10.49

>  <m_primary>  (15) 
energy

$$$$
15:0
     RDKit          3D

 38 40  0  0  0  0  0  0  0  0999 V2000
   61.4260   31.7120   48.5520 C   0  0  0  0  0  0  0  0  0  0  0  0
   60.3870   31.4410   47.5330 N   0  0  0  0  0  0  0  0  0  0  0  0
   59.9860   30.1420   47.2830 C   0  0  0  0  0  0  0  0  0  0  0  0
   60.3070   29.0800   48.1680 C   0  0  0  0  0  0  0  0  0  0  0  0
   59.9070   27.7710   47.8970 C   0  0  0  0  0  0  0  0  0  0  0  0
   59.1630   27.4890   46.7590 C   0  0  0  0  0  0  0  0  0  0  0  0
   58.8050   28.5140   45.8870 C   0  0  0  0  0  0  0  0  0  0  0  0
   59.2090   29.8450   46.1300 C   0  0  0  0  0  0  0  0  0  0  0  0
   58.8170   30.8890   45.2710 C   0  0  0  0  0  0  0  0  0  0  0  0
   58.1050   30.6010   44.0530 N   0  0  0  0  0  0  0  0  0  0  0  0
   56.6950   30.9520   43.8750 C   0  0  0  0  0  0  0  0  0  0  0  0
   55.8620   29.7160   43.5070 C   0  0  0  0  0  0  0  0  0  0  0  0
   56.4590   28.9720   42.3970 N   0  0  0  0  0  0  0  0  0  0  0  0
   59.0600   32.2210   45.6530 C   0  0  0  0  0  0  0  0  0  0  0  0
   58.5650   33.3000   44.8880 C   0  0  0  0  0  0  0  0  0  0  0  0
   58.7750   34.6160   45.2930 C   0  0  0  0  0  0  0  0  0  0  0  0
   59.4700   34.8820   46.4660 C   0  0  0  0  0  0  0  0  0  0  0  0
   59.9880   33.8340   47.2270 C   0  0  0  0  0  0  0  0  0  0  0  0
   59.8270   32.4840   46.8200 C   0  0  0  0  0  0  0  0  0  0  0  0
   60.9926   31.5989   49.5567 H   0  0  0  0  0  0  0  0  0  0  0  0
   62.2554   31.0001   48.4283 H   0  0  0  0  0  0  0  0  0  0  0  0
   61.8021   32.7383   48.4283 H   0  0  0  0  0  0  0  0  0  0  0  0
   60.8804   29.2922   49.0824 H   0  0  0  0  0  0  0  0  0  0  0  0
   60.1820   26.9598   48.5871 H   0  0  0  0  0  0  0  0  0  0  0  0
   58.8560   26.4544   46.5460 H   0  0  0  0  0  0  0  0  0  0  0  0
   58.1999   28.2839   44.9977 H   0  0  0  0  0  0  0  0  0  0  0  0
   58.5510   29.9820   43.3390 H   0  0  0  0  0  0  0  0  0  0  0  0
   56.3096   31.3793   44.8125 H   0  0  0  0  0  0  0  0  0  0  0  0
   56.6167   31.6833   43.0570 H   0  0  0  0  0  0  0  0  0  0  0  0
   55.7968   29.0559   44.3845 H   0  0  0  0  0  0  0  0  0  0  0  0
   54.8636   30.0559   43.1945 H   0  0  0  0  0  0  0  0  0  0  0  0
   56.4630   27.9490   42.6100 H   0  0  0  0  0  0  0  0  0  0  0  0
   55.8890   29.1330   41.5350 H   0  0  0  0  0  0  0  0  0  0  0  0
   57.4330   29.2990   42.2190 H   0  0  0  0  0  0  0  0  0  0  0  0
   58.0071   33.0988   43.9616 H   0  0  0  0  0  0  0  0  0  0  0  0
   58.3898   35.4463   44.6828 H   0  0  0  0  0  0  0  0  0  0  0  0
   59.6122   35.9218   46.7956 H   0  0  0  0  0  0  0  0  0  0  0  0
   60.5301   34.0576   48.1577 H   0  0  0  0  0  0  0  0  0  0  0  0
  1  2  1  0
  2  3  2  0
  3  4  1  0
  4  5  2  0
  5  6  1  0
  6  7  2  0
  7  8  1  0
  8  9  2  0
  9 10  1  0
 10 11  1  0
 11 12  1  0
 12 13  1  0
  9 14  1  0
 14 15  2  0
 15 16  1  0
 16 17  2  0
 17 18  1  0
 18 19  2  0
 19  2  1  0
  8  3  1  0
 19 14  1  0
  1 20  1  0
  1 21  1  0
  1 22  1  0
  4 23  1  0
  5 24  1  0
  6 25  1  0
  7 26  1  0
 10 27  1  0
 11 28  1  0
 11 29  1  0
 12 30  1  0
 12 31  1  0
 13 32  1  0
 13 33  1  0
 13 34  1  0
 15 35  1  0
 16 36  1  0
 17 37  1  0
 18 38  1  0
M  CHG  2   2   1  13   1
M  END
>  <UniqueID>  (16) 
15

>  <SMILES>  (16) 
C[n+]1c2ccccc2c(NCC[NH3+])c2ccccc21

>  <Energy>  (16) 
63.38730897442372

>  <Genealogy>  (16) 
C[n+]1c2ccccc2c(NCC[NH3+])c2ccccc21 (protonated)
C[n+]1c2ccccc2c(NCC[NH3+])c2ccccc21 (3D coordinates assigned)
C[n+]1c2ccccc2c(NCC[NH3+])c2ccccc21 (optimized conformer: 63.38730897442372 kcal/mol)

>  <smiles>  (16) 
C[n+]1c2ccccc2c(NCCN)c2ccccc21

>  <score_type>  (16) 
oracle

>  <origin>  (16) 
adg

>  <m_score__min__energy>  (16) 
-4.3799999999999999

>  <m_primary>  (16) 
energy

$$$$
16:0
     RDKit          3D

 43 46  0  0  0  0  0  0  0  0999 V2000
   60.3880   33.5000   52.5690 C   0  0  0  0  0  0  0  0  0  0  0  0
   61.7710   33.4030   52.0040 C   0  0  0  0  0  0  0  0  0  0  0  0
   62.8880   33.5740   52.7560 N   0  0  0  0  0  0  0  0  0  0  0  0
   63.9010   33.4080   51.8900 C   0  0  0  0  0  0  0  0  0  0  0  0
   65.2680   33.4920   52.1400 C   0  0  0  0  0  0  0  0  0  0  0  0
   66.1430   33.3060   51.0540 C   0  0  0  0  0  0  0  0  0  0  0  0
   65.6340   33.0500   49.7600 C   0  0  0  0  0  0  0  0  0  0  0  0
   64.2450   32.9740   49.5410 C   0  0  0  0  0  0  0  0  0  0  0  0
   63.4050   33.1500   50.6430 C   0  0  0  0  0  0  0  0  0  0  0  0
   62.0570   33.1490   50.6960 N   0  0  0  0  0  0  0  0  0  0  0  0
   61.1360   32.9220   49.6170 C   0  0  0  0  0  0  0  0  0  0  0  0
   61.0230   31.6520   49.0360 C   0  0  0  0  0  0  0  0  0  0  0  0
   60.1290   31.4310   47.9850 C   0  0  0  0  0  0  0  0  0  0  0  0
   59.3280   32.4800   47.4940 C   0  0  0  0  0  0  0  0  0  0  0  0
   58.3770   32.2470   46.3770 C   0  0  0  0  0  0  0  0  0  0  0  0
   57.2440   32.9840   46.0580 C   0  0  0  0  0  0  0  0  0  0  0  0
   56.6570   32.4580   44.9660 N   0  0  0  0  0  0  0  0  0  0  0  0
   57.3740   31.4100   44.5930 N   0  0  0  0  0  0  0  0  0  0  0  0
   57.0790   30.6040   43.4120 C   0  0  0  0  0  0  0  0  0  0  0  0
   56.2910   29.3550   43.7980 C   0  0  0  0  0  0  0  0  0  0  0  0
   55.4400   29.6390   44.8740 O   0  0  0  0  0  0  0  0  0  0  0  0
   58.4280   31.2530   45.4140 C   0  0  0  0  0  0  0  0  0  0  0  0
   59.4460   33.7520   48.0820 C   0  0  0  0  0  0  0  0  0  0  0  0
   60.3420   33.9700   49.1340 C   0  0  0  0  0  0  0  0  0  0  0  0
   60.4397   33.4964   53.6678 H   0  0  0  0  0  0  0  0  0  0  0  0
   59.9169   34.4334   52.2272 H   0  0  0  0  0  0  0  0  0  0  0  0
   59.7912   32.6415   52.2272 H   0  0  0  0  0  0  0  0  0  0  0  0
   62.9480   33.7850   53.7770 H   0  0  0  0  0  0  0  0  0  0  0  0
   65.6505   33.6966   53.1509 H   0  0  0  0  0  0  0  0  0  0  0  0
   67.2301   33.3601   51.2127 H   0  0  0  0  0  0  0  0  0  0  0  0
   66.3280   32.9092   48.9183 H   0  0  0  0  0  0  0  0  0  0  0  0
   63.8361   32.7828   48.5379 H   0  0  0  0  0  0  0  0  0  0  0  0
   61.6423   30.8233   49.4098 H   0  0  0  0  0  0  0  0  0  0  0  0
   60.0503   30.4292   47.5375 H   0  0  0  0  0  0  0  0  0  0  0  0
   56.8817   33.8624   46.6121 H   0  0  0  0  0  0  0  0  0  0  0  0
   56.4852   31.2021   42.7051 H   0  0  0  0  0  0  0  0  0  0  0  0
   58.0269   30.2959   42.9467 H   0  0  0  0  0  0  0  0  0  0  0  0
   55.6918   29.0219   42.9377 H   0  0  0  0  0  0  0  0  0  0  0  0
   56.9935   28.5616   44.0929 H   0  0  0  0  0  0  0  0  0  0  0  0
   55.7480   30.5060   45.2470 H   0  0  0  0  0  0  0  0  0  0  0  0
   59.1971   30.4706   45.3343 H   0  0  0  0  0  0  0  0  0  0  0  0
   58.8281   34.5832   47.7113 H   0  0  0  0  0  0  0  0  0  0  0  0
   60.4235   34.9702   49.5845 H   0  0  0  0  0  0  0  0  0  0  0  0
  1  2  1  0
  2  3  2  0
  3  4  1  0
  4  5  2  0
  5  6  1  0
  6  7  2  0
  7  8  1  0
  8  9  2  0
  9 10  1  0
 10 11  1  0
 11 12  2  0
 12 13  1  0
 13 14  2  0
 14 15  1  0
 15 16  1  0
 16 17  2  0
 17 18  1  0
 18 19  1  0
 19 20  1  0
 20 21  1  0
 18 22  1  0
 14 23  1  0
 23 24  2  0
 10  2  1  0
 24 11  1  0
  9  4  1  0
 22 15  2  0
  1 25  1  0
  1 26  1  0
  1 27  1  0
  3 28  1  0
  5 29  1  0
  6 30  1  0
  7 31  1  0
  8 32  1  0
 12 33  1  0
 13 34  1  0
 16 35  1  0
 19 36  1  0
 19 37  1  0
 20 38  1  0
 20 39  1  0
 21 40  1  0
 22 41  1  0
 23 42  1  0
 24 43  1  0
M  CHG  1   3   1
M  END
>  <UniqueID>  (17) 
16

>  <SMILES>  (17) 
Cc1[nH+]c2ccccc2n1-c1ccc(-c2cnn(CCO)c2)cc1

>  <Energy>  (17) 
119.3166800590141

>  <Genealogy>  (17) 
Cc1[nH+]c2ccccc2n1-c1ccc(-c2cnn(CCO)c2)cc1 (protonated)
Cc1[nH+]c2ccccc2n1-c1ccc(-c2cnn(CCO)c2)cc1 (3D coordinates assigned)
Cc1[nH+]c2ccccc2n1-c1ccc(-c2cnn(CCO)c2)cc1 (optimized conformer: 119.3166800590141 kcal/mol)

>  <smiles>  (17) 
Cc1nc2ccccc2n1-c1ccc(-c2cnn(CCO)c2)cc1

>  <score_type>  (17) 
oracle

>  <origin>  (17) 
adg

>  <m_score__min__energy>  (17) 
-6.4000000000000004

>  <m_primary>  (17) 
energy

$$$$
17:0
     RDKit          3D

 51 55  0  0  0  0  0  0  0  0999 V2000
   58.1360   32.3600   42.3200 C   0  0  0  0  0  0  0  0  0  0  0  0
   58.3920   32.7130   43.7120 N   0  0  0  0  0  0  0  0  0  0  0  0
   58.6800   33.9460   44.1180 N   0  0  0  0  0  0  0  0  0  0  0  0
   58.8520   33.8780   45.4520 C   0  0  0  0  0  0  0  0  0  0  0  0
   59.1690   34.9140   46.3210 C   0  0  0  0  0  0  0  0  0  0  0  0
   59.3010   34.6070   47.6890 C   0  0  0  0  0  0  0  0  0  0  0  0
   59.1150   33.2760   48.1610 C   0  0  0  0  0  0  0  0  0  0  0  0
   59.2580   32.9660   49.6070 C   0  0  0  0  0  0  0  0  0  0  0  0
   60.1120   33.7230   50.4270 C   0  0  0  0  0  0  0  0  0  0  0  0
   60.2350   33.4190   51.7840 C   0  0  0  0  0  0  0  0  0  0  0  0
   59.5020   32.3580   52.3160 C   0  0  0  0  0  0  0  0  0  0  0  0
   58.6780   31.6310   51.5160 N   0  0  0  0  0  0  0  0  0  0  0  0
   58.5410   31.9060   50.1910 C   0  0  0  0  0  0  0  0  0  0  0  0
   58.7940   32.2510   47.2400 C   0  0  0  0  0  0  0  0  0  0  0  0
   58.6720   32.5970   45.8960 C   0  0  0  0  0  0  0  0  0  0  0  0
   58.3800   31.8660   44.7680 C   0  0  0  0  0  0  0  0  0  0  0  0
   58.1050   30.4530   44.7060 C   0  0  0  0  0  0  0  0  0  0  0  0
   57.8750   29.2710   44.6530 C   0  0  0  0  0  0  0  0  0  0  0  0
   57.6010   27.8600   44.5900 C   0  0  0  0  0  0  0  0  0  0  0  0
   56.9300   27.2220   45.6370 C   0  0  0  0  0  0  0  0  0  0  0  0
   56.6670   25.8540   45.5640 C   0  0  0  0  0  0  0  0  0  0  0  0
   57.0850   25.1240   44.4350 C   0  0  0  0  0  0  0  0  0  0  0  0
   56.8360   23.7050   44.3160 N   0  0  0  0  0  0  0  0  0  0  0  0
   56.5730   23.1280   42.9900 C   0  0  0  0  0  0  0  0  0  0  0  0
   56.9810   21.6530   42.9600 C   0  0  0  0  0  0  0  0  0  0  0  0
   56.3970   20.9500   44.0390 O   0  0  0  0  0  0  0  0  0  0  0  0
   56.9280   21.4300   45.2590 C   0  0  0  0  0  0  0  0  0  0  0  0
   56.5210   22.8880   45.4960 C   0  0  0  0  0  0  0  0  0  0  0  0
   57.7320   25.7790   43.4290 N   0  0  0  0  0  0  0  0  0  0  0  0
   57.9960   27.1110   43.4800 C   0  0  0  0  0  0  0  0  0  0  0  0
   57.4906   31.4701   42.2801 H   0  0  0  0  0  0  0  0  0  0  0  0
   57.6351   33.1991   41.8151 H   0  0  0  0  0  0  0  0  0  0  0  0
   59.0892   32.1446   41.8151 H   0  0  0  0  0  0  0  0  0  0  0  0
   59.3122   35.9406   45.9528 H   0  0  0  0  0  0  0  0  0  0  0  0
   59.5511   35.4058   48.4027 H   0  0  0  0  0  0  0  0  0  0  0  0
   60.6855   34.5580   49.9982 H   0  0  0  0  0  0  0  0  0  0  0  0
   60.9033   34.0102   52.4273 H   0  0  0  0  0  0  0  0  0  0  0  0
   59.5909   32.1095   53.3839 H   0  0  0  0  0  0  0  0  0  0  0  0
   57.8658   31.2962   49.5727 H   0  0  0  0  0  0  0  0  0  0  0  0
   58.6455   31.2137   47.5746 H   0  0  0  0  0  0  0  0  0  0  0  0
   56.6096   27.7980   46.5177 H   0  0  0  0  0  0  0  0  0  0  0  0
   56.1360   25.3484   46.3840 H   0  0  0  0  0  0  0  0  0  0  0  0
   55.4996   23.2119   42.7645 H   0  0  0  0  0  0  0  0  0  0  0  0
   57.1607   23.6763   42.2391 H   0  0  0  0  0  0  0  0  0  0  0  0
   56.6452   21.2048   42.0132 H   0  0  0  0  0  0  0  0  0  0  0  0
   58.0756   21.5874   43.0467 H   0  0  0  0  0  0  0  0  0  0  0  0
   56.5483   20.8112   46.0854 H   0  0  0  0  0  0  0  0  0  0  0  0
   58.0255   21.3747   45.2107 H   0  0  0  0  0  0  0  0  0  0  0  0
   55.4396   22.9354   45.6917 H   0  0  0  0  0  0  0  0  0  0  0  0
   57.0785   23.2786   46.3601 H   0  0  0  0  0  0  0  0  0  0  0  0
   58.5213   27.5995   42.6461 H   0  0  0  0  0  0  0  0  0  0  0  0
  1  2  1  0
  2  3  1  0
  3  4  2  0
  4  5  1  0
  5  6  2  0
  6  7  1  0
  7  8  1  0
  8  9  2  0
  9 10  1  0
 10 11  2  0
 11 12  1  0
 12 13  2  0
  7 14  2  0
 14 15  1  0
 15 16  2  0
 16 17  1  0
 17 18  3  0
 18 19  1  0
 19 20  2  0
 20 21  1  0
 21 22  2  0
 22 23  1  0
 23 24  1  0
 24 25  1  0
 25 26  1  0
 26 27  1  0
 27 28  1  0
 22 29  1  0
 29 30  2  0
 16  2  1  0
 30 19  1  0
 15  4  1  0
 28 23  1  0
 13  8  1  0
  1 31  1  0
  1 32  1  0
  1 33  1  0
  5 34  1  0
  6 35  1  0
  9 36  1  0
 10 37  1  0
 11 38  1  0
 13 39  1  0
 14 40  1  0
 20 41  1  0
 21 42  1  0
 24 43  1  0
 24 44  1  0
 25 45  1  0
 25 46  1  0
 27 47  1  0
 27 48  1  0
 28 49  1  0
 28 50  1  0
 30 51  1  0
M  END
>  <UniqueID>  (18) 
17

>  <SMILES>  (18) 
Cn1nc2ccc(-c3cccnc3)cc2c1C#Cc1ccc(N2CCOCC2)nc1

>  <Energy>  (18) 
101.62748294412354

>  <Genealogy>  (18) 
Cn1nc2ccc(-c3cccnc3)cc2c1C#Cc1ccc(N2CCOCC2)nc1 (3D coordinates assigned)
Cn1nc2ccc(-c3cccnc3)cc2c1C#Cc1ccc(N2CCOCC2)nc1 (nonaromatic ring conformer: 101.62748294412354 kcal/mol)

>  <smiles>  (18) 
Cn1nc2ccc(-c3cccnc3)cc2c1C#Cc1ccc(N2CCOCC2)nc1

>  <score_type>  (18) 
oracle

>  <origin>  (18) 
adg

>  <m_score__min__energy>  (18) 
-8.3900000000000006

>  <m_primary>  (18) 
energy

$$$$
18:0
     RDKit          3D

 30 31  0  0  0  0  0  0  0  0999 V2000
   57.7418   27.3270   45.3289 H   0  0  0  0  0  0  0  0  0  0  0  0
   58.6210   27.9070   45.6460 C   0  0  0  0  0  0  0  0  0  0  0  0
   59.6840   27.3110   45.9640 O   0  0  0  0  0  0  0  0  0  0  0  0
   58.5500   29.3810   45.6970 C   0  0  0  0  0  0  0  0  0  0  0  0
   57.3720   30.1410   45.4020 C   0  0  0  0  0  0  0  0  0  0  0  0
   56.2750   29.6630   44.8790 N   0  0  0  0  0  0  0  0  0  0  0  0
   55.7480   29.7340   43.5190 C   0  0  0  0  0  0  0  0  0  0  0  0
   54.7733   30.2439   43.5283 H   0  0  0  0  0  0  0  0  0  0  0  0
   55.6226   28.7175   43.1178 H   0  0  0  0  0  0  0  0  0  0  0  0
   56.7210   30.5120   42.6450 C   0  0  0  0  0  0  0  0  0  0  0  0
   57.4206   31.0714   43.2834 H   0  0  0  0  0  0  0  0  0  0  0  0
   57.2837   29.8120   42.0099 H   0  0  0  0  0  0  0  0  0  0  0  0
   56.1619   31.2149   42.0099 H   0  0  0  0  0  0  0  0  0  0  0  0
   57.4070   31.4830   45.6150 N   0  0  0  0  0  0  0  0  0  0  0  0
   58.5110   32.1270   46.0630 C   0  0  0  0  0  0  0  0  0  0  0  0
   58.4920   33.5100   46.2640 C   0  0  0  0  0  0  0  0  0  0  0  0
   57.5728   34.0822   46.0700 H   0  0  0  0  0  0  0  0  0  0  0  0
   59.6430   34.1650   46.7120 C   0  0  0  0  0  0  0  0  0  0  0  0
   59.6238   35.2535   46.8696 H   0  0  0  0  0  0  0  0  0  0  0  0
   60.8200   33.4490   46.9620 C   0  0  0  0  0  0  0  0  0  0  0  0
   61.9450   34.1550   47.4110 O   0  0  0  0  0  0  0  0  0  0  0  0
   63.2910   33.8160   47.0880 C   0  0  0  0  0  0  0  0  0  0  0  0
   63.8652   33.6714   48.0150 H   0  0  0  0  0  0  0  0  0  0  0  0
   63.3040   32.8865   46.4998 H   0  0  0  0  0  0  0  0  0  0  0  0
   63.7427   34.6284   46.4998 H   0  0  0  0  0  0  0  0  0  0  0  0
   60.8350   32.0540   46.7580 C   0  0  0  0  0  0  0  0  0  0  0  0
   61.7538   31.4813   46.9525 H   0  0  0  0  0  0  0  0  0  0  0  0
   59.6800   31.3930   46.3070 C   0  0  0  0  0  0  0  0  0  0  0  0
   59.6710   30.0460   46.1150 N   0  0  0  0  0  0  0  0  0  0  0  0
   60.5390   29.5020   46.3300 H   0  0  0  0  0  0  0  0  0  0  0  0
  1  2  1  0
  2  3  2  0
  2  4  1  0
  4  5  1  0
  5  6  2  0
  6  7  1  0
  7  8  1  0
  7  9  1  0
  7 10  1  0
 10 11  1  0
 10 12  1  0
 10 13  1  0
  5 14  1  0
 14 15  1  0
 15 16  2  0
 16 17  1  0
 16 18  1  0
 18 19  1  0
 18 20  2  0
 20 21  1  0
 21 22  1  0
 22 23  1  0
 22 24  1  0
 22 25  1  0
 20 26  1  0
 26 27  1  0
 26 28  2  0
 28 29  1  0
 29 30  1  0
 29  4  2  0
 28 15  1  0
M  CHG  2  14  -1  29   1
M  END
>  <UniqueID>  (19) 
18

>  <SMILES>  (19) 
CC/N=c1/[n-]c2ccc(OC)cc2[nH+]c1C=O

>  <Energy>  (19) 
43.34752109197873

>  <Genealogy>  (19) 
CCN=c1[n-]c2ccc(OC)cc2[nH+]c1C=O (protonated)
CC/N=c1/[n-]c2ccc(OC)cc2[nH+]c1C=O (cis-trans isomerization)
CC/N=c1/[n-]c2ccc(OC)cc2[nH+]c1C=O (3D coordinates assigned)
CC/N=c1/[n-]c2ccc(OC)cc2[nH+]c1C=O (optimized conformer: 43.34752109197873 kcal/mol)

>  <smiles>  (19) 
CCN=c1[nH]c2ccc(OC)cc2nc1C=O

>  <score_type>  (19) 
oracle

>  <origin>  (19) 
adg

>  <m_score__min__energy>  (19) 
-5.4400000000000004

>  <m_primary>  (19) 
energy

$$$$
19:0
     RDKit          3D

 47 49  0  0  0  0  0  0  0  0999 V2000
   63.3870   33.9110   46.3610 C   0  0  0  0  0  0  0  0  0  0  0  0
   63.7360   33.4790   47.7870 C   0  0  0  0  0  0  0  0  0  0  0  0
   63.5920   32.0290   47.9870 N   0  0  0  0  0  0  0  0  0  0  0  0
   62.6210   31.7040   49.0400 C   0  0  0  0  0  0  0  0  0  0  0  0
   61.3100   31.1870   48.4240 C   0  0  0  0  0  0  0  0  0  0  0  0
   61.4280   30.8740   46.9860 N   0  0  0  0  0  0  0  0  0  0  0  0
   60.1360   30.8800   46.3060 C   0  0  0  0  0  0  0  0  0  0  0  0
   59.4600   32.1010   46.0050 C   0  0  0  0  0  0  0  0  0  0  0  0
   59.9900   33.3720   46.3530 C   0  0  0  0  0  0  0  0  0  0  0  0
   59.2830   34.5440   46.1040 C   0  0  0  0  0  0  0  0  0  0  0  0
   58.0300   34.4920   45.5160 C   0  0  0  0  0  0  0  0  0  0  0  0
   57.4950   33.2680   45.1330 C   0  0  0  0  0  0  0  0  0  0  0  0
   58.2110   32.0570   45.3210 C   0  0  0  0  0  0  0  0  0  0  0  0
   57.7080   30.8580   44.8590 N   0  0  0  0  0  0  0  0  0  0  0  0
   56.6060   30.8520   43.8680 C   0  0  0  0  0  0  0  0  0  0  0  0
   58.2520   29.6670   45.2880 C   0  0  0  0  0  0  0  0  0  0  0  0
   57.5830   28.4360   45.0670 C   0  0  0  0  0  0  0  0  0  0  0  0
   58.1580   27.2230   45.4300 C   0  0  0  0  0  0  0  0  0  0  0  0
   59.4070   27.1950   46.0440 C   0  0  0  0  0  0  0  0  0  0  0  0
   60.0540   25.8820   46.3800 C   0  0  0  0  0  0  0  0  0  0  0  0
   60.0750   28.3960   46.3010 C   0  0  0  0  0  0  0  0  0  0  0  0
   59.4990   29.6510   45.9710 C   0  0  0  0  0  0  0  0  0  0  0  0
   62.6961   34.7662   46.3957 H   0  0  0  0  0  0  0  0  0  0  0  0
   64.3057   34.2031   45.8311 H   0  0  0  0  0  0  0  0  0  0  0  0
   62.9084   33.0742   45.8311 H   0  0  0  0  0  0  0  0  0  0  0  0
   64.7781   33.7623   47.9964 H   0  0  0  0  0  0  0  0  0  0  0  0
   63.0353   33.9820   48.4697 H   0  0  0  0  0  0  0  0  0  0  0  0
   64.5220   31.6150   48.2340 H   0  0  0  0  0  0  0  0  0  0  0  0
   63.0437   30.9280   49.6950 H   0  0  0  0  0  0  0  0  0  0  0  0
   62.4068   32.6143   49.6192 H   0  0  0  0  0  0  0  0  0  0  0  0
   61.0094   30.2731   48.9574 H   0  0  0  0  0  0  0  0  0  0  0  0
   60.5629   31.9881   48.5244 H   0  0  0  0  0  0  0  0  0  0  0  0
   62.0600   31.5720   46.5340 H   0  0  0  0  0  0  0  0  0  0  0  0
   61.9680   29.9970   46.8560 H   0  0  0  0  0  0  0  0  0  0  0  0
   60.9798   33.4309   46.8292 H   0  0  0  0  0  0  0  0  0  0  0  0
   59.7209   35.5160   46.3752 H   0  0  0  0  0  0  0  0  0  0  0  0
   57.4593   35.4181   45.3525 H   0  0  0  0  0  0  0  0  0  0  0  0
   56.4956   33.2370   44.6745 H   0  0  0  0  0  0  0  0  0  0  0  0
   55.6399   30.8467   44.3940 H   0  0  0  0  0  0  0  0  0  0  0  0
   56.6752   31.7505   43.2372 H   0  0  0  0  0  0  0  0  0  0  0  0
   56.6850   29.9543   43.2372 H   0  0  0  0  0  0  0  0  0  0  0  0
   56.5878   28.4409   44.5984 H   0  0  0  0  0  0  0  0  0  0  0  0
   57.6239   26.2821   45.2312 H   0  0  0  0  0  0  0  0  0  0  0  0
   60.1094   25.7696   47.4728 H   0  0  0  0  0  0  0  0  0  0  0  0
   59.4576   25.0604   45.9566 H   0  0  0  0  0  0  0  0  0  0  0  0
   61.0689   25.8544   45.9566 H   0  0  0  0  0  0  0  0  0  0  0  0
   61.0698   28.3679   46.7697 H   0  0  0  0  0  0  0  0  0  0  0  0
  1  2  1  0
  2  3  1  0
  3  4  1  0
  4  5  1  0
  5  6  1  0
  6  7  1  0
  7  8  2  0
  8  9  1  0
  9 10  2  0
 10 11  1  0
 11 12  2  0
 12 13  1  0
 13 14  2  0
 14 15  1  0
 14 16  1  0
 16 17  2  0
 17 18  1  0
 18 19  2  0
 19 20  1  0
 19 21  1  0
 21 22  2  0
 22  7  1  0
 13  8  1  0
 22 16  1  0
  1 23  1  0
  1 24  1  0
  1 25  1  0
  2 26  1  0
  2 27  1  0
  3 28  1  0
  4 29  1  0
  4 30  1  0
  5 31  1  0
  5 32  1  0
  6 33  1  0
  6 34  1  0
  9 35  1  0
 10 36  1  0
 11 37  1  0
 12 38  1  0
 15 39  1  0
 15 40  1  0
 15 41  1  0
 17 42  1  0
 18 43  1  0
 20 44  1  0
 20 45  1  0
 20 46  1  0
 21 47  1  0
M  CHG  2   6   1  14   1
M  END
>  <UniqueID>  (20) 
19

>  <SMILES>  (20) 
CCNCC[NH2+]c1c2ccccc2[n+](C)c2ccc(C)cc12

>  <Energy>  (20) 
74.05301968793373

>  <Genealogy>  (20) 
CCNCC[NH2+]c1c2ccccc2[n+](C)c2ccc(C)cc12 (protonated)
CCNCC[NH2+]c1c2ccccc2[n+](C)c2ccc(C)cc12 (3D coordinates assigned)
CCNCC[NH2+]c1c2ccccc2[n+](C)c2ccc(C)cc12 (optimized conformer: 74.05301968793373 kcal/mol)

>  <smiles>  (20) 
CCNCCNc1c2ccccc2[n+](C)c2ccc(C)cc12

>  <score_type>  (20) 
oracle

>  <origin>  (20) 
adg

>  <m_score__min__energy>  (20) 
-3.9500000000000002

>  <m_primary>  (20) 
energy

$$$$
20:0
     RDKit          3D

 19 18  0  0  0  0  0  0  0  0999 V2000
   52.1700   29.7850   50.4430 C   0  0  0  0  0  0  0  0  0  0  0  0
   52.5320   30.3220   51.7770 N   0  0  0  0  0  0  0  0  0  0  0  0
   53.6730   31.2550   51.6140 C   0  0  0  0  0  0  0  0  0  0  0  0
   52.9580   29.2110   52.6620 C   0  0  0  0  0  0  0  0  0  0  0  0
   51.3920   31.0760   52.3770 C   0  0  0  0  0  0  0  0  0  0  0  0
   51.0180   32.3240   51.6190 C   0  0  0  0  0  0  0  0  0  0  0  0
   51.0570   32.3380   50.3600 O   0  0  0  0  0  0  0  0  0  0  0  0
   50.6260   33.4660   52.3060 O   0  0  0  0  0  0  0  0  0  0  0  0
   51.5590   28.8786   50.5661 H   0  0  0  0  0  0  0  0  0  0  0  0
   51.5965   30.5411   49.8867 H   0  0  0  0  0  0  0  0  0  0  0  0
   53.0860   29.5370   49.8867 H   0  0  0  0  0  0  0  0  0  0  0  0
   54.0434   31.5579   52.6045 H   0  0  0  0  0  0  0  0  0  0  0  0
   54.4795   30.7543   51.0583 H   0  0  0  0  0  0  0  0  0  0  0  0
   53.3425   32.1449   51.0583 H   0  0  0  0  0  0  0  0  0  0  0  0
   52.8417   29.5142   53.7130 H   0  0  0  0  0  0  0  0  0  0  0  0
   52.3355   28.3258   52.4647 H   0  0  0  0  0  0  0  0  0  0  0  0
   54.0127   28.9689   52.4647 H   0  0  0  0  0  0  0  0  0  0  0  0
   50.5151   30.4126   52.4059 H   0  0  0  0  0  0  0  0  0  0  0  0
   51.7133   31.3957   53.3793 H   0  0  0  0  0  0  0  0  0  0  0  0
  1  2  1  0
  2  3  1  0
  2  4  1  0
  2  5  1  0
  5  6  1  0
  6  7  2  0
  6  8  1  0
  1  9  1  0
  1 10  1  0
  1 11  1  0
  3 12  1  0
  3 13  1  0
  3 14  1  0
  4 15  1  0
  4 16  1  0
  4 17  1  0
  5 18  1  0
  5 19  1  0
M  CHG  2   2   1   8  -1
M  END
>  <UniqueID>  (21) 
20

>  <SMILES>  (21) 
C[N+](C)(C)CC(=O)[O-]

>  <Energy>  (21) 
19.463347327754498

>  <Genealogy>  (21) 
C[N+](C)(C)CC(=O)[O-] (3D coordinates assigned)
C[N+](C)(C)CC(=O)[O-] (optimized conformer: 19.463347327754498 kcal/mol)

>  <smiles>  (21) 
C[N+](C)(C)CC(=O)[O-]

>  <score_type>  (21) 
oracle

>  <origin>  (21) 
adg

>  <m_score__min__energy>  (21) 
-5.4400000000000004

>  <m_primary>  (21) 
energy

$$$$
21:0
     RDKit          3D

 43 45  0  0  0  0  0  0  0  0999 V2000
   57.5440   33.2070   45.0630 C   0  0  0  0  0  0  0  0  0  0  0  0
   58.0720   32.0650   44.1810 C   0  0  0  0  0  0  0  0  0  0  0  0
   57.1140   31.6070   43.1490 N   0  0  0  0  0  0  0  0  0  0  0  0
   57.5260   32.0060   41.7920 C   0  0  0  0  0  0  0  0  0  0  0  0
   56.8290   30.1580   43.2410 C   0  0  0  0  0  0  0  0  0  0  0  0
   55.5300   29.9120   44.0150 C   0  0  0  0  0  0  0  0  0  0  0  0
   55.7980   29.1540   45.2330 N   0  0  0  0  0  0  0  0  0  0  0  0
   57.0150   28.4350   45.4700 C   0  0  0  0  0  0  0  0  0  0  0  0
   57.0440   27.1850   45.3060 O   0  0  0  0  0  0  0  0  0  0  0  0
   58.2320   29.1550   45.9140 C   0  0  0  0  0  0  0  0  0  0  0  0
   59.4820   28.8710   45.3300 C   0  0  0  0  0  0  0  0  0  0  0  0
   60.6340   29.5460   45.7450 C   0  0  0  0  0  0  0  0  0  0  0  0
   60.5480   30.5140   46.7530 C   0  0  0  0  0  0  0  0  0  0  0  0
   59.3000   30.8100   47.3510 C   0  0  0  0  0  0  0  0  0  0  0  0
   58.1530   30.1290   46.9280 C   0  0  0  0  0  0  0  0  0  0  0  0
   59.2140   31.7550   48.3350 N   0  0  0  0  0  0  0  0  0  0  0  0
   60.3170   32.4310   48.7630 C   0  0  0  0  0  0  0  0  0  0  0  0
   60.2120   33.2970   49.6710 O   0  0  0  0  0  0  0  0  0  0  0  0
   61.5180   32.1470   48.1900 N   0  0  0  0  0  0  0  0  0  0  0  0
   62.7690   32.6170   48.3710 C   0  0  0  0  0  0  0  0  0  0  0  0
   63.1770   33.6760   49.3540 C   0  0  0  0  0  0  0  0  0  0  0  0
   62.5900   34.8800   49.0120 F   0  0  0  0  0  0  0  0  0  0  0  0
   64.5530   33.8140   49.3450 F   0  0  0  0  0  0  0  0  0  0  0  0
   62.7740   33.3310   50.6320 F   0  0  0  0  0  0  0  0  0  0  0  0
   63.6180   31.9880   47.5280 N   0  0  0  0  0  0  0  0  0  0  0  0
   62.9290   31.1160   46.8030 N   0  0  0  0  0  0  0  0  0  0  0  0
   61.6520   31.2290   47.2200 C   0  0  0  0  0  0  0  0  0  0  0  0
   57.6678   32.9392   46.1227 H   0  0  0  0  0  0  0  0  0  0  0  0
   58.1083   34.1266   44.8489 H   0  0  0  0  0  0  0  0  0  0  0  0
   56.4779   33.3728   44.8489 H   0  0  0  0  0  0  0  0  0  0  0  0
   58.9849   32.4127   43.6752 H   0  0  0  0  0  0  0  0  0  0  0  0
   58.2556   31.2086   44.8464 H   0  0  0  0  0  0  0  0  0  0  0  0
   58.3148   32.7699   41.8580 H   0  0  0  0  0  0  0  0  0  0  0  0
   57.9103   31.1278   41.2524 H   0  0  0  0  0  0  0  0  0  0  0  0
   56.6606   32.4182   41.2524 H   0  0  0  0  0  0  0  0  0  0  0  0
   56.7294   29.7441   42.2267 H   0  0  0  0  0  0  0  0  0  0  0  0
   57.6571   29.6668   43.7729 H   0  0  0  0  0  0  0  0  0  0  0  0
   55.0788   30.8790   44.2820 H   0  0  0  0  0  0  0  0  0  0  0  0
   54.8410   29.3351   43.3806 H   0  0  0  0  0  0  0  0  0  0  0  0
   59.5526   28.1100   44.5389 H   0  0  0  0  0  0  0  0  0  0  0  0
   61.6048   29.3173   45.2811 H   0  0  0  0  0  0  0  0  0  0  0  0
   57.1816   30.3564   47.3914 H   0  0  0  0  0  0  0  0  0  0  0  0
   64.6470   32.1420   47.4400 H   0  0  0  0  0  0  0  0  0  0  0  0
  1  2  1  0
  2  3  1  0
  3  4  1  0
  3  5  1  0
  5  6  1  0
  6  7  1  0
  7  8  1  0
  8  9  2  0
  8 10  1  0
 10 11  2  0
 11 12  1  0
 12 13  2  0
 13 14  1  0
 14 15  2  0
 14 16  1  0
 16 17  1  0
 17 18  2  0
 17 19  1  0
 19 20  1  0
 20 21  1  0
 21 22  1  0
 21 23  1  0
 21 24  1  0
 20 25  2  0
 25 26  1  0
 26 27  2  0
 15 10  1  0
 27 19  1  0
 27 13  1  0
  1 28  1  0
  1 29  1  0
  1 30  1  0
  2 31  1  0
  2 32  1  0
  4 33  1  0
  4 34  1  0
  4 35  1  0
  5 36  1  0
  5 37  1  0
  6 38  1  0
  6 39  1  0
 11 40  1  0
 12 41  1  0
 15 42  1  0
 25 43  1  0
M  CHG  3   7  -1  16  -1  25   1
M  END
>  <UniqueID>  (22) 
21

>  <SMILES>  (22) 
CCN(C)CC[N-]C(=O)c1ccc2c(c1)[n-]c(=O)n1c(C(F)(F)F)[nH+]nc21

>  <Energy>  (22) 
90.20579330105033

>  <Genealogy>  (22) 
CCN(C)CC[N-]C(=O)c1ccc2c(c1)[n-]c(=O)n1c(C(F)(F)F)[nH+]nc21 (protonated)
CCN(C)CC[N-]C(=O)c1ccc2c(c1)[n-]c(=O)n1c(C(F)(F)F)[nH+]nc21 (3D coordinates assigned)
CCN(C)CC[N-]C(=O)c1ccc2c(c1)[n-]c(=O)n1c(C(F)(F)F)[nH+]nc21 (optimized conformer: 90.20579330105033 kcal/mol)

>  <smiles>  (22) 
CCN(C)CCNC(=O)c1ccc2c(c1)[nH]c(=O)n1c(C(F)(F)F)nnc21

>  <score_type>  (22) 
oracle

>  <origin>  (22) 
adg

>  <m_score__min__energy>  (22) 
-8.2300000000000004

>  <m_primary>  (22) 
energy

$$$$
22:0
     RDKit          3D

 64 66  0  0  0  0  0  0  0  0999 V2000
   61.2900   30.0480   49.1710 C   0  0  0  0  0  0  0  0  0  0  0  0
   61.4070   30.8120   47.8520 C   0  0  0  0  0  0  0  0  0  0  0  0
   62.0770   32.1220   48.0260 N   0  0  0  0  0  0  0  0  0  0  0  0
   63.2650   32.3350   47.1590 C   0  0  0  0  0  0  0  0  0  0  0  0
   63.3780   33.7480   46.5630 C   0  0  0  0  0  0  0  0  0  0  0  0
   61.1150   33.2480   47.9700 C   0  0  0  0  0  0  0  0  0  0  0  0
   60.3650   33.4030   49.3020 C   0  0  0  0  0  0  0  0  0  0  0  0
   58.9270   32.8470   49.2750 C   0  0  0  0  0  0  0  0  0  0  0  0
   58.2970   32.7380   47.8760 C   0  0  0  0  0  0  0  0  0  0  0  0
   58.0930   34.1090   47.2040 C   0  0  0  0  0  0  0  0  0  0  0  0
   57.2110   34.0390   45.9450 C   0  0  0  0  0  0  0  0  0  0  0  0
   57.8400   34.7270   44.7310 C   0  0  0  0  0  0  0  0  0  0  0  0
   58.5610   33.7770   43.9510 O   0  0  0  0  0  0  0  0  0  0  0  0
   58.5360   32.3930   44.1710 C   0  0  0  0  0  0  0  0  0  0  0  0
   57.7650   31.5180   43.3830 C   0  0  0  0  0  0  0  0  0  0  0  0
   57.6940   30.1600   43.7050 C   0  0  0  0  0  0  0  0  0  0  0  0
   58.4010   29.6530   44.8060 C   0  0  0  0  0  0  0  0  0  0  0  0
   58.2740   28.2270   45.1900 C   0  0  0  0  0  0  0  0  0  0  0  0
   59.4220   27.4470   45.3800 C   0  0  0  0  0  0  0  0  0  0  0  0
   59.3270   26.1700   45.7290 O   0  0  0  0  0  0  0  0  0  0  0  0
   58.1610   25.5630   45.9240 C   0  0  0  0  0  0  0  0  0  0  0  0
   58.1480   24.2140   46.2940 C   0  0  0  0  0  0  0  0  0  0  0  0
   56.9370   23.5550   46.5200 C   0  0  0  0  0  0  0  0  0  0  0  0
   56.9450   22.2150   46.8950 O   0  0  0  0  0  0  0  0  0  0  0  0
   55.7300   24.2480   46.3700 C   0  0  0  0  0  0  0  0  0  0  0  0
   55.7230   25.5940   45.9930 C   0  0  0  0  0  0  0  0  0  0  0  0
   54.4990   26.2410   45.8520 O   0  0  0  0  0  0  0  0  0  0  0  0
   56.9450   26.2690   45.7650 C   0  0  0  0  0  0  0  0  0  0  0  0
   57.0160   27.6290   45.3930 C   0  0  0  0  0  0  0  0  0  0  0  0
   55.9660   28.3160   45.2610 O   0  0  0  0  0  0  0  0  0  0  0  0
   59.2160   30.5180   45.5550 C   0  0  0  0  0  0  0  0  0  0  0  0
   59.2810   31.8780   45.2380 C   0  0  0  0  0  0  0  0  0  0  0  0
   61.3974   30.7492   50.0117 H   0  0  0  0  0  0  0  0  0  0  0  0
   60.3064   29.5585   49.2252 H   0  0  0  0  0  0  0  0  0  0  0  0
   62.0820   29.2866   49.2252 H   0  0  0  0  0  0  0  0  0  0  0  0
   61.9896   30.2069   47.1417 H   0  0  0  0  0  0  0  0  0  0  0  0
   60.3901   30.9981   47.4762 H   0  0  0  0  0  0  0  0  0  0  0  0
   64.1666   32.1428   47.7592 H   0  0  0  0  0  0  0  0  0  0  0  0
   63.1576   31.6458   46.3084 H   0  0  0  0  0  0  0  0  0  0  0  0
   63.4370   34.4856   47.3769 H   0  0  0  0  0  0  0  0  0  0  0  0
   64.2842   33.8130   45.9429 H   0  0  0  0  0  0  0  0  0  0  0  0
   62.4936   33.9562   45.9429 H   0  0  0  0  0  0  0  0  0  0  0  0
   61.6625   34.1777   47.7559 H   0  0  0  0  0  0  0  0  0  0  0  0
   60.3804   33.0402   47.1781 H   0  0  0  0  0  0  0  0  0  0  0  0
   60.9286   32.8693   50.0815 H   0  0  0  0  0  0  0  0  0  0  0  0
   60.2876   34.4818   49.5024 H   0  0  0  0  0  0  0  0  0  0  0  0
   58.9416   31.8419   49.7217 H   0  0  0  0  0  0  0  0  0  0  0  0
   58.3097   33.5653   49.8344 H   0  0  0  0  0  0  0  0  0  0  0  0
   58.9569   32.1297   47.2400 H   0  0  0  0  0  0  0  0  0  0  0  0
   57.3054   32.2768   47.9946 H   0  0  0  0  0  0  0  0  0  0  0  0
   57.6165   34.7863   47.9280 H   0  0  0  0  0  0  0  0  0  0  0  0
   59.0833   34.4714   46.8909 H   0  0  0  0  0  0  0  0  0  0  0  0
   57.0382   32.9813   45.6972 H   0  0  0  0  0  0  0  0  0  0  0  0
   56.2736   34.5678   46.1720 H   0  0  0  0  0  0  0  0  0  0  0  0
   57.0468   35.1765   44.1156 H   0  0  0  0  0  0  0  0  0  0  0  0
   58.5319   35.5088   45.0776 H   0  0  0  0  0  0  0  0  0  0  0  0
   57.2167   31.9042   42.5111 H   0  0  0  0  0  0  0  0  0  0  0  0
   57.0800   29.4842   43.0915 H   0  0  0  0  0  0  0  0  0  0  0  0
   60.4149   27.8987   45.2381 H   0  0  0  0  0  0  0  0  0  0  0  0
   59.0967   23.6690   46.4077 H   0  0  0  0  0  0  0  0  0  0  0  0
   56.1180   21.7670   47.2760 H   0  0  0  0  0  0  0  0  0  0  0  0
   54.7776   23.7282   46.5506 H   0  0  0  0  0  0  0  0  0  0  0  0
   59.8060   30.1232   46.3952 H   0  0  0  0  0  0  0  0  0  0  0  0
   59.9216   32.5475   45.8308 H   0  0  0  0  0  0  0  0  0  0  0  0
  1  2  1  0
  2  3  1  0
  3  4  1  0
  4  5  1  0
  3  6  1  0
  6  7  1  0
  7  8  1  0
  8  9  1  0
  9 10  1  0
 10 11  1  0
 11 12  1  0
 12 13  1  0
 13 14  1  0
 14 15  2  0
 15 16  1  0
 16 17  2  0
 17 18  1  0
 18 19  2  0
 19 20  1  0
 20 21  1  0
 21 22  2  0
 22 23  1  0
 23 24  1  0
 23 25  2  0
 25 26  1  0
 26 27  1  0
 26 28  2  0
 28 29  1  0
 29 30  2  0
 17 31  1  0
 31 32  2  0
 32 14  1  0
 29 18  1  0
 28 21  1  0
  1 33  1  0
  1 34  1  0
  1 35  1  0
  2 36  1  0
  2 37  1  0
  4 38  1  0
  4 39  1  0
  5 40  1  0
  5 41  1  0
  5 42  1  0
  6 43  1  0
  6 44  1  0
  7 45  1  0
  7 46  1  0
  8 47  1  0
  8 48  1  0
  9 49  1  0
  9 50  1  0
 10 51  1  0
 10 52  1  0
 11 53  1  0
 11 54  1  0
 12 55  1  0
 12 56  1  0
 15 57  1  0
 16 58  1  0
 19 59  1  0
 22 60  1  0
 24 61  1  0
 25 62  1  0
 31 63  1  0
 32 64  1  0
M  CHG  1  27  -1
M  END
>  <UniqueID>  (23) 
22

>  <SMILES>  (23) 
CCN(CC)CCCCCCCOc1ccc(-c2coc3cc(O)cc([O-])c3c2=O)cc1

>  <Energy>  (23) 
70.53828621712147

>  <Genealogy>  (23) 
CCN(CC)CCCCCCCOc1ccc(-c2coc3cc(O)cc([O-])c3c2=O)cc1 (protonated)
CCN(CC)CCCCCCCOc1ccc(-c2coc3cc(O)cc([O-])c3c2=O)cc1 (3D coordinates assigned)
CCN(CC)CCCCCCCOc1ccc(-c2coc3cc(O)cc([O-])c3c2=O)cc1 (optimized conformer: 70.53828621712147 kcal/mol)

>  <smiles>  (23) 
CCN(CC)CCCCCCCOc1ccc(-c2coc3cc(O)cc(O)c3c2=O)cc1

>  <score_type>  (23) 
oracle

>  <origin>  (23) 
adg

>  <m_score__min__energy>  (23) 
-11.890000000000001

>  <m_primary>  (23) 
energy

$$$$
23:0
     RDKit          3D

 46 48  0  0  0  0  0  0  0  0999 V2000
   57.7510   32.7830   44.0660 C   0  0  0  0  0  0  0  0  0  0  0  0
   58.7200   33.8310   44.5550 C   0  0  0  0  0  0  0  0  0  0  0  0
   59.2890   33.5830   45.8240 N   0  0  0  0  0  0  0  0  0  0  0  0
   60.3770   34.4010   46.2330 C   0  0  0  0  0  0  0  0  0  0  0  0
   61.3080   33.5550   47.0690 C   0  0  0  0  0  0  0  0  0  0  0  0
   60.5130   32.6320   47.8510 N   0  0  0  0  0  0  0  0  0  0  0  0
   61.1910   32.2040   49.0620 C   0  0  0  0  0  0  0  0  0  0  0  0
   61.7510   30.8390   48.8570 C   0  0  0  0  0  0  0  0  0  0  0  0
   60.8020   29.8280   48.4810 N   0  0  0  0  0  0  0  0  0  0  0  0
   60.0510   29.7260   47.3070 C   0  0  0  0  0  0  0  0  0  0  0  0
   60.7170   29.4400   46.1120 C   0  0  0  0  0  0  0  0  0  0  0  0
   60.0730   29.3270   44.9060 C   0  0  0  0  0  0  0  0  0  0  0  0
   58.7120   29.4970   44.8290 C   0  0  0  0  0  0  0  0  0  0  0  0
   57.8900   29.4410   43.7760 N   0  0  0  0  0  0  0  0  0  0  0  0
   56.6640   29.6890   44.2590 C   0  0  0  0  0  0  0  0  0  0  0  0
   55.4560   29.7210   43.3830 C   0  0  0  0  0  0  0  0  0  0  0  0
   56.7260   29.8980   45.6040 N   0  0  0  0  0  0  0  0  0  0  0  0
   58.0160   29.7790   45.9830 C   0  0  0  0  0  0  0  0  0  0  0  0
   58.6890   29.8890   47.2020 C   0  0  0  0  0  0  0  0  0  0  0  0
   59.2030   33.1880   48.1600 C   0  0  0  0  0  0  0  0  0  0  0  0
   58.3960   33.2650   46.8840 C   0  0  0  0  0  0  0  0  0  0  0  0
   57.2873   32.2815   44.9283 H   0  0  0  0  0  0  0  0  0  0  0  0
   56.9702   33.2615   43.4566 H   0  0  0  0  0  0  0  0  0  0  0  0
   58.2891   32.0420   43.4566 H   0  0  0  0  0  0  0  0  0  0  0  0
   59.5388   33.9041   43.8240 H   0  0  0  0  0  0  0  0  0  0  0  0
   58.1375   34.7583   44.6592 H   0  0  0  0  0  0  0  0  0  0  0  0
   60.9105   34.7818   45.3496 H   0  0  0  0  0  0  0  0  0  0  0  0
   60.0120   35.2588   46.8169 H   0  0  0  0  0  0  0  0  0  0  0  0
   61.9893   32.9938   46.4126 H   0  0  0  0  0  0  0  0  0  0  0  0
   61.9041   34.1964   47.7348 H   0  0  0  0  0  0  0  0  0  0  0  0
   62.0067   32.9047   49.2936 H   0  0  0  0  0  0  0  0  0  0  0  0
   60.4762   32.1871   49.8979 H   0  0  0  0  0  0  0  0  0  0  0  0
   62.5113   30.9008   48.0645 H   0  0  0  0  0  0  0  0  0  0  0  0
   62.1503   30.5281   49.8337 H   0  0  0  0  0  0  0  0  0  0  0  0
   60.6620   29.0550   49.2090 H   0  0  0  0  0  0  0  0  0  0  0  0
   61.8076   29.2991   46.1398 H   0  0  0  0  0  0  0  0  0  0  0  0
   60.6488   29.0993   43.9968 H   0  0  0  0  0  0  0  0  0  0  0  0
   58.1670   29.2400   42.7740 H   0  0  0  0  0  0  0  0  0  0  0  0
   54.5508   29.7450   44.0075 H   0  0  0  0  0  0  0  0  0  0  0  0
   55.4873   30.6186   42.7480 H   0  0  0  0  0  0  0  0  0  0  0  0
   55.4397   28.8230   42.7480 H   0  0  0  0  0  0  0  0  0  0  0  0
   58.1098   30.1138   48.1097 H   0  0  0  0  0  0  0  0  0  0  0  0
   58.6879   32.5409   48.8853 H   0  0  0  0  0  0  0  0  0  0  0  0
   59.3150   34.1926   48.5938 H   0  0  0  0  0  0  0  0  0  0  0  0
   57.9122   32.2967   46.6881 H   0  0  0  0  0  0  0  0  0  0  0  0
   57.6128   34.0326   46.9702 H   0  0  0  0  0  0  0  0  0  0  0  0
  1  2  1  0
  2  3  1  0
  3  4  1  0
  4  5  1  0
  5  6  1  0
  6  7  1  0
  7  8  1  0
  8  9  1  0
  9 10  1  0
 10 11  2  0
 11 12  1  0
 12 13  2  0
 13 14  1  0
 14 15  1  0
 15 16  1  0
 15 17  2  0
 17 18  1  0
 18 19  2  0
  6 20  1  0
 20 21  1  0
 21  3  1  0
 19 10  1  0
 18 13  1  0
  1 22  1  0
  1 23  1  0
  1 24  1  0
  2 25  1  0
  2 26  1  0
  4 27  1  0
  4 28  1  0
  5 29  1  0
  5 30  1  0
  7 31  1  0
  7 32  1  0
  8 33  1  0
  8 34  1  0
  9 35  1  0
 11 36  1  0
 12 37  1  0
 14 38  1  0
 16 39  1  0
 16 40  1  0
 16 41  1  0
 19 42  1  0
 20 43  1  0
 20 44  1  0
 21 45  1  0
 21 46  1  0
M  END
>  <smiles>  (24) 
CCN1CCN(CCNc2ccc3[nH]c(C)nc3c2)CC1

>  <score_type>  (24) 
oracle

>  <origin>  (24) 
adg

>  <m_score__min__energy>  (24) 
-7.4800000000000004

>  <m_primary>  (24) 
energy

$$$$
24:0
     RDKit          3D

 51 54  0  0  0  0  0  0  0  0999 V2000
   56.7040   23.6030   43.6220 C   0  0  0  0  0  0  0  0  0  0  0  0
   57.2890   24.3890   44.6560 O   0  0  0  0  0  0  0  0  0  0  0  0
   57.4090   25.7870   44.6210 C   0  0  0  0  0  0  0  0  0  0  0  0
   58.1200   26.4500   43.6050 C   0  0  0  0  0  0  0  0  0  0  0  0
   58.2160   27.8410   43.6020 C   0  0  0  0  0  0  0  0  0  0  0  0
   57.6070   28.6050   44.6120 C   0  0  0  0  0  0  0  0  0  0  0  0
   57.7250   30.0840   44.5880 C   0  0  0  0  0  0  0  0  0  0  0  0
   57.4120   30.8750   45.6390 N   0  0  0  0  0  0  0  0  0  0  0  0
   57.6790   32.1060   45.1540 C   0  0  0  0  0  0  0  0  0  0  0  0
   57.5240   33.3710   45.9590 C   0  0  0  0  0  0  0  0  0  0  0  0
   58.2110   34.5790   45.2760 C   0  0  0  0  0  0  0  0  0  0  0  0
   59.6410   34.8280   45.7920 C   0  0  0  0  0  0  0  0  0  0  0  0
   60.2500   33.5620   46.2320 N   0  0  0  0  0  0  0  0  0  0  0  0
   61.7200   33.6350   46.3680 C   0  0  0  0  0  0  0  0  0  0  0  0
   62.1870   33.6790   47.7990 C   0  0  0  0  0  0  0  0  0  0  0  0
   63.1810   32.8950   48.3510 C   0  0  0  0  0  0  0  0  0  0  0  0
   63.2560   33.2700   49.6750 C   0  0  0  0  0  0  0  0  0  0  0  0
   62.3070   34.2570   49.8470 C   0  0  0  0  0  0  0  0  0  0  0  0
   61.6870   34.4790   48.7120 O   0  0  0  0  0  0  0  0  0  0  0  0
   59.5900   33.0170   47.4400 C   0  0  0  0  0  0  0  0  0  0  0  0
   58.0530   33.1660   47.3900 C   0  0  0  0  0  0  0  0  0  0  0  0
   58.1220   32.0520   43.9210 O   0  0  0  0  0  0  0  0  0  0  0  0
   58.1600   30.8150   43.5400 N   0  0  0  0  0  0  0  0  0  0  0  0
   56.8980   27.9400   45.6290 C   0  0  0  0  0  0  0  0  0  0  0  0
   56.7960   26.5340   45.6370 C   0  0  0  0  0  0  0  0  0  0  0  0
   56.0960   25.8430   46.6390 O   0  0  0  0  0  0  0  0  0  0  0  0
   56.6500   24.8110   47.4480 C   0  0  0  0  0  0  0  0  0  0  0  0
   56.1040   22.7968   44.0692 H   0  0  0  0  0  0  0  0  0  0  0  0
   56.0577   24.2389   42.9992 H   0  0  0  0  0  0  0  0  0  0  0  0
   57.4986   23.1664   42.9992 H   0  0  0  0  0  0  0  0  0  0  0  0
   58.6037   25.8673   42.8072 H   0  0  0  0  0  0  0  0  0  0  0  0
   58.7746   28.3459   42.8001 H   0  0  0  0  0  0  0  0  0  0  0  0
   56.4501   33.6029   46.0139 H   0  0  0  0  0  0  0  0  0  0  0  0
   58.2568   34.3903   44.1933 H   0  0  0  0  0  0  0  0  0  0  0  0
   57.6154   35.4732   45.5117 H   0  0  0  0  0  0  0  0  0  0  0  0
   60.2484   35.2620   44.9841 H   0  0  0  0  0  0  0  0  0  0  0  0
   59.5994   35.5218   46.6446 H   0  0  0  0  0  0  0  0  0  0  0  0
   62.1592   32.7497   45.8850 H   0  0  0  0  0  0  0  0  0  0  0  0
   62.0439   34.5722   45.8918 H   0  0  0  0  0  0  0  0  0  0  0  0
   63.7861   32.1312   47.8407 H   0  0  0  0  0  0  0  0  0  0  0  0
   63.9348   32.8647   50.4398 H   0  0  0  0  0  0  0  0  0  0  0  0
   62.1012   34.7791   50.7931 H   0  0  0  0  0  0  0  0  0  0  0  0
   59.8386   31.9490   47.5268 H   0  0  0  0  0  0  0  0  0  0  0  0
   59.9540   33.5877   48.3071 H   0  0  0  0  0  0  0  0  0  0  0  0
   57.5971   32.2559   47.8070 H   0  0  0  0  0  0  0  0  0  0  0  0
   57.7858   34.0585   47.9749 H   0  0  0  0  0  0  0  0  0  0  0  0
   58.4810   30.4940   42.6020 H   0  0  0  0  0  0  0  0  0  0  0  0
   56.4174   28.5242   46.4276 H   0  0  0  0  0  0  0  0  0  0  0  0
   56.5139   25.0645   48.5097 H   0  0  0  0  0  0  0  0  0  0  0  0
   56.1408   23.8607   47.2297 H   0  0  0  0  0  0  0  0  0  0  0  0
   57.7234   24.7103   47.2297 H   0  0  0  0  0  0  0  0  0  0  0  0
  1  2  1  0
  2  3  1  0
  3  4  2  0
  4  5  1  0
  5  6  2  0
  6  7  1  0
  7  8  1  0
  8  9  2  0
  9 10  1  0
 10 11  1  0
 11 12  1  0
 12 13  1  0
 13 14  1  0
 14 15  1  0
 15 16  2  0
 16 17  1  0
 17 18  2  0
 18 19  1  0
 13 20  1  0
 20 21  1  0
  9 22  1  0
 22 23  1  0
  6 24  1  0
 24 25  2  0
 25 26  1  0
 26 27  1  0
 25  3  1  0
 23  7  2  0
 21 10  1  0
 19 15  1  0
  1 28  1  0
  1 29  1  0
  1 30  1  0
  4 31  1  0
  5 32  1  0
 10 33  1  0
 11 34  1  0
 11 35  1  0
 12 36  1  0
 12 37  1  0
 14 38  1  0
 14 39  1  0
 16 40  1  0
 17 41  1  0
 18 42  1  0
 20 43  1  0
 20 44  1  0
 21 45  1  0
 21 46  1  0
 23 47  1  0
 24 48  1  0
 27 49  1  0
 27 50  1  0
 27 51  1  0
M  CHG  1  23   1
M  END
>  <UniqueID>  (25) 
23

>  <SMILES>  (25) 
COc1ccc(-c2nc(C3CCN(Cc4ccco4)CC3)o[nH+]2)cc1OC

>  <Energy>  (25) 
121.51410544002532

>  <Genealogy>  (25) 
COc1ccc(-c2nc(C3CCN(Cc4ccco4)CC3)o[nH+]2)cc1OC (protonated)
COc1ccc(-c2nc(C3CCN(Cc4ccco4)CC3)o[nH+]2)cc1OC (3D coordinates assigned)
COc1ccc(-c2nc(C3CCN(Cc4ccco4)CC3)o[nH+]2)cc1OC (nonaromatic ring conformer: 121.51410544002532 kcal/mol)

>  <smiles>  (25) 
COc1ccc(-c2noc(C3CCN(Cc4ccco4)CC3)n2)cc1OC

>  <score_type>  (25) 
oracle

>  <origin>  (25) 
adg

>  <m_score__min__energy>  (25) 
-7.5899999999999999

>  <m_primary>  (25) 
energy

$$$$
25:0
     RDKit          3D

 42 43  0  0  0  0  0  0  0  0999 V2000
   60.5130   34.5330   46.3280 C   0  0  0  0  0  0  0  0  0  0  0  0
   59.2910   34.5480   45.5000 C   0  0  0  0  0  0  0  0  0  0  0  0
   58.2950   33.5460   45.7430 N   0  0  0  0  0  0  0  0  0  0  0  0
   57.4110   33.3580   44.6180 C   0  0  0  0  0  0  0  0  0  0  0  0
   58.0510   32.6650   43.4510 C   0  0  0  0  0  0  0  0  0  0  0  0
   57.7130   33.5460   47.0240 C   0  0  0  0  0  0  0  0  0  0  0  0
   58.1450   32.4460   47.9680 C   0  0  0  0  0  0  0  0  0  0  0  0
   59.3780   31.9850   47.4820 O   0  0  0  0  0  0  0  0  0  0  0  0
   59.3800   30.6700   47.1040 C   0  0  0  0  0  0  0  0  0  0  0  0
   59.0020   30.4180   45.6610 C   0  0  0  0  0  0  0  0  0  0  0  0
   58.0060   29.3430   45.6230 N   0  0  0  0  0  0  0  0  0  0  0  0
   56.7440   29.4330   45.1010 C   0  0  0  0  0  0  0  0  0  0  0  0
   56.2310   30.4600   44.5610 O   0  0  0  0  0  0  0  0  0  0  0  0
   56.1160   28.2480   45.2490 N   0  0  0  0  0  0  0  0  0  0  0  0
   56.9770   27.3940   45.8660 C   0  0  0  0  0  0  0  0  0  0  0  0
   56.7850   26.1160   46.2160 N   0  0  0  0  0  0  0  0  0  0  0  0
   57.7860   25.4420   46.8320 C   0  0  0  0  0  0  0  0  0  0  0  0
   58.9770   26.0940   47.0810 C   0  0  0  0  0  0  0  0  0  0  0  0
   59.2030   27.4150   46.7290 C   0  0  0  0  0  0  0  0  0  0  0  0
   58.1570   28.0810   46.0980 C   0  0  0  0  0  0  0  0  0  0  0  0
   60.2349   34.5364   47.3922 H   0  0  0  0  0  0  0  0  0  0  0  0
   61.0963   33.6276   46.1044 H   0  0  0  0  0  0  0  0  0  0  0  0
   61.1184   35.4238   46.1044 H   0  0  0  0  0  0  0  0  0  0  0  0
   58.8108   35.5269   45.6452 H   0  0  0  0  0  0  0  0  0  0  0  0
   59.6492   34.3346   44.4821 H   0  0  0  0  0  0  0  0  0  0  0  0
   56.5518   32.7564   44.9494 H   0  0  0  0  0  0  0  0  0  0  0  0
   57.1167   34.3599   44.2722 H   0  0  0  0  0  0  0  0  0  0  0  0
   58.7546   31.9031   43.8178 H   0  0  0  0  0  0  0  0  0  0  0  0
   57.2740   32.1826   42.8399 H   0  0  0  0  0  0  0  0  0  0  0  0
   58.5936   33.4013   42.8399 H   0  0  0  0  0  0  0  0  0  0  0  0
   57.9555   34.5076   47.4999 H   0  0  0  0  0  0  0  0  0  0  0  0
   56.6399   33.3746   46.8532 H   0  0  0  0  0  0  0  0  0  0  0  0
   58.2592   32.8404   48.9885 H   0  0  0  0  0  0  0  0  0  0  0  0
   57.4008   31.6373   48.0136 H   0  0  0  0  0  0  0  0  0  0  0  0
   60.3918   30.2700   47.2664 H   0  0  0  0  0  0  0  0  0  0  0  0
   58.6106   30.1741   47.7140 H   0  0  0  0  0  0  0  0  0  0  0  0
   58.5771   31.3334   45.2232 H   0  0  0  0  0  0  0  0  0  0  0  0
   59.8919   30.1285   45.0829 H   0  0  0  0  0  0  0  0  0  0  0  0
   55.1410   28.0480   44.9390 H   0  0  0  0  0  0  0  0  0  0  0  0
   57.6517   24.3914   47.1291 H   0  0  0  0  0  0  0  0  0  0  0  0
   59.7840   25.5392   47.5820 H   0  0  0  0  0  0  0  0  0  0  0  0
   60.1616   27.9124   46.9380 H   0  0  0  0  0  0  0  0  0  0  0  0
  1  2  1  0
  2  3  1  0
  3  4  1  0
  4  5  1  0
  3  6  1  0
  6  7  1  0
  7  8  1  0
  8  9  1  0
  9 10  1  0
 10 11  1  0
 11 12  1  0
 12 13  2  0
 12 14  1  0
 14 15  1  0
 15 16  2  0
 16 17  1  0
 17 18  2  0
 18 19  1  0
 19 20  2  0
 20 11  1  0
 20 15  1  0
  1 21  1  0
  1 22  1  0
  1 23  1  0
  2 24  1  0
  2 25  1  0
  4 26  1  0
  4 27  1  0
  5 28  1  0
  5 29  1  0
  5 30  1  0
  6 31  1  0
  6 32  1  0
  7 33  1  0
  7 34  1  0
  9 35  1  0
  9 36  1  0
 10 37  1  0
 10 38  1  0
 14 39  1  0
 17 40  1  0
 18 41  1  0
 19 42  1  0
M  END
>  <smiles>  (26) 
CCN(CC)CCOCCn1c(=O)[nH]c2ncccc21

>  <score_type>  (26) 
oracle

>  <origin>  (26) 
adg

>  <m_score__min__energy>  (26) 
-5.9699999999999998

>  <m_primary>  (26) 
energy

$$$$
26:0
     RDKit          3D

 64 67  0  0  0  0  0  0  0  0999 V2000
   65.2020   31.9790   50.1780 C   0  0  0  0  0  0  0  0  0  0  0  0
   64.6050   33.1010   49.3170 C   0  0  0  0  0  0  0  0  0  0  0  0
   63.1670   32.8810   48.9980 N   0  0  0  0  0  0  0  0  0  0  0  0
   62.3810   34.0980   49.3410 C   0  0  0  0  0  0  0  0  0  0  0  0
   61.1990   33.7850   50.2670 C   0  0  0  0  0  0  0  0  0  0  0  0
   63.0060   32.5430   47.5580 C   0  0  0  0  0  0  0  0  0  0  0  0
   62.0420   31.3610   47.3260 C   0  0  0  0  0  0  0  0  0  0  0  0
   61.7290   30.7320   48.5560 O   0  0  0  0  0  0  0  0  0  0  0  0
   61.1000   29.4780   48.3580 C   0  0  0  0  0  0  0  0  0  0  0  0
   59.9870   29.2540   49.3890 C   0  0  0  0  0  0  0  0  0  0  0  0
   58.6630   29.3770   48.7780 N   0  0  0  0  0  0  0  0  0  0  0  0
   58.5330   29.8520   47.4340 C   0  0  0  0  0  0  0  0  0  0  0  0
   58.6530   31.2090   47.1610 C   0  0  0  0  0  0  0  0  0  0  0  0
   58.5770   31.6760   45.8630 C   0  0  0  0  0  0  0  0  0  0  0  0
   58.2380   30.8560   44.8160 N   0  0  0  0  0  0  0  0  0  0  0  0
   57.8330   31.4360   43.5240 C   0  0  0  0  0  0  0  0  0  0  0  0
   58.2130   29.4870   45.0300 C   0  0  0  0  0  0  0  0  0  0  0  0
   58.0680   28.5680   43.9610 C   0  0  0  0  0  0  0  0  0  0  0  0
   58.0070   27.1830   44.1880 C   0  0  0  0  0  0  0  0  0  0  0  0
   57.8340   26.2710   43.0860 N   0  0  0  0  0  0  0  0  0  0  0  0
   58.1960   26.5910   41.9340 O   0  0  0  0  0  0  0  0  0  0  0  0
   57.2780   25.0270   43.2840 O   0  0  0  0  0  0  0  0  0  0  0  0
   58.1150   26.7010   45.5010 C   0  0  0  0  0  0  0  0  0  0  0  0
   58.2890   27.5770   46.5690 C   0  0  0  0  0  0  0  0  0  0  0  0
   58.3500   28.9650   46.3540 C   0  0  0  0  0  0  0  0  0  0  0  0
   58.8780   33.1130   45.8910 C   0  0  0  0  0  0  0  0  0  0  0  0
   59.1730   34.0170   44.8590 C   0  0  0  0  0  0  0  0  0  0  0  0
   59.5270   35.3330   45.1980 C   0  0  0  0  0  0  0  0  0  0  0  0
   59.6310   35.7180   46.5470 C   0  0  0  0  0  0  0  0  0  0  0  0
   59.4080   34.7830   47.5680 C   0  0  0  0  0  0  0  0  0  0  0  0
   59.0450   33.4810   47.2170 C   0  0  0  0  0  0  0  0  0  0  0  0
   58.9040   32.3150   48.1430 C   0  0  0  0  0  0  0  0  0  0  0  0
   65.0714   32.2245   51.2423 H   0  0  0  0  0  0  0  0  0  0  0  0
   64.6883   31.0324   49.9543 H   0  0  0  0  0  0  0  0  0  0  0  0
   66.2741   31.8761   49.9543 H   0  0  0  0  0  0  0  0  0  0  0  0
   64.7027   34.0517   49.8616 H   0  0  0  0  0  0  0  0  0  0  0  0
   65.1565   33.1172   48.3654 H   0  0  0  0  0  0  0  0  0  0  0  0
   62.8190   32.0760   49.5730 H   0  0  0  0  0  0  0  0  0  0  0  0
   63.0439   34.8172   49.8442 H   0  0  0  0  0  0  0  0  0  0  0  0
   61.9758   34.5119   48.4058 H   0  0  0  0  0  0  0  0  0  0  0  0
   61.5217   33.8705   51.3151 H   0  0  0  0  0  0  0  0  0  0  0  0
   60.3839   34.4983   50.0750 H   0  0  0  0  0  0  0  0  0  0  0  0
   60.8437   32.7618   50.0750 H   0  0  0  0  0  0  0  0  0  0  0  0
   62.6133   33.4254   47.0315 H   0  0  0  0  0  0  0  0  0  0  0  0
   63.9933   32.2455   47.1750 H   0  0  0  0  0  0  0  0  0  0  0  0
   61.1162   31.7335   46.8632 H   0  0  0  0  0  0  0  0  0  0  0  0
   62.5270   30.6290   46.6635 H   0  0  0  0  0  0  0  0  0  0  0  0
   60.6660   29.4485   47.3477 H   0  0  0  0  0  0  0  0  0  0  0  0
   61.8530   28.6850   48.4765 H   0  0  0  0  0  0  0  0  0  0  0  0
   60.0921   28.2458   49.8163 H   0  0  0  0  0  0  0  0  0  0  0  0
   60.0802   30.0206   50.1723 H   0  0  0  0  0  0  0  0  0  0  0  0
   57.7960   29.2990   49.3580 H   0  0  0  0  0  0  0  0  0  0  0  0
   57.2114   32.3262   43.7005 H   0  0  0  0  0  0  0  0  0  0  0  0
   58.7290   31.7217   42.9533 H   0  0  0  0  0  0  0  0  0  0  0  0
   57.2562   30.6933   42.9533 H   0  0  0  0  0  0  0  0  0  0  0  0
   58.0018   28.9476   42.9307 H   0  0  0  0  0  0  0  0  0  0  0  0
   58.0616   25.6185   45.6889 H   0  0  0  0  0  0  0  0  0  0  0  0
   58.3796   27.1794   47.5906 H   0  0  0  0  0  0  0  0  0  0  0  0
   59.1279   33.7013   43.8062 H   0  0  0  0  0  0  0  0  0  0  0  0
   59.7243   36.0676   44.4034 H   0  0  0  0  0  0  0  0  0  0  0  0
   59.8883   36.7566   46.8020 H   0  0  0  0  0  0  0  0  0  0  0  0
   59.5168   35.0695   48.6245 H   0  0  0  0  0  0  0  0  0  0  0  0
   59.8239   32.1428   48.7210 H   0  0  0  0  0  0  0  0  0  0  0  0
   58.1229   32.4318   48.9087 H   0  0  0  0  0  0  0  0  0  0  0  0
  1  2  1  0
  2  3  1  0
  3  4  1  0
  4  5  1  0
  3  6  1  0
  6  7  1  0
  7  8  1  0
  8  9  1  0
  9 10  1  0
 10 11  1  0
 11 12  1  0
 12 13  2  0
 13 14  1  0
 14 15  2  0
 15 16  1  0
 15 17  1  0
 17 18  2  0
 18 19  1  0
 19 20  1  0
 20 21  2  0
 20 22  1  0
 19 23  2  0
 23 24  1  0
 24 25  2  0
 14 26  1  0
 26 27  2  0
 27 28  1  0
 28 29  2  0
 29 30  1  0
 30 31  2  0
 31 32  1  0
 25 12  1  0
 31 26  1  0
 32 13  1  0
 25 17  1  0
  1 33  1  0
  1 34  1  0
  1 35  1  0
  2 36  1  0
  2 37  1  0
  3 38  1  0
  4 39  1  0
  4 40  1  0
  5 41  1  0
  5 42  1  0
  5 43  1  0
  6 44  1  0
  6 45  1  0
  7 46  1  0
  7 47  1  0
  9 48  1  0
  9 49  1  0
 10 50  1  0
 10 51  1  0
 11 52  1  0
 16 53  1  0
 16 54  1  0
 16 55  1  0
 18 56  1  0
 23 57  1  0
 24 58  1  0
 27 59  1  0
 28 60  1  0
 29 61  1  0
 30 62  1  0
 32 63  1  0
 32 64  1  0
M  CHG  4   3   1  15   1  20   1  22  -1
M  END
>  <UniqueID>  (27) 
24

>  <SMILES>  (27) 
CC[NH+](CC)CCOCCNc1c2c([n+](C)c3cc([N+](=O)[O-])ccc13)-c1ccccc1C2

>  <Energy>  (27) 
113.85264333230766

>  <Genealogy>  (27) 
CC[NH+](CC)CCOCCNc1c2c([n+](C)c3cc([N+](=O)[O-])ccc13)-c1ccccc1C2 (protonated)
CC[NH+](CC)CCOCCNc1c2c([n+](C)c3cc([N+](=O)[O-])ccc13)-c1ccccc1C2 (3D coordinates assigned)
CC[NH+](CC)CCOCCNc1c2c([n+](C)c3cc([N+](=O)[O-])ccc13)-c1ccccc1C2 (nonaromatic ring conformer: 113.85264333230766 kcal/mol)

>  <smiles>  (27) 
CCN(CC)CCOCCNc1c2c([n+](C)c3cc([N+](=O)[O-])ccc13)-c1ccccc1C2

>  <score_type>  (27) 
oracle

>  <origin>  (27) 
adg

>  <m_score__min__energy>  (27) 
-5.5800000000000001

>  <m_primary>  (27) 
energy

$$$$
27:0
     RDKit          3D

 45 47  0  0  0  0  0  0  0  0999 V2000
   60.0070   28.7580   44.8640 C   0  0  0  0  0  0  0  0  0  0  0  0
   58.6620   28.2530   45.1840 N   0  0  0  0  0  0  0  0  0  0  0  0
   58.2150   28.8210   46.4680 C   0  0  0  0  0  0  0  0  0  0  0  0
   57.7150   28.5910   44.0950 C   0  0  0  0  0  0  0  0  0  0  0  0
   56.7650   29.7220   44.5200 C   0  0  0  0  0  0  0  0  0  0  0  0
   57.2210   31.0140   43.9790 N   0  0  0  0  0  0  0  0  0  0  0  0
   57.1370   31.2690   42.5350 C   0  0  0  0  0  0  0  0  0  0  0  0
   57.7400   32.0250   44.8740 C   0  0  0  0  0  0  0  0  0  0  0  0
   57.0170   33.2050   45.1480 C   0  0  0  0  0  0  0  0  0  0  0  0
   57.5510   34.1600   46.0140 C   0  0  0  0  0  0  0  0  0  0  0  0
   58.7970   33.9380   46.6120 C   0  0  0  0  0  0  0  0  0  0  0  0
   59.3450   34.8370   47.4750 N   0  0  0  0  0  0  0  0  0  0  0  0
   60.5520   34.5950   48.0620 C   0  0  0  0  0  0  0  0  0  0  0  0
   61.2510   33.4100   47.7680 C   0  0  0  0  0  0  0  0  0  0  0  0
   62.5620   33.1100   48.3770 C   0  0  0  0  0  0  0  0  0  0  0  0
   63.7970   33.5770   47.9540 C   0  0  0  0  0  0  0  0  0  0  0  0
   64.7590   33.1050   48.7710 N   0  0  0  0  0  0  0  0  0  0  0  0
   64.1700   32.3480   49.6850 N   0  0  0  0  0  0  0  0  0  0  0  0
   64.8800   31.7150   50.7870 C   0  0  0  0  0  0  0  0  0  0  0  0
   62.8360   32.3340   49.4890 C   0  0  0  0  0  0  0  0  0  0  0  0
   60.6980   32.5180   46.9010 N   0  0  0  0  0  0  0  0  0  0  0  0
   59.4940   32.7510   46.3170 C   0  0  0  0  0  0  0  0  0  0  0  0
   58.9570   31.8380   45.4650 N   0  0  0  0  0  0  0  0  0  0  0  0
   60.5531   28.9631   45.7966 H   0  0  0  0  0  0  0  0  0  0  0  0
   60.5522   28.0033   44.2781 H   0  0  0  0  0  0  0  0  0  0  0  0
   59.9208   29.6850   44.2781 H   0  0  0  0  0  0  0  0  0  0  0  0
   58.6627   28.2521   47.2963 H   0  0  0  0  0  0  0  0  0  0  0  0
   58.5301   29.8729   46.5332 H   0  0  0  0  0  0  0  0  0  0  0  0
   57.1185   28.7620   46.5332 H   0  0  0  0  0  0  0  0  0  0  0  0
   58.2844   28.9132   43.2107 H   0  0  0  0  0  0  0  0  0  0  0  0
   57.1149   27.6986   43.8639 H   0  0  0  0  0  0  0  0  0  0  0  0
   55.7551   29.5075   44.1403 H   0  0  0  0  0  0  0  0  0  0  0  0
   56.7543   29.7818   45.6183 H   0  0  0  0  0  0  0  0  0  0  0  0
   56.7970   32.3011   42.3641 H   0  0  0  0  0  0  0  0  0  0  0  0
   58.1286   31.1295   42.0797 H   0  0  0  0  0  0  0  0  0  0  0  0
   56.4225   30.5674   42.0797 H   0  0  0  0  0  0  0  0  0  0  0  0
   56.0354   33.3717   44.6804 H   0  0  0  0  0  0  0  0  0  0  0  0
   56.9943   35.0847   46.2262 H   0  0  0  0  0  0  0  0  0  0  0  0
   58.8400   35.7230   47.7040 H   0  0  0  0  0  0  0  0  0  0  0  0
   60.9787   35.3258   48.7648 H   0  0  0  0  0  0  0  0  0  0  0  0
   63.9654   34.2314   47.0860 H   0  0  0  0  0  0  0  0  0  0  0  0
   64.4728   32.0780   51.7422 H   0  0  0  0  0  0  0  0  0  0  0  0
   64.7541   30.6239   50.7257 H   0  0  0  0  0  0  0  0  0  0  0  0
   65.9495   31.9647   50.7257 H   0  0  0  0  0  0  0  0  0  0  0  0
   62.0967   31.8002   50.1042 H   0  0  0  0  0  0  0  0  0  0  0  0
  1  2  1  0
  2  3  1  0
  2  4  1  0
  4  5  1  0
  5  6  1  0
  6  7  1  0
  6  8  1  0
  8  9  2  0
  9 10  1  0
 10 11  2  0
 11 12  1  0
 12 13  2  0
 13 14  1  0
 14 15  1  0
 15 16  1  0
 16 17  2  0
 17 18  1  0
 18 19  1  0
 18 20  1  0
 14 21  2  0
 21 22  1  0
 22 23  2  0
 23  8  1  0
 22 11  1  0
 20 15  2  0
  1 24  1  0
  1 25  1  0
  1 26  1  0
  3 27  1  0
  3 28  1  0
  3 29  1  0
  4 30  1  0
  4 31  1  0
  5 32  1  0
  5 33  1  0
  7 34  1  0
  7 35  1  0
  7 36  1  0
  9 37  1  0
 10 38  1  0
 12 39  1  0
 13 40  1  0
 16 41  1  0
 19 42  1  0
 19 43  1  0
 19 44  1  0
 20 45  1  0
M  CHG  1  12   1
M  END
>  <UniqueID>  (28) 
25

>  <SMILES>  (28) 
CN(C)CCN(C)c1ccc2[nH+]cc(-c3cnn(C)c3)nc2n1

>  <Energy>  (28) 
78.62672167148361

>  <Genealogy>  (28) 
CN(C)CCN(C)c1ccc2[nH+]cc(-c3cnn(C)c3)nc2n1 (protonated)
CN(C)CCN(C)c1ccc2[nH+]cc(-c3cnn(C)c3)nc2n1 (3D coordinates assigned)
CN(C)CCN(C)c1ccc2[nH+]cc(-c3cnn(C)c3)nc2n1 (optimized conformer: 78.62672167148361 kcal/mol)

>  <smiles>  (28) 
CN(C)CCN(C)c1ccc2ncc(-c3cnn(C)c3)nc2n1

>  <score_type>  (28) 
oracle

>  <origin>  (28) 
adg

>  <m_score__min__energy>  (28) 
-4.9500000000000002

>  <m_primary>  (28) 
energy

$$$$
28:0
     RDKit          3D

 78 82  0  0  0  0  0  0  0  0999 V2000
   56.7946   25.6231   46.2985 H   0  0  0  0  0  0  0  0  0  0  0  0
   57.1920   26.6480   46.2570 C   0  0  0  0  0  0  0  0  0  0  0  0
   57.0750   27.3710   45.1220 N   0  0  0  0  0  0  0  0  0  0  0  0
   57.4960   28.6600   45.0440 C   0  0  0  0  0  0  0  0  0  0  0  0
   57.3060   29.3580   43.8490 C   0  0  0  0  0  0  0  0  0  0  0  0
   56.8982   28.8385   42.9693 H   0  0  0  0  0  0  0  0  0  0  0  0
   57.6320   30.7120   43.7680 C   0  0  0  0  0  0  0  0  0  0  0  0
   57.4020   31.5800   42.2610 Cl  0  0  0  0  0  0  0  0  0  0  0  0
   58.1080   31.3850   44.8910 C   0  0  0  0  0  0  0  0  0  0  0  0
   58.3238   32.4621   44.8346 H   0  0  0  0  0  0  0  0  0  0  0  0
   58.3120   30.6950   46.0890 C   0  0  0  0  0  0  0  0  0  0  0  0
   58.6552   31.2432   46.9787 H   0  0  0  0  0  0  0  0  0  0  0  0
   58.0830   29.2990   46.1740 C   0  0  0  0  0  0  0  0  0  0  0  0
   58.3360   28.4990   47.3380 C   0  0  0  0  0  0  0  0  0  0  0  0
   59.1120   28.8300   48.3380 N   0  0  0  0  0  0  0  0  0  0  0  0
   60.4280   28.3520   48.7440 C   0  0  0  0  0  0  0  0  0  0  0  0
   61.1011   28.3440   47.8740 H   0  0  0  0  0  0  0  0  0  0  0  0
   60.3427   27.3319   49.1467 H   0  0  0  0  0  0  0  0  0  0  0  0
   60.9910   29.2820   49.8170 C   0  0  0  0  0  0  0  0  0  0  0  0
   61.9110   28.8447   50.2322 H   0  0  0  0  0  0  0  0  0  0  0  0
   60.2446   29.4066   50.6154 H   0  0  0  0  0  0  0  0  0  0  0  0
   61.3000   30.6090   49.2260 N   0  0  0  0  0  0  0  0  0  0  0  0
   62.6060   31.1140   49.7170 C   0  0  0  0  0  0  0  0  0  0  0  0
   63.4055   30.4519   49.3531 H   0  0  0  0  0  0  0  0  0  0  0  0
   62.7454   32.1379   49.3398 H   0  0  0  0  0  0  0  0  0  0  0  0
   62.6500   31.1540   51.2530 C   0  0  0  0  0  0  0  0  0  0  0  0
   61.8263   30.5367   51.6409 H   0  0  0  0  0  0  0  0  0  0  0  0
   63.6362   30.7740   51.5580 H   0  0  0  0  0  0  0  0  0  0  0  0
   62.5120   32.5710   51.8350 C   0  0  0  0  0  0  0  0  0  0  0  0
   62.9906   32.6006   52.8250 H   0  0  0  0  0  0  0  0  0  0  0  0
   62.9986   33.2789   51.1480 H   0  0  0  0  0  0  0  0  0  0  0  0
   61.1060   32.9510   51.9730 N   0  0  0  0  0  0  0  0  0  0  0  0
   60.0110   32.7940   51.2610 C   0  0  0  0  0  0  0  0  0  0  0  0
   59.8230   33.2460   49.9110 C   0  0  0  0  0  0  0  0  0  0  0  0
   60.6280   34.2120   49.2650 C   0  0  0  0  0  0  0  0  0  0  0  0
   61.4588   34.6766   49.8163 H   0  0  0  0  0  0  0  0  0  0  0  0
   60.3900   34.5890   47.9400 C   0  0  0  0  0  0  0  0  0  0  0  0
   61.0467   35.3264   47.4553 H   0  0  0  0  0  0  0  0  0  0  0  0
   59.3270   34.0370   47.2300 C   0  0  0  0  0  0  0  0  0  0  0  0
   59.0370   34.5160   45.5670 Cl  0  0  0  0  0  0  0  0  0  0  0  0
   58.4740   33.1330   47.8550 C   0  0  0  0  0  0  0  0  0  0  0  0
   57.6232   32.7095   47.3012 H   0  0  0  0  0  0  0  0  0  0  0  0
   58.6950   32.7600   49.1880 C   0  0  0  0  0  0  0  0  0  0  0  0
   57.7880   31.9510   49.7860 N   0  0  0  0  0  0  0  0  0  0  0  0
   57.8890   31.5860   51.0830 C   0  0  0  0  0  0  0  0  0  0  0  0
   56.9080   30.7590   51.6390 C   0  0  0  0  0  0  0  0  0  0  0  0
   56.0608   30.4263   51.0213 H   0  0  0  0  0  0  0  0  0  0  0  0
   56.9950   30.3520   52.9720 C   0  0  0  0  0  0  0  0  0  0  0  0
   56.2168   29.7026   53.3995 H   0  0  0  0  0  0  0  0  0  0  0  0
   58.0740   30.7700   53.7680 C   0  0  0  0  0  0  0  0  0  0  0  0
   58.2120   30.3850   55.1110 O   0  0  0  0  0  0  0  0  0  0  0  0
   58.1670   29.0390   55.5730 C   0  0  0  0  0  0  0  0  0  0  0  0
   58.1667   29.0287   56.6730 H   0  0  0  0  0  0  0  0  0  0  0  0
   57.2521   28.5542   55.2015 H   0  0  0  0  0  0  0  0  0  0  0  0
   59.0474   28.4942   55.2015 H   0  0  0  0  0  0  0  0  0  0  0  0
   59.0570   31.5980   53.2110 C   0  0  0  0  0  0  0  0  0  0  0  0
   59.9006   31.9290   53.8345 H   0  0  0  0  0  0  0  0  0  0  0  0
   58.9850   32.0170   51.8600 C   0  0  0  0  0  0  0  0  0  0  0  0
   61.2590   30.5490   47.7470 C   0  0  0  0  0  0  0  0  0  0  0  0
   60.4044   31.1381   47.3830 H   0  0  0  0  0  0  0  0  0  0  0  0
   61.1529   29.5001   47.4331 H   0  0  0  0  0  0  0  0  0  0  0  0
   62.5570   31.1200   47.1570 C   0  0  0  0  0  0  0  0  0  0  0  0
   62.7353   30.6590   46.1743 H   0  0  0  0  0  0  0  0  0  0  0  0
   63.3789   30.8943   47.8523 H   0  0  0  0  0  0  0  0  0  0  0  0
   62.4790   32.6390   46.9860 C   0  0  0  0  0  0  0  0  0  0  0  0
   61.7425   33.0481   47.6933 H   0  0  0  0  0  0  0  0  0  0  0  0
   62.1744   32.8716   45.9549 H   0  0  0  0  0  0  0  0  0  0  0  0
   63.7990   33.2440   47.2500 N   0  0  0  0  0  0  0  0  0  0  0  0
   64.5530   32.5370   47.0790 H   0  0  0  0  0  0  0  0  0  0  0  0
   63.9240   33.7730   48.6170 C   0  0  0  0  0  0  0  0  0  0  0  0
   62.9762   33.6052   49.1495 H   0  0  0  0  0  0  0  0  0  0  0  0
   64.1583   34.8452   48.5434 H   0  0  0  0  0  0  0  0  0  0  0  0
   65.0550   33.0980   49.3990 C   0  0  0  0  0  0  0  0  0  0  0  0
   64.8711   33.2078   50.4779 H   0  0  0  0  0  0  0  0  0  0  0  0
   65.0928   32.0295   49.1403 H   0  0  0  0  0  0  0  0  0  0  0  0
   66.0133   33.5720   49.1403 H   0  0  0  0  0  0  0  0  0  0  0  0
   57.8150   27.1980   47.3750 C   0  0  0  0  0  0  0  0  0  0  0  0
   57.8991   26.6047   48.2974 H   0  0  0  0  0  0  0  0  0  0  0  0
  1  2  1  0
  2  3  1  0
  3  4  1  0
  4  5  2  0
  5  6  1  0
  5  7  1  0
  7  8  1  0
  7  9  2  0
  9 10  1  0
  9 11  1  0
 11 12  1  0
 11 13  2  0
 13 14  1  0
 14 15  2  0
 15 16  1  0
 16 17  1  0
 16 18  1  0
 16 19  1  0
 19 20  1  0
 19 21  1  0
 19 22  1  0
 22 23  1  0
 23 24  1  0
 23 25  1  0
 23 26  1  0
 26 27  1  0
 26 28  1  0
 26 29  1  0
 29 30  1  0
 29 31  1  0
 29 32  1  0
 32 33  2  0
 33 34  1  0
 34 35  2  0
 35 36  1  0
 35 37  1  0
 37 38  1  0
 37 39  2  0
 39 40  1  0
 39 41  1  0
 41 42  1  0
 41 43  2  0
 43 44  1  0
 44 45  1  0
 45 46  2  0
 46 47  1  0
 46 48  1  0
 48 49  1  0
 48 50  2  0
 50 51  1  0
 51 52  1  0
 52 53  1  0
 52 54  1  0
 52 55  1  0
 50 56  1  0
 56 57  1  0
 56 58  2  0
 22 59  1  0
 59 60  1  0
 59 61  1  0
 59 62  1  0
 62 63  1  0
 62 64  1  0
 62 65  1  0
 65 66  1  0
 65 67  1  0
 65 68  1  0
 68 69  1  0
 68 70  1  0
 70 71  1  0
 70 72  1  0
 70 73  1  0
 73 74  1  0
 73 75  1  0
 73 76  1  0
 14 77  1  0
 77 78  1  0
 77  2  2  0
 13  4  1  0
 58 33  1  0
 43 34  1  0
 58 45  1  0
M  CHG  2   3  -1  44  -1
M  END
>  <UniqueID>  (29) 
26

>  <SMILES>  (29) 
CCNCCCN(CCC/N=c1\c2ccc(Cl)cc2[n-]c2ccc(OC)cc12)CC/N=c1/cc[n-]c2cc(Cl)ccc12

>  <Energy>  (29) 
125.1028416046336

>  <Genealogy>  (29) 
CCNCCCN(CCCN=c1c2ccc(Cl)cc2[n-]c2ccc(OC)cc12)CCN=c1cc[n-]c2cc(Cl)ccc12 (protonated)
CCNCCCN(CCC/N=c1\c2ccc(Cl)cc2[n-]c2ccc(OC)cc12)CC/N=c1/cc[n-]c2cc(Cl)ccc12 (cis-trans isomerization)
CCNCCCN(CCC/N=c1\c2ccc(Cl)cc2[n-]c2ccc(OC)cc12)CC/N=c1/cc[n-]c2cc(Cl)ccc12 (3D coordinates assigned)
CCNCCCN(CCC/N=c1\c2ccc(Cl)cc2[n-]c2ccc(OC)cc12)CC/N=c1/cc[n-]c2cc(Cl)ccc12 (optimized conformer: 125.1028416046336 kcal/mol)

>  <smiles>  (29) 
CCNCCCN(CCCN=c1c2ccc(Cl)cc2[nH]c2ccc(OC)cc12)CCN=c1cc[nH]c2cc(Cl)ccc12

>  <score_type>  (29) 
oracle

>  <origin>  (29) 
adg

>  <m_score__min__energy>  (29) 
-11.31

>  <m_primary>  (29) 
energy

$$$$
29:0
     RDKit          3D

 32 32  0  0  0  0  0  0  0  0999 V2000
   59.1270   34.9300   45.2520 C   0  0  0  0  0  0  0  0  0  0  0  0
   57.7740   34.3200   44.8790 C   0  0  0  0  0  0  0  0  0  0  0  0
   57.8220   32.8530   44.7840 N   0  0  0  0  0  0  0  0  0  0  0  0
   58.7530   32.2610   45.7540 C   0  0  0  0  0  0  0  0  0  0  0  0
   58.1450   30.9980   46.3770 C   0  0  0  0  0  0  0  0  0  0  0  0
   58.1660   29.8660   45.4220 N   0  0  0  0  0  0  0  0  0  0  0  0
   59.2360   28.9950   45.3680 C   0  0  0  0  0  0  0  0  0  0  0  0
   60.3980   29.0870   46.3290 C   0  0  0  0  0  0  0  0  0  0  0  0
   59.2350   27.9510   44.4350 C   0  0  0  0  0  0  0  0  0  0  0  0
   58.1650   27.8220   43.5550 C   0  0  0  0  0  0  0  0  0  0  0  0
   58.1300   26.6900   42.5690 C   0  0  0  0  0  0  0  0  0  0  0  0
   57.1210   28.6860   43.6420 N   0  0  0  0  0  0  0  0  0  0  0  0
   57.1130   29.6970   44.5530 C   0  0  0  0  0  0  0  0  0  0  0  0
   56.1190   30.4740   44.5880 O   0  0  0  0  0  0  0  0  0  0  0  0
   59.2207   34.9723   46.3472 H   0  0  0  0  0  0  0  0  0  0  0  0
   59.9356   34.3093   44.8385 H   0  0  0  0  0  0  0  0  0  0  0  0
   59.1973   35.9469   44.8385 H   0  0  0  0  0  0  0  0  0  0  0  0
   57.0378   34.5994   45.6471 H   0  0  0  0  0  0  0  0  0  0  0  0
   57.4947   34.7091   43.8888 H   0  0  0  0  0  0  0  0  0  0  0  0
   56.8630   32.4640   44.9480 H   0  0  0  0  0  0  0  0  0  0  0  0
   59.6904   31.9975   45.2423 H   0  0  0  0  0  0  0  0  0  0  0  0
   58.9502   32.9926   46.5514 H   0  0  0  0  0  0  0  0  0  0  0  0
   58.7247   30.7241   47.2708 H   0  0  0  0  0  0  0  0  0  0  0  0
   57.0989   31.2099   46.6429 H   0  0  0  0  0  0  0  0  0  0  0  0
   60.0224   29.0573   47.3624 H   0  0  0  0  0  0  0  0  0  0  0  0
   61.0798   28.2400   46.1621 H   0  0  0  0  0  0  0  0  0  0  0  0
   60.9380   30.0307   46.1621 H   0  0  0  0  0  0  0  0  0  0  0  0
   60.0727   27.2391   44.3980 H   0  0  0  0  0  0  0  0  0  0  0  0
   58.1004   25.7329   43.1104 H   0  0  0  0  0  0  0  0  0  0  0  0
   57.2343   26.7817   41.9371 H   0  0  0  0  0  0  0  0  0  0  0  0
   59.0297   26.7262   41.9371 H   0  0  0  0  0  0  0  0  0  0  0  0
   56.3050   28.5760   42.9990 H   0  0  0  0  0  0  0  0  0  0  0  0
  1  2  1  0
  2  3  1  0
  3  4  1  0
  4  5  1  0
  5  6  1  0
  6  7  1  0
  7  8  1  0
  7  9  2  0
  9 10  1  0
 10 11  1  0
 10 12  2  0
 12 13  1  0
 13 14  2  0
 13  6  1  0
  1 15  1  0
  1 16  1  0
  1 17  1  0
  2 18  1  0
  2 19  1  0
  3 20  1  0
  4 21  1  0
  4 22  1  0
  5 23  1  0
  5 24  1  0
  8 25  1  0
  8 26  1  0
  8 27  1  0
  9 28  1  0
 11 29  1  0
 11 30  1  0
 11 31  1  0
 12 32  1  0
M  CHG  1  12   1
M  END
>  <UniqueID>  (30) 
27

>  <SMILES>  (30) 
CCNCCn1c(C)cc(C)[nH+]c1=O

>  <Energy>  (30) 
29.33810777338002

>  <Genealogy>  (30) 
CCNCCn1c(C)cc(C)[nH+]c1=O (protonated)
CCNCCn1c(C)cc(C)[nH+]c1=O (3D coordinates assigned)
CCNCCn1c(C)cc(C)[nH+]c1=O (optimized conformer: 29.33810777338002 kcal/mol)

>  <smiles>  (30) 
CCNCCn1c(C)cc(C)nc1=O

>  <score_type>  (30) 
oracle

>  <origin>  (30) 
adg

>  <m_score__min__energy>  (30) 
-3.75

>  <m_primary>  (30) 
energy

$$$$
30:0
     RDKit          3D

 37 39  0  0  1  0  0  0  0  0999 V2000
   56.8230   29.9100   52.0190 F   0  0  0  0  0  0  0  0  0  0  0  0
   56.6790   31.2380   52.3960 C   0  0  0  0  0  0  0  0  0  0  0  0
   55.4030   31.6020   52.0210 F   0  0  0  0  0  0  0  0  0  0  0  0
   56.7690   31.3640   53.7730 F   0  0  0  0  0  0  0  0  0  0  0  0
   57.7260   32.0120   51.6830 C   0  0  0  0  0  0  0  0  0  0  0  0
   58.3180   33.1430   52.1870 C   0  0  0  0  0  0  0  0  0  0  0  0
   59.2850   33.8330   51.4950 C   0  0  0  0  0  0  0  0  0  0  0  0
   59.7220   33.4120   50.2190 C   0  0  0  0  0  0  0  0  0  0  0  0
   60.6360   34.2070   49.5720 N   0  0  0  0  0  0  0  0  0  0  0  0
   61.6200   33.8550   48.8880 C   0  0  0  0  0  0  0  0  0  0  0  0
   62.7820   33.6400   49.5680 N   0  0  0  0  0  0  0  0  0  0  0  0
   63.8980   33.2970   48.9390 C   0  0  0  0  0  0  0  0  0  0  0  0
   63.9220   33.1520   47.6200 N   0  0  0  0  0  0  0  0  0  0  0  0
   62.8000   33.3540   46.9310 C   0  0  0  0  0  0  0  0  0  0  0  0
   61.5830   33.7200   47.5510 C   0  0  0  0  0  0  0  0  0  0  0  0
   60.4700   33.8220   46.6460 C   0  0  0  0  0  0  0  0  0  0  0  0
   59.9870   34.9510   46.0430 C   0  0  0  0  0  0  0  0  0  0  0  0
   58.8850   34.9580   45.2150 C   0  0  0  0  0  0  0  0  0  0  0  0
   58.2260   33.8030   44.9670 N   0  0  0  0  0  0  0  0  0  0  0  0
   58.6610   32.6620   45.5370 C   0  0  0  0  0  0  0  0  0  0  0  0
   57.8940   31.4200   45.2260 C   0  0  0  0  0  0  0  0  0  0  0  0
   58.4610   30.6980   44.2060 F   0  0  0  0  0  0  0  0  0  0  0  0
   57.7870   30.6340   46.3760 F   0  0  0  0  0  0  0  0  0  0  0  0
   56.6070   31.7580   44.8450 F   0  0  0  0  0  0  0  0  0  0  0  0
   59.7730   32.6290   46.3780 C   0  0  0  0  0  0  0  0  0  0  0  0
   59.1050   32.2740   49.7470 C   0  0  0  0  0  0  0  0  0  0  0  0
   58.1370   31.5820   50.4390 C   0  0  0  0  0  0  0  0  0  0  0  0
   58.0086   33.5094   53.1770 H   0  0  0  0  0  0  0  0  0  0  0  0
   59.7286   34.7334   51.9450 H   0  0  0  0  0  0  0  0  0  0  0  0
   64.8175   33.1302   49.5192 H   0  0  0  0  0  0  0  0  0  0  0  0
   64.8090   32.8790   47.1140 H   0  0  0  0  0  0  0  0  0  0  0  0
   62.8210   33.2314   45.8381 H   0  0  0  0  0  0  0  0  0  0  0  0
   60.5053   35.9033   46.2287 H   0  0  0  0  0  0  0  0  0  0  0  0
   58.5431   35.8984   44.7581 H   0  0  0  0  0  0  0  0  0  0  0  0
   60.1020   31.6803   46.8273 H   0  0  0  0  0  0  0  0  0  0  0  0
   59.4038   31.8959   48.7582 H   0  0  0  0  0  0  0  0  0  0  0  0
   57.6884   30.6802   49.9968 H   0  0  0  0  0  0  0  0  0  0  0  0
  1  2  1  0
  2  3  1  0
  2  4  1  0
  2  5  1  0
  5  6  2  0
  6  7  1  0
  7  8  2  0
  8  9  1  0
  9 10  2  0
 10 11  1  0
 11 12  2  0
 12 13  1  0
 13 14  1  0
 14 15  2  0
 15 16  1  0
 16 17  2  0
 17 18  1  0
 18 19  2  0
 19 20  1  0
 20 21  1  0
 21 22  1  0
 21 23  1  0
 21 24  1  0
 20 25  2  0
  8 26  1  0
 26 27  2  0
 27  5  1  0
 15 10  1  0
 25 16  1  0
  6 28  1  0
  7 29  1  0
 12 30  1  0
 13 31  1  0
 14 32  1  0
 17 33  1  0
 18 34  1  0
 25 35  1  0
 26 36  1  0
 27 37  1  0
M  END
>  <smiles>  (31) 
FC(F)(F)c1ccc(N=c2nc[nH]cc2-c2ccnc(C(F)(F)F)c2)cc1

>  <score_type>  (31) 
oracle

>  <origin>  (31) 
adg

>  <m_score__min__energy>  (31) 
-6.5999999999999996

>  <m_primary>  (31) 
energy

$$$$
31:0
     RDKit          3D

 47 49  0  0  0  0  0  0  0  0999 V2000
   59.9680   34.9650   47.0110 C   0  0  0  0  0  0  0  0  0  0  0  0
   60.0150   34.1980   48.3310 C   0  0  0  0  0  0  0  0  0  0  0  0
   60.8220   32.9670   48.1910 N   0  0  0  0  0  0  0  0  0  0  0  0
   61.4470   32.8570   46.8600 C   0  0  0  0  0  0  0  0  0  0  0  0
   60.0660   31.7460   48.5560 C   0  0  0  0  0  0  0  0  0  0  0  0
   58.5370   31.8900   48.4160 C   0  0  0  0  0  0  0  0  0  0  0  0
   58.1570   31.9490   46.9980 N   0  0  0  0  0  0  0  0  0  0  0  0
   57.5110   33.1610   46.4820 C   0  0  0  0  0  0  0  0  0  0  0  0
   57.7360   33.3110   45.0060 C   0  0  0  0  0  0  0  0  0  0  0  0
   57.6630   34.4630   44.4960 O   0  0  0  0  0  0  0  0  0  0  0  0
   57.9650   32.1540   44.1750 N   0  0  0  0  0  0  0  0  0  0  0  0
   58.1430   32.3330   42.7240 C   0  0  0  0  0  0  0  0  0  0  0  0
   57.0480   31.6020   41.9550 C   0  0  0  0  0  0  0  0  0  0  0  0
   58.0220   30.8460   44.7960 C   0  0  0  0  0  0  0  0  0  0  0  0
   57.9700   29.6930   44.0590 N   0  0  0  0  0  0  0  0  0  0  0  0
   58.0770   28.4690   44.6520 C   0  0  0  0  0  0  0  0  0  0  0  0
   58.0320   27.2900   43.8920 C   0  0  0  0  0  0  0  0  0  0  0  0
   58.1470   26.0460   44.5240 C   0  0  0  0  0  0  0  0  0  0  0  0
   58.3070   25.9740   45.9120 C   0  0  0  0  0  0  0  0  0  0  0  0
   58.3510   27.1450   46.6760 C   0  0  0  0  0  0  0  0  0  0  0  0
   58.2360   28.3900   46.0490 C   0  0  0  0  0  0  0  0  0  0  0  0
   58.2650   29.5320   46.7790 N   0  0  0  0  0  0  0  0  0  0  0  0
   58.1510   30.7550   46.1950 C   0  0  0  0  0  0  0  0  0  0  0  0
   59.9019   36.0437   47.2159 H   0  0  0  0  0  0  0  0  0  0  0  0
   60.8806   34.7568   46.4332 H   0  0  0  0  0  0  0  0  0  0  0  0
   59.0877   34.6469   46.4332 H   0  0  0  0  0  0  0  0  0  0  0  0
   60.4638   34.8381   49.1049 H   0  0  0  0  0  0  0  0  0  0  0  0
   58.9896   33.9186   48.6147 H   0  0  0  0  0  0  0  0  0  0  0  0
   62.5244   32.6674   46.9754 H   0  0  0  0  0  0  0  0  0  0  0  0
   60.9858   32.0262   46.3059 H   0  0  0  0  0  0  0  0  0  0  0  0
   61.2971   33.7953   46.3059 H   0  0  0  0  0  0  0  0  0  0  0  0
   60.3975   30.9256   47.9025 H   0  0  0  0  0  0  0  0  0  0  0  0
   60.2714   31.5502   49.6188 H   0  0  0  0  0  0  0  0  0  0  0  0
   58.0466   31.0254   48.8872 H   0  0  0  0  0  0  0  0  0  0  0  0
   58.2189   32.8199   48.9102 H   0  0  0  0  0  0  0  0  0  0  0  0
   56.4298   33.1012   46.6756 H   0  0  0  0  0  0  0  0  0  0  0  0
   57.9493   34.0322   46.9909 H   0  0  0  0  0  0  0  0  0  0  0  0
   58.0990   33.4056   42.4839 H   0  0  0  0  0  0  0  0  0  0  0  0
   59.1190   31.9177   42.4324 H   0  0  0  0  0  0  0  0  0  0  0  0
   56.3496   31.1358   42.6656 H   0  0  0  0  0  0  0  0  0  0  0  0
   56.5035   32.3184   41.3223 H   0  0  0  0  0  0  0  0  0  0  0  0
   57.5009   30.8244   41.3223 H   0  0  0  0  0  0  0  0  0  0  0  0
   57.8350   29.7300   43.0250 H   0  0  0  0  0  0  0  0  0  0  0  0
   57.9065   27.3433   42.8005 H   0  0  0  0  0  0  0  0  0  0  0  0
   58.1114   25.1225   43.9275 H   0  0  0  0  0  0  0  0  0  0  0  0
   58.3984   24.9943   46.4037 H   0  0  0  0  0  0  0  0  0  0  0  0
   58.4758   27.0868   47.7674 H   0  0  0  0  0  0  0  0  0  0  0  0
  1  2  1  0
  2  3  1  0
  3  4  1  0
  3  5  1  0
  5  6  1  0
  6  7  1  0
  7  8  1  0
  8  9  1  0
  9 10  2  0
  9 11  1  0
 11 12  1  0
 12 13  1  0
 11 14  1  0
 14 15  2  0
 15 16  1  0
 16 17  2  0
 17 18  1  0
 18 19  2  0
 19 20  1  0
 20 21  2  0
 21 22  1  0
 22 23  2  0
 23  7  1  0
 23 14  1  0
 21 16  1  0
  1 24  1  0
  1 25  1  0
  1 26  1  0
  2 27  1  0
  2 28  1  0
  4 29  1  0
  4 30  1  0
  4 31  1  0
  5 32  1  0
  5 33  1  0
  6 34  1  0
  6 35  1  0
  8 36  1  0
  8 37  1  0
 12 38  1  0
 12 39  1  0
 13 40  1  0
 13 41  1  0
 13 42  1  0
 15 43  1  0
 17 44  1  0
 18 45  1  0
 19 46  1  0
 20 47  1  0
M  CHG  1  15   1
M  END
>  <UniqueID>  (32) 
28

>  <SMILES>  (32) 
CCN(C)CCN1CC(=O)N(CC)c2[nH+]c3ccccc3nc21

>  <Energy>  (32) 
52.27631033934314

>  <Genealogy>  (32) 
CCN(C)CCN1CC(=O)N(CC)c2[nH+]c3ccccc3nc21 (protonated)
CCN(C)CCN1CC(=O)N(CC)c2[nH+]c3ccccc3nc21 (3D coordinates assigned)
CCN(C)CCN1CC(=O)N(CC)c2[nH+]c3ccccc3nc21 (nonaromatic ring conformer: 52.27631033934314 kcal/mol)

>  <smiles>  (32) 
CCN(C)CCN1CC(=O)N(CC)c2nc3ccccc3nc21

>  <score_type>  (32) 
oracle

>  <origin>  (32) 
adg

>  <m_score__min__energy>  (32) 
-5.2599999999999998

>  <m_primary>  (32) 
energy

$$$$
32:0
     RDKit          3D

 37 37  0  0  0  0  0  0  0  0999 V2000
   56.4140   29.7310   43.4640 C   0  0  0  0  0  0  0  0  0  0  0  0
   56.6370   30.1250   44.8140 O   0  0  0  0  0  0  0  0  0  0  0  0
   57.4130   31.2270   45.2100 C   0  0  0  0  0  0  0  0  0  0  0  0
   57.0090   32.5460   44.9170 C   0  0  0  0  0  0  0  0  0  0  0  0
   57.7690   33.6330   45.3460 C   0  0  0  0  0  0  0  0  0  0  0  0
   58.9380   33.4240   46.0740 C   0  0  0  0  0  0  0  0  0  0  0  0
   59.9650   34.9180   46.6760 Br  0  0  0  0  0  0  0  0  0  0  0  0
   59.3590   32.1250   46.3640 C   0  0  0  0  0  0  0  0  0  0  0  0
   58.6120   31.0100   45.9340 C   0  0  0  0  0  0  0  0  0  0  0  0
   59.0880   29.6290   46.2370 C   0  0  0  0  0  0  0  0  0  0  0  0
   58.8760   29.1260   47.3740 O   0  0  0  0  0  0  0  0  0  0  0  0
   59.8060   28.7890   45.2140 C   0  0  0  0  0  0  0  0  0  0  0  0
   60.0050   27.4640   45.7020 O   0  0  0  0  0  0  0  0  0  0  0  0
   59.0010   26.4890   45.7020 C   0  0  0  0  0  0  0  0  0  0  0  0
   59.2490   25.3100   46.0750 O   0  0  0  0  0  0  0  0  0  0  0  0
   57.6320   26.8430   45.2150 C   0  0  0  0  0  0  0  0  0  0  0  0
   56.6630   27.0350   46.3810 C   0  0  0  0  0  0  0  0  0  0  0  0
   55.3140   26.6370   45.9830 N   0  0  0  0  0  0  0  0  0  0  0  0
   55.1850   24.9040   45.9810 S   0  0  0  0  0  0  0  0  0  0  0  0
   55.9470   24.2280   44.5210 C   0  0  0  0  0  0  0  0  0  0  0  0
   53.7320   24.5230   45.9950 O   0  0  0  0  0  0  0  0  0  0  0  0
   55.8490   24.3350   47.2030 O   0  0  0  0  0  0  0  0  0  0  0  0
   55.8722   28.7738   43.4461 H   0  0  0  0  0  0  0  0  0  0  0  0
   55.8171   30.4998   42.9515 H   0  0  0  0  0  0  0  0  0  0  0  0
   57.3804   29.6150   42.9515 H   0  0  0  0  0  0  0  0  0  0  0  0
   56.0856   32.7187   44.3446 H   0  0  0  0  0  0  0  0  0  0  0  0
   57.4451   34.6572   45.1093 H   0  0  0  0  0  0  0  0  0  0  0  0
   60.2859   31.9697   46.9356 H   0  0  0  0  0  0  0  0  0  0  0  0
   59.2052   28.7487   44.2935 H   0  0  0  0  0  0  0  0  0  0  0  0
   60.7871   29.2422   45.0089 H   0  0  0  0  0  0  0  0  0  0  0  0
   57.6873   27.7772   44.6369 H   0  0  0  0  0  0  0  0  0  0  0  0
   57.2621   26.0193   44.5867 H   0  0  0  0  0  0  0  0  0  0  0  0
   56.9890   26.4171   47.2306 H   0  0  0  0  0  0  0  0  0  0  0  0
   56.6547   28.0959   46.6716 H   0  0  0  0  0  0  0  0  0  0  0  0
   56.7402   23.5243   44.8137 H   0  0  0  0  0  0  0  0  0  0  0  0
   55.1898   23.6991   43.9236 H   0  0  0  0  0  0  0  0  0  0  0  0
   56.3819   25.0429   43.9236 H   0  0  0  0  0  0  0  0  0  0  0  0
  1  2  1  0
  2  3  1  0
  3  4  2  0
  4  5  1  0
  5  6  2  0
  6  7  1  0
  6  8  1  0
  8  9  2  0
  9 10  1  0
 10 11  2  0
 10 12  1  0
 12 13  1  0
 13 14  1  0
 14 15  2  0
 14 16  1  0
 16 17  1  0
 17 18  1  0
 18 19  1  0
 19 20  1  0
 19 21  2  0
 19 22  2  0
  9  3  1  0
  1 23  1  0
  1 24  1  0
  1 25  1  0
  4 26  1  0
  5 27  1  0
  8 28  1  0
 12 29  1  0
 12 30  1  0
 16 31  1  0
 16 32  1  0
 17 33  1  0
 17 34  1  0
 20 35  1  0
 20 36  1  0
 20 37  1  0
M  CHG  1  18  -1
M  END
>  <UniqueID>  (33) 
29

>  <SMILES>  (33) 
COc1ccc(Br)cc1C(=O)COC(=O)CC[N-]S(C)(=O)=O

>  <Energy>  (33) 
21.676533222501753

>  <Genealogy>  (33) 
COc1ccc(Br)cc1C(=O)COC(=O)CC[N-]S(C)(=O)=O (protonated)
COc1ccc(Br)cc1C(=O)COC(=O)CC[N-]S(C)(=O)=O (3D coordinates assigned)
COc1ccc(Br)cc1C(=O)COC(=O)CC[N-]S(C)(=O)=O (optimized conformer: 21.676533222501753 kcal/mol)

>  <smiles>  (33) 
COc1ccc(Br)cc1C(=O)COC(=O)CCNS(C)(=O)=O

>  <score_type>  (33) 
oracle

>  <origin>  (33) 
adg

>  <m_score__min__energy>  (33) 
-9.2400000000000002

>  <m_primary>  (33) 
energy

$$$$
33:0
     RDKit          3D

 38 39  0  0  0  0  0  0  0  0999 V2000
   57.1300   30.9000   43.6730 C   0  0  0  0  0  0  0  0  0  0  0  0
   56.6880   29.4630   43.3760 C   0  0  0  0  0  0  0  0  0  0  0  0
   57.2750   28.4650   44.3100 N   0  0  0  0  0  0  0  0  0  0  0  0
   58.4840   27.8260   43.7280 C   0  0  0  0  0  0  0  0  0  0  0  0
   58.1370   26.7540   42.6870 C   0  0  0  0  0  0  0  0  0  0  0  0
   57.5310   28.9920   45.6800 C   0  0  0  0  0  0  0  0  0  0  0  0
   57.7750   27.9360   46.7950 C   0  0  0  0  0  0  0  0  0  0  0  0
   57.8100   26.5390   46.2870 N   0  0  0  0  0  0  0  0  0  0  0  0
   58.9750   25.7950   46.2560 C   0  0  0  0  0  0  0  0  0  0  0  0
   60.4070   26.3530   46.8370 S   0  0  0  0  0  0  0  0  0  0  0  0
   58.9700   24.5360   45.7470 N   0  0  0  0  0  0  0  0  0  0  0  0
   57.8410   23.9570   45.2820 C   0  0  0  0  0  0  0  0  0  0  0  0
   57.8860   22.6600   44.7560 C   0  0  0  0  0  0  0  0  0  0  0  0
   56.7150   22.0530   44.2930 C   0  0  0  0  0  0  0  0  0  0  0  0
   55.4980   22.7370   44.3590 C   0  0  0  0  0  0  0  0  0  0  0  0
   55.4480   24.0320   44.8840 C   0  0  0  0  0  0  0  0  0  0  0  0
   56.6250   24.6530   45.3480 C   0  0  0  0  0  0  0  0  0  0  0  0
   56.6300   25.9520   45.8830 C   0  0  0  0  0  0  0  0  0  0  0  0
   55.5360   26.5730   46.0010 O   0  0  0  0  0  0  0  0  0  0  0  0
   57.1767   31.0517   44.7615 H   0  0  0  0  0  0  0  0  0  0  0  0
   58.1238   31.0758   43.2353 H   0  0  0  0  0  0  0  0  0  0  0  0
   56.4068   31.6039   43.2353 H   0  0  0  0  0  0  0  0  0  0  0  0
   55.5919   29.4113   43.4527 H   0  0  0  0  0  0  0  0  0  0  0  0
   57.0434   29.2137   42.3653 H   0  0  0  0  0  0  0  0  0  0  0  0
   56.5530   27.7150   44.4380 H   0  0  0  0  0  0  0  0  0  0  0  0
   59.0956   28.6022   43.2449 H   0  0  0  0  0  0  0  0  0  0  0  0
   59.0293   27.3335   44.5466 H   0  0  0  0  0  0  0  0  0  0  0  0
   57.8373   25.8282   43.1999 H   0  0  0  0  0  0  0  0  0  0  0  0
   57.3079   27.1091   42.0573 H   0  0  0  0  0  0  0  0  0  0  0  0
   59.0169   26.5560   42.0573 H   0  0  0  0  0  0  0  0  0  0  0  0
   58.4211   29.6363   45.6293 H   0  0  0  0  0  0  0  0  0  0  0  0
   56.6061   29.5125   45.9693 H   0  0  0  0  0  0  0  0  0  0  0  0
   58.7383   28.1555   47.2785 H   0  0  0  0  0  0  0  0  0  0  0  0
   56.9319   28.0051   47.4981 H   0  0  0  0  0  0  0  0  0  0  0  0
   58.8425   22.1190   44.7072 H   0  0  0  0  0  0  0  0  0  0  0  0
   56.7514   21.0357   43.8762 H   0  0  0  0  0  0  0  0  0  0  0  0
   54.5775   22.2556   43.9972 H   0  0  0  0  0  0  0  0  0  0  0  0
   54.4883   24.5671   44.9349 H   0  0  0  0  0  0  0  0  0  0  0  0
  1  2  1  0
  2  3  1  0
  3  4  1  0
  4  5  1  0
  3  6  1  0
  6  7  1  0
  7  8  1  0
  8  9  1  0
  9 10  2  0
  9 11  1  0
 11 12  1  0
 12 13  2  0
 13 14  1  0
 14 15  2  0
 15 16  1  0
 16 17  2  0
 17 18  1  0
 18 19  2  0
 18  8  1  0
 17 12  1  0
  1 20  1  0
  1 21  1  0
  1 22  1  0
  2 23  1  0
  2 24  1  0
  3 25  1  0
  4 26  1  0
  4 27  1  0
  5 28  1  0
  5 29  1  0
  5 30  1  0
  6 31  1  0
  6 32  1  0
  7 33  1  0
  7 34  1  0
 13 35  1  0
 14 36  1  0
 15 37  1  0
 16 38  1  0
M  CHG  2   3   1  11  -1
M  END
>  <UniqueID>  (34) 
30

>  <SMILES>  (34) 
CC[NH+](CC)CCn1c(=S)[n-]c2ccccc2c1=O

>  <Energy>  (34) 
53.718737257184515

>  <Genealogy>  (34) 
CC[NH+](CC)CCn1c(=S)[n-]c2ccccc2c1=O (protonated)
CC[NH+](CC)CCn1c(=S)[n-]c2ccccc2c1=O (3D coordinates assigned)
CC[NH+](CC)CCn1c(=S)[n-]c2ccccc2c1=O (optimized conformer: 53.718737257184515 kcal/mol)

>  <smiles>  (34) 
CCN(CC)CCn1c(=S)[nH]c2ccccc2c1=O

>  <score_type>  (34) 
oracle

>  <origin>  (34) 
adg

>  <m_score__min__energy>  (34) 
-5.71

>  <m_primary>  (34) 
energy

$$$$
34:0
     RDKit          3D

 25 27  0  0  0  0  0  0  0  0999 V2000
   57.9729   32.8135   45.1508 H   0  0  0  0  0  0  0  0  0  0  0  0
   57.6130   31.9210   44.6180 C   0  0  0  0  0  0  0  0  0  0  0  0
   57.3600   30.7750   45.3050 N   0  0  0  0  0  0  0  0  0  0  0  0
   56.9390   29.6400   44.6780 C   0  0  0  0  0  0  0  0  0  0  0  0
   56.6080   28.4740   45.4380 N   0  0  0  0  0  0  0  0  0  0  0  0
   57.4000   27.7130   46.1470 C   0  0  0  0  0  0  0  0  0  0  0  0
   56.9860   26.3950   46.4700 C   0  0  0  0  0  0  0  0  0  0  0  0
   55.7250   25.8750   45.9980 C   0  0  0  0  0  0  0  0  0  0  0  0
   54.7140   25.4580   45.6200 N   0  0  0  0  0  0  0  0  0  0  0  0
   57.7880   25.5830   47.2980 C   0  0  0  0  0  0  0  0  0  0  0  0
   57.4503   24.5722   47.5705 H   0  0  0  0  0  0  0  0  0  0  0  0
   58.9800   26.0500   47.7600 N   0  0  0  0  0  0  0  0  0  0  0  0
   59.3620   27.2770   47.4260 N   0  0  0  0  0  0  0  0  0  0  0  0
   60.5400   27.8790   47.6370 C   0  0  0  0  0  0  0  0  0  0  0  0
   61.3504   27.4801   48.2649 H   0  0  0  0  0  0  0  0  0  0  0  0
   60.5840   29.0500   46.9630 N   0  0  0  0  0  0  0  0  0  0  0  0
   59.4190   29.1830   46.3360 N   0  0  0  0  0  0  0  0  0  0  0  0
   59.2200   29.9520   45.6630 H   0  0  0  0  0  0  0  0  0  0  0  0
   58.6670   28.1020   46.6360 C   0  0  0  0  0  0  0  0  0  0  0  0
   56.6970   29.6590   43.3000 C   0  0  0  0  0  0  0  0  0  0  0  0
   56.3095   28.7636   42.7920 H   0  0  0  0  0  0  0  0  0  0  0  0
   56.9520   30.8250   42.5760 C   0  0  0  0  0  0  0  0  0  0  0  0
   56.7879   30.8458   41.4885 H   0  0  0  0  0  0  0  0  0  0  0  0
   57.4160   31.9650   43.2360 C   0  0  0  0  0  0  0  0  0  0  0  0
   57.6240   32.8872   42.6737 H   0  0  0  0  0  0  0  0  0  0  0  0
  1  2  1  0
  2  3  2  0
  3  4  1  0
  4  5  1  0
  5  6  2  0
  6  7  1  0
  7  8  1  0
  8  9  3  0
  7 10  2  0
 10 11  1  0
 10 12  1  0
 12 13  1  0
 13 14  1  0
 14 15  1  0
 14 16  2  0
 16 17  1  0
 17 18  1  0
 17 19  2  0
  4 20  2  0
 20 21  1  0
 20 22  1  0
 22 23  1  0
 22 24  2  0
 24 25  1  0
 24  2  1  0
 19  6  1  0
 19 13  1  0
M  CHG  2  12  -1  17   1
M  END
>  <UniqueID>  (35) 
31

>  <SMILES>  (35) 
N#Cc1c[n-]n2cn[nH+]c2/c1=N\c1ccccn1

>  <Energy>  (35) 
86.09399586147856

>  <Genealogy>  (35) 
N#Cc1c[n-]n2cn[nH+]c2c1=Nc1ccccn1 (protonated)
N#Cc1c[n-]n2cn[nH+]c2/c1=N\c1ccccn1 (cis-trans isomerization)
N#Cc1c[n-]n2cn[nH+]c2/c1=N\c1ccccn1 (3D coordinates assigned)
N#Cc1c[n-]n2cn[nH+]c2/c1=N\c1ccccn1 (optimized conformer: 86.09399586147856 kcal/mol)

>  <smiles>  (35) 
N#Cc1c[nH]n2cnnc2c1=Nc1ccccn1

>  <score_type>  (35) 
oracle

>  <origin>  (35) 
adg

>  <m_score__min__energy>  (35) 
-5.54

>  <m_primary>  (35) 
energy

$$$$
35:0
     RDKit          3D

 44 45  0  0  0  0  0  0  0  0999 V2000
   56.4490   29.8670   43.3390 C   0  0  0  0  0  0  0  0  0  0  0  0
   56.3480   30.6510   44.5230 O   0  0  0  0  0  0  0  0  0  0  0  0
   57.3920   31.4270   45.0540 C   0  0  0  0  0  0  0  0  0  0  0  0
   57.5660   32.7800   44.7100 C   0  0  0  0  0  0  0  0  0  0  0  0
   58.6010   33.5280   45.2840 C   0  0  0  0  0  0  0  0  0  0  0  0
   58.8260   34.9580   44.8850 C   0  0  0  0  0  0  0  0  0  0  0  0
   59.4670   32.9030   46.1860 C   0  0  0  0  0  0  0  0  0  0  0  0
   59.2900   31.5950   46.5060 N   0  0  0  0  0  0  0  0  0  0  0  0
   58.2900   30.8430   45.9690 C   0  0  0  0  0  0  0  0  0  0  0  0
   58.1570   29.4100   46.4020 C   0  0  0  0  0  0  0  0  0  0  0  0
   59.6850   28.5110   46.1650 S   0  0  0  0  0  0  0  0  0  0  0  0
   60.7010   29.3860   45.4790 O   0  0  0  0  0  0  0  0  0  0  0  0
   59.4030   27.3240   45.2880 O   0  0  0  0  0  0  0  0  0  0  0  0
   60.2940   27.9330   47.6910 N   0  0  0  0  0  0  0  0  0  0  0  0
   59.7400   28.6880   48.8160 C   0  0  0  0  0  0  0  0  0  0  0  0
   60.5230   29.9930   49.0260 C   0  0  0  0  0  0  0  0  0  0  0  0
   61.2680   30.3940   47.8210 N   0  0  0  0  0  0  0  0  0  0  0  0
   62.2600   31.4040   48.1150 C   0  0  0  0  0  0  0  0  0  0  0  0
   62.7990   31.5170   49.4100 C   0  0  0  0  0  0  0  0  0  0  0  0
   63.7350   32.5130   49.7010 C   0  0  0  0  0  0  0  0  0  0  0  0
   64.1380   33.4080   48.7060 C   0  0  0  0  0  0  0  0  0  0  0  0
   63.6050   33.3070   47.4190 C   0  0  0  0  0  0  0  0  0  0  0  0
   62.6720   32.3090   47.1210 C   0  0  0  0  0  0  0  0  0  0  0  0
   56.5852   28.8096   43.6099 H   0  0  0  0  0  0  0  0  0  0  0  0
   55.5291   29.9780   42.7461 H   0  0  0  0  0  0  0  0  0  0  0  0
   57.3107   30.2076   42.7461 H   0  0  0  0  0  0  0  0  0  0  0  0
   56.8855   33.2526   43.9864 H   0  0  0  0  0  0  0  0  0  0  0  0
   58.9238   35.5794   45.7874 H   0  0  0  0  0  0  0  0  0  0  0  0
   59.7468   35.0315   44.2877 H   0  0  0  0  0  0  0  0  0  0  0  0
   57.9723   35.3107   44.2877 H   0  0  0  0  0  0  0  0  0  0  0  0
   60.2933   33.4716   46.6374 H   0  0  0  0  0  0  0  0  0  0  0  0
   57.8871   29.3820   47.4680 H   0  0  0  0  0  0  0  0  0  0  0  0
   57.3773   28.9344   45.7889 H   0  0  0  0  0  0  0  0  0  0  0  0
   58.6868   28.9273   48.6077 H   0  0  0  0  0  0  0  0  0  0  0  0
   59.8169   28.0765   49.7271 H   0  0  0  0  0  0  0  0  0  0  0  0
   59.8147   30.7931   49.2873 H   0  0  0  0  0  0  0  0  0  0  0  0
   61.2512   29.8241   49.8329 H   0  0  0  0  0  0  0  0  0  0  0  0
   60.5910   30.7820   47.1220 H   0  0  0  0  0  0  0  0  0  0  0  0
   61.7120   29.5530   47.3860 H   0  0  0  0  0  0  0  0  0  0  0  0
   62.4818   30.8175   50.1975 H   0  0  0  0  0  0  0  0  0  0  0  0
   64.1552   32.5927   50.7145 H   0  0  0  0  0  0  0  0  0  0  0  0
   64.8747   34.1917   48.9365 H   0  0  0  0  0  0  0  0  0  0  0  0
   63.9200   34.0144   46.6377 H   0  0  0  0  0  0  0  0  0  0  0  0
   62.2586   32.2316   46.1046 H   0  0  0  0  0  0  0  0  0  0  0  0
  1  2  1  0
  2  3  1  0
  3  4  2  0
  4  5  1  0
  5  6  1  0
  5  7  2  0
  7  8  1  0
  8  9  2  0
  9 10  1  0
 10 11  1  0
 11 12  2  0
 11 13  2  0
 11 14  1  0
 14 15  1  0
 15 16  1  0
 16 17  1  0
 17 18  1  0
 18 19  2  0
 19 20  1  0
 20 21  2  0
 21 22  1  0
 22 23  2  0
  9  3  1  0
 23 18  1  0
  1 24  1  0
  1 25  1  0
  1 26  1  0
  4 27  1  0
  6 28  1  0
  6 29  1  0
  6 30  1  0
  7 31  1  0
 10 32  1  0
 10 33  1  0
 15 34  1  0
 15 35  1  0
 16 36  1  0
 16 37  1  0
 17 38  1  0
 17 39  1  0
 19 40  1  0
 20 41  1  0
 21 42  1  0
 22 43  1  0
 23 44  1  0
M  CHG  2  14  -1  17   1
M  END
>  <UniqueID>  (36) 
32

>  <SMILES>  (36) 
COc1cc(C)cnc1CS(=O)(=O)[N-]CC[NH2+]c1ccccc1

>  <Energy>  (36) 
33.58594732751944

>  <Genealogy>  (36) 
COc1cc(C)cnc1CS(=O)(=O)[N-]CC[NH2+]c1ccccc1 (protonated)
COc1cc(C)cnc1CS(=O)(=O)[N-]CC[NH2+]c1ccccc1 (3D coordinates assigned)
COc1cc(C)cnc1CS(=O)(=O)[N-]CC[NH2+]c1ccccc1 (optimized conformer: 33.58594732751944 kcal/mol)

>  <smiles>  (36) 
COc1cc(C)cnc1CS(=O)(=O)NCCNc1ccccc1

>  <score_type>  (36) 
oracle

>  <origin>  (36) 
adg

>  <m_score__min__energy>  (36) 
-7.1299999999999999

>  <m_primary>  (36) 
energy

$$$$
36:0
     RDKit          3D

 52 54  0  0  0  0  0  0  0  0999 V2000
   60.4330   29.6440   48.8130 C   0  0  0  0  0  0  0  0  0  0  0  0
   60.2930   31.1630   48.8540 C   0  0  0  0  0  0  0  0  0  0  0  0
   61.4690   31.8370   48.1890 C   0  0  0  0  0  0  0  0  0  0  0  0
   62.6560   31.2150   48.0630 N   0  0  0  0  0  0  0  0  0  0  0  0
   63.4450   32.0500   47.4190 N   0  0  0  0  0  0  0  0  0  0  0  0
   62.7580   33.1750   47.1550 C   0  0  0  0  0  0  0  0  0  0  0  0
   63.3330   34.2150   46.2370 C   0  0  0  0  0  0  0  0  0  0  0  0
   61.4830   33.0920   47.6480 N   0  0  0  0  0  0  0  0  0  0  0  0
   60.3460   34.0530   47.7100 C   0  0  0  0  0  0  0  0  0  0  0  0
   60.2100   34.8400   46.3870 C   0  0  0  0  0  0  0  0  0  0  0  0
   59.6460   33.9840   45.2360 C   0  0  0  0  0  0  0  0  0  0  0  0
   58.9390   32.7800   45.7170 N   0  0  0  0  0  0  0  0  0  0  0  0
   58.1590   32.1490   44.6340 C   0  0  0  0  0  0  0  0  0  0  0  0
   57.8070   30.7480   45.0260 C   0  0  0  0  0  0  0  0  0  0  0  0
   58.3800   30.0000   46.0310 C   0  0  0  0  0  0  0  0  0  0  0  0
   57.9220   28.7380   45.9260 N   0  0  0  0  0  0  0  0  0  0  0  0
   58.3680   27.5990   46.7210 C   0  0  0  0  0  0  0  0  0  0  0  0
   59.8110   27.2500   46.3710 C   0  0  0  0  0  0  0  0  0  0  0  0
   57.1080   28.6320   44.8850 N   0  0  0  0  0  0  0  0  0  0  0  0
   57.0130   29.8530   44.3260 C   0  0  0  0  0  0  0  0  0  0  0  0
   56.2710   30.1310   43.0590 C   0  0  0  0  0  0  0  0  0  0  0  0
   58.0950   33.0860   46.8910 C   0  0  0  0  0  0  0  0  0  0  0  0
   58.9680   33.4680   48.1060 C   0  0  0  0  0  0  0  0  0  0  0  0
   60.4692   29.2513   49.8399 H   0  0  0  0  0  0  0  0  0  0  0  0
   59.5710   29.2105   48.2848 H   0  0  0  0  0  0  0  0  0  0  0  0
   61.3597   29.3753   48.2848 H   0  0  0  0  0  0  0  0  0  0  0  0
   59.3700   31.4527   48.3304 H   0  0  0  0  0  0  0  0  0  0  0  0
   60.2578   31.4816   49.9063 H   0  0  0  0  0  0  0  0  0  0  0  0
   64.4250   31.8290   47.1320 H   0  0  0  0  0  0  0  0  0  0  0  0
   63.7802   35.0238   46.8336 H   0  0  0  0  0  0  0  0  0  0  0  0
   64.1060   33.7569   45.6025 H   0  0  0  0  0  0  0  0  0  0  0  0
   62.5340   34.6261   45.6025 H   0  0  0  0  0  0  0  0  0  0  0  0
   60.6241   34.7178   48.5411 H   0  0  0  0  0  0  0  0  0  0  0  0
   59.5354   35.6928   46.5535 H   0  0  0  0  0  0  0  0  0  0  0  0
   61.2179   35.1673   46.0921 H   0  0  0  0  0  0  0  0  0  0  0  0
   58.9422   34.5967   44.6536 H   0  0  0  0  0  0  0  0  0  0  0  0
   60.4956   33.6487   44.6231 H   0  0  0  0  0  0  0  0  0  0  0  0
   57.2375   32.7245   44.4621 H   0  0  0  0  0  0  0  0  0  0  0  0
   58.7577   32.1329   43.7113 H   0  0  0  0  0  0  0  0  0  0  0  0
   59.0882   30.3692   46.7874 H   0  0  0  0  0  0  0  0  0  0  0  0
   58.3038   27.8532   47.7893 H   0  0  0  0  0  0  0  0  0  0  0  0
   57.7248   26.7335   46.5035 H   0  0  0  0  0  0  0  0  0  0  0  0
   60.3892   27.1102   47.2963 H   0  0  0  0  0  0  0  0  0  0  0  0
   59.8311   26.3211   45.7822 H   0  0  0  0  0  0  0  0  0  0  0  0
   60.2534   28.0671   45.7822 H   0  0  0  0  0  0  0  0  0  0  0  0
   55.2655   30.5077   43.2980 H   0  0  0  0  0  0  0  0  0  0  0  0
   56.8158   30.8860   42.4732 H   0  0  0  0  0  0  0  0  0  0  0  0
   56.1855   29.2039   42.4732 H   0  0  0  0  0  0  0  0  0  0  0  0
   57.4281   33.9261   46.6472 H   0  0  0  0  0  0  0  0  0  0  0  0
   57.5059   32.1926   47.1456 H   0  0  0  0  0  0  0  0  0  0  0  0
   58.4281   34.2187   48.7017 H   0  0  0  0  0  0  0  0  0  0  0  0
   59.1568   32.5455   48.6746 H   0  0  0  0  0  0  0  0  0  0  0  0
  1  2  1  0
  2  3  1  0
  3  4  2  0
  4  5  1  0
  5  6  2  0
  6  7  1  0
  6  8  1  0
  8  9  1  0
  9 10  1  0
 10 11  1  0
 11 12  1  0
 12 13  1  0
 13 14  1  0
 14 15  2  0
 15 16  1  0
 16 17  1  0
 17 18  1  0
 16 19  1  0
 19 20  2  0
 20 21  1  0
 12 22  1  0
 22 23  1  0
  8  3  1  0
 23  9  1  0
 20 14  1  0
  1 24  1  0
  1 25  1  0
  1 26  1  0
  2 27  1  0
  2 28  1  0
  5 29  1  0
  7 30  1  0
  7 31  1  0
  7 32  1  0
  9 33  1  0
 10 34  1  0
 10 35  1  0
 11 36  1  0
 11 37  1  0
 13 38  1  0
 13 39  1  0
 15 40  1  0
 17 41  1  0
 17 42  1  0
 18 43  1  0
 18 44  1  0
 18 45  1  0
 21 46  1  0
 21 47  1  0
 21 48  1  0
 22 49  1  0
 22 50  1  0
 23 51  1  0
 23 52  1  0
M  CHG  1   5   1
M  END
>  <UniqueID>  (37) 
33

>  <SMILES>  (37) 
CCc1n[nH+]c(C)n1C1CCN(Cc2cn(CC)nc2C)CC1

>  <Energy>  (37) 
122.80212507835465

>  <Genealogy>  (37) 
CCc1n[nH+]c(C)n1C1CCN(Cc2cn(CC)nc2C)CC1 (protonated)
CCc1n[nH+]c(C)n1C1CCN(Cc2cn(CC)nc2C)CC1 (3D coordinates assigned)
CCc1n[nH+]c(C)n1C1CCN(Cc2cn(CC)nc2C)CC1 (nonaromatic ring conformer: 122.80212507835465 kcal/mol)

>  <smiles>  (37) 
CCc1nnc(C)n1C1CCN(Cc2cn(CC)nc2C)CC1

>  <score_type>  (37) 
oracle

>  <origin>  (37) 
adg

>  <m_score__min__energy>  (37) 
-6.4900000000000002

>  <m_primary>  (37) 
energy

$$$$
37:0
     RDKit          3D

 29 31  0  0  0  0  0  0  0  0999 V2000
   57.0200   29.0590   43.0060 O   0  0  0  0  0  0  0  0  0  0  0  0
   56.8800   29.1090   44.5010 S   0  0  0  0  0  0  0  0  0  0  0  0
   55.4620   29.4310   44.8790 O   0  0  0  0  0  0  0  0  0  0  0  0
   57.9380   30.3030   45.1760 N   0  0  0  0  0  0  0  0  0  0  0  0
   59.2020   30.0630   45.3730 C   0  0  0  0  0  0  0  0  0  0  0  0
   60.0160   30.9970   46.0980 N   0  0  0  0  0  0  0  0  0  0  0  0
   59.6130   32.3340   46.4400 C   0  0  0  0  0  0  0  0  0  0  0  0
   59.9870   32.8700   47.6810 C   0  0  0  0  0  0  0  0  0  0  0  0
   59.6270   34.1760   48.0270 C   0  0  0  0  0  0  0  0  0  0  0  0
   58.9010   34.9630   47.1280 C   0  0  0  0  0  0  0  0  0  0  0  0
   58.5450   34.4470   45.8800 C   0  0  0  0  0  0  0  0  0  0  0  0
   58.9030   33.1420   45.5300 C   0  0  0  0  0  0  0  0  0  0  0  0
   59.9640   28.5410   44.7610 S   0  0  0  0  0  0  0  0  0  0  0  0
   58.7580   27.4280   45.5040 C   0  0  0  0  0  0  0  0  0  0  0  0
   59.1860   26.3450   46.2790 C   0  0  0  0  0  0  0  0  0  0  0  0
   58.2540   25.4210   46.7640 C   0  0  0  0  0  0  0  0  0  0  0  0
   56.8940   25.5810   46.4800 C   0  0  0  0  0  0  0  0  0  0  0  0
   56.4580   26.6750   45.7260 C   0  0  0  0  0  0  0  0  0  0  0  0
   57.3900   27.6000   45.2370 C   0  0  0  0  0  0  0  0  0  0  0  0
   60.9260   30.6470   46.4750 H   0  0  0  0  0  0  0  0  0  0  0  0
   60.5678   32.2584   48.3872 H   0  0  0  0  0  0  0  0  0  0  0  0
   59.9151   34.5844   49.0069 H   0  0  0  0  0  0  0  0  0  0  0  0
   58.6105   35.9876   47.4034 H   0  0  0  0  0  0  0  0  0  0  0  0
   57.9809   35.0697   45.1701 H   0  0  0  0  0  0  0  0  0  0  0  0
   58.6297   32.7447   44.5413 H   0  0  0  0  0  0  0  0  0  0  0  0
   60.2548   26.2199   46.5070 H   0  0  0  0  0  0  0  0  0  0  0  0
   58.5916   24.5672   47.3698 H   0  0  0  0  0  0  0  0  0  0  0  0
   56.1657   24.8446   46.8506 H   0  0  0  0  0  0  0  0  0  0  0  0
   55.3863   26.8090   45.5173 H   0  0  0  0  0  0  0  0  0  0  0  0
  1  2  2  0
  2  3  2  0
  2  4  1  0
  4  5  2  0
  5  6  1  0
  6  7  1  0
  7  8  2  0
  8  9  1  0
  9 10  2  0
 10 11  1  0
 11 12  2  0
  5 13  1  0
 13 14  1  0
 14 15  2  0
 15 16  1  0
 16 17  2  0
 17 18  1  0
 18 19  2  0
 19  2  1  0
 12  7  1  0
 19 14  1  0
  6 20  1  0
  8 21  1  0
  9 22  1  0
 10 23  1  0
 11 24  1  0
 12 25  1  0
 15 26  1  0
 16 27  1  0
 17 28  1  0
 18 29  1  0
M  END
>  <UniqueID>  (38) 
34

>  <SMILES>  (38) 
O=S1(=O)N=C(Nc2ccccc2)Sc2ccccc21

>  <Energy>  (38) 
48.21310508384961

>  <Genealogy>  (38) 
O=S1(=O)N=C(Nc2ccccc2)Sc2ccccc21 (3D coordinates assigned)
O=S1(=O)N=C(Nc2ccccc2)Sc2ccccc21 (nonaromatic ring conformer: 48.21310508384961 kcal/mol)

>  <smiles>  (38) 
O=S1(=O)N=C(Nc2ccccc2)Sc2ccccc21

>  <score_type>  (38) 
oracle

>  <origin>  (38) 
adg

>  <m_score__min__energy>  (38) 
-7.4100000000000001

>  <m_primary>  (38) 
energy

$$$$
38:0
     RDKit          3D

 46 47  0  0  0  0  0  0  0  0999 V2000
   56.1075   33.9067   44.7407 H   0  0  0  0  0  0  0  0  0  0  0  0
   57.0430   33.4680   45.1180 C   0  0  0  0  0  0  0  0  0  0  0  0
   57.4140   32.1330   44.6070 C   0  0  0  0  0  0  0  0  0  0  0  0
   58.5110   32.0010   43.9990 O   0  0  0  0  0  0  0  0  0  0  0  0
   56.5930   31.0200   44.8250 O   0  0  0  0  0  0  0  0  0  0  0  0
   56.3420   30.0190   43.8450 C   0  0  0  0  0  0  0  0  0  0  0  0
   56.4750   30.4566   42.8446 H   0  0  0  0  0  0  0  0  0  0  0  0
   55.3127   29.6547   43.9787 H   0  0  0  0  0  0  0  0  0  0  0  0
   57.3020   28.8250   44.0010 C   0  0  0  0  0  0  0  0  0  0  0  0
   57.7262   28.5832   43.0153 H   0  0  0  0  0  0  0  0  0  0  0  0
   56.7234   27.9845   44.4117 H   0  0  0  0  0  0  0  0  0  0  0  0
   58.4220   29.1070   44.9470 N   0  0  0  0  0  0  0  0  0  0  0  0
   58.5910   30.1420   44.9770 H   0  0  0  0  0  0  0  0  0  0  0  0
   59.6750   28.4450   44.4910 C   0  0  0  0  0  0  0  0  0  0  0  0
   59.7775   28.5913   43.4056 H   0  0  0  0  0  0  0  0  0  0  0  0
   59.6042   27.3778   44.7479 H   0  0  0  0  0  0  0  0  0  0  0  0
   60.9200   29.0130   45.1850 C   0  0  0  0  0  0  0  0  0  0  0  0
   60.7907   28.9540   46.2758 H   0  0  0  0  0  0  0  0  0  0  0  0
   61.8037   28.4290   44.8884 H   0  0  0  0  0  0  0  0  0  0  0  0
   61.0581   30.0632   44.8884 H   0  0  0  0  0  0  0  0  0  0  0  0
   58.0720   28.6530   46.3210 C   0  0  0  0  0  0  0  0  0  0  0  0
   56.9772   28.5862   46.4039 H   0  0  0  0  0  0  0  0  0  0  0  0
   58.5464   27.6741   46.4843 H   0  0  0  0  0  0  0  0  0  0  0  0
   58.5910   29.6130   47.3980 C   0  0  0  0  0  0  0  0  0  0  0  0
   58.3687   29.2018   48.3937 H   0  0  0  0  0  0  0  0  0  0  0  0
   59.6784   29.7359   47.2865 H   0  0  0  0  0  0  0  0  0  0  0  0
   58.0983   30.5901   47.2865 H   0  0  0  0  0  0  0  0  0  0  0  0
   57.7450   34.1930   46.0010 C   0  0  0  0  0  0  0  0  0  0  0  0
   57.4083   35.2226   46.1921 H   0  0  0  0  0  0  0  0  0  0  0  0
   58.9320   33.7200   46.7360 C   0  0  0  0  0  0  0  0  0  0  0  0
   58.8010   33.0610   47.9700 C   0  0  0  0  0  0  0  0  0  0  0  0
   57.8008   32.8858   48.3929 H   0  0  0  0  0  0  0  0  0  0  0  0
   59.9340   32.6270   48.6630 C   0  0  0  0  0  0  0  0  0  0  0  0
   59.8217   32.0933   49.6183 H   0  0  0  0  0  0  0  0  0  0  0  0
   61.2140   32.8700   48.1440 C   0  0  0  0  0  0  0  0  0  0  0  0
   62.3590   32.4410   48.8330 C   0  0  0  0  0  0  0  0  0  0  0  0
   62.2565   31.8995   49.7850 H   0  0  0  0  0  0  0  0  0  0  0  0
   63.6300   32.7010   48.3110 C   0  0  0  0  0  0  0  0  0  0  0  0
   64.5248   32.3630   48.8542 H   0  0  0  0  0  0  0  0  0  0  0  0
   63.7680   33.3880   47.1030 C   0  0  0  0  0  0  0  0  0  0  0  0
   64.7707   33.5891   46.6978 H   0  0  0  0  0  0  0  0  0  0  0  0
   62.6350   33.8210   46.4070 C   0  0  0  0  0  0  0  0  0  0  0  0
   62.7482   34.3632   45.4566 H   0  0  0  0  0  0  0  0  0  0  0  0
   61.3540   33.5650   46.9190 C   0  0  0  0  0  0  0  0  0  0  0  0
   60.2090   33.9950   46.2290 C   0  0  0  0  0  0  0  0  0  0  0  0
   60.3151   34.5506   45.2856 H   0  0  0  0  0  0  0  0  0  0  0  0
  1  2  1  0
  2  3  1  0
  3  4  2  0
  3  5  1  0
  5  6  1  0
  6  7  1  0
  6  8  1  0
  6  9  1  0
  9 10  1  0
  9 11  1  0
  9 12  1  0
 12 13  1  0
 12 14  1  0
 14 15  1  0
 14 16  1  0
 14 17  1  0
 17 18  1  0
 17 19  1  0
 17 20  1  0
 12 21  1  0
 21 22  1  0
 21 23  1  0
 21 24  1  0
 24 25  1  0
 24 26  1  0
 24 27  1  0
  2 28  2  0
 28 29  1  0
 28 30  1  0
 30 31  2  0
 31 32  1  0
 31 33  1  0
 33 34  1  0
 33 35  2  0
 35 36  1  0
 36 37  1  0
 36 38  2  0
 38 39  1  0
 38 40  1  0
 40 41  1  0
 40 42  2  0
 42 43  1  0
 42 44  1  0
 44 45  2  0
 45 46  1  0
 45 30  1  0
 44 35  1  0
M  CHG  1  12   1
M  END
>  <UniqueID>  (39) 
35

>  <SMILES>  (39) 
CC[NH+](CC)CCOC(=O)/C=C\c1ccc2ccccc2c1

>  <Energy>  (39) 
53.432818086644296

>  <Genealogy>  (39) 
CC[NH+](CC)CCOC(=O)C=Cc1ccc2ccccc2c1 (protonated)
CC[NH+](CC)CCOC(=O)/C=C\c1ccc2ccccc2c1 (cis-trans isomerization)
CC[NH+](CC)CCOC(=O)/C=C\c1ccc2ccccc2c1 (3D coordinates assigned)
CC[NH+](CC)CCOC(=O)/C=C\c1ccc2ccccc2c1 (optimized conformer: 53.432818086644296 kcal/mol)

>  <smiles>  (39) 
CCN(CC)CCOC(=O)C=Cc1ccc2ccccc2c1

>  <score_type>  (39) 
oracle

>  <origin>  (39) 
adg

>  <m_score__min__energy>  (39) 
-5.2800000000000002

>  <m_primary>  (39) 
energy

$$$$
39:0
     RDKit          3D

 42 45  0  0  0  0  0  0  0  0999 V2000
   64.5360   33.1320   48.9900 C   0  0  0  0  0  0  0  0  0  0  0  0
   63.2840   32.3630   48.8960 N   0  0  0  0  0  0  0  0  0  0  0  0
   62.7900   32.2400   47.5130 C   0  0  0  0  0  0  0  0  0  0  0  0
   62.1530   33.5460   47.0120 C   0  0  0  0  0  0  0  0  0  0  0  0
   61.0270   33.9970   47.8710 N   0  0  0  0  0  0  0  0  0  0  0  0
   59.7650   33.1750   47.8280 C   0  0  2  0  0  0  0  0  0  0  0  0
   59.8510   31.7270   48.3980 C   0  0  0  0  0  0  0  0  0  0  0  0
   58.9480   30.9450   47.5150 C   0  0  0  0  0  0  0  0  0  0  0  0
   58.5280   29.7920   47.7920 O   0  0  0  0  0  0  0  0  0  0  0  0
   58.6850   31.6740   46.2870 C   0  0  0  0  0  0  0  0  0  0  0  0
   59.2350   32.9380   46.4190 C   0  0  0  0  0  0  0  0  0  0  0  0
   59.1840   33.8410   45.3490 C   0  0  0  0  0  0  0  0  0  0  0  0
   58.5730   33.4590   44.1500 C   0  0  0  0  0  0  0  0  0  0  0  0
   58.0060   32.1790   44.0120 C   0  0  0  0  0  0  0  0  0  0  0  0
   57.3950   31.8060   42.8040 C   0  0  0  0  0  0  0  0  0  0  0  0
   56.8420   30.5330   42.6600 C   0  0  0  0  0  0  0  0  0  0  0  0
   56.8960   29.6220   43.7160 C   0  0  0  0  0  0  0  0  0  0  0  0
   57.5000   29.9750   44.9250 C   0  0  0  0  0  0  0  0  0  0  0  0
   58.0600   31.2570   45.0920 C   0  0  0  0  0  0  0  0  0  0  0  0
   61.5360   34.1450   49.2640 C   0  0  0  0  0  0  0  0  0  0  0  0
   62.2400   32.8770   49.8020 C   0  0  0  0  0  0  0  0  0  0  0  0
   64.7914   33.2889   50.0484 H   0  0  0  0  0  0  0  0  0  0  0  0
   65.3461   32.5755   48.4959 H   0  0  0  0  0  0  0  0  0  0  0  0
   64.4059   34.1062   48.4959 H   0  0  0  0  0  0  0  0  0  0  0  0
   63.6335   31.9812   46.8561 H   0  0  0  0  0  0  0  0  0  0  0  0
   62.0181   31.4565   47.4958 H   0  0  0  0  0  0  0  0  0  0  0  0
   62.9230   34.3315   46.9988 H   0  0  0  0  0  0  0  0  0  0  0  0
   61.7505   33.3567   46.0060 H   0  0  0  0  0  0  0  0  0  0  0  0
   60.7880   34.9590   47.5320 H   0  0  0  0  0  0  0  0  0  0  0  0
   59.1218   33.8111   48.4538 H   0  0  0  0  0  0  0  0  0  0  0  0
   60.8809   31.3446   48.3429 H   0  0  0  0  0  0  0  0  0  0  0  0
   59.5642   31.6693   49.4584 H   0  0  0  0  0  0  0  0  0  0  0  0
   59.6220   34.8448   45.4512 H   0  0  0  0  0  0  0  0  0  0  0  0
   58.5356   34.1656   43.3078 H   0  0  0  0  0  0  0  0  0  0  0  0
   57.3521   32.5199   41.9682 H   0  0  0  0  0  0  0  0  0  0  0  0
   56.3625   30.2469   41.7123 H   0  0  0  0  0  0  0  0  0  0  0  0
   56.4600   28.6193   43.5954 H   0  0  0  0  0  0  0  0  0  0  0  0
   57.5386   29.2489   45.7504 H   0  0  0  0  0  0  0  0  0  0  0  0
   62.2544   34.9777   49.2855 H   0  0  0  0  0  0  0  0  0  0  0  0
   60.6642   34.3292   49.9090 H   0  0  0  0  0  0  0  0  0  0  0  0
   62.7047   33.1190   50.7692 H   0  0  0  0  0  0  0  0  0  0  0  0
   61.4741   32.0931   49.8960 H   0  0  0  0  0  0  0  0  0  0  0  0
  1  2  1  0
  2  3  1  0
  3  4  1  0
  4  5  1  0
  5  6  1  0
  6  7  1  0
  7  8  1  0
  8  9  2  0
  8 10  1  0
 10 11  2  0
 11 12  1  0
 12 13  2  0
 13 14  1  0
 14 15  2  0
 15 16  1  0
 16 17  2  0
 17 18  1  0
 18 19  2  0
  5 20  1  0
 20 21  1  0
 21  2  1  0
 11  6  1  0
 19 14  1  0
 19 10  1  0
  1 22  1  0
  1 23  1  0
  1 24  1  0
  3 25  1  0
  3 26  1  0
  4 27  1  0
  4 28  1  0
  5 29  1  0
  6 30  1  1
  7 31  1  0
  7 32  1  0
 12 33  1  0
 13 34  1  0
 15 35  1  0
 16 36  1  0
 17 37  1  0
 18 38  1  0
 20 39  1  0
 20 40  1  0
 21 41  1  0
 21 42  1  0
M  CHG  1   5   1
M  END
>  <UniqueID>  (40) 
36

>  <SMILES>  (40) 
CN1CC[NH+]([C@@H]2CC(=O)c3c2ccc2ccccc32)CC1

>  <Energy>  (40) 
85.94602218716228

>  <Genealogy>  (40) 
CN1CC[NH+](C2CC(=O)c3c2ccc2ccccc32)CC1 (protonated)
CN1CC[NH+]([C@@H]2CC(=O)c3c2ccc2ccccc32)CC1 (chirality)
CN1CC[NH+]([C@@H]2CC(=O)c3c2ccc2ccccc32)CC1 (3D coordinates assigned)
CN1CC[NH+]([C@@H]2CC(=O)c3c2ccc2ccccc32)CC1 (nonaromatic ring conformer: 85.94602218716228 kcal/mol)

>  <smiles>  (40) 
CN1CCN(C2CC(=O)c3c2ccc2ccccc32)CC1

>  <score_type>  (40) 
oracle

>  <origin>  (40) 
adg

>  <m_score__min__energy>  (40) 
-6.2300000000000004

>  <m_primary>  (40) 
energy

$$$$
40:0
     RDKit          3D

 54 54  0  0  0  0  0  0  0  0999 V2000
   60.4230   29.2500   46.3440 C   0  0  0  0  0  0  0  0  0  0  0  0
   60.3210   28.8060   44.8850 C   0  0  0  0  0  0  0  0  0  0  0  0
   58.9170   28.2990   44.5100 C   0  0  0  0  0  0  0  0  0  0  0  0
   57.7930   28.7100   45.4850 C   0  0  0  0  0  0  0  0  0  0  0  0
   56.5740   29.3870   44.8310 C   0  0  0  0  0  0  0  0  0  0  0  0
   56.6640   29.4110   43.2960 C   0  0  0  0  0  0  0  0  0  0  0  0
   56.7480   30.8430   42.7330 C   0  0  0  0  0  0  0  0  0  0  0  0
   57.8740   31.6960   43.3600 C   0  0  0  0  0  0  0  0  0  0  0  0
   57.3740   32.7120   44.4030 C   0  0  0  0  0  0  0  0  0  0  0  0
   58.4430   33.0880   45.3950 C   0  0  0  0  0  0  0  0  0  0  0  0
   58.7830   32.2060   46.4330 C   0  0  0  0  0  0  0  0  0  0  0  0
   59.8320   32.5110   47.3030 C   0  0  0  0  0  0  0  0  0  0  0  0
   60.5510   33.7070   47.1540 C   0  0  0  0  0  0  0  0  0  0  0  0
   61.7310   33.9990   48.0430 C   0  0  0  0  0  0  0  0  0  0  0  0
   63.0430   33.8450   47.2540 C   0  0  0  0  0  0  0  0  0  0  0  0
   63.7940   32.6230   47.6340 N   0  0  0  0  0  0  0  0  0  0  0  0
   64.2200   32.7160   49.0420 C   0  0  0  0  0  0  0  0  0  0  0  0
   62.9810   31.4060   47.4460 C   0  0  0  0  0  0  0  0  0  0  0  0
   60.2110   34.5900   46.1170 C   0  0  0  0  0  0  0  0  0  0  0  0
   59.1600   34.2860   45.2490 C   0  0  0  0  0  0  0  0  0  0  0  0
   60.2258   28.3917   47.0031 H   0  0  0  0  0  0  0  0  0  0  0  0
   61.4336   29.6378   46.5395 H   0  0  0  0  0  0  0  0  0  0  0  0
   59.6830   30.0400   46.5395 H   0  0  0  0  0  0  0  0  0  0  0  0
   60.5692   29.6615   44.2396 H   0  0  0  0  0  0  0  0  0  0  0  0
   61.0222   27.9702   44.7445 H   0  0  0  0  0  0  0  0  0  0  0  0
   58.6663   28.6937   43.5143 H   0  0  0  0  0  0  0  0  0  0  0  0
   58.9674   27.2007   44.5444 H   0  0  0  0  0  0  0  0  0  0  0  0
   57.4428   27.8045   46.0021 H   0  0  0  0  0  0  0  0  0  0  0  0
   58.2327   29.4587   46.1603 H   0  0  0  0  0  0  0  0  0  0  0  0
   55.6671   28.8369   45.1222 H   0  0  0  0  0  0  0  0  0  0  0  0
   56.5452   30.4299   45.1795 H   0  0  0  0  0  0  0  0  0  0  0  0
   57.5624   28.8568   42.9864 H   0  0  0  0  0  0  0  0  0  0  0  0
   55.7478   28.9489   42.8998 H   0  0  0  0  0  0  0  0  0  0  0  0
   56.9240   30.7795   41.6490 H   0  0  0  0  0  0  0  0  0  0  0  0
   55.7971   31.3391   42.9774 H   0  0  0  0  0  0  0  0  0  0  0  0
   58.5901   31.0197   43.8497 H   0  0  0  0  0  0  0  0  0  0  0  0
   58.3322   32.2732   42.5434 H   0  0  0  0  0  0  0  0  0  0  0  0
   57.0416   33.6209   43.8800 H   0  0  0  0  0  0  0  0  0  0  0  0
   56.5490   32.2435   44.9597 H   0  0  0  0  0  0  0  0  0  0  0  0
   58.2202   31.2697   46.5617 H   0  0  0  0  0  0  0  0  0  0  0  0
   60.0960   31.8104   48.1089 H   0  0  0  0  0  0  0  0  0  0  0  0
   61.6540   35.0287   48.4222 H   0  0  0  0  0  0  0  0  0  0  0  0
   61.7320   33.2882   48.8825 H   0  0  0  0  0  0  0  0  0  0  0  0
   62.8056   33.7939   46.1811 H   0  0  0  0  0  0  0  0  0  0  0  0
   63.6771   34.7132   47.4868 H   0  0  0  0  0  0  0  0  0  0  0  0
   64.6570   32.5430   47.0450 H   0  0  0  0  0  0  0  0  0  0  0  0
   63.3581   32.5278   49.6990 H   0  0  0  0  0  0  0  0  0  0  0  0
   65.0015   31.9673   49.2389 H   0  0  0  0  0  0  0  0  0  0  0  0
   64.6184   33.7223   49.2389 H   0  0  0  0  0  0  0  0  0  0  0  0
   62.7056   30.9937   48.4279 H   0  0  0  0  0  0  0  0  0  0  0  0
   62.0688   31.6574   46.8850 H   0  0  0  0  0  0  0  0  0  0  0  0
   63.5625   30.6596   46.8850 H   0  0  0  0  0  0  0  0  0  0  0  0
   60.7749   35.5255   45.9875 H   0  0  0  0  0  0  0  0  0  0  0  0
   58.8926   34.9892   44.4465 H   0  0  0  0  0  0  0  0  0  0  0  0
  1  2  1  0
  2  3  1  0
  3  4  1  0
  4  5  1  0
  5  6  1  0
  6  7  1  0
  7  8  1  0
  8  9  1  0
  9 10  1  0
 10 11  2  0
 11 12  1  0
 12 13  2  0
 13 14  1  0
 14 15  1  0
 15 16  1  0
 16 17  1  0
 16 18  1  0
 13 19  1  0
 19 20  2  0
 20 10  1  0
  1 21  1  0
  1 22  1  0
  1 23  1  0
  2 24  1  0
  2 25  1  0
  3 26  1  0
  3 27  1  0
  4 28  1  0
  4 29  1  0
  5 30  1  0
  5 31  1  0
  6 32  1  0
  6 33  1  0
  7 34  1  0
  7 35  1  0
  8 36  1  0
  8 37  1  0
  9 38  1  0
  9 39  1  0
 11 40  1  0
 12 41  1  0
 14 42  1  0
 14 43  1  0
 15 44  1  0
 15 45  1  0
 16 46  1  0
 17 47  1  0
 17 48  1  0
 17 49  1  0
 18 50  1  0
 18 51  1  0
 18 52  1  0
 19 53  1  0
 20 54  1  0
M  CHG  1  16   1
M  END
>  <UniqueID>  (41) 
37

>  <SMILES>  (41) 
CCCCCCCCCc1ccc(CC[NH+](C)C)cc1

>  <Energy>  (41) 
34.21583092776442

>  <Genealogy>  (41) 
CCCCCCCCCc1ccc(CC[NH+](C)C)cc1 (protonated)
CCCCCCCCCc1ccc(CC[NH+](C)C)cc1 (3D coordinates assigned)
CCCCCCCCCc1ccc(CC[NH+](C)C)cc1 (optimized conformer: 34.21583092776442 kcal/mol)

>  <smiles>  (41) 
CCCCCCCCCc1ccc(CCN(C)C)cc1

>  <score_type>  (41) 
oracle

>  <origin>  (41) 
adg

>  <m_score__min__energy>  (41) 
-5.3200000000000003

>  <m_primary>  (41) 
energy

$$$$
41:0
     RDKit          3D

 49 51  0  0  0  0  0  0  0  0999 V2000
   60.0260   27.1640   48.6500 C   0  0  0  0  0  0  0  0  0  0  0  0
   60.1960   28.4460   47.8920 C   0  0  0  0  0  0  0  0  0  0  0  0
   61.1240   29.3770   48.2540 N   0  0  0  0  0  0  0  0  0  0  0  0
   61.1330   30.4630   47.4430 C   0  0  0  0  0  0  0  0  0  0  0  0
   62.0410   31.6270   47.5990 C   0  0  0  0  0  0  0  0  0  0  0  0
   63.0350   31.6240   48.5970 C   0  0  0  0  0  0  0  0  0  0  0  0
   63.8920   32.7180   48.7480 C   0  0  0  0  0  0  0  0  0  0  0  0
   63.7660   33.8280   47.9110 C   0  0  0  0  0  0  0  0  0  0  0  0
   62.7810   33.8480   46.9220 C   0  0  0  0  0  0  0  0  0  0  0  0
   61.9210   32.7560   46.7650 C   0  0  0  0  0  0  0  0  0  0  0  0
   59.9700   30.2990   46.2330 S   0  0  0  0  0  0  0  0  0  0  0  0
   59.4390   28.7950   46.7690 C   0  0  0  0  0  0  0  0  0  0  0  0
   58.3900   27.9700   46.0780 C   0  0  0  0  0  0  0  0  0  0  0  0
   58.5840   27.9810   44.5590 C   0  0  0  0  0  0  0  0  0  0  0  0
   58.2190   29.2910   44.0050 N   0  0  0  0  0  0  0  0  0  0  0  0
   56.7650   29.4910   44.0550 C   0  0  0  0  0  0  0  0  0  0  0  0
   56.4280   30.9840   44.1440 C   0  0  0  0  0  0  0  0  0  0  0  0
   57.5780   31.8780   43.6620 C   0  0  0  0  0  0  0  0  0  0  0  0
   58.0110   32.8150   44.7570 C   0  0  0  0  0  0  0  0  0  0  0  0
   57.5720   32.6180   46.0760 C   0  0  0  0  0  0  0  0  0  0  0  0
   58.0030   33.4690   47.0980 C   0  0  0  0  0  0  0  0  0  0  0  0
   58.8820   34.5180   46.8110 C   0  0  0  0  0  0  0  0  0  0  0  0
   59.3340   34.7130   45.5040 C   0  0  0  0  0  0  0  0  0  0  0  0
   58.9070   33.8630   44.4800 C   0  0  0  0  0  0  0  0  0  0  0  0
   60.0534   27.3703   49.7301 H   0  0  0  0  0  0  0  0  0  0  0  0
   59.0596   26.7085   48.3881 H   0  0  0  0  0  0  0  0  0  0  0  0
   60.8403   26.4724   48.3881 H   0  0  0  0  0  0  0  0  0  0  0  0
   61.7440   29.2610   49.0860 H   0  0  0  0  0  0  0  0  0  0  0  0
   63.1376   30.7542   49.2626 H   0  0  0  0  0  0  0  0  0  0  0  0
   64.6674   32.7041   49.5281 H   0  0  0  0  0  0  0  0  0  0  0  0
   64.4428   34.6868   48.0307 H   0  0  0  0  0  0  0  0  0  0  0  0
   62.6809   34.7244   46.2647 H   0  0  0  0  0  0  0  0  0  0  0  0
   61.1457   32.7790   45.9850 H   0  0  0  0  0  0  0  0  0  0  0  0
   58.4539   26.9332   46.4398 H   0  0  0  0  0  0  0  0  0  0  0  0
   57.4040   28.4016   46.3050 H   0  0  0  0  0  0  0  0  0  0  0  0
   59.6384   27.7705   44.3269 H   0  0  0  0  0  0  0  0  0  0  0  0
   57.9372   27.2120   44.1115 H   0  0  0  0  0  0  0  0  0  0  0  0
   58.5080   29.2910   42.9980 H   0  0  0  0  0  0  0  0  0  0  0  0
   56.3110   29.0716   43.1451 H   0  0  0  0  0  0  0  0  0  0  0  0
   56.3680   28.9842   44.9469 H   0  0  0  0  0  0  0  0  0  0  0  0
   55.5426   31.1830   43.5223 H   0  0  0  0  0  0  0  0  0  0  0  0
   56.2424   31.2212   45.2020 H   0  0  0  0  0  0  0  0  0  0  0  0
   58.4292   31.2462   43.3685 H   0  0  0  0  0  0  0  0  0  0  0  0
   57.2319   32.4708   42.8024 H   0  0  0  0  0  0  0  0  0  0  0  0
   56.8855   31.7899   46.3064 H   0  0  0  0  0  0  0  0  0  0  0  0
   57.6505   33.3134   48.1283 H   0  0  0  0  0  0  0  0  0  0  0  0
   59.2175   35.1898   47.6148 H   0  0  0  0  0  0  0  0  0  0  0  0
   60.0274   35.5371   45.2801 H   0  0  0  0  0  0  0  0  0  0  0  0
   59.2730   34.0143   43.4538 H   0  0  0  0  0  0  0  0  0  0  0  0
  1  2  1  0
  2  3  1  0
  3  4  2  0
  4  5  1  0
  5  6  2  0
  6  7  1  0
  7  8  2  0
  8  9  1  0
  9 10  2  0
  4 11  1  0
 11 12  1  0
 12 13  1  0
 13 14  1  0
 14 15  1  0
 15 16  1  0
 16 17  1  0
 17 18  1  0
 18 19  1  0
 19 20  2  0
 20 21  1  0
 21 22  2  0
 22 23  1  0
 23 24  2  0
 12  2  2  0
 24 19  1  0
 10  5  1  0
  1 25  1  0
  1 26  1  0
  1 27  1  0
  3 28  1  0
  6 29  1  0
  7 30  1  0
  8 31  1  0
  9 32  1  0
 10 33  1  0
 13 34  1  0
 13 35  1  0
 14 36  1  0
 14 37  1  0
 15 38  1  0
 16 39  1  0
 16 40  1  0
 17 41  1  0
 17 42  1  0
 18 43  1  0
 18 44  1  0
 20 45  1  0
 21 46  1  0
 22 47  1  0
 23 48  1  0
 24 49  1  0
M  CHG  1   3   1
M  END
>  <UniqueID>  (42) 
38

>  <SMILES>  (42) 
Cc1[nH+]c(-c2ccccc2)sc1CCNCCCc1ccccc1

>  <Energy>  (42) 
72.54943507870605

>  <Genealogy>  (42) 
Cc1[nH+]c(-c2ccccc2)sc1CCNCCCc1ccccc1 (protonated)
Cc1[nH+]c(-c2ccccc2)sc1CCNCCCc1ccccc1 (3D coordinates assigned)
Cc1[nH+]c(-c2ccccc2)sc1CCNCCCc1ccccc1 (optimized conformer: 72.54943507870605 kcal/mol)

>  <smiles>  (42) 
Cc1nc(-c2ccccc2)sc1CCNCCCc1ccccc1

>  <score_type>  (42) 
oracle

>  <origin>  (42) 
adg

>  <m_score__min__energy>  (42) 
-7.25

>  <m_primary>  (42) 
energy

$$$$
