0:0
     RDKit          3D

 41 43  0  0  0  0  0  0  0  0999 V2000
   57.7300   25.5690   42.9910 C   0  0  0  0  0  0  0  0  0  0  0  0
   56.6680   24.8460   43.6040 O   0  0  0  0  0  0  0  0  0  0  0  0
   56.6160   23.4470   43.7230 C   0  0  0  0  0  0  0  0  0  0  0  0
   56.2720   22.6230   42.6330 C   0  0  0  0  0  0  0  0  0  0  0  0
   56.2790   21.2710   42.7650 N   0  0  0  0  0  0  0  0  0  0  0  0
   56.6140   20.6680   43.9340 C   0  0  0  0  0  0  0  0  0  0  0  0
   56.9560   21.4380   45.0440 C   0  0  0  0  0  0  0  0  0  0  0  0
   56.9440   22.8390   44.9540 C   0  0  0  0  0  0  0  0  0  0  0  0
   57.2950   23.6450   46.1470 C   0  0  0  0  0  0  0  0  0  0  0  0
   57.5450   23.0550   47.2340 O   0  0  0  0  0  0  0  0  0  0  0  0
   57.3150   25.0810   46.0810 N   0  0  0  0  0  0  0  0  0  0  0  0
   57.8780   25.9220   47.1030 C   0  0  0  0  0  0  0  0  0  0  0  0
   58.1640   25.4360   48.2320 O   0  0  0  0  0  0  0  0  0  0  0  0
   58.1150   27.3640   46.8550 C   0  0  0  0  0  0  0  0  0  0  0  0
   57.5430   28.0190   45.7530 C   0  0  0  0  0  0  0  0  0  0  0  0
   57.7880   29.3760   45.5340 C   0  0  0  0  0  0  0  0  0  0  0  0
   58.6110   30.0860   46.4230 C   0  0  0  0  0  0  0  0  0  0  0  0
   58.9050   31.5300   46.2330 C   0  0  0  0  0  0  0  0  0  0  0  0
   58.0800   32.3490   45.4360 C   0  0  0  0  0  0  0  0  0  0  0  0
   58.3700   33.7070   45.2750 C   0  0  0  0  0  0  0  0  0  0  0  0
   59.4820   34.2690   45.9120 C   0  0  0  0  0  0  0  0  0  0  0  0
   59.7780   35.6680   45.7470 C   0  0  0  0  0  0  0  0  0  0  0  0
   60.0160   36.7930   45.6140 N   0  0  0  0  0  0  0  0  0  0  0  0
   60.3010   33.4690   46.7150 C   0  0  0  0  0  0  0  0  0  0  0  0
   60.0130   32.1100   46.8780 C   0  0  0  0  0  0  0  0  0  0  0  0
   59.1720   29.4250   47.4740 N   0  0  0  0  0  0  0  0  0  0  0  0
   58.9510   28.1040   47.7060 C   0  0  0  0  0  0  0  0  0  0  0  0
   58.3727   26.0066   43.7691 H   0  0  0  0  0  0  0  0  0  0  0  0
   58.3244   24.8871   42.3651 H   0  0  0  0  0  0  0  0  0  0  0  0
   57.3135   26.3720   42.3651 H   0  0  0  0  0  0  0  0  0  0  0  0
   55.9962   23.0771   41.6698 H   0  0  0  0  0  0  0  0  0  0  0  0
   56.6155   19.5703   44.0053 H   0  0  0  0  0  0  0  0  0  0  0  0
   57.2349   20.9490   45.9890 H   0  0  0  0  0  0  0  0  0  0  0  0
   56.8510   25.5370   45.2640 H   0  0  0  0  0  0  0  0  0  0  0  0
   56.8985   27.4603   45.0584 H   0  0  0  0  0  0  0  0  0  0  0  0
   57.3386   29.8863   44.6694 H   0  0  0  0  0  0  0  0  0  0  0  0
   57.2007   31.9160   44.9366 H   0  0  0  0  0  0  0  0  0  0  0  0
   57.7224   34.3354   44.6460 H   0  0  0  0  0  0  0  0  0  0  0  0
   61.1736   33.9094   47.2195 H   0  0  0  0  0  0  0  0  0  0  0  0
   60.6586   31.4889   47.5163 H   0  0  0  0  0  0  0  0  0  0  0  0
   59.4299   27.6121   48.5654 H   0  0  0  0  0  0  0  0  0  0  0  0
  1  2  1  0
  2  3  1  0
  3  4  2  0
  4  5  1  0
  5  6  2  0
  6  7  1  0
  7  8  2  0
  8  9  1  0
  9 10  2  0
  9 11  1  0
 11 12  1  0
 12 13  2  0
 12 14  1  0
 14 15  2  0
 15 16  1  0
 16 17  2  0
 17 18  1  0
 18 19  2  0
 19 20  1  0
 20 21  2  0
 21 22  1  0
 22 23  3  0
 21 24  1  0
 24 25  2  0
 17 26  1  0
 26 27  2  0
  8  3  1  0
 27 14  1  0
 25 18  1  0
  1 28  1  0
  1 29  1  0
  1 30  1  0
  4 31  1  0
  6 32  1  0
  7 33  1  0
 11 34  1  0
 15 35  1  0
 16 36  1  0
 19 37  1  0
 20 38  1  0
 24 39  1  0
 25 40  1  0
 27 41  1  0
M  END
>  <UniqueID>  (1) 
1

>  <SMILES>  (1) 
COc1cnccc1C(=O)NC(=O)c1ccc(-c2ccc(C#N)cc2)nc1

>  <Energy>  (1) 
55.05287887452336

>  <Genealogy>  (1) 
COc1cnccc1C(=O)NC(=O)c1ccc(-c2ccc(C#N)cc2)nc1 (3D coordinates assigned)
COc1cnccc1C(=O)NC(=O)c1ccc(-c2ccc(C#N)cc2)nc1 (optimized conformer: 55.05287887452336 kcal/mol)

>  <smiles>  (1) 
COc1cnccc1C(=O)NC(=O)c1ccc(-c2ccc(C#N)cc2)nc1

>  <score_type>  (1) 
oracle

>  <origin>  (1) 
adg

>  <m_score__min__energy>  (1) 
-7.2300000000000004

>  <m_primary>  (1) 
energy

$$$$
1:0
     RDKit          3D

 40 40  0  0  0  0  0  0  0  0999 V2000
   63.3100   33.8380   46.3730 C   0  0  0  0  0  0  0  0  0  0  0  0
   63.3150   33.8110   47.9050 C   0  0  0  0  0  0  0  0  0  0  0  0
   64.0150   32.6270   48.4680 N   0  0  1  0  0  0  0  0  0  0  0  0
   65.0430   33.0860   49.4220 C   0  0  0  0  0  0  0  0  0  0  0  0
   63.0870   31.6900   49.1530 C   0  0  0  0  0  0  0  0  0  0  0  0
   62.0460   31.1920   48.2410 C   0  0  0  0  0  0  0  0  0  0  0  0
   61.2040   30.7690   47.4910 C   0  0  0  0  0  0  0  0  0  0  0  0
   60.1950   30.2530   46.5610 C   0  0  0  0  0  0  0  0  0  0  0  0
   58.8540   30.9550   46.7930 C   0  0  0  0  0  0  0  0  0  0  0  0
   58.8590   32.3390   46.1820 C   0  0  0  0  0  0  0  0  0  0  0  0
   59.6040   33.3420   46.8290 C   0  0  0  0  0  0  0  0  0  0  0  0
   59.6240   34.6460   46.3370 C   0  0  0  0  0  0  0  0  0  0  0  0
   58.9050   34.9690   45.1890 C   0  0  0  0  0  0  0  0  0  0  0  0
   58.1700   33.9880   44.5230 C   0  0  0  0  0  0  0  0  0  0  0  0
   58.1420   32.6620   44.9960 C   0  0  0  0  0  0  0  0  0  0  0  0
   57.3680   31.6510   44.2290 C   0  0  0  0  0  0  0  0  0  0  0  0
   57.4830   31.5560   42.7400 C   0  0  0  0  0  0  0  0  0  0  0  0
   56.6520   30.8090   44.8340 O   0  0  0  0  0  0  0  0  0  0  0  0
   63.1201   34.8641   46.0250 H   0  0  0  0  0  0  0  0  0  0  0  0
   64.2863   33.4981   45.9971 H   0  0  0  0  0  0  0  0  0  0  0  0
   62.5200   33.1712   45.9971 H   0  0  0  0  0  0  0  0  0  0  0  0
   63.8171   34.7196   48.2689 H   0  0  0  0  0  0  0  0  0  0  0  0
   62.2668   33.7578   48.2342 H   0  0  0  0  0  0  0  0  0  0  0  0
   64.5220   32.1290   47.6960 H   0  0  0  0  0  0  0  0  0  0  0  0
   64.6862   32.9267   50.4503 H   0  0  0  0  0  0  0  0  0  0  0  0
   65.9707   32.5166   49.2634 H   0  0  0  0  0  0  0  0  0  0  0  0
   65.2384   34.1568   49.2634 H   0  0  0  0  0  0  0  0  0  0  0  0
   63.6629   30.8353   49.5375 H   0  0  0  0  0  0  0  0  0  0  0  0
   62.5938   32.2334   49.9724 H   0  0  0  0  0  0  0  0  0  0  0  0
   60.5263   30.4347   45.5279 H   0  0  0  0  0  0  0  0  0  0  0  0
   60.0691   29.1735   46.7306 H   0  0  0  0  0  0  0  0  0  0  0  0
   58.0513   30.3604   46.3324 H   0  0  0  0  0  0  0  0  0  0  0  0
   58.6879   31.0486   47.8764 H   0  0  0  0  0  0  0  0  0  0  0  0
   60.1777   33.0940   47.7342 H   0  0  0  0  0  0  0  0  0  0  0  0
   60.2081   35.4204   46.8559 H   0  0  0  0  0  0  0  0  0  0  0  0
   58.9166   36.0002   44.8064 H   0  0  0  0  0  0  0  0  0  0  0  0
   57.6053   34.2536   43.6171 H   0  0  0  0  0  0  0  0  0  0  0  0
   58.3068   30.8755   42.4785 H   0  0  0  0  0  0  0  0  0  0  0  0
   56.5414   31.1689   42.3235 H   0  0  0  0  0  0  0  0  0  0  0  0
   57.6854   32.5538   42.3235 H   0  0  0  0  0  0  0  0  0  0  0  0
  1  2  1  0
  2  3  1  0
  3  4  1  0
  3  5  1  0
  5  6  1  0
  6  7  3  0
  7  8  1  0
  8  9  1  0
  9 10  1  0
 10 11  2  0
 11 12  1  0
 12 13  2  0
 13 14  1  0
 14 15  2  0
 15 16  1  0
 16 17  1  0
 16 18  2  0
 15 10  1  0
  1 19  1  0
  1 20  1  0
  1 21  1  0
  2 22  1  0
  2 23  1  0
  3 24  1  6
  4 25  1  0
  4 26  1  0
  4 27  1  0
  5 28  1  0
  5 29  1  0
  8 30  1  0
  8 31  1  0
  9 32  1  0
  9 33  1  0
 11 34  1  0
 12 35  1  0
 13 36  1  0
 14 37  1  0
 17 38  1  0
 17 39  1  0
 17 40  1  0
M  CHG  1   3   1
M  END
>  <UniqueID>  (2) 
2

>  <SMILES>  (2) 
CC[N@@H+](C)CC#CCCc1ccccc1C(C)=O

>  <Energy>  (2) 
36.29841854425609

>  <Genealogy>  (2) 
CC[NH+](C)CC#CCCc1ccccc1C(C)=O (protonated)
CC[N@@H+](C)CC#CCCc1ccccc1C(C)=O (chirality)
CC[N@@H+](C)CC#CCCc1ccccc1C(C)=O (3D coordinates assigned)
CC[N@@H+](C)CC#CCCc1ccccc1C(C)=O (optimized conformer: 36.29841854425609 kcal/mol)

>  <smiles>  (2) 
CCN(C)CC#CCCc1ccccc1C(C)=O

>  <score_type>  (2) 
oracle

>  <origin>  (2) 
adg

>  <m_score__min__energy>  (2) 
-5.1299999999999999

>  <m_primary>  (2) 
energy

$$$$
2:0
     RDKit          3D

 43 45  0  0  0  0  0  0  0  0999 V2000
   56.2640   29.7060   42.4160 C   0  0  0  0  0  0  0  0  0  0  0  0
   56.0310   29.3830   43.8870 C   0  0  0  0  0  0  0  0  0  0  0  0
   57.1740   29.8090   44.6930 N   0  0  0  0  0  0  0  0  0  0  0  0
   57.2540   31.0100   45.2460 N   0  0  0  0  0  0  0  0  0  0  0  0
   58.4070   31.0700   45.9450 C   0  0  0  0  0  0  0  0  0  0  0  0
   58.8180   32.2420   46.7540 C   0  0  0  0  0  0  0  0  0  0  0  0
   58.8510   33.5370   46.2010 C   0  0  0  0  0  0  0  0  0  0  0  0
   59.2570   34.6280   46.9760 C   0  0  0  0  0  0  0  0  0  0  0  0
   59.6350   34.4410   48.3060 C   0  0  0  0  0  0  0  0  0  0  0  0
   59.6100   33.1620   48.8660 C   0  0  0  0  0  0  0  0  0  0  0  0
   59.2050   32.0670   48.0960 C   0  0  0  0  0  0  0  0  0  0  0  0
   59.0820   29.8650   45.8250 C   0  0  0  0  0  0  0  0  0  0  0  0
   58.2610   29.0840   45.0390 C   0  0  0  0  0  0  0  0  0  0  0  0
   58.4880   27.6330   44.7220 C   0  0  0  0  0  0  0  0  0  0  0  0
   57.2590   26.8610   44.9690 N   0  0  0  0  0  0  0  0  0  0  0  0
   57.4190   25.8530   46.0300 C   0  0  0  0  0  0  0  0  0  0  0  0
   57.8540   24.5230   45.4670 C   0  0  0  0  0  0  0  0  0  0  0  0
   59.1380   24.0230   45.7300 C   0  0  0  0  0  0  0  0  0  0  0  0
   59.5010   22.7660   45.2410 C   0  0  0  0  0  0  0  0  0  0  0  0
   58.6180   22.0360   44.5090 N   0  0  0  0  0  0  0  0  0  0  0  0
   57.3740   22.5060   44.2220 C   0  0  0  0  0  0  0  0  0  0  0  0
   56.9730   23.7610   44.6880 C   0  0  0  0  0  0  0  0  0  0  0  0
   56.9057   30.5956   42.3331 H   0  0  0  0  0  0  0  0  0  0  0  0
   56.7556   28.8523   41.9266 H   0  0  0  0  0  0  0  0  0  0  0  0
   55.2988   29.9032   41.9266 H   0  0  0  0  0  0  0  0  0  0  0  0
   55.1282   29.9071   44.2339 H   0  0  0  0  0  0  0  0  0  0  0  0
   55.9045   28.2958   43.9964 H   0  0  0  0  0  0  0  0  0  0  0  0
   58.5555   33.6912   45.1527 H   0  0  0  0  0  0  0  0  0  0  0  0
   59.2784   35.6359   46.5360 H   0  0  0  0  0  0  0  0  0  0  0  0
   59.9527   35.3012   48.9135 H   0  0  0  0  0  0  0  0  0  0  0  0
   59.9093   33.0155   49.9143 H   0  0  0  0  0  0  0  0  0  0  0  0
   59.1888   31.0617   48.5423 H   0  0  0  0  0  0  0  0  0  0  0  0
   60.0551   29.5927   46.2597 H   0  0  0  0  0  0  0  0  0  0  0  0
   58.7741   27.5324   43.6646 H   0  0  0  0  0  0  0  0  0  0  0  0
   59.2910   27.2459   45.3665 H   0  0  0  0  0  0  0  0  0  0  0  0
   57.0260   26.3450   44.0890 H   0  0  0  0  0  0  0  0  0  0  0  0
   58.1776   26.2039   46.7451 H   0  0  0  0  0  0  0  0  0  0  0  0
   56.4469   25.7167   46.5263 H   0  0  0  0  0  0  0  0  0  0  0  0
   59.8540   24.6167   46.3172 H   0  0  0  0  0  0  0  0  0  0  0  0
   60.5042   22.3655   45.4488 H   0  0  0  0  0  0  0  0  0  0  0  0
   58.9010   21.0930   44.1580 H   0  0  0  0  0  0  0  0  0  0  0  0
   56.6822   21.8968   43.6218 H   0  0  0  0  0  0  0  0  0  0  0  0
   55.9725   24.1481   44.4449 H   0  0  0  0  0  0  0  0  0  0  0  0
  1  2  1  0
  2  3  1  0
  3  4  1  0
  4  5  2  0
  5  6  1  0
  6  7  2  0
  7  8  1  0
  8  9  2  0
  9 10  1  0
 10 11  2  0
  5 12  1  0
 12 13  2  0
 13 14  1  0
 14 15  1  0
 15 16  1  0
 16 17  1  0
 17 18  2  0
 18 19  1  0
 19 20  2  0
 20 21  1  0
 21 22  2  0
 13  3  1  0
 22 17  1  0
 11  6  1  0
  1 23  1  0
  1 24  1  0
  1 25  1  0
  2 26  1  0
  2 27  1  0
  7 28  1  0
  8 29  1  0
  9 30  1  0
 10 31  1  0
 11 32  1  0
 12 33  1  0
 14 34  1  0
 14 35  1  0
 15 36  1  0
 16 37  1  0
 16 38  1  0
 18 39  1  0
 19 40  1  0
 20 41  1  0
 21 42  1  0
 22 43  1  0
M  CHG  1  20   1
M  END
>  <UniqueID>  (3) 
3

>  <SMILES>  (3) 
CCn1nc(-c2ccccc2)cc1CNCc1cc[nH+]cc1

>  <Energy>  (3) 
68.4471770527529

>  <Genealogy>  (3) 
CCn1nc(-c2ccccc2)cc1CNCc1cc[nH+]cc1 (protonated)
CCn1nc(-c2ccccc2)cc1CNCc1cc[nH+]cc1 (3D coordinates assigned)
CCn1nc(-c2ccccc2)cc1CNCc1cc[nH+]cc1 (optimized conformer: 68.4471770527529 kcal/mol)

>  <smiles>  (3) 
CCn1nc(-c2ccccc2)cc1CNCc1ccncc1

>  <score_type>  (3) 
oracle

>  <origin>  (3) 
adg

>  <m_score__min__energy>  (3) 
-6.1100000000000003

>  <m_primary>  (3) 
energy

$$$$
3:0
     RDKit          3D

 47 50  0  0  0  0  0  0  0  0999 V2000
   65.5310   33.0420   49.7540 C   0  0  0  0  0  0  0  0  0  0  0  0
   64.2240   32.5040   49.5820 O   0  0  0  0  0  0  0  0  0  0  0  0
   63.3080   32.9420   48.6130 C   0  0  0  0  0  0  0  0  0  0  0  0
   63.7030   33.3130   47.3150 C   0  0  0  0  0  0  0  0  0  0  0  0
   62.7530   33.7470   46.3880 C   0  0  0  0  0  0  0  0  0  0  0  0
   61.3970   33.8240   46.7390 C   0  0  0  0  0  0  0  0  0  0  0  0
   60.9950   33.4320   48.0290 C   0  0  0  0  0  0  0  0  0  0  0  0
   61.9550   33.0110   48.9620 C   0  0  0  0  0  0  0  0  0  0  0  0
   59.5630   33.5810   48.4510 C   0  0  0  0  0  0  0  0  0  0  0  0
   58.6080   33.4850   47.2480 C   0  0  2  0  0  0  0  0  0  0  0  0
   58.4320   32.1050   46.6200 C   0  0  0  0  0  0  0  0  0  0  0  0
   58.6080   30.9140   47.3510 C   0  0  0  0  0  0  0  0  0  0  0  0
   58.3680   29.6590   46.7610 C   0  0  0  0  0  0  0  0  0  0  0  0
   58.5590   28.4560   47.4610 O   0  0  0  0  0  0  0  0  0  0  0  0
   59.8180   27.9800   47.9250 C   0  0  0  0  0  0  0  0  0  0  0  0
   57.9230   29.5890   45.4360 C   0  0  0  0  0  0  0  0  0  0  0  0
   57.6930   28.3220   44.8770 O   0  0  0  0  0  0  0  0  0  0  0  0
   58.3860   27.8000   43.7470 C   0  0  0  0  0  0  0  0  0  0  0  0
   57.7170   30.7740   44.7100 C   0  0  0  0  0  0  0  0  0  0  0  0
   57.9560   32.0260   45.2920 C   0  0  0  0  0  0  0  0  0  0  0  0
   57.7600   33.2600   44.4380 C   0  0  0  0  0  0  0  0  0  0  0  0
   58.0160   34.5910   45.1760 C   0  0  0  0  0  0  0  0  0  0  0  0
   59.0340   34.4740   46.2380 N   0  0  0  0  0  0  0  0  0  0  0  0
   60.3860   34.2130   45.6840 C   0  0  0  0  0  0  0  0  0  0  0  0
   65.7517   33.1329   50.8278 H   0  0  0  0  0  0  0  0  0  0  0  0
   66.2674   32.3739   49.2835 H   0  0  0  0  0  0  0  0  0  0  0  0
   65.5836   34.0349   49.2835 H   0  0  0  0  0  0  0  0  0  0  0  0
   64.7639   33.2611   47.0291 H   0  0  0  0  0  0  0  0  0  0  0  0
   63.0707   34.0309   45.3739 H   0  0  0  0  0  0  0  0  0  0  0  0
   61.6403   32.7323   49.9785 H   0  0  0  0  0  0  0  0  0  0  0  0
   59.3166   32.7836   49.1676 H   0  0  0  0  0  0  0  0  0  0  0  0
   59.4400   34.5725   48.9112 H   0  0  0  0  0  0  0  0  0  0  0  0
   57.6052   33.7021   47.6445 H   0  0  0  0  0  0  0  0  0  0  0  0
   58.9381   30.9655   48.3990 H   0  0  0  0  0  0  0  0  0  0  0  0
   59.8261   27.9769   49.0250 H   0  0  0  0  0  0  0  0  0  0  0  0
   59.9827   26.9575   47.5543 H   0  0  0  0  0  0  0  0  0  0  0  0
   60.6180   28.6377   47.5543 H   0  0  0  0  0  0  0  0  0  0  0  0
   59.2214   27.1707   44.0878 H   0  0  0  0  0  0  0  0  0  0  0  0
   57.6955   27.1957   43.1404 H   0  0  0  0  0  0  0  0  0  0  0  0
   58.7762   28.6305   43.1404 H   0  0  0  0  0  0  0  0  0  0  0  0
   57.3631   30.7182   43.6700 H   0  0  0  0  0  0  0  0  0  0  0  0
   58.4510   33.2012   43.5841 H   0  0  0  0  0  0  0  0  0  0  0  0
   56.7031   33.2673   44.1333 H   0  0  0  0  0  0  0  0  0  0  0  0
   58.3571   35.3379   44.4440 H   0  0  0  0  0  0  0  0  0  0  0  0
   57.0720   34.8884   45.6559 H   0  0  0  0  0  0  0  0  0  0  0  0
   60.3121   33.3951   44.9522 H   0  0  0  0  0  0  0  0  0  0  0  0
   60.7370   35.1485   45.2240 H   0  0  0  0  0  0  0  0  0  0  0  0
  1  2  1  0
  2  3  1  0
  3  4  2  0
  4  5  1  0
  5  6  2  0
  6  7  1  0
  7  8  2  0
  7  9  1  0
  9 10  1  0
 10 11  1  0
 11 12  2  0
 12 13  1  0
 13 14  1  0
 14 15  1  0
 13 16  2  0
 16 17  1  0
 17 18  1  0
 16 19  1  0
 19 20  2  0
 20 21  1  0
 21 22  1  0
 22 23  1  0
 23 24  1  0
  8  3  1  0
 23 10  1  0
 24  6  1  0
 20 11  1  0
  1 25  1  0
  1 26  1  0
  1 27  1  0
  4 28  1  0
  5 29  1  0
  8 30  1  0
  9 31  1  0
  9 32  1  0
 10 33  1  1
 12 34  1  0
 15 35  1  0
 15 36  1  0
 15 37  1  0
 18 38  1  0
 18 39  1  0
 18 40  1  0
 19 41  1  0
 21 42  1  0
 21 43  1  0
 22 44  1  0
 22 45  1  0
 24 46  1  0
 24 47  1  0
M  END
>  <UniqueID>  (4) 
4

>  <SMILES>  (4) 
COc1ccc2c(c1)C[C@@H]1c3cc(OC)c(OC)cc3CCN1C2

>  <Energy>  (4) 
63.088986401001215

>  <Genealogy>  (4) 
COc1ccc2c(c1)C[C@@H]1c3cc(OC)c(OC)cc3CCN1C2 (chirality)
COc1ccc2c(c1)C[C@@H]1c3cc(OC)c(OC)cc3CCN1C2 (3D coordinates assigned)
COc1ccc2c(c1)C[C@@H]1c3cc(OC)c(OC)cc3CCN1C2 (nonaromatic ring conformer: 63.088986401001215 kcal/mol)

>  <smiles>  (4) 
COc1ccc2c(c1)CC1c3cc(OC)c(OC)cc3CCN1C2

>  <score_type>  (4) 
oracle

>  <origin>  (4) 
adg

>  <m_score__min__energy>  (4) 
-7.3700000000000001

>  <m_primary>  (4) 
energy

$$$$
4:0
     RDKit          3D

 34 36  0  0  0  0  0  0  0  0999 V2000
   56.6860   20.9380   42.9890 C   0  0  0  0  0  0  0  0  0  0  0  0
   56.0200   22.1830   42.8100 O   0  0  0  0  0  0  0  0  0  0  0  0
   56.1780   23.2940   43.6520 C   0  0  0  0  0  0  0  0  0  0  0  0
   57.2100   24.1970   43.3750 C   0  0  0  0  0  0  0  0  0  0  0  0
   57.4100   25.3190   44.1840 C   0  0  0  0  0  0  0  0  0  0  0  0
   56.5780   25.5560   45.2910 C   0  0  0  0  0  0  0  0  0  0  0  0
   56.7890   26.7690   46.1690 C   0  0  2  0  0  0  0  0  0  0  0  0
   56.0110   27.8620   45.6620 O   0  0  0  0  0  0  0  0  0  0  0  0
   56.5560   28.8970   44.9000 C   0  0  0  0  0  0  0  0  0  0  0  0
   55.7180   29.7840   44.2160 C   0  0  0  0  0  0  0  0  0  0  0  0
   56.2700   30.8190   43.4540 C   0  0  0  0  0  0  0  0  0  0  0  0
   57.6600   30.9710   43.3830 C   0  0  0  0  0  0  0  0  0  0  0  0
   58.4980   30.0920   44.0750 C   0  0  0  0  0  0  0  0  0  0  0  0
   57.9450   29.0500   44.8350 C   0  0  0  0  0  0  0  0  0  0  0  0
   58.7970   28.1340   45.6080 C   0  0  0  0  0  0  0  0  0  0  0  0
   58.2740   27.0910   46.2790 C   0  0  0  0  0  0  0  0  0  0  0  0
   59.1230   26.2250   47.0580 N   0  0  0  0  0  0  0  0  0  0  0  0
   59.2820   26.4100   48.2830 O   0  0  0  0  0  0  0  0  0  0  0  0
   59.7630   25.1640   46.4610 O   0  0  0  0  0  0  0  0  0  0  0  0
   55.5400   24.6510   45.5680 C   0  0  0  0  0  0  0  0  0  0  0  0
   55.3410   23.5290   44.7590 C   0  0  0  0  0  0  0  0  0  0  0  0
   56.7961   20.7323   44.0640 H   0  0  0  0  0  0  0  0  0  0  0  0
   56.0964   20.1361   42.5207 H   0  0  0  0  0  0  0  0  0  0  0  0
   57.6803   20.9834   42.5207 H   0  0  0  0  0  0  0  0  0  0  0  0
   57.8701   24.0223   42.5126 H   0  0  0  0  0  0  0  0  0  0  0  0
   58.2244   26.0213   43.9524 H   0  0  0  0  0  0  0  0  0  0  0  0
   56.4413   26.5656   47.1926 H   0  0  0  0  0  0  0  0  0  0  0  0
   54.6259   29.6677   44.2773 H   0  0  0  0  0  0  0  0  0  0  0  0
   55.6122   31.5133   42.9107 H   0  0  0  0  0  0  0  0  0  0  0  0
   58.0934   31.7837   42.7815 H   0  0  0  0  0  0  0  0  0  0  0  0
   59.5897   30.2169   44.0239 H   0  0  0  0  0  0  0  0  0  0  0  0
   59.8833   28.3046   45.6385 H   0  0  0  0  0  0  0  0  0  0  0  0
   54.8783   24.8269   46.4289 H   0  0  0  0  0  0  0  0  0  0  0  0
   54.5265   22.8262   44.9884 H   0  0  0  0  0  0  0  0  0  0  0  0
  1  2  1  0
  2  3  1  0
  3  4  2  0
  4  5  1  0
  5  6  2  0
  6  7  1  0
  7  8  1  0
  8  9  1  0
  9 10  2  0
 10 11  1  0
 11 12  2  0
 12 13  1  0
 13 14  2  0
 14 15  1  0
 15 16  2  0
 16 17  1  0
 17 18  2  0
 17 19  1  0
  6 20  1  0
 20 21  2  0
 21  3  1  0
 16  7  1  0
 14  9  1  0
  1 22  1  0
  1 23  1  0
  1 24  1  0
  4 25  1  0
  5 26  1  0
  7 27  1  1
 10 28  1  0
 11 29  1  0
 12 30  1  0
 13 31  1  0
 15 32  1  0
 20 33  1  0
 21 34  1  0
M  CHG  2  17   1  19  -1
M  END
>  <UniqueID>  (5) 
5

>  <SMILES>  (5) 
COc1ccc([C@@H]2Oc3ccccc3C=C2[N+](=O)[O-])cc1

>  <Energy>  (5) 
39.5685118918574

>  <Genealogy>  (5) 
COc1ccc([C@@H]2Oc3ccccc3C=C2[N+](=O)[O-])cc1 (chirality)
COc1ccc([C@@H]2Oc3ccccc3C=C2[N+](=O)[O-])cc1 (3D coordinates assigned)
COc1ccc([C@@H]2Oc3ccccc3C=C2[N+](=O)[O-])cc1 (nonaromatic ring conformer: 39.5685118918574 kcal/mol)

>  <smiles>  (5) 
COc1ccc(C2Oc3ccccc3C=C2[N+](=O)[O-])cc1

>  <score_type>  (5) 
oracle

>  <origin>  (5) 
adg

>  <m_score__min__energy>  (5) 
-7.2400000000000002

>  <m_primary>  (5) 
energy

$$$$
5:0
     RDKit          3D

 36 37  0  0  0  0  0  0  0  0999 V2000
   58.1350   32.3020   42.7140 C   0  0  0  0  0  0  0  0  0  0  0  0
   57.4430   32.3280   44.0750 C   0  0  0  0  0  0  0  0  0  0  0  0
   57.5670   30.9850   44.7800 C   0  0  0  0  0  0  0  0  0  0  0  0
   56.9600   29.8220   44.2390 C   0  0  0  0  0  0  0  0  0  0  0  0
   56.1110   29.8820   42.9930 C   0  0  0  0  0  0  0  0  0  0  0  0
   57.1100   28.6210   44.8690 N   0  0  0  0  0  0  0  0  0  0  0  0
   57.8480   28.4760   46.0020 C   0  0  0  0  0  0  0  0  0  0  0  0
   57.9710   26.9810   46.6830 S   0  0  0  0  0  0  0  0  0  0  0  0
   58.4860   29.5930   46.5720 C   0  0  0  0  0  0  0  0  0  0  0  0
   59.2720   29.4550   47.7840 C   0  0  0  0  0  0  0  0  0  0  0  0
   59.9000   29.3460   48.7500 N   0  0  0  0  0  0  0  0  0  0  0  0
   58.3460   30.8550   45.9570 C   0  0  0  0  0  0  0  0  0  0  0  0
   59.0150   32.0330   46.5590 C   0  0  0  0  0  0  0  0  0  0  0  0
   58.2650   32.9890   47.2580 C   0  0  0  0  0  0  0  0  0  0  0  0
   58.8940   34.1080   47.8080 C   0  0  0  0  0  0  0  0  0  0  0  0
   60.2720   34.2840   47.6580 C   0  0  0  0  0  0  0  0  0  0  0  0
   61.0350   33.3370   46.9460 C   0  0  0  0  0  0  0  0  0  0  0  0
   62.4190   33.4700   46.7620 O   0  0  0  0  0  0  0  0  0  0  0  0
   63.4010   32.7490   47.4990 C   0  0  0  0  0  0  0  0  0  0  0  0
   60.3970   32.2180   46.3970 C   0  0  0  0  0  0  0  0  0  0  0  0
   59.2248   32.2610   42.8575 H   0  0  0  0  0  0  0  0  0  0  0  0
   57.8056   31.4156   42.1521 H   0  0  0  0  0  0  0  0  0  0  0  0
   57.8730   33.2106   42.1521 H   0  0  0  0  0  0  0  0  0  0  0  0
   57.9077   33.1054   44.6992 H   0  0  0  0  0  0  0  0  0  0  0  0
   56.3755   32.5430   43.9194 H   0  0  0  0  0  0  0  0  0  0  0  0
   55.0505   29.9569   43.2752 H   0  0  0  0  0  0  0  0  0  0  0  0
   56.3951   30.7623   42.3977 H   0  0  0  0  0  0  0  0  0  0  0  0
   56.2685   28.9705   42.3977 H   0  0  0  0  0  0  0  0  0  0  0  0
   56.6410   27.7760   44.4670 H   0  0  0  0  0  0  0  0  0  0  0  0
   57.1790   32.8575   47.3735 H   0  0  0  0  0  0  0  0  0  0  0  0
   58.3029   34.8530   48.3609 H   0  0  0  0  0  0  0  0  0  0  0  0
   60.7630   35.1649   48.0972 H   0  0  0  0  0  0  0  0  0  0  0  0
   63.2212   32.8810   48.5761 H   0  0  0  0  0  0  0  0  0  0  0  0
   63.3387   31.6805   47.2451 H   0  0  0  0  0  0  0  0  0  0  0  0
   64.4018   33.1284   47.2451 H   0  0  0  0  0  0  0  0  0  0  0  0
   60.9839   31.4774   45.8339 H   0  0  0  0  0  0  0  0  0  0  0  0
  1  2  1  0
  2  3  1  0
  3  4  2  0
  4  5  1  0
  4  6  1  0
  6  7  1  0
  7  8  2  0
  7  9  1  0
  9 10  1  0
 10 11  3  0
  9 12  2  0
 12 13  1  0
 13 14  2  0
 14 15  1  0
 15 16  2  0
 16 17  1  0
 17 18  1  0
 18 19  1  0
 17 20  2  0
 12  3  1  0
 20 13  1  0
  1 21  1  0
  1 22  1  0
  1 23  1  0
  2 24  1  0
  2 25  1  0
  5 26  1  0
  5 27  1  0
  5 28  1  0
  6 29  1  0
 14 30  1  0
 15 31  1  0
 16 32  1  0
 19 33  1  0
 19 34  1  0
 19 35  1  0
 20 36  1  0
M  END
>  <UniqueID>  (6) 
6

>  <SMILES>  (6) 
CCc1c(C)[nH]c(=S)c(C#N)c1-c1cccc(OC)c1

>  <Energy>  (6) 
46.1098155976505

>  <Genealogy>  (6) 
CCc1c(C)[nH]c(=S)c(C#N)c1-c1cccc(OC)c1 (3D coordinates assigned)
CCc1c(C)[nH]c(=S)c(C#N)c1-c1cccc(OC)c1 (optimized conformer: 46.1098155976505 kcal/mol)

>  <smiles>  (6) 
CCc1c(C)[nH]c(=S)c(C#N)c1-c1cccc(OC)c1

>  <score_type>  (6) 
oracle

>  <origin>  (6) 
adg

>  <m_score__min__energy>  (6) 
-6.8899999999999997

>  <m_primary>  (6) 
energy

$$$$
6:0
     RDKit          3D

 43 45  0  0  0  0  0  0  0  0999 V2000
   59.6540   35.2770   45.9530 C   0  0  0  0  0  0  0  0  0  0  0  0
   58.8040   34.6030   44.8790 C   0  0  0  0  0  0  0  0  0  0  0  0
   57.4920   34.2070   45.4100 N   0  0  0  0  0  0  0  0  0  0  0  0
   57.5760   33.4020   46.6430 C   0  0  0  0  0  0  0  0  0  0  0  0
   58.2500   32.0500   46.4180 C   0  0  0  0  0  0  0  0  0  0  0  0
   59.4220   31.6700   47.1260 C   0  0  0  0  0  0  0  0  0  0  0  0
   60.0060   32.5590   48.1570 C   0  0  0  0  0  0  0  0  0  0  0  0
   59.3310   32.7730   49.3690 C   0  0  0  0  0  0  0  0  0  0  0  0
   59.8880   33.6050   50.3450 C   0  0  0  0  0  0  0  0  0  0  0  0
   61.1260   34.2140   50.1240 C   0  0  0  0  0  0  0  0  0  0  0  0
   61.8110   33.9890   48.9260 C   0  0  0  0  0  0  0  0  0  0  0  0
   61.2580   33.1580   47.9480 C   0  0  0  0  0  0  0  0  0  0  0  0
   60.0140   30.4600   46.8560 N   0  0  0  0  0  0  0  0  0  0  0  0
   61.1360   30.0440   47.5560 O   0  0  0  0  0  0  0  0  0  0  0  0
   59.4930   29.6260   45.9070 C   0  0  0  0  0  0  0  0  0  0  0  0
   60.1080   28.3920   45.6080 C   0  0  0  0  0  0  0  0  0  0  0  0
   59.5620   27.5400   44.6480 C   0  0  0  0  0  0  0  0  0  0  0  0
   58.3860   27.8910   43.9770 C   0  0  0  0  0  0  0  0  0  0  0  0
   57.8230   26.9890   42.9180 C   0  0  0  0  0  0  0  0  0  0  0  0
   57.7750   29.1210   44.2530 C   0  0  0  0  0  0  0  0  0  0  0  0
   58.3160   29.9940   45.2190 C   0  0  0  0  0  0  0  0  0  0  0  0
   57.7180   31.1880   45.4990 N   0  0  0  0  0  0  0  0  0  0  0  0
   56.5470   31.5280   44.8520 O   0  0  0  0  0  0  0  0  0  0  0  0
   59.2864   34.9855   46.9480 H   0  0  0  0  0  0  0  0  0  0  0  0
   60.7021   34.9618   45.8425 H   0  0  0  0  0  0  0  0  0  0  0  0
   59.5860   36.3693   45.8425 H   0  0  0  0  0  0  0  0  0  0  0  0
   58.6565   35.3052   44.0452 H   0  0  0  0  0  0  0  0  0  0  0  0
   59.3284   33.6987   44.5366 H   0  0  0  0  0  0  0  0  0  0  0  0
   56.9900   33.6610   44.6730 H   0  0  0  0  0  0  0  0  0  0  0  0
   58.1543   33.9636   47.3915 H   0  0  0  0  0  0  0  0  0  0  0  0
   56.5485   33.2088   46.9850 H   0  0  0  0  0  0  0  0  0  0  0  0
   58.3620   32.2853   49.5513 H   0  0  0  0  0  0  0  0  0  0  0  0
   59.3506   33.7804   51.2886 H   0  0  0  0  0  0  0  0  0  0  0  0
   61.5615   34.8701   50.8921 H   0  0  0  0  0  0  0  0  0  0  0  0
   62.7866   34.4668   48.7531 H   0  0  0  0  0  0  0  0  0  0  0  0
   61.8053   32.9729   47.0120 H   0  0  0  0  0  0  0  0  0  0  0  0
   61.1180   29.7860   48.5340 H   0  0  0  0  0  0  0  0  0  0  0  0
   61.0269   28.0990   46.1370 H   0  0  0  0  0  0  0  0  0  0  0  0
   60.0593   26.5863   44.4172 H   0  0  0  0  0  0  0  0  0  0  0  0
   57.2979   26.1478   43.3941 H   0  0  0  0  0  0  0  0  0  0  0  0
   57.1173   27.5546   42.2918 H   0  0  0  0  0  0  0  0  0  0  0  0
   58.6411   26.6035   42.2918 H   0  0  0  0  0  0  0  0  0  0  0  0
   56.8628   29.4090   43.7099 H   0  0  0  0  0  0  0  0  0  0  0  0
  1  2  1  0
  2  3  1  0
  3  4  1  0
  4  5  1  0
  5  6  2  0
  6  7  1  0
  7  8  2  0
  8  9  1  0
  9 10  2  0
 10 11  1  0
 11 12  2  0
  6 13  1  0
 13 14  1  0
 13 15  2  0
 15 16  1  0
 16 17  2  0
 17 18  1  0
 18 19  1  0
 18 20  2  0
 20 21  1  0
 21 22  2  0
 22 23  1  0
 22  5  1  0
 12  7  1  0
 21 15  1  0
  1 24  1  0
  1 25  1  0
  1 26  1  0
  2 27  1  0
  2 28  1  0
  3 29  1  0
  4 30  1  0
  4 31  1  0
  8 32  1  0
  9 33  1  0
 10 34  1  0
 11 35  1  0
 12 36  1  0
 14 37  1  0
 16 38  1  0
 17 39  1  0
 19 40  1  0
 19 41  1  0
 19 42  1  0
 20 43  1  0
M  CHG  3  13   1  22   1  23  -1
M  END
>  <UniqueID>  (7) 
7

>  <SMILES>  (7) 
CCNCc1c(-c2ccccc2)[n+](O)c2ccc(C)cc2[n+]1[O-]

>  <Energy>  (7) 
60.525400434199135

>  <Genealogy>  (7) 
CCNCc1c(-c2ccccc2)[n+](O)c2ccc(C)cc2[n+]1[O-] (protonated)
CCNCc1c(-c2ccccc2)[n+](O)c2ccc(C)cc2[n+]1[O-] (3D coordinates assigned)
CCNCc1c(-c2ccccc2)[n+](O)c2ccc(C)cc2[n+]1[O-] (optimized conformer: 60.525400434199135 kcal/mol)

>  <smiles>  (7) 
CCNCc1c(-c2ccccc2)[n+]([O-])c2ccc(C)cc2[n+]1[O-]

>  <score_type>  (7) 
oracle

>  <origin>  (7) 
adg

>  <m_score__min__energy>  (7) 
-5.1600000000000001

>  <m_primary>  (7) 
energy

$$$$
7:0
     RDKit          3D

 52 54  0  0  0  0  0  0  0  0999 V2000
   59.5050   30.8100   46.3400 C   0  0  0  0  0  0  0  0  0  0  0  0
   58.2050   31.4300   45.8310 C   0  0  0  0  0  0  0  0  0  0  0  0
   58.4600   32.4520   44.7900 N   0  0  0  0  0  0  0  0  0  0  0  0
   57.8310   32.1640   43.4780 C   0  0  0  0  0  0  0  0  0  0  0  0
   56.9930   30.8780   43.4570 C   0  0  0  0  0  0  0  0  0  0  0  0
   58.1860   33.8270   45.2700 C   0  0  0  0  0  0  0  0  0  0  0  0
   59.4910   34.4970   45.7110 C   0  0  0  0  0  0  0  0  0  0  0  0
   59.8880   34.0470   47.0440 N   0  0  0  0  0  0  0  0  0  0  0  0
   59.0710   33.9410   48.1190 C   0  0  0  0  0  0  0  0  0  0  0  0
   59.7990   33.5720   49.2460 C   0  0  0  0  0  0  0  0  0  0  0  0
   59.2540   33.3610   50.6340 C   0  0  0  0  0  0  0  0  0  0  0  0
   59.6430   32.0630   51.2320 N   0  0  0  0  0  0  0  0  0  0  0  0
   59.8240   30.9630   50.2630 C   0  0  0  0  0  0  0  0  0  0  0  0
   58.5180   30.1740   49.9970 C   0  0  0  0  0  0  0  0  0  0  0  0
   57.4640   30.5250   50.8720 O   0  0  0  0  0  0  0  0  0  0  0  0
   57.9260   30.5120   52.2030 C   0  0  0  0  0  0  0  0  0  0  0  0
   58.8900   31.6840   52.4480 C   0  0  0  0  0  0  0  0  0  0  0  0
   61.1140   33.4720   48.8260 C   0  0  0  0  0  0  0  0  0  0  0  0
   62.2820   33.1720   49.5280 C   0  0  0  0  0  0  0  0  0  0  0  0
   63.4960   33.1670   48.8180 C   0  0  0  0  0  0  0  0  0  0  0  0
   65.1240   32.7560   49.7260 Br  0  0  0  0  0  0  0  0  0  0  0  0
   63.5170   33.4670   47.4390 C   0  0  0  0  0  0  0  0  0  0  0  0
   62.3260   33.7750   46.7570 C   0  0  0  0  0  0  0  0  0  0  0  0
   61.1330   33.7640   47.4850 C   0  0  0  0  0  0  0  0  0  0  0  0
   59.5051   30.8099   47.4400 H   0  0  0  0  0  0  0  0  0  0  0  0
   59.5864   29.7761   45.9733 H   0  0  0  0  0  0  0  0  0  0  0  0
   60.3596   31.3975   45.9733 H   0  0  0  0  0  0  0  0  0  0  0  0
   57.5736   30.6363   45.4051 H   0  0  0  0  0  0  0  0  0  0  0  0
   57.7022   31.9195   46.6781 H   0  0  0  0  0  0  0  0  0  0  0  0
   57.1762   33.0080   43.2155 H   0  0  0  0  0  0  0  0  0  0  0  0
   58.6493   32.0228   42.7566 H   0  0  0  0  0  0  0  0  0  0  0  0
   56.7851   30.5589   44.4890 H   0  0  0  0  0  0  0  0  0  0  0  0
   56.0442   31.0671   42.9335 H   0  0  0  0  0  0  0  0  0  0  0  0
   57.5492   30.0864   42.9335 H   0  0  0  0  0  0  0  0  0  0  0  0
   57.7321   34.4130   44.4573 H   0  0  0  0  0  0  0  0  0  0  0  0
   57.4966   33.7803   46.1259 H   0  0  0  0  0  0  0  0  0  0  0  0
   60.2857   34.2427   44.9942 H   0  0  0  0  0  0  0  0  0  0  0  0
   59.3326   35.5851   45.7418 H   0  0  0  0  0  0  0  0  0  0  0  0
   57.9859   34.1211   48.1034 H   0  0  0  0  0  0  0  0  0  0  0  0
   59.6280   34.1681   51.2810 H   0  0  0  0  0  0  0  0  0  0  0  0
   58.1569   33.3638   50.5540 H   0  0  0  0  0  0  0  0  0  0  0  0
   60.1776   31.3876   49.3119 H   0  0  0  0  0  0  0  0  0  0  0  0
   60.5527   30.2603   50.6932 H   0  0  0  0  0  0  0  0  0  0  0  0
   58.1949   30.3718   48.9643 H   0  0  0  0  0  0  0  0  0  0  0  0
   58.7403   29.1099   50.1654 H   0  0  0  0  0  0  0  0  0  0  0  0
   57.0677   30.6002   52.8853 H   0  0  0  0  0  0  0  0  0  0  0  0
   58.4594   29.5675   52.3860 H   0  0  0  0  0  0  0  0  0  0  0  0
   58.3086   32.5536   52.7881 H   0  0  0  0  0  0  0  0  0  0  0  0
   59.6196   31.3633   53.2061 H   0  0  0  0  0  0  0  0  0  0  0  0
   62.2541   32.9462   50.6042 H   0  0  0  0  0  0  0  0  0  0  0  0
   64.4721   33.4599   46.8934 H   0  0  0  0  0  0  0  0  0  0  0  0
   62.3333   34.0170   45.6840 H   0  0  0  0  0  0  0  0  0  0  0  0
  1  2  1  0
  2  3  1  0
  3  4  1  0
  4  5  1  0
  3  6  1  0
  6  7  1  0
  7  8  1  0
  8  9  1  0
  9 10  2  0
 10 11  1  0
 11 12  1  0
 12 13  1  0
 13 14  1  0
 14 15  1  0
 15 16  1  0
 16 17  1  0
 10 18  1  0
 18 19  2  0
 19 20  1  0
 20 21  1  0
 20 22  2  0
 22 23  1  0
 23 24  2  0
 24  8  1  0
 17 12  1  0
 24 18  1  0
  1 25  1  0
  1 26  1  0
  1 27  1  0
  2 28  1  0
  2 29  1  0
  4 30  1  0
  4 31  1  0
  5 32  1  0
  5 33  1  0
  5 34  1  0
  6 35  1  0
  6 36  1  0
  7 37  1  0
  7 38  1  0
  9 39  1  0
 11 40  1  0
 11 41  1  0
 13 42  1  0
 13 43  1  0
 14 44  1  0
 14 45  1  0
 16 46  1  0
 16 47  1  0
 17 48  1  0
 17 49  1  0
 19 50  1  0
 22 51  1  0
 23 52  1  0
M  END
>  <UniqueID>  (8) 
8

>  <SMILES>  (8) 
CCN(CC)CCn1cc(CN2CCOCC2)c2cc(Br)ccc21

>  <Energy>  (8) 
97.36922148465005

>  <Genealogy>  (8) 
CCN(CC)CCn1cc(CN2CCOCC2)c2cc(Br)ccc21 (3D coordinates assigned)
CCN(CC)CCn1cc(CN2CCOCC2)c2cc(Br)ccc21 (nonaromatic ring conformer: 97.36922148465005 kcal/mol)

>  <smiles>  (8) 
CCN(CC)CCn1cc(CN2CCOCC2)c2cc(Br)ccc21

>  <score_type>  (8) 
oracle

>  <origin>  (8) 
adg

>  <m_score__min__energy>  (8) 
-7.1900000000000004

>  <m_primary>  (8) 
energy

$$$$
8:0
     RDKit          3D

 62 66  0  0  0  0  0  0  0  0999 V2000
   65.9008   26.3551   52.1469 H   0  0  0  0  0  0  0  0  0  0  0  0
   66.0620   27.4180   51.9140 C   0  0  0  0  0  0  0  0  0  0  0  0
   67.3240   27.8600   51.5230 C   0  0  0  0  0  0  0  0  0  0  0  0
   68.1582   27.1466   51.4514 H   0  0  0  0  0  0  0  0  0  0  0  0
   67.5310   29.2070   51.2220 C   0  0  0  0  0  0  0  0  0  0  0  0
   68.5283   29.5505   50.9100 H   0  0  0  0  0  0  0  0  0  0  0  0
   66.4740   30.1260   51.3150 C   0  0  0  0  0  0  0  0  0  0  0  0
   66.7080   31.5690   50.9760 C   0  0  0  0  0  0  0  0  0  0  0  0
   66.2914   32.2049   51.7710 H   0  0  0  0  0  0  0  0  0  0  0  0
   67.7886   31.7548   50.8872 H   0  0  0  0  0  0  0  0  0  0  0  0
   66.0730   31.8730   49.7460 O   0  0  0  0  0  0  0  0  0  0  0  0
   65.4230   33.0730   49.5630 N   0  0  0  0  0  0  0  0  0  0  0  0
   64.1290   33.1540   49.5990 C   0  0  0  0  0  0  0  0  0  0  0  0
   63.2690   32.3440   48.7080 C   0  0  0  0  0  0  0  0  0  0  0  0
   63.6576   32.3460   47.6789 H   0  0  0  0  0  0  0  0  0  0  0  0
   63.2192   31.2868   49.0076 H   0  0  0  0  0  0  0  0  0  0  0  0
   61.9810   33.0110   48.7770 N   0  0  0  0  0  0  0  0  0  0  0  0
   60.8470   32.6250   47.9800 C   0  0  0  0  0  0  0  0  0  0  0  0
   60.0180   33.5970   47.4020 C   0  0  0  0  0  0  0  0  0  0  0  0
   60.2840   34.9160   47.5610 F   0  0  0  0  0  0  0  0  0  0  0  0
   58.9400   33.2160   46.6020 C   0  0  0  0  0  0  0  0  0  0  0  0
   58.3023   33.9875   46.1457 H   0  0  0  0  0  0  0  0  0  0  0  0
   58.6590   31.8560   46.3720 C   0  0  0  0  0  0  0  0  0  0  0  0
   57.5980   31.4700   45.5330 C   0  0  0  0  0  0  0  0  0  0  0  0
   56.8640   32.3510   44.9990 O   0  0  0  0  0  0  0  0  0  0  0  0
   57.3600   30.1070   45.2850 C   0  0  0  0  0  0  0  0  0  0  0  0
   56.2740   29.6470   44.3730 C   0  0  0  0  0  0  0  0  0  0  0  0
   56.3550   29.8400   43.1330 O   0  0  0  0  0  0  0  0  0  0  0  0
   55.1490   29.0040   44.8650 O   0  0  0  0  0  0  0  0  0  0  0  0
   58.1720   29.1580   45.9250 C   0  0  0  0  0  0  0  0  0  0  0  0
   58.0109   28.0896   45.7187 H   0  0  0  0  0  0  0  0  0  0  0  0
   59.1590   29.5260   46.7990 N   0  0  0  0  0  0  0  0  0  0  0  0
   59.9410   28.4530   47.4470 C   0  0  0  0  0  0  0  0  0  0  0  0
   60.4794   29.1042   48.1513 H   0  0  0  0  0  0  0  0  0  0  0  0
   60.3320   27.2940   46.5300 C   0  0  0  0  0  0  0  0  0  0  0  0
   60.1047   27.3433   45.4549 H   0  0  0  0  0  0  0  0  0  0  0  0
   61.2683   26.7609   46.3084 H   0  0  0  0  0  0  0  0  0  0  0  0
   59.2120   27.1150   47.5320 C   0  0  0  0  0  0  0  0  0  0  0  0
   58.1718   27.0336   47.1838 H   0  0  0  0  0  0  0  0  0  0  0  0
   59.0000   26.3972   48.3381 H   0  0  0  0  0  0  0  0  0  0  0  0
   59.4630   30.8600   46.9830 C   0  0  0  0  0  0  0  0  0  0  0  0
   60.5720   31.2670   47.7620 C   0  0  0  0  0  0  0  0  0  0  0  0
   61.2302   30.5048   48.2045 H   0  0  0  0  0  0  0  0  0  0  0  0
   61.9950   34.2020   49.6250 C   0  0  0  0  0  0  0  0  0  0  0  0
   61.8784   35.1075   49.0115 H   0  0  0  0  0  0  0  0  0  0  0  0
   61.1679   34.1858   50.3500 H   0  0  0  0  0  0  0  0  0  0  0  0
   63.3620   34.2120   50.3360 C   0  0  1  0  0  0  0  0  0  0  0  0
   63.8683   35.1884   50.3166 H   0  0  0  0  0  0  0  0  0  0  0  0
   63.2010   33.8810   51.8330 C   0  0  0  0  0  0  0  0  0  0  0  0
   63.0847   34.8186   52.3963 H   0  0  0  0  0  0  0  0  0  0  0  0
   62.3143   33.2411   51.9525 H   0  0  0  0  0  0  0  0  0  0  0  0
   64.3610   33.1590   52.3470 N   0  0  0  0  0  0  0  0  0  0  0  0
   64.0120   32.4120   52.9900 H   0  0  0  0  0  0  0  0  0  0  0  0
   64.8120   32.6580   51.5480 H   0  0  0  0  0  0  0  0  0  0  0  0
   65.1970   29.6820   51.7190 C   0  0  0  0  0  0  0  0  0  0  0  0
   64.1540   30.6160   51.8140 O   0  0  0  0  0  0  0  0  0  0  0  0
   62.8010   30.3510   51.4680 C   0  0  0  0  0  0  0  0  0  0  0  0
   62.2043   30.2341   52.3846 H   0  0  0  0  0  0  0  0  0  0  0  0
   62.4032   31.1883   50.8758 H   0  0  0  0  0  0  0  0  0  0  0  0
   62.7485   29.4255   50.8758 H   0  0  0  0  0  0  0  0  0  0  0  0
   65.0020   28.3200   52.0110 C   0  0  0  0  0  0  0  0  0  0  0  0
   64.0075   27.9637   52.3178 H   0  0  0  0  0  0  0  0  0  0  0  0
  1  2  1  0
  2  3  2  0
  3  4  1  0
  3  5  1  0
  5  6  1  0
  5  7  2  0
  7  8  1  0
  8  9  1  0
  8 10  1  0
  8 11  1  0
 11 12  1  0
 12 13  2  0
 13 14  1  0
 14 15  1  0
 14 16  1  0
 14 17  1  0
 17 18  1  0
 18 19  2  0
 19 20  1  0
 19 21  1  0
 21 22  1  0
 21 23  2  0
 23 24  1  0
 24 25  2  0
 24 26  1  0
 26 27  1  0
 27 28  2  0
 27 29  1  0
 26 30  2  0
 30 31  1  0
 30 32  1  0
 32 33  1  0
 33 34  1  0
 33 35  1  0
 35 36  1  0
 35 37  1  0
 35 38  1  0
 38 39  1  0
 38 40  1  0
 32 41  1  0
 41 42  2  0
 42 43  1  0
 17 44  1  0
 44 45  1  0
 44 46  1  0
 44 47  1  0
 47 48  1  1
 47 49  1  0
 49 50  1  0
 49 51  1  0
 49 52  1  0
 52 53  1  0
 52 54  1  0
  7 55  1  0
 55 56  1  0
 56 57  1  0
 57 58  1  0
 57 59  1  0
 57 60  1  0
 55 61  2  0
 61 62  1  0
 61  2  1  0
 47 13  1  0
 42 18  1  0
 41 23  1  0
 38 33  1  0
M  CHG  1  29  -1
M  END
>  <UniqueID>  (9) 
9

>  <SMILES>  (9) 
COc1ccccc1CO/N=C1/CN(c2cc3c(cc2F)c(=O)c(C(=O)[O-])cn3C2CC2)C[C@H]1CN

>  <Energy>  (9) 
344.7730986308823

>  <Genealogy>  (9) 
COc1ccccc1CON=C1CN(c2cc3c(cc2F)c(=O)c(C(=O)[O-])cn3C2CC2)CC1CN (protonated)
COc1ccccc1CON=C1CN(c2cc3c(cc2F)c(=O)c(C(=O)[O-])cn3C2CC2)C[C@H]1CN (chirality)
COc1ccccc1CO/N=C1/CN(c2cc3c(cc2F)c(=O)c(C(=O)[O-])cn3C2CC2)C[C@H]1CN (cis-trans isomerization)
COc1ccccc1CO/N=C1/CN(c2cc3c(cc2F)c(=O)c(C(=O)[O-])cn3C2CC2)C[C@H]1CN (3D coordinates assigned)
COc1ccccc1CO/N=C1/CN(c2cc3c(cc2F)c(=O)c(C(=O)[O-])cn3C2CC2)C[C@H]1CN (nonaromatic ring conformer: 344.7730986308823 kcal/mol)

>  <smiles>  (9) 
COc1ccccc1CON=C1CN(c2cc3c(cc2F)c(=O)c(C(=O)O)cn3C2CC2)CC1CN

>  <score_type>  (9) 
oracle

>  <origin>  (9) 
adg

>  <m_score__min__energy>  (9) 
-10.24

>  <m_primary>  (9) 
energy

$$$$
9:0
     RDKit          3D

 52 55  0  0  0  0  0  0  0  0999 V2000
   64.2250   31.0200   50.7110 C   0  0  0  0  0  0  0  0  0  0  0  0
   64.4560   32.1880   49.8500 N   0  0  0  0  0  0  0  0  0  0  0  0
   65.8170   32.7240   49.7340 C   0  0  0  0  0  0  0  0  0  0  0  0
   63.3550   32.8020   49.1290 C   0  0  0  0  0  0  0  0  0  0  0  0
   63.3740   32.8990   47.7220 C   0  0  0  0  0  0  0  0  0  0  0  0
   62.3110   33.4860   47.0310 C   0  0  0  0  0  0  0  0  0  0  0  0
   61.2040   33.9840   47.7270 C   0  0  0  0  0  0  0  0  0  0  0  0
   59.8510   34.7000   46.8560 S   0  0  0  0  0  0  0  0  0  0  0  0
   60.3790   35.7770   45.9500 O   0  0  0  0  0  0  0  0  0  0  0  0
   58.8910   35.3280   47.8250 O   0  0  0  0  0  0  0  0  0  0  0  0
   59.0090   33.4670   45.9000 C   0  0  0  0  0  0  0  0  0  0  0  0
   58.5970   33.7930   44.6020 C   0  0  0  0  0  0  0  0  0  0  0  0
   57.9990   32.8690   43.8070 N   0  0  0  0  0  0  0  0  0  0  0  0
   57.7950   31.5890   44.2240 C   0  0  0  0  0  0  0  0  0  0  0  0
   57.1950   30.6470   43.3670 C   0  0  0  0  0  0  0  0  0  0  0  0
   56.7950   31.0010   42.1190 F   0  0  0  0  0  0  0  0  0  0  0  0
   57.0060   29.3300   43.7920 C   0  0  0  0  0  0  0  0  0  0  0  0
   57.4170   28.9370   45.0650 C   0  0  0  0  0  0  0  0  0  0  0  0
   58.0120   29.8600   45.9270 C   0  0  0  0  0  0  0  0  0  0  0  0
   58.2000   31.1970   45.5250 C   0  0  0  0  0  0  0  0  0  0  0  0
   58.7950   32.1550   46.3770 C   0  0  0  0  0  0  0  0  0  0  0  0
   59.1710   31.7900   47.7160 N   0  0  0  0  0  0  0  0  0  0  0  0
   58.4100   32.3290   48.8490 C   0  0  0  0  0  0  0  0  0  0  0  0
   58.7470   31.5580   50.1220 C   0  0  0  0  0  0  0  0  0  0  0  0
   58.7670   30.1790   49.8290 O   0  0  0  0  0  0  0  0  0  0  0  0
   59.9320   29.8470   49.0900 C   0  0  0  0  0  0  0  0  0  0  0  0
   60.2570   30.8270   47.9360 C   0  0  0  0  0  0  0  0  0  0  0  0
   61.1770   33.9060   49.1230 C   0  0  0  0  0  0  0  0  0  0  0  0
   62.2380   33.3190   49.8180 C   0  0  0  0  0  0  0  0  0  0  0  0
   64.2853   31.3247   51.7662 H   0  0  0  0  0  0  0  0  0  0  0  0
   63.2273   30.6047   50.5057 H   0  0  0  0  0  0  0  0  0  0  0  0
   64.9895   30.2562   50.5057 H   0  0  0  0  0  0  0  0  0  0  0  0
   66.2334   32.8880   50.7389 H   0  0  0  0  0  0  0  0  0  0  0  0
   66.4481   32.0072   49.1881 H   0  0  0  0  0  0  0  0  0  0  0  0
   65.7898   33.6786   49.1881 H   0  0  0  0  0  0  0  0  0  0  0  0
   64.2362   32.5078   47.1620 H   0  0  0  0  0  0  0  0  0  0  0  0
   62.3445   33.5570   45.9338 H   0  0  0  0  0  0  0  0  0  0  0  0
   58.7601   34.8120   44.2211 H   0  0  0  0  0  0  0  0  0  0  0  0
   57.7090   33.1660   42.8470 H   0  0  0  0  0  0  0  0  0  0  0  0
   56.5311   28.6001   43.1199 H   0  0  0  0  0  0  0  0  0  0  0  0
   57.2720   27.8965   45.3911 H   0  0  0  0  0  0  0  0  0  0  0  0
   58.3367   29.5407   46.9283 H   0  0  0  0  0  0  0  0  0  0  0  0
   58.6663   33.3897   48.9876 H   0  0  0  0  0  0  0  0  0  0  0  0
   57.3346   32.2276   48.6410 H   0  0  0  0  0  0  0  0  0  0  0  0
   59.7341   31.8710   50.4929 H   0  0  0  0  0  0  0  0  0  0  0  0
   57.9907   31.7641   50.8937 H   0  0  0  0  0  0  0  0  0  0  0  0
   60.7868   29.8346   49.7822 H   0  0  0  0  0  0  0  0  0  0  0  0
   59.7420   28.8676   48.6267 H   0  0  0  0  0  0  0  0  0  0  0  0
   61.1761   31.3777   48.1848 H   0  0  0  0  0  0  0  0  0  0  0  0
   60.3849   30.2397   47.0147 H   0  0  0  0  0  0  0  0  0  0  0  0
   60.3162   34.3087   49.6770 H   0  0  0  0  0  0  0  0  0  0  0  0
   62.2016   33.2594   50.9158 H   0  0  0  0  0  0  0  0  0  0  0  0
  1  2  1  0
  2  3  1  0
  2  4  1  0
  4  5  2  0
  5  6  1  0
  6  7  2  0
  7  8  1  0
  8  9  2  0
  8 10  2  0
  8 11  1  0
 11 12  2  0
 12 13  1  0
 13 14  2  0
 14 15  1  0
 15 16  1  0
 15 17  2  0
 17 18  1  0
 18 19  2  0
 19 20  1  0
 20 21  2  0
 21 22  1  0
 22 23  1  0
 23 24  1  0
 24 25  1  0
 25 26  1  0
 26 27  1  0
  7 28  1  0
 28 29  2  0
 29  4  1  0
 21 11  1  0
 27 22  1  0
 20 14  1  0
  1 30  1  0
  1 31  1  0
  1 32  1  0
  3 33  1  0
  3 34  1  0
  3 35  1  0
  5 36  1  0
  6 37  1  0
 12 38  1  0
 13 39  1  0
 17 40  1  0
 18 41  1  0
 19 42  1  0
 23 43  1  0
 23 44  1  0
 24 45  1  0
 24 46  1  0
 26 47  1  0
 26 48  1  0
 27 49  1  0
 27 50  1  0
 28 51  1  0
 29 52  1  0
M  CHG  1  13   1
M  END
>  <UniqueID>  (10) 
10

>  <SMILES>  (10) 
CN(C)c1ccc(S(=O)(=O)c2c[nH+]c3c(F)cccc3c2N2CCOCC2)cc1

>  <Energy>  (10) 
74.92287259634816

>  <Genealogy>  (10) 
CN(C)c1ccc(S(=O)(=O)c2c[nH+]c3c(F)cccc3c2N2CCOCC2)cc1 (protonated)
CN(C)c1ccc(S(=O)(=O)c2c[nH+]c3c(F)cccc3c2N2CCOCC2)cc1 (3D coordinates assigned)
CN(C)c1ccc(S(=O)(=O)c2c[nH+]c3c(F)cccc3c2N2CCOCC2)cc1 (nonaromatic ring conformer: 74.92287259634816 kcal/mol)

>  <smiles>  (10) 
CN(C)c1ccc(S(=O)(=O)c2cnc3c(F)cccc3c2N2CCOCC2)cc1

>  <score_type>  (10) 
oracle

>  <origin>  (10) 
adg

>  <m_score__min__energy>  (10) 
-6.6399999999999997

>  <m_primary>  (10) 
energy

$$$$
10:0
     RDKit          3D

 55 56  0  0  0  0  0  0  0  0999 V2000
   58.8140   34.1280   46.4160 C   0  0  0  0  0  0  0  0  0  0  0  0
   57.5710   33.2620   46.5800 C   0  0  0  0  0  0  0  0  0  0  0  0
   57.7910   31.8380   46.0480 C   0  0  0  0  0  0  0  0  0  0  0  0
   57.0220   31.5920   44.8030 N   0  0  0  0  0  0  0  0  0  0  0  0
   57.6550   32.2640   43.6440 C   0  0  0  0  0  0  0  0  0  0  0  0
   57.2830   31.5370   42.3460 C   0  0  0  0  0  0  0  0  0  0  0  0
   57.6700   32.3590   41.1210 C   0  0  0  0  0  0  0  0  0  0  0  0
   56.8840   30.1340   44.5610 C   0  0  0  0  0  0  0  0  0  0  0  0
   57.4860   29.3260   45.7250 C   0  0  0  0  0  0  0  0  0  0  0  0
   58.1540   28.0250   45.2610 C   0  0  0  0  0  0  0  0  0  0  0  0
   59.5470   27.9580   45.6980 N   0  0  0  0  0  0  0  0  0  0  0  0
   60.0040   27.9980   47.0560 C   0  0  0  0  0  0  0  0  0  0  0  0
   60.6390   27.0110   47.5100 O   0  0  0  0  0  0  0  0  0  0  0  0
   59.7670   29.1610   47.9340 C   0  0  0  0  0  0  0  0  0  0  0  0
   60.3790   30.3910   47.6480 C   0  0  0  0  0  0  0  0  0  0  0  0
   60.1390   31.5080   48.4540 C   0  0  0  0  0  0  0  0  0  0  0  0
   59.2620   31.4120   49.5500 C   0  0  0  0  0  0  0  0  0  0  0  0
   58.9810   32.5060   50.3880 C   0  0  0  0  0  0  0  0  0  0  0  0
   59.5470   33.6160   50.1820 O   0  0  0  0  0  0  0  0  0  0  0  0
   58.0960   32.3650   51.4270 N   0  0  0  0  0  0  0  0  0  0  0  0
   57.7960   33.4900   52.3300 C   0  0  0  0  0  0  0  0  0  0  0  0
   58.9970   33.7950   53.2180 C   0  0  0  0  0  0  0  0  0  0  0  0
   57.5090   31.1520   51.6650 C   0  0  0  0  0  0  0  0  0  0  0  0
   57.7710   30.0870   50.8680 N   0  0  0  0  0  0  0  0  0  0  0  0
   58.6260   30.1860   49.8210 C   0  0  0  0  0  0  0  0  0  0  0  0
   58.8720   29.0720   49.0110 C   0  0  0  0  0  0  0  0  0  0  0  0
   59.2047   34.4002   47.4076 H   0  0  0  0  0  0  0  0  0  0  0  0
   59.5807   33.5676   45.8610 H   0  0  0  0  0  0  0  0  0  0  0  0
   58.5539   35.0414   45.8610 H   0  0  0  0  0  0  0  0  0  0  0  0
   57.3143   33.2069   47.6482 H   0  0  0  0  0  0  0  0  0  0  0  0
   56.7568   33.7208   45.9998 H   0  0  0  0  0  0  0  0  0  0  0  0
   58.8618   31.6970   45.8393 H   0  0  0  0  0  0  0  0  0  0  0  0
   57.4415   31.1286   46.8126 H   0  0  0  0  0  0  0  0  0  0  0  0
   57.3045   33.3053   43.5911 H   0  0  0  0  0  0  0  0  0  0  0  0
   58.7478   32.2429   43.7681 H   0  0  0  0  0  0  0  0  0  0  0  0
   57.8105   30.5723   42.3116 H   0  0  0  0  0  0  0  0  0  0  0  0
   56.1936   31.3851   42.3327 H   0  0  0  0  0  0  0  0  0  0  0  0
   58.1179   33.3103   41.4443 H   0  0  0  0  0  0  0  0  0  0  0  0
   58.3982   31.7972   40.5176 H   0  0  0  0  0  0  0  0  0  0  0  0
   56.7730   32.5624   40.5176 H   0  0  0  0  0  0  0  0  0  0  0  0
   55.8172   29.8844   44.4627 H   0  0  0  0  0  0  0  0  0  0  0  0
   57.4245   29.8776   43.6379 H   0  0  0  0  0  0  0  0  0  0  0  0
   58.2395   29.9470   46.2316 H   0  0  0  0  0  0  0  0  0  0  0  0
   56.6619   29.0532   46.4006 H   0  0  0  0  0  0  0  0  0  0  0  0
   57.6048   27.1702   45.6824 H   0  0  0  0  0  0  0  0  0  0  0  0
   58.1334   27.9971   44.1615 H   0  0  0  0  0  0  0  0  0  0  0  0
   61.0529   30.4771   46.7829 H   0  0  0  0  0  0  0  0  0  0  0  0
   60.6366   32.4633   48.2309 H   0  0  0  0  0  0  0  0  0  0  0  0
   57.5528   34.3802   51.7313 H   0  0  0  0  0  0  0  0  0  0  0  0
   56.9418   33.2175   52.9672 H   0  0  0  0  0  0  0  0  0  0  0  0
   58.7003   33.7197   54.2746 H   0  0  0  0  0  0  0  0  0  0  0  0
   59.7997   33.0722   53.0101 H   0  0  0  0  0  0  0  0  0  0  0  0
   59.3576   34.8132   53.0101 H   0  0  0  0  0  0  0  0  0  0  0  0
   56.8168   31.0398   52.5125 H   0  0  0  0  0  0  0  0  0  0  0  0
   58.3607   28.1207   49.2198 H   0  0  0  0  0  0  0  0  0  0  0  0
  1  2  1  0
  2  3  1  0
  3  4  1  0
  4  5  1  0
  5  6  1  0
  6  7  1  0
  4  8  1  0
  8  9  1  0
  9 10  1  0
 10 11  1  0
 11 12  1  0
 12 13  2  0
 12 14  1  0
 14 15  2  0
 15 16  1  0
 16 17  2  0
 17 18  1  0
 18 19  2  0
 18 20  1  0
 20 21  1  0
 21 22  1  0
 20 23  1  0
 23 24  2  0
 24 25  1  0
 25 26  2  0
 26 14  1  0
 25 17  1  0
  1 27  1  0
  1 28  1  0
  1 29  1  0
  2 30  1  0
  2 31  1  0
  3 32  1  0
  3 33  1  0
  5 34  1  0
  5 35  1  0
  6 36  1  0
  6 37  1  0
  7 38  1  0
  7 39  1  0
  7 40  1  0
  8 41  1  0
  8 42  1  0
  9 43  1  0
  9 44  1  0
 10 45  1  0
 10 46  1  0
 15 47  1  0
 16 48  1  0
 21 49  1  0
 21 50  1  0
 22 51  1  0
 22 52  1  0
 22 53  1  0
 23 54  1  0
 26 55  1  0
M  CHG  1  11  -1
M  END
>  <UniqueID>  (11) 
11

>  <SMILES>  (11) 
CCCN(CCC)CCC[N-]C(=O)c1ccc2c(=O)n(CC)cnc2c1

>  <Energy>  (11) 
53.03270639230812

>  <Genealogy>  (11) 
CCCN(CCC)CCC[N-]C(=O)c1ccc2c(=O)n(CC)cnc2c1 (protonated)
CCCN(CCC)CCC[N-]C(=O)c1ccc2c(=O)n(CC)cnc2c1 (3D coordinates assigned)
CCCN(CCC)CCC[N-]C(=O)c1ccc2c(=O)n(CC)cnc2c1 (optimized conformer: 53.03270639230812 kcal/mol)

>  <smiles>  (11) 
CCCN(CCC)CCCNC(=O)c1ccc2c(=O)n(CC)cnc2c1

>  <score_type>  (11) 
oracle

>  <origin>  (11) 
adg

>  <m_score__min__energy>  (11) 
-8.3900000000000006

>  <m_primary>  (11) 
energy

$$$$
11:0
     RDKit          3D

 50 52  0  0  0  0  0  0  0  0999 V2000
   59.6710   33.5960   50.3330 C   0  0  0  0  0  0  0  0  0  0  0  0
   60.2860   34.2760   49.2450 O   0  0  0  0  0  0  0  0  0  0  0  0
   61.4960   33.8870   48.6440 C   0  0  0  0  0  0  0  0  0  0  0  0
   62.5710   33.3810   49.4010 C   0  0  0  0  0  0  0  0  0  0  0  0
   63.7640   33.0160   48.7740 C   0  0  0  0  0  0  0  0  0  0  0  0
   63.9010   33.1500   47.3930 C   0  0  0  0  0  0  0  0  0  0  0  0
   62.8440   33.6490   46.6300 C   0  0  0  0  0  0  0  0  0  0  0  0
   61.6360   34.0170   47.2460 C   0  0  0  0  0  0  0  0  0  0  0  0
   60.5150   34.5970   46.4180 C   0  0  0  0  0  0  0  0  0  0  0  0
   59.6440   33.5170   45.9160 N   0  0  0  0  0  0  0  0  0  0  0  0
   58.8160   33.9730   44.7830 C   0  0  0  0  0  0  0  0  0  0  0  0
   58.0290   32.7890   44.1730 C   0  0  0  0  0  0  0  0  0  0  0  0
   58.0880   31.5910   45.0390 N   0  0  0  0  0  0  0  0  0  0  0  0
   57.1810   30.5620   44.5580 C   0  0  0  0  0  0  0  0  0  0  0  0
   55.9800   30.7990   44.4860 O   0  0  0  0  0  0  0  0  0  0  0  0
   57.6530   29.1910   44.1170 C   0  0  0  0  0  0  0  0  0  0  0  0
   58.9530   28.8490   44.6040 O   0  0  0  0  0  0  0  0  0  0  0  0
   59.4320   29.0890   45.9040 C   0  0  0  0  0  0  0  0  0  0  0  0
   60.5800   29.8780   46.0500 C   0  0  0  0  0  0  0  0  0  0  0  0
   61.0700   30.1940   47.3200 C   0  0  0  0  0  0  0  0  0  0  0  0
   60.4150   29.7200   48.4590 C   0  0  0  0  0  0  0  0  0  0  0  0
   61.0120   30.1410   50.0520 Cl  0  0  0  0  0  0  0  0  0  0  0  0
   59.2770   28.9150   48.3260 C   0  0  0  0  0  0  0  0  0  0  0  0
   58.7870   28.5940   47.0550 C   0  0  0  0  0  0  0  0  0  0  0  0
   57.7670   31.9510   46.4360 C   0  0  0  0  0  0  0  0  0  0  0  0
   58.7850   32.9710   46.9910 C   0  0  0  0  0  0  0  0  0  0  0  0
   60.0445   34.0089   51.2817 H   0  0  0  0  0  0  0  0  0  0  0  0
   58.5804   33.7291   50.2792 H   0  0  0  0  0  0  0  0  0  0  0  0
   59.9127   32.5242   50.2792 H   0  0  0  0  0  0  0  0  0  0  0  0
   62.4701   33.2730   50.4910 H   0  0  0  0  0  0  0  0  0  0  0  0
   64.5988   32.6213   49.3718 H   0  0  0  0  0  0  0  0  0  0  0  0
   64.8434   32.8621   46.9040 H   0  0  0  0  0  0  0  0  0  0  0  0
   62.9573   33.7547   45.5410 H   0  0  0  0  0  0  0  0  0  0  0  0
   59.9215   35.2838   47.0394 H   0  0  0  0  0  0  0  0  0  0  0  0
   60.9432   35.1408   45.5631 H   0  0  0  0  0  0  0  0  0  0  0  0
   58.1060   34.7347   45.1375 H   0  0  0  0  0  0  0  0  0  0  0  0
   59.4744   34.3970   44.0105 H   0  0  0  0  0  0  0  0  0  0  0  0
   56.9776   33.0867   44.0468 H   0  0  0  0  0  0  0  0  0  0  0  0
   58.4850   32.5358   43.2045 H   0  0  0  0  0  0  0  0  0  0  0  0
   59.0710   31.2390   45.0130 H   0  0  0  0  0  0  0  0  0  0  0  0
   56.9360   28.4418   44.4839 H   0  0  0  0  0  0  0  0  0  0  0  0
   57.7144   29.2089   43.0189 H   0  0  0  0  0  0  0  0  0  0  0  0
   61.1009   30.2525   45.1564 H   0  0  0  0  0  0  0  0  0  0  0  0
   61.9714   30.8160   47.4227 H   0  0  0  0  0  0  0  0  0  0  0  0
   58.7668   28.5339   49.2229 H   0  0  0  0  0  0  0  0  0  0  0  0
   57.8975   27.9547   46.9544 H   0  0  0  0  0  0  0  0  0  0  0  0
   56.7598   32.3917   46.4718 H   0  0  0  0  0  0  0  0  0  0  0  0
   57.8107   31.0407   47.0520 H   0  0  0  0  0  0  0  0  0  0  0  0
   58.2389   33.7984   47.4676 H   0  0  0  0  0  0  0  0  0  0  0  0
   59.4281   32.4563   47.7200 H   0  0  0  0  0  0  0  0  0  0  0  0
  1  2  1  0
  2  3  1  0
  3  4  2  0
  4  5  1  0
  5  6  2  0
  6  7  1  0
  7  8  2  0
  8  9  1  0
  9 10  1  0
 10 11  1  0
 11 12  1  0
 12 13  1  0
 13 14  1  0
 14 15  2  0
 14 16  1  0
 16 17  1  0
 17 18  1  0
 18 19  2  0
 19 20  1  0
 20 21  2  0
 21 22  1  0
 21 23  1  0
 23 24  2  0
 13 25  1  0
 25 26  1  0
  8  3  1  0
 26 10  1  0
 24 18  1  0
  1 27  1  0
  1 28  1  0
  1 29  1  0
  4 30  1  0
  5 31  1  0
  6 32  1  0
  7 33  1  0
  9 34  1  0
  9 35  1  0
 11 36  1  0
 11 37  1  0
 12 38  1  0
 12 39  1  0
 13 40  1  0
 16 41  1  0
 16 42  1  0
 19 43  1  0
 20 44  1  0
 23 45  1  0
 24 46  1  0
 25 47  1  0
 25 48  1  0
 26 49  1  0
 26 50  1  0
M  CHG  1  13   1
M  END
>  <UniqueID>  (12) 
12

>  <SMILES>  (12) 
COc1ccccc1CN1CC[NH+](C(=O)COc2ccc(Cl)cc2)CC1

>  <Energy>  (12) 
58.20987367577317

>  <Genealogy>  (12) 
COc1ccccc1CN1CC[NH+](C(=O)COc2ccc(Cl)cc2)CC1 (protonated)
COc1ccccc1CN1CC[NH+](C(=O)COc2ccc(Cl)cc2)CC1 (3D coordinates assigned)
COc1ccccc1CN1CC[NH+](C(=O)COc2ccc(Cl)cc2)CC1 (nonaromatic ring conformer: 58.20987367577317 kcal/mol)

>  <smiles>  (12) 
COc1ccccc1CN1CCN(C(=O)COc2ccc(Cl)cc2)CC1

>  <score_type>  (12) 
oracle

>  <origin>  (12) 
adg

>  <m_score__min__energy>  (12) 
-6.0099999999999998

>  <m_primary>  (12) 
energy

$$$$
12:0
     RDKit          3D

 62 66  0  0  0  0  0  0  0  0999 V2000
   59.2610   33.8170   51.7010 C   0  0  0  0  0  0  0  0  0  0  0  0
   60.6760   33.5140   51.1880 C   0  0  0  0  0  0  0  0  0  0  0  0
   60.8390   33.5850   49.7120 N   0  0  0  0  0  0  0  0  0  0  0  0
   59.6890   34.2070   49.0130 C   0  0  0  0  0  0  0  0  0  0  0  0
   60.0340   34.6320   47.5850 C   0  0  0  0  0  0  0  0  0  0  0  0
   62.1110   34.2130   49.2800 C   0  0  0  0  0  0  0  0  0  0  0  0
   63.2780   33.2110   49.2400 C   0  0  0  0  0  0  0  0  0  0  0  0
   63.1070   32.0510   47.8960 S   0  0  0  0  0  0  0  0  0  0  0  0
   63.7260   32.6660   46.4610 O   0  0  0  0  0  0  0  0  0  0  0  0
   61.4440   31.5520   47.6920 C   0  0  0  0  0  0  0  0  0  0  0  0
   60.8030   31.8010   46.5230 N   0  0  0  0  0  0  0  0  0  0  0  0
   59.5150   31.4110   46.3320 C   0  0  0  0  0  0  0  0  0  0  0  0
   58.8520   31.6990   45.0510 C   0  0  0  0  0  0  0  0  0  0  0  0
   58.2110   30.7630   44.3200 N   0  0  0  0  0  0  0  0  0  0  0  0
   57.7680   31.4540   43.2520 C   0  0  0  0  0  0  0  0  0  0  0  0
   58.1510   32.7680   43.3720 C   0  0  0  0  0  0  0  0  0  0  0  0
   58.8180   32.8880   44.4920 O   0  0  0  0  0  0  0  0  0  0  0  0
   58.8380   30.7400   47.3580 C   0  0  0  0  0  0  0  0  0  0  0  0
   59.5120   30.4910   48.5690 C   0  0  0  0  0  0  0  0  0  0  0  0
   58.8920   29.7750   49.7520 C   0  0  1  0  0  0  0  0  0  0  0  0
   59.7600   29.6160   50.9970 C   0  0  0  0  0  0  0  0  0  0  0  0
   58.6030   30.6150   50.9960 C   0  0  2  0  0  0  0  0  0  0  0  0
   57.4410   30.1850   51.8430 C   0  0  0  0  0  0  0  0  0  0  0  0
   56.1610   30.5810   51.6590 N   0  0  0  0  0  0  0  0  0  0  0  0
   55.3050   30.0130   52.5530 C   0  0  0  0  0  0  0  0  0  0  0  0
   53.8470   30.3040   52.5200 C   0  0  0  0  0  0  0  0  0  0  0  0
   53.0140   30.0260   53.6220 C   0  0  0  0  0  0  0  0  0  0  0  0
   51.6450   30.3090   53.5660 C   0  0  0  0  0  0  0  0  0  0  0  0
   51.0920   30.8710   52.4140 C   0  0  0  0  0  0  0  0  0  0  0  0
   51.9060   31.1560   51.3170 C   0  0  0  0  0  0  0  0  0  0  0  0
   53.2750   30.8780   51.3680 C   0  0  0  0  0  0  0  0  0  0  0  0
   55.9160   29.1420   53.4620 C   0  0  0  0  0  0  0  0  0  0  0  0
   57.5610   29.1000   53.1160 S   0  0  0  0  0  0  0  0  0  0  0  0
   60.8020   30.9060   48.6970 N   0  0  0  0  0  0  0  0  0  0  0  0
   59.2619   33.8168   52.8010 H   0  0  0  0  0  0  0  0  0  0  0  0
   58.9417   34.8039   51.3348 H   0  0  0  0  0  0  0  0  0  0  0  0
   58.5656   33.0474   51.3348 H   0  0  0  0  0  0  0  0  0  0  0  0
   61.3663   34.2399   51.6426 H   0  0  0  0  0  0  0  0  0  0  0  0
   60.8883   32.4723   51.4705 H   0  0  0  0  0  0  0  0  0  0  0  0
   58.8637   33.4807   48.9756 H   0  0  0  0  0  0  0  0  0  0  0  0
   59.4061   35.1109   49.5724 H   0  0  0  0  0  0  0  0  0  0  0  0
   60.7270   35.4857   47.6138 H   0  0  0  0  0  0  0  0  0  0  0  0
   60.5089   33.7919   47.0570 H   0  0  0  0  0  0  0  0  0  0  0  0
   59.1142   34.9240   47.0570 H   0  0  0  0  0  0  0  0  0  0  0  0
   61.9727   34.6340   48.2732 H   0  0  0  0  0  0  0  0  0  0  0  0
   62.3648   34.9932   50.0128 H   0  0  0  0  0  0  0  0  0  0  0  0
   64.2197   33.7655   49.1144 H   0  0  0  0  0  0  0  0  0  0  0  0
   63.2761   32.6451   50.1833 H   0  0  0  0  0  0  0  0  0  0  0  0
   64.6550   32.3220   46.4270 H   0  0  0  0  0  0  0  0  0  0  0  0
   57.1907   31.0328   42.4158 H   0  0  0  0  0  0  0  0  0  0  0  0
   57.9358   33.5745   42.6555 H   0  0  0  0  0  0  0  0  0  0  0  0
   57.7969   30.4129   47.2201 H   0  0  0  0  0  0  0  0  0  0  0  0
   58.3050   29.0921   49.1203 H   0  0  0  0  0  0  0  0  0  0  0  0
   59.6936   28.6984   51.6000 H   0  0  0  0  0  0  0  0  0  0  0  0
   60.8384   29.6755   51.2057 H   0  0  0  0  0  0  0  0  0  0  0  0
   58.4787   31.6930   51.1761 H   0  0  0  0  0  0  0  0  0  0  0  0
   53.4432   29.5833   54.5329 H   0  0  0  0  0  0  0  0  0  0  0  0
   51.0030   30.0882   54.4315 H   0  0  0  0  0  0  0  0  0  0  0  0
   50.0147   31.0892   52.3710 H   0  0  0  0  0  0  0  0  0  0  0  0
   51.4695   31.6003   50.4103 H   0  0  0  0  0  0  0  0  0  0  0  0
   53.9111   31.1095   50.5009 H   0  0  0  0  0  0  0  0  0  0  0  0
   55.4092   28.5830   54.2624 H   0  0  0  0  0  0  0  0  0  0  0  0
  1  2  1  0
  2  3  1  0
  3  4  1  0
  4  5  1  0
  3  6  1  0
  6  7  1  0
  7  8  1  0
  8  9  1  6
  8 10  1  0
 10 11  2  0
 11 12  1  0
 12 13  1  0
 13 14  2  0
 14 15  1  0
 15 16  2  0
 16 17  1  0
 12 18  2  0
 18 19  1  0
 19 20  1  0
 20 21  1  0
 21 22  1  0
 22 23  1  0
 23 24  2  0
 24 25  1  0
 25 26  1  0
 26 27  2  0
 27 28  1  0
 28 29  2  0
 29 30  1  0
 30 31  2  0
 25 32  2  0
 32 33  1  0
 19 34  2  0
 34 10  1  0
 17 13  1  0
 22 20  1  0
 33 23  1  0
 31 26  1  0
  1 35  1  0
  1 36  1  0
  1 37  1  0
  2 38  1  0
  2 39  1  0
  4 40  1  0
  4 41  1  0
  5 42  1  0
  5 43  1  0
  5 44  1  0
  6 45  1  0
  6 46  1  0
  7 47  1  0
  7 48  1  0
  9 49  1  0
 15 50  1  0
 16 51  1  0
 18 52  1  0
 20 53  1  6
 21 54  1  0
 21 55  1  0
 22 56  1  6
 27 57  1  0
 28 58  1  0
 29 59  1  0
 30 60  1  0
 31 61  1  0
 32 62  1  0
M  CHG  1   8   1
M  END
>  <UniqueID>  (13) 
13

>  <SMILES>  (13) 
CCN(CC)CC[S@+](O)c1nc(-c2ncco2)cc([C@H]2CC2c2nc(-c3ccccc3)cs2)n1

>  <Energy>  (13) 
396.10331041780915

>  <Genealogy>  (13) 
CCN(CC)CC[S+](O)c1nc(-c2ncco2)cc(C2CC2c2nc(-c3ccccc3)cs2)n1 (protonated)
CCN(CC)CC[S@+](O)c1nc(-c2ncco2)cc([C@H]2CC2c2nc(-c3ccccc3)cs2)n1 (chirality)
CCN(CC)CC[S@+](O)c1nc(-c2ncco2)cc([C@H]2CC2c2nc(-c3ccccc3)cs2)n1 (3D coordinates assigned)
CCN(CC)CC[S@+](O)c1nc(-c2ncco2)cc([C@H]2CC2c2nc(-c3ccccc3)cs2)n1 (nonaromatic ring conformer: 396.10331041780915 kcal/mol)

>  <smiles>  (13) 
CCN(CC)CC[S+]([O-])c1nc(-c2ncco2)cc(C2CC2c2nc(-c3ccccc3)cs2)n1

>  <score_type>  (13) 
oracle

>  <origin>  (13) 
adg

>  <m_score__min__energy>  (13) 
-7.8399999999999999

>  <m_primary>  (13) 
energy

$$$$
13:0
     RDKit          3D

 61 63  0  0  0  0  0  0  0  0999 V2000
   57.3850   24.8480   43.9200 C   0  0  0  0  0  0  0  0  0  0  0  0
   57.0580   25.1340   45.3850 C   0  0  0  0  0  0  0  0  0  0  0  0
   57.3590   26.5380   45.7590 N   0  0  0  0  0  0  0  0  0  0  0  0
   57.9200   26.5930   47.1280 C   0  0  0  0  0  0  0  0  0  0  0  0
   59.4250   26.8650   47.1180 C   0  0  0  0  0  0  0  0  0  0  0  0
   58.2910   27.1750   44.7880 C   0  0  0  0  0  0  0  0  0  0  0  0
   57.7930   28.5640   44.3580 C   0  0  0  0  0  0  0  0  0  0  0  0
   58.8750   29.6550   44.3910 C   0  0  0  0  0  0  0  0  0  0  0  0
   58.6770   30.6150   45.4920 N   0  0  0  0  0  0  0  0  0  0  0  0
   57.8260   31.7690   45.2900 C   0  0  0  0  0  0  0  0  0  0  0  0
   56.6630   31.6110   44.8260 O   0  0  0  0  0  0  0  0  0  0  0  0
   58.3000   33.1670   45.6180 C   0  0  0  0  0  0  0  0  0  0  0  0
   58.2260   33.4850   47.1170 C   0  0  0  0  0  0  0  0  0  0  0  0
   59.6050   33.4940   47.7240 C   0  0  0  0  0  0  0  0  0  0  0  0
   60.7200   33.6610   46.8880 C   0  0  0  0  0  0  0  0  0  0  0  0
   62.0100   33.6480   47.4180 C   0  0  0  0  0  0  0  0  0  0  0  0
   63.3920   33.8680   46.3620 Cl  0  0  0  0  0  0  0  0  0  0  0  0
   62.2000   33.4580   48.7880 C   0  0  0  0  0  0  0  0  0  0  0  0
   61.1020   33.2710   49.6290 C   0  0  0  0  0  0  0  0  0  0  0  0
   59.7940   33.2790   49.1060 C   0  0  0  0  0  0  0  0  0  0  0  0
   58.6700   33.0770   49.9240 O   0  0  0  0  0  0  0  0  0  0  0  0
   58.7020   33.0350   51.3480 C   0  0  0  0  0  0  0  0  0  0  0  0
   59.2550   30.3320   46.7820 C   0  0  0  0  0  0  0  0  0  0  0  0
   58.5150   30.1430   47.9040 N   0  0  0  0  0  0  0  0  0  0  0  0
   59.3100   29.9480   48.9860 C   0  0  0  0  0  0  0  0  0  0  0  0
   58.8390   29.7360   50.2810 C   0  0  0  0  0  0  0  0  0  0  0  0
   59.7720   29.5720   51.3230 C   0  0  0  0  0  0  0  0  0  0  0  0
   59.2110   29.3080   52.9640 Cl  0  0  0  0  0  0  0  0  0  0  0  0
   61.1560   29.6250   51.0550 C   0  0  0  0  0  0  0  0  0  0  0  0
   61.6170   29.8340   49.7460 C   0  0  0  0  0  0  0  0  0  0  0  0
   60.6740   29.9850   48.7330 C   0  0  0  0  0  0  0  0  0  0  0  0
   60.9230   30.2650   47.0990 S   0  0  0  0  0  0  0  0  0  0  0  0
   58.2119   24.1248   43.8633 H   0  0  0  0  0  0  0  0  0  0  0  0
   56.4980   24.4306   43.4210 H   0  0  0  0  0  0  0  0  0  0  0  0
   57.6805   25.7827   43.4210 H   0  0  0  0  0  0  0  0  0  0  0  0
   55.9878   24.9434   45.5535 H   0  0  0  0  0  0  0  0  0  0  0  0
   57.6827   24.4759   46.0068 H   0  0  0  0  0  0  0  0  0  0  0  0
   57.4172   27.3966   47.6862 H   0  0  0  0  0  0  0  0  0  0  0  0
   57.7538   25.6152   47.6037 H   0  0  0  0  0  0  0  0  0  0  0  0
   59.7925   26.9314   48.1527 H   0  0  0  0  0  0  0  0  0  0  0  0
   59.9422   26.0458   46.5971 H   0  0  0  0  0  0  0  0  0  0  0  0
   59.6227   27.8134   46.5971 H   0  0  0  0  0  0  0  0  0  0  0  0
   59.2802   27.2795   45.2577 H   0  0  0  0  0  0  0  0  0  0  0  0
   58.3477   26.5365   43.8941 H   0  0  0  0  0  0  0  0  0  0  0  0
   57.4077   28.4902   43.3303 H   0  0  0  0  0  0  0  0  0  0  0  0
   57.0191   28.8619   45.0808 H   0  0  0  0  0  0  0  0  0  0  0  0
   59.8567   29.1743   44.5147 H   0  0  0  0  0  0  0  0  0  0  0  0
   58.8140   30.2142   43.4457 H   0  0  0  0  0  0  0  0  0  0  0  0
   59.3443   33.2701   45.2883 H   0  0  0  0  0  0  0  0  0  0  0  0
   57.6354   33.8721   45.0973 H   0  0  0  0  0  0  0  0  0  0  0  0
   57.7635   34.4735   47.2548 H   0  0  0  0  0  0  0  0  0  0  0  0
   57.6234   32.7112   47.6152 H   0  0  0  0  0  0  0  0  0  0  0  0
   60.5754   33.8032   45.8069 H   0  0  0  0  0  0  0  0  0  0  0  0
   63.2176   33.4557   49.2056 H   0  0  0  0  0  0  0  0  0  0  0  0
   61.2589   33.1164   50.7067 H   0  0  0  0  0  0  0  0  0  0  0  0
   58.0821   33.8485   51.7528 H   0  0  0  0  0  0  0  0  0  0  0  0
   58.3099   32.0677   51.6952 H   0  0  0  0  0  0  0  0  0  0  0  0
   59.7387   33.1563   51.6952 H   0  0  0  0  0  0  0  0  0  0  0  0
   57.7588   29.6976   50.4850 H   0  0  0  0  0  0  0  0  0  0  0  0
   61.8775   29.5019   51.8761 H   0  0  0  0  0  0  0  0  0  0  0  0
   62.6940   29.8773   49.5264 H   0  0  0  0  0  0  0  0  0  0  0  0
  1  2  1  0
  2  3  1  0
  3  4  1  0
  4  5  1  0
  3  6  1  0
  6  7  1  0
  7  8  1  0
  8  9  1  0
  9 10  1  0
 10 11  2  0
 10 12  1  0
 12 13  1  0
 13 14  1  0
 14 15  2  0
 15 16  1  0
 16 17  1  0
 16 18  2  0
 18 19  1  0
 19 20  2  0
 20 21  1  0
 21 22  1  0
  9 23  1  0
 23 24  2  0
 24 25  1  0
 25 26  2  0
 26 27  1  0
 27 28  1  0
 27 29  2  0
 29 30  1  0
 30 31  2  0
 31 32  1  0
 20 14  1  0
 32 23  1  0
 31 25  1  0
  1 33  1  0
  1 34  1  0
  1 35  1  0
  2 36  1  0
  2 37  1  0
  4 38  1  0
  4 39  1  0
  5 40  1  0
  5 41  1  0
  5 42  1  0
  6 43  1  0
  6 44  1  0
  7 45  1  0
  7 46  1  0
  8 47  1  0
  8 48  1  0
 12 49  1  0
 12 50  1  0
 13 51  1  0
 13 52  1  0
 15 53  1  0
 18 54  1  0
 19 55  1  0
 22 56  1  0
 22 57  1  0
 22 58  1  0
 26 59  1  0
 29 60  1  0
 30 61  1  0
M  END
>  <UniqueID>  (14) 
14

>  <SMILES>  (14) 
CCN(CC)CCCN(C(=O)CCc1cc(Cl)ccc1OC)c1nc2cc(Cl)ccc2s1

>  <Energy>  (14) 
93.86617832245213

>  <Genealogy>  (14) 
CCN(CC)CCCN(C(=O)CCc1cc(Cl)ccc1OC)c1nc2cc(Cl)ccc2s1 (3D coordinates assigned)
CCN(CC)CCCN(C(=O)CCc1cc(Cl)ccc1OC)c1nc2cc(Cl)ccc2s1 (optimized conformer: 93.86617832245213 kcal/mol)

>  <smiles>  (14) 
CCN(CC)CCCN(C(=O)CCc1cc(Cl)ccc1OC)c1nc2cc(Cl)ccc2s1

>  <score_type>  (14) 
oracle

>  <origin>  (14) 
adg

>  <m_score__min__energy>  (14) 
-7.6699999999999999

>  <m_primary>  (14) 
energy

$$$$
14:0
     RDKit          3D

 44 45  0  0  0  0  0  0  0  0999 V2000
   54.7810   23.6590   43.9460 C   0  0  0  0  0  0  0  0  0  0  0  0
   55.8650   22.9790   43.1090 C   0  0  0  0  0  0  0  0  0  0  0  0
   56.2850   21.6760   43.6780 N   0  0  0  0  0  0  0  0  0  0  0  0
   55.5760   21.4230   44.9550 C   0  0  0  0  0  0  0  0  0  0  0  0
   55.5220   19.9360   45.3080 C   0  0  0  0  0  0  0  0  0  0  0  0
   57.7610   21.5000   43.7600 C   0  0  0  0  0  0  0  0  0  0  0  0
   58.3700   21.7660   45.1460 C   0  0  0  0  0  0  0  0  0  0  0  0
   58.3460   23.1670   45.4010 O   0  0  0  0  0  0  0  0  0  0  0  0
   57.4900   23.7490   46.3410 C   0  0  0  0  0  0  0  0  0  0  0  0
   57.1490   23.1170   47.3780 O   0  0  0  0  0  0  0  0  0  0  0  0
   56.9830   25.1070   46.1160 C   0  0  0  0  0  0  0  0  0  0  0  0
   57.7230   26.1880   45.6860 C   0  0  0  0  0  0  0  0  0  0  0  0
   56.7960   27.2150   45.6360 C   0  0  0  0  0  0  0  0  0  0  0  0
   57.0310   28.6220   45.2370 C   0  0  0  0  0  0  0  0  0  0  0  0
   56.1010   29.3280   44.4540 C   0  0  0  0  0  0  0  0  0  0  0  0
   56.3440   30.6560   44.0910 C   0  0  0  0  0  0  0  0  0  0  0  0
   57.5250   31.2960   44.4930 C   0  0  0  0  0  0  0  0  0  0  0  0
   57.7660   32.7330   44.1360 C   0  0  0  0  0  0  0  0  0  0  0  0
   58.4470   30.6010   45.2890 C   0  0  0  0  0  0  0  0  0  0  0  0
   58.2050   29.2740   45.6530 C   0  0  0  0  0  0  0  0  0  0  0  0
   55.6290   26.7410   46.0100 O   0  0  0  0  0  0  0  0  0  0  0  0
   55.7020   25.4750   46.3060 N   0  0  0  0  0  0  0  0  0  0  0  0
   55.0020   23.5204   45.0146 H   0  0  0  0  0  0  0  0  0  0  0  0
   54.7579   24.7337   43.7128 H   0  0  0  0  0  0  0  0  0  0  0  0
   53.8033   23.2121   43.7128 H   0  0  0  0  0  0  0  0  0  0  0  0
   55.4748   22.8119   42.0942 H   0  0  0  0  0  0  0  0  0  0  0  0
   56.7445   23.6395   43.0992 H   0  0  0  0  0  0  0  0  0  0  0  0
   56.0987   21.9586   45.7612 H   0  0  0  0  0  0  0  0  0  0  0  0
   54.5412   21.7778   44.8397 H   0  0  0  0  0  0  0  0  0  0  0  0
   55.5177   19.8187   46.4017 H   0  0  0  0  0  0  0  0  0  0  0  0
   54.6072   19.4924   44.8881 H   0  0  0  0  0  0  0  0  0  0  0  0
   56.4023   19.4273   44.8881 H   0  0  0  0  0  0  0  0  0  0  0  0
   57.9976   20.4639   43.4763 H   0  0  0  0  0  0  0  0  0  0  0  0
   58.1983   22.2484   43.0828 H   0  0  0  0  0  0  0  0  0  0  0  0
   57.7828   21.2411   45.9139 H   0  0  0  0  0  0  0  0  0  0  0  0
   59.4072   21.4007   45.1729 H   0  0  0  0  0  0  0  0  0  0  0  0
   58.7947   26.2255   45.4410 H   0  0  0  0  0  0  0  0  0  0  0  0
   55.1759   28.8322   44.1248 H   0  0  0  0  0  0  0  0  0  0  0  0
   55.6046   31.2019   43.4866 H   0  0  0  0  0  0  0  0  0  0  0  0
   57.8657   33.3276   45.0560 H   0  0  0  0  0  0  0  0  0  0  0  0
   58.6903   32.8140   43.5451 H   0  0  0  0  0  0  0  0  0  0  0  0
   56.9187   33.1111   43.5451 H   0  0  0  0  0  0  0  0  0  0  0  0
   59.3650   31.1030   45.6284 H   0  0  0  0  0  0  0  0  0  0  0  0
   58.9390   28.7350   46.2701 H   0  0  0  0  0  0  0  0  0  0  0  0
  1  2  1  0
  2  3  1  0
  3  4  1  0
  4  5  1  0
  3  6  1  0
  6  7  1  0
  7  8  1  0
  8  9  1  0
  9 10  2  0
  9 11  1  0
 11 12  1  0
 12 13  2  0
 13 14  1  0
 14 15  2  0
 15 16  1  0
 16 17  2  0
 17 18  1  0
 17 19  1  0
 19 20  2  0
 13 21  1  0
 21 22  1  0
 22 11  2  0
 20 14  1  0
  1 23  1  0
  1 24  1  0
  1 25  1  0
  2 26  1  0
  2 27  1  0
  4 28  1  0
  4 29  1  0
  5 30  1  0
  5 31  1  0
  5 32  1  0
  6 33  1  0
  6 34  1  0
  7 35  1  0
  7 36  1  0
 12 37  1  0
 15 38  1  0
 16 39  1  0
 18 40  1  0
 18 41  1  0
 18 42  1  0
 19 43  1  0
 20 44  1  0
M  END
>  <UniqueID>  (15) 
15

>  <SMILES>  (15) 
CCN(CC)CCOC(=O)c1cc(-c2ccc(C)cc2)on1

>  <Energy>  (15) 
72.50507633517122

>  <Genealogy>  (15) 
CCN(CC)CCOC(=O)c1cc(-c2ccc(C)cc2)on1 (3D coordinates assigned)
CCN(CC)CCOC(=O)c1cc(-c2ccc(C)cc2)on1 (optimized conformer: 72.50507633517122 kcal/mol)

>  <smiles>  (15) 
CCN(CC)CCOC(=O)c1cc(-c2ccc(C)cc2)on1

>  <score_type>  (15) 
oracle

>  <origin>  (15) 
adg

>  <m_score__min__energy>  (15) 
-6.8899999999999997

>  <m_primary>  (15) 
energy

$$$$
15:0
     RDKit          3D

 35 36  0  0  0  0  0  0  0  0999 V2000
   64.3580   33.0280   49.0400 C   0  0  0  0  0  0  0  0  0  0  0  0
   64.1230   32.2170   47.8430 N   0  0  0  0  0  0  0  0  0  0  0  0
   62.6810   32.0580   47.5970 C   0  0  0  0  0  0  0  0  0  0  0  0
   61.9270   33.3950   47.7010 C   0  0  0  0  0  0  0  0  0  0  0  0
   61.3090   33.8580   46.3630 C   0  0  0  0  0  0  0  0  0  0  0  0
   60.1880   34.8980   46.5390 C   0  0  0  0  0  0  0  0  0  0  0  0
   58.8570   34.2540   46.9490 C   0  0  0  0  0  0  0  0  0  0  0  0
   58.3620   33.3340   45.8660 C   0  0  0  0  0  0  0  0  0  0  0  0
   58.5340   33.6850   44.5010 C   0  0  0  0  0  0  0  0  0  0  0  0
   58.1080   32.8170   43.4790 C   0  0  0  0  0  0  0  0  0  0  0  0
   57.5260   31.6100   43.8560 C   0  0  0  0  0  0  0  0  0  0  0  0
   57.0580   30.6400   43.0590 N   0  0  0  0  0  0  0  0  0  0  0  0
   56.6210   29.7100   43.9480 C   0  0  0  0  0  0  0  0  0  0  0  0
   56.7950   30.0540   45.2510 N   0  0  0  0  0  0  0  0  0  0  0  0
   57.3700   31.2620   45.1600 C   0  0  0  0  0  0  0  0  0  0  0  0
   57.7780   32.0920   46.2010 C   0  0  0  0  0  0  0  0  0  0  0  0
   64.1810   32.4170   49.9374 H   0  0  0  0  0  0  0  0  0  0  0  0
   65.3974   33.3880   49.0407 H   0  0  0  0  0  0  0  0  0  0  0  0
   63.6721   33.8880   49.0407 H   0  0  0  0  0  0  0  0  0  0  0  0
   64.5610   31.2800   47.9960 H   0  0  0  0  0  0  0  0  0  0  0  0
   64.5760   32.6890   47.0260 H   0  0  0  0  0  0  0  0  0  0  0  0
   62.5364   31.6465   46.5872 H   0  0  0  0  0  0  0  0  0  0  0  0
   62.2784   31.3806   48.3645 H   0  0  0  0  0  0  0  0  0  0  0  0
   61.1182   33.2825   48.4380 H   0  0  0  0  0  0  0  0  0  0  0  0
   62.6603   34.1582   48.0007 H   0  0  0  0  0  0  0  0  0  0  0  0
   62.1040   34.3023   45.7462 H   0  0  0  0  0  0  0  0  0  0  0  0
   60.8614   32.9732   45.8868 H   0  0  0  0  0  0  0  0  0  0  0  0
   60.4891   35.6147   47.3173 H   0  0  0  0  0  0  0  0  0  0  0  0
   60.0366   35.3975   45.5707 H   0  0  0  0  0  0  0  0  0  0  0  0
   59.0033   33.6780   47.8746 H   0  0  0  0  0  0  0  0  0  0  0  0
   58.1123   35.0473   47.1103 H   0  0  0  0  0  0  0  0  0  0  0  0
   59.0047   34.6444   44.2402 H   0  0  0  0  0  0  0  0  0  0  0  0
   58.2306   33.0829   42.4187 H   0  0  0  0  0  0  0  0  0  0  0  0
   56.1645   28.7582   43.6388 H   0  0  0  0  0  0  0  0  0  0  0  0
   57.6496   31.7902   47.2510 H   0  0  0  0  0  0  0  0  0  0  0  0
  1  2  1  0
  2  3  1  0
  3  4  1  0
  4  5  1  0
  5  6  1  0
  6  7  1  0
  7  8  1  0
  8  9  2  0
  9 10  1  0
 10 11  2  0
 11 12  1  0
 12 13  1  0
 13 14  2  0
 14 15  1  0
 15 16  2  0
 16  8  1  0
 15 11  1  0
  1 17  1  0
  1 18  1  0
  1 19  1  0
  2 20  1  0
  2 21  1  0
  3 22  1  0
  3 23  1  0
  4 24  1  0
  4 25  1  0
  5 26  1  0
  5 27  1  0
  6 28  1  0
  6 29  1  0
  7 30  1  0
  7 31  1  0
  9 32  1  0
 10 33  1  0
 13 34  1  0
 16 35  1  0
M  CHG  2   2   1  12  -1
M  END
>  <UniqueID>  (16) 
16

>  <SMILES>  (16) 
C[NH2+]CCCCCc1ccc2[n-]cnc2c1

>  <Energy>  (16) 
63.101429215212576

>  <Genealogy>  (16) 
C[NH2+]CCCCCc1ccc2[n-]cnc2c1 (protonated)
C[NH2+]CCCCCc1ccc2[n-]cnc2c1 (3D coordinates assigned)
C[NH2+]CCCCCc1ccc2[n-]cnc2c1 (optimized conformer: 63.101429215212576 kcal/mol)

>  <smiles>  (16) 
CNCCCCCc1ccc2[nH]cnc2c1

>  <score_type>  (16) 
oracle

>  <origin>  (16) 
adg

>  <m_score__min__energy>  (16) 
-6.5

>  <m_primary>  (16) 
energy

$$$$
16:0
     RDKit          3D

 69 72  0  0  0  0  0  0  0  0999 V2000
   51.5820   23.8870   44.8460 C   0  0  0  0  0  0  0  0  0  0  0  0
   52.3530   22.8290   45.6290 C   0  0  0  0  0  0  0  0  0  0  0  0
   53.6530   22.6340   45.0710 O   0  0  0  0  0  0  0  0  0  0  0  0
   54.6910   23.5820   45.0620 C   0  0  0  0  0  0  0  0  0  0  0  0
   54.7490   24.6430   45.9870 C   0  0  0  0  0  0  0  0  0  0  0  0
   55.8160   25.5420   45.9640 C   0  0  0  0  0  0  0  0  0  0  0  0
   56.8400   25.3930   45.0240 C   0  0  0  0  0  0  0  0  0  0  0  0
   57.9780   26.2620   45.0350 N   0  0  0  0  0  0  0  0  0  0  0  0
   57.9220   27.6630   45.3350 C   0  0  0  0  0  0  0  0  0  0  0  0
   58.9310   28.2170   45.8450 O   0  0  0  0  0  0  0  0  0  0  0  0
   56.6640   28.4680   45.1330 C   0  0  0  0  0  0  0  0  0  0  0  0
   56.9710   29.7490   44.4810 N   0  0  0  0  0  0  0  0  0  0  0  0
   57.4620   30.7340   45.2400 N   0  0  0  0  0  0  0  0  0  0  0  0
   57.7540   31.9720   44.7560 C   0  0  0  0  0  0  0  0  0  0  0  0
   58.2800   32.9900   45.6440 N   0  0  0  0  0  0  0  0  0  0  0  0
   57.7570   33.1320   47.0150 C   0  0  0  0  0  0  0  0  0  0  0  0
   58.9160   33.1380   48.0180 C   0  0  0  0  0  0  0  0  0  0  0  0
   60.0140   34.0010   47.5610 N   0  0  0  0  0  0  0  0  0  0  0  0
   61.2950   33.9110   48.2070 C   0  0  0  0  0  0  0  0  0  0  0  0
   62.4510   33.7220   47.4320 C   0  0  0  0  0  0  0  0  0  0  0  0
   63.6990   33.5940   48.0430 C   0  0  0  0  0  0  0  0  0  0  0  0
   63.8050   33.6550   49.4330 C   0  0  0  0  0  0  0  0  0  0  0  0
   62.6650   33.8520   50.2160 C   0  0  0  0  0  0  0  0  0  0  0  0
   61.3980   33.9870   49.6110 C   0  0  0  0  0  0  0  0  0  0  0  0
   60.2350   34.2150   50.3630 O   0  0  0  0  0  0  0  0  0  0  0  0
   59.8500   33.4520   51.5030 C   0  0  0  0  0  0  0  0  0  0  0  0
   59.8590   34.7940   46.3360 C   0  0  0  0  0  0  0  0  0  0  0  0
   59.3550   33.8980   45.1970 C   0  0  0  0  0  0  0  0  0  0  0  0
   57.5280   32.2210   43.3920 C   0  0  0  0  0  0  0  0  0  0  0  0
   57.0390   31.2020   42.5840 C   0  0  0  0  0  0  0  0  0  0  0  0
   56.7710   29.9520   43.1400 C   0  0  0  0  0  0  0  0  0  0  0  0
   56.3420   29.0270   42.3970 O   0  0  0  0  0  0  0  0  0  0  0  0
   56.7620   24.3750   44.0680 C   0  0  0  0  0  0  0  0  0  0  0  0
   55.6930   23.4560   44.0880 C   0  0  0  0  0  0  0  0  0  0  0  0
   55.5970   22.3920   43.1740 O   0  0  0  0  0  0  0  0  0  0  0  0
   56.6910   21.6270   42.6690 C   0  0  0  0  0  0  0  0  0  0  0  0
   57.7630   21.4460   43.7370 C   0  0  0  0  0  0  0  0  0  0  0  0
   51.0832   24.5715   45.5478 H   0  0  0  0  0  0  0  0  0  0  0  0
   52.2793   24.4552   44.2128 H   0  0  0  0  0  0  0  0  0  0  0  0
   50.8276   23.3972   44.2128 H   0  0  0  0  0  0  0  0  0  0  0  0
   52.4543   23.1562   46.6743 H   0  0  0  0  0  0  0  0  0  0  0  0
   51.8005   21.8792   45.5776 H   0  0  0  0  0  0  0  0  0  0  0  0
   53.9485   24.7635   46.7318 H   0  0  0  0  0  0  0  0  0  0  0  0
   55.8515   26.3700   46.6873 H   0  0  0  0  0  0  0  0  0  0  0  0
   55.9672   27.8980   44.5008 H   0  0  0  0  0  0  0  0  0  0  0  0
   56.2089   28.6686   46.1142 H   0  0  0  0  0  0  0  0  0  0  0  0
   57.1993   34.0766   47.0965 H   0  0  0  0  0  0  0  0  0  0  0  0
   57.0902   32.2859   47.2375 H   0  0  0  0  0  0  0  0  0  0  0  0
   58.5493   33.5078   48.9869 H   0  0  0  0  0  0  0  0  0  0  0  0
   59.2983   32.1109   48.1124 H   0  0  0  0  0  0  0  0  0  0  0  0
   62.3720   33.6746   46.3359 H   0  0  0  0  0  0  0  0  0  0  0  0
   64.5993   33.4450   47.4288 H   0  0  0  0  0  0  0  0  0  0  0  0
   64.7887   33.5477   49.9134 H   0  0  0  0  0  0  0  0  0  0  0  0
   62.7560   33.9022   51.3111 H   0  0  0  0  0  0  0  0  0  0  0  0
   60.1247   33.9965   52.4185 H   0  0  0  0  0  0  0  0  0  0  0  0
   58.7622   33.2898   51.4853 H   0  0  0  0  0  0  0  0  0  0  0  0
   60.3659   32.4806   51.4853 H   0  0  0  0  0  0  0  0  0  0  0  0
   59.1338   35.6019   46.5133 H   0  0  0  0  0  0  0  0  0  0  0  0
   60.8320   35.2241   46.0563 H   0  0  0  0  0  0  0  0  0  0  0  0
   58.9685   34.5352   44.3879 H   0  0  0  0  0  0  0  0  0  0  0  0
   60.1979   33.2826   44.8495 H   0  0  0  0  0  0  0  0  0  0  0  0
   57.7364   33.2141   42.9674 H   0  0  0  0  0  0  0  0  0  0  0  0
   56.8645   31.3804   41.5127 H   0  0  0  0  0  0  0  0  0  0  0  0
   57.5402   24.2908   43.2951 H   0  0  0  0  0  0  0  0  0  0  0  0
   56.3251   20.6386   42.3541 H   0  0  0  0  0  0  0  0  0  0  0  0
   57.1311   22.1622   41.8147 H   0  0  0  0  0  0  0  0  0  0  0  0
   57.3043   21.5235   44.7338 H   0  0  0  0  0  0  0  0  0  0  0  0
   58.2297   20.4563   43.6240 H   0  0  0  0  0  0  0  0  0  0  0  0
   58.5288   22.2276   43.6240 H   0  0  0  0  0  0  0  0  0  0  0  0
  1  2  1  0
  2  3  1  0
  3  4  1  0
  4  5  2  0
  5  6  1  0
  6  7  2  0
  7  8  1  0
  8  9  1  0
  9 10  2  0
  9 11  1  0
 11 12  1  0
 12 13  1  0
 13 14  2  0
 14 15  1  0
 15 16  1  0
 16 17  1  0
 17 18  1  0
 18 19  1  0
 19 20  2  0
 20 21  1  0
 21 22  2  0
 22 23  1  0
 23 24  2  0
 24 25  1  0
 25 26  1  0
 18 27  1  0
 27 28  1  0
 14 29  1  0
 29 30  2  0
 30 31  1  0
 31 32  2  0
  7 33  1  0
 33 34  2  0
 34 35  1  0
 35 36  1  0
 36 37  1  0
 34  4  1  0
 31 12  1  0
 28 15  1  0
 24 19  1  0
  1 38  1  0
  1 39  1  0
  1 40  1  0
  2 41  1  0
  2 42  1  0
  5 43  1  0
  6 44  1  0
 11 45  1  0
 11 46  1  0
 16 47  1  0
 16 48  1  0
 17 49  1  0
 17 50  1  0
 20 51  1  0
 21 52  1  0
 22 53  1  0
 23 54  1  0
 26 55  1  0
 26 56  1  0
 26 57  1  0
 27 58  1  0
 27 59  1  0
 28 60  1  0
 28 61  1  0
 29 62  1  0
 30 63  1  0
 33 64  1  0
 36 65  1  0
 36 66  1  0
 37 67  1  0
 37 68  1  0
 37 69  1  0
M  CHG  1   8  -1
M  END
>  <UniqueID>  (17) 
17

>  <SMILES>  (17) 
CCOc1ccc([N-]C(=O)Cn2nc(N3CCN(c4ccccc4OC)CC3)ccc2=O)cc1OCC

>  <Energy>  (17) 
79.75331916980419

>  <Genealogy>  (17) 
CCOc1ccc([N-]C(=O)Cn2nc(N3CCN(c4ccccc4OC)CC3)ccc2=O)cc1OCC (protonated)
CCOc1ccc([N-]C(=O)Cn2nc(N3CCN(c4ccccc4OC)CC3)ccc2=O)cc1OCC (3D coordinates assigned)
CCOc1ccc([N-]C(=O)Cn2nc(N3CCN(c4ccccc4OC)CC3)ccc2=O)cc1OCC (nonaromatic ring conformer: 79.75331916980419 kcal/mol)

>  <smiles>  (17) 
CCOc1ccc(NC(=O)Cn2nc(N3CCN(c4ccccc4OC)CC3)ccc2=O)cc1OCC

>  <score_type>  (17) 
oracle

>  <origin>  (17) 
adg

>  <m_score__min__energy>  (17) 
-11.27

>  <m_primary>  (17) 
energy

$$$$
17:0
     RDKit          3D

 50 52  0  0  0  0  0  0  0  0999 V2000
   63.0150   33.8420   46.3630 C   0  0  0  0  0  0  0  0  0  0  0  0
   63.6280   32.8550   47.3730 C   0  0  0  0  0  0  0  0  0  0  0  0
   62.6820   32.3230   48.4080 N   0  0  0  0  0  0  0  0  0  0  0  0
   61.9190   33.4400   49.0230 C   0  0  0  0  0  0  0  0  0  0  0  0
   63.5130   31.6810   49.4610 C   0  0  0  0  0  0  0  0  0  0  0  0
   61.7580   31.3210   47.7850 C   0  0  0  0  0  0  0  0  0  0  0  0
   60.7560   30.6540   48.7530 C   0  0  0  0  0  0  0  0  0  0  0  0
   59.3860   31.0450   48.4220 N   0  0  0  0  0  0  0  0  0  0  0  0
   58.9790   31.1760   47.0530 C   0  0  0  0  0  0  0  0  0  0  0  0
   58.9280   32.4430   46.4500 C   0  0  0  0  0  0  0  0  0  0  0  0
   59.2760   33.6000   47.1790 C   0  0  0  0  0  0  0  0  0  0  0  0
   59.2870   34.8500   46.5640 C   0  0  0  0  0  0  0  0  0  0  0  0
   58.9640   34.9650   45.2170 C   0  0  0  0  0  0  0  0  0  0  0  0
   58.5970   33.8370   44.4830 C   0  0  0  0  0  0  0  0  0  0  0  0
   58.5330   32.5560   45.0910 C   0  0  0  0  0  0  0  0  0  0  0  0
   58.1190   31.4370   44.3910 N   0  0  0  0  0  0  0  0  0  0  0  0
   57.4500   31.5890   43.0800 C   0  0  0  0  0  0  0  0  0  0  0  0
   58.3010   30.1760   44.9320 C   0  0  0  0  0  0  0  0  0  0  0  0
   58.1230   28.9980   44.1620 C   0  0  0  0  0  0  0  0  0  0  0  0
   58.2520   27.7350   44.7390 C   0  0  0  0  0  0  0  0  0  0  0  0
   58.5700   27.6080   46.0860 C   0  0  0  0  0  0  0  0  0  0  0  0
   58.7940   28.7440   46.8580 C   0  0  0  0  0  0  0  0  0  0  0  0
   58.6910   30.0320   46.2910 C   0  0  0  0  0  0  0  0  0  0  0  0
   62.5100   34.6551   46.9051 H   0  0  0  0  0  0  0  0  0  0  0  0
   63.8115   34.2619   45.7311 H   0  0  0  0  0  0  0  0  0  0  0  0
   62.2855   33.3142   45.7311 H   0  0  0  0  0  0  0  0  0  0  0  0
   64.0310   32.0001   46.8102 H   0  0  0  0  0  0  0  0  0  0  0  0
   64.3929   33.4216   47.9243 H   0  0  0  0  0  0  0  0  0  0  0  0
   61.9728   33.3612   50.1189 H   0  0  0  0  0  0  0  0  0  0  0  0
   62.3513   34.3994   48.7027 H   0  0  0  0  0  0  0  0  0  0  0  0
   60.8680   33.3862   48.7027 H   0  0  0  0  0  0  0  0  0  0  0  0
   63.1368   31.9717   50.4530 H   0  0  0  0  0  0  0  0  0  0  0  0
   63.4594   30.5875   49.3545 H   0  0  0  0  0  0  0  0  0  0  0  0
   64.5575   32.0090   49.3545 H   0  0  0  0  0  0  0  0  0  0  0  0
   61.1822   31.8324   46.9995 H   0  0  0  0  0  0  0  0  0  0  0  0
   62.3990   30.5113   47.4062 H   0  0  0  0  0  0  0  0  0  0  0  0
   60.8495   29.5608   48.6741 H   0  0  0  0  0  0  0  0  0  0  0  0
   60.9812   30.9809   49.7789 H   0  0  0  0  0  0  0  0  0  0  0  0
   58.6920   31.2690   49.1700 H   0  0  0  0  0  0  0  0  0  0  0  0
   59.5411   33.5141   48.2431 H   0  0  0  0  0  0  0  0  0  0  0  0
   59.5514   35.7462   47.1445 H   0  0  0  0  0  0  0  0  0  0  0  0
   58.9979   35.9496   44.7278 H   0  0  0  0  0  0  0  0  0  0  0  0
   58.3532   33.9420   43.4155 H   0  0  0  0  0  0  0  0  0  0  0  0
   56.3882   31.8303   43.2360 H   0  0  0  0  0  0  0  0  0  0  0  0
   57.9312   32.4007   42.5147 H   0  0  0  0  0  0  0  0  0  0  0  0
   57.5332   30.6491   42.5147 H   0  0  0  0  0  0  0  0  0  0  0  0
   57.8793   29.0821   43.0926 H   0  0  0  0  0  0  0  0  0  0  0  0
   58.1013   26.8348   44.1250 H   0  0  0  0  0  0  0  0  0  0  0  0
   58.6446   26.6097   46.5418 H   0  0  0  0  0  0  0  0  0  0  0  0
   59.0541   28.6367   47.9214 H   0  0  0  0  0  0  0  0  0  0  0  0
  1  2  1  0
  2  3  1  0
  3  4  1  0
  3  5  1  0
  3  6  1  0
  6  7  1  0
  7  8  1  0
  8  9  1  0
  9 10  2  0
 10 11  1  0
 11 12  2  0
 12 13  1  0
 13 14  2  0
 14 15  1  0
 15 16  2  0
 16 17  1  0
 16 18  1  0
 18 19  2  0
 19 20  1  0
 20 21  2  0
 21 22  1  0
 22 23  2  0
 23  9  1  0
 15 10  1  0
 23 18  1  0
  1 24  1  0
  1 25  1  0
  1 26  1  0
  2 27  1  0
  2 28  1  0
  4 29  1  0
  4 30  1  0
  4 31  1  0
  5 32  1  0
  5 33  1  0
  5 34  1  0
  6 35  1  0
  6 36  1  0
  7 37  1  0
  7 38  1  0
  8 39  1  0
 11 40  1  0
 12 41  1  0
 13 42  1  0
 14 43  1  0
 17 44  1  0
 17 45  1  0
 17 46  1  0
 19 47  1  0
 20 48  1  0
 21 49  1  0
 22 50  1  0
M  CHG  2   3   1  16   1
M  END
>  <UniqueID>  (18) 
18

>  <SMILES>  (18) 
CC[N+](C)(C)CCNc1c2ccccc2[n+](C)c2ccccc12

>  <Energy>  (18) 
86.10739780609914

>  <Genealogy>  (18) 
CC[N+](C)(C)CCNc1c2ccccc2[n+](C)c2ccccc12 (3D coordinates assigned)
CC[N+](C)(C)CCNc1c2ccccc2[n+](C)c2ccccc12 (optimized conformer: 86.10739780609914 kcal/mol)

>  <smiles>  (18) 
CC[N+](C)(C)CCNc1c2ccccc2[n+](C)c2ccccc12

>  <score_type>  (18) 
oracle

>  <origin>  (18) 
adg

>  <m_score__min__energy>  (18) 
-4.4500000000000002

>  <m_primary>  (18) 
energy

$$$$
18:0
     RDKit          3D

 32 33  0  0  0  0  0  0  0  0999 V2000
   56.2330   24.6830   45.0720 C   0  0  0  0  0  0  0  0  0  0  0  0
   55.5100   26.0750   45.9960 S   0  0  0  0  0  0  0  0  0  0  0  0
   57.0300   27.0330   45.9740 C   0  0  0  0  0  0  0  0  0  0  0  0
   58.2200   26.4410   46.4130 C   0  0  0  0  0  0  0  0  0  0  0  0
   59.4100   27.1720   46.4130 C   0  0  0  0  0  0  0  0  0  0  0  0
   59.4170   28.4950   45.9710 C   0  0  0  0  0  0  0  0  0  0  0  0
   58.2340   29.0940   45.5270 C   0  0  0  0  0  0  0  0  0  0  0  0
   57.0260   28.3660   45.5250 C   0  0  0  0  0  0  0  0  0  0  0  0
   55.8120   28.9270   45.0910 O   0  0  0  0  0  0  0  0  0  0  0  0
   55.6240   29.6510   43.8750 C   0  0  0  0  0  0  0  0  0  0  0  0
   56.5100   30.8610   43.8430 C   0  0  0  0  0  0  0  0  0  0  0  0
   57.1910   31.2130   42.6690 C   0  0  0  0  0  0  0  0  0  0  0  0
   57.9950   32.3540   42.6600 C   0  0  0  0  0  0  0  0  0  0  0  0
   58.1150   33.1290   43.8140 C   0  0  0  0  0  0  0  0  0  0  0  0
   57.4280   32.7460   44.9740 C   0  0  0  0  0  0  0  0  0  0  0  0
   57.5300   33.5660   46.2190 C   0  0  0  0  0  0  0  0  0  0  0  0
   56.6460   31.6320   44.9570 N   0  0  0  0  0  0  0  0  0  0  0  0
   56.6212   23.9355   45.7795 H   0  0  0  0  0  0  0  0  0  0  0  0
   55.4603   24.2222   44.4391 H   0  0  0  0  0  0  0  0  0  0  0  0
   57.0544   25.0502   44.4391 H   0  0  0  0  0  0  0  0  0  0  0  0
   58.2179   25.3968   46.7590 H   0  0  0  0  0  0  0  0  0  0  0  0
   60.3424   26.7041   46.7618 H   0  0  0  0  0  0  0  0  0  0  0  0
   60.3556   29.0686   45.9717 H   0  0  0  0  0  0  0  0  0  0  0  0
   58.2456   30.1371   45.1779 H   0  0  0  0  0  0  0  0  0  0  0  0
   55.8701   28.9993   43.0237 H   0  0  0  0  0  0  0  0  0  0  0  0
   54.5749   29.9759   43.8123 H   0  0  0  0  0  0  0  0  0  0  0  0
   57.0926   30.5959   41.7637 H   0  0  0  0  0  0  0  0  0  0  0  0
   58.5330   32.6417   41.7447 H   0  0  0  0  0  0  0  0  0  0  0  0
   58.7429   34.0322   43.8134 H   0  0  0  0  0  0  0  0  0  0  0  0
   57.4484   32.9097   47.0980 H   0  0  0  0  0  0  0  0  0  0  0  0
   58.4996   34.0851   46.2378 H   0  0  0  0  0  0  0  0  0  0  0  0
   56.7171   34.3068   46.2378 H   0  0  0  0  0  0  0  0  0  0  0  0
  1  2  1  0
  2  3  1  0
  3  4  2  0
  4  5  1  0
  5  6  2  0
  6  7  1  0
  7  8  2  0
  8  9  1  0
  9 10  1  0
 10 11  1  0
 11 12  2  0
 12 13  1  0
 13 14  2  0
 14 15  1  0
 15 16  1  0
 15 17  2  0
  8  3  1  0
 17 11  1  0
  1 18  1  0
  1 19  1  0
  1 20  1  0
  4 21  1  0
  5 22  1  0
  6 23  1  0
  7 24  1  0
 10 25  1  0
 10 26  1  0
 12 27  1  0
 13 28  1  0
 14 29  1  0
 16 30  1  0
 16 31  1  0
 16 32  1  0
M  END
>  <UniqueID>  (19) 
19

>  <SMILES>  (19) 
CSc1ccccc1OCc1cccc(C)n1

>  <Energy>  (19) 
26.35743763611762

>  <Genealogy>  (19) 
CSc1ccccc1OCc1cccc(C)n1 (3D coordinates assigned)
CSc1ccccc1OCc1cccc(C)n1 (optimized conformer: 26.35743763611762 kcal/mol)

>  <smiles>  (19) 
CSc1ccccc1OCc1cccc(C)n1

>  <score_type>  (19) 
oracle

>  <origin>  (19) 
adg

>  <m_score__min__energy>  (19) 
-7.1399999999999997

>  <m_primary>  (19) 
energy

$$$$
19:0
     RDKit          3D

 44 46  0  0  0  0  0  0  0  0999 V2000
   64.8750   32.4360   49.6760 C   0  0  0  0  0  0  0  0  0  0  0  0
   63.9450   33.3100   48.8290 C   0  0  0  0  0  0  0  0  0  0  0  0
   63.7720   32.7790   47.4540 N   0  0  2  0  0  0  0  0  0  0  0  0
   63.3930   33.8360   46.4960 C   0  0  0  0  0  0  0  0  0  0  0  0
   62.8470   31.6170   47.4010 C   0  0  0  0  0  0  0  0  0  0  0  0
   61.4650   31.8090   48.0740 C   0  0  0  0  0  0  0  0  0  0  0  0
   60.3340   31.5020   47.1850 N   0  0  0  0  0  0  0  0  0  0  0  0
   59.5970   32.3900   46.4640 C   0  0  0  0  0  0  0  0  0  0  0  0
   58.5730   31.7460   45.7850 C   0  0  0  0  0  0  0  0  0  0  0  0
   58.6490   30.4240   46.1540 C   0  0  0  0  0  0  0  0  0  0  0  0
   57.8320   29.3430   45.8270 C   0  0  0  0  0  0  0  0  0  0  0  0
   58.1400   28.0930   46.3890 C   0  0  0  0  0  0  0  0  0  0  0  0
   57.0630   26.5730   45.9720 Br  0  0  0  0  0  0  0  0  0  0  0  0
   59.2390   27.9570   47.2660 C   0  0  0  0  0  0  0  0  0  0  0  0
   60.0380   29.0670   47.5880 C   0  0  0  0  0  0  0  0  0  0  0  0
   59.7220   30.3030   47.0080 C   0  0  0  0  0  0  0  0  0  0  0  0
   57.4990   32.4420   45.0040 C   0  0  0  0  0  0  0  0  0  0  0  0
   57.9210   33.8830   44.6670 C   0  0  0  0  0  0  0  0  0  0  0  0
   58.5470   34.5900   45.8860 C   0  0  0  0  0  0  0  0  0  0  0  0
   59.8270   33.8730   46.3530 C   0  0  0  0  0  0  0  0  0  0  0  0
   64.6797   32.6195   50.7429 H   0  0  0  0  0  0  0  0  0  0  0  0
   64.6915   31.3759   49.4467 H   0  0  0  0  0  0  0  0  0  0  0  0
   65.9216   32.6849   49.4467 H   0  0  0  0  0  0  0  0  0  0  0  0
   62.9603   33.3556   49.3172 H   0  0  0  0  0  0  0  0  0  0  0  0
   64.4003   34.3082   48.7498 H   0  0  0  0  0  0  0  0  0  0  0  0
   64.6980   32.4060   47.1350 H   0  0  0  0  0  0  0  0  0  0  0  0
   63.0717   34.7322   47.0470 H   0  0  0  0  0  0  0  0  0  0  0  0
   64.2579   34.0849   45.8635 H   0  0  0  0  0  0  0  0  0  0  0  0
   62.5670   33.4786   45.8635 H   0  0  0  0  0  0  0  0  0  0  0  0
   62.6734   31.3748   46.3421 H   0  0  0  0  0  0  0  0  0  0  0  0
   63.3440   30.8200   47.9735 H   0  0  0  0  0  0  0  0  0  0  0  0
   61.4091   31.1468   48.9505 H   0  0  0  0  0  0  0  0  0  0  0  0
   61.3827   32.8709   48.3489 H   0  0  0  0  0  0  0  0  0  0  0  0
   56.9734   29.4649   45.1503 H   0  0  0  0  0  0  0  0  0  0  0  0
   59.4713   26.9736   47.7006 H   0  0  0  0  0  0  0  0  0  0  0  0
   60.8894   28.9684   48.2774 H   0  0  0  0  0  0  0  0  0  0  0  0
   57.3168   31.8909   44.0696 H   0  0  0  0  0  0  0  0  0  0  0  0
   56.5829   32.4740   45.6120 H   0  0  0  0  0  0  0  0  0  0  0  0
   58.6585   33.8576   43.8512 H   0  0  0  0  0  0  0  0  0  0  0  0
   57.0233   34.4436   44.3672 H   0  0  0  0  0  0  0  0  0  0  0  0
   58.7966   35.6253   45.6105 H   0  0  0  0  0  0  0  0  0  0  0  0
   57.8185   34.5710   46.7100 H   0  0  0  0  0  0  0  0  0  0  0  0
   60.6311   34.0601   45.6261 H   0  0  0  0  0  0  0  0  0  0  0  0
   60.1085   34.2618   47.3428 H   0  0  0  0  0  0  0  0  0  0  0  0
  1  2  1  0
  2  3  1  0
  3  4  1  0
  3  5  1  0
  5  6  1  0
  6  7  1  0
  7  8  1  0
  8  9  2  0
  9 10  1  0
 10 11  2  0
 11 12  1  0
 12 13  1  0
 12 14  2  0
 14 15  1  0
 15 16  2  0
  9 17  1  0
 17 18  1  0
 18 19  1  0
 19 20  1  0
 16  7  1  0
 20  8  1  0
 16 10  1  0
  1 21  1  0
  1 22  1  0
  1 23  1  0
  2 24  1  0
  2 25  1  0
  3 26  1  6
  4 27  1  0
  4 28  1  0
  4 29  1  0
  5 30  1  0
  5 31  1  0
  6 32  1  0
  6 33  1  0
 11 34  1  0
 14 35  1  0
 15 36  1  0
 17 37  1  0
 17 38  1  0
 18 39  1  0
 18 40  1  0
 19 41  1  0
 19 42  1  0
 20 43  1  0
 20 44  1  0
M  CHG  1   3   1
M  END
>  <UniqueID>  (20) 
20

>  <SMILES>  (20) 
CC[N@H+](C)CCn1c2c(c3cc(Br)ccc31)CCCC2

>  <Energy>  (20) 
80.51032885287117

>  <Genealogy>  (20) 
CC[NH+](C)CCn1c2c(c3cc(Br)ccc31)CCCC2 (protonated)
CC[N@H+](C)CCn1c2c(c3cc(Br)ccc31)CCCC2 (chirality)
CC[N@H+](C)CCn1c2c(c3cc(Br)ccc31)CCCC2 (3D coordinates assigned)
CC[N@H+](C)CCn1c2c(c3cc(Br)ccc31)CCCC2 (nonaromatic ring conformer: 80.51032885287117 kcal/mol)

>  <smiles>  (20) 
CCN(C)CCn1c2c(c3cc(Br)ccc31)CCCC2

>  <score_type>  (20) 
oracle

>  <origin>  (20) 
adg

>  <m_score__min__energy>  (20) 
-6.2800000000000002

>  <m_primary>  (20) 
energy

$$$$
20:0
     RDKit          3D

 66 69  0  0  0  0  0  0  0  0999 V2000
   57.3780   33.3860   47.3660 C   0  0  0  0  0  0  0  0  0  0  0  0
   57.9440   34.1780   46.1890 C   0  0  0  0  0  0  0  0  0  0  0  0
   58.9240   33.3690   45.4290 N   0  0  0  0  0  0  0  0  0  0  0  0
   60.3130   33.8500   45.6030 C   0  0  0  0  0  0  0  0  0  0  0  0
   60.6470   34.2640   47.0440 C   0  0  0  0  0  0  0  0  0  0  0  0
   58.5530   33.1790   44.0060 C   0  0  0  0  0  0  0  0  0  0  0  0
   57.4340   32.1470   43.9060 C   0  0  0  0  0  0  0  0  0  0  0  0
   57.7890   31.1690   42.9480 O   0  0  0  0  0  0  0  0  0  0  0  0
   56.6360   30.5050   42.4640 C   0  0  0  0  0  0  0  0  0  0  0  0
   56.0380   29.6270   43.5660 C   0  0  0  0  0  0  0  0  0  0  0  0
   57.0570   28.7420   44.1330 N   0  0  0  0  0  0  0  0  0  0  0  0
   58.1650   29.1790   44.9450 C   0  0  0  0  0  0  0  0  0  0  0  0
   59.4750   28.9250   44.5020 C   0  0  0  0  0  0  0  0  0  0  0  0
   60.5780   29.3470   45.2500 C   0  0  0  0  0  0  0  0  0  0  0  0
   60.3850   30.0250   46.4620 C   0  0  0  0  0  0  0  0  0  0  0  0
   61.4450   30.4350   47.2130 N   0  0  0  0  0  0  0  0  0  0  0  0
   61.2680   31.0720   48.4080 C   0  0  0  0  0  0  0  0  0  0  0  0
   62.4580   31.4150   49.2200 C   0  0  0  0  0  0  0  0  0  0  0  0
   62.6960   30.7750   50.4490 C   0  0  0  0  0  0  0  0  0  0  0  0
   63.8270   31.1010   51.2040 C   0  0  0  0  0  0  0  0  0  0  0  0
   64.7280   32.0630   50.7380 C   0  0  0  0  0  0  0  0  0  0  0  0
   64.5030   32.6960   49.5120 C   0  0  0  0  0  0  0  0  0  0  0  0
   63.3760   32.3700   48.7500 C   0  0  0  0  0  0  0  0  0  0  0  0
   59.9480   31.3400   48.8550 C   0  0  0  0  0  0  0  0  0  0  0  0
   59.6560   32.0830   50.1010 C   0  0  0  0  0  0  0  0  0  0  0  0
   59.6970   33.4880   50.1340 C   0  0  0  0  0  0  0  0  0  0  0  0
   59.3990   34.1770   51.3130 C   0  0  0  0  0  0  0  0  0  0  0  0
   59.0420   33.4700   52.4640 C   0  0  0  0  0  0  0  0  0  0  0  0
   58.7480   34.1410   53.6060 F   0  0  0  0  0  0  0  0  0  0  0  0
   58.9760   32.0740   52.4360 C   0  0  0  0  0  0  0  0  0  0  0  0
   59.2760   31.3820   51.2590 C   0  0  0  0  0  0  0  0  0  0  0  0
   58.9000   30.9220   48.0970 N   0  0  0  0  0  0  0  0  0  0  0  0
   59.0790   30.2740   46.9190 C   0  0  0  0  0  0  0  0  0  0  0  0
   57.9770   29.8620   46.1630 C   0  0  0  0  0  0  0  0  0  0  0  0
   57.7068   33.8461   48.3095 H   0  0  0  0  0  0  0  0  0  0  0  0
   56.2791   33.3930   47.3181 H   0  0  0  0  0  0  0  0  0  0  0  0
   57.7405   32.3486   47.3181 H   0  0  0  0  0  0  0  0  0  0  0  0
   57.1200   34.4670   45.5201 H   0  0  0  0  0  0  0  0  0  0  0  0
   58.4538   35.0711   46.5796 H   0  0  0  0  0  0  0  0  0  0  0  0
   60.9996   33.0438   45.3053 H   0  0  0  0  0  0  0  0  0  0  0  0
   60.4232   34.7476   44.9768 H   0  0  0  0  0  0  0  0  0  0  0  0
   60.1158   33.6056   47.7471 H   0  0  0  0  0  0  0  0  0  0  0  0
   61.7312   34.1775   47.2084 H   0  0  0  0  0  0  0  0  0  0  0  0
   60.3332   35.3054   47.2084 H   0  0  0  0  0  0  0  0  0  0  0  0
   58.2084   34.1355   43.5860 H   0  0  0  0  0  0  0  0  0  0  0  0
   59.4292   32.8258   43.4425 H   0  0  0  0  0  0  0  0  0  0  0  0
   57.2872   31.6672   44.8849 H   0  0  0  0  0  0  0  0  0  0  0  0
   56.5003   32.6420   43.6009 H   0  0  0  0  0  0  0  0  0  0  0  0
   55.8917   31.2507   42.1478 H   0  0  0  0  0  0  0  0  0  0  0  0
   56.9154   29.8720   41.6089 H   0  0  0  0  0  0  0  0  0  0  0  0
   55.6355   30.2708   44.3620 H   0  0  0  0  0  0  0  0  0  0  0  0
   55.2369   29.0110   43.1315 H   0  0  0  0  0  0  0  0  0  0  0  0
   57.0130   27.7350   43.8590 H   0  0  0  0  0  0  0  0  0  0  0  0
   59.6339   28.3877   43.5554 H   0  0  0  0  0  0  0  0  0  0  0  0
   61.5972   29.1472   44.8878 H   0  0  0  0  0  0  0  0  0  0  0  0
   62.4170   30.2280   46.8820 H   0  0  0  0  0  0  0  0  0  0  0  0
   61.9906   30.0157   50.8177 H   0  0  0  0  0  0  0  0  0  0  0  0
   64.0080   30.5996   52.1662 H   0  0  0  0  0  0  0  0  0  0  0  0
   65.6141   32.3219   51.3361 H   0  0  0  0  0  0  0  0  0  0  0  0
   65.2134   33.4518   49.1458 H   0  0  0  0  0  0  0  0  0  0  0  0
   63.2079   32.8622   47.7807 H   0  0  0  0  0  0  0  0  0  0  0  0
   59.9653   34.0485   49.2263 H   0  0  0  0  0  0  0  0  0  0  0  0
   59.4455   35.2758   51.3347 H   0  0  0  0  0  0  0  0  0  0  0  0
   58.6877   31.5194   53.3411 H   0  0  0  0  0  0  0  0  0  0  0  0
   59.2145   30.2839   51.2387 H   0  0  0  0  0  0  0  0  0  0  0  0
   56.9583   30.0722   46.5210 H   0  0  0  0  0  0  0  0  0  0  0  0
  1  2  1  0
  2  3  1  0
  3  4  1  0
  4  5  1  0
  3  6  1  0
  6  7  1  0
  7  8  1  0
  8  9  1  0
  9 10  1  0
 10 11  1  0
 11 12  1  0
 12 13  2  0
 13 14  1  0
 14 15  2  0
 15 16  1  0
 16 17  2  0
 17 18  1  0
 18 19  2  0
 19 20  1  0
 20 21  2  0
 21 22  1  0
 22 23  2  0
 17 24  1  0
 24 25  1  0
 25 26  2  0
 26 27  1  0
 27 28  2  0
 28 29  1  0
 28 30  1  0
 30 31  2  0
 24 32  2  0
 32 33  1  0
 33 34  2  0
 34 12  1  0
 33 15  1  0
 23 18  1  0
 31 25  1  0
  1 35  1  0
  1 36  1  0
  1 37  1  0
  2 38  1  0
  2 39  1  0
  4 40  1  0
  4 41  1  0
  5 42  1  0
  5 43  1  0
  5 44  1  0
  6 45  1  0
  6 46  1  0
  7 47  1  0
  7 48  1  0
  9 49  1  0
  9 50  1  0
 10 51  1  0
 10 52  1  0
 11 53  1  0
 13 54  1  0
 14 55  1  0
 16 56  1  0
 19 57  1  0
 20 58  1  0
 21 59  1  0
 22 60  1  0
 23 61  1  0
 26 62  1  0
 27 63  1  0
 30 64  1  0
 31 65  1  0
 34 66  1  0
M  CHG  1  16   1
M  END
>  <UniqueID>  (21) 
21

>  <SMILES>  (21) 
CCN(CC)CCOCCNc1ccc2[nH+]c(-c3ccccc3)c(-c3ccc(F)cc3)nc2c1

>  <Energy>  (21) 
85.23918105474796

>  <Genealogy>  (21) 
CCN(CC)CCOCCNc1ccc2[nH+]c(-c3ccccc3)c(-c3ccc(F)cc3)nc2c1 (protonated)
CCN(CC)CCOCCNc1ccc2[nH+]c(-c3ccccc3)c(-c3ccc(F)cc3)nc2c1 (3D coordinates assigned)
CCN(CC)CCOCCNc1ccc2[nH+]c(-c3ccccc3)c(-c3ccc(F)cc3)nc2c1 (optimized conformer: 85.23918105474796 kcal/mol)

>  <smiles>  (21) 
CCN(CC)CCOCCNc1ccc2nc(-c3ccccc3)c(-c3ccc(F)cc3)nc2c1

>  <score_type>  (21) 
oracle

>  <origin>  (21) 
adg

>  <m_score__min__energy>  (21) 
-6.5099999999999998

>  <m_primary>  (21) 
energy

$$$$
21:0
     RDKit          3D

 43 45  0  0  0  0  0  0  0  0999 V2000
   56.6360   26.3530   46.0030 C   0  0  0  0  0  0  0  0  0  0  0  0
   55.9020   27.5110   45.6210 O   0  0  0  0  0  0  0  0  0  0  0  0
   56.4840   28.7320   45.2510 C   0  0  0  0  0  0  0  0  0  0  0  0
   55.7470   29.6040   44.4410 C   0  0  0  0  0  0  0  0  0  0  0  0
   56.2830   30.8310   44.0440 C   0  0  0  0  0  0  0  0  0  0  0  0
   57.5750   31.2040   44.4470 C   0  0  0  0  0  0  0  0  0  0  0  0
   58.1610   32.5240   44.0170 C   0  0  0  0  0  0  0  0  0  0  0  0
   57.7550   33.6330   44.9530 C   0  0  0  0  0  0  0  0  0  0  0  0
   56.8490   34.4260   44.5760 O   0  0  0  0  0  0  0  0  0  0  0  0
   58.3510   33.7990   46.2580 N   0  0  0  0  0  0  0  0  0  0  0  0
   57.8250   33.0880   47.4380 C   0  0  0  0  0  0  0  0  0  0  0  0
   58.9640   32.7270   48.4150 C   0  0  1  0  0  0  0  0  0  0  0  0
   59.9100   31.6500   47.7990 C   0  0  0  0  0  0  0  0  0  0  0  0
   61.2880   32.1350   47.5950 N   0  0  0  0  0  0  0  0  0  0  0  0
   61.3350   33.4160   46.8650 C   0  0  0  0  0  0  0  0  0  0  0  0
   60.4000   34.5040   47.4760 C   0  0  2  0  0  0  0  0  0  0  0  0
   59.7330   34.0060   48.7640 C   0  0  0  0  0  0  0  0  0  0  0  0
   59.2960   34.9100   46.4780 C   0  0  0  0  0  0  0  0  0  0  0  0
   58.3130   30.3370   45.2690 C   0  0  0  0  0  0  0  0  0  0  0  0
   57.7760   29.1090   45.6650 C   0  0  0  0  0  0  0  0  0  0  0  0
   56.6761   26.2898   47.1004 H   0  0  0  0  0  0  0  0  0  0  0  0
   56.1410   25.4563   45.6019 H   0  0  0  0  0  0  0  0  0  0  0  0
   57.6582   26.4180   45.6019 H   0  0  0  0  0  0  0  0  0  0  0  0
   54.7358   29.3200   44.1140 H   0  0  0  0  0  0  0  0  0  0  0  0
   55.6898   31.5086   43.4123 H   0  0  0  0  0  0  0  0  0  0  0  0
   59.2581   32.4441   44.0104 H   0  0  0  0  0  0  0  0  0  0  0  0
   57.7825   32.7614   43.0118 H   0  0  0  0  0  0  0  0  0  0  0  0
   57.3259   32.1645   47.1094 H   0  0  0  0  0  0  0  0  0  0  0  0
   57.1119   33.7459   47.9564 H   0  0  0  0  0  0  0  0  0  0  0  0
   58.5396   32.2934   49.3325 H   0  0  0  0  0  0  0  0  0  0  0  0
   59.5007   31.3406   46.8260 H   0  0  0  0  0  0  0  0  0  0  0  0
   59.9601   30.8132   48.5113 H   0  0  0  0  0  0  0  0  0  0  0  0
   61.8140   31.4180   47.0440 H   0  0  0  0  0  0  0  0  0  0  0  0
   61.7730   32.2310   48.5170 H   0  0  0  0  0  0  0  0  0  0  0  0
   61.0294   33.2367   45.8236 H   0  0  0  0  0  0  0  0  0  0  0  0
   62.3657   33.7941   46.9330 H   0  0  0  0  0  0  0  0  0  0  0  0
   61.0320   35.3750   47.7042 H   0  0  0  0  0  0  0  0  0  0  0  0
   59.0398   34.7689   49.1480 H   0  0  0  0  0  0  0  0  0  0  0  0
   60.4863   33.8074   49.5406 H   0  0  0  0  0  0  0  0  0  0  0  0
   59.7602   35.1832   45.5189 H   0  0  0  0  0  0  0  0  0  0  0  0
   58.7428   35.7648   46.8944 H   0  0  0  0  0  0  0  0  0  0  0  0
   59.3202   30.6263   45.6034 H   0  0  0  0  0  0  0  0  0  0  0  0
   58.3653   28.4339   46.3030 H   0  0  0  0  0  0  0  0  0  0  0  0
  1  2  1  0
  2  3  1  0
  3  4  2  0
  4  5  1  0
  5  6  2  0
  6  7  1  0
  7  8  1  0
  8  9  2  0
  8 10  1  0
 10 11  1  0
 11 12  1  0
 12 13  1  0
 13 14  1  0
 14 15  1  0
 15 16  1  0
 16 17  1  0
 16 18  1  0
  6 19  1  0
 19 20  2  0
 20  3  1  0
 18 10  1  0
 17 12  1  0
  1 21  1  0
  1 22  1  0
  1 23  1  0
  4 24  1  0
  5 25  1  0
  7 26  1  0
  7 27  1  0
 11 28  1  0
 11 29  1  0
 12 30  1  1
 13 31  1  0
 13 32  1  0
 14 33  1  0
 14 34  1  0
 15 35  1  0
 15 36  1  0
 16 37  1  1
 17 38  1  0
 17 39  1  0
 18 40  1  0
 18 41  1  0
 19 42  1  0
 20 43  1  0
M  CHG  1  14   1
M  END
>  <UniqueID>  (22) 
22

>  <SMILES>  (22) 
COc1ccc(CC(=O)N2C[C@@H]3C[NH2+]C[C@@H](C3)C2)cc1

>  <Energy>  (22) 
51.78136983073318

>  <Genealogy>  (22) 
COc1ccc(CC(=O)N2CC3C[NH2+]CC(C3)C2)cc1 (protonated)
COc1ccc(CC(=O)N2C[C@@H]3C[NH2+]C[C@@H](C3)C2)cc1 (chirality)
COc1ccc(CC(=O)N2C[C@@H]3C[NH2+]C[C@@H](C3)C2)cc1 (3D coordinates assigned)
COc1ccc(CC(=O)N2C[C@@H]3C[NH2+]C[C@@H](C3)C2)cc1 (nonaromatic ring conformer: 51.78136983073318 kcal/mol)

>  <smiles>  (22) 
COc1ccc(CC(=O)N2CC3CNCC(C3)C2)cc1

>  <score_type>  (22) 
oracle

>  <origin>  (22) 
adg

>  <m_score__min__energy>  (22) 
-5.8600000000000003

>  <m_primary>  (22) 
energy

$$$$
22:0
     RDKit          3D

 44 46  0  0  0  0  0  0  0  0999 V2000
   56.2980   23.1520   42.9970 C   0  0  0  0  0  0  0  0  0  0  0  0
   56.8410   23.3630   44.0520 C   0  0  0  0  0  0  0  0  0  0  0  0
   57.5060   23.6230   45.3340 C   0  0  0  0  0  0  0  0  0  0  0  0
   58.4010   24.7270   45.2150 O   0  0  0  0  0  0  0  0  0  0  0  0
   58.0240   26.0540   44.9490 C   0  0  0  0  0  0  0  0  0  0  0  0
   58.1460   26.5270   43.6380 C   0  0  0  0  0  0  0  0  0  0  0  0
   57.7640   27.8330   43.3150 C   0  0  0  0  0  0  0  0  0  0  0  0
   57.2550   28.6850   44.3040 C   0  0  0  0  0  0  0  0  0  0  0  0
   56.7200   30.3150   43.8880 S   0  0  0  0  0  0  0  0  0  0  0  0
   55.3610   30.5590   44.4820 O   0  0  0  0  0  0  0  0  0  0  0  0
   56.6020   30.4320   42.3940 O   0  0  0  0  0  0  0  0  0  0  0  0
   57.8410   31.5220   44.4760 N   0  0  0  0  0  0  0  0  0  0  0  0
   57.1240   32.5730   45.2300 C   0  0  0  0  0  0  0  0  0  0  0  0
   58.0390   33.3090   46.2110 C   0  0  0  0  0  0  0  0  0  0  0  0
   58.6130   32.3500   47.1630 N   0  0  0  0  0  0  0  0  0  0  0  0
   58.9550   32.7780   48.4990 C   0  0  0  0  0  0  0  0  0  0  0  0
   60.0410   33.6410   48.7350 C   0  0  0  0  0  0  0  0  0  0  0  0
   60.3410   34.0290   50.0430 C   0  0  0  0  0  0  0  0  0  0  0  0
   59.5680   33.5570   51.1030 C   0  0  0  0  0  0  0  0  0  0  0  0
   58.5010   32.6970   50.8390 C   0  0  0  0  0  0  0  0  0  0  0  0
   58.2230   32.3300   49.5600 N   0  0  0  0  0  0  0  0  0  0  0  0
   58.8580   30.9710   46.7210 C   0  0  0  0  0  0  0  0  0  0  0  0
   58.9830   30.9040   45.1900 C   0  0  0  0  0  0  0  0  0  0  0  0
   57.1530   28.2240   45.6240 C   0  0  0  0  0  0  0  0  0  0  0  0
   57.5300   26.9180   45.9460 C   0  0  0  0  0  0  0  0  0  0  0  0
   55.8024   22.9594   42.0341 H   0  0  0  0  0  0  0  0  0  0  0  0
   56.7467   23.8525   46.0962 H   0  0  0  0  0  0  0  0  0  0  0  0
   58.0778   22.7301   45.6269 H   0  0  0  0  0  0  0  0  0  0  0  0
   58.5457   25.8662   42.8547 H   0  0  0  0  0  0  0  0  0  0  0  0
   57.8636   28.1928   42.2803 H   0  0  0  0  0  0  0  0  0  0  0  0
   56.7112   33.3014   44.5165 H   0  0  0  0  0  0  0  0  0  0  0  0
   56.3277   32.0863   45.8122 H   0  0  0  0  0  0  0  0  0  0  0  0
   58.8496   33.8030   45.6553 H   0  0  0  0  0  0  0  0  0  0  0  0
   57.4555   34.0633   46.7592 H   0  0  0  0  0  0  0  0  0  0  0  0
   60.6496   34.0076   47.8953 H   0  0  0  0  0  0  0  0  0  0  0  0
   61.1861   34.7061   50.2364 H   0  0  0  0  0  0  0  0  0  0  0  0
   59.7965   33.8590   52.1357 H   0  0  0  0  0  0  0  0  0  0  0  0
   57.8845   32.3159   51.6665 H   0  0  0  0  0  0  0  0  0  0  0  0
   59.7911   30.6067   47.1756 H   0  0  0  0  0  0  0  0  0  0  0  0
   58.0102   30.3439   47.0339 H   0  0  0  0  0  0  0  0  0  0  0  0
   59.9038   31.4272   44.8926 H   0  0  0  0  0  0  0  0  0  0  0  0
   58.9999   29.8396   44.9131 H   0  0  0  0  0  0  0  0  0  0  0  0
   56.7743   28.8939   46.4100 H   0  0  0  0  0  0  0  0  0  0  0  0
   57.4407   26.5625   46.9831 H   0  0  0  0  0  0  0  0  0  0  0  0
  1  2  3  0
  2  3  1  0
  3  4  1  0
  4  5  1  0
  5  6  2  0
  6  7  1  0
  7  8  2  0
  8  9  1  0
  9 10  2  0
  9 11  2  0
  9 12  1  0
 12 13  1  0
 13 14  1  0
 14 15  1  0
 15 16  1  0
 16 17  2  0
 17 18  1  0
 18 19  2  0
 19 20  1  0
 20 21  2  0
 15 22  1  0
 22 23  1  0
  8 24  1  0
 24 25  2  0
 25  5  1  0
 23 12  1  0
 21 16  1  0
  1 26  1  0
  3 27  1  0
  3 28  1  0
  6 29  1  0
  7 30  1  0
 13 31  1  0
 13 32  1  0
 14 33  1  0
 14 34  1  0
 17 35  1  0
 18 36  1  0
 19 37  1  0
 20 38  1  0
 22 39  1  0
 22 40  1  0
 23 41  1  0
 23 42  1  0
 24 43  1  0
 25 44  1  0
M  END
>  <UniqueID>  (23) 
23

>  <SMILES>  (23) 
C#CCOc1ccc(S(=O)(=O)N2CCN(c3ccccn3)CC2)cc1

>  <Energy>  (23) 
50.31774343241846

>  <Genealogy>  (23) 
C#CCOc1ccc(S(=O)(=O)N2CCN(c3ccccn3)CC2)cc1 (3D coordinates assigned)
C#CCOc1ccc(S(=O)(=O)N2CCN(c3ccccn3)CC2)cc1 (nonaromatic ring conformer: 50.31774343241846 kcal/mol)

>  <smiles>  (23) 
C#CCOc1ccc(S(=O)(=O)N2CCN(c3ccccn3)CC2)cc1

>  <score_type>  (23) 
oracle

>  <origin>  (23) 
adg

>  <m_score__min__energy>  (23) 
-8.0199999999999996

>  <m_primary>  (23) 
energy

$$$$
23:0
     RDKit          3D

 50 51  0  0  1  0  0  0  0  0999 V2000
   60.1950   34.2980   47.2650 C   0  0  0  0  0  0  0  0  0  0  0  0
   60.6020   32.8760   46.9710 C   0  0  0  0  0  0  0  0  0  0  0  0
   59.5390   32.1370   46.2990 C   0  0  0  0  0  0  0  0  0  0  0  0
   59.5080   30.7490   45.9400 C   0  0  0  0  0  0  0  0  0  0  0  0
   58.3960   30.3500   45.3340 C   0  0  0  0  0  0  0  0  0  0  0  0
   58.0850   29.0460   44.8650 C   0  0  0  0  0  0  0  0  0  0  0  0
   58.8280   28.0490   44.9940 N   0  0  0  0  0  0  0  0  0  0  0  0
   58.6450   26.9460   45.8290 C   0  0  0  0  0  0  0  0  0  0  0  0
   57.5340   27.0560   46.8620 C   0  0  0  0  0  0  0  0  0  0  0  0
   56.2920   26.3900   46.3800 C   0  0  0  0  0  0  0  0  0  0  0  0
   55.5370   27.0530   45.6210 O   0  0  0  0  0  0  0  0  0  0  0  0
   55.9320   25.1160   46.7120 O   0  0  0  0  0  0  0  0  0  0  0  0
   56.6360   23.9700   46.2180 C   0  0  0  0  0  0  0  0  0  0  0  0
   56.8990   24.1190   44.7600 C   0  0  0  0  0  0  0  0  0  0  0  0
   55.7240   23.8120   43.9210 N   0  0  0  0  0  0  0  0  0  0  0  0
   56.2490   22.9010   42.9220 C   0  0  0  0  0  0  0  0  0  0  0  0
   57.0320   21.7490   43.4420 C   0  0  0  0  0  0  0  0  0  0  0  0
   54.6970   23.2750   44.7510 C   0  0  0  0  0  0  0  0  0  0  0  0
   53.4660   24.0960   44.8730 C   0  0  0  0  0  0  0  0  0  0  0  0
   56.8870   28.8290   44.2570 N   0  0  0  0  0  0  0  0  0  0  0  0
   55.9550   29.7630   44.0620 C   0  0  0  0  0  0  0  0  0  0  0  0
   56.2250   31.0000   44.4960 N   0  0  0  0  0  0  0  0  0  0  0  0
   57.4070   31.2460   45.1030 C   0  0  0  0  0  0  0  0  0  0  0  0
   57.9460   32.8070   45.7360 S   0  0  0  0  0  0  0  0  0  0  0  0
   60.1517   34.4494   48.3537 H   0  0  0  0  0  0  0  0  0  0  0  0
   60.9317   34.9881   46.8279 H   0  0  0  0  0  0  0  0  0  0  0  0
   59.2047   34.4938   46.8279 H   0  0  0  0  0  0  0  0  0  0  0  0
   61.4920   32.8866   46.3246 H   0  0  0  0  0  0  0  0  0  0  0  0
   60.8145   32.3761   47.9275 H   0  0  0  0  0  0  0  0  0  0  0  0
   60.3436   30.0655   46.1510 H   0  0  0  0  0  0  0  0  0  0  0  0
   58.4245   26.0769   45.1918 H   0  0  0  0  0  0  0  0  0  0  0  0
   59.5757   26.8614   46.4092 H   0  0  0  0  0  0  0  0  0  0  0  0
   57.8614   26.5751   47.7956 H   0  0  0  0  0  0  0  0  0  0  0  0
   57.3178   28.1208   47.0335 H   0  0  0  0  0  0  0  0  0  0  0  0
   57.5928   23.8729   46.7520 H   0  0  0  0  0  0  0  0  0  0  0  0
   56.0220   23.0723   46.3827 H   0  0  0  0  0  0  0  0  0  0  0  0
   57.2059   25.1571   44.5648 H   0  0  0  0  0  0  0  0  0  0  0  0
   57.6861   23.3976   44.4953 H   0  0  0  0  0  0  0  0  0  0  0  0
   55.3985   22.5003   42.3510 H   0  0  0  0  0  0  0  0  0  0  0  0
   56.9541   23.4931   42.3201 H   0  0  0  0  0  0  0  0  0  0  0  0
   57.0212   21.7649   44.5418 H   0  0  0  0  0  0  0  0  0  0  0  0
   56.5842   20.8100   43.0844 H   0  0  0  0  0  0  0  0  0  0  0  0
   58.0699   21.8198   43.0844 H   0  0  0  0  0  0  0  0  0  0  0  0
   54.4096   22.2957   44.3406 H   0  0  0  0  0  0  0  0  0  0  0  0
   55.1257   23.2293   45.7630 H   0  0  0  0  0  0  0  0  0  0  0  0
   53.2329   24.2515   45.9367 H   0  0  0  0  0  0  0  0  0  0  0  0
   53.6249   25.0696   44.3863 H   0  0  0  0  0  0  0  0  0  0  0  0
   52.6282   23.5752   44.3863 H   0  0  0  0  0  0  0  0  0  0  0  0
   56.6420   27.8610   43.9010 H   0  0  0  0  0  0  0  0  0  0  0  0
   55.0029   29.5262   43.5646 H   0  0  0  0  0  0  0  0  0  0  0  0
  1  2  1  0
  2  3  1  0
  3  4  2  0
  4  5  1  0
  5  6  1  0
  6  7  2  0
  7  8  1  0
  8  9  1  0
  9 10  1  0
 10 11  2  0
 10 12  1  0
 12 13  1  0
 13 14  1  0
 14 15  1  0
 15 16  1  0
 16 17  1  0
 15 18  1  0
 18 19  1  0
  6 20  1  0
 20 21  1  0
 21 22  2  0
 22 23  1  0
 23 24  1  0
 24  3  1  0
 23  5  2  0
  1 25  1  0
  1 26  1  0
  1 27  1  0
  2 28  1  0
  2 29  1  0
  4 30  1  0
  8 31  1  0
  8 32  1  0
  9 33  1  0
  9 34  1  0
 13 35  1  0
 13 36  1  0
 14 37  1  0
 14 38  1  0
 16 39  1  0
 16 40  1  0
 17 41  1  0
 17 42  1  0
 17 43  1  0
 18 44  1  0
 18 45  1  0
 19 46  1  0
 19 47  1  0
 19 48  1  0
 20 49  1  0
 21 50  1  0
M  END
>  <smiles>  (24) 
CCc1cc2c(=NCCC(=O)OCCN(CC)CC)[nH]cnc2s1

>  <score_type>  (24) 
oracle

>  <origin>  (24) 
adg

>  <m_score__min__energy>  (24) 
-7.1799999999999997

>  <m_primary>  (24) 
energy

$$$$
24:0
     RDKit          3D

 36 37  0  0  0  0  0  0  0  0999 V2000
   58.5284   24.8158   47.2621 H   0  0  0  0  0  0  0  0  0  0  0  0
   58.3870   25.7070   46.6330 C   0  0  0  0  0  0  0  0  0  0  0  0
   58.1540   25.5640   45.2650 C   0  0  0  0  0  0  0  0  0  0  0  0
   58.1090   24.5599   44.8180 H   0  0  0  0  0  0  0  0  0  0  0  0
   57.9780   26.6910   44.4630 C   0  0  0  0  0  0  0  0  0  0  0  0
   57.7871   26.5712   43.3863 H   0  0  0  0  0  0  0  0  0  0  0  0
   58.0430   27.9800   45.0220 C   0  0  0  0  0  0  0  0  0  0  0  0
   57.8020   29.1800   44.1400 C   0  0  0  0  0  0  0  0  0  0  0  0
   57.8042   28.8638   43.0864 H   0  0  0  0  0  0  0  0  0  0  0  0
   58.5993   29.9185   44.3100 H   0  0  0  0  0  0  0  0  0  0  0  0
   56.4730   29.8040   44.4700 C   0  0  0  0  0  0  0  0  0  0  0  0
   55.5280   29.0700   44.8600 O   0  0  0  0  0  0  0  0  0  0  0  0
   56.3140   31.2290   44.5170 N   0  0  0  0  0  0  0  0  0  0  0  0
   57.2270   32.0860   44.8690 C   0  0  0  0  0  0  0  0  0  0  0  0
   57.7740   33.0990   44.0930 C   0  0  0  0  0  0  0  0  0  0  0  0
   57.5357   33.3561   43.0503 H   0  0  0  0  0  0  0  0  0  0  0  0
   58.6880   33.7110   44.9330 C   0  0  0  0  0  0  0  0  0  0  0  0
   59.3357   34.5592   44.6665 H   0  0  0  0  0  0  0  0  0  0  0  0
   58.6530   33.0950   46.1330 N   0  0  0  0  0  0  0  0  0  0  0  0
   59.5140   33.3890   47.2750 C   0  0  0  0  0  0  0  0  0  0  0  0
   59.6209   32.4844   47.8916 H   0  0  0  0  0  0  0  0  0  0  0  0
   59.0598   34.1967   47.8677 H   0  0  0  0  0  0  0  0  0  0  0  0
   60.8890   33.8370   46.7970 C   0  0  0  0  0  0  0  0  0  0  0  0
   61.5295   34.0457   47.6666 H   0  0  0  0  0  0  0  0  0  0  0  0
   61.3435   33.0405   46.1896 H   0  0  0  0  0  0  0  0  0  0  0  0
   60.7870   34.7484   46.1896 H   0  0  0  0  0  0  0  0  0  0  0  0
   57.7710   32.1110   46.0970 N   0  0  0  0  0  0  0  0  0  0  0  0
   57.5630   31.4610   46.8880 H   0  0  0  0  0  0  0  0  0  0  0  0
   58.2670   28.1290   46.4080 C   0  0  0  0  0  0  0  0  0  0  0  0
   58.3100   29.4220   46.9570 O   0  0  0  0  0  0  0  0  0  0  0  0
   59.3430   29.9100   47.8050 C   0  0  0  0  0  0  0  0  0  0  0  0
   59.0503   29.7717   48.8563 H   0  0  0  0  0  0  0  0  0  0  0  0
   60.2723   29.3557   47.6072 H   0  0  0  0  0  0  0  0  0  0  0  0
   59.5050   30.9799   47.6072 H   0  0  0  0  0  0  0  0  0  0  0  0
   58.4410   26.9800   47.2050 C   0  0  0  0  0  0  0  0  0  0  0  0
   58.6206   27.0864   48.2850 H   0  0  0  0  0  0  0  0  0  0  0  0
  1  2  1  0
  2  3  2  0
  3  4  1  0
  3  5  1  0
  5  6  1  0
  5  7  2  0
  7  8  1  0
  8  9  1  0
  8 10  1  0
  8 11  1  0
 11 12  2  0
 11 13  1  0
 13 14  2  0
 14 15  1  0
 15 16  1  0
 15 17  2  0
 17 18  1  0
 17 19  1  0
 19 20  1  0
 20 21  1  0
 20 22  1  0
 20 23  1  0
 23 24  1  0
 23 25  1  0
 23 26  1  0
 19 27  1  0
 27 28  1  0
  7 29  1  0
 29 30  1  0
 30 31  1  0
 31 32  1  0
 31 33  1  0
 31 34  1  0
 29 35  2  0
 35 36  1  0
 35  2  1  0
 27 14  1  0
M  END
>  <UniqueID>  (25) 
24

>  <SMILES>  (25) 
CCn1cc/c(=N\C(=O)Cc2ccccc2OC)[nH]1

>  <Energy>  (25) 
68.0198748176689

>  <Genealogy>  (25) 
CCn1cc/c(=N\C(=O)Cc2ccccc2OC)[nH]1 (cis-trans isomerization)
CCn1cc/c(=N\C(=O)Cc2ccccc2OC)[nH]1 (3D coordinates assigned)
CCn1cc/c(=N\C(=O)Cc2ccccc2OC)[nH]1 (optimized conformer: 68.0198748176689 kcal/mol)

>  <smiles>  (25) 
CCn1ccc(=NC(=O)Cc2ccccc2OC)[nH]1

>  <score_type>  (25) 
oracle

>  <origin>  (25) 
adg

>  <m_score__min__energy>  (25) 
-6.4699999999999998

>  <m_primary>  (25) 
energy

$$$$
25:0
     RDKit          3D

 72 74  0  0  0  0  0  0  0  0999 V2000
   62.5210   31.9490   47.3170 C   0  0  0  0  0  0  0  0  0  0  0  0
   61.4500   31.4100   48.0840 O   0  0  0  0  0  0  0  0  0  0  0  0
   61.6100   30.5590   49.1910 C   0  0  0  0  0  0  0  0  0  0  0  0
   62.4960   30.8720   50.2430 C   0  0  0  0  0  0  0  0  0  0  0  0
   62.6590   29.9930   51.3150 C   0  0  0  0  0  0  0  0  0  0  0  0
   61.9460   28.7950   51.3520 C   0  0  0  0  0  0  0  0  0  0  0  0
   61.0630   28.4740   50.3210 C   0  0  0  0  0  0  0  0  0  0  0  0
   60.8790   29.3520   49.2380 C   0  0  0  0  0  0  0  0  0  0  0  0
   59.9550   29.0050   48.1880 N   0  0  0  0  0  0  0  0  0  0  0  0
   58.9850   29.9950   47.7060 C   0  0  0  0  0  0  0  0  0  0  0  0
   57.8650   29.3040   46.9210 C   0  0  0  0  0  0  0  0  0  0  0  0
   58.3840   28.4850   45.7950 N   0  0  0  0  0  0  0  0  0  0  0  0
   58.4360   29.2560   44.5290 C   0  0  0  0  0  0  0  0  0  0  0  0
   57.0290   29.5960   43.9920 C   0  0  1  0  0  0  0  0  0  0  0  0
   56.0650   29.3340   44.9780 O   0  0  0  0  0  0  0  0  0  0  0  0
   56.9160   31.0580   43.5180 C   0  0  0  0  0  0  0  0  0  0  0  0
   56.6370   31.9430   44.6040 O   0  0  0  0  0  0  0  0  0  0  0  0
   57.5940   32.6480   45.3510 C   0  0  0  0  0  0  0  0  0  0  0  0
   58.7360   33.2300   44.7720 C   0  0  0  0  0  0  0  0  0  0  0  0
   59.6580   33.9160   45.5690 C   0  0  0  0  0  0  0  0  0  0  0  0
   59.4580   34.0220   46.9540 C   0  0  0  0  0  0  0  0  0  0  0  0
   60.4330   34.7850   47.8100 C   0  0  0  0  0  0  0  0  0  0  0  0
   60.1430   34.5530   49.2990 C   0  0  0  0  0  0  0  0  0  0  0  0
   60.3810   33.1480   49.6630 N   0  0  0  0  0  0  0  0  0  0  0  0
   59.9010   32.8780   51.0310 C   0  0  0  0  0  0  0  0  0  0  0  0
   58.4140   32.4520   51.0520 C   0  0  0  0  0  0  0  0  0  0  0  0
   58.2500   30.9290   50.9400 C   0  0  0  0  0  0  0  0  0  0  0  0
   57.7400   32.9570   52.3340 C   0  0  0  0  0  0  0  0  0  0  0  0
   58.3090   33.4580   47.5260 C   0  0  0  0  0  0  0  0  0  0  0  0
   57.3860   32.7770   46.7300 C   0  0  0  0  0  0  0  0  0  0  0  0
   59.6710   27.7920   46.0800 C   0  0  0  0  0  0  0  0  0  0  0  0
   59.9750   27.6710   47.5780 C   0  0  0  0  0  0  0  0  0  0  0  0
   63.2961   32.3391   47.9930 H   0  0  0  0  0  0  0  0  0  0  0  0
   62.9511   31.1600   46.6826 H   0  0  0  0  0  0  0  0  0  0  0  0
   62.1435   32.7645   46.6826 H   0  0  0  0  0  0  0  0  0  0  0  0
   63.0621   31.8148   50.2184 H   0  0  0  0  0  0  0  0  0  0  0  0
   63.3510   30.2456   52.1319 H   0  0  0  0  0  0  0  0  0  0  0  0
   62.0802   28.1020   52.1957 H   0  0  0  0  0  0  0  0  0  0  0  0
   60.5059   27.5261   50.3554 H   0  0  0  0  0  0  0  0  0  0  0  0
   58.5510   30.5262   48.5659 H   0  0  0  0  0  0  0  0  0  0  0  0
   59.4994   30.7069   47.0437 H   0  0  0  0  0  0  0  0  0  0  0  0
   57.3059   28.6492   47.6056 H   0  0  0  0  0  0  0  0  0  0  0  0
   57.2205   30.0877   46.4963 H   0  0  0  0  0  0  0  0  0  0  0  0
   58.9825   30.1937   44.7081 H   0  0  0  0  0  0  0  0  0  0  0  0
   58.9422   28.6336   43.7764 H   0  0  0  0  0  0  0  0  0  0  0  0
   56.8505   28.9563   43.1151 H   0  0  0  0  0  0  0  0  0  0  0  0
   56.0850   30.0990   45.6100 H   0  0  0  0  0  0  0  0  0  0  0  0
   57.8658   31.3558   43.0498 H   0  0  0  0  0  0  0  0  0  0  0  0
   56.0860   31.1233   42.7991 H   0  0  0  0  0  0  0  0  0  0  0  0
   58.9046   33.1453   43.6883 H   0  0  0  0  0  0  0  0  0  0  0  0
   60.5449   34.3750   45.1077 H   0  0  0  0  0  0  0  0  0  0  0  0
   61.4547   34.4459   47.5838 H   0  0  0  0  0  0  0  0  0  0  0  0
   60.3307   35.8584   47.5924 H   0  0  0  0  0  0  0  0  0  0  0  0
   60.8012   35.1980   49.8997 H   0  0  0  0  0  0  0  0  0  0  0  0
   59.0881   34.7951   49.4954 H   0  0  0  0  0  0  0  0  0  0  0  0
   59.8770   32.5270   48.9870 H   0  0  0  0  0  0  0  0  0  0  0  0
   61.4090   32.9590   49.6130 H   0  0  0  0  0  0  0  0  0  0  0  0
   60.5076   32.0705   51.4669 H   0  0  0  0  0  0  0  0  0  0  0  0
   59.9958   33.8067   51.6129 H   0  0  0  0  0  0  0  0  0  0  0  0
   57.9283   32.9049   50.1751 H   0  0  0  0  0  0  0  0  0  0  0  0
   58.2028   30.4902   51.9476 H   0  0  0  0  0  0  0  0  0  0  0  0
   57.3219   30.6992   50.3961 H   0  0  0  0  0  0  0  0  0  0  0  0
   59.1079   30.5068   50.3961 H   0  0  0  0  0  0  0  0  0  0  0  0
   58.2726   32.5580   53.2099 H   0  0  0  0  0  0  0  0  0  0  0  0
   57.7706   34.0564   52.3557 H   0  0  0  0  0  0  0  0  0  0  0  0
   56.6935   32.6188   52.3557 H   0  0  0  0  0  0  0  0  0  0  0  0
   58.1337   33.5525   48.6078 H   0  0  0  0  0  0  0  0  0  0  0  0
   56.4881   32.3382   47.1897 H   0  0  0  0  0  0  0  0  0  0  0  0
   59.6258   26.7806   45.6500 H   0  0  0  0  0  0  0  0  0  0  0  0
   60.4733   28.3969   45.6322 H   0  0  0  0  0  0  0  0  0  0  0  0
   59.2143   27.0369   48.0569 H   0  0  0  0  0  0  0  0  0  0  0  0
   60.9680   27.2183   47.7163 H   0  0  0  0  0  0  0  0  0  0  0  0
  1  2  1  0
  2  3  1  0
  3  4  2  0
  4  5  1  0
  5  6  2  0
  6  7  1  0
  7  8  2  0
  8  9  1  0
  9 10  1  0
 10 11  1  0
 11 12  1  0
 12 13  1  0
 13 14  1  0
 14 15  1  0
 14 16  1  0
 16 17  1  0
 17 18  1  0
 18 19  2  0
 19 20  1  0
 20 21  2  0
 21 22  1  0
 22 23  1  0
 23 24  1  0
 24 25  1  0
 25 26  1  0
 26 27  1  0
 26 28  1  0
 21 29  1  0
 29 30  2  0
 12 31  1  0
 31 32  1  0
  8  3  1  0
 32  9  1  0
 30 18  1  0
  1 33  1  0
  1 34  1  0
  1 35  1  0
  4 36  1  0
  5 37  1  0
  6 38  1  0
  7 39  1  0
 10 40  1  0
 10 41  1  0
 11 42  1  0
 11 43  1  0
 13 44  1  0
 13 45  1  0
 14 46  1  6
 15 47  1  0
 16 48  1  0
 16 49  1  0
 19 50  1  0
 20 51  1  0
 22 52  1  0
 22 53  1  0
 23 54  1  0
 23 55  1  0
 24 56  1  0
 24 57  1  0
 25 58  1  0
 25 59  1  0
 26 60  1  0
 27 61  1  0
 27 62  1  0
 27 63  1  0
 28 64  1  0
 28 65  1  0
 28 66  1  0
 29 67  1  0
 30 68  1  0
 31 69  1  0
 31 70  1  0
 32 71  1  0
 32 72  1  0
M  CHG  1  24   1
M  END
>  <UniqueID>  (26) 
25

>  <SMILES>  (26) 
COc1ccccc1N1CCN(C[C@@H](O)COc2ccc(CC[NH2+]CC(C)C)cc2)CC1

>  <Energy>  (26) 
74.78761927019666

>  <Genealogy>  (26) 
COc1ccccc1N1CCN(CC(O)COc2ccc(CC[NH2+]CC(C)C)cc2)CC1 (protonated)
COc1ccccc1N1CCN(C[C@@H](O)COc2ccc(CC[NH2+]CC(C)C)cc2)CC1 (chirality)
COc1ccccc1N1CCN(C[C@@H](O)COc2ccc(CC[NH2+]CC(C)C)cc2)CC1 (3D coordinates assigned)
COc1ccccc1N1CCN(C[C@@H](O)COc2ccc(CC[NH2+]CC(C)C)cc2)CC1 (nonaromatic ring conformer: 74.78761927019666 kcal/mol)

>  <smiles>  (26) 
COc1ccccc1N1CCN(CC(O)COc2ccc(CCNCC(C)C)cc2)CC1

>  <score_type>  (26) 
oracle

>  <origin>  (26) 
adg

>  <m_score__min__energy>  (26) 
-6.7400000000000002

>  <m_primary>  (26) 
energy

$$$$
26:0
     RDKit          3D

 48 50  0  0  0  0  0  0  0  0999 V2000
   57.7530   32.9960   44.0240 C   0  0  0  0  0  0  0  0  0  0  0  0
   57.5320   33.6720   45.2580 O   0  0  0  0  0  0  0  0  0  0  0  0
   58.4740   33.7500   46.2960 C   0  0  0  0  0  0  0  0  0  0  0  0
   59.7010   34.4320   46.1560 C   0  0  0  0  0  0  0  0  0  0  0  0
   60.6110   34.4690   47.2170 C   0  0  0  0  0  0  0  0  0  0  0  0
   60.3110   33.8230   48.4220 C   0  0  0  0  0  0  0  0  0  0  0  0
   61.4870   33.8470   49.7780 S   0  0  0  0  0  0  0  0  0  0  0  0
   62.9810   34.0560   48.7320 C   0  0  0  0  0  0  0  0  0  0  0  0
   63.5440   32.7200   48.2260 C   0  0  0  0  0  0  0  0  0  0  0  0
   62.8450   31.5840   48.8310 N   0  0  0  0  0  0  0  0  0  0  0  0
   61.6720   30.9770   48.2590 C   0  0  0  0  0  0  0  0  0  0  0  0
   60.7640   30.2370   49.0410 C   0  0  0  0  0  0  0  0  0  0  0  0
   59.6500   29.6340   48.4510 C   0  0  0  0  0  0  0  0  0  0  0  0
   59.4170   29.7610   47.0720 C   0  0  0  0  0  0  0  0  0  0  0  0
   58.2720   29.1270   46.4690 N   0  0  0  0  0  0  0  0  0  0  0  0
   57.7700   27.8550   46.9990 C   0  0  0  0  0  0  0  0  0  0  0  0
   57.0430   27.0820   45.8900 C   0  0  0  0  0  0  0  0  0  0  0  0
   56.0620   27.8900   45.2690 O   0  0  0  0  0  0  0  0  0  0  0  0
   56.6840   28.9750   44.6050 C   0  0  0  0  0  0  0  0  0  0  0  0
   57.3740   29.9050   45.6090 C   0  0  0  0  0  0  0  0  0  0  0  0
   60.3150   30.5110   46.2960 C   0  0  0  0  0  0  0  0  0  0  0  0
   61.4300   31.1140   46.8860 C   0  0  0  0  0  0  0  0  0  0  0  0
   59.0830   33.1650   48.5730 C   0  0  0  0  0  0  0  0  0  0  0  0
   58.1750   33.1230   47.5120 C   0  0  0  0  0  0  0  0  0  0  0  0
   58.0891   31.9679   44.2242 H   0  0  0  0  0  0  0  0  0  0  0  0
   56.8166   32.9699   43.4474 H   0  0  0  0  0  0  0  0  0  0  0  0
   58.5240   33.5281   43.4474 H   0  0  0  0  0  0  0  0  0  0  0  0
   59.9427   34.9364   45.2088 H   0  0  0  0  0  0  0  0  0  0  0  0
   61.5641   35.0066   47.1046 H   0  0  0  0  0  0  0  0  0  0  0  0
   62.7181   34.6781   47.8638 H   0  0  0  0  0  0  0  0  0  0  0  0
   63.7565   34.5288   49.3525 H   0  0  0  0  0  0  0  0  0  0  0  0
   63.4261   32.6724   47.1334 H   0  0  0  0  0  0  0  0  0  0  0  0
   64.6062   32.6628   48.5060 H   0  0  0  0  0  0  0  0  0  0  0  0
   63.2040   31.2070   49.7420 H   0  0  0  0  0  0  0  0  0  0  0  0
   60.9328   30.1331   50.1230 H   0  0  0  0  0  0  0  0  0  0  0  0
   58.9501   29.0553   49.0716 H   0  0  0  0  0  0  0  0  0  0  0  0
   58.6141   27.2550   47.3697 H   0  0  0  0  0  0  0  0  0  0  0  0
   57.0688   28.0554   47.8225 H   0  0  0  0  0  0  0  0  0  0  0  0
   57.7759   26.7616   45.1349 H   0  0  0  0  0  0  0  0  0  0  0  0
   56.5459   26.2094   46.3388 H   0  0  0  0  0  0  0  0  0  0  0  0
   57.4336   28.5848   43.9009 H   0  0  0  0  0  0  0  0  0  0  0  0
   55.9138   29.5469   44.0668 H   0  0  0  0  0  0  0  0  0  0  0  0
   57.9557   30.6634   45.0645 H   0  0  0  0  0  0  0  0  0  0  0  0
   56.6124   30.3986   46.2305 H   0  0  0  0  0  0  0  0  0  0  0  0
   60.1401   30.6251   45.2160 H   0  0  0  0  0  0  0  0  0  0  0  0
   62.1236   31.7014   46.2664 H   0  0  0  0  0  0  0  0  0  0  0  0
   58.8335   32.6807   49.5286 H   0  0  0  0  0  0  0  0  0  0  0  0
   57.2183   32.5936   47.6327 H   0  0  0  0  0  0  0  0  0  0  0  0
  1  2  1  0
  2  3  1  0
  3  4  2  0
  4  5  1  0
  5  6  2  0
  6  7  1  0
  7  8  1  0
  8  9  1  0
  9 10  1  0
 10 11  1  0
 11 12  2  0
 12 13  1  0
 13 14  2  0
 14 15  1  0
 15 16  1  0
 16 17  1  0
 17 18  1  0
 18 19  1  0
 19 20  1  0
 14 21  1  0
 21 22  2  0
  6 23  1  0
 23 24  2  0
 24  3  1  0
 22 11  1  0
 20 15  1  0
  1 25  1  0
  1 26  1  0
  1 27  1  0
  4 28  1  0
  5 29  1  0
  8 30  1  0
  8 31  1  0
  9 32  1  0
  9 33  1  0
 10 34  1  0
 12 35  1  0
 13 36  1  0
 16 37  1  0
 16 38  1  0
 17 39  1  0
 17 40  1  0
 19 41  1  0
 19 42  1  0
 20 43  1  0
 20 44  1  0
 21 45  1  0
 22 46  1  0
 23 47  1  0
 24 48  1  0
M  END
>  <UniqueID>  (27) 
26

>  <SMILES>  (27) 
COc1ccc(SCCNc2ccc(N3CCOCC3)cc2)cc1

>  <Energy>  (27) 
48.47114930146873

>  <Genealogy>  (27) 
COc1ccc(SCCNc2ccc(N3CCOCC3)cc2)cc1 (3D coordinates assigned)
COc1ccc(SCCNc2ccc(N3CCOCC3)cc2)cc1 (nonaromatic ring conformer: 48.47114930146873 kcal/mol)

>  <smiles>  (27) 
COc1ccc(SCCNc2ccc(N3CCOCC3)cc2)cc1

>  <score_type>  (27) 
oracle

>  <origin>  (27) 
adg

>  <m_score__min__energy>  (27) 
-7.4100000000000001

>  <m_primary>  (27) 
energy

$$$$
27:0
     RDKit          3D

 33 35  0  0  1  0  0  0  0  0999 V2000
   58.6250   27.4700   46.2280 C   0  0  0  0  0  0  0  0  0  0  0  0
   57.7080   28.5570   46.0150 N   0  0  0  0  0  0  0  0  0  0  0  0
   58.2130   29.8330   46.4190 C   0  0  0  0  0  0  0  0  0  0  0  0
   58.3530   30.6760   45.1690 C   0  0  1  0  0  0  0  0  0  0  0  0
   58.5410   29.5550   44.1380 C   0  0  0  0  0  0  0  0  0  0  0  0
   57.3940   28.6650   44.5810 C   0  0  2  0  0  0  0  0  0  0  0  0
   56.0640   29.3480   44.5060 C   0  0  0  0  0  0  0  0  0  0  0  0
   56.2410   30.7870   44.0350 C   0  0  0  0  0  0  0  0  0  0  0  0
   57.1680   31.4320   44.9200 N   0  0  0  0  0  0  0  0  0  0  0  0
   57.3990   32.7750   44.5040 C   0  0  0  0  0  0  0  0  0  0  0  0
   58.2640   33.5150   45.5200 C   0  0  0  0  0  0  0  0  0  0  0  0
   59.2640   34.2950   45.1580 C   0  0  0  0  0  0  0  0  0  0  0  0
   60.0060   34.9370   46.1660 C   0  0  0  0  0  0  0  0  0  0  0  0
   59.2490   34.4080   47.7360 S   0  0  0  0  0  0  0  0  0  0  0  0
   57.9580   33.3370   46.8710 C   0  0  0  0  0  0  0  0  0  0  0  0
   58.7598   27.3103   47.3080 H   0  0  0  0  0  0  0  0  0  0  0  0
   58.2219   26.5550   45.7695 H   0  0  0  0  0  0  0  0  0  0  0  0
   59.5948   27.7133   45.7695 H   0  0  0  0  0  0  0  0  0  0  0  0
   57.5122   30.3110   47.1193 H   0  0  0  0  0  0  0  0  0  0  0  0
   59.1823   29.7257   46.9279 H   0  0  0  0  0  0  0  0  0  0  0  0
   59.1516   31.4322   45.1897 H   0  0  0  0  0  0  0  0  0  0  0  0
   58.4155   29.9133   43.1056 H   0  0  0  0  0  0  0  0  0  0  0  0
   59.5349   29.0844   44.1128 H   0  0  0  0  0  0  0  0  0  0  0  0
   57.3176   27.7459   43.9814 H   0  0  0  0  0  0  0  0  0  0  0  0
   55.4179   28.8098   43.7969 H   0  0  0  0  0  0  0  0  0  0  0  0
   55.6029   29.3498   45.5047 H   0  0  0  0  0  0  0  0  0  0  0  0
   56.6357   30.7979   43.0083 H   0  0  0  0  0  0  0  0  0  0  0  0
   55.2752   31.3135   44.0432 H   0  0  0  0  0  0  0  0  0  0  0  0
   57.9116   32.7681   43.5308 H   0  0  0  0  0  0  0  0  0  0  0  0
   56.4308   33.2907   44.4227 H   0  0  0  0  0  0  0  0  0  0  0  0
   59.5113   34.4397   44.0960 H   0  0  0  0  0  0  0  0  0  0  0  0
   60.8621   35.6150   46.0340 H   0  0  0  0  0  0  0  0  0  0  0  0
   57.1620   32.7245   47.3196 H   0  0  0  0  0  0  0  0  0  0  0  0
  1  2  1  0
  2  3  1  0
  3  4  1  0
  4  5  1  0
  5  6  1  0
  6  7  1  0
  7  8  1  0
  8  9  1  0
  9 10  1  0
 10 11  1  0
 11 12  1  0
 12 13  2  0
 13 14  1  0
 14 15  1  0
  6  2  1  0
 15 11  2  0
  9  4  1  0
  1 16  1  0
  1 17  1  0
  1 18  1  0
  3 19  1  0
  3 20  1  0
  4 21  1  1
  5 22  1  0
  5 23  1  0
  6 24  1  6
  7 25  1  0
  7 26  1  0
  8 27  1  0
  8 28  1  0
 10 29  1  0
 10 30  1  0
 12 31  1  0
 13 32  1  0
 15 33  1  0
M  END
>  <smiles>  (28) 
CN1CC2CC1CCN2Cc1ccsc1

>  <score_type>  (28) 
oracle

>  <origin>  (28) 
adg

>  <m_score__min__energy>  (28) 
-6.3499999999999996

>  <m_primary>  (28) 
energy

$$$$
28:0
     RDKit          3D

 65 66  0  0  0  0  0  0  0  0999 V2000
   59.1280   29.0620   52.7230 C   0  0  0  0  0  0  0  0  0  0  0  0
   57.6320   29.3490   52.8100 C   0  0  0  0  0  0  0  0  0  0  0  0
   57.1820   30.1000   51.6160 N   0  0  0  0  0  0  0  0  0  0  0  0
   56.2990   31.2270   51.9940 C   0  0  0  0  0  0  0  0  0  0  0  0
   54.8480   30.7590   52.0650 C   0  0  0  0  0  0  0  0  0  0  0  0
   58.3370   30.5720   50.8180 C   0  0  0  0  0  0  0  0  0  0  0  0
   58.4860   32.0900   50.9530 C   0  0  0  0  0  0  0  0  0  0  0  0
   59.8430   32.4720   50.7480 O   0  0  0  0  0  0  0  0  0  0  0  0
   60.6650   31.8950   49.7720 C   0  0  0  0  0  0  0  0  0  0  0  0
   61.1370   30.7370   49.9490 O   0  0  0  0  0  0  0  0  0  0  0  0
   60.9510   32.6740   48.4970 C   0  0  1  0  0  0  0  0  0  0  0  0
   60.9310   34.1740   48.9030 C   0  0  0  0  0  0  0  0  0  0  0  0
   62.3460   32.3160   47.8830 C   0  0  0  0  0  0  0  0  0  0  0  0
   63.0660   33.4600   47.1530 C   0  0  0  0  0  0  0  0  0  0  0  0
   59.8960   32.3540   47.4780 N   0  0  0  0  0  0  0  0  0  0  0  0
   58.9830   31.2060   47.7000 C   0  0  0  0  0  0  0  0  0  0  0  0
   59.1820   30.0660   46.7200 C   0  0  0  0  0  0  0  0  0  0  0  0
   60.3750   29.8850   45.9920 C   0  0  0  0  0  0  0  0  0  0  0  0
   60.4950   28.8330   45.0780 C   0  0  0  0  0  0  0  0  0  0  0  0
   59.4270   27.9590   44.8730 C   0  0  0  0  0  0  0  0  0  0  0  0
   58.2360   28.1340   45.5800 C   0  0  0  0  0  0  0  0  0  0  0  0
   58.1120   29.1830   46.4970 C   0  0  0  0  0  0  0  0  0  0  0  0
   59.4860   33.3840   46.5230 C   0  0  0  0  0  0  0  0  0  0  0  0
   60.3190   33.8450   45.6960 O   0  0  0  0  0  0  0  0  0  0  0  0
   58.1450   34.0060   46.5130 C   0  0  0  0  0  0  0  0  0  0  0  0
   57.0660   33.4140   45.9960 C   0  0  0  0  0  0  0  0  0  0  0  0
   57.1670   32.4590   44.8850 C   0  0  0  0  0  0  0  0  0  0  0  0
   57.9030   32.6530   43.7330 C   0  0  0  0  0  0  0  0  0  0  0  0
   57.7150   31.5160   42.9770 C   0  0  0  0  0  0  0  0  0  0  0  0
   56.8790   30.6990   43.7120 C   0  0  0  0  0  0  0  0  0  0  0  0
   56.5700   31.2890   44.8450 O   0  0  0  0  0  0  0  0  0  0  0  0
   59.5456   28.9819   53.7375 H   0  0  0  0  0  0  0  0  0  0  0  0
   59.2893   28.1165   52.1844 H   0  0  0  0  0  0  0  0  0  0  0  0
   59.6277   29.8807   52.1844 H   0  0  0  0  0  0  0  0  0  0  0  0
   57.0829   28.3976   52.8684 H   0  0  0  0  0  0  0  0  0  0  0  0
   57.4355   29.9536   53.7077 H   0  0  0  0  0  0  0  0  0  0  0  0
   56.6045   31.6139   52.9773 H   0  0  0  0  0  0  0  0  0  0  0  0
   56.3838   32.0193   51.2357 H   0  0  0  0  0  0  0  0  0  0  0  0
   54.5453   30.6614   53.1180 H   0  0  0  0  0  0  0  0  0  0  0  0
   54.2008   31.4939   51.5641 H   0  0  0  0  0  0  0  0  0  0  0  0
   54.7522   29.7844   51.5641 H   0  0  0  0  0  0  0  0  0  0  0  0
   59.2534   30.0830   51.1802 H   0  0  0  0  0  0  0  0  0  0  0  0
   58.1705   30.3197   49.7604 H   0  0  0  0  0  0  0  0  0  0  0  0
   57.8520   32.5853   50.2029 H   0  0  0  0  0  0  0  0  0  0  0  0
   58.1773   32.3921   51.9647 H   0  0  0  0  0  0  0  0  0  0  0  0
   60.9299   34.2570   49.9999 H   0  0  0  0  0  0  0  0  0  0  0  0
   61.8225   34.6753   48.4983 H   0  0  0  0  0  0  0  0  0  0  0  0
   60.0264   34.6514   48.4983 H   0  0  0  0  0  0  0  0  0  0  0  0
   62.9974   31.9740   48.7007 H   0  0  0  0  0  0  0  0  0  0  0  0
   62.1494   31.5495   47.1189 H   0  0  0  0  0  0  0  0  0  0  0  0
   63.5003   34.1501   47.8913 H   0  0  0  0  0  0  0  0  0  0  0  0
   63.8667   33.0461   46.5225 H   0  0  0  0  0  0  0  0  0  0  0  0
   62.3465   34.0029   46.5225 H   0  0  0  0  0  0  0  0  0  0  0  0
   59.1501   30.8219   48.7171 H   0  0  0  0  0  0  0  0  0  0  0  0
   57.9586   31.5789   47.5532 H   0  0  0  0  0  0  0  0  0  0  0  0
   61.2176   30.5757   46.1436 H   0  0  0  0  0  0  0  0  0  0  0  0
   61.4328   28.6946   44.5200 H   0  0  0  0  0  0  0  0  0  0  0  0
   59.5234   27.1319   44.1542 H   0  0  0  0  0  0  0  0  0  0  0  0
   57.3937   27.4459   45.4157 H   0  0  0  0  0  0  0  0  0  0  0  0
   57.1694   29.3177   47.0479 H   0  0  0  0  0  0  0  0  0  0  0  0
   58.0305   35.0073   46.9539 H   0  0  0  0  0  0  0  0  0  0  0  0
   56.0753   33.6476   46.4131 H   0  0  0  0  0  0  0  0  0  0  0  0
   58.5120   33.5313   43.4730 H   0  0  0  0  0  0  0  0  0  0  0  0
   58.1446   31.3024   41.9871 H   0  0  0  0  0  0  0  0  0  0  0  0
   56.5256   29.7060   43.3973 H   0  0  0  0  0  0  0  0  0  0  0  0
  1  2  1  0
  2  3  1  0
  3  4  1  0
  4  5  1  0
  3  6  1  0
  6  7  1  0
  7  8  1  0
  8  9  1  0
  9 10  2  0
  9 11  1  0
 11 12  1  0
 11 13  1  0
 13 14  1  0
 11 15  1  6
 15 16  1  0
 16 17  1  0
 17 18  2  0
 18 19  1  0
 19 20  2  0
 20 21  1  0
 21 22  2  0
 15 23  1  0
 23 24  2  0
 23 25  1  0
 25 26  2  3
 26 27  1  0
 27 28  2  0
 28 29  1  0
 29 30  2  0
 30 31  1  0
 22 17  1  0
 31 27  1  0
  1 32  1  0
  1 33  1  0
  1 34  1  0
  2 35  1  0
  2 36  1  0
  4 37  1  0
  4 38  1  0
  5 39  1  0
  5 40  1  0
  5 41  1  0
  6 42  1  0
  6 43  1  0
  7 44  1  0
  7 45  1  0
 12 46  1  0
 12 47  1  0
 12 48  1  0
 13 49  1  0
 13 50  1  0
 14 51  1  0
 14 52  1  0
 14 53  1  0
 16 54  1  0
 16 55  1  0
 18 56  1  0
 19 57  1  0
 20 58  1  0
 21 59  1  0
 22 60  1  0
 25 61  1  0
 26 62  1  0
 28 63  1  0
 29 64  1  0
 30 65  1  0
M  END
>  <UniqueID>  (29) 
27

>  <SMILES>  (29) 
CCN(CC)CCOC(=O)[C@@](C)(CC)N(Cc1ccccc1)C(=O)C=Cc1ccco1

>  <Energy>  (29) 
96.74004328387868

>  <Genealogy>  (29) 
CCN(CC)CCOC(=O)[C@@](C)(CC)N(Cc1ccccc1)C(=O)C=Cc1ccco1 (chirality)
CCN(CC)CCOC(=O)[C@@](C)(CC)N(Cc1ccccc1)C(=O)C=Cc1ccco1 (3D coordinates assigned)
CCN(CC)CCOC(=O)[C@@](C)(CC)N(Cc1ccccc1)C(=O)C=Cc1ccco1 (optimized conformer: 96.74004328387868 kcal/mol)

>  <smiles>  (29) 
CCN(CC)CCOC(=O)C(C)(CC)N(Cc1ccccc1)C(=O)C=Cc1ccco1

>  <score_type>  (29) 
oracle

>  <origin>  (29) 
adg

>  <m_score__min__energy>  (29) 
-7.9000000000000004

>  <m_primary>  (29) 
energy

$$$$
29:0
     RDKit          3D

 29 30  0  0  0  0  0  0  0  0999 V2000
   58.3627   33.6853   43.9414 H   0  0  0  0  0  0  0  0  0  0  0  0
   58.1160   32.6460   44.2040 C   0  0  0  0  0  0  0  0  0  0  0  0
   57.4130   31.8470   43.3000 C   0  0  0  0  0  0  0  0  0  0  0  0
   57.1002   32.2642   42.3315 H   0  0  0  0  0  0  0  0  0  0  0  0
   57.1020   30.5140   43.6180 C   0  0  0  0  0  0  0  0  0  0  0  0
   56.3410   29.6750   42.6280 C   0  0  0  0  0  0  0  0  0  0  0  0
   55.6970   28.9650   43.1676 H   0  0  0  0  0  0  0  0  0  0  0  0
   55.7195   30.3267   41.9963 H   0  0  0  0  0  0  0  0  0  0  0  0
   57.0500   29.1199   41.9963 H   0  0  0  0  0  0  0  0  0  0  0  0
   57.5000   29.9860   44.8700 C   0  0  0  0  0  0  0  0  0  0  0  0
   57.1490   28.6380   45.2390 N   0  0  0  0  0  0  0  0  0  0  0  0
   56.2630   28.2290   44.8680 H   0  0  0  0  0  0  0  0  0  0  0  0
   57.9860   27.7900   46.0370 C   0  0  0  0  0  0  0  0  0  0  0  0
   59.1690   28.1360   46.2980 O   0  0  0  0  0  0  0  0  0  0  0  0
   57.4660   26.5270   46.4830 N   0  0  0  0  0  0  0  0  0  0  0  0
   56.3430   25.9540   46.1560 C   0  0  0  0  0  0  0  0  0  0  0  0
   55.2030   26.6510   45.9940 N   0  0  0  0  0  0  0  0  0  0  0  0
   54.2780   25.7900   45.6830 O   0  0  0  0  0  0  0  0  0  0  0  0
   54.7640   24.5720   45.6340 C   0  0  0  0  0  0  0  0  0  0  0  0
   53.9620   23.3520   45.3290 C   0  0  0  0  0  0  0  0  0  0  0  0
   53.6483   22.8749   46.2692 H   0  0  0  0  0  0  0  0  0  0  0  0
   53.0726   23.6340   44.7464 H   0  0  0  0  0  0  0  0  0  0  0  0
   54.5736   22.6473   44.7464 H   0  0  0  0  0  0  0  0  0  0  0  0
   56.1090   24.6050   45.9380 C   0  0  0  0  0  0  0  0  0  0  0  0
   56.8203   23.7678   45.9937 H   0  0  0  0  0  0  0  0  0  0  0  0
   58.1940   30.8090   45.7740 C   0  0  0  0  0  0  0  0  0  0  0  0
   58.4942   30.4100   46.7542 H   0  0  0  0  0  0  0  0  0  0  0  0
   58.5060   32.1290   45.4390 C   0  0  0  0  0  0  0  0  0  0  0  0
   59.1750   32.9120   46.3200 F   0  0  0  0  0  0  0  0  0  0  0  0
  1  2  1  0
  2  3  2  0
  3  4  1  0
  3  5  1  0
  5  6  1  0
  6  7  1  0
  6  8  1  0
  6  9  1  0
  5 10  2  0
 10 11  1  0
 11 12  1  0
 11 13  1  0
 13 14  2  0
 13 15  1  0
 15 16  2  0
 16 17  1  0
 17 18  1  0
 18 19  1  0
 19 20  1  0
 20 21  1  0
 20 22  1  0
 20 23  1  0
 19 24  2  0
 24 25  1  0
 10 26  1  0
 26 27  1  0
 26 28  2  0
 28 29  1  0
 28  2  1  0
 24 16  1  0
M  CHG  1  17  -1
M  END
>  <UniqueID>  (30) 
28

>  <SMILES>  (30) 
Cc1c/c(=N\C(=O)Nc2cc(F)ccc2C)[n-]o1

>  <Energy>  (30) 
66.9090280725919

>  <Genealogy>  (30) 
Cc1cc(=NC(=O)Nc2cc(F)ccc2C)[n-]o1 (protonated)
Cc1c/c(=N\C(=O)Nc2cc(F)ccc2C)[n-]o1 (cis-trans isomerization)
Cc1c/c(=N\C(=O)Nc2cc(F)ccc2C)[n-]o1 (3D coordinates assigned)
Cc1c/c(=N\C(=O)Nc2cc(F)ccc2C)[n-]o1 (optimized conformer: 66.9090280725919 kcal/mol)

>  <smiles>  (30) 
Cc1cc(=NC(=O)Nc2cc(F)ccc2C)[nH]o1

>  <score_type>  (30) 
oracle

>  <origin>  (30) 
adg

>  <m_score__min__energy>  (30) 
-8.5600000000000005

>  <m_primary>  (30) 
energy

$$$$
30:0
     RDKit          3D

 27 28  0  0  0  0  0  0  0  0999 V2000
   59.6470   35.4490   46.3190 C   0  0  0  0  0  0  0  0  0  0  0  0
   59.5590   34.0940   46.7480 O   0  0  0  0  0  0  0  0  0  0  0  0
   58.8340   33.0970   46.0810 C   0  0  0  0  0  0  0  0  0  0  0  0
   58.8480   31.7990   46.6070 C   0  0  0  0  0  0  0  0  0  0  0  0
   58.1390   30.7700   45.9790 C   0  0  0  0  0  0  0  0  0  0  0  0
   57.4040   31.0300   44.8160 C   0  0  0  0  0  0  0  0  0  0  0  0
   56.5060   29.7320   44.0340 S   0  0  0  0  0  0  0  0  0  0  0  0
   56.2890   30.0920   42.5920 O   0  0  0  0  0  0  0  0  0  0  0  0
   55.1700   29.5380   44.6960 O   0  0  0  0  0  0  0  0  0  0  0  0
   57.4030   28.2490   44.1190 N   0  0  0  0  0  0  0  0  0  0  0  0
   57.2410   27.3410   45.0340 C   0  0  0  0  0  0  0  0  0  0  0  0
   56.0620   27.0310   45.6210 N   0  0  0  0  0  0  0  0  0  0  0  0
   56.1980   26.0460   46.5480 C   0  0  0  0  0  0  0  0  0  0  0  0
   57.4950   25.5660   46.7040 C   0  0  0  0  0  0  0  0  0  0  0  0
   58.4960   26.4070   45.6410 S   0  0  0  0  0  0  0  0  0  0  0  0
   57.3900   32.3240   44.2800 C   0  0  0  0  0  0  0  0  0  0  0  0
   58.0980   33.3540   44.9080 C   0  0  0  0  0  0  0  0  0  0  0  0
   59.6899   36.1097   47.1974 H   0  0  0  0  0  0  0  0  0  0  0  0
   60.5558   35.5838   45.7141 H   0  0  0  0  0  0  0  0  0  0  0  0
   58.7633   35.7002   45.7141 H   0  0  0  0  0  0  0  0  0  0  0  0
   59.4214   31.5872   47.5215 H   0  0  0  0  0  0  0  0  0  0  0  0
   58.1588   29.7539   46.3998 H   0  0  0  0  0  0  0  0  0  0  0  0
   55.1430   27.4750   45.4050 H   0  0  0  0  0  0  0  0  0  0  0  0
   55.3487   25.6584   47.1297 H   0  0  0  0  0  0  0  0  0  0  0  0
   57.8115   24.7753   47.4001 H   0  0  0  0  0  0  0  0  0  0  0  0
   56.8203   32.5309   43.3621 H   0  0  0  0  0  0  0  0  0  0  0  0
   58.0799   34.3688   44.4840 H   0  0  0  0  0  0  0  0  0  0  0  0
  1  2  1  0
  2  3  1  0
  3  4  2  0
  4  5  1  0
  5  6  2  0
  6  7  1  0
  7  8  2  0
  7  9  2  0
  7 10  1  0
 10 11  2  3
 11 12  1  0
 12 13  1  0
 13 14  2  0
 14 15  1  0
  6 16  1  0
 16 17  2  0
 17  3  1  0
 15 11  1  0
  1 18  1  0
  1 19  1  0
  1 20  1  0
  4 21  1  0
  5 22  1  0
 12 23  1  0
 13 24  1  0
 14 25  1  0
 16 26  1  0
 17 27  1  0
M  END
>  <UniqueID>  (31) 
29

>  <SMILES>  (31) 
COc1ccc(S(=O)(=O)N=c2[nH]ccs2)cc1

>  <Energy>  (31) 
59.87561070137246

>  <Genealogy>  (31) 
COc1ccc(S(=O)(=O)N=c2[nH]ccs2)cc1 (3D coordinates assigned)
COc1ccc(S(=O)(=O)N=c2[nH]ccs2)cc1 (optimized conformer: 59.87561070137246 kcal/mol)

>  <smiles>  (31) 
COc1ccc(S(=O)(=O)N=c2[nH]ccs2)cc1

>  <score_type>  (31) 
oracle

>  <origin>  (31) 
adg

>  <m_score__min__energy>  (31) 
-6.5099999999999998

>  <m_primary>  (31) 
energy

$$$$
31:0
     RDKit          3D

 67 69  0  0  0  0  0  0  0  0999 V2000
   59.5193   31.6235   51.2852 H   0  0  0  0  0  0  0  0  0  0  0  0
   59.4540   31.7160   50.1910 C   0  0  0  0  0  0  0  0  0  0  0  0
   59.3600   32.9450   49.6650 C   0  0  0  0  0  0  0  0  0  0  0  0
   58.9282   33.7595   50.2651 H   0  0  0  0  0  0  0  0  0  0  0  0
   59.8300   33.2240   48.2840 C   0  0  0  0  0  0  0  0  0  0  0  0
   61.2190   33.2660   48.0340 C   0  0  0  0  0  0  0  0  0  0  0  0
   62.1870   32.9930   49.0270 C   0  0  0  0  0  0  0  0  0  0  0  0
   61.8648   32.7281   50.0448 H   0  0  0  0  0  0  0  0  0  0  0  0
   63.5500   33.0570   48.7260 C   0  0  0  0  0  0  0  0  0  0  0  0
   64.2945   32.8359   49.5050 H   0  0  0  0  0  0  0  0  0  0  0  0
   63.9690   33.4000   47.4420 C   0  0  0  0  0  0  0  0  0  0  0  0
   65.0427   33.4460   47.2075 H   0  0  0  0  0  0  0  0  0  0  0  0
   63.0260   33.6850   46.4540 C   0  0  0  0  0  0  0  0  0  0  0  0
   63.3597   33.9614   45.4429 H   0  0  0  0  0  0  0  0  0  0  0  0
   61.6530   33.6210   46.7430 C   0  0  0  0  0  0  0  0  0  0  0  0
   60.7420   33.9200   45.7850 N   0  0  0  0  0  0  0  0  0  0  0  0
   61.0800   34.2220   44.8420 H   0  0  0  0  0  0  0  0  0  0  0  0
   59.4010   33.8330   46.0120 C   0  0  0  0  0  0  0  0  0  0  0  0
   58.4750   34.1680   44.8520 C   0  0  0  0  0  0  0  0  0  0  0  0
   58.9597   34.9318   44.2261 H   0  0  0  0  0  0  0  0  0  0  0  0
   57.5282   34.5280   45.2810 H   0  0  0  0  0  0  0  0  0  0  0  0
   58.1460   32.9470   43.9700 C   0  0  0  0  0  0  0  0  0  0  0  0
   59.0456   32.6917   43.3907 H   0  0  0  0  0  0  0  0  0  0  0  0
   57.2923   33.2416   43.3420 H   0  0  0  0  0  0  0  0  0  0  0  0
   57.7000   31.6870   44.7430 C   0  0  0  0  0  0  0  0  0  0  0  0
   57.3411   32.0060   45.7327 H   0  0  0  0  0  0  0  0  0  0  0  0
   58.5807   31.0290   44.7812 H   0  0  0  0  0  0  0  0  0  0  0  0
   56.5830   30.8600   44.0770 C   0  0  0  0  0  0  0  0  0  0  0  0
   56.4875   31.1827   43.0297 H   0  0  0  0  0  0  0  0  0  0  0  0
   55.6620   31.0360   44.6522 H   0  0  0  0  0  0  0  0  0  0  0  0
   56.8490   29.3430   44.0980 C   0  0  0  0  0  0  0  0  0  0  0  0
   56.4675   28.9047   43.1640 H   0  0  0  0  0  0  0  0  0  0  0  0
   56.3379   28.9254   44.9780 H   0  0  0  0  0  0  0  0  0  0  0  0
   58.3450   29.0110   44.2240 C   0  0  0  0  0  0  0  0  0  0  0  0
   58.6799   29.2779   45.2372 H   0  0  0  0  0  0  0  0  0  0  0  0
   58.8776   29.5867   43.4527 H   0  0  0  0  0  0  0  0  0  0  0  0
   58.6480   27.5260   43.9830 C   0  0  0  0  0  0  0  0  0  0  0  0
   58.1716   26.9290   44.7746 H   0  0  0  0  0  0  0  0  0  0  0  0
   59.7389   27.3854   43.9963 H   0  0  0  0  0  0  0  0  0  0  0  0
   58.1170   27.0700   42.6270 C   0  0  0  0  0  0  0  0  0  0  0  0
   57.2903   26.3600   42.7769 H   0  0  0  0  0  0  0  0  0  0  0  0
   57.7538   27.9420   42.0633 H   0  0  0  0  0  0  0  0  0  0  0  0
   58.9241   26.5793   42.0633 H   0  0  0  0  0  0  0  0  0  0  0  0
   58.9340   33.4450   47.2540 N   0  0  0  0  0  0  0  0  0  0  0  0
   57.4840   33.2570   47.4720 C   0  0  0  0  0  0  0  0  0  0  0  0
   57.2760   33.2300   48.5518 H   0  0  0  0  0  0  0  0  0  0  0  0
   56.9330   34.0912   47.0132 H   0  0  0  0  0  0  0  0  0  0  0  0
   57.1640   32.3098   47.0132 H   0  0  0  0  0  0  0  0  0  0  0  0
   59.4750   30.4730   49.3810 C   0  0  0  0  0  0  0  0  0  0  0  0
   58.8290   30.3700   48.1380 C   0  0  0  0  0  0  0  0  0  0  0  0
   58.2738   31.2315   47.7387 H   0  0  0  0  0  0  0  0  0  0  0  0
   58.8860   29.1810   47.4040 C   0  0  0  0  0  0  0  0  0  0  0  0
   58.3684   29.1164   46.4355 H   0  0  0  0  0  0  0  0  0  0  0  0
   59.5980   28.0630   47.8880 C   0  0  0  0  0  0  0  0  0  0  0  0
   59.6600   26.8270   47.1240 N   0  0  0  0  0  0  0  0  0  0  0  0
   60.8850   26.4520   46.4050 C   0  0  0  0  0  0  0  0  0  0  0  0
   61.6761   26.2098   47.1299 H   0  0  0  0  0  0  0  0  0  0  0  0
   60.6852   25.5739   45.7733 H   0  0  0  0  0  0  0  0  0  0  0  0
   61.2110   27.2915   45.7733 H   0  0  0  0  0  0  0  0  0  0  0  0
   58.4970   25.9330   47.0520 C   0  0  0  0  0  0  0  0  0  0  0  0
   58.1663   25.6788   48.0699 H   0  0  0  0  0  0  0  0  0  0  0  0
   57.6794   26.4374   46.5161 H   0  0  0  0  0  0  0  0  0  0  0  0
   58.7742   25.0132   46.5161 H   0  0  0  0  0  0  0  0  0  0  0  0
   60.2510   28.1800   49.1330 C   0  0  0  0  0  0  0  0  0  0  0  0
   60.8131   27.3236   49.5337 H   0  0  0  0  0  0  0  0  0  0  0  0
   60.1930   29.3700   49.8640 C   0  0  0  0  0  0  0  0  0  0  0  0
   60.7165   29.4418   50.8288 H   0  0  0  0  0  0  0  0  0  0  0  0
  1  2  1  0
  2  3  2  0
  3  4  1  0
  3  5  1  0
  5  6  1  0
  6  7  2  0
  7  8  1  0
  7  9  1  0
  9 10  1  0
  9 11  2  0
 11 12  1  0
 11 13  1  0
 13 14  1  0
 13 15  2  0
 15 16  1  0
 16 17  1  0
 16 18  2  0
 18 19  1  0
 19 20  1  0
 19 21  1  0
 19 22  1  0
 22 23  1  0
 22 24  1  0
 22 25  1  0
 25 26  1  0
 25 27  1  0
 25 28  1  0
 28 29  1  0
 28 30  1  0
 28 31  1  0
 31 32  1  0
 31 33  1  0
 31 34  1  0
 34 35  1  0
 34 36  1  0
 34 37  1  0
 37 38  1  0
 37 39  1  0
 37 40  1  0
 40 41  1  0
 40 42  1  0
 40 43  1  0
 18 44  1  0
 44 45  1  0
 45 46  1  0
 45 47  1  0
 45 48  1  0
  2 49  1  0
 49 50  2  0
 50 51  1  0
 50 52  1  0
 52 53  1  0
 52 54  2  0
 54 55  1  0
 55 56  1  0
 56 57  1  0
 56 58  1  0
 56 59  1  0
 55 60  1  0
 60 61  1  0
 60 62  1  0
 60 63  1  0
 54 64  1  0
 64 65  1  0
 64 66  2  0
 66 67  1  0
 44  5  2  0
 66 49  1  0
 15  6  1  0
M  CHG  2  16   1  44   1
M  END
>  <UniqueID>  (32) 
30

>  <SMILES>  (32) 
CCCCCCCCc1[nH+]c2ccccc2c(/C=C/c2ccc(N(C)C)cc2)[n+]1C

>  <Energy>  (32) 
78.5133954811941

>  <Genealogy>  (32) 
CCCCCCCCc1[nH+]c2ccccc2c(C=Cc2ccc(N(C)C)cc2)[n+]1C (protonated)
CCCCCCCCc1[nH+]c2ccccc2c(/C=C/c2ccc(N(C)C)cc2)[n+]1C (cis-trans isomerization)
CCCCCCCCc1[nH+]c2ccccc2c(/C=C/c2ccc(N(C)C)cc2)[n+]1C (3D coordinates assigned)
CCCCCCCCc1[nH+]c2ccccc2c(/C=C/c2ccc(N(C)C)cc2)[n+]1C (optimized conformer: 78.5133954811941 kcal/mol)

>  <smiles>  (32) 
CCCCCCCCc1nc2ccccc2c(C=Cc2ccc(N(C)C)cc2)[n+]1C

>  <score_type>  (32) 
oracle

>  <origin>  (32) 
adg

>  <m_score__min__energy>  (32) 
-5.5899999999999999

>  <m_primary>  (32) 
energy

$$$$
32:0
     RDKit          3D

 37 38  0  0  0  0  0  0  0  0999 V2000
   54.1710   24.4620   45.5150 C   0  0  0  0  0  0  0  0  0  0  0  0
   54.6890   25.7170   45.8950 O   0  0  0  0  0  0  0  0  0  0  0  0
   56.0990   25.7300   45.7800 C   0  0  0  0  0  0  0  0  0  0  0  0
   56.6600   27.1400   45.9960 C   0  0  0  0  0  0  0  0  0  0  0  0
   55.9070   28.1370   45.2400 N   0  0  0  0  0  0  0  0  0  0  0  0
   56.4270   29.3500   44.6770 C   0  0  0  0  0  0  0  0  0  0  0  0
   55.6750   30.3600   44.6270 O   0  0  0  0  0  0  0  0  0  0  0  0
   57.8170   29.4370   44.1040 C   0  0  0  0  0  0  0  0  0  0  0  0
   58.7630   29.9660   45.1030 N   0  0  0  0  0  0  0  0  0  0  0  0
   59.8040   29.1160   45.6310 C   0  0  0  0  0  0  0  0  0  0  0  0
   59.8580   27.8950   45.3220 O   0  0  0  0  0  0  0  0  0  0  0  0
   60.8800   29.6960   46.4980 C   0  0  0  0  0  0  0  0  0  0  0  0
   60.4020   30.8320   47.2130 O   0  0  0  0  0  0  0  0  0  0  0  0
   59.4980   31.7360   46.6490 C   0  0  0  0  0  0  0  0  0  0  0  0
   59.3940   33.0250   47.1760 C   0  0  0  0  0  0  0  0  0  0  0  0
   58.5220   33.9500   46.6010 C   0  0  0  0  0  0  0  0  0  0  0  0
   57.7520   33.5960   45.4850 C   0  0  0  0  0  0  0  0  0  0  0  0
   56.8020   34.5860   44.8790 C   0  0  0  0  0  0  0  0  0  0  0  0
   57.8260   32.2880   44.9780 C   0  0  0  0  0  0  0  0  0  0  0  0
   58.6950   31.3400   45.5630 C   0  0  0  0  0  0  0  0  0  0  0  0
   53.9296   23.8772   46.4149 H   0  0  0  0  0  0  0  0  0  0  0  0
   53.2594   24.6075   44.9168 H   0  0  0  0  0  0  0  0  0  0  0  0
   54.9198   23.9221   44.9168 H   0  0  0  0  0  0  0  0  0  0  0  0
   56.5268   25.0541   46.5351 H   0  0  0  0  0  0  0  0  0  0  0  0
   56.3687   25.3994   44.7661 H   0  0  0  0  0  0  0  0  0  0  0  0
   56.6048   27.3865   47.0666 H   0  0  0  0  0  0  0  0  0  0  0  0
   57.7021   27.1546   45.6441 H   0  0  0  0  0  0  0  0  0  0  0  0
   58.1431   28.4330   43.7948 H   0  0  0  0  0  0  0  0  0  0  0  0
   57.8001   30.1172   43.2397 H   0  0  0  0  0  0  0  0  0  0  0  0
   61.2136   28.9328   47.2165 H   0  0  0  0  0  0  0  0  0  0  0  0
   61.7155   30.0118   45.8560 H   0  0  0  0  0  0  0  0  0  0  0  0
   60.0014   33.3119   48.0471 H   0  0  0  0  0  0  0  0  0  0  0  0
   58.4386   34.9614   47.0255 H   0  0  0  0  0  0  0  0  0  0  0  0
   56.2797   35.1303   45.6795 H   0  0  0  0  0  0  0  0  0  0  0  0
   57.3629   35.2987   44.2565 H   0  0  0  0  0  0  0  0  0  0  0  0
   56.0668   34.0550   44.2565 H   0  0  0  0  0  0  0  0  0  0  0  0
   57.2025   31.9996   44.1189 H   0  0  0  0  0  0  0  0  0  0  0  0
  1  2  1  0
  2  3  1  0
  3  4  1  0
  4  5  1  0
  5  6  1  0
  6  7  2  0
  6  8  1  0
  8  9  1  0
  9 10  1  0
 10 11  2  0
 10 12  1  0
 12 13  1  0
 13 14  1  0
 14 15  2  0
 15 16  1  0
 16 17  2  0
 17 18  1  0
 17 19  1  0
 19 20  2  0
 20  9  1  0
 20 14  1  0
  1 21  1  0
  1 22  1  0
  1 23  1  0
  3 24  1  0
  3 25  1  0
  4 26  1  0
  4 27  1  0
  8 28  1  0
  8 29  1  0
 12 30  1  0
 12 31  1  0
 15 32  1  0
 16 33  1  0
 18 34  1  0
 18 35  1  0
 18 36  1  0
 19 37  1  0
M  CHG  1   5  -1
M  END
>  <UniqueID>  (33) 
31

>  <SMILES>  (33) 
COCC[N-]C(=O)CN1C(=O)COc2ccc(C)cc21

>  <Energy>  (33) 
39.4110981892756

>  <Genealogy>  (33) 
COCC[N-]C(=O)CN1C(=O)COc2ccc(C)cc21 (protonated)
COCC[N-]C(=O)CN1C(=O)COc2ccc(C)cc21 (3D coordinates assigned)
COCC[N-]C(=O)CN1C(=O)COc2ccc(C)cc21 (nonaromatic ring conformer: 39.4110981892756 kcal/mol)

>  <smiles>  (33) 
COCCNC(=O)CN1C(=O)COc2ccc(C)cc21

>  <score_type>  (33) 
oracle

>  <origin>  (33) 
adg

>  <m_score__min__energy>  (33) 
-8.8699999999999992

>  <m_primary>  (33) 
energy

$$$$
33:0
     RDKit          3D

 57 60  0  0  0  0  0  0  0  0999 V2000
   55.8940   24.3800   45.1630 C   0  0  0  0  0  0  0  0  0  0  0  0
   55.8040   25.2640   46.3400 N   0  0  0  0  0  0  0  0  0  0  0  0
   56.0670   26.6840   45.9980 C   0  0  0  0  0  0  0  0  0  0  0  0
   57.5200   27.1160   46.2680 C   0  0  0  0  0  0  0  0  0  0  0  0
   58.4170   25.9610   46.1030 N   0  0  0  0  0  0  0  0  0  0  0  0
   59.8350   26.3660   46.0890 C   0  0  0  0  0  0  0  0  0  0  0  0
   59.9890   27.7360   46.6940 C   0  0  0  0  0  0  0  0  0  0  0  0
   59.9920   27.8880   48.0900 C   0  0  0  0  0  0  0  0  0  0  0  0
   60.2300   29.1400   48.6610 C   0  0  0  0  0  0  0  0  0  0  0  0
   60.4740   30.2590   47.8480 C   0  0  0  0  0  0  0  0  0  0  0  0
   60.7950   31.5320   48.4370 N   0  0  0  0  0  0  0  0  0  0  0  0
   62.1820   31.8540   48.8040 C   0  0  0  0  0  0  0  0  0  0  0  0
   63.0400   32.2350   47.5800 C   0  0  0  0  0  0  0  0  0  0  0  0
   63.8360   33.5280   47.7450 C   0  0  0  0  0  0  0  0  0  0  0  0
   62.6590   33.4850   46.7920 C   0  0  0  0  0  0  0  0  0  0  0  0
   59.5550   32.7370   48.6360 S   0  0  0  0  0  0  0  0  0  0  0  0
   60.1080   33.9250   49.3740 O   0  0  0  0  0  0  0  0  0  0  0  0
   58.4290   32.1690   49.4530 O   0  0  0  0  0  0  0  0  0  0  0  0
   58.9490   33.2570   47.0670 C   0  0  0  0  0  0  0  0  0  0  0  0
   59.4910   34.3930   46.4460 C   0  0  0  0  0  0  0  0  0  0  0  0
   58.9750   34.8400   45.2270 C   0  0  0  0  0  0  0  0  0  0  0  0
   57.9230   34.1520   44.6180 C   0  0  0  0  0  0  0  0  0  0  0  0
   57.3860   33.0140   45.2270 C   0  0  0  0  0  0  0  0  0  0  0  0
   57.8980   32.5660   46.4480 C   0  0  0  0  0  0  0  0  0  0  0  0
   60.4340   30.1100   46.4530 C   0  0  0  0  0  0  0  0  0  0  0  0
   60.1960   28.8590   45.8790 C   0  0  0  0  0  0  0  0  0  0  0  0
   58.1630   24.9590   47.1580 C   0  0  0  0  0  0  0  0  0  0  0  0
   56.6530   24.7880   47.4490 C   0  0  0  0  0  0  0  0  0  0  0  0
   56.0002   23.3368   45.4952 H   0  0  0  0  0  0  0  0  0  0  0  0
   54.9809   24.4810   44.5579 H   0  0  0  0  0  0  0  0  0  0  0  0
   56.7680   24.6629   44.5579 H   0  0  0  0  0  0  0  0  0  0  0  0
   55.8517   26.8315   44.9294 H   0  0  0  0  0  0  0  0  0  0  0  0
   55.4194   27.2992   46.6399 H   0  0  0  0  0  0  0  0  0  0  0  0
   57.8053   27.9056   45.5573 H   0  0  0  0  0  0  0  0  0  0  0  0
   57.6024   27.4987   47.2960 H   0  0  0  0  0  0  0  0  0  0  0  0
   60.4254   25.6430   46.6710 H   0  0  0  0  0  0  0  0  0  0  0  0
   60.1917   26.3902   45.0487 H   0  0  0  0  0  0  0  0  0  0  0  0
   59.8062   27.0175   48.7363 H   0  0  0  0  0  0  0  0  0  0  0  0
   60.2263   29.2506   49.7554 H   0  0  0  0  0  0  0  0  0  0  0  0
   62.1742   32.6998   49.5072 H   0  0  0  0  0  0  0  0  0  0  0  0
   62.6260   30.9562   49.2589 H   0  0  0  0  0  0  0  0  0  0  0  0
   63.2492   31.1928   47.2971 H   0  0  0  0  0  0  0  0  0  0  0  0
   63.7645   34.1016   48.6809 H   0  0  0  0  0  0  0  0  0  0  0  0
   64.8973   33.8033   47.6564 H   0  0  0  0  0  0  0  0  0  0  0  0
   61.7341   34.0278   47.0367 H   0  0  0  0  0  0  0  0  0  0  0  0
   62.5143   33.7166   45.7264 H   0  0  0  0  0  0  0  0  0  0  0  0
   60.3240   34.9327   46.9202 H   0  0  0  0  0  0  0  0  0  0  0  0
   59.3976   35.7346   44.7464 H   0  0  0  0  0  0  0  0  0  0  0  0
   57.5169   34.5057   43.6589 H   0  0  0  0  0  0  0  0  0  0  0  0
   56.5599   32.4707   44.7449 H   0  0  0  0  0  0  0  0  0  0  0  0
   57.4753   31.6691   46.9243 H   0  0  0  0  0  0  0  0  0  0  0  0
   60.5914   30.9858   45.8062 H   0  0  0  0  0  0  0  0  0  0  0  0
   60.1708   28.7540   44.7843 H   0  0  0  0  0  0  0  0  0  0  0  0
   58.5733   23.9912   46.8338 H   0  0  0  0  0  0  0  0  0  0  0  0
   58.6476   25.3097   48.0811 H   0  0  0  0  0  0  0  0  0  0  0  0
   56.4455   23.7212   47.6187 H   0  0  0  0  0  0  0  0  0  0  0  0
   56.4138   25.3938   48.3354 H   0  0  0  0  0  0  0  0  0  0  0  0
  1  2  1  0
  2  3  1  0
  3  4  1  0
  4  5  1  0
  5  6  1  0
  6  7  1  0
  7  8  2  0
  8  9  1  0
  9 10  2  0
 10 11  1  0
 11 12  1  0
 12 13  1  0
 13 14  1  0
 14 15  1  0
 11 16  1  0
 16 17  2  0
 16 18  2  0
 16 19  1  0
 19 20  2  0
 20 21  1  0
 21 22  2  0
 22 23  1  0
 23 24  2  0
 10 25  1  0
 25 26  2  0
  5 27  1  0
 27 28  1  0
 28  2  1  0
 26  7  1  0
 15 13  1  0
 24 19  1  0
  1 29  1  0
  1 30  1  0
  1 31  1  0
  3 32  1  0
  3 33  1  0
  4 34  1  0
  4 35  1  0
  6 36  1  0
  6 37  1  0
  8 38  1  0
  9 39  1  0
 12 40  1  0
 12 41  1  0
 13 42  1  0
 14 43  1  0
 14 44  1  0
 15 45  1  0
 15 46  1  0
 20 47  1  0
 21 48  1  0
 22 49  1  0
 23 50  1  0
 24 51  1  0
 25 52  1  0
 26 53  1  0
 27 54  1  0
 27 55  1  0
 28 56  1  0
 28 57  1  0
M  END
>  <UniqueID>  (34) 
32

>  <SMILES>  (34) 
CN1CCN(Cc2ccc(N(CC3CC3)S(=O)(=O)c3ccccc3)cc2)CC1

>  <Energy>  (34) 
338.7201689111096

>  <Genealogy>  (34) 
CN1CCN(Cc2ccc(N(CC3CC3)S(=O)(=O)c3ccccc3)cc2)CC1 (3D coordinates assigned)
CN1CCN(Cc2ccc(N(CC3CC3)S(=O)(=O)c3ccccc3)cc2)CC1 (nonaromatic ring conformer: 338.7201689111096 kcal/mol)

>  <smiles>  (34) 
CN1CCN(Cc2ccc(N(CC3CC3)S(=O)(=O)c3ccccc3)cc2)CC1

>  <score_type>  (34) 
oracle

>  <origin>  (34) 
adg

>  <m_score__min__energy>  (34) 
-8.8100000000000005

>  <m_primary>  (34) 
energy

$$$$
34:0
     RDKit          3D

 36 37  0  0  0  0  0  0  0  0999 V2000
   61.7860   32.2810   47.2080 F   0  0  0  0  0  0  0  0  0  0  0  0
   62.7200   33.2550   47.5140 C   0  0  0  0  0  0  0  0  0  0  0  0
   63.8990   32.6360   47.8890 F   0  0  0  0  0  0  0  0  0  0  0  0
   62.9360   34.0180   46.3830 F   0  0  0  0  0  0  0  0  0  0  0  0
   62.1880   34.1250   48.6600 C   0  0  0  0  0  0  0  0  0  0  0  0
   60.8530   33.6830   49.1350 N   0  0  0  0  0  0  0  0  0  0  0  0
   59.7990   34.5700   48.5880 C   0  0  0  0  0  0  0  0  0  0  0  0
   59.2770   34.0220   47.2850 C   0  0  0  0  0  0  0  0  0  0  0  0
   59.5460   34.6980   46.0830 C   0  0  0  0  0  0  0  0  0  0  0  0
   59.0880   34.1840   44.8670 C   0  0  0  0  0  0  0  0  0  0  0  0
   58.3580   32.9920   44.8400 C   0  0  0  0  0  0  0  0  0  0  0  0
   57.7870   32.3450   43.3130 Cl  0  0  0  0  0  0  0  0  0  0  0  0
   58.0820   32.3150   46.0340 C   0  0  0  0  0  0  0  0  0  0  0  0
   58.5390   32.8270   47.2520 C   0  0  0  0  0  0  0  0  0  0  0  0
   60.7750   33.6230   50.6190 C   0  0  0  0  0  0  0  0  0  0  0  0
   59.5150   32.9250   51.0630 C   0  0  0  0  0  0  0  0  0  0  0  0
   58.6590   33.5320   51.9990 C   0  0  0  0  0  0  0  0  0  0  0  0
   57.4710   32.9030   52.3840 C   0  0  0  0  0  0  0  0  0  0  0  0
   57.1180   31.6710   51.8270 C   0  0  0  0  0  0  0  0  0  0  0  0
   55.4950   30.8130   52.3540 Br  0  0  0  0  0  0  0  0  0  0  0  0
   57.9500   31.0710   50.8770 C   0  0  0  0  0  0  0  0  0  0  0  0
   59.1370   31.6970   50.4890 C   0  0  0  0  0  0  0  0  0  0  0  0
   62.8963   34.0740   49.5001 H   0  0  0  0  0  0  0  0  0  0  0  0
   62.0851   35.1523   48.2805 H   0  0  0  0  0  0  0  0  0  0  0  0
   58.9719   34.6384   49.3100 H   0  0  0  0  0  0  0  0  0  0  0  0
   60.2280   35.5671   48.4100 H   0  0  0  0  0  0  0  0  0  0  0  0
   60.1199   35.6363   46.0993 H   0  0  0  0  0  0  0  0  0  0  0  0
   59.3022   34.7181   43.9295 H   0  0  0  0  0  0  0  0  0  0  0  0
   57.5047   31.3789   46.0137 H   0  0  0  0  0  0  0  0  0  0  0  0
   58.3199   32.2922   48.1880 H   0  0  0  0  0  0  0  0  0  0  0  0
   61.6463   33.0727   51.0036 H   0  0  0  0  0  0  0  0  0  0  0  0
   60.7654   34.6502   51.0125 H   0  0  0  0  0  0  0  0  0  0  0  0
   58.9256   34.5078   52.4311 H   0  0  0  0  0  0  0  0  0  0  0  0
   56.8133   33.3787   53.1264 H   0  0  0  0  0  0  0  0  0  0  0  0
   57.6693   30.1040   50.4342 H   0  0  0  0  0  0  0  0  0  0  0  0
   59.7801   31.2272   49.7302 H   0  0  0  0  0  0  0  0  0  0  0  0
  1  2  1  0
  2  3  1  0
  2  4  1  0
  2  5  1  0
  5  6  1  0
  6  7  1  0
  7  8  1  0
  8  9  2  0
  9 10  1  0
 10 11  2  0
 11 12  1  0
 11 13  1  0
 13 14  2  0
  6 15  1  0
 15 16  1  0
 16 17  2  0
 17 18  1  0
 18 19  2  0
 19 20  1  0
 19 21  1  0
 21 22  2  0
 14  8  1  0
 22 16  1  0
  5 23  1  0
  5 24  1  0
  7 25  1  0
  7 26  1  0
  9 27  1  0
 10 28  1  0
 13 29  1  0
 14 30  1  0
 15 31  1  0
 15 32  1  0
 17 33  1  0
 18 34  1  0
 21 35  1  0
 22 36  1  0
M  END
>  <UniqueID>  (35) 
33

>  <SMILES>  (35) 
FC(F)(F)CN(Cc1ccc(Cl)cc1)Cc1ccc(Br)cc1

>  <Energy>  (35) 
38.15948635810658

>  <Genealogy>  (35) 
FC(F)(F)CN(Cc1ccc(Cl)cc1)Cc1ccc(Br)cc1 (3D coordinates assigned)
FC(F)(F)CN(Cc1ccc(Cl)cc1)Cc1ccc(Br)cc1 (optimized conformer: 38.15948635810658 kcal/mol)

>  <smiles>  (35) 
FC(F)(F)CN(Cc1ccc(Cl)cc1)Cc1ccc(Br)cc1

>  <score_type>  (35) 
oracle

>  <origin>  (35) 
adg

>  <m_score__min__energy>  (35) 
-6.6699999999999999

>  <m_primary>  (35) 
energy

$$$$
35:0
     RDKit          3D

 59 60  0  0  0  0  0  0  0  0999 V2000
   60.2000   31.0430   49.8260 C   0  0  0  0  0  0  0  0  0  0  0  0
   58.9400   31.3950   49.0450 C   0  0  0  0  0  0  0  0  0  0  0  0
   59.0010   30.9390   47.5710 C   0  0  0  0  0  0  0  0  0  0  0  0
   59.1420   29.4140   47.3870 C   0  0  0  0  0  0  0  0  0  0  0  0
   60.3990   28.9590   46.6230 C   0  0  0  0  0  0  0  0  0  0  0  0
   60.0680   28.2230   45.3120 C   0  0  0  0  0  0  0  0  0  0  0  0
   58.6660   27.5800   45.3260 C   0  0  0  0  0  0  0  0  0  0  0  0
   57.7700   27.9970   44.1390 C   0  0  0  0  0  0  0  0  0  0  0  0
   57.4210   29.4160   44.2170 N   0  0  0  0  0  0  0  0  0  0  0  0
   58.1720   30.4560   43.8100 C   0  0  0  0  0  0  0  0  0  0  0  0
   57.5030   31.5910   44.2180 C   0  0  0  0  0  0  0  0  0  0  0  0
   57.9920   33.0120   44.1200 C   0  0  0  0  0  0  0  0  0  0  0  0
   58.3920   33.5820   45.4250 N   0  0  0  0  0  0  0  0  0  0  0  0
   57.2280   33.8250   46.3040 C   0  0  0  0  0  0  0  0  0  0  0  0
   59.2290   34.7980   45.2960 C   0  0  0  0  0  0  0  0  0  0  0  0
   59.6380   35.3020   46.6890 C   0  0  0  0  0  0  0  0  0  0  0  0
   59.8830   34.1410   47.6730 C   0  0  0  0  0  0  0  0  0  0  0  0
   61.3610   33.8620   47.8570 C   0  0  0  0  0  0  0  0  0  0  0  0
   61.9560   34.0310   49.1220 C   0  0  0  0  0  0  0  0  0  0  0  0
   63.3230   33.7720   49.3020 C   0  0  0  0  0  0  0  0  0  0  0  0
   64.1040   33.3370   48.2230 C   0  0  0  0  0  0  0  0  0  0  0  0
   63.5200   33.1600   46.9630 C   0  0  0  0  0  0  0  0  0  0  0  0
   62.1560   33.4270   46.7750 C   0  0  0  0  0  0  0  0  0  0  0  0
   56.3770   31.2140   44.8590 N   0  0  0  0  0  0  0  0  0  0  0  0
   56.3520   29.8870   44.8430 N   0  0  0  0  0  0  0  0  0  0  0  0
   59.9912   31.1013   50.9044 H   0  0  0  0  0  0  0  0  0  0  0  0
   60.5176   30.0217   49.5687 H   0  0  0  0  0  0  0  0  0  0  0  0
   61.0009   31.7518   49.5687 H   0  0  0  0  0  0  0  0  0  0  0  0
   58.0799   30.9081   49.5279 H   0  0  0  0  0  0  0  0  0  0  0  0
   58.8443   32.4908   49.0483 H   0  0  0  0  0  0  0  0  0  0  0  0
   58.0763   31.2629   47.0710 H   0  0  0  0  0  0  0  0  0  0  0  0
   59.9025   31.3949   47.1358 H   0  0  0  0  0  0  0  0  0  0  0  0
   59.1643   28.9515   48.3848 H   0  0  0  0  0  0  0  0  0  0  0  0
   58.2831   29.0997   46.7759 H   0  0  0  0  0  0  0  0  0  0  0  0
   61.0053   29.8454   46.3847 H   0  0  0  0  0  0  0  0  0  0  0  0
   60.9421   28.2542   47.2698 H   0  0  0  0  0  0  0  0  0  0  0  0
   60.1160   28.9437   44.4824 H   0  0  0  0  0  0  0  0  0  0  0  0
   60.8029   27.4134   45.1917 H   0  0  0  0  0  0  0  0  0  0  0  0
   58.7868   26.4870   45.3005 H   0  0  0  0  0  0  0  0  0  0  0  0
   58.1650   27.9304   46.2405 H   0  0  0  0  0  0  0  0  0  0  0  0
   58.3094   27.8106   43.1986 H   0  0  0  0  0  0  0  0  0  0  0  0
   56.8429   27.4061   44.1759 H   0  0  0  0  0  0  0  0  0  0  0  0
   59.1254   30.4101   43.2632 H   0  0  0  0  0  0  0  0  0  0  0  0
   58.8613   33.0369   43.4464 H   0  0  0  0  0  0  0  0  0  0  0  0
   57.1573   33.6194   43.7401 H   0  0  0  0  0  0  0  0  0  0  0  0
   57.5429   33.7593   47.3559 H   0  0  0  0  0  0  0  0  0  0  0  0
   56.8212   34.8274   46.1050 H   0  0  0  0  0  0  0  0  0  0  0  0
   56.4541   33.0691   46.1050 H   0  0  0  0  0  0  0  0  0  0  0  0
   60.1320   34.5592   44.7149 H   0  0  0  0  0  0  0  0  0  0  0  0
   58.6525   35.5815   44.7824 H   0  0  0  0  0  0  0  0  0  0  0  0
   60.5627   35.8906   46.5966 H   0  0  0  0  0  0  0  0  0  0  0  0
   58.8146   35.9150   47.0843 H   0  0  0  0  0  0  0  0  0  0  0  0
   59.4459   34.4023   48.6480 H   0  0  0  0  0  0  0  0  0  0  0  0
   59.4132   33.2367   47.2588 H   0  0  0  0  0  0  0  0  0  0  0  0
   61.3460   34.3677   49.9732 H   0  0  0  0  0  0  0  0  0  0  0  0
   63.7825   33.9106   50.2918 H   0  0  0  0  0  0  0  0  0  0  0  0
   65.1757   33.1346   48.3659 H   0  0  0  0  0  0  0  0  0  0  0  0
   64.1323   32.8107   46.1185 H   0  0  0  0  0  0  0  0  0  0  0  0
   61.7042   33.2969   45.7806 H   0  0  0  0  0  0  0  0  0  0  0  0
  1  2  1  0
  2  3  1  0
  3  4  1  0
  4  5  1  0
  5  6  1  0
  6  7  1  0
  7  8  1  0
  8  9  1  0
  9 10  1  0
 10 11  2  0
 11 12  1  0
 12 13  1  0
 13 14  1  0
 13 15  1  0
 15 16  1  0
 16 17  1  0
 17 18  1  0
 18 19  2  0
 19 20  1  0
 20 21  2  0
 21 22  1  0
 22 23  2  0
 11 24  1  0
 24 25  2  0
 25  9  1  0
 23 18  1  0
  1 26  1  0
  1 27  1  0
  1 28  1  0
  2 29  1  0
  2 30  1  0
  3 31  1  0
  3 32  1  0
  4 33  1  0
  4 34  1  0
  5 35  1  0
  5 36  1  0
  6 37  1  0
  6 38  1  0
  7 39  1  0
  7 40  1  0
  8 41  1  0
  8 42  1  0
 10 43  1  0
 12 44  1  0
 12 45  1  0
 14 46  1  0
 14 47  1  0
 14 48  1  0
 15 49  1  0
 15 50  1  0
 16 51  1  0
 16 52  1  0
 17 53  1  0
 17 54  1  0
 19 55  1  0
 20 56  1  0
 21 57  1  0
 22 58  1  0
 23 59  1  0
M  END
>  <UniqueID>  (36) 
34

>  <SMILES>  (36) 
CCCCCCCCn1cc(CN(C)CCCc2ccccc2)nn1

>  <Energy>  (36) 
79.85860741665266

>  <Genealogy>  (36) 
CCCCCCCCn1cc(CN(C)CCCc2ccccc2)nn1 (3D coordinates assigned)
CCCCCCCCn1cc(CN(C)CCCc2ccccc2)nn1 (optimized conformer: 79.85860741665266 kcal/mol)

>  <smiles>  (36) 
CCCCCCCCn1cc(CN(C)CCCc2ccccc2)nn1

>  <score_type>  (36) 
oracle

>  <origin>  (36) 
adg

>  <m_score__min__energy>  (36) 
-7.6600000000000001

>  <m_primary>  (36) 
energy

$$$$
36:0
     RDKit          3D

 47 49  0  0  0  0  0  0  0  0999 V2000
   57.8970   26.3390   43.5740 C   0  0  0  0  0  0  0  0  0  0  0  0
   57.9100   27.8590   43.5730 C   0  0  0  0  0  0  0  0  0  0  0  0
   57.1140   28.3420   44.6490 O   0  0  0  0  0  0  0  0  0  0  0  0
   56.3930   29.5380   44.5780 C   0  0  0  0  0  0  0  0  0  0  0  0
   55.1690   29.5690   44.8780 O   0  0  0  0  0  0  0  0  0  0  0  0
   57.0710   30.7680   44.1590 C   0  0  0  0  0  0  0  0  0  0  0  0
   57.7330   31.6610   44.9720 C   0  0  0  0  0  0  0  0  0  0  0  0
   58.2050   32.6190   44.1570 N   0  0  0  0  0  0  0  0  0  0  0  0
   58.9500   33.8120   44.5500 C   0  0  0  0  0  0  0  0  0  0  0  0
   58.4470   34.3580   45.8910 C   0  0  0  0  0  0  0  0  0  0  0  0
   59.5890   34.9580   46.7260 C   0  0  0  0  0  0  0  0  0  0  0  0
   59.6040   34.4310   48.1710 C   0  0  0  0  0  0  0  0  0  0  0  0
   60.8010   33.5190   48.4930 C   0  0  0  0  0  0  0  0  0  0  0  0
   60.6380   32.1790   47.8980 N   0  0  0  0  0  0  0  0  0  0  0  0
   61.5060   31.7870   46.9560 N   0  0  0  0  0  0  0  0  0  0  0  0
   61.4400   30.5780   46.4020 N   0  0  0  0  0  0  0  0  0  0  0  0
   60.4810   29.6930   46.7620 C   0  0  0  0  0  0  0  0  0  0  0  0
   60.4330   28.4260   46.1690 C   0  0  0  0  0  0  0  0  0  0  0  0
   59.4330   27.5210   46.5380 C   0  0  0  0  0  0  0  0  0  0  0  0
   58.4800   27.8810   47.4950 C   0  0  0  0  0  0  0  0  0  0  0  0
   58.5250   29.1470   48.0900 C   0  0  0  0  0  0  0  0  0  0  0  0
   59.5340   30.0590   47.7300 C   0  0  0  0  0  0  0  0  0  0  0  0
   59.6340   31.3350   48.3000 C   0  0  0  0  0  0  0  0  0  0  0  0
   58.8000   31.6990   49.1770 O   0  0  0  0  0  0  0  0  0  0  0  0
   57.8430   32.3340   42.9160 N   0  0  0  0  0  0  0  0  0  0  0  0
   57.1510   31.2040   42.8860 N   0  0  0  0  0  0  0  0  0  0  0  0
   57.8939   25.9730   44.6113 H   0  0  0  0  0  0  0  0  0  0  0  0
   56.9957   25.9797   43.0557 H   0  0  0  0  0  0  0  0  0  0  0  0
   58.7920   25.9643   43.0557 H   0  0  0  0  0  0  0  0  0  0  0  0
   58.9434   28.2167   43.6923 H   0  0  0  0  0  0  0  0  0  0  0  0
   57.5012   28.2280   42.6208 H   0  0  0  0  0  0  0  0  0  0  0  0
   57.8510   31.6020   46.0641 H   0  0  0  0  0  0  0  0  0  0  0  0
   60.0157   33.5559   44.6431 H   0  0  0  0  0  0  0  0  0  0  0  0
   58.8045   34.5847   43.7807 H   0  0  0  0  0  0  0  0  0  0  0  0
   57.6974   35.1398   45.6988 H   0  0  0  0  0  0  0  0  0  0  0  0
   58.0100   33.5231   46.4584 H   0  0  0  0  0  0  0  0  0  0  0  0
   60.5465   34.7035   46.2480 H   0  0  0  0  0  0  0  0  0  0  0  0
   59.4344   36.0462   46.7694 H   0  0  0  0  0  0  0  0  0  0  0  0
   59.6330   35.2934   48.8533 H   0  0  0  0  0  0  0  0  0  0  0  0
   58.6970   33.8214   48.2965 H   0  0  0  0  0  0  0  0  0  0  0  0
   61.7173   33.9781   48.0933 H   0  0  0  0  0  0  0  0  0  0  0  0
   60.8630   33.4053   49.5854 H   0  0  0  0  0  0  0  0  0  0  0  0
   62.2640   32.4330   46.6360 H   0  0  0  0  0  0  0  0  0  0  0  0
   61.1809   28.1427   45.4138 H   0  0  0  0  0  0  0  0  0  0  0  0
   59.3963   26.5241   46.0744 H   0  0  0  0  0  0  0  0  0  0  0  0
   57.6929   27.1678   47.7811 H   0  0  0  0  0  0  0  0  0  0  0  0
   57.7710   29.4291   48.8396 H   0  0  0  0  0  0  0  0  0  0  0  0
  1  2  1  0
  2  3  1  0
  3  4  1  0
  4  5  2  0
  4  6  1  0
  6  7  2  0
  7  8  1  0
  8  9  1  0
  9 10  1  0
 10 11  1  0
 11 12  1  0
 12 13  1  0
 13 14  1  0
 14 15  1  0
 15 16  2  0
 16 17  1  0
 17 18  2  0
 18 19  1  0
 19 20  2  0
 20 21  1  0
 21 22  2  0
 22 23  1  0
 23 24  2  0
  8 25  1  0
 25 26  2  0
 26  6  1  0
 23 14  1  0
 22 17  1  0
  1 27  1  0
  1 28  1  0
  1 29  1  0
  2 30  1  0
  2 31  1  0
  7 32  1  0
  9 33  1  0
  9 34  1  0
 10 35  1  0
 10 36  1  0
 11 37  1  0
 11 38  1  0
 12 39  1  0
 12 40  1  0
 13 41  1  0
 13 42  1  0
 15 43  1  0
 18 44  1  0
 19 45  1  0
 20 46  1  0
 21 47  1  0
M  CHG  1  15   1
M  END
>  <UniqueID>  (37) 
35

>  <SMILES>  (37) 
CCOC(=O)c1cn(CCCCCn2[nH+]nc3ccccc3c2=O)nn1

>  <Energy>  (37) 
70.93309612156031

>  <Genealogy>  (37) 
CCOC(=O)c1cn(CCCCCn2[nH+]nc3ccccc3c2=O)nn1 (protonated)
CCOC(=O)c1cn(CCCCCn2[nH+]nc3ccccc3c2=O)nn1 (3D coordinates assigned)
CCOC(=O)c1cn(CCCCCn2[nH+]nc3ccccc3c2=O)nn1 (optimized conformer: 70.93309612156031 kcal/mol)

>  <smiles>  (37) 
CCOC(=O)c1cn(CCCCCn2nnc3ccccc3c2=O)nn1

>  <score_type>  (37) 
oracle

>  <origin>  (37) 
adg

>  <m_score__min__energy>  (37) 
-7.5099999999999998

>  <m_primary>  (37) 
energy

$$$$
37:0
     RDKit          3D

 42 45  0  0  0  0  0  0  0  0999 V2000
   56.6950   21.0550   43.0030 C   0  0  0  0  0  0  0  0  0  0  0  0
   55.9420   22.2140   43.3430 O   0  0  0  0  0  0  0  0  0  0  0  0
   56.4900   23.3770   43.9040 C   0  0  0  0  0  0  0  0  0  0  0  0
   56.5020   23.5020   45.2970 C   0  0  0  0  0  0  0  0  0  0  0  0
   57.0380   24.6390   45.9050 C   0  0  0  0  0  0  0  0  0  0  0  0
   57.5850   25.6760   45.1290 C   0  0  0  0  0  0  0  0  0  0  0  0
   58.1420   26.8820   45.7950 C   0  0  0  0  0  0  0  0  0  0  0  0
   58.8200   26.8020   47.0220 C   0  0  0  0  0  0  0  0  0  0  0  0
   59.3230   27.9670   47.6240 C   0  0  0  0  0  0  0  0  0  0  0  0
   60.0330   27.9010   48.9270 C   0  0  0  0  0  0  0  0  0  0  0  0
   60.0850   28.9670   49.8440 C   0  0  0  0  0  0  0  0  0  0  0  0
   60.8030   28.6820   50.9960 C   0  0  0  0  0  0  0  0  0  0  0  0
   61.3730   27.1080   50.8810 S   0  0  0  0  0  0  0  0  0  0  0  0
   60.7200   26.7700   49.3710 C   0  0  0  0  0  0  0  0  0  0  0  0
   59.1350   29.1990   46.9770 C   0  0  0  0  0  0  0  0  0  0  0  0
   58.4530   29.2520   45.7490 C   0  0  0  0  0  0  0  0  0  0  0  0
   58.2160   30.5320   45.0370 C   0  0  0  0  0  0  0  0  0  0  0  0
   58.1380   31.7520   45.7360 C   0  0  0  0  0  0  0  0  0  0  0  0
   57.9260   32.9380   45.0320 C   0  0  0  0  0  0  0  0  0  0  0  0
   57.8000   32.9100   43.6440 C   0  0  0  0  0  0  0  0  0  0  0  0
   57.8930   31.6890   42.9760 C   0  0  0  0  0  0  0  0  0  0  0  0
   58.1010   30.5380   43.6740 N   0  0  0  0  0  0  0  0  0  0  0  0
   57.9750   28.0980   45.2090 N   0  0  0  0  0  0  0  0  0  0  0  0
   57.5610   25.5550   43.7260 C   0  0  0  0  0  0  0  0  0  0  0  0
   57.0230   24.4160   43.1200 C   0  0  0  0  0  0  0  0  0  0  0  0
   57.0239   20.5487   43.9225 H   0  0  0  0  0  0  0  0  0  0  0  0
   56.0683   20.3710   42.4119 H   0  0  0  0  0  0  0  0  0  0  0  0
   57.5746   21.3496   42.4119 H   0  0  0  0  0  0  0  0  0  0  0  0
   56.0851   22.6967   45.9197 H   0  0  0  0  0  0  0  0  0  0  0  0
   57.0322   24.7242   47.0017 H   0  0  0  0  0  0  0  0  0  0  0  0
   58.9572   25.8267   47.5119 H   0  0  0  0  0  0  0  0  0  0  0  0
   59.6004   29.9379   49.6637 H   0  0  0  0  0  0  0  0  0  0  0  0
   60.9698   29.3688   51.8389 H   0  0  0  0  0  0  0  0  0  0  0  0
   60.8171   25.8199   48.8253 H   0  0  0  0  0  0  0  0  0  0  0  0
   59.5216   30.1231   47.4314 H   0  0  0  0  0  0  0  0  0  0  0  0
   58.2436   31.7699   46.8308 H   0  0  0  0  0  0  0  0  0  0  0  0
   57.8584   33.8941   45.5718 H   0  0  0  0  0  0  0  0  0  0  0  0
   57.6292   33.8400   43.0820 H   0  0  0  0  0  0  0  0  0  0  0  0
   57.7979   31.6555   41.8806 H   0  0  0  0  0  0  0  0  0  0  0  0
   58.1580   29.6440   43.1380 H   0  0  0  0  0  0  0  0  0  0  0  0
   57.9691   26.3636   43.1018 H   0  0  0  0  0  0  0  0  0  0  0  0
   57.0164   24.3318   42.0232 H   0  0  0  0  0  0  0  0  0  0  0  0
  1  2  1  0
  2  3  1  0
  3  4  2  0
  4  5  1  0
  5  6  2  0
  6  7  1  0
  7  8  2  0
  8  9  1  0
  9 10  1  0
 10 11  1  0
 11 12  2  0
 12 13  1  0
 13 14  1  0
  9 15  2  0
 15 16  1  0
 16 17  1  0
 17 18  2  0
 18 19  1  0
 19 20  2  0
 20 21  1  0
 21 22  2  0
 16 23  2  0
  6 24  1  0
 24 25  2  0
 25  3  1  0
 23  7  1  0
 14 10  2  0
 22 17  1  0
  1 26  1  0
  1 27  1  0
  1 28  1  0
  4 29  1  0
  5 30  1  0
  8 31  1  0
 11 32  1  0
 12 33  1  0
 14 34  1  0
 15 35  1  0
 18 36  1  0
 19 37  1  0
 20 38  1  0
 21 39  1  0
 22 40  1  0
 24 41  1  0
 25 42  1  0
M  CHG  1  22   1
M  END
>  <UniqueID>  (38) 
36

>  <SMILES>  (38) 
COc1ccc(-c2cc(-c3ccsc3)cc(-c3cccc[nH+]3)n2)cc1

>  <Energy>  (38) 
83.44797571307068

>  <Genealogy>  (38) 
COc1ccc(-c2cc(-c3ccsc3)cc(-c3cccc[nH+]3)n2)cc1 (protonated)
COc1ccc(-c2cc(-c3ccsc3)cc(-c3cccc[nH+]3)n2)cc1 (3D coordinates assigned)
COc1ccc(-c2cc(-c3ccsc3)cc(-c3cccc[nH+]3)n2)cc1 (optimized conformer: 83.44797571307068 kcal/mol)

>  <smiles>  (38) 
COc1ccc(-c2cc(-c3ccsc3)cc(-c3ccccn3)n2)cc1

>  <score_type>  (38) 
oracle

>  <origin>  (38) 
adg

>  <m_score__min__energy>  (38) 
-5.8300000000000001

>  <m_primary>  (38) 
energy

$$$$
38:0
     RDKit          3D

 86 88  0  0  0  0  0  0  0  0999 V2000
   55.1720   23.3490   47.1390 C   0  0  0  0  0  0  0  0  0  0  0  0
   55.1900   22.4470   45.9050 C   0  0  0  0  0  0  0  0  0  0  0  0
   54.4040   23.0250   44.7900 N   0  0  0  0  0  0  0  0  0  0  0  0
   53.4620   24.0630   45.2630 C   0  0  0  0  0  0  0  0  0  0  0  0
   52.1440   23.9690   44.5010 C   0  0  0  0  0  0  0  0  0  0  0  0
   55.2280   23.4920   43.6460 C   0  0  0  0  0  0  0  0  0  0  0  0
   56.4000   22.5560   43.2860 C   0  0  0  0  0  0  0  0  0  0  0  0
   57.6630   23.1090   43.7800 N   0  0  0  0  0  0  0  0  0  0  0  0
   57.7960   24.3740   44.4610 C   0  0  0  0  0  0  0  0  0  0  0  0
   57.6300   25.5960   43.7930 C   0  0  0  0  0  0  0  0  0  0  0  0
   57.7760   26.8050   44.4760 C   0  0  0  0  0  0  0  0  0  0  0  0
   57.5810   28.2480   43.6440 S   0  0  0  0  0  0  0  0  0  0  0  0
   57.7970   29.5930   44.6250 C   0  0  0  0  0  0  0  0  0  0  0  0
   57.6800   30.8630   44.0550 C   0  0  0  0  0  0  0  0  0  0  0  0
   57.8570   32.0130   44.8330 C   0  0  0  0  0  0  0  0  0  0  0  0
   57.7500   33.3330   44.2610 N   0  0  0  0  0  0  0  0  0  0  0  0
   58.1520   34.5500   44.9730 C   0  0  0  0  0  0  0  0  0  0  0  0
   59.6680   34.5740   45.2070 C   0  0  0  0  0  0  0  0  0  0  0  0
   60.0210   35.0000   46.6400 C   0  0  0  0  0  0  0  0  0  0  0  0
   60.8180   33.9630   47.3330 N   0  0  0  0  0  0  0  0  0  0  0  0
   62.1410   33.8280   46.7000 C   0  0  0  0  0  0  0  0  0  0  0  0
   60.9900   34.2910   48.7590 C   0  0  0  0  0  0  0  0  0  0  0  0
   58.1380   31.8670   46.1970 C   0  0  0  0  0  0  0  0  0  0  0  0
   58.2710   32.9720   46.9760 F   0  0  0  0  0  0  0  0  0  0  0  0
   58.2620   30.5940   46.7820 C   0  0  0  0  0  0  0  0  0  0  0  0
   58.5290   30.5380   48.1900 N   0  0  0  0  0  0  0  0  0  0  0  0
   59.5410   31.4090   48.7900 C   0  0  0  0  0  0  0  0  0  0  0  0
   59.4970   31.3480   50.3210 C   0  0  0  0  0  0  0  0  0  0  0  0
   58.7490   30.1460   50.7690 N   0  0  0  0  0  0  0  0  0  0  0  0
   57.6480   30.4560   51.7120 C   0  0  0  0  0  0  0  0  0  0  0  0
   57.2380   31.9230   51.6220 C   0  0  0  0  0  0  0  0  0  0  0  0
   59.6390   29.0800   51.2880 C   0  0  0  0  0  0  0  0  0  0  0  0
   60.4970   28.4080   50.2040 C   0  0  0  0  0  0  0  0  0  0  0  0
   58.0980   29.4090   45.9960 C   0  0  0  0  0  0  0  0  0  0  0  0
   58.2560   28.0910   46.5650 C   0  0  0  0  0  0  0  0  0  0  0  0
   58.5690   28.0110   47.7840 O   0  0  0  0  0  0  0  0  0  0  0  0
   58.0960   26.8520   45.8510 C   0  0  0  0  0  0  0  0  0  0  0  0
   58.2640   25.6050   46.5130 C   0  0  0  0  0  0  0  0  0  0  0  0
   58.5680   25.5340   47.8350 F   0  0  0  0  0  0  0  0  0  0  0  0
   58.1170   24.3940   45.8250 C   0  0  0  0  0  0  0  0  0  0  0  0
   58.2860   23.2290   46.5020 F   0  0  0  0  0  0  0  0  0  0  0  0
   55.1844   22.7283   48.0471 H   0  0  0  0  0  0  0  0  0  0  0  0
   56.0573   24.0018   47.1290 H   0  0  0  0  0  0  0  0  0  0  0  0
   54.2614   23.9660   47.1290 H   0  0  0  0  0  0  0  0  0  0  0  0
   56.2312   22.3147   45.5757 H   0  0  0  0  0  0  0  0  0  0  0  0
   54.7368   21.4829   46.1793 H   0  0  0  0  0  0  0  0  0  0  0  0
   53.2715   23.9180   46.3366 H   0  0  0  0  0  0  0  0  0  0  0  0
   53.9056   25.0545   45.0894 H   0  0  0  0  0  0  0  0  0  0  0  0
   51.3104   23.9095   45.2162 H   0  0  0  0  0  0  0  0  0  0  0  0
   52.0217   24.8607   43.8686 H   0  0  0  0  0  0  0  0  0  0  0  0
   52.1495   23.0690   43.8686 H   0  0  0  0  0  0  0  0  0  0  0  0
   54.5754   23.5819   42.7651 H   0  0  0  0  0  0  0  0  0  0  0  0
   55.6720   24.4521   43.9479 H   0  0  0  0  0  0  0  0  0  0  0  0
   56.2314   21.5705   43.7447 H   0  0  0  0  0  0  0  0  0  0  0  0
   56.4562   22.4579   42.1918 H   0  0  0  0  0  0  0  0  0  0  0  0
   58.5210   22.5360   43.6150 H   0  0  0  0  0  0  0  0  0  0  0  0
   57.3825   25.6020   42.7212 H   0  0  0  0  0  0  0  0  0  0  0  0
   57.4465   30.9602   42.9845 H   0  0  0  0  0  0  0  0  0  0  0  0
   57.3420   33.4290   43.3030 H   0  0  0  0  0  0  0  0  0  0  0  0
   57.8663   35.4278   44.3748 H   0  0  0  0  0  0  0  0  0  0  0  0
   57.6461   34.5683   45.9496 H   0  0  0  0  0  0  0  0  0  0  0  0
   60.0715   33.5668   45.0261 H   0  0  0  0  0  0  0  0  0  0  0  0
   60.1075   35.3081   44.5157 H   0  0  0  0  0  0  0  0  0  0  0  0
   60.6031   35.9326   46.6026 H   0  0  0  0  0  0  0  0  0  0  0  0
   59.0841   35.1455   47.1977 H   0  0  0  0  0  0  0  0  0  0  0  0
   62.9138   33.7491   47.4788 H   0  0  0  0  0  0  0  0  0  0  0  0
   62.1575   32.9235   46.0742 H   0  0  0  0  0  0  0  0  0  0  0  0
   62.3398   34.7105   46.0742 H   0  0  0  0  0  0  0  0  0  0  0  0
   60.5666   33.4837   49.3746 H   0  0  0  0  0  0  0  0  0  0  0  0
   62.0613   34.4000   48.9835 H   0  0  0  0  0  0  0  0  0  0  0  0
   60.4705   35.2342   48.9835 H   0  0  0  0  0  0  0  0  0  0  0  0
   58.0360   29.8130   48.7600 H   0  0  0  0  0  0  0  0  0  0  0  0
   60.5363   31.0893   48.4478 H   0  0  0  0  0  0  0  0  0  0  0  0
   59.3344   32.4438   48.4793 H   0  0  0  0  0  0  0  0  0  0  0  0
   60.5242   31.3023   50.7117 H   0  0  0  0  0  0  0  0  0  0  0  0
   58.9886   32.2469   50.6998 H   0  0  0  0  0  0  0  0  0  0  0  0
   56.7799   29.8257   51.4690 H   0  0  0  0  0  0  0  0  0  0  0  0
   57.9999   30.2558   52.7348 H   0  0  0  0  0  0  0  0  0  0  0  0
   57.1230   32.3344   52.6357 H   0  0  0  0  0  0  0  0  0  0  0  0
   58.0127   32.4878   51.0827 H   0  0  0  0  0  0  0  0  0  0  0  0
   56.2827   32.0043   51.0827 H   0  0  0  0  0  0  0  0  0  0  0  0
   60.3112   29.5233   52.0374 H   0  0  0  0  0  0  0  0  0  0  0  0
   58.9910   28.2999   51.7140 H   0  0  0  0  0  0  0  0  0  0  0  0
   61.2774   27.7967   50.6807 H   0  0  0  0  0  0  0  0  0  0  0  0
   59.8600   27.7661   49.5778 H   0  0  0  0  0  0  0  0  0  0  0  0
   60.9676   29.1803   49.5778 H   0  0  0  0  0  0  0  0  0  0  0  0
  1  2  1  0
  2  3  1  0
  3  4  1  0
  4  5  1  0
  3  6  1  0
  6  7  1  0
  7  8  1  0
  8  9  1  0
  9 10  2  0
 10 11  1  0
 11 12  1  0
 12 13  1  0
 13 14  2  0
 14 15  1  0
 15 16  1  0
 16 17  1  0
 17 18  1  0
 18 19  1  0
 19 20  1  0
 20 21  1  0
 20 22  1  0
 15 23  2  0
 23 24  1  0
 23 25  1  0
 25 26  1  0
 26 27  1  0
 27 28  1  0
 28 29  1  0
 29 30  1  0
 30 31  1  0
 29 32  1  0
 32 33  1  0
 25 34  2  0
 34 35  1  0
 35 36  2  0
 35 37  1  0
 37 38  1  0
 38 39  1  0
 38 40  2  0
 40 41  1  0
 40  9  1  0
 37 11  2  0
 34 13  1  0
  1 42  1  0
  1 43  1  0
  1 44  1  0
  2 45  1  0
  2 46  1  0
  4 47  1  0
  4 48  1  0
  5 49  1  0
  5 50  1  0
  5 51  1  0
  6 52  1  0
  6 53  1  0
  7 54  1  0
  7 55  1  0
  8 56  1  0
 10 57  1  0
 14 58  1  0
 16 59  1  0
 17 60  1  0
 17 61  1  0
 18 62  1  0
 18 63  1  0
 19 64  1  0
 19 65  1  0
 21 66  1  0
 21 67  1  0
 21 68  1  0
 22 69  1  0
 22 70  1  0
 22 71  1  0
 26 72  1  0
 27 73  1  0
 27 74  1  0
 28 75  1  0
 28 76  1  0
 30 77  1  0
 30 78  1  0
 31 79  1  0
 31 80  1  0
 31 81  1  0
 32 82  1  0
 32 83  1  0
 33 84  1  0
 33 85  1  0
 33 86  1  0
M  END
>  <UniqueID>  (39) 
37

>  <SMILES>  (39) 
CCN(CC)CCNc1cc2sc3cc(NCCCN(C)C)c(F)c(NCCN(CC)CC)c3c(=O)c2c(F)c1F

>  <Energy>  (39) 
105.88493789495949

>  <Genealogy>  (39) 
CCN(CC)CCNc1cc2sc3cc(NCCCN(C)C)c(F)c(NCCN(CC)CC)c3c(=O)c2c(F)c1F (3D coordinates assigned)
CCN(CC)CCNc1cc2sc3cc(NCCCN(C)C)c(F)c(NCCN(CC)CC)c3c(=O)c2c(F)c1F (optimized conformer: 105.88493789495949 kcal/mol)

>  <smiles>  (39) 
CCN(CC)CCNc1cc2sc3cc(NCCCN(C)C)c(F)c(NCCN(CC)CC)c3c(=O)c2c(F)c1F

>  <score_type>  (39) 
oracle

>  <origin>  (39) 
adg

>  <m_score__min__energy>  (39) 
-7.3200000000000003

>  <m_primary>  (39) 
energy

$$$$
39:0
     RDKit          3D

 42 44  0  0  0  0  0  0  0  0999 V2000
   56.5140   25.9330   45.6270 C   0  0  0  0  0  0  0  0  0  0  0  0
   55.9280   27.2310   45.6140 O   0  0  0  0  0  0  0  0  0  0  0  0
   56.6340   28.4320   45.4360 C   0  0  0  0  0  0  0  0  0  0  0  0
   56.1210   29.4520   44.6180 C   0  0  0  0  0  0  0  0  0  0  0  0
   56.8170   30.6430   44.4330 C   0  0  0  0  0  0  0  0  0  0  0  0
   58.0390   30.8680   45.0880 C   0  0  0  0  0  0  0  0  0  0  0  0
   58.5680   29.8500   45.9090 C   0  0  0  0  0  0  0  0  0  0  0  0
   57.8810   28.6270   46.0840 C   0  0  0  0  0  0  0  0  0  0  0  0
   58.4850   27.6520   46.9040 O   0  0  0  0  0  0  0  0  0  0  0  0
   59.6180   26.8500   46.5890 C   0  0  0  0  0  0  0  0  0  0  0  0
   59.8940   30.1080   46.5820 C   0  0  0  0  0  0  0  0  0  0  0  0
   59.8740   31.5030   47.2070 C   0  0  0  0  0  0  0  0  0  0  0  0
   59.5820   32.6260   46.1790 C   0  0  1  0  0  0  0  0  0  0  0  0
   58.8940   32.1190   44.8590 C   0  0  2  0  0  0  0  0  0  0  0  0
   58.1900   33.2950   44.1560 C   0  0  0  0  0  0  0  0  0  0  0  0
   57.1310   33.9670   45.0430 C   0  0  0  0  0  0  0  0  0  0  0  0
   57.3880   33.7460   46.5440 C   0  0  0  0  0  0  0  0  0  0  0  0
   58.8260   33.7060   46.8740 N   0  0  0  0  0  0  0  0  0  0  0  0
   59.4650   35.0290   46.7670 C   0  0  0  0  0  0  0  0  0  0  0  0
   56.6610   25.6075   46.6674 H   0  0  0  0  0  0  0  0  0  0  0  0
   55.8482   25.2249   45.1118 H   0  0  0  0  0  0  0  0  0  0  0  0
   57.4854   25.9641   45.1118 H   0  0  0  0  0  0  0  0  0  0  0  0
   55.1533   29.3072   44.1154 H   0  0  0  0  0  0  0  0  0  0  0  0
   56.4059   31.4160   43.7670 H   0  0  0  0  0  0  0  0  0  0  0  0
   60.0972   26.5108   47.5192 H   0  0  0  0  0  0  0  0  0  0  0  0
   59.2973   25.9766   46.0022 H   0  0  0  0  0  0  0  0  0  0  0  0
   60.3351   27.4428   46.0022 H   0  0  0  0  0  0  0  0  0  0  0  0
   60.0618   29.3552   47.3663 H   0  0  0  0  0  0  0  0  0  0  0  0
   60.7044   30.0453   45.8409 H   0  0  0  0  0  0  0  0  0  0  0  0
   59.0949   31.5277   47.9832 H   0  0  0  0  0  0  0  0  0  0  0  0
   60.8752   31.6907   47.6222 H   0  0  0  0  0  0  0  0  0  0  0  0
   60.5364   33.0324   45.8130 H   0  0  0  0  0  0  0  0  0  0  0  0
   59.6589   31.7620   44.1537 H   0  0  0  0  0  0  0  0  0  0  0  0
   58.9465   34.0449   43.8814 H   0  0  0  0  0  0  0  0  0  0  0  0
   57.6757   32.8933   43.2705 H   0  0  0  0  0  0  0  0  0  0  0  0
   57.1365   35.0481   44.8403 H   0  0  0  0  0  0  0  0  0  0  0  0
   56.1584   33.5133   44.8017 H   0  0  0  0  0  0  0  0  0  0  0  0
   56.9203   34.5677   47.1062 H   0  0  0  0  0  0  0  0  0  0  0  0
   56.9567   32.7713   46.8158 H   0  0  0  0  0  0  0  0  0  0  0  0
   59.6568   35.4261   47.7747 H   0  0  0  0  0  0  0  0  0  0  0  0
   60.4164   34.9338   46.2232 H   0  0  0  0  0  0  0  0  0  0  0  0
   58.7989   35.7150   46.2232 H   0  0  0  0  0  0  0  0  0  0  0  0
  1  2  1  0
  2  3  1  0
  3  4  2  0
  4  5  1  0
  5  6  2  0
  6  7  1  0
  7  8  2  0
  8  9  1  0
  9 10  1  0
  7 11  1  0
 11 12  1  0
 12 13  1  0
 13 14  1  0
 14 15  1  0
 15 16  1  0
 16 17  1  0
 17 18  1  0
 18 19  1  0
  8  3  1  0
 18 13  1  0
 14  6  1  0
  1 20  1  0
  1 21  1  0
  1 22  1  0
  4 23  1  0
  5 24  1  0
 10 25  1  0
 10 26  1  0
 10 27  1  0
 11 28  1  0
 11 29  1  0
 12 30  1  0
 12 31  1  0
 13 32  1  6
 14 33  1  6
 15 34  1  0
 15 35  1  0
 16 36  1  0
 16 37  1  0
 17 38  1  0
 17 39  1  0
 19 40  1  0
 19 41  1  0
 19 42  1  0
M  END
>  <UniqueID>  (40) 
38

>  <SMILES>  (40) 
COc1ccc2c(c1OC)CC[C@H]1[C@@H]2CCCN1C

>  <Energy>  (40) 
64.14661812523832

>  <Genealogy>  (40) 
COc1ccc2c(c1OC)CC[C@H]1[C@@H]2CCCN1C (chirality)
COc1ccc2c(c1OC)CC[C@H]1[C@@H]2CCCN1C (3D coordinates assigned)
COc1ccc2c(c1OC)CC[C@H]1[C@@H]2CCCN1C (nonaromatic ring conformer: 64.14661812523832 kcal/mol)

>  <smiles>  (40) 
COc1ccc2c(c1OC)CCC1C2CCCN1C

>  <score_type>  (40) 
oracle

>  <origin>  (40) 
adg

>  <m_score__min__energy>  (40) 
-6.6799999999999997

>  <m_primary>  (40) 
energy

$$$$
40:0
     RDKit          3D

 47 48  0  0  0  0  0  0  0  0999 V2000
   56.6340   28.1130   45.2500 C   0  0  0  0  0  0  0  0  0  0  0  0
   55.5700   29.0080   45.0150 O   0  0  0  0  0  0  0  0  0  0  0  0
   55.7550   29.6390   43.7670 C   0  0  0  0  0  0  0  0  0  0  0  0
   56.5890   30.9150   43.9430 C   0  0  0  0  0  0  0  0  0  0  0  0
   57.3150   30.9460   45.2270 N   0  0  0  0  0  0  0  0  0  0  0  0
   58.6990   30.4580   45.1130 C   0  0  0  0  0  0  0  0  0  0  0  0
   59.5860   31.0640   46.2080 C   0  0  0  0  0  0  0  0  0  0  0  0
   59.8080   30.0930   47.3420 C   0  0  0  0  0  0  0  0  0  0  0  0
   59.4780   28.7380   47.1670 C   0  0  0  0  0  0  0  0  0  0  0  0
   59.7070   27.8160   48.1890 C   0  0  0  0  0  0  0  0  0  0  0  0
   60.2750   28.2350   49.3930 C   0  0  0  0  0  0  0  0  0  0  0  0
   60.6200   29.5760   49.5780 C   0  0  0  0  0  0  0  0  0  0  0  0
   60.3980   30.5180   48.5530 C   0  0  0  0  0  0  0  0  0  0  0  0
   60.7390   31.8750   48.6980 O   0  0  0  0  0  0  0  0  0  0  0  0
   59.9440   32.8700   49.3420 C   0  0  0  0  0  0  0  0  0  0  0  0
   60.1300   34.2300   48.6630 C   0  0  0  0  0  0  0  0  0  0  0  0
   59.3640   34.2850   47.3710 C   0  0  0  0  0  0  0  0  0  0  0  0
   58.0790   33.7210   47.2850 C   0  0  0  0  0  0  0  0  0  0  0  0
   57.3800   33.7440   46.0740 C   0  0  0  0  0  0  0  0  0  0  0  0
   57.9590   34.3210   44.9410 C   0  0  0  0  0  0  0  0  0  0  0  0
   59.2420   34.8730   45.0150 C   0  0  0  0  0  0  0  0  0  0  0  0
   59.9450   34.8510   46.2230 C   0  0  0  0  0  0  0  0  0  0  0  0
   56.7784   27.9915   46.3337 H   0  0  0  0  0  0  0  0  0  0  0  0
   56.3987   27.1373   44.7998 H   0  0  0  0  0  0  0  0  0  0  0  0
   57.5550   28.5120   44.7998 H   0  0  0  0  0  0  0  0  0  0  0  0
   56.2789   28.9524   43.0857 H   0  0  0  0  0  0  0  0  0  0  0  0
   54.7734   29.9041   43.3472 H   0  0  0  0  0  0  0  0  0  0  0  0
   57.3203   30.9737   43.1234 H   0  0  0  0  0  0  0  0  0  0  0  0
   55.8966   31.7697   43.9312 H   0  0  0  0  0  0  0  0  0  0  0  0
   56.8100   30.3770   45.9460 H   0  0  0  0  0  0  0  0  0  0  0  0
   58.7036   29.3624   45.2113 H   0  0  0  0  0  0  0  0  0  0  0  0
   59.0974   30.7579   44.1325 H   0  0  0  0  0  0  0  0  0  0  0  0
   60.5595   31.3321   45.7715 H   0  0  0  0  0  0  0  0  0  0  0  0
   59.0782   31.9531   46.6100 H   0  0  0  0  0  0  0  0  0  0  0  0
   59.0360   28.4019   46.2174 H   0  0  0  0  0  0  0  0  0  0  0  0
   59.4398   26.7586   48.0457 H   0  0  0  0  0  0  0  0  0  0  0  0
   60.4515   27.5072   50.1987 H   0  0  0  0  0  0  0  0  0  0  0  0
   61.0677   29.8989   50.5295 H   0  0  0  0  0  0  0  0  0  0  0  0
   58.8847   32.5792   49.2850 H   0  0  0  0  0  0  0  0  0  0  0  0
   60.2598   32.9516   50.3925 H   0  0  0  0  0  0  0  0  0  0  0  0
   59.7651   35.0219   49.3337 H   0  0  0  0  0  0  0  0  0  0  0  0
   61.1989   34.3761   48.4482 H   0  0  0  0  0  0  0  0  0  0  0  0
   57.6220   33.2602   48.1731 H   0  0  0  0  0  0  0  0  0  0  0  0
   56.3724   33.3070   46.0134 H   0  0  0  0  0  0  0  0  0  0  0  0
   57.4057   34.3412   43.9905 H   0  0  0  0  0  0  0  0  0  0  0  0
   59.6982   35.3248   44.1218 H   0  0  0  0  0  0  0  0  0  0  0  0
   60.9572   35.2784   46.2755 H   0  0  0  0  0  0  0  0  0  0  0  0
  1  2  1  0
  2  3  1  0
  3  4  1  0
  4  5  1  0
  5  6  1  0
  6  7  1  0
  7  8  1  0
  8  9  2  0
  9 10  1  0
 10 11  2  0
 11 12  1  0
 12 13  2  0
 13 14  1  0
 14 15  1  0
 15 16  1  0
 16 17  1  0
 17 18  2  0
 18 19  1  0
 19 20  2  0
 20 21  1  0
 21 22  2  0
 13  8  1  0
 22 17  1  0
  1 23  1  0
  1 24  1  0
  1 25  1  0
  3 26  1  0
  3 27  1  0
  4 28  1  0
  4 29  1  0
  5 30  1  0
  6 31  1  0
  6 32  1  0
  7 33  1  0
  7 34  1  0
  9 35  1  0
 10 36  1  0
 11 37  1  0
 12 38  1  0
 15 39  1  0
 15 40  1  0
 16 41  1  0
 16 42  1  0
 18 43  1  0
 19 44  1  0
 20 45  1  0
 21 46  1  0
 22 47  1  0
M  END
>  <UniqueID>  (41) 
39

>  <SMILES>  (41) 
COCCNCCc1ccccc1OCCc1ccccc1

>  <Energy>  (41) 
43.1964364603951

>  <Genealogy>  (41) 
COCCNCCc1ccccc1OCCc1ccccc1 (3D coordinates assigned)
COCCNCCc1ccccc1OCCc1ccccc1 (optimized conformer: 43.1964364603951 kcal/mol)

>  <smiles>  (41) 
COCCNCCc1ccccc1OCCc1ccccc1

>  <score_type>  (41) 
oracle

>  <origin>  (41) 
adg

>  <m_score__min__energy>  (41) 
-7.4000000000000004

>  <m_primary>  (41) 
energy

$$$$
41:0
     RDKit          3D

 42 44  0  0  0  0  0  0  0  0999 V2000
   66.2120   32.0280   50.3210 C   0  0  0  0  0  0  0  0  0  0  0  0
   65.1830   33.0970   49.9510 C   0  0  0  0  0  0  0  0  0  0  0  0
   63.8410   32.5090   49.7250 N   0  0  0  0  0  0  0  0  0  0  0  0
   63.6490   32.1130   48.3060 C   0  0  0  0  0  0  0  0  0  0  0  0
   62.1580   31.9830   47.9520 C   0  0  0  0  0  0  0  0  0  0  0  0
   61.4200   33.2620   48.1490 N   0  0  0  0  0  0  0  0  0  0  0  0
   61.2000   33.9470   46.8880 C   0  0  0  0  0  0  0  0  0  0  0  0
   62.0110   33.8320   45.9790 O   0  0  0  0  0  0  0  0  0  0  0  0
   59.9830   34.8150   46.6760 C   0  0  0  0  0  0  0  0  0  0  0  0
   58.6950   34.0240   46.9460 C   0  0  2  0  0  0  0  0  0  0  0  0
   58.8720   33.1230   48.0540 O   0  0  0  0  0  0  0  0  0  0  0  0
   58.6950   31.8110   47.6400 C   0  0  0  0  0  0  0  0  0  0  0  0
   58.7910   30.8080   48.3970 O   0  0  0  0  0  0  0  0  0  0  0  0
   58.3850   31.7870   46.2310 C   0  0  0  0  0  0  0  0  0  0  0  0
   58.0950   30.7270   45.3760 C   0  0  0  0  0  0  0  0  0  0  0  0
   57.7980   31.0260   44.0310 C   0  0  0  0  0  0  0  0  0  0  0  0
   57.7860   32.3670   43.5820 C   0  0  0  0  0  0  0  0  0  0  0  0
   58.0650   33.4160   44.4730 C   0  0  0  0  0  0  0  0  0  0  0  0
   58.3730   33.0970   45.8030 C   0  0  0  0  0  0  0  0  0  0  0  0
   62.0810   34.1840   49.1020 C   0  0  0  0  0  0  0  0  0  0  0  0
   62.7690   33.4090   50.2330 C   0  0  0  0  0  0  0  0  0  0  0  0
   66.2847   31.9525   51.4160 H   0  0  0  0  0  0  0  0  0  0  0  0
   65.8987   31.0584   49.9066 H   0  0  0  0  0  0  0  0  0  0  0  0
   67.1928   32.3042   49.9066 H   0  0  0  0  0  0  0  0  0  0  0  0
   65.1186   33.8288   50.7697 H   0  0  0  0  0  0  0  0  0  0  0  0
   65.5087   33.5789   49.0174 H   0  0  0  0  0  0  0  0  0  0  0  0
   64.1048   32.8758   47.6576 H   0  0  0  0  0  0  0  0  0  0  0  0
   64.1256   31.1333   48.1544 H   0  0  0  0  0  0  0  0  0  0  0  0
   62.0690   31.6812   46.8979 H   0  0  0  0  0  0  0  0  0  0  0  0
   61.7158   31.2310   48.6220 H   0  0  0  0  0  0  0  0  0  0  0  0
   60.4870   33.0130   48.5600 H   0  0  0  0  0  0  0  0  0  0  0  0
   60.0290   35.6741   47.3615 H   0  0  0  0  0  0  0  0  0  0  0  0
   59.9730   35.1588   45.6312 H   0  0  0  0  0  0  0  0  0  0  0  0
   57.9154   34.7808   47.1175 H   0  0  0  0  0  0  0  0  0  0  0  0
   58.0976   29.6886   45.7389 H   0  0  0  0  0  0  0  0  0  0  0  0
   57.5742   30.2115   43.3264 H   0  0  0  0  0  0  0  0  0  0  0  0
   57.5569   32.5895   42.5294 H   0  0  0  0  0  0  0  0  0  0  0  0
   58.0424   34.4627   44.1355 H   0  0  0  0  0  0  0  0  0  0  0  0
   62.8342   34.7779   48.5635 H   0  0  0  0  0  0  0  0  0  0  0  0
   61.3151   34.8390   49.5428 H   0  0  0  0  0  0  0  0  0  0  0  0
   63.2138   34.1284   50.9363 H   0  0  0  0  0  0  0  0  0  0  0  0
   62.0093   32.7852   50.7267 H   0  0  0  0  0  0  0  0  0  0  0  0
  1  2  1  0
  2  3  1  0
  3  4  1  0
  4  5  1  0
  5  6  1  0
  6  7  1  0
  7  8  2  0
  7  9  1  0
  9 10  1  0
 10 11  1  0
 11 12  1  0
 12 13  2  0
 12 14  1  0
 14 15  2  0
 15 16  1  0
 16 17  2  0
 17 18  1  0
 18 19  2  0
  6 20  1  0
 20 21  1  0
 21  3  1  0
 19 10  1  0
 19 14  1  0
  1 22  1  0
  1 23  1  0
  1 24  1  0
  2 25  1  0
  2 26  1  0
  4 27  1  0
  4 28  1  0
  5 29  1  0
  5 30  1  0
  6 31  1  0
  9 32  1  0
  9 33  1  0
 10 34  1  1
 15 35  1  0
 16 36  1  0
 17 37  1  0
 18 38  1  0
 20 39  1  0
 20 40  1  0
 21 41  1  0
 21 42  1  0
M  CHG  1   6   1
M  END
>  <UniqueID>  (42) 
40

>  <SMILES>  (42) 
CCN1CC[NH+](C(=O)C[C@@H]2OC(=O)c3ccccc32)CC1

>  <Energy>  (42) 
75.35670571923242

>  <Genealogy>  (42) 
CCN1CC[NH+](C(=O)CC2OC(=O)c3ccccc32)CC1 (protonated)
CCN1CC[NH+](C(=O)C[C@@H]2OC(=O)c3ccccc32)CC1 (chirality)
CCN1CC[NH+](C(=O)C[C@@H]2OC(=O)c3ccccc32)CC1 (3D coordinates assigned)
CCN1CC[NH+](C(=O)C[C@@H]2OC(=O)c3ccccc32)CC1 (nonaromatic ring conformer: 75.35670571923242 kcal/mol)

>  <smiles>  (42) 
CCN1CCN(C(=O)CC2OC(=O)c3ccccc32)CC1

>  <score_type>  (42) 
oracle

>  <origin>  (42) 
adg

>  <m_score__min__energy>  (42) 
-6.2199999999999998

>  <m_primary>  (42) 
energy

$$$$
42:0
     RDKit          3D

 40 42  0  0  0  0  0  0  0  0999 V2000
   57.1650   30.3680   44.0610 C   0  0  0  0  0  0  0  0  0  0  0  0
   57.3230   30.8510   45.3910 O   0  0  0  0  0  0  0  0  0  0  0  0
   58.3960   31.6450   45.8320 C   0  0  0  0  0  0  0  0  0  0  0  0
   58.4430   33.0230   45.5790 C   0  0  0  0  0  0  0  0  0  0  0  0
   59.5050   33.7890   46.0460 C   0  0  0  0  0  0  0  0  0  0  0  0
   60.5430   33.2110   46.7930 C   0  0  0  0  0  0  0  0  0  0  0  0
   60.5340   31.8120   47.0200 C   0  0  0  0  0  0  0  0  0  0  0  0
   59.4450   31.0340   46.5410 C   0  0  0  0  0  0  0  0  0  0  0  0
   59.3480   29.2530   46.8250 S   0  0  0  0  0  0  0  0  0  0  0  0
   59.3470   29.4380   48.6070 C   0  0  0  0  0  0  0  0  0  0  0  0
   58.5990   30.3530   49.3310 C   0  0  0  0  0  0  0  0  0  0  0  0
   58.8060   30.2560   50.7110 C   0  0  0  0  0  0  0  0  0  0  0  0
   59.7110   29.2650   51.0720 C   0  0  0  0  0  0  0  0  0  0  0  0
   60.2530   28.5060   49.6710 S   0  0  0  0  0  0  0  0  0  0  0  0
   61.6440   31.1910   47.8290 C   0  0  0  0  0  0  0  0  0  0  0  0
   63.0040   31.3440   47.1250 C   0  0  0  0  0  0  0  0  0  0  0  0
   63.7350   32.6070   47.4280 N   0  0  2  0  0  0  0  0  0  0  0  0
   64.0920   32.7410   48.8560 C   0  0  0  0  0  0  0  0  0  0  0  0
   63.1160   33.8270   46.8550 C   0  0  0  0  0  0  0  0  0  0  0  0
   61.6510   34.1300   47.2810 C   0  0  0  0  0  0  0  0  0  0  0  0
   56.8231   29.3228   44.0887 H   0  0  0  0  0  0  0  0  0  0  0  0
   56.4213   30.9832   43.5334 H   0  0  0  0  0  0  0  0  0  0  0  0
   58.1285   30.4248   43.5334 H   0  0  0  0  0  0  0  0  0  0  0  0
   57.6342   33.5014   45.0072 H   0  0  0  0  0  0  0  0  0  0  0  0
   59.5322   34.8665   45.8263 H   0  0  0  0  0  0  0  0  0  0  0  0
   57.9143   31.0794   48.8688 H   0  0  0  0  0  0  0  0  0  0  0  0
   58.2998   30.9035   51.4421 H   0  0  0  0  0  0  0  0  0  0  0  0
   60.0203   29.0187   52.0985 H   0  0  0  0  0  0  0  0  0  0  0  0
   61.6913   31.6852   48.8106 H   0  0  0  0  0  0  0  0  0  0  0  0
   61.4314   30.1177   47.9427 H   0  0  0  0  0  0  0  0  0  0  0  0
   63.6414   30.5004   47.4283 H   0  0  0  0  0  0  0  0  0  0  0  0
   62.7895   31.3658   46.0463 H   0  0  0  0  0  0  0  0  0  0  0  0
   64.6560   32.5190   46.9350 H   0  0  0  0  0  0  0  0  0  0  0  0
   63.2425   32.4221   49.4778 H   0  0  0  0  0  0  0  0  0  0  0  0
   64.9652   32.1094   49.0765 H   0  0  0  0  0  0  0  0  0  0  0  0
   64.3340   33.7912   49.0765 H   0  0  0  0  0  0  0  0  0  0  0  0
   63.7347   34.6865   47.1525 H   0  0  0  0  0  0  0  0  0  0  0  0
   63.0718   33.6480   45.7706 H   0  0  0  0  0  0  0  0  0  0  0  0
   61.6239   34.1140   48.3805 H   0  0  0  0  0  0  0  0  0  0  0  0
   61.4280   35.0945   46.8015 H   0  0  0  0  0  0  0  0  0  0  0  0
  1  2  1  0
  2  3  1  0
  3  4  2  0
  4  5  1  0
  5  6  2  0
  6  7  1  0
  7  8  2  0
  8  9  1  0
  9 10  1  0
 10 11  2  0
 11 12  1  0
 12 13  2  0
 13 14  1  0
  7 15  1  0
 15 16  1  0
 16 17  1  0
 17 18  1  0
 17 19  1  0
 19 20  1  0
  8  3  1  0
 14 10  1  0
 20  6  1  0
  1 21  1  0
  1 22  1  0
  1 23  1  0
  4 24  1  0
  5 25  1  0
 11 26  1  0
 12 27  1  0
 13 28  1  0
 15 29  1  0
 15 30  1  0
 16 31  1  0
 16 32  1  0
 17 33  1  6
 18 34  1  0
 18 35  1  0
 18 36  1  0
 19 37  1  0
 19 38  1  0
 20 39  1  0
 20 40  1  0
M  CHG  1  17   1
M  END
>  <UniqueID>  (43) 
41

>  <SMILES>  (43) 
COc1ccc2c(c1Sc1cccs1)CC[N@H+](C)CC2

>  <Energy>  (43) 
83.6771659765528

>  <Genealogy>  (43) 
COc1ccc2c(c1Sc1cccs1)CC[NH+](C)CC2 (protonated)
COc1ccc2c(c1Sc1cccs1)CC[N@H+](C)CC2 (chirality)
COc1ccc2c(c1Sc1cccs1)CC[N@H+](C)CC2 (3D coordinates assigned)
COc1ccc2c(c1Sc1cccs1)CC[N@H+](C)CC2 (nonaromatic ring conformer: 83.6771659765528 kcal/mol)

>  <smiles>  (43) 
COc1ccc2c(c1Sc1cccs1)CCN(C)CC2

>  <score_type>  (43) 
oracle

>  <origin>  (43) 
adg

>  <m_score__min__energy>  (43) 
-3.8700000000000001

>  <m_primary>  (43) 
energy

$$$$
43:0
     RDKit          3D

 58 60  0  0  0  0  0  0  0  0999 V2000
   56.5040   23.0250   43.0150 C   0  0  0  0  0  0  0  0  0  0  0  0
   57.3200   24.0980   43.7490 C   0  0  0  0  0  0  0  0  0  0  0  0
   56.4780   24.9300   44.6470 N   0  0  1  0  0  0  0  0  0  0  0  0
   55.1820   24.2550   44.8690 C   0  0  0  0  0  0  0  0  0  0  0  0
   57.1720   25.1760   45.9400 C   0  0  0  0  0  0  0  0  0  0  0  0
   56.7780   26.5090   46.5950 C   0  0  0  0  0  0  0  0  0  0  0  0
   56.4830   27.4660   45.5950 O   0  0  0  0  0  0  0  0  0  0  0  0
   57.6360   27.7550   44.8280 C   0  0  0  0  0  0  0  0  0  0  0  0
   57.5230   29.1290   44.1950 C   0  0  0  0  0  0  0  0  0  0  0  0
   56.8220   29.2450   42.9850 C   0  0  0  0  0  0  0  0  0  0  0  0
   56.6370   30.4550   42.4040 N   0  0  0  0  0  0  0  0  0  0  0  0
   57.1190   31.5950   42.9570 C   0  0  0  0  0  0  0  0  0  0  0  0
   57.8390   31.5480   44.1570 C   0  0  0  0  0  0  0  0  0  0  0  0
   58.0890   30.2970   44.7680 C   0  0  0  0  0  0  0  0  0  0  0  0
   58.8880   30.2320   46.0570 C   0  0  0  0  0  0  0  0  0  0  0  0
   59.6400   31.5320   46.3550 C   0  0  0  0  0  0  0  0  0  0  0  0
   58.7420   32.6770   46.1450 N   0  0  0  0  0  0  0  0  0  0  0  0
   59.2490   33.9280   46.7520 C   0  0  0  0  0  0  0  0  0  0  0  0
   60.6170   33.7920   47.3880 C   0  0  0  0  0  0  0  0  0  0  0  0
   60.7440   33.6320   48.7770 C   0  0  0  0  0  0  0  0  0  0  0  0
   62.0080   33.4950   49.3610 C   0  0  0  0  0  0  0  0  0  0  0  0
   63.1610   33.5090   48.5640 C   0  0  0  0  0  0  0  0  0  0  0  0
   64.5170   33.3990   49.1960 C   0  0  0  0  0  0  0  0  0  0  0  0
   63.0390   33.6980   47.1790 C   0  0  0  0  0  0  0  0  0  0  0  0
   61.7750   33.8350   46.5960 C   0  0  0  0  0  0  0  0  0  0  0  0
   58.4200   32.8240   44.7130 C   0  0  0  0  0  0  0  0  0  0  0  0
   56.0089   22.3739   43.7505 H   0  0  0  0  0  0  0  0  0  0  0  0
   55.7443   23.5097   42.3842 H   0  0  0  0  0  0  0  0  0  0  0  0
   57.1741   22.4224   42.3842 H   0  0  0  0  0  0  0  0  0  0  0  0
   58.0962   23.6024   44.3506 H   0  0  0  0  0  0  0  0  0  0  0  0
   57.7620   24.7618   42.9914 H   0  0  0  0  0  0  0  0  0  0  0  0
   56.2790   25.8400   44.1700 H   0  0  0  0  0  0  0  0  0  0  0  0
   54.9986   24.1595   45.9494 H   0  0  0  0  0  0  0  0  0  0  0  0
   54.3765   24.8481   44.4114 H   0  0  0  0  0  0  0  0  0  0  0  0
   55.2063   23.2550   44.4114 H   0  0  0  0  0  0  0  0  0  0  0  0
   56.9212   24.3588   46.6323 H   0  0  0  0  0  0  0  0  0  0  0  0
   58.2504   25.2222   45.7283 H   0  0  0  0  0  0  0  0  0  0  0  0
   55.8912   26.3569   47.2278 H   0  0  0  0  0  0  0  0  0  0  0  0
   57.6144   26.8726   47.2101 H   0  0  0  0  0  0  0  0  0  0  0  0
   58.5209   27.7290   45.4809 H   0  0  0  0  0  0  0  0  0  0  0  0
   57.7304   27.0030   44.0308 H   0  0  0  0  0  0  0  0  0  0  0  0
   56.4179   28.3429   42.5024 H   0  0  0  0  0  0  0  0  0  0  0  0
   56.9437   32.5610   42.4609 H   0  0  0  0  0  0  0  0  0  0  0  0
   58.1977   30.0268   46.8885 H   0  0  0  0  0  0  0  0  0  0  0  0
   59.6372   29.4348   45.9425 H   0  0  0  0  0  0  0  0  0  0  0  0
   59.9862   31.5242   47.3991 H   0  0  0  0  0  0  0  0  0  0  0  0
   60.5060   31.6171   45.6821 H   0  0  0  0  0  0  0  0  0  0  0  0
   59.3074   34.6953   45.9660 H   0  0  0  0  0  0  0  0  0  0  0  0
   58.5489   34.1989   47.5561 H   0  0  0  0  0  0  0  0  0  0  0  0
   59.8445   33.6142   49.4099 H   0  0  0  0  0  0  0  0  0  0  0  0
   62.0974   33.3757   50.4509 H   0  0  0  0  0  0  0  0  0  0  0  0
   64.4129   33.4074   50.2910 H   0  0  0  0  0  0  0  0  0  0  0  0
   64.9936   32.4592   48.8802 H   0  0  0  0  0  0  0  0  0  0  0  0
   65.1388   34.2497   48.8802 H   0  0  0  0  0  0  0  0  0  0  0  0
   63.9403   33.7386   46.5497 H   0  0  0  0  0  0  0  0  0  0  0  0
   61.6878   33.9775   45.5088 H   0  0  0  0  0  0  0  0  0  0  0  0
   57.6883   33.6361   44.5901 H   0  0  0  0  0  0  0  0  0  0  0  0
   59.3465   33.0549   44.1669 H   0  0  0  0  0  0  0  0  0  0  0  0
  1  2  1  0
  2  3  1  0
  3  4  1  0
  3  5  1  0
  5  6  1  0
  6  7  1  0
  7  8  1  0
  8  9  1  0
  9 10  2  0
 10 11  1  0
 11 12  2  0
 12 13  1  0
 13 14  2  0
 14 15  1  0
 15 16  1  0
 16 17  1  0
 17 18  1  0
 18 19  1  0
 19 20  2  0
 20 21  1  0
 21 22  2  0
 22 23  1  0
 22 24  1  0
 24 25  2  0
 17 26  1  0
 14  9  1  0
 25 19  1  0
 26 13  1  0
  1 27  1  0
  1 28  1  0
  1 29  1  0
  2 30  1  0
  2 31  1  0
  3 32  1  6
  4 33  1  0
  4 34  1  0
  4 35  1  0
  5 36  1  0
  5 37  1  0
  6 38  1  0
  6 39  1  0
  8 40  1  0
  8 41  1  0
 10 42  1  0
 12 43  1  0
 15 44  1  0
 15 45  1  0
 16 46  1  0
 16 47  1  0
 18 48  1  0
 18 49  1  0
 20 50  1  0
 21 51  1  0
 23 52  1  0
 23 53  1  0
 23 54  1  0
 24 55  1  0
 25 56  1  0
 26 57  1  0
 26 58  1  0
M  CHG  1   3   1
M  END
>  <UniqueID>  (44) 
42

>  <SMILES>  (44) 
CC[N@@H+](C)CCOCc1cncc2c1CCN(Cc1ccc(C)cc1)C2

>  <Energy>  (44) 
67.35330686384704

>  <Genealogy>  (44) 
CC[NH+](C)CCOCc1cncc2c1CCN(Cc1ccc(C)cc1)C2 (protonated)
CC[N@@H+](C)CCOCc1cncc2c1CCN(Cc1ccc(C)cc1)C2 (chirality)
CC[N@@H+](C)CCOCc1cncc2c1CCN(Cc1ccc(C)cc1)C2 (3D coordinates assigned)
CC[N@@H+](C)CCOCc1cncc2c1CCN(Cc1ccc(C)cc1)C2 (nonaromatic ring conformer: 67.35330686384704 kcal/mol)

>  <smiles>  (44) 
CCN(C)CCOCc1cncc2c1CCN(Cc1ccc(C)cc1)C2

>  <score_type>  (44) 
oracle

>  <origin>  (44) 
adg

>  <m_score__min__energy>  (44) 
-6.2999999999999998

>  <m_primary>  (44) 
energy

$$$$
44:0
     RDKit          3D

 50 52  0  0  0  0  0  0  0  0999 V2000
   65.2030   32.1510   50.0980 C   0  0  0  0  0  0  0  0  0  0  0  0
   63.8020   31.6580   49.7590 C   0  0  0  0  0  0  0  0  0  0  0  0
   63.2730   32.3840   48.6020 N   0  0  0  0  0  0  0  0  0  0  0  0
   63.7790   33.5230   48.0980 C   0  0  0  0  0  0  0  0  0  0  0  0
   63.0840   33.8340   46.9520 C   0  0  0  0  0  0  0  0  0  0  0  0
   62.1490   32.8910   46.7230 N   0  0  0  0  0  0  0  0  0  0  0  0
   62.2890   32.0200   47.7460 C   0  0  0  0  0  0  0  0  0  0  0  0
   61.4350   30.7790   47.8790 C   0  0  0  0  0  0  0  0  0  0  0  0
   60.3840   30.6610   46.8370 N   0  0  0  0  0  0  0  0  0  0  0  0
   59.0250   30.4100   47.4020 C   0  0  0  0  0  0  0  0  0  0  0  0
   58.5070   28.9870   47.1170 C   0  0  0  0  0  0  0  0  0  0  0  0
   58.5320   28.6590   45.6720 N   0  0  0  0  0  0  0  0  0  0  0  0
   57.2080   28.6320   45.0150 C   0  0  0  0  0  0  0  0  0  0  0  0
   56.8590   29.9230   44.2480 C   0  0  0  0  0  0  0  0  0  0  0  0
   56.6630   31.0050   45.1600 O   0  0  0  0  0  0  0  0  0  0  0  0
   57.4140   32.1920   45.1870 C   0  0  0  0  0  0  0  0  0  0  0  0
   57.4190   32.9430   46.3700 C   0  0  0  0  0  0  0  0  0  0  0  0
   58.1490   34.1320   46.4540 C   0  0  0  0  0  0  0  0  0  0  0  0
   58.8830   34.5810   45.3540 C   0  0  0  0  0  0  0  0  0  0  0  0
   58.8890   33.8400   44.1700 C   0  0  0  0  0  0  0  0  0  0  0  0
   58.1610   32.6500   44.0820 C   0  0  0  0  0  0  0  0  0  0  0  0
   59.5650   29.3670   44.8850 C   0  0  0  0  0  0  0  0  0  0  0  0
   60.7720   29.7150   45.7620 C   0  0  0  0  0  0  0  0  0  0  0  0
   65.3225   32.1931   51.1907 H   0  0  0  0  0  0  0  0  0  0  0  0
   65.9472   31.4607   49.6740 H   0  0  0  0  0  0  0  0  0  0  0  0
   65.3509   33.1552   49.6740 H   0  0  0  0  0  0  0  0  0  0  0  0
   63.8420   30.5837   49.5259 H   0  0  0  0  0  0  0  0  0  0  0  0
   63.1430   31.8323   50.6223 H   0  0  0  0  0  0  0  0  0  0  0  0
   64.6066   34.1062   48.5280 H   0  0  0  0  0  0  0  0  0  0  0  0
   63.2638   34.7163   46.3202 H   0  0  0  0  0  0  0  0  0  0  0  0
   62.0904   29.8981   47.8120 H   0  0  0  0  0  0  0  0  0  0  0  0
   60.9193   30.8470   48.8483 H   0  0  0  0  0  0  0  0  0  0  0  0
   60.3410   31.6070   46.3850 H   0  0  0  0  0  0  0  0  0  0  0  0
   59.0660   30.5563   48.4915 H   0  0  0  0  0  0  0  0  0  0  0  0
   58.3327   31.1148   46.9184 H   0  0  0  0  0  0  0  0  0  0  0  0
   59.1400   28.2657   47.6546 H   0  0  0  0  0  0  0  0  0  0  0  0
   57.4619   28.9348   47.4562 H   0  0  0  0  0  0  0  0  0  0  0  0
   57.1924   27.7929   44.3039 H   0  0  0  0  0  0  0  0  0  0  0  0
   56.4596   28.5259   45.8142 H   0  0  0  0  0  0  0  0  0  0  0  0
   57.6825   30.1713   43.5622 H   0  0  0  0  0  0  0  0  0  0  0  0
   55.9308   29.7615   43.6802 H   0  0  0  0  0  0  0  0  0  0  0  0
   56.8435   32.5938   47.2400 H   0  0  0  0  0  0  0  0  0  0  0  0
   58.1454   34.7144   47.3871 H   0  0  0  0  0  0  0  0  0  0  0  0
   59.4560   35.5176   45.4200 H   0  0  0  0  0  0  0  0  0  0  0  0
   59.4682   34.1939   43.3044 H   0  0  0  0  0  0  0  0  0  0  0  0
   58.1708   32.0690   43.1480 H   0  0  0  0  0  0  0  0  0  0  0  0
   59.8943   28.7209   44.0578 H   0  0  0  0  0  0  0  0  0  0  0  0
   59.1328   30.2995   44.4931 H   0  0  0  0  0  0  0  0  0  0  0  0
   61.1657   28.7938   46.2164 H   0  0  0  0  0  0  0  0  0  0  0  0
   61.5404   30.1894   45.1339 H   0  0  0  0  0  0  0  0  0  0  0  0
  1  2  1  0
  2  3  1  0
  3  4  1  0
  4  5  2  0
  5  6  1  0
  6  7  2  0
  7  8  1  0
  8  9  1  0
  9 10  1  0
 10 11  1  0
 11 12  1  0
 12 13  1  0
 13 14  1  0
 14 15  1  0
 15 16  1  0
 16 17  2  0
 17 18  1  0
 18 19  2  0
 19 20  1  0
 20 21  2  0
 12 22  1  0
 22 23  1  0
  7  3  1  0
 23  9  1  0
 21 16  1  0
  1 24  1  0
  1 25  1  0
  1 26  1  0
  2 27  1  0
  2 28  1  0
  4 29  1  0
  5 30  1  0
  8 31  1  0
  8 32  1  0
  9 33  1  0
 10 34  1  0
 10 35  1  0
 11 36  1  0
 11 37  1  0
 13 38  1  0
 13 39  1  0
 14 40  1  0
 14 41  1  0
 17 42  1  0
 18 43  1  0
 19 44  1  0
 20 45  1  0
 21 46  1  0
 22 47  1  0
 22 48  1  0
 23 49  1  0
 23 50  1  0
M  CHG  1   9   1
M  END
>  <UniqueID>  (45) 
43

>  <SMILES>  (45) 
CCn1ccnc1C[NH+]1CCN(CCOc2ccccc2)CC1

>  <Energy>  (45) 
93.22944041095201

>  <Genealogy>  (45) 
CCn1ccnc1C[NH+]1CCN(CCOc2ccccc2)CC1 (protonated)
CCn1ccnc1C[NH+]1CCN(CCOc2ccccc2)CC1 (3D coordinates assigned)
CCn1ccnc1C[NH+]1CCN(CCOc2ccccc2)CC1 (nonaromatic ring conformer: 93.22944041095201 kcal/mol)

>  <smiles>  (45) 
CCn1ccnc1CN1CCN(CCOc2ccccc2)CC1

>  <score_type>  (45) 
oracle

>  <origin>  (45) 
adg

>  <m_score__min__energy>  (45) 
-5.25

>  <m_primary>  (45) 
energy

$$$$
