0:0
     RDKit          3D

 42 42  0  0  0  0  0  0  0  0999 V2000
   63.3690   33.8300   46.3450 C   0  0  0  0  0  0  0  0  0  0  0  0
   63.2870   32.5250   47.1340 C   0  0  0  0  0  0  0  0  0  0  0  0
   62.1940   32.5440   48.2160 C   0  0  0  0  0  0  0  0  0  0  0  0
   62.0680   33.9000   48.9420 C   0  0  0  0  0  0  0  0  0  0  0  0
   60.6260   34.4390   48.9180 C   0  0  0  0  0  0  0  0  0  0  0  0
   59.5980   33.3750   48.4960 C   0  0  0  0  0  0  0  0  0  0  0  0
   58.8790   33.6600   47.1620 C   0  0  0  0  0  0  0  0  0  0  0  0
   57.7800   32.6490   46.7810 C   0  0  0  0  0  0  0  0  0  0  0  0
   58.2400   31.1820   46.7280 C   0  0  0  0  0  0  0  0  0  0  0  0
   59.1900   30.8970   45.5580 C   0  0  0  0  0  0  0  0  0  0  0  0
   58.8000   29.6610   44.8770 N   0  0  0  0  0  0  0  0  0  0  0  0
   59.6390   28.6480   44.5760 C   0  0  0  0  0  0  0  0  0  0  0  0
   58.9160   27.6370   43.9820 C   0  0  0  0  0  0  0  0  0  0  0  0
   57.6250   28.0090   43.9200 N   0  0  0  0  0  0  0  0  0  0  0  0
   57.5750   29.2370   44.4750 C   0  0  0  0  0  0  0  0  0  0  0  0
   56.3480   29.9730   44.6190 N   0  0  0  0  0  0  0  0  0  0  0  0
   56.3540   31.2140   44.4950 O   0  0  0  0  0  0  0  0  0  0  0  0
   55.1490   29.3400   44.8470 O   0  0  0  0  0  0  0  0  0  0  0  0
   63.4223   34.6781   47.0435 H   0  0  0  0  0  0  0  0  0  0  0  0
   64.2683   33.8196   45.7116 H   0  0  0  0  0  0  0  0  0  0  0  0
   62.4755   33.9323   45.7116 H   0  0  0  0  0  0  0  0  0  0  0  0
   63.0722   31.7047   46.4333 H   0  0  0  0  0  0  0  0  0  0  0  0
   64.2520   32.3878   47.6438 H   0  0  0  0  0  0  0  0  0  0  0  0
   61.2294   32.3131   47.7403 H   0  0  0  0  0  0  0  0  0  0  0  0
   62.4760   31.7974   48.9730 H   0  0  0  0  0  0  0  0  0  0  0  0
   62.3814   33.7722   49.9887 H   0  0  0  0  0  0  0  0  0  0  0  0
   62.7089   34.6248   48.4187 H   0  0  0  0  0  0  0  0  0  0  0  0
   60.3678   34.7968   49.9257 H   0  0  0  0  0  0  0  0  0  0  0  0
   60.5879   35.2490   48.1748 H   0  0  0  0  0  0  0  0  0  0  0  0
   60.1215   32.4120   48.4031 H   0  0  0  0  0  0  0  0  0  0  0  0
   58.8187   33.3739   49.2724 H   0  0  0  0  0  0  0  0  0  0  0  0
   58.4167   34.6558   47.2303 H   0  0  0  0  0  0  0  0  0  0  0  0
   59.6476   33.5858   46.3785 H   0  0  0  0  0  0  0  0  0  0  0  0
   56.9717   32.7271   47.5230 H   0  0  0  0  0  0  0  0  0  0  0  0
   57.4612   32.9095   45.7609 H   0  0  0  0  0  0  0  0  0  0  0  0
   58.7589   30.9425   47.6679 H   0  0  0  0  0  0  0  0  0  0  0  0
   57.3442   30.5598   46.5853 H   0  0  0  0  0  0  0  0  0  0  0  0
   59.1483   31.7332   44.8446 H   0  0  0  0  0  0  0  0  0  0  0  0
   60.2129   30.7843   45.9466 H   0  0  0  0  0  0  0  0  0  0  0  0
   60.7212   28.6321   44.7724 H   0  0  0  0  0  0  0  0  0  0  0  0
   59.3266   26.6834   43.6186 H   0  0  0  0  0  0  0  0  0  0  0  0
   56.8330   27.4510   43.5320 H   0  0  0  0  0  0  0  0  0  0  0  0
  1  2  1  0
  2  3  1  0
  3  4  1  0
  4  5  1  0
  5  6  1  0
  6  7  1  0
  7  8  1  0
  8  9  1  0
  9 10  1  0
 10 11  1  0
 11 12  1  0
 12 13  2  0
 13 14  1  0
 14 15  2  0
 15 16  1  0
 16 17  2  0
 16 18  1  0
 15 11  1  0
  1 19  1  0
  1 20  1  0
  1 21  1  0
  2 22  1  0
  2 23  1  0
  3 24  1  0
  3 25  1  0
  4 26  1  0
  4 27  1  0
  5 28  1  0
  5 29  1  0
  6 30  1  0
  6 31  1  0
  7 32  1  0
  7 33  1  0
  8 34  1  0
  8 35  1  0
  9 36  1  0
  9 37  1  0
 10 38  1  0
 10 39  1  0
 12 40  1  0
 13 41  1  0
 14 42  1  0
M  CHG  3  14   1  16   1  18  -1
M  END
>  <UniqueID>  (1) 
1

>  <SMILES>  (1) 
CCCCCCCCCCn1cc[nH+]c1[N+](=O)[O-]

>  <Energy>  (1) 
59.03560212576909

>  <Genealogy>  (1) 
CCCCCCCCCCn1cc[nH+]c1[N+](=O)[O-] (protonated)
CCCCCCCCCCn1cc[nH+]c1[N+](=O)[O-] (3D coordinates assigned)
CCCCCCCCCCn1cc[nH+]c1[N+](=O)[O-] (optimized conformer: 59.03560212576909 kcal/mol)

>  <smiles>  (1) 
CCCCCCCCCCn1ccnc1[N+](=O)[O-]

>  <score_type>  (1) 
oracle

>  <origin>  (1) 
adg

>  <m_score__min__energy>  (1) 
-5.9500000000000002

>  <m_primary>  (1) 
energy

$$$$
1:0
     RDKit          3D

 40 42  0  0  1  0  0  0  0  0999 V2000
   58.4520   25.6640   45.6510 C   0  0  0  0  0  0  0  0  0  0  0  0
   58.1090   27.1090   45.5300 C   0  0  0  0  0  0  0  0  0  0  0  0
   58.5240   28.0220   46.5050 C   0  0  0  0  0  0  0  0  0  0  0  0
   58.1840   29.3580   46.3530 C   0  0  0  0  0  0  0  0  0  0  0  0
   58.5400   30.2350   47.2200 N   0  0  0  0  0  0  0  0  0  0  0  0
   59.7930   30.9510   47.1670 C   0  0  0  0  0  0  0  0  0  0  0  0
   59.6350   32.2550   47.9140 C   0  0  0  0  0  0  0  0  0  0  0  0
   59.1120   33.2850   47.1250 N   0  0  0  0  0  0  0  0  0  0  0  0
   57.7100   33.4890   47.0950 C   0  0  0  0  0  0  0  0  0  0  0  0
   57.1400   33.7550   45.7310 C   0  0  0  0  0  0  0  0  0  0  0  0
   58.1850   34.1600   44.7260 C   0  0  0  0  0  0  0  0  0  0  0  0
   59.2910   34.9730   45.3520 C   0  0  0  0  0  0  0  0  0  0  0  0
   59.9360   34.1820   46.4500 C   0  0  0  0  0  0  0  0  0  0  0  0
   57.4640   29.7470   45.2740 N   0  0  0  0  0  0  0  0  0  0  0  0
   57.0120   30.9090   44.8810 N   0  0  0  0  0  0  0  0  0  0  0  0
   56.3370   30.8370   43.7330 C   0  0  0  0  0  0  0  0  0  0  0  0
   56.3630   29.5080   43.3640 C   0  0  0  0  0  0  0  0  0  0  0  0
   57.0760   28.8590   44.3510 C   0  0  0  0  0  0  0  0  0  0  0  0
   57.3950   27.5530   44.4770 N   0  0  0  0  0  0  0  0  0  0  0  0
   58.5170   25.3904   46.7144 H   0  0  0  0  0  0  0  0  0  0  0  0
   57.6723   25.0600   45.1639 H   0  0  0  0  0  0  0  0  0  0  0  0
   59.4200   25.4749   45.1639 H   0  0  0  0  0  0  0  0  0  0  0  0
   59.1082   27.6872   47.3748 H   0  0  0  0  0  0  0  0  0  0  0  0
   60.5843   30.3484   47.6367 H   0  0  0  0  0  0  0  0  0  0  0  0
   60.0691   31.1483   46.1207 H   0  0  0  0  0  0  0  0  0  0  0  0
   58.9586   32.0898   48.7656 H   0  0  0  0  0  0  0  0  0  0  0  0
   60.6386   32.5693   48.2366 H   0  0  0  0  0  0  0  0  0  0  0  0
   57.2247   32.5882   47.4987 H   0  0  0  0  0  0  0  0  0  0  0  0
   57.5162   34.3920   47.6925 H   0  0  0  0  0  0  0  0  0  0  0  0
   56.6454   32.8399   45.3731 H   0  0  0  0  0  0  0  0  0  0  0  0
   56.4335   34.5926   45.8271 H   0  0  0  0  0  0  0  0  0  0  0  0
   58.6200   33.2526   44.2816 H   0  0  0  0  0  0  0  0  0  0  0  0
   57.6967   34.7841   43.9631 H   0  0  0  0  0  0  0  0  0  0  0  0
   60.0427   35.2187   44.5874 H   0  0  0  0  0  0  0  0  0  0  0  0
   58.8721   35.9013   45.7677 H   0  0  0  0  0  0  0  0  0  0  0  0
   60.7656   33.6098   46.0091 H   0  0  0  0  0  0  0  0  0  0  0  0
   60.2469   34.9212   47.2029 H   0  0  0  0  0  0  0  0  0  0  0  0
   55.8582   31.6664   43.1919 H   0  0  0  0  0  0  0  0  0  0  0  0
   55.9092   29.0587   42.4683 H   0  0  0  0  0  0  0  0  0  0  0  0
   57.0720   26.8870   43.7310 H   0  0  0  0  0  0  0  0  0  0  0  0
  1  2  1  0
  2  3  2  0
  3  4  1  0
  4  5  2  0
  5  6  1  0
  6  7  1  0
  7  8  1  0
  8  9  1  0
  9 10  1  0
 10 11  1  0
 11 12  1  0
 12 13  1  0
  4 14  1  0
 14 15  1  0
 15 16  2  0
 16 17  1  0
 17 18  2  0
 18 19  1  0
 19  2  1  0
 13  8  1  0
 18 14  1  0
  1 20  1  0
  1 21  1  0
  1 22  1  0
  3 23  1  0
  6 24  1  0
  6 25  1  0
  7 26  1  0
  7 27  1  0
  9 28  1  0
  9 29  1  0
 10 30  1  0
 10 31  1  0
 11 32  1  0
 11 33  1  0
 12 34  1  0
 12 35  1  0
 13 36  1  0
 13 37  1  0
 16 38  1  0
 17 39  1  0
 19 40  1  0
M  END
>  <smiles>  (2) 
Cc1cc(=NCCN2CCCCC2)n2nccc2[nH]1

>  <score_type>  (2) 
oracle

>  <origin>  (2) 
adg

>  <m_score__min__energy>  (2) 
-7

>  <m_primary>  (2) 
energy

$$$$
2:0
     RDKit          3D

 32 34  0  0  1  0  0  0  0  0999 V2000
   58.3960   33.0710   43.4870 N   0  0  0  0  0  0  0  0  0  0  0  0
   57.8300   31.9160   43.5480 C   0  0  0  0  0  0  0  0  0  0  0  0
   57.0500   31.4110   42.5750 N   0  0  0  0  0  0  0  0  0  0  0  0
   56.4600   30.2040   42.6410 C   0  0  0  0  0  0  0  0  0  0  0  0
   56.6640   29.4610   43.7480 N   0  0  0  0  0  0  0  0  0  0  0  0
   57.4420   29.9150   44.7690 C   0  0  0  0  0  0  0  0  0  0  0  0
   58.0510   31.1710   44.6890 C   0  0  0  0  0  0  0  0  0  0  0  0
   58.7380   31.3260   45.8280 N   0  0  0  0  0  0  0  0  0  0  0  0
   58.5860   30.2350   46.6060 C   0  0  0  0  0  0  0  0  0  0  0  0
   57.7910   29.3690   45.9560 N   0  0  0  0  0  0  0  0  0  0  0  0
   57.3320   28.0590   46.3690 C   0  0  1  0  0  0  0  0  0  0  0  0
   56.6340   27.4190   45.3540 O   0  0  0  0  0  0  0  0  0  0  0  0
   56.8120   26.0670   45.4960 C   0  0  2  0  0  0  0  0  0  0  0  0
   55.5040   25.3240   45.6670 C   0  0  0  0  0  0  0  0  0  0  0  0
   54.4440   26.1730   45.9860 O   0  0  0  0  0  0  0  0  0  0  0  0
   57.7380   25.8110   46.6600 C   0  0  1  0  0  0  0  0  0  0  0  0
   58.5930   24.7380   46.4260 O   0  0  0  0  0  0  0  0  0  0  0  0
   58.4730   27.1350   46.7400 C   0  0  2  0  0  0  0  0  0  0  0  0
   58.9460   27.4030   48.0230 O   0  0  0  0  0  0  0  0  0  0  0  0
   59.0450   33.4470   44.2200 H   0  0  0  0  0  0  0  0  0  0  0  0
   55.8308   29.8345   41.8179 H   0  0  0  0  0  0  0  0  0  0  0  0
   56.2000   28.5090   43.8050 H   0  0  0  0  0  0  0  0  0  0  0  0
   59.0343   30.0812   47.5986 H   0  0  0  0  0  0  0  0  0  0  0  0
   56.6897   28.2476   47.2419 H   0  0  0  0  0  0  0  0  0  0  0  0
   57.2630   25.6806   44.5701 H   0  0  0  0  0  0  0  0  0  0  0  0
   55.2685   24.8039   44.7268 H   0  0  0  0  0  0  0  0  0  0  0  0
   55.6281   24.6172   46.5007 H   0  0  0  0  0  0  0  0  0  0  0  0
   54.7570   27.1120   45.9890 H   0  0  0  0  0  0  0  0  0  0  0  0
   57.2278   25.5254   47.5917 H   0  0  0  0  0  0  0  0  0  0  0  0
   59.5290   25.0080   46.5420 H   0  0  0  0  0  0  0  0  0  0  0  0
   59.3751   27.2059   46.1146 H   0  0  0  0  0  0  0  0  0  0  0  0
   59.2230   26.5560   48.4910 H   0  0  0  0  0  0  0  0  0  0  0  0
  1  2  2  3
  2  3  1  0
  3  4  2  0
  4  5  1  0
  5  6  1  0
  6  7  2  0
  7  8  1  0
  8  9  2  0
  9 10  1  0
 10 11  1  0
 11 12  1  0
 12 13  1  0
 13 14  1  0
 14 15  1  0
 13 16  1  0
 16 17  1  0
 16 18  1  0
 18 19  1  0
  7  2  1  0
 18 11  1  0
 10  6  1  0
  1 20  1  0
  4 21  1  0
  5 22  1  0
  9 23  1  0
 11 24  1  1
 13 25  1  6
 14 26  1  0
 14 27  1  0
 15 28  1  0
 16 29  1  1
 17 30  1  0
 18 31  1  6
 19 32  1  0
M  END
>  <smiles>  (3) 
N=c1nc[nH]c2c1ncn2C1OC(CO)C(O)C1O

>  <score_type>  (3) 
oracle

>  <origin>  (3) 
adg

>  <m_score__min__energy>  (3) 
-6.25

>  <m_primary>  (3) 
energy

$$$$
3:0
     RDKit          3D

 51 54  0  0  0  0  0  0  0  0999 V2000
   60.8911   29.8793   45.7266 H   0  0  0  0  0  0  0  0  0  0  0  0
   59.8890   30.2360   46.0070 C   0  0  0  0  0  0  0  0  0  0  0  0
   59.7650   31.5290   46.3660 C   0  0  0  0  0  0  0  0  0  0  0  0
   60.2100   31.9660   47.7010 C   0  0  0  0  0  0  0  0  0  0  0  0
   60.0020   31.2090   48.7350 N   0  0  0  0  0  0  0  0  0  0  0  0
   60.1730   31.6940   50.0650 C   0  0  0  0  0  0  0  0  0  0  0  0
   59.9830   30.6570   51.3150 S   0  0  0  0  0  0  0  0  0  0  0  0
   60.1560   33.1130   50.2920 N   0  0  0  0  0  0  0  0  0  0  0  0
   60.4760   33.3300   51.2660 H   0  0  0  0  0  0  0  0  0  0  0  0
   59.1700   33.4460   50.1900 H   0  0  0  0  0  0  0  0  0  0  0  0
   61.0100   33.8130   49.3160 C   0  0  1  0  0  0  0  0  0  0  0  0
   60.7611   34.8833   49.3658 H   0  0  0  0  0  0  0  0  0  0  0  0
   62.4860   33.6620   49.6850 C   0  0  0  0  0  0  0  0  0  0  0  0
   62.9980   34.1440   50.9070 C   0  0  0  0  0  0  0  0  0  0  0  0
   62.3205   34.6154   51.6342 H   0  0  0  0  0  0  0  0  0  0  0  0
   64.3580   34.0280   51.2020 C   0  0  0  0  0  0  0  0  0  0  0  0
   64.7442   34.3979   52.1632 H   0  0  0  0  0  0  0  0  0  0  0  0
   65.2300   33.4430   50.2790 C   0  0  0  0  0  0  0  0  0  0  0  0
   66.9390   33.3010   50.6510 Cl  0  0  0  0  0  0  0  0  0  0  0  0
   64.7390   32.9770   49.0570 C   0  0  0  0  0  0  0  0  0  0  0  0
   65.4243   32.5197   48.3282 H   0  0  0  0  0  0  0  0  0  0  0  0
   63.3780   33.0910   48.7590 C   0  0  0  0  0  0  0  0  0  0  0  0
   63.0007   32.7306   47.7906 H   0  0  0  0  0  0  0  0  0  0  0  0
   60.7140   33.3840   47.8380 C   0  0  2  0  0  0  0  0  0  0  0  0
   61.7001   33.4646   47.3573 H   0  0  0  0  0  0  0  0  0  0  0  0
   59.7130   34.3040   47.1260 C   0  0  0  0  0  0  0  0  0  0  0  0
   60.0458   35.3488   47.2133 H   0  0  0  0  0  0  0  0  0  0  0  0
   58.7202   34.2015   47.5884 H   0  0  0  0  0  0  0  0  0  0  0  0
   59.6410   33.9240   45.6980 N   0  0  0  0  0  0  0  0  0  0  0  0
   58.8480   34.9140   44.9520 C   0  0  0  0  0  0  0  0  0  0  0  0
   58.3217   35.5710   45.6601 H   0  0  0  0  0  0  0  0  0  0  0  0
   59.5157   35.5170   44.3191 H   0  0  0  0  0  0  0  0  0  0  0  0
   58.1138   34.3940   44.3191 H   0  0  0  0  0  0  0  0  0  0  0  0
   59.0650   32.5720   45.5110 C   0  0  0  0  0  0  0  0  0  0  0  0
   59.1638   32.2877   44.4530 H   0  0  0  0  0  0  0  0  0  0  0  0
   58.0093   32.6083   45.8178 H   0  0  0  0  0  0  0  0  0  0  0  0
   58.7790   29.2620   45.9620 C   0  0  0  0  0  0  0  0  0  0  0  0
   58.8370   28.1180   46.7710 C   0  0  0  0  0  0  0  0  0  0  0  0
   59.7169   27.9431   47.4075 H   0  0  0  0  0  0  0  0  0  0  0  0
   57.7850   27.1990   46.7740 C   0  0  0  0  0  0  0  0  0  0  0  0
   57.8485   26.2965   47.3996 H   0  0  0  0  0  0  0  0  0  0  0  0
   56.6450   27.4220   45.9810 C   0  0  0  0  0  0  0  0  0  0  0  0
   55.5630   26.5280   45.9470 O   0  0  0  0  0  0  0  0  0  0  0  0
   55.6850   25.1300   45.7090 C   0  0  0  0  0  0  0  0  0  0  0  0
   55.7315   24.5971   46.6702 H   0  0  0  0  0  0  0  0  0  0  0  0
   54.8141   24.7782   45.1364 H   0  0  0  0  0  0  0  0  0  0  0  0
   56.6036   24.9343   45.1364 H   0  0  0  0  0  0  0  0  0  0  0  0
   56.5760   28.5790   45.1960 C   0  0  0  0  0  0  0  0  0  0  0  0
   55.6864   28.7656   44.5764 H   0  0  0  0  0  0  0  0  0  0  0  0
   57.6280   29.4990   45.1930 C   0  0  0  0  0  0  0  0  0  0  0  0
   57.5542   30.4130   44.5855 H   0  0  0  0  0  0  0  0  0  0  0  0
  1  2  1  0
  2  3  2  0
  3  4  1  0
  4  5  2  0
  5  6  1  0
  6  7  2  0
  6  8  1  0
  8  9  1  0
  8 10  1  0
  8 11  1  0
 11 12  1  6
 11 13  1  0
 13 14  2  0
 14 15  1  0
 14 16  1  0
 16 17  1  0
 16 18  2  0
 18 19  1  0
 18 20  1  0
 20 21  1  0
 20 22  2  0
 22 23  1  0
 11 24  1  0
 24 25  1  6
 24 26  1  0
 26 27  1  0
 26 28  1  0
 26 29  1  0
 29 30  1  0
 30 31  1  0
 30 32  1  0
 30 33  1  0
 29 34  1  0
 34 35  1  0
 34 36  1  0
  2 37  1  0
 37 38  2  0
 38 39  1  0
 38 40  1  0
 40 41  1  0
 40 42  2  0
 42 43  1  0
 43 44  1  0
 44 45  1  0
 44 46  1  0
 44 47  1  0
 42 48  1  0
 48 49  1  0
 48 50  2  0
 50 51  1  0
 34  3  1  0
 50 37  1  0
 24  4  1  0
 22 13  1  0
M  CHG  1   8   1
M  END
>  <UniqueID>  (4) 
2

>  <SMILES>  (4) 
COc1ccc(/C=C2\CN(C)C[C@@H]3C2=NC(=S)[NH2+][C@H]3c2ccc(Cl)cc2)cc1

>  <Energy>  (4) 
74.16124764676863

>  <Genealogy>  (4) 
COc1ccc(C=C2CN(C)CC3C2=NC(=S)[NH2+]C3c2ccc(Cl)cc2)cc1 (protonated)
COc1ccc(C=C2CN(C)C[C@@H]3C2=NC(=S)[NH2+][C@H]3c2ccc(Cl)cc2)cc1 (chirality)
COc1ccc(/C=C2\CN(C)C[C@@H]3C2=NC(=S)[NH2+][C@H]3c2ccc(Cl)cc2)cc1 (cis-trans isomerization)
COc1ccc(/C=C2\CN(C)C[C@@H]3C2=NC(=S)[NH2+][C@H]3c2ccc(Cl)cc2)cc1 (3D coordinates assigned)
COc1ccc(/C=C2\CN(C)C[C@@H]3C2=NC(=S)[NH2+][C@H]3c2ccc(Cl)cc2)cc1 (nonaromatic ring conformer: 74.16124764676863 kcal/mol)

>  <smiles>  (4) 
COc1ccc(C=C2CN(C)CC3C2=NC(=S)NC3c2ccc(Cl)cc2)cc1

>  <score_type>  (4) 
oracle

>  <origin>  (4) 
adg

>  <m_score__min__energy>  (4) 
-7.1799999999999997

>  <m_primary>  (4) 
energy

$$$$
4:0
     RDKit          3D

 28 29  0  0  0  0  0  0  0  0999 V2000
   56.5910   29.3770   42.5980 C   0  0  0  0  0  0  0  0  0  0  0  0
   56.5640   29.3410   44.3770 S   0  0  0  0  0  0  0  0  0  0  0  0
   55.1460   29.3960   44.8690 O   0  0  0  0  0  0  0  0  0  0  0  0
   57.2030   28.0670   44.8540 O   0  0  0  0  0  0  0  0  0  0  0  0
   57.4550   30.7120   45.0050 C   0  0  0  0  0  0  0  0  0  0  0  0
   57.0480   31.9940   44.8800 N   0  0  0  0  0  0  0  0  0  0  0  0
   58.0320   32.6730   45.5150 C   0  0  0  0  0  0  0  0  0  0  0  0
   58.0100   34.1670   45.6760 C   0  0  0  0  0  0  0  0  0  0  0  0
   56.8010   34.6660   45.2280 F   0  0  0  0  0  0  0  0  0  0  0  0
   58.1620   34.5130   47.0050 F   0  0  0  0  0  0  0  0  0  0  0  0
   59.0280   34.7300   44.9300 F   0  0  0  0  0  0  0  0  0  0  0  0
   58.9900   31.8360   45.9820 N   0  0  0  0  0  0  0  0  0  0  0  0
   60.1870   32.1480   46.7100 C   0  0  0  0  0  0  0  0  0  0  0  0
   60.9700   33.2620   46.3650 C   0  0  0  0  0  0  0  0  0  0  0  0
   62.1440   33.5450   47.0690 C   0  0  0  0  0  0  0  0  0  0  0  0
   62.5520   32.7110   48.1160 C   0  0  0  0  0  0  0  0  0  0  0  0
   64.1560   33.0980   49.0760 Br  0  0  0  0  0  0  0  0  0  0  0  0
   61.7870   31.5900   48.4520 C   0  0  0  0  0  0  0  0  0  0  0  0
   60.6140   31.3040   47.7480 C   0  0  0  0  0  0  0  0  0  0  0  0
   58.6150   30.6080   45.6730 N   0  0  0  0  0  0  0  0  0  0  0  0
   57.2186   30.2138   42.2577 H   0  0  0  0  0  0  0  0  0  0  0  0
   57.0041   28.4308   42.2183 H   0  0  0  0  0  0  0  0  0  0  0  0
   55.5670   29.5086   42.2183 H   0  0  0  0  0  0  0  0  0  0  0  0
   60.6577   33.9150   45.5367 H   0  0  0  0  0  0  0  0  0  0  0  0
   62.7478   34.4242   46.7997 H   0  0  0  0  0  0  0  0  0  0  0  0
   62.1091   30.9317   49.2723 H   0  0  0  0  0  0  0  0  0  0  0  0
   60.0226   30.4138   48.0082 H   0  0  0  0  0  0  0  0  0  0  0  0
   59.1400   29.7340   45.8990 H   0  0  0  0  0  0  0  0  0  0  0  0
  1  2  1  0
  2  3  2  0
  2  4  2  0
  2  5  1  0
  5  6  1  0
  6  7  2  0
  7  8  1  0
  8  9  1  0
  8 10  1  0
  8 11  1  0
  7 12  1  0
 12 13  1  0
 13 14  2  0
 14 15  1  0
 15 16  2  0
 16 17  1  0
 16 18  1  0
 18 19  2  0
 12 20  1  0
 20  5  2  0
 19 13  1  0
  1 21  1  0
  1 22  1  0
  1 23  1  0
 14 24  1  0
 15 25  1  0
 18 26  1  0
 19 27  1  0
 20 28  1  0
M  CHG  1  20   1
M  END
>  <UniqueID>  (5) 
3

>  <SMILES>  (5) 
CS(=O)(=O)c1nc(C(F)(F)F)n(-c2ccc(Br)cc2)[nH+]1

>  <Energy>  (5) 
64.71728902668161

>  <Genealogy>  (5) 
CS(=O)(=O)c1nc(C(F)(F)F)n(-c2ccc(Br)cc2)[nH+]1 (protonated)
CS(=O)(=O)c1nc(C(F)(F)F)n(-c2ccc(Br)cc2)[nH+]1 (3D coordinates assigned)
CS(=O)(=O)c1nc(C(F)(F)F)n(-c2ccc(Br)cc2)[nH+]1 (optimized conformer: 64.71728902668161 kcal/mol)

>  <smiles>  (5) 
CS(=O)(=O)c1nc(C(F)(F)F)n(-c2ccc(Br)cc2)n1

>  <score_type>  (5) 
oracle

>  <origin>  (5) 
adg

>  <m_score__min__energy>  (5) 
-5.8200000000000003

>  <m_primary>  (5) 
energy

$$$$
5:0
     RDKit          3D

 35 37  0  0  0  0  0  0  0  0999 V2000
   62.9240   33.8340   46.5610 C   0  0  0  0  0  0  0  0  0  0  0  0
   61.6990   33.2760   47.2740 C   0  0  0  0  0  0  0  0  0  0  0  0
   60.4480   33.6810   46.5620 C   0  0  0  0  0  0  0  0  0  0  0  0
   59.5540   32.8230   46.0440 N   0  0  0  0  0  0  0  0  0  0  0  0
   58.6150   33.6460   45.5420 C   0  0  0  0  0  0  0  0  0  0  0  0
   57.3650   33.1830   44.8610 C   0  0  0  0  0  0  0  0  0  0  0  0
   57.6520   32.0330   43.9890 N   0  0  0  0  0  0  0  0  0  0  0  0
   57.7690   32.2440   42.5410 C   0  0  0  0  0  0  0  0  0  0  0  0
   57.8460   30.6950   44.5150 C   0  0  0  0  0  0  0  0  0  0  0  0
   56.7600   29.8000   44.6970 C   0  0  0  0  0  0  0  0  0  0  0  0
   57.0440   28.5390   45.2130 C   0  0  0  0  0  0  0  0  0  0  0  0
   56.1790   27.5440   45.4680 N   0  0  0  0  0  0  0  0  0  0  0  0
   56.9260   26.5300   45.9590 C   0  0  0  0  0  0  0  0  0  0  0  0
   56.2080   24.8470   46.4960 Br  0  0  0  0  0  0  0  0  0  0  0  0
   58.2720   26.8800   46.0180 C   0  0  0  0  0  0  0  0  0  0  0  0
   58.3170   28.1690   45.5360 C   0  0  0  0  0  0  0  0  0  0  0  0
   59.3790   29.0430   45.3590 C   0  0  0  0  0  0  0  0  0  0  0  0
   59.1140   30.2830   44.8530 N   0  0  0  0  0  0  0  0  0  0  0  0
   58.9190   34.9420   45.7590 N   0  0  0  0  0  0  0  0  0  0  0  0
   60.0560   34.9210   46.3910 O   0  0  0  0  0  0  0  0  0  0  0  0
   63.6606   34.1695   47.3058 H   0  0  0  0  0  0  0  0  0  0  0  0
   63.3703   33.0504   45.9311 H   0  0  0  0  0  0  0  0  0  0  0  0
   62.6257   34.6850   45.9311 H   0  0  0  0  0  0  0  0  0  0  0  0
   61.7628   32.1781   47.2974 H   0  0  0  0  0  0  0  0  0  0  0  0
   61.6707   33.6765   48.2981 H   0  0  0  0  0  0  0  0  0  0  0  0
   59.5800   31.7780   46.0380 H   0  0  0  0  0  0  0  0  0  0  0  0
   56.6268   32.8865   45.6207 H   0  0  0  0  0  0  0  0  0  0  0  0
   56.9670   34.0051   44.2480 H   0  0  0  0  0  0  0  0  0  0  0  0
   58.2943   33.1914   42.3498 H   0  0  0  0  0  0  0  0  0  0  0  0
   58.3356   31.4138   42.0941 H   0  0  0  0  0  0  0  0  0  0  0  0
   56.7647   32.2849   42.0941 H   0  0  0  0  0  0  0  0  0  0  0  0
   55.7312   30.0922   44.4396 H   0  0  0  0  0  0  0  0  0  0  0  0
   55.1450   27.5500   45.3180 H   0  0  0  0  0  0  0  0  0  0  0  0
   59.1123   26.2641   46.3710 H   0  0  0  0  0  0  0  0  0  0  0  0
   60.4057   28.7457   45.6189 H   0  0  0  0  0  0  0  0  0  0  0  0
  1  2  1  0
  2  3  1  0
  3  4  2  0
  4  5  1  0
  5  6  1  0
  6  7  1  0
  7  8  1  0
  7  9  1  0
  9 10  2  0
 10 11  1  0
 11 12  1  0
 12 13  1  0
 13 14  1  0
 13 15  2  0
 15 16  1  0
 16 17  1  0
 17 18  2  0
  5 19  2  0
 19 20  1  0
 20  3  1  0
 18  9  1  0
 16 11  2  0
  1 21  1  0
  1 22  1  0
  1 23  1  0
  2 24  1  0
  2 25  1  0
  4 26  1  0
  6 27  1  0
  6 28  1  0
  8 29  1  0
  8 30  1  0
  8 31  1  0
 10 32  1  0
 12 33  1  0
 15 34  1  0
 17 35  1  0
M  CHG  1   4   1
M  END
>  <UniqueID>  (6) 
4

>  <SMILES>  (6) 
CCc1[nH+]c(CN(C)c2cc3[nH]c(Br)cc3cn2)no1

>  <Energy>  (6) 
100.15487767702392

>  <Genealogy>  (6) 
CCc1[nH+]c(CN(C)c2cc3[nH]c(Br)cc3cn2)no1 (protonated)
CCc1[nH+]c(CN(C)c2cc3[nH]c(Br)cc3cn2)no1 (3D coordinates assigned)
CCc1[nH+]c(CN(C)c2cc3[nH]c(Br)cc3cn2)no1 (optimized conformer: 100.15487767702392 kcal/mol)

>  <smiles>  (6) 
CCc1nc(CN(C)c2cc3[nH]c(Br)cc3cn2)no1

>  <score_type>  (6) 
oracle

>  <origin>  (6) 
adg

>  <m_score__min__energy>  (6) 
-5.79

>  <m_primary>  (6) 
energy

$$$$
6:0
     RDKit          3D

 48 49  0  0  0  0  0  0  0  0999 V2000
   62.6680   31.6820   47.5170 C   0  0  0  0  0  0  0  0  0  0  0  0
   62.3650   33.1690   47.6960 C   0  0  0  0  0  0  0  0  0  0  0  0
   61.9180   33.8410   46.3800 C   0  0  0  0  0  0  0  0  0  0  0  0
   60.5640   34.5890   46.4670 C   0  0  0  0  0  0  0  0  0  0  0  0
   59.3650   33.8280   46.0300 N   0  0  0  0  0  0  0  0  0  0  0  0
   58.1340   34.0460   46.8260 C   0  0  0  0  0  0  0  0  0  0  0  0
   57.8040   32.8240   47.6970 C   0  0  0  0  0  0  0  0  0  0  0  0
   59.0130   32.4020   48.5390 C   0  0  0  0  0  0  0  0  0  0  0  0
   59.2600   30.9000   48.4300 C   0  0  0  0  0  0  0  0  0  0  0  0
   59.1250   33.8640   44.5700 C   0  0  0  0  0  0  0  0  0  0  0  0
   57.7430   33.2920   44.2230 C   0  0  0  0  0  0  0  0  0  0  0  0
   57.6460   31.8440   44.5960 C   0  0  0  0  0  0  0  0  0  0  0  0
   56.4400   31.2150   44.5780 N   0  0  0  0  0  0  0  0  0  0  0  0
   56.3300   29.8910   44.8630 C   0  0  0  0  0  0  0  0  0  0  0  0
   55.1920   29.3480   44.8440 O   0  0  0  0  0  0  0  0  0  0  0  0
   57.4820   29.1450   45.1660 C   0  0  0  0  0  0  0  0  0  0  0  0
   57.4370   27.7710   45.4620 C   0  0  0  0  0  0  0  0  0  0  0  0
   58.6190   27.0790   45.7490 C   0  0  0  0  0  0  0  0  0  0  0  0
   59.8470   27.7470   45.7380 C   0  0  0  0  0  0  0  0  0  0  0  0
   60.9880   27.0690   46.0110 F   0  0  0  0  0  0  0  0  0  0  0  0
   59.9000   29.1130   45.4460 C   0  0  0  0  0  0  0  0  0  0  0  0
   58.7230   29.8150   45.1630 C   0  0  0  0  0  0  0  0  0  0  0  0
   58.7740   31.1420   44.8780 N   0  0  0  0  0  0  0  0  0  0  0  0
   62.7650   31.2062   48.5040 H   0  0  0  0  0  0  0  0  0  0  0  0
   61.8485   31.2054   46.9591 H   0  0  0  0  0  0  0  0  0  0  0  0
   63.6086   31.5640   46.9591 H   0  0  0  0  0  0  0  0  0  0  0  0
   61.5617   33.2789   48.4394 H   0  0  0  0  0  0  0  0  0  0  0  0
   63.2907   33.6625   48.0270 H   0  0  0  0  0  0  0  0  0  0  0  0
   62.6917   34.5647   46.0839 H   0  0  0  0  0  0  0  0  0  0  0  0
   61.7816   33.0323   45.6469 H   0  0  0  0  0  0  0  0  0  0  0  0
   60.4104   34.8842   47.5155 H   0  0  0  0  0  0  0  0  0  0  0  0
   60.6484   35.4330   45.7667 H   0  0  0  0  0  0  0  0  0  0  0  0
   58.2794   34.9205   47.4772 H   0  0  0  0  0  0  0  0  0  0  0  0
   57.2976   34.2108   46.1308 H   0  0  0  0  0  0  0  0  0  0  0  0
   56.9697   33.0762   48.3680 H   0  0  0  0  0  0  0  0  0  0  0  0
   57.5305   31.9883   47.0361 H   0  0  0  0  0  0  0  0  0  0  0  0
   59.9042   32.9396   48.1830 H   0  0  0  0  0  0  0  0  0  0  0  0
   58.8089   32.6474   49.5917 H   0  0  0  0  0  0  0  0  0  0  0  0
   59.3314   30.4660   49.4383 H   0  0  0  0  0  0  0  0  0  0  0  0
   58.4271   30.4299   47.8866 H   0  0  0  0  0  0  0  0  0  0  0  0
   60.1996   30.7214   47.8866 H   0  0  0  0  0  0  0  0  0  0  0  0
   59.1801   34.9062   44.2224 H   0  0  0  0  0  0  0  0  0  0  0  0
   59.8917   33.2503   44.0745 H   0  0  0  0  0  0  0  0  0  0  0  0
   56.9736   33.8558   44.7708 H   0  0  0  0  0  0  0  0  0  0  0  0
   57.5914   33.3827   43.1373 H   0  0  0  0  0  0  0  0  0  0  0  0
   56.4734   27.2405   45.4679 H   0  0  0  0  0  0  0  0  0  0  0  0
   58.5817   26.0051   45.9842 H   0  0  0  0  0  0  0  0  0  0  0  0
   60.8675   29.6364   45.4387 H   0  0  0  0  0  0  0  0  0  0  0  0
  1  2  1  0
  2  3  1  0
  3  4  1  0
  4  5  1  0
  5  6  1  0
  6  7  1  0
  7  8  1  0
  8  9  1  0
  5 10  1  0
 10 11  1  0
 11 12  1  0
 12 13  2  0
 13 14  1  0
 14 15  2  0
 14 16  1  0
 16 17  2  0
 17 18  1  0
 18 19  2  0
 19 20  1  0
 19 21  1  0
 21 22  2  0
 22 23  1  0
 23 12  1  0
 22 16  1  0
  1 24  1  0
  1 25  1  0
  1 26  1  0
  2 27  1  0
  2 28  1  0
  3 29  1  0
  3 30  1  0
  4 31  1  0
  4 32  1  0
  6 33  1  0
  6 34  1  0
  7 35  1  0
  7 36  1  0
  8 37  1  0
  8 38  1  0
  9 39  1  0
  9 40  1  0
  9 41  1  0
 10 42  1  0
 10 43  1  0
 11 44  1  0
 11 45  1  0
 17 46  1  0
 18 47  1  0
 21 48  1  0
M  CHG  1  23  -1
M  END
>  <UniqueID>  (7) 
5

>  <SMILES>  (7) 
CCCCN(CCCC)CCc1nc(=O)c2ccc(F)cc2[n-]1

>  <Energy>  (7) 
48.474027144764385

>  <Genealogy>  (7) 
CCCCN(CCCC)CCc1nc(=O)c2ccc(F)cc2[n-]1 (protonated)
CCCCN(CCCC)CCc1nc(=O)c2ccc(F)cc2[n-]1 (3D coordinates assigned)
CCCCN(CCCC)CCc1nc(=O)c2ccc(F)cc2[n-]1 (optimized conformer: 48.474027144764385 kcal/mol)

>  <smiles>  (7) 
CCCCN(CCCC)CCc1nc(=O)c2ccc(F)cc2[nH]1

>  <score_type>  (7) 
oracle

>  <origin>  (7) 
adg

>  <m_score__min__energy>  (7) 
-8.5

>  <m_primary>  (7) 
energy

$$$$
7:0
     RDKit          3D

 28 29  0  0  0  0  0  0  0  0999 V2000
   59.1270   34.4370   47.9840 O   0  0  0  0  0  0  0  0  0  0  0  0
   59.1010   33.8900   46.8480 C   0  0  0  0  0  0  0  0  0  0  0  0
   57.8300   33.8980   46.0570 C   0  0  0  0  0  0  0  0  0  0  0  0
   58.1230   33.3220   44.3480 S   0  0  0  0  0  0  0  0  0  0  0  0
   57.8180   31.5920   44.7110 C   0  0  0  0  0  0  0  0  0  0  0  0
   58.8630   30.7610   45.1190 C   0  0  0  0  0  0  0  0  0  0  0  0
   58.5800   29.4230   45.3920 C   0  0  0  0  0  0  0  0  0  0  0  0
   57.3120   28.9570   45.2520 N   0  0  0  0  0  0  0  0  0  0  0  0
   56.3070   29.7780   44.8470 C   0  0  0  0  0  0  0  0  0  0  0  0
   55.1400   29.3280   44.7220 O   0  0  0  0  0  0  0  0  0  0  0  0
   56.5640   31.0850   44.5790 N   0  0  0  0  0  0  0  0  0  0  0  0
   60.2630   33.2200   46.3380 N   0  0  0  0  0  0  0  0  0  0  0  0
   61.4630   33.0800   47.1080 C   0  0  0  0  0  0  0  0  0  0  0  0
   62.5800   33.8570   46.7710 C   0  0  0  0  0  0  0  0  0  0  0  0
   63.7680   33.7370   47.4940 C   0  0  0  0  0  0  0  0  0  0  0  0
   63.8450   32.8510   48.5690 C   0  0  0  0  0  0  0  0  0  0  0  0
   62.7320   32.0850   48.9340 C   0  0  0  0  0  0  0  0  0  0  0  0
   62.8690   30.9990   50.3110 Cl  0  0  0  0  0  0  0  0  0  0  0  0
   61.5310   32.2000   48.2090 C   0  0  0  0  0  0  0  0  0  0  0  0
   60.1030   31.3010   48.7230 Cl  0  0  0  0  0  0  0  0  0  0  0  0
   57.1001   33.2327   46.5413 H   0  0  0  0  0  0  0  0  0  0  0  0
   57.4452   34.9278   46.0200 H   0  0  0  0  0  0  0  0  0  0  0  0
   59.8857   31.1525   45.2227 H   0  0  0  0  0  0  0  0  0  0  0  0
   59.3825   28.7461   45.7202 H   0  0  0  0  0  0  0  0  0  0  0  0
   60.1560   32.6270   45.4850 H   0  0  0  0  0  0  0  0  0  0  0  0
   62.5200   34.5656   45.9317 H   0  0  0  0  0  0  0  0  0  0  0  0
   64.6440   34.3414   47.2160 H   0  0  0  0  0  0  0  0  0  0  0  0
   64.7848   32.7541   49.1323 H   0  0  0  0  0  0  0  0  0  0  0  0
  1  2  2  0
  2  3  1  0
  3  4  1  0
  4  5  1  0
  5  6  1  0
  6  7  2  0
  7  8  1  0
  8  9  1  0
  9 10  2  0
  9 11  1  0
  2 12  1  0
 12 13  1  0
 13 14  2  0
 14 15  1  0
 15 16  2  0
 16 17  1  0
 17 18  1  0
 17 19  2  0
 19 20  1  0
 11  5  2  0
 19 13  1  0
  3 21  1  0
  3 22  1  0
  6 23  1  0
  7 24  1  0
 12 25  1  0
 14 26  1  0
 15 27  1  0
 16 28  1  0
M  CHG  1   8  -1
M  END
>  <UniqueID>  (8) 
6

>  <SMILES>  (8) 
O=C(CSc1cc[n-]c(=O)n1)Nc1cccc(Cl)c1Cl

>  <Energy>  (8) 
31.46143730514951

>  <Genealogy>  (8) 
O=C(CSc1cc[n-]c(=O)n1)Nc1cccc(Cl)c1Cl (protonated)
O=C(CSc1cc[n-]c(=O)n1)Nc1cccc(Cl)c1Cl (3D coordinates assigned)
O=C(CSc1cc[n-]c(=O)n1)Nc1cccc(Cl)c1Cl (optimized conformer: 31.46143730514951 kcal/mol)

>  <smiles>  (8) 
O=C(CSc1cc[nH]c(=O)n1)Nc1cccc(Cl)c1Cl

>  <score_type>  (8) 
oracle

>  <origin>  (8) 
adg

>  <m_score__min__energy>  (8) 
-9.5999999999999996

>  <m_primary>  (8) 
energy

$$$$
8:0
     RDKit          3D

 59 61  0  0  0  0  0  0  0  0999 V2000
   59.6575   36.4361   46.6713 H   0  0  0  0  0  0  0  0  0  0  0  0
   59.5370   35.3550   46.5080 C   0  0  0  0  0  0  0  0  0  0  0  0
   59.8860   34.4530   47.5170 C   0  0  0  0  0  0  0  0  0  0  0  0
   60.2773   34.8261   48.4749 H   0  0  0  0  0  0  0  0  0  0  0  0
   59.7390   33.0770   47.3120 C   0  0  0  0  0  0  0  0  0  0  0  0
   60.0189   32.3716   48.1083 H   0  0  0  0  0  0  0  0  0  0  0  0
   59.2340   32.5910   46.0900 C   0  0  0  0  0  0  0  0  0  0  0  0
   59.0900   31.1310   45.8590 C   0  0  0  0  0  0  0  0  0  0  0  0
   60.0420   30.2280   46.3650 C   0  0  0  0  0  0  0  0  0  0  0  0
   60.8974   30.6049   46.9449 H   0  0  0  0  0  0  0  0  0  0  0  0
   59.9100   28.8560   46.1370 C   0  0  0  0  0  0  0  0  0  0  0  0
   60.6614   28.1599   46.5379 H   0  0  0  0  0  0  0  0  0  0  0  0
   58.8250   28.3620   45.4000 C   0  0  0  0  0  0  0  0  0  0  0  0
   58.6530   26.8750   45.2040 C   0  0  0  0  0  0  0  0  0  0  0  0
   59.6442   26.3982   45.2160 H   0  0  0  0  0  0  0  0  0  0  0  0
   58.1464   26.7156   44.2407 H   0  0  0  0  0  0  0  0  0  0  0  0
   57.7870   26.2460   46.3050 C   0  0  0  0  0  0  0  0  0  0  0  0
   57.8142   26.8954   47.1924 H   0  0  0  0  0  0  0  0  0  0  0  0
   58.1939   25.2487   46.5284 H   0  0  0  0  0  0  0  0  0  0  0  0
   56.3570   26.0770   45.8710 C   0  0  0  0  0  0  0  0  0  0  0  0
   55.5530   27.0400   45.9910 O   0  0  0  0  0  0  0  0  0  0  0  0
   55.9030   24.8220   45.2550 C   0  0  0  0  0  0  0  0  0  0  0  0
   54.9560   24.0480   45.7430 O   0  0  0  0  0  0  0  0  0  0  0  0
   54.7950   23.0080   44.9840 N   0  0  0  0  0  0  0  0  0  0  0  0
   53.9250   21.9830   45.2710 O   0  0  0  0  0  0  0  0  0  0  0  0
   55.6730   23.0910   43.9610 C   0  0  0  0  0  0  0  0  0  0  0  0
   55.8360   22.2290   42.9980 N   0  0  0  0  0  0  0  0  0  0  0  0
   56.6700   21.0290   43.0070 C   0  0  0  0  0  0  0  0  0  0  0  0
   57.6882   21.2969   42.6885 H   0  0  0  0  0  0  0  0  0  0  0  0
   56.2301   20.2930   42.3180 H   0  0  0  0  0  0  0  0  0  0  0  0
   56.7310   20.4050   44.4160 C   0  0  0  0  0  0  0  0  0  0  0  0
   56.8315   19.3143   44.3145 H   0  0  0  0  0  0  0  0  0  0  0  0
   55.8051   20.6792   44.9428 H   0  0  0  0  0  0  0  0  0  0  0  0
   57.8780   20.9180   45.2200 N   0  0  0  0  0  0  0  0  0  0  0  0
   58.4790   20.1120   45.5140 H   0  0  0  0  0  0  0  0  0  0  0  0
   57.3870   21.6000   46.4470 C   0  0  0  0  0  0  0  0  0  0  0  0
   57.0562   22.6142   46.1787 H   0  0  0  0  0  0  0  0  0  0  0  0
   58.2149   21.6234   47.1709 H   0  0  0  0  0  0  0  0  0  0  0  0
   56.2150   20.8570   47.1020 C   0  0  0  0  0  0  0  0  0  0  0  0
   56.3088   20.9165   48.1964 H   0  0  0  0  0  0  0  0  0  0  0  0
   55.2671   21.3195   46.7896 H   0  0  0  0  0  0  0  0  0  0  0  0
   56.2289   19.8024   46.7896 H   0  0  0  0  0  0  0  0  0  0  0  0
   58.7050   21.8510   44.4040 C   0  0  0  0  0  0  0  0  0  0  0  0
   59.4977   21.2758   43.9032 H   0  0  0  0  0  0  0  0  0  0  0  0
   58.0421   22.3391   43.6744 H   0  0  0  0  0  0  0  0  0  0  0  0
   59.3540   22.9470   45.2560 C   0  0  0  0  0  0  0  0  0  0  0  0
   59.2155   22.7131   46.3219 H   0  0  0  0  0  0  0  0  0  0  0  0
   60.4290   22.9997   45.0289 H   0  0  0  0  0  0  0  0  0  0  0  0
   58.8834   23.9149   45.0289 H   0  0  0  0  0  0  0  0  0  0  0  0
   56.4070   24.2510   44.0940 C   0  0  0  0  0  0  0  0  0  0  0  0
   57.2022   24.6329   43.4369 H   0  0  0  0  0  0  0  0  0  0  0  0
   57.8660   29.2580   44.9010 C   0  0  0  0  0  0  0  0  0  0  0  0
   57.0060   28.8776   44.3303 H   0  0  0  0  0  0  0  0  0  0  0  0
   57.9990   30.6300   45.1260 C   0  0  0  0  0  0  0  0  0  0  0  0
   57.2447   31.3241   44.7269 H   0  0  0  0  0  0  0  0  0  0  0  0
   58.8800   33.5110   45.0840 C   0  0  0  0  0  0  0  0  0  0  0  0
   58.4783   33.1466   44.1270 H   0  0  0  0  0  0  0  0  0  0  0  0
   59.0360   34.8850   45.2940 C   0  0  0  0  0  0  0  0  0  0  0  0
   58.7631   35.5962   44.5004 H   0  0  0  0  0  0  0  0  0  0  0  0
  1  2  1  0
  2  3  2  0
  3  4  1  0
  3  5  1  0
  5  6  1  0
  5  7  2  0
  7  8  1  0
  8  9  2  0
  9 10  1  0
  9 11  1  0
 11 12  1  0
 11 13  2  0
 13 14  1  0
 14 15  1  0
 14 16  1  0
 14 17  1  0
 17 18  1  0
 17 19  1  0
 17 20  1  0
 20 21  2  0
 20 22  1  0
 22 23  1  0
 23 24  1  0
 24 25  1  0
 24 26  1  0
 26 27  2  0
 27 28  1  0
 28 29  1  0
 28 30  1  0
 28 31  1  0
 31 32  1  0
 31 33  1  0
 31 34  1  0
 34 35  1  0
 34 36  1  0
 36 37  1  0
 36 38  1  0
 36 39  1  0
 39 40  1  0
 39 41  1  0
 39 42  1  0
 34 43  1  0
 43 44  1  0
 43 45  1  0
 43 46  1  0
 46 47  1  0
 46 48  1  0
 46 49  1  0
 26 50  1  0
 50 51  1  0
 13 52  1  0
 52 53  1  0
 52 54  2  0
 54 55  1  0
  7 56  1  0
 56 57  1  0
 56 58  2  0
 58 59  1  0
 58  2  1  0
 54  8  1  0
 50 22  2  0
M  CHG  2  25  -1  34   1
M  END
>  <UniqueID>  (9) 
7

>  <SMILES>  (9) 
CC[NH+](CC)CC/N=c1/cc(C(=O)CCc2ccc(-c3ccccc3)cc2)on1[O-]

>  <Energy>  (9) 
98.2346269988606

>  <Genealogy>  (9) 
CC[NH+](CC)CCN=c1cc(C(=O)CCc2ccc(-c3ccccc3)cc2)on1[O-] (protonated)
CC[NH+](CC)CC/N=c1/cc(C(=O)CCc2ccc(-c3ccccc3)cc2)on1[O-] (cis-trans isomerization)
CC[NH+](CC)CC/N=c1/cc(C(=O)CCc2ccc(-c3ccccc3)cc2)on1[O-] (3D coordinates assigned)
CC[NH+](CC)CC/N=c1/cc(C(=O)CCc2ccc(-c3ccccc3)cc2)on1[O-] (optimized conformer: 98.2346269988606 kcal/mol)

>  <smiles>  (9) 
CCN(CC)CCN=c1cc(C(=O)CCc2ccc(-c3ccccc3)cc2)on1O

>  <score_type>  (9) 
oracle

>  <origin>  (9) 
adg

>  <m_score__min__energy>  (9) 
-10.08

>  <m_primary>  (9) 
energy

$$$$
9:0
     RDKit          3D

 49 52  0  0  0  0  0  0  0  0999 V2000
   56.6330   22.5570   43.1440 C   0  0  0  0  0  0  0  0  0  0  0  0
   56.9960   23.4090   44.3530 C   0  0  0  0  0  0  0  0  0  0  0  0
   57.1840   22.5650   45.5320 N   0  0  0  0  0  0  0  0  0  0  0  0
   57.8040   21.3730   45.5820 C   0  0  0  0  0  0  0  0  0  0  0  0
   57.7600   20.8550   46.8250 N   0  0  0  0  0  0  0  0  0  0  0  0
   57.0970   21.7160   47.5840 N   0  0  0  0  0  0  0  0  0  0  0  0
   56.7330   22.7420   46.7910 C   0  0  0  0  0  0  0  0  0  0  0  0
   56.0020   23.9570   47.2870 C   0  0  0  0  0  0  0  0  0  0  0  0
   56.8170   25.1570   47.1030 N   0  0  0  0  0  0  0  0  0  0  0  0
   56.3120   26.3300   46.4420 C   0  0  0  0  0  0  0  0  0  0  0  0
   55.1360   26.3320   45.9880 O   0  0  0  0  0  0  0  0  0  0  0  0
   57.1610   27.5310   46.2930 C   0  0  0  0  0  0  0  0  0  0  0  0
   56.9420   28.4470   45.2490 C   0  0  0  0  0  0  0  0  0  0  0  0
   57.7590   29.5740   45.1340 C   0  0  0  0  0  0  0  0  0  0  0  0
   58.7870   29.7880   46.0590 C   0  0  0  0  0  0  0  0  0  0  0  0
   59.6250   30.9100   45.9720 C   0  0  0  0  0  0  0  0  0  0  0  0
   60.6460   31.1060   46.9200 C   0  0  0  0  0  0  0  0  0  0  0  0
   61.5120   32.2080   46.8600 O   0  0  0  0  0  0  0  0  0  0  0  0
   62.3440   32.6460   47.8990 C   0  0  0  0  0  0  0  0  0  0  0  0
   61.9740   33.6980   48.7530 C   0  0  0  0  0  0  0  0  0  0  0  0
   62.8340   34.0840   49.7820 C   0  0  0  0  0  0  0  0  0  0  0  0
   64.0630   33.4300   49.9570 C   0  0  0  0  0  0  0  0  0  0  0  0
   64.9780   33.8020   51.0960 C   0  0  0  0  0  0  0  0  0  0  0  0
   64.6080   35.0190   51.6410 F   0  0  0  0  0  0  0  0  0  0  0  0
   64.9290   32.8460   52.0940 F   0  0  0  0  0  0  0  0  0  0  0  0
   66.2750   33.8960   50.6250 F   0  0  0  0  0  0  0  0  0  0  0  0
   64.3730   32.3540   49.1090 C   0  0  0  0  0  0  0  0  0  0  0  0
   63.5190   31.9970   48.1140 N   0  0  0  0  0  0  0  0  0  0  0  0
   60.8390   30.1550   47.9310 C   0  0  0  0  0  0  0  0  0  0  0  0
   60.0080   29.0340   48.0220 C   0  0  0  0  0  0  0  0  0  0  0  0
   58.9800   28.8480   47.0930 C   0  0  0  0  0  0  0  0  0  0  0  0
   58.1700   27.7590   47.1790 N   0  0  0  0  0  0  0  0  0  0  0  0
   56.2229   21.5944   43.4836 H   0  0  0  0  0  0  0  0  0  0  0  0
   55.8807   23.0826   42.5376 H   0  0  0  0  0  0  0  0  0  0  0  0
   57.5332   22.3785   42.5376 H   0  0  0  0  0  0  0  0  0  0  0  0
   57.9282   23.9548   44.1453 H   0  0  0  0  0  0  0  0  0  0  0  0
   56.1786   24.1187   44.5483 H   0  0  0  0  0  0  0  0  0  0  0  0
   58.2841   20.8848   44.7211 H   0  0  0  0  0  0  0  0  0  0  0  0
   55.0625   24.0682   46.7257 H   0  0  0  0  0  0  0  0  0  0  0  0
   55.7912   23.8317   48.3593 H   0  0  0  0  0  0  0  0  0  0  0  0
   57.8000   25.1400   47.4530 H   0  0  0  0  0  0  0  0  0  0  0  0
   56.1307   28.2768   44.5259 H   0  0  0  0  0  0  0  0  0  0  0  0
   57.5946   30.2924   44.3174 H   0  0  0  0  0  0  0  0  0  0  0  0
   59.4833   31.6386   45.1602 H   0  0  0  0  0  0  0  0  0  0  0  0
   61.0129   34.2141   48.6117 H   0  0  0  0  0  0  0  0  0  0  0  0
   62.5476   34.9033   50.4578 H   0  0  0  0  0  0  0  0  0  0  0  0
   65.3113   31.7978   49.2510 H   0  0  0  0  0  0  0  0  0  0  0  0
   61.6516   30.2916   48.6597 H   0  0  0  0  0  0  0  0  0  0  0  0
   60.1632   28.2983   48.8249 H   0  0  0  0  0  0  0  0  0  0  0  0
  1  2  1  0
  2  3  1  0
  3  4  1  0
  4  5  2  0
  5  6  1  0
  6  7  2  0
  7  8  1  0
  8  9  1  0
  9 10  1  0
 10 11  2  0
 10 12  1  0
 12 13  2  0
 13 14  1  0
 14 15  2  0
 15 16  1  0
 16 17  2  0
 17 18  1  0
 18 19  1  0
 19 20  2  0
 20 21  1  0
 21 22  2  0
 22 23  1  0
 23 24  1  0
 23 25  1  0
 23 26  1  0
 22 27  1  0
 27 28  2  0
 17 29  1  0
 29 30  2  0
 30 31  1  0
 31 32  2  0
  7  3  1  0
 32 12  1  0
 31 15  1  0
 28 19  1  0
  1 33  1  0
  1 34  1  0
  1 35  1  0
  2 36  1  0
  2 37  1  0
  4 38  1  0
  8 39  1  0
  8 40  1  0
  9 41  1  0
 13 42  1  0
 14 43  1  0
 16 44  1  0
 20 45  1  0
 21 46  1  0
 27 47  1  0
 29 48  1  0
 30 49  1  0
M  END
>  <UniqueID>  (10) 
8

>  <SMILES>  (10) 
CCn1cnnc1CNC(=O)c1ccc2cc(Oc3ccc(C(F)(F)F)cn3)ccc2n1

>  <Energy>  (10) 
92.63567534918322

>  <Genealogy>  (10) 
CCn1cnnc1CNC(=O)c1ccc2cc(Oc3ccc(C(F)(F)F)cn3)ccc2n1 (3D coordinates assigned)
CCn1cnnc1CNC(=O)c1ccc2cc(Oc3ccc(C(F)(F)F)cn3)ccc2n1 (optimized conformer: 92.63567534918322 kcal/mol)

>  <smiles>  (10) 
CCn1cnnc1CNC(=O)c1ccc2cc(Oc3ccc(C(F)(F)F)cn3)ccc2n1

>  <score_type>  (10) 
oracle

>  <origin>  (10) 
adg

>  <m_score__min__energy>  (10) 
-8.5199999999999996

>  <m_primary>  (10) 
energy

$$$$
10:0
     RDKit          3D

 49 52  0  0  0  0  0  0  0  0999 V2000
   56.3100   32.0619   44.6045 H   0  0  0  0  0  0  0  0  0  0  0  0
   57.4030   32.0380   44.7260 C   0  0  0  0  0  0  0  0  0  0  0  0
   58.0810   30.9950   44.2360 C   0  0  0  0  0  0  0  0  0  0  0  0
   58.7029   31.1442   43.3410 H   0  0  0  0  0  0  0  0  0  0  0  0
   58.0300   29.6510   44.8460 C   0  0  0  0  0  0  0  0  0  0  0  0
   56.8450   29.0100   45.0250 N   0  0  0  0  0  0  0  0  0  0  0  0
   57.2050   27.8510   45.6040 C   0  0  0  0  0  0  0  0  0  0  0  0
   56.3730   26.8070   46.0020 C   0  0  0  0  0  0  0  0  0  0  0  0
   55.2844   26.8587   45.8531 H   0  0  0  0  0  0  0  0  0  0  0  0
   56.9730   25.6840   46.6010 C   0  0  0  0  0  0  0  0  0  0  0  0
   56.3484   24.8388   46.9258 H   0  0  0  0  0  0  0  0  0  0  0  0
   58.3730   25.6350   46.7880 C   0  0  0  0  0  0  0  0  0  0  0  0
   58.8313   24.7518   47.2569 H   0  0  0  0  0  0  0  0  0  0  0  0
   59.1840   26.7090   46.3780 C   0  0  0  0  0  0  0  0  0  0  0  0
   60.2742   26.6869   46.5230 H   0  0  0  0  0  0  0  0  0  0  0  0
   58.5560   27.8050   45.7800 C   0  0  0  0  0  0  0  0  0  0  0  0
   59.1000   28.9420   45.3130 N   0  0  0  0  0  0  0  0  0  0  0  0
   60.5130   29.3290   45.3970 C   0  0  0  0  0  0  0  0  0  0  0  0
   60.7695   29.9405   44.5193 H   0  0  0  0  0  0  0  0  0  0  0  0
   61.1218   28.4133   45.4259 H   0  0  0  0  0  0  0  0  0  0  0  0
   60.7910   30.1220   46.6440 C   0  0  0  0  0  0  0  0  0  0  0  0
   61.0790   29.5050   47.7050 O   0  0  0  0  0  0  0  0  0  0  0  0
   60.6790   31.5540   46.6560 N   0  0  0  0  0  0  0  0  0  0  0  0
   60.3140   32.0580   45.8180 H   0  0  0  0  0  0  0  0  0  0  0  0
   60.9070   32.3180   47.8470 C   0  0  0  0  0  0  0  0  0  0  0  0
   60.0410   32.1700   48.9500 C   0  0  0  0  0  0  0  0  0  0  0  0
   58.8850   31.2080   48.8910 C   0  0  0  0  0  0  0  0  0  0  0  0
   58.5721   30.9476   49.9129 H   0  0  0  0  0  0  0  0  0  0  0  0
   58.0445   31.6770   48.3585 H   0  0  0  0  0  0  0  0  0  0  0  0
   59.1935   30.2963   48.3585 H   0  0  0  0  0  0  0  0  0  0  0  0
   60.2720   32.9160   50.1160 C   0  0  0  0  0  0  0  0  0  0  0  0
   59.5991   32.8035   50.9789 H   0  0  0  0  0  0  0  0  0  0  0  0
   61.3490   33.7990   50.1880 C   0  0  0  0  0  0  0  0  0  0  0  0
   61.5276   34.3720   51.1099 H   0  0  0  0  0  0  0  0  0  0  0  0
   62.2010   33.9580   49.0940 C   0  0  0  0  0  0  0  0  0  0  0  0
   63.0506   34.6536   49.1598 H   0  0  0  0  0  0  0  0  0  0  0  0
   61.9810   33.2360   47.9100 C   0  0  0  0  0  0  0  0  0  0  0  0
   62.8970   33.4390   46.7350 C   0  0  0  0  0  0  0  0  0  0  0  0
   63.9116   33.6638   47.0956 H   0  0  0  0  0  0  0  0  0  0  0  0
   62.9191   32.5240   46.1249 H   0  0  0  0  0  0  0  0  0  0  0  0
   62.5304   34.2777   46.1249 H   0  0  0  0  0  0  0  0  0  0  0  0
   58.0620   33.1560   45.4220 C   0  0  0  0  0  0  0  0  0  0  0  0
   57.7760   33.6820   46.9980 S   0  0  0  0  0  0  0  0  0  0  0  0
   58.9000   34.9320   46.9850 C   0  0  0  0  0  0  0  0  0  0  0  0
   59.1117   35.6171   47.8191 H   0  0  0  0  0  0  0  0  0  0  0  0
   59.5150   34.9510   45.7410 C   0  0  0  0  0  0  0  0  0  0  0  0
   60.2946   35.6771   45.4669 H   0  0  0  0  0  0  0  0  0  0  0  0
   59.0510   33.9600   44.8670 C   0  0  0  0  0  0  0  0  0  0  0  0
   59.4314   33.8306   43.8430 H   0  0  0  0  0  0  0  0  0  0  0  0
  1  2  1  0
  2  3  2  0
  3  4  1  0
  3  5  1  0
  5  6  2  0
  6  7  1  0
  7  8  2  0
  8  9  1  0
  8 10  1  0
 10 11  1  0
 10 12  2  0
 12 13  1  0
 12 14  1  0
 14 15  1  0
 14 16  2  0
 16 17  1  0
 17 18  1  0
 18 19  1  0
 18 20  1  0
 18 21  1  0
 21 22  2  0
 21 23  1  0
 23 24  1  0
 23 25  1  0
 25 26  2  0
 26 27  1  0
 27 28  1  0
 27 29  1  0
 27 30  1  0
 26 31  1  0
 31 32  1  0
 31 33  2  0
 33 34  1  0
 33 35  1  0
 35 36  1  0
 35 37  2  0
 37 38  1  0
 38 39  1  0
 38 40  1  0
 38 41  1  0
  2 42  1  0
 42 43  1  0
 43 44  1  0
 44 45  1  0
 44 46  2  0
 46 47  1  0
 46 48  1  0
 48 49  1  0
 17  5  1  0
 37 25  1  0
 48 42  2  0
 16  7  1  0
M  END
>  <UniqueID>  (11) 
9

>  <SMILES>  (11) 
Cc1cccc(C)c1NC(=O)Cn1c(/C=C/c2cccs2)nc2ccccc21

>  <Energy>  (11) 
122.33652122279612

>  <Genealogy>  (11) 
Cc1cccc(C)c1NC(=O)Cn1c(/C=C/c2cccs2)nc2ccccc21 (cis-trans isomerization)
Cc1cccc(C)c1NC(=O)Cn1c(/C=C/c2cccs2)nc2ccccc21 (3D coordinates assigned)
Cc1cccc(C)c1NC(=O)Cn1c(/C=C/c2cccs2)nc2ccccc21 (optimized conformer: 122.33652122279612 kcal/mol)

>  <smiles>  (11) 
Cc1cccc(C)c1NC(=O)Cn1c(C=Cc2cccs2)nc2ccccc21

>  <score_type>  (11) 
oracle

>  <origin>  (11) 
adg

>  <m_score__min__energy>  (11) 
-8.2400000000000002

>  <m_primary>  (11) 
energy

$$$$
11:0
     RDKit          3D

 45 45  0  0  0  0  0  0  0  0999 V2000
   60.7460   28.5920   44.8470 C   0  0  0  0  0  0  0  0  0  0  0  0
   60.1360   29.7450   45.6520 C   0  0  0  0  0  0  0  0  0  0  0  0
   58.7000   29.5240   45.9730 N   0  0  0  0  0  0  0  0  0  0  0  0
   58.5410   28.9670   47.3430 C   0  0  0  0  0  0  0  0  0  0  0  0
   59.5340   29.5550   48.3520 C   0  0  0  0  0  0  0  0  0  0  0  0
   58.0190   28.7240   44.9140 C   0  0  0  0  0  0  0  0  0  0  0  0
   56.6930   29.3090   44.3890 C   0  0  0  0  0  0  0  0  0  0  0  0
   56.5370   30.6430   44.8230 O   0  0  0  0  0  0  0  0  0  0  0  0
   57.2180   31.5340   43.9620 C   0  0  0  0  0  0  0  0  0  0  0  0
   57.8250   32.6860   44.7680 C   0  0  0  0  0  0  0  0  0  0  0  0
   58.2090   32.2450   46.0700 O   0  0  0  0  0  0  0  0  0  0  0  0
   59.2110   32.8240   46.8660 C   0  0  0  0  0  0  0  0  0  0  0  0
   60.4880   33.1510   46.3710 C   0  0  0  0  0  0  0  0  0  0  0  0
   61.4430   33.7280   47.2130 C   0  0  0  0  0  0  0  0  0  0  0  0
   61.1460   33.9930   48.5540 C   0  0  0  0  0  0  0  0  0  0  0  0
   62.1410   34.5710   49.3560 O   0  0  0  0  0  0  0  0  0  0  0  0
   63.2680   33.8680   49.8690 C   0  0  0  0  0  0  0  0  0  0  0  0
   59.8680   33.6700   49.0490 C   0  0  0  0  0  0  0  0  0  0  0  0
   58.9130   33.0920   48.2080 C   0  0  0  0  0  0  0  0  0  0  0  0
   61.1466   27.8348   45.5370 H   0  0  0  0  0  0  0  0  0  0  0  0
   59.9707   28.1369   44.2132 H   0  0  0  0  0  0  0  0  0  0  0  0
   61.5585   28.9769   44.2132 H   0  0  0  0  0  0  0  0  0  0  0  0
   60.6948   29.8513   46.5935 H   0  0  0  0  0  0  0  0  0  0  0  0
   60.2028   30.6531   45.0349 H   0  0  0  0  0  0  0  0  0  0  0  0
   58.2270   30.4590   45.9640 H   0  0  0  0  0  0  0  0  0  0  0  0
   57.5199   29.1815   47.6915 H   0  0  0  0  0  0  0  0  0  0  0  0
   58.7378   27.8865   47.2818 H   0  0  0  0  0  0  0  0  0  0  0  0
   59.1841   29.3478   49.3741 H   0  0  0  0  0  0  0  0  0  0  0  0
   60.5228   29.0967   48.2030 H   0  0  0  0  0  0  0  0  0  0  0  0
   59.6076   30.6424   48.2030 H   0  0  0  0  0  0  0  0  0  0  0  0
   58.7093   28.6319   44.0625 H   0  0  0  0  0  0  0  0  0  0  0  0
   57.7604   27.7626   45.3817 H   0  0  0  0  0  0  0  0  0  0  0  0
   56.6961   29.2838   43.2893 H   0  0  0  0  0  0  0  0  0  0  0  0
   55.8587   28.7074   44.7789 H   0  0  0  0  0  0  0  0  0  0  0  0
   58.0209   30.9928   43.4400 H   0  0  0  0  0  0  0  0  0  0  0  0
   56.5050   31.9432   43.2311 H   0  0  0  0  0  0  0  0  0  0  0  0
   58.7114   33.0678   44.2403 H   0  0  0  0  0  0  0  0  0  0  0  0
   57.0707   33.4799   44.8723 H   0  0  0  0  0  0  0  0  0  0  0  0
   60.7350   32.9517   45.3178 H   0  0  0  0  0  0  0  0  0  0  0  0
   62.4387   33.9763   46.8169 H   0  0  0  0  0  0  0  0  0  0  0  0
   63.2412   33.8847   50.9685 H   0  0  0  0  0  0  0  0  0  0  0  0
   63.2414   32.8261   49.5174 H   0  0  0  0  0  0  0  0  0  0  0  0
   64.1921   34.3501   49.5174 H   0  0  0  0  0  0  0  0  0  0  0  0
   59.6204   33.8733   50.1013 H   0  0  0  0  0  0  0  0  0  0  0  0
   57.9170   32.8450   48.6042 H   0  0  0  0  0  0  0  0  0  0  0  0
  1  2  1  0
  2  3  1  0
  3  4  1  0
  4  5  1  0
  3  6  1  0
  6  7  1  0
  7  8  1  0
  8  9  1  0
  9 10  1  0
 10 11  1  0
 11 12  1  0
 12 13  2  0
 13 14  1  0
 14 15  2  0
 15 16  1  0
 16 17  1  0
 15 18  1  0
 18 19  2  0
 19 12  1  0
  1 20  1  0
  1 21  1  0
  1 22  1  0
  2 23  1  0
  2 24  1  0
  3 25  1  0
  4 26  1  0
  4 27  1  0
  5 28  1  0
  5 29  1  0
  5 30  1  0
  6 31  1  0
  6 32  1  0
  7 33  1  0
  7 34  1  0
  9 35  1  0
  9 36  1  0
 10 37  1  0
 10 38  1  0
 13 39  1  0
 14 40  1  0
 17 41  1  0
 17 42  1  0
 17 43  1  0
 18 44  1  0
 19 45  1  0
M  CHG  1   3   1
M  END
>  <UniqueID>  (12) 
10

>  <SMILES>  (12) 
CC[NH+](CC)CCOCCOc1ccc(OC)cc1

>  <Energy>  (12) 
44.73382968137845

>  <Genealogy>  (12) 
CC[NH+](CC)CCOCCOc1ccc(OC)cc1 (protonated)
CC[NH+](CC)CCOCCOc1ccc(OC)cc1 (3D coordinates assigned)
CC[NH+](CC)CCOCCOc1ccc(OC)cc1 (optimized conformer: 44.73382968137845 kcal/mol)

>  <smiles>  (12) 
CCN(CC)CCOCCOc1ccc(OC)cc1

>  <score_type>  (12) 
oracle

>  <origin>  (12) 
adg

>  <m_score__min__energy>  (12) 
-3.8599999999999999

>  <m_primary>  (12) 
energy

$$$$
12:0
     RDKit          3D

 52 54  0  0  0  0  0  0  0  0999 V2000
   59.6134   35.6058   49.0130 H   0  0  0  0  0  0  0  0  0  0  0  0
   59.6120   34.5850   48.6030 C   0  0  0  0  0  0  0  0  0  0  0  0
   60.1680   33.6100   49.3530 C   0  0  0  0  0  0  0  0  0  0  0  0
   59.3740   32.9470   50.4150 C   0  0  0  0  0  0  0  0  0  0  0  0
   59.2260   33.4980   51.5420 O   0  0  0  0  0  0  0  0  0  0  0  0
   58.7740   31.7070   50.1530 O   0  0  0  0  0  0  0  0  0  0  0  0
   59.5070   30.4930   50.0000 C   0  0  0  0  0  0  0  0  0  0  0  0
   58.9529   29.6742   50.4822 H   0  0  0  0  0  0  0  0  0  0  0  0
   60.4943   30.6162   50.4691 H   0  0  0  0  0  0  0  0  0  0  0  0
   59.7020   30.1670   48.5500 C   0  0  0  0  0  0  0  0  0  0  0  0
   60.8650   29.9840   48.1030 O   0  0  0  0  0  0  0  0  0  0  0  0
   58.5680   30.0200   47.6910 N   0  0  0  0  0  0  0  0  0  0  0  0
   58.4470   28.9770   46.6790 C   0  0  0  0  0  0  0  0  0  0  0  0
   57.8170   28.1644   47.0698 H   0  0  0  0  0  0  0  0  0  0  0  0
   59.4504   28.5957   46.4384 H   0  0  0  0  0  0  0  0  0  0  0  0
   57.8210   29.5310   45.4240 C   0  0  0  0  0  0  0  0  0  0  0  0
   58.4480   30.5850   44.7400 C   0  0  0  0  0  0  0  0  0  0  0  0
   59.3892   31.0041   45.1254 H   0  0  0  0  0  0  0  0  0  0  0  0
   57.8830   31.1040   43.5730 C   0  0  0  0  0  0  0  0  0  0  0  0
   58.3795   31.9304   43.0434 H   0  0  0  0  0  0  0  0  0  0  0  0
   56.6890   30.5760   43.0770 C   0  0  0  0  0  0  0  0  0  0  0  0
   56.2457   30.9886   42.1587 H   0  0  0  0  0  0  0  0  0  0  0  0
   56.0570   29.5250   43.7450 C   0  0  0  0  0  0  0  0  0  0  0  0
   55.1177   29.1117   43.3489 H   0  0  0  0  0  0  0  0  0  0  0  0
   56.6160   28.9900   44.9250 C   0  0  0  0  0  0  0  0  0  0  0  0
   56.0080   27.9290   45.6170 O   0  0  0  0  0  0  0  0  0  0  0  0
   56.5880   26.6400   45.7920 C   0  0  0  0  0  0  0  0  0  0  0  0
   56.6850   26.4244   46.8663 H   0  0  0  0  0  0  0  0  0  0  0  0
   55.9444   25.8815   45.3224 H   0  0  0  0  0  0  0  0  0  0  0  0
   57.5825   26.6186   45.3224 H   0  0  0  0  0  0  0  0  0  0  0  0
   61.5390   33.1030   49.0950 C   0  0  0  0  0  0  0  0  0  0  0  0
   62.1000   33.1970   47.8130 C   0  0  0  0  0  0  0  0  0  0  0  0
   61.5175   33.6342   46.9886 H   0  0  0  0  0  0  0  0  0  0  0  0
   63.3970   32.7360   47.5830 C   0  0  0  0  0  0  0  0  0  0  0  0
   63.8397   32.8026   46.5782 H   0  0  0  0  0  0  0  0  0  0  0  0
   64.1270   32.1900   48.6390 C   0  0  0  0  0  0  0  0  0  0  0  0
   65.1498   31.8234   48.4674 H   0  0  0  0  0  0  0  0  0  0  0  0
   63.5770   32.1100   49.8800 N   0  0  0  0  0  0  0  0  0  0  0  0
   64.1370   31.7010   50.6620 H   0  0  0  0  0  0  0  0  0  0  0  0
   62.3130   32.5530   50.1290 C   0  0  0  0  0  0  0  0  0  0  0  0
   61.8971   32.4794   51.1447 H   0  0  0  0  0  0  0  0  0  0  0  0
   59.0000   34.3830   47.2690 C   0  0  0  0  0  0  0  0  0  0  0  0
   59.5420   34.9710   46.1100 C   0  0  0  0  0  0  0  0  0  0  0  0
   60.4505   35.5870   46.1819 H   0  0  0  0  0  0  0  0  0  0  0  0
   58.9300   34.7750   44.8680 C   0  0  0  0  0  0  0  0  0  0  0  0
   59.3675   35.2233   43.9638 H   0  0  0  0  0  0  0  0  0  0  0  0
   57.7640   34.0110   44.7730 C   0  0  0  0  0  0  0  0  0  0  0  0
   57.2879   33.8527   43.7941 H   0  0  0  0  0  0  0  0  0  0  0  0
   57.2030   33.4480   45.9230 C   0  0  0  0  0  0  0  0  0  0  0  0
   56.2807   32.8531   45.8493 H   0  0  0  0  0  0  0  0  0  0  0  0
   57.8130   33.6400   47.1680 C   0  0  0  0  0  0  0  0  0  0  0  0
   57.3601   33.2066   48.0719 H   0  0  0  0  0  0  0  0  0  0  0  0
  1  2  1  0
  2  3  2  0
  3  4  1  0
  4  5  2  0
  4  6  1  0
  6  7  1  0
  7  8  1  0
  7  9  1  0
  7 10  1  0
 10 11  2  0
 10 12  1  0
 12 13  1  0
 13 14  1  0
 13 15  1  0
 13 16  1  0
 16 17  2  0
 17 18  1  0
 17 19  1  0
 19 20  1  0
 19 21  2  0
 21 22  1  0
 21 23  1  0
 23 24  1  0
 23 25  2  0
 25 26  1  0
 26 27  1  0
 27 28  1  0
 27 29  1  0
 27 30  1  0
  3 31  1  0
 31 32  2  0
 32 33  1  0
 32 34  1  0
 34 35  1  0
 34 36  2  0
 36 37  1  0
 36 38  1  0
 38 39  1  0
 38 40  2  0
 40 41  1  0
  2 42  1  0
 42 43  2  0
 43 44  1  0
 43 45  1  0
 45 46  1  0
 45 47  2  0
 47 48  1  0
 47 49  1  0
 49 50  1  0
 49 51  2  0
 51 52  1  0
 25 16  1  0
 40 31  1  0
 51 42  1  0
M  CHG  2  12  -1  38   1
M  END
>  <UniqueID>  (13) 
11

>  <SMILES>  (13) 
COc1ccccc1C[N-]C(=O)COC(=O)/C(=C/c1ccccc1)c1ccc[nH+]c1

>  <Energy>  (13) 
61.211617316622124

>  <Genealogy>  (13) 
COc1ccccc1C[N-]C(=O)COC(=O)C(=Cc1ccccc1)c1ccc[nH+]c1 (protonated)
COc1ccccc1C[N-]C(=O)COC(=O)/C(=C/c1ccccc1)c1ccc[nH+]c1 (cis-trans isomerization)
COc1ccccc1C[N-]C(=O)COC(=O)/C(=C/c1ccccc1)c1ccc[nH+]c1 (3D coordinates assigned)
COc1ccccc1C[N-]C(=O)COC(=O)/C(=C/c1ccccc1)c1ccc[nH+]c1 (optimized conformer: 61.211617316622124 kcal/mol)

>  <smiles>  (13) 
COc1ccccc1CNC(=O)COC(=O)C(=Cc1ccccc1)c1cccnc1

>  <score_type>  (13) 
oracle

>  <origin>  (13) 
adg

>  <m_score__min__energy>  (13) 
-9.2400000000000002

>  <m_primary>  (13) 
energy

$$$$
13:0
     RDKit          3D

 43 45  0  0  0  0  0  0  0  0999 V2000
   56.2400   31.5940   45.2480 H   0  0  0  0  0  0  0  0  0  0  0  0
   57.1260   31.9810   45.5410 O   0  0  0  0  0  0  0  0  0  0  0  0
   58.3150   31.2470   45.5970 C   0  0  0  0  0  0  0  0  0  0  0  0
   58.4920   30.1160   44.8050 C   0  0  0  0  0  0  0  0  0  0  0  0
   57.4920   29.5250   43.8540 C   0  0  0  0  0  0  0  0  0  0  0  0
   57.3571   30.2064   43.0011 H   0  0  0  0  0  0  0  0  0  0  0  0
   57.8652   28.5506   43.5059 H   0  0  0  0  0  0  0  0  0  0  0  0
   56.1750   29.3230   44.5360 C   0  0  0  0  0  0  0  0  0  0  0  0
   55.2790   30.2040   44.4370 O   0  0  0  0  0  0  0  0  0  0  0  0
   55.9300   28.1020   45.2480 N   0  0  0  0  0  0  0  0  0  0  0  0
   56.9100   27.1280   45.6400 C   0  0  0  0  0  0  0  0  0  0  0  0
   56.9530   25.8420   45.0690 C   0  0  0  0  0  0  0  0  0  0  0  0
   56.2271   25.5622   44.2914 H   0  0  0  0  0  0  0  0  0  0  0  0
   57.9160   24.9200   45.4880 C   0  0  0  0  0  0  0  0  0  0  0  0
   57.9567   23.9218   45.0276 H   0  0  0  0  0  0  0  0  0  0  0  0
   58.8280   25.2630   46.4910 C   0  0  0  0  0  0  0  0  0  0  0  0
   59.5863   24.5359   46.8169 H   0  0  0  0  0  0  0  0  0  0  0  0
   58.7760   26.5290   47.0790 C   0  0  0  0  0  0  0  0  0  0  0  0
   59.4893   26.7964   47.8725 H   0  0  0  0  0  0  0  0  0  0  0  0
   57.8170   27.4570   46.6590 C   0  0  0  0  0  0  0  0  0  0  0  0
   57.7750   28.6850   47.2360 F   0  0  0  0  0  0  0  0  0  0  0  0
   59.9830   29.4440   45.1700 S   0  0  0  0  0  0  0  0  0  0  0  0
   60.3710   30.6180   46.3050 C   0  0  0  0  0  0  0  0  0  0  0  0
   61.5000   30.5570   46.9600 N   0  0  0  0  0  0  0  0  0  0  0  0
   62.1360   31.5300   47.7880 C   0  0  0  0  0  0  0  0  0  0  0  0
   61.9580   31.4930   49.1770 C   0  0  0  0  0  0  0  0  0  0  0  0
   61.2847   30.7471   49.6245 H   0  0  0  0  0  0  0  0  0  0  0  0
   62.6350   32.4030   49.9960 C   0  0  0  0  0  0  0  0  0  0  0  0
   62.4729   32.3896   51.0839 H   0  0  0  0  0  0  0  0  0  0  0  0
   63.5180   33.3300   49.4320 C   0  0  0  0  0  0  0  0  0  0  0  0
   64.1860   34.2010   50.2280 F   0  0  0  0  0  0  0  0  0  0  0  0
   63.7290   33.3440   48.0480 C   0  0  0  0  0  0  0  0  0  0  0  0
   64.4274   34.0693   47.6050 H   0  0  0  0  0  0  0  0  0  0  0  0
   63.0510   32.4350   47.2290 C   0  0  0  0  0  0  0  0  0  0  0  0
   63.2355   32.4297   46.1446 H   0  0  0  0  0  0  0  0  0  0  0  0
   59.3710   31.5570   46.4250 N   0  0  0  0  0  0  0  0  0  0  0  0
   59.3430   32.7320   47.3130 C   0  0  0  0  0  0  0  0  0  0  0  0
   60.1718   32.6595   48.0326 H   0  0  0  0  0  0  0  0  0  0  0  0
   58.3776   32.7516   47.8399 H   0  0  0  0  0  0  0  0  0  0  0  0
   59.4880   34.0230   46.5120 C   0  0  0  0  0  0  0  0  0  0  0  0
   59.5836   34.8741   47.2023 H   0  0  0  0  0  0  0  0  0  0  0  0
   60.3850   33.9625   45.8782 H   0  0  0  0  0  0  0  0  0  0  0  0
   58.5999   34.1630   45.8782 H   0  0  0  0  0  0  0  0  0  0  0  0
  1  2  1  0
  2  3  1  0
  3  4  2  0
  4  5  1  0
  5  6  1  0
  5  7  1  0
  5  8  1  0
  8  9  2  0
  8 10  1  0
 10 11  1  0
 11 12  2  0
 12 13  1  0
 12 14  1  0
 14 15  1  0
 14 16  2  0
 16 17  1  0
 16 18  1  0
 18 19  1  0
 18 20  2  0
 20 21  1  0
  4 22  1  0
 22 23  1  0
 23 24  2  0
 24 25  1  0
 25 26  2  0
 26 27  1  0
 26 28  1  0
 28 29  1  0
 28 30  2  0
 30 31  1  0
 30 32  1  0
 32 33  1  0
 32 34  2  0
 34 35  1  0
 23 36  1  0
 36 37  1  0
 37 38  1  0
 37 39  1  0
 37 40  1  0
 40 41  1  0
 40 42  1  0
 40 43  1  0
 36  3  1  0
 20 11  1  0
 34 25  1  0
M  CHG  1  10  -1
M  END
>  <UniqueID>  (14) 
12

>  <SMILES>  (14) 
CCn1c(O)c(CC(=O)[N-]c2ccccc2F)s/c1=N/c1ccc(F)cc1

>  <Energy>  (14) 
93.41487111628817

>  <Genealogy>  (14) 
CCn1c(O)c(CC(=O)[N-]c2ccccc2F)sc1=Nc1ccc(F)cc1 (protonated)
CCn1c(O)c(CC(=O)[N-]c2ccccc2F)s/c1=N/c1ccc(F)cc1 (cis-trans isomerization)
CCn1c(O)c(CC(=O)[N-]c2ccccc2F)s/c1=N/c1ccc(F)cc1 (3D coordinates assigned)
CCn1c(O)c(CC(=O)[N-]c2ccccc2F)s/c1=N/c1ccc(F)cc1 (optimized conformer: 93.41487111628817 kcal/mol)

>  <smiles>  (14) 
CCn1c(O)c(CC(=O)Nc2ccccc2F)sc1=Nc1ccc(F)cc1

>  <score_type>  (14) 
oracle

>  <origin>  (14) 
adg

>  <m_score__min__energy>  (14) 
-9.5199999999999996

>  <m_primary>  (14) 
energy

$$$$
14:0
     RDKit          3D

 53 55  0  0  0  0  0  0  0  0999 V2000
   58.6640   32.6510   51.1780 C   0  0  0  0  0  0  0  0  0  0  0  0
   58.9020   32.2200   49.8420 O   0  0  0  0  0  0  0  0  0  0  0  0
   60.0040   32.6070   49.0640 C   0  0  0  0  0  0  0  0  0  0  0  0
   60.7340   33.7810   49.3400 C   0  0  0  0  0  0  0  0  0  0  0  0
   61.7970   34.1600   48.5160 C   0  0  0  0  0  0  0  0  0  0  0  0
   62.1420   33.3810   47.4110 C   0  0  0  0  0  0  0  0  0  0  0  0
   61.4300   32.2150   47.1280 C   0  0  0  0  0  0  0  0  0  0  0  0
   60.3750   31.8100   47.9590 C   0  0  0  0  0  0  0  0  0  0  0  0
   59.6650   30.6030   47.6450 N   0  0  0  0  0  0  0  0  0  0  0  0
   59.7560   29.4210   48.4550 C   0  0  0  0  0  0  0  0  0  0  0  0
   60.4650   29.4170   49.4990 O   0  0  0  0  0  0  0  0  0  0  0  0
   59.0260   28.1630   48.0500 C   0  0  0  0  0  0  0  0  0  0  0  0
   58.6800   28.1120   46.6100 N   0  0  0  0  0  0  0  0  0  0  0  0
   59.8560   28.0210   45.7320 C   0  0  0  0  0  0  0  0  0  0  0  0
   59.4440   28.3900   44.3010 C   0  0  0  0  0  0  0  0  0  0  0  0
   58.1000   27.8800   43.9340 N   0  0  0  0  0  0  0  0  0  0  0  0
   57.1060   28.9230   43.5980 C   0  0  0  0  0  0  0  0  0  0  0  0
   56.5120   29.5870   44.8050 C   0  0  0  0  0  0  0  0  0  0  0  0
   55.3180   29.3450   45.1310 O   0  0  0  0  0  0  0  0  0  0  0  0
   57.3320   30.4470   45.6060 N   0  0  0  0  0  0  0  0  0  0  0  0
   57.7360   31.7870   45.2940 C   0  0  0  0  0  0  0  0  0  0  0  0
   58.1530   32.1580   44.0000 C   0  0  0  0  0  0  0  0  0  0  0  0
   58.5860   33.4640   43.7480 C   0  0  0  0  0  0  0  0  0  0  0  0
   58.6090   34.4070   44.7800 C   0  0  0  0  0  0  0  0  0  0  0  0
   58.2080   34.0440   46.0690 C   0  0  0  0  0  0  0  0  0  0  0  0
   57.7820   32.7370   46.3270 C   0  0  0  0  0  0  0  0  0  0  0  0
   57.3990   32.3960   47.5830 F   0  0  0  0  0  0  0  0  0  0  0  0
   57.5840   26.7810   44.7780 C   0  0  0  0  0  0  0  0  0  0  0  0
   57.6750   27.0760   46.2940 C   0  0  0  0  0  0  0  0  0  0  0  0
   59.0731   31.9101   51.8807 H   0  0  0  0  0  0  0  0  0  0  0  0
   59.1537   33.6221   51.3427 H   0  0  0  0  0  0  0  0  0  0  0  0
   57.5813   32.7538   51.3427 H   0  0  0  0  0  0  0  0  0  0  0  0
   60.4656   34.4014   50.2078 H   0  0  0  0  0  0  0  0  0  0  0  0
   62.3639   35.0758   48.7393 H   0  0  0  0  0  0  0  0  0  0  0  0
   62.9762   33.6865   46.7623 H   0  0  0  0  0  0  0  0  0  0  0  0
   61.6973   31.6103   46.2489 H   0  0  0  0  0  0  0  0  0  0  0  0
   59.2160   30.5330   46.7050 H   0  0  0  0  0  0  0  0  0  0  0  0
   59.6660   27.2995   48.2841 H   0  0  0  0  0  0  0  0  0  0  0  0
   58.0786   28.1472   48.6088 H   0  0  0  0  0  0  0  0  0  0  0  0
   60.6323   28.7169   46.0828 H   0  0  0  0  0  0  0  0  0  0  0  0
   60.2536   26.9956   45.7503 H   0  0  0  0  0  0  0  0  0  0  0  0
   59.4399   29.4862   44.2092 H   0  0  0  0  0  0  0  0  0  0  0  0
   60.1701   27.9231   43.6192 H   0  0  0  0  0  0  0  0  0  0  0  0
   57.5996   29.6910   42.9844 H   0  0  0  0  0  0  0  0  0  0  0  0
   56.2837   28.4284   43.0603 H   0  0  0  0  0  0  0  0  0  0  0  0
   58.1379   31.4185   43.1858 H   0  0  0  0  0  0  0  0  0  0  0  0
   58.9090   33.7496   42.7360 H   0  0  0  0  0  0  0  0  0  0  0  0
   58.9429   35.4353   44.5775 H   0  0  0  0  0  0  0  0  0  0  0  0
   58.2275   34.7863   46.8805 H   0  0  0  0  0  0  0  0  0  0  0  0
   56.5289   26.6084   44.5191 H   0  0  0  0  0  0  0  0  0  0  0  0
   58.2103   25.8985   44.5807 H   0  0  0  0  0  0  0  0  0  0  0  0
   56.6912   27.4200   46.6460 H   0  0  0  0  0  0  0  0  0  0  0  0
   57.9829   26.1475   46.7971 H   0  0  0  0  0  0  0  0  0  0  0  0
  1  2  1  0
  2  3  1  0
  3  4  2  0
  4  5  1  0
  5  6  2  0
  6  7  1  0
  7  8  2  0
  8  9  1  0
  9 10  1  0
 10 11  2  0
 10 12  1  0
 12 13  1  0
 13 14  1  0
 14 15  1  0
 15 16  1  0
 16 17  1  0
 17 18  1  0
 18 19  2  0
 18 20  1  0
 20 21  1  0
 21 22  2  0
 22 23  1  0
 23 24  2  0
 24 25  1  0
 25 26  2  0
 26 27  1  0
 16 28  1  0
 28 29  1  0
  8  3  1  0
 29 13  1  0
 26 21  1  0
  1 30  1  0
  1 31  1  0
  1 32  1  0
  4 33  1  0
  5 34  1  0
  6 35  1  0
  7 36  1  0
  9 37  1  0
 12 38  1  0
 12 39  1  0
 14 40  1  0
 14 41  1  0
 15 42  1  0
 15 43  1  0
 17 44  1  0
 17 45  1  0
 22 46  1  0
 23 47  1  0
 24 48  1  0
 25 49  1  0
 28 50  1  0
 28 51  1  0
 29 52  1  0
 29 53  1  0
M  CHG  1  20  -1
M  END
>  <UniqueID>  (15) 
13

>  <SMILES>  (15) 
COc1ccccc1NC(=O)CN1CCN(CC(=O)[N-]c2ccccc2F)CC1

>  <Energy>  (15) 
76.20644469323568

>  <Genealogy>  (15) 
COc1ccccc1NC(=O)CN1CCN(CC(=O)[N-]c2ccccc2F)CC1 (protonated)
COc1ccccc1NC(=O)CN1CCN(CC(=O)[N-]c2ccccc2F)CC1 (3D coordinates assigned)
COc1ccccc1NC(=O)CN1CCN(CC(=O)[N-]c2ccccc2F)CC1 (nonaromatic ring conformer: 76.20644469323568 kcal/mol)

>  <smiles>  (15) 
COc1ccccc1NC(=O)CN1CCN(CC(=O)Nc2ccccc2F)CC1

>  <score_type>  (15) 
oracle

>  <origin>  (15) 
adg

>  <m_score__min__energy>  (15) 
-9.9900000000000002

>  <m_primary>  (15) 
energy

$$$$
15:0
     RDKit          3D

 49 51  0  0  0  0  0  0  0  0999 V2000
   53.9670   24.2270   45.2780 C   0  0  0  0  0  0  0  0  0  0  0  0
   55.1860   25.0360   45.5630 C   0  0  0  0  0  0  0  0  0  0  0  0
   56.4330   24.5290   45.6040 N   0  0  0  0  0  0  0  0  0  0  0  0
   57.1490   25.6280   45.9220 C   0  0  0  0  0  0  0  0  0  0  0  0
   58.6400   25.6360   46.0490 C   0  0  0  0  0  0  0  0  0  0  0  0
   59.1280   26.9920   46.3800 N   0  0  0  0  0  0  0  0  0  0  0  0
   58.5560   27.4930   47.6610 C   0  0  0  0  0  0  0  0  0  0  0  0
   59.3550   28.6340   48.3250 C   0  0  0  0  0  0  0  0  0  0  0  0
   58.9340   30.0450   47.8470 C   0  0  0  0  0  0  0  0  0  0  0  0
   58.4600   30.0300   46.4460 N   0  0  0  0  0  0  0  0  0  0  0  0
   58.0350   31.3640   45.9640 C   0  0  0  0  0  0  0  0  0  0  0  0
   59.0770   32.4330   46.1600 C   0  0  0  0  0  0  0  0  0  0  0  0
   60.3070   32.2100   46.6720 N   0  0  0  0  0  0  0  0  0  0  0  0
   61.0670   33.3390   46.7270 C   0  0  0  0  0  0  0  0  0  0  0  0
   62.4870   33.3210   47.2410 C   0  0  0  0  0  0  0  0  0  0  0  0
   63.4070   34.1650   46.3510 C   0  0  0  0  0  0  0  0  0  0  0  0
   63.0010   31.8810   47.3540 C   0  0  0  0  0  0  0  0  0  0  0  0
   60.4320   34.4870   46.2490 C   0  0  0  0  0  0  0  0  0  0  0  0
   58.8830   34.0550   45.7570 S   0  0  0  0  0  0  0  0  0  0  0  0
   59.4040   29.3720   45.5180 C   0  0  0  0  0  0  0  0  0  0  0  0
   59.0360   27.9050   45.2150 C   0  0  0  0  0  0  0  0  0  0  0  0
   56.3830   26.7270   46.0590 N   0  0  0  0  0  0  0  0  0  0  0  0
   55.1730   26.3160   45.8360 O   0  0  0  0  0  0  0  0  0  0  0  0
   53.5019   23.9183   46.2258 H   0  0  0  0  0  0  0  0  0  0  0  0
   53.2531   24.8312   44.6989 H   0  0  0  0  0  0  0  0  0  0  0  0
   54.2464   23.3345   44.6989 H   0  0  0  0  0  0  0  0  0  0  0  0
   58.9384   24.9399   46.8468 H   0  0  0  0  0  0  0  0  0  0  0  0
   59.0788   25.3262   45.0891 H   0  0  0  0  0  0  0  0  0  0  0  0
   57.5383   27.8595   47.4610 H   0  0  0  0  0  0  0  0  0  0  0  0
   58.5829   26.6470   48.3636 H   0  0  0  0  0  0  0  0  0  0  0  0
   59.2048   28.5763   49.4132 H   0  0  0  0  0  0  0  0  0  0  0  0
   60.4088   28.4980   48.0404 H   0  0  0  0  0  0  0  0  0  0  0  0
   58.1237   30.4132   48.4934 H   0  0  0  0  0  0  0  0  0  0  0  0
   59.8139   30.7027   47.9039 H   0  0  0  0  0  0  0  0  0  0  0  0
   57.8092   31.2905   44.8899 H   0  0  0  0  0  0  0  0  0  0  0  0
   57.1554   31.6570   46.5559 H   0  0  0  0  0  0  0  0  0  0  0  0
   60.6390   31.2730   46.9920 H   0  0  0  0  0  0  0  0  0  0  0  0
   62.4929   33.7681   48.2460 H   0  0  0  0  0  0  0  0  0  0  0  0
   64.0706   34.7738   46.9827 H   0  0  0  0  0  0  0  0  0  0  0  0
   64.0124   33.5015   45.7159 H   0  0  0  0  0  0  0  0  0  0  0  0
   62.7981   34.8252   45.7159 H   0  0  0  0  0  0  0  0  0  0  0  0
   63.0982   31.6086   48.4153 H   0  0  0  0  0  0  0  0  0  0  0  0
   62.2909   31.1987   46.8639 H   0  0  0  0  0  0  0  0  0  0  0  0
   63.9826   31.8025   46.8639 H   0  0  0  0  0  0  0  0  0  0  0  0
   60.8680   35.4958   46.2025 H   0  0  0  0  0  0  0  0  0  0  0  0
   59.4121   29.9329   44.5718 H   0  0  0  0  0  0  0  0  0  0  0  0
   60.3906   29.3675   46.0045 H   0  0  0  0  0  0  0  0  0  0  0  0
   58.0018   27.8809   44.8411 H   0  0  0  0  0  0  0  0  0  0  0  0
   59.7696   27.5454   44.4785 H   0  0  0  0  0  0  0  0  0  0  0  0
  1  2  1  0
  2  3  2  0
  3  4  1  0
  4  5  1  0
  5  6  1  0
  6  7  1  0
  7  8  1  0
  8  9  1  0
  9 10  1  0
 10 11  1  0
 11 12  1  0
 12 13  2  0
 13 14  1  0
 14 15  1  0
 15 16  1  0
 15 17  1  0
 14 18  2  0
 18 19  1  0
 10 20  1  0
 20 21  1  0
  4 22  2  0
 22 23  1  0
 23  2  1  0
 21  6  1  0
 19 12  1  0
  1 24  1  0
  1 25  1  0
  1 26  1  0
  5 27  1  0
  5 28  1  0
  7 29  1  0
  7 30  1  0
  8 31  1  0
  8 32  1  0
  9 33  1  0
  9 34  1  0
 11 35  1  0
 11 36  1  0
 13 37  1  0
 15 38  1  0
 16 39  1  0
 16 40  1  0
 16 41  1  0
 17 42  1  0
 17 43  1  0
 17 44  1  0
 18 45  1  0
 20 46  1  0
 20 47  1  0
 21 48  1  0
 21 49  1  0
M  CHG  1  13   1
M  END
>  <UniqueID>  (16) 
14

>  <SMILES>  (16) 
Cc1nc(CN2CCCN(Cc3[nH+]c(C(C)C)cs3)CC2)no1

>  <Energy>  (16) 
122.06290298403619

>  <Genealogy>  (16) 
Cc1nc(CN2CCCN(Cc3[nH+]c(C(C)C)cs3)CC2)no1 (protonated)
Cc1nc(CN2CCCN(Cc3[nH+]c(C(C)C)cs3)CC2)no1 (3D coordinates assigned)
Cc1nc(CN2CCCN(Cc3[nH+]c(C(C)C)cs3)CC2)no1 (nonaromatic ring conformer: 122.06290298403619 kcal/mol)

>  <smiles>  (16) 
Cc1nc(CN2CCCN(Cc3nc(C(C)C)cs3)CC2)no1

>  <score_type>  (16) 
oracle

>  <origin>  (16) 
adg

>  <m_score__min__energy>  (16) 
-4.5499999999999998

>  <m_primary>  (16) 
energy

$$$$
16:0
     RDKit          3D

 37 38  0  0  0  0  0  0  0  0999 V2000
   59.3414   28.2516   44.7973 H   0  0  0  0  0  0  0  0  0  0  0  0
   58.4570   28.4550   45.4190 C   0  0  0  0  0  0  0  0  0  0  0  0
   58.2320   29.6670   45.8300 N   0  0  0  0  0  0  0  0  0  0  0  0
   59.2030   30.5860   46.3620 C   0  0  0  0  0  0  0  0  0  0  0  0
   59.1450   31.9350   45.9690 C   0  0  0  0  0  0  0  0  0  0  0  0
   58.1240   32.3860   45.0640 N   0  0  0  0  0  0  0  0  0  0  0  0
   58.1400   31.9270   43.6720 C   0  0  0  0  0  0  0  0  0  0  0  0
   59.0891   31.4081   43.4722 H   0  0  0  0  0  0  0  0  0  0  0  0
   58.0386   32.7979   43.0077 H   0  0  0  0  0  0  0  0  0  0  0  0
   56.9810   30.9710   43.4150 C   0  0  0  0  0  0  0  0  0  0  0  0
   56.5673   30.6298   44.3754 H   0  0  0  0  0  0  0  0  0  0  0  0
   56.1981   31.4895   42.8421 H   0  0  0  0  0  0  0  0  0  0  0  0
   57.3411   30.1038   42.8421 H   0  0  0  0  0  0  0  0  0  0  0  0
   57.0030   33.1850   45.5730 C   0  0  0  0  0  0  0  0  0  0  0  0
   56.0577   32.6723   45.3416 H   0  0  0  0  0  0  0  0  0  0  0  0
   57.1125   33.3017   46.6613 H   0  0  0  0  0  0  0  0  0  0  0  0
   56.9980   34.5650   44.9250 C   0  0  0  0  0  0  0  0  0  0  0  0
   56.9952   35.3377   45.7079 H   0  0  0  0  0  0  0  0  0  0  0  0
   57.8957   34.6797   44.2998 H   0  0  0  0  0  0  0  0  0  0  0  0
   56.0995   34.6732   44.2998 H   0  0  0  0  0  0  0  0  0  0  0  0
   60.0960   32.8410   46.4520 C   0  0  0  0  0  0  0  0  0  0  0  0
   60.0684   33.8939   46.1349 H   0  0  0  0  0  0  0  0  0  0  0  0
   61.0780   32.4010   47.3370 C   0  0  0  0  0  0  0  0  0  0  0  0
   61.8288   33.1084   47.7189 H   0  0  0  0  0  0  0  0  0  0  0  0
   61.1110   31.1000   47.7300 N   0  0  0  0  0  0  0  0  0  0  0  0
   61.8470   30.7900   48.4040 H   0  0  0  0  0  0  0  0  0  0  0  0
   60.2060   30.1930   47.2710 C   0  0  0  0  0  0  0  0  0  0  0  0
   60.2576   29.1482   47.6111 H   0  0  0  0  0  0  0  0  0  0  0  0
   57.5420   27.3380   45.7730 C   0  0  0  0  0  0  0  0  0  0  0  0
   56.1380   27.4330   45.6460 C   0  0  0  0  0  0  0  0  0  0  0  0
   55.5310   28.5920   45.1760 O   0  0  0  0  0  0  0  0  0  0  0  0
   55.3530   26.3790   45.9840 N   0  0  0  0  0  0  0  0  0  0  0  0
   55.8880   25.2210   46.4460 C   0  0  0  0  0  0  0  0  0  0  0  0
   55.1370   24.2590   46.7530 O   0  0  0  0  0  0  0  0  0  0  0  0
   57.2320   25.1000   46.5780 N   0  0  0  0  0  0  0  0  0  0  0  0
   58.0660   26.1220   46.2550 C   0  0  0  0  0  0  0  0  0  0  0  0
   59.3080   25.9640   46.3950 O   0  0  0  0  0  0  0  0  0  0  0  0
  1  2  1  0
  2  3  2  0
  3  4  1  0
  4  5  2  0
  5  6  1  0
  6  7  1  0
  7  8  1  0
  7  9  1  0
  7 10  1  0
 10 11  1  0
 10 12  1  0
 10 13  1  0
  6 14  1  0
 14 15  1  0
 14 16  1  0
 14 17  1  0
 17 18  1  0
 17 19  1  0
 17 20  1  0
  5 21  1  0
 21 22  1  0
 21 23  2  0
 23 24  1  0
 23 25  1  0
 25 26  1  0
 25 27  2  0
 27 28  1  0
  2 29  1  0
 29 30  2  0
 30 31  1  0
 30 32  1  0
 32 33  1  0
 33 34  2  0
 33 35  1  0
 35 36  1  0
 36 37  2  0
 27  4  1  0
 36 29  1  0
M  CHG  4  25   1  31  -1  32  -1  35  -1
M  END
>  <UniqueID>  (17) 
15

>  <SMILES>  (17) 
CCN(CC)c1cc[nH+]cc1/N=C/c1c([O-])[n-]c(=O)[n-]c1=O

>  <Energy>  (17) 
41.235586694872694

>  <Genealogy>  (17) 
CCN(CC)c1cc[nH+]cc1N=Cc1c([O-])[n-]c(=O)[n-]c1=O (protonated)
CCN(CC)c1cc[nH+]cc1/N=C/c1c([O-])[n-]c(=O)[n-]c1=O (cis-trans isomerization)
CCN(CC)c1cc[nH+]cc1/N=C/c1c([O-])[n-]c(=O)[n-]c1=O (3D coordinates assigned)
CCN(CC)c1cc[nH+]cc1/N=C/c1c([O-])[n-]c(=O)[n-]c1=O (optimized conformer: 41.235586694872694 kcal/mol)

>  <smiles>  (17) 
CCN(CC)c1ccncc1N=Cc1c(O)[nH]c(=O)[nH]c1=O

>  <score_type>  (17) 
oracle

>  <origin>  (17) 
adg

>  <m_score__min__energy>  (17) 
-12.44

>  <m_primary>  (17) 
energy

$$$$
17:0
     RDKit          3D

 57 60  0  0  0  0  0  0  0  0999 V2000
   55.2660   22.6840   46.9910 C   0  0  0  0  0  0  0  0  0  0  0  0
   56.6360   22.3640   47.5030 C   0  0  0  0  0  0  0  0  0  0  0  0
   57.0690   22.9650   48.5220 O   0  0  0  0  0  0  0  0  0  0  0  0
   57.4610   21.3690   46.8850 N   0  0  0  0  0  0  0  0  0  0  0  0
   57.1250   20.6160   45.6780 C   0  0  0  0  0  0  0  0  0  0  0  0
   57.5280   21.3860   44.4110 C   0  0  2  0  0  0  0  0  0  0  0  0
   58.2330   22.7370   44.7270 C   0  0  0  0  0  0  0  0  0  0  0  0
   57.3500   23.7670   44.1880 N   0  0  0  0  0  0  0  0  0  0  0  0
   57.5060   25.1860   44.3800 C   0  0  0  0  0  0  0  0  0  0  0  0
   57.7660   26.0360   43.2910 C   0  0  0  0  0  0  0  0  0  0  0  0
   57.9010   27.4140   43.4840 C   0  0  0  0  0  0  0  0  0  0  0  0
   57.7740   27.9670   44.7670 C   0  0  0  0  0  0  0  0  0  0  0  0
   57.9120   29.3860   44.9650 N   0  0  0  0  0  0  0  0  0  0  0  0
   57.1820   30.3270   44.1060 C   0  0  0  0  0  0  0  0  0  0  0  0
   58.0320   31.5730   43.8470 C   0  0  0  0  0  0  0  0  0  0  0  0
   58.5910   32.0760   45.1070 N   0  0  0  0  0  0  0  0  0  0  0  0
   58.7500   33.4940   45.2850 C   0  0  0  0  0  0  0  0  0  0  0  0
   59.0850   34.2060   44.3000 O   0  0  0  0  0  0  0  0  0  0  0  0
   58.5410   34.1150   46.6130 C   0  0  0  0  0  0  0  0  0  0  0  0
   59.5110   34.3940   47.5000 C   0  0  0  0  0  0  0  0  0  0  0  0
   60.8980   33.8960   47.4430 C   0  0  0  0  0  0  0  0  0  0  0  0
   61.4790   32.9490   48.2670 C   0  0  0  0  0  0  0  0  0  0  0  0
   62.7590   32.7720   47.7880 C   0  0  0  0  0  0  0  0  0  0  0  0
   62.8790   33.6090   46.6990 C   0  0  0  0  0  0  0  0  0  0  0  0
   61.7520   34.2580   46.5140 O   0  0  0  0  0  0  0  0  0  0  0  0
   59.3330   31.1260   45.9440 C   0  0  0  0  0  0  0  0  0  0  0  0
   58.4700   29.8970   46.2220 C   0  0  0  0  0  0  0  0  0  0  0  0
   57.5070   27.1220   45.8550 C   0  0  0  0  0  0  0  0  0  0  0  0
   57.4130   27.6280   47.1120 F   0  0  0  0  0  0  0  0  0  0  0  0
   57.3660   25.7450   45.6610 C   0  0  0  0  0  0  0  0  0  0  0  0
   56.2900   23.0970   43.5310 C   0  0  0  0  0  0  0  0  0  0  0  0
   55.3930   23.6760   42.8630 O   0  0  0  0  0  0  0  0  0  0  0  0
   56.3780   21.7300   43.6450 O   0  0  0  0  0  0  0  0  0  0  0  0
   54.5851   22.8430   47.8402 H   0  0  0  0  0  0  0  0  0  0  0  0
   55.3074   23.5966   46.3783 H   0  0  0  0  0  0  0  0  0  0  0  0
   54.8989   21.8474   46.3783 H   0  0  0  0  0  0  0  0  0  0  0  0
   57.6564   19.6530   45.6966 H   0  0  0  0  0  0  0  0  0  0  0  0
   56.0365   20.4588   45.6579 H   0  0  0  0  0  0  0  0  0  0  0  0
   58.2098   20.7135   43.8698 H   0  0  0  0  0  0  0  0  0  0  0  0
   58.3548   22.8634   45.8129 H   0  0  0  0  0  0  0  0  0  0  0  0
   59.2395   22.7876   44.2861 H   0  0  0  0  0  0  0  0  0  0  0  0
   57.8639   25.6139   42.2799 H   0  0  0  0  0  0  0  0  0  0  0  0
   58.1081   28.0687   42.6246 H   0  0  0  0  0  0  0  0  0  0  0  0
   56.9500   29.8395   43.1476 H   0  0  0  0  0  0  0  0  0  0  0  0
   56.2509   30.6255   44.6099 H   0  0  0  0  0  0  0  0  0  0  0  0
   58.8534   31.3165   43.1618 H   0  0  0  0  0  0  0  0  0  0  0  0
   57.3987   32.3527   43.3987 H   0  0  0  0  0  0  0  0  0  0  0  0
   57.5087   34.3683   46.8961 H   0  0  0  0  0  0  0  0  0  0  0  0
   59.2476   35.0511   48.3420 H   0  0  0  0  0  0  0  0  0  0  0  0
   61.0155   32.4423   49.1263 H   0  0  0  0  0  0  0  0  0  0  0  0
   63.5292   32.0990   48.1927 H   0  0  0  0  0  0  0  0  0  0  0  0
   63.7814   33.7169   46.0793 H   0  0  0  0  0  0  0  0  0  0  0  0
   60.2501   30.8174   45.4208 H   0  0  0  0  0  0  0  0  0  0  0  0
   59.5944   31.6091   46.8970 H   0  0  0  0  0  0  0  0  0  0  0  0
   59.0867   29.1165   46.6916 H   0  0  0  0  0  0  0  0  0  0  0  0
   57.6476   30.1762   46.8971 H   0  0  0  0  0  0  0  0  0  0  0  0
   57.1435   25.0935   46.5189 H   0  0  0  0  0  0  0  0  0  0  0  0
  1  2  1  0
  2  3  2  0
  2  4  1  0
  4  5  1  0
  5  6  1  0
  6  7  1  0
  7  8  1  0
  8  9  1  0
  9 10  2  0
 10 11  1  0
 11 12  2  0
 12 13  1  0
 13 14  1  0
 14 15  1  0
 15 16  1  0
 16 17  1  0
 17 18  2  0
 17 19  1  0
 19 20  2  3
 20 21  1  0
 21 22  2  0
 22 23  1  0
 23 24  2  0
 24 25  1  0
 16 26  1  0
 26 27  1  0
 12 28  1  0
 28 29  1  0
 28 30  2  0
  8 31  1  0
 31 32  2  0
 31 33  1  0
 33  6  1  0
 30  9  1  0
 27 13  1  0
 25 21  1  0
  1 34  1  0
  1 35  1  0
  1 36  1  0
  5 37  1  0
  5 38  1  0
  6 39  1  6
  7 40  1  0
  7 41  1  0
 10 42  1  0
 11 43  1  0
 14 44  1  0
 14 45  1  0
 15 46  1  0
 15 47  1  0
 19 48  1  0
 20 49  1  0
 22 50  1  0
 23 51  1  0
 24 52  1  0
 26 53  1  0
 26 54  1  0
 27 55  1  0
 27 56  1  0
 30 57  1  0
M  CHG  1   4  -1
M  END
>  <UniqueID>  (18) 
16

>  <SMILES>  (18) 
CC(=O)[N-]C[C@@H]1CN(c2ccc(N3CCN(C(=O)C=Cc4ccco4)CC3)c(F)c2)C(=O)O1

>  <Energy>  (18) 
114.69584825275734

>  <Genealogy>  (18) 
CC(=O)[N-]CC1CN(c2ccc(N3CCN(C(=O)C=Cc4ccco4)CC3)c(F)c2)C(=O)O1 (protonated)
CC(=O)[N-]C[C@@H]1CN(c2ccc(N3CCN(C(=O)C=Cc4ccco4)CC3)c(F)c2)C(=O)O1 (chirality)
CC(=O)[N-]C[C@@H]1CN(c2ccc(N3CCN(C(=O)C=Cc4ccco4)CC3)c(F)c2)C(=O)O1 (3D coordinates assigned)
CC(=O)[N-]C[C@@H]1CN(c2ccc(N3CCN(C(=O)C=Cc4ccco4)CC3)c(F)c2)C(=O)O1 (nonaromatic ring conformer: 114.69584825275734 kcal/mol)

>  <smiles>  (18) 
CC(=O)NCC1CN(c2ccc(N3CCN(C(=O)C=Cc4ccco4)CC3)c(F)c2)C(=O)O1

>  <score_type>  (18) 
oracle

>  <origin>  (18) 
adg

>  <m_score__min__energy>  (18) 
-10.140000000000001

>  <m_primary>  (18) 
energy

$$$$
18:0
     RDKit          3D

 36 37  0  0  0  0  0  0  0  0999 V2000
   56.4150   29.7870   43.2190 C   0  0  0  0  0  0  0  0  0  0  0  0
   56.3770   30.4110   44.4980 O   0  0  0  0  0  0  0  0  0  0  0  0
   57.1860   31.4950   44.8740 C   0  0  0  0  0  0  0  0  0  0  0  0
   57.3980   32.6050   44.0360 C   0  0  0  0  0  0  0  0  0  0  0  0
   58.2140   33.6600   44.4570 C   0  0  0  0  0  0  0  0  0  0  0  0
   58.8340   33.6210   45.7210 C   0  0  0  0  0  0  0  0  0  0  0  0
   59.6680   34.6470   46.1930 O   0  0  0  0  0  0  0  0  0  0  0  0
   59.8910   34.9690   47.5670 C   0  0  0  0  0  0  0  0  0  0  0  0
   61.0550   34.1590   48.1720 C   0  0  0  0  0  0  0  0  0  0  0  0
   61.7550   33.3200   47.1620 N   0  0  0  0  0  0  0  0  0  0  0  0
   63.0940   33.8430   46.8310 C   0  0  0  0  0  0  0  0  0  0  0  0
   64.1050   33.1530   47.7400 C   0  0  0  0  0  0  0  0  0  0  0  0
   63.3620   31.9890   48.3680 C   0  0  0  0  0  0  0  0  0  0  0  0
   62.0110   31.9640   47.6740 C   0  0  0  0  0  0  0  0  0  0  0  0
   58.6150   32.5150   46.5500 C   0  0  0  0  0  0  0  0  0  0  0  0
   57.8000   31.4610   46.1310 C   0  0  0  0  0  0  0  0  0  0  0  0
   56.4814   28.6963   43.3450 H   0  0  0  0  0  0  0  0  0  0  0  0
   55.5000   30.0367   42.6619 H   0  0  0  0  0  0  0  0  0  0  0  0
   57.2930   30.1459   42.6619 H   0  0  0  0  0  0  0  0  0  0  0  0
   56.9202   32.6433   43.0459 H   0  0  0  0  0  0  0  0  0  0  0  0
   58.3725   34.5255   43.7969 H   0  0  0  0  0  0  0  0  0  0  0  0
   60.1260   36.0407   47.6463 H   0  0  0  0  0  0  0  0  0  0  0  0
   58.9775   34.7177   48.1259 H   0  0  0  0  0  0  0  0  0  0  0  0
   61.7803   34.8594   48.6117 H   0  0  0  0  0  0  0  0  0  0  0  0
   60.6318   33.4836   48.9301 H   0  0  0  0  0  0  0  0  0  0  0  0
   61.1750   33.2460   46.2920 H   0  0  0  0  0  0  0  0  0  0  0  0
   63.3297   33.6273   45.7784 H   0  0  0  0  0  0  0  0  0  0  0  0
   63.1270   34.9325   46.9790 H   0  0  0  0  0  0  0  0  0  0  0  0
   64.9626   32.7900   47.1545 H   0  0  0  0  0  0  0  0  0  0  0  0
   64.5028   33.8400   48.5014 H   0  0  0  0  0  0  0  0  0  0  0  0
   63.9028   31.0468   48.1952 H   0  0  0  0  0  0  0  0  0  0  0  0
   63.2644   32.1011   49.4579 H   0  0  0  0  0  0  0  0  0  0  0  0
   62.0289   31.2449   46.8418 H   0  0  0  0  0  0  0  0  0  0  0  0
   61.2200   31.6570   48.3740 H   0  0  0  0  0  0  0  0  0  0  0  0
   59.0895   32.4754   47.5416 H   0  0  0  0  0  0  0  0  0  0  0  0
   57.6396   30.5979   46.7939 H   0  0  0  0  0  0  0  0  0  0  0  0
  1  2  1  0
  2  3  1  0
  3  4  2  0
  4  5  1  0
  5  6  2  0
  6  7  1  0
  7  8  1  0
  8  9  1  0
  9 10  1  0
 10 11  1  0
 11 12  1  0
 12 13  1  0
 13 14  1  0
  6 15  1  0
 15 16  2  0
 16  3  1  0
 14 10  1  0
  1 17  1  0
  1 18  1  0
  1 19  1  0
  4 20  1  0
  5 21  1  0
  8 22  1  0
  8 23  1  0
  9 24  1  0
  9 25  1  0
 10 26  1  0
 11 27  1  0
 11 28  1  0
 12 29  1  0
 12 30  1  0
 13 31  1  0
 13 32  1  0
 14 33  1  0
 14 34  1  0
 15 35  1  0
 16 36  1  0
M  CHG  1  10   1
M  END
>  <UniqueID>  (19) 
17

>  <SMILES>  (19) 
COc1ccc(OCC[NH+]2CCCC2)cc1

>  <Energy>  (19) 
38.78597180500728

>  <Genealogy>  (19) 
COc1ccc(OCC[NH+]2CCCC2)cc1 (protonated)
COc1ccc(OCC[NH+]2CCCC2)cc1 (3D coordinates assigned)
COc1ccc(OCC[NH+]2CCCC2)cc1 (nonaromatic ring conformer: 38.78597180500728 kcal/mol)

>  <smiles>  (19) 
COc1ccc(OCCN2CCCC2)cc1

>  <score_type>  (19) 
oracle

>  <origin>  (19) 
adg

>  <m_score__min__energy>  (19) 
-3.6499999999999999

>  <m_primary>  (19) 
energy

$$$$
19:0
     RDKit          3D

 36 37  0  0  0  0  0  0  0  0999 V2000
   59.1740   30.6760   49.0390 C   0  0  0  0  0  0  0  0  0  0  0  0
   60.4510   31.2800   48.5180 C   0  0  0  0  0  0  0  0  0  0  0  0
   61.6290   31.1680   49.2770 C   0  0  0  0  0  0  0  0  0  0  0  0
   62.8310   31.6980   48.8010 C   0  0  0  0  0  0  0  0  0  0  0  0
   62.8730   32.3340   47.5590 C   0  0  0  0  0  0  0  0  0  0  0  0
   61.7150   32.4420   46.7880 C   0  0  0  0  0  0  0  0  0  0  0  0
   60.4980   31.9240   47.2580 C   0  0  0  0  0  0  0  0  0  0  0  0
   59.2930   32.0400   46.4070 C   0  0  0  0  0  0  0  0  0  0  0  0
   58.6880   30.8640   45.9510 C   0  0  0  0  0  0  0  0  0  0  0  0
   57.5330   30.9320   45.1650 C   0  0  0  0  0  0  0  0  0  0  0  0
   56.8740   29.7050   44.6680 C   0  0  0  0  0  0  0  0  0  0  0  0
   57.3920   29.0050   43.5350 N   0  0  0  0  0  0  0  0  0  0  0  0
   55.8430   29.2620   45.2420 O   0  0  0  0  0  0  0  0  0  0  0  0
   57.0090   32.1470   44.8600 N   0  0  0  0  0  0  0  0  0  0  0  0
   57.5580   33.3180   45.2830 C   0  0  0  0  0  0  0  0  0  0  0  0
   56.8770   34.5960   44.8850 C   0  0  0  0  0  0  0  0  0  0  0  0
   58.7420   33.2980   46.0600 C   0  0  0  0  0  0  0  0  0  0  0  0
   59.3660   34.5810   46.5810 C   0  0  0  0  0  0  0  0  0  0  0  0
   59.2170   34.6570   48.0300 N   0  0  0  0  0  0  0  0  0  0  0  0
   59.1874   30.6824   50.1389 H   0  0  0  0  0  0  0  0  0  0  0  0
   58.3168   31.2641   48.6794 H   0  0  0  0  0  0  0  0  0  0  0  0
   59.0848   29.6403   48.6794 H   0  0  0  0  0  0  0  0  0  0  0  0
   61.6043   30.6597   50.2522 H   0  0  0  0  0  0  0  0  0  0  0  0
   63.7458   31.6140   49.4060 H   0  0  0  0  0  0  0  0  0  0  0  0
   63.8208   32.7508   47.1874 H   0  0  0  0  0  0  0  0  0  0  0  0
   61.7561   32.9360   45.8060 H   0  0  0  0  0  0  0  0  0  0  0  0
   59.1203   29.8864   46.2104 H   0  0  0  0  0  0  0  0  0  0  0  0
   56.9180   28.1390   43.1920 H   0  0  0  0  0  0  0  0  0  0  0  0
   58.2440   29.3380   43.0310 H   0  0  0  0  0  0  0  0  0  0  0  0
   56.5815   35.1506   45.7878 H   0  0  0  0  0  0  0  0  0  0  0  0
   57.5680   35.2091   44.2878 H   0  0  0  0  0  0  0  0  0  0  0  0
   55.9827   34.3644   44.2878 H   0  0  0  0  0  0  0  0  0  0  0  0
   60.4354   34.5964   46.3237 H   0  0  0  0  0  0  0  0  0  0  0  0
   58.8585   35.4416   46.1207 H   0  0  0  0  0  0  0  0  0  0  0  0
   60.1600   34.5040   48.4560 H   0  0  0  0  0  0  0  0  0  0  0  0
   58.9310   35.6310   48.2800 H   0  0  0  0  0  0  0  0  0  0  0  0
  1  2  1  0
  2  3  2  0
  3  4  1  0
  4  5  2  0
  5  6  1  0
  6  7  2  0
  7  8  1  0
  8  9  2  0
  9 10  1  0
 10 11  1  0
 11 12  1  0
 11 13  2  0
 10 14  2  0
 14 15  1  0
 15 16  1  0
 15 17  2  0
 17 18  1  0
 18 19  1  0
  7  2  1  0
 17  8  1  0
  1 20  1  0
  1 21  1  0
  1 22  1  0
  3 23  1  0
  4 24  1  0
  5 25  1  0
  6 26  1  0
  9 27  1  0
 12 28  1  0
 12 29  1  0
 16 30  1  0
 16 31  1  0
 16 32  1  0
 18 33  1  0
 18 34  1  0
 19 35  1  0
 19 36  1  0
M  END
>  <UniqueID>  (20) 
18

>  <SMILES>  (20) 
Cc1ccccc1-c1cc(C(N)=O)nc(C)c1CN

>  <Energy>  (20) 
42.973001472115236

>  <Genealogy>  (20) 
Cc1ccccc1-c1cc(C(N)=O)nc(C)c1CN (3D coordinates assigned)
Cc1ccccc1-c1cc(C(N)=O)nc(C)c1CN (optimized conformer: 42.973001472115236 kcal/mol)

>  <smiles>  (20) 
Cc1ccccc1-c1cc(C(N)=O)nc(C)c1CN

>  <score_type>  (20) 
oracle

>  <origin>  (20) 
adg

>  <m_score__min__energy>  (20) 
-7.3200000000000003

>  <m_primary>  (20) 
energy

$$$$
20:0
     RDKit          3D

 34 35  0  0  0  0  0  0  0  0999 V2000
   57.0970   31.2860   42.4170 O   0  0  0  0  0  0  0  0  0  0  0  0
   56.6600   30.8930   43.5330 C   0  0  0  0  0  0  0  0  0  0  0  0
   55.7300   29.7180   43.5830 C   0  0  0  0  0  0  0  0  0  0  0  0
   55.7400   29.1210   44.8790 O   0  0  0  0  0  0  0  0  0  0  0  0
   56.6770   28.1610   45.2760 C   0  0  0  0  0  0  0  0  0  0  0  0
   56.3390   27.1980   46.0190 O   0  0  0  0  0  0  0  0  0  0  0  0
   58.0850   28.2660   44.7920 C   0  0  0  0  0  0  0  0  0  0  0  0
   58.9490   28.8840   45.8450 C   0  0  0  0  0  0  0  0  0  0  0  0
   60.0870   29.6500   45.6190 C   0  0  0  0  0  0  0  0  0  0  0  0
   60.6740   30.1220   46.7990 C   0  0  0  0  0  0  0  0  0  0  0  0
   59.9960   29.7400   47.9510 C   0  0  0  0  0  0  0  0  0  0  0  0
   58.6610   28.8210   47.5000 S   0  0  0  0  0  0  0  0  0  0  0  0
   57.0420   31.5560   44.7470 N   0  0  0  0  0  0  0  0  0  0  0  0
   57.8860   32.7200   44.7850 C   0  0  0  0  0  0  0  0  0  0  0  0
   58.0530   33.4100   43.7420 O   0  0  0  0  0  0  0  0  0  0  0  0
   58.5490   33.1400   46.0440 C   0  0  0  0  0  0  0  0  0  0  0  0
   58.1490   32.6070   47.2850 C   0  0  0  0  0  0  0  0  0  0  0  0
   58.7900   32.9990   48.4630 C   0  0  0  0  0  0  0  0  0  0  0  0
   59.8370   33.9210   48.4180 C   0  0  0  0  0  0  0  0  0  0  0  0
   60.2510   34.4500   47.1930 C   0  0  0  0  0  0  0  0  0  0  0  0
   59.6150   34.0590   46.0110 C   0  0  0  0  0  0  0  0  0  0  0  0
   54.7095   30.0551   43.3487 H   0  0  0  0  0  0  0  0  0  0  0  0
   56.0639   28.9714   42.8474 H   0  0  0  0  0  0  0  0  0  0  0  0
   58.4637   27.2607   44.5553 H   0  0  0  0  0  0  0  0  0  0  0  0
   58.1087   28.8981   43.8920 H   0  0  0  0  0  0  0  0  0  0  0  0
   60.4852   29.8633   44.6160 H   0  0  0  0  0  0  0  0  0  0  0  0
   61.5858   30.7372   46.8133 H   0  0  0  0  0  0  0  0  0  0  0  0
   60.2834   29.9951   48.9817 H   0  0  0  0  0  0  0  0  0  0  0  0
   56.6680   31.1770   45.6450 H   0  0  0  0  0  0  0  0  0  0  0  0
   57.3268   31.8775   47.3270 H   0  0  0  0  0  0  0  0  0  0  0  0
   58.4688   32.5801   49.4281 H   0  0  0  0  0  0  0  0  0  0  0  0
   60.3365   34.2313   49.3476 H   0  0  0  0  0  0  0  0  0  0  0  0
   61.0779   35.1746   47.1585 H   0  0  0  0  0  0  0  0  0  0  0  0
   59.9499   34.4724   45.0482 H   0  0  0  0  0  0  0  0  0  0  0  0
  1  2  2  0
  2  3  1  0
  3  4  1  0
  4  5  1  0
  5  6  2  0
  5  7  1  0
  7  8  1  0
  8  9  2  0
  9 10  1  0
 10 11  2  0
 11 12  1  0
  2 13  1  0
 13 14  1  0
 14 15  2  0
 14 16  1  0
 16 17  2  0
 17 18  1  0
 18 19  2  0
 19 20  1  0
 20 21  2  0
 12  8  1  0
 21 16  1  0
  3 22  1  0
  3 23  1  0
  7 24  1  0
  7 25  1  0
  9 26  1  0
 10 27  1  0
 11 28  1  0
 13 29  1  0
 17 30  1  0
 18 31  1  0
 19 32  1  0
 20 33  1  0
 21 34  1  0
M  END
>  <UniqueID>  (21) 
19

>  <SMILES>  (21) 
O=C(COC(=O)Cc1cccs1)NC(=O)c1ccccc1

>  <Energy>  (21) 
55.000285387405114

>  <Genealogy>  (21) 
O=C(COC(=O)Cc1cccs1)NC(=O)c1ccccc1 (3D coordinates assigned)
O=C(COC(=O)Cc1cccs1)NC(=O)c1ccccc1 (optimized conformer: 55.000285387405114 kcal/mol)

>  <smiles>  (21) 
O=C(COC(=O)Cc1cccs1)NC(=O)c1ccccc1

>  <score_type>  (21) 
oracle

>  <origin>  (21) 
adg

>  <m_score__min__energy>  (21) 
-7.7699999999999996

>  <m_primary>  (21) 
energy

$$$$
21:0
     RDKit          3D

 34 36  0  0  0  0  0  0  0  0999 V2000
   55.8870   19.5810   44.1220 C   0  0  0  0  0  0  0  0  0  0  0  0
   56.2790   20.6340   43.2470 O   0  0  0  0  0  0  0  0  0  0  0  0
   56.6710   21.9110   43.6710 C   0  0  0  0  0  0  0  0  0  0  0  0
   55.9590   23.0190   43.1960 C   0  0  0  0  0  0  0  0  0  0  0  0
   56.3100   24.3130   43.5910 C   0  0  0  0  0  0  0  0  0  0  0  0
   57.3840   24.5170   44.4700 C   0  0  0  0  0  0  0  0  0  0  0  0
   57.7590   25.8760   44.8880 C   0  0  0  0  0  0  0  0  0  0  0  0
   57.3640   27.1490   44.5000 N   0  0  0  0  0  0  0  0  0  0  0  0
   58.1630   27.8530   45.3450 N   0  0  0  0  0  0  0  0  0  0  0  0
   58.3360   29.2660   45.5530 C   0  0  0  0  0  0  0  0  0  0  0  0
   59.5130   29.6310   46.1140 N   0  0  0  0  0  0  0  0  0  0  0  0
   60.0720   30.8070   46.4730 C   0  0  0  0  0  0  0  0  0  0  0  0
   61.4430   30.7490   47.0810 C   0  0  0  0  0  0  0  0  0  0  0  0
   59.4880   32.0610   46.3280 C   0  0  0  0  0  0  0  0  0  0  0  0
   58.2450   32.3840   45.8030 C   0  0  0  0  0  0  0  0  0  0  0  0
   57.9310   33.6020   45.7750 O   0  0  0  0  0  0  0  0  0  0  0  0
   57.3460   31.5020   45.3170 N   0  0  0  0  0  0  0  0  0  0  0  0
   57.3120   30.1580   45.1780 C   0  0  0  0  0  0  0  0  0  0  0  0
   56.2660   29.6800   44.6650 O   0  0  0  0  0  0  0  0  0  0  0  0
   58.7980   26.4810   45.9790 S   0  0  0  0  0  0  0  0  0  0  0  0
   58.1010   23.4110   44.9480 C   0  0  0  0  0  0  0  0  0  0  0  0
   57.7490   22.1170   44.5550 C   0  0  0  0  0  0  0  0  0  0  0  0
   56.0084   19.9071   45.1655 H   0  0  0  0  0  0  0  0  0  0  0  0
   54.8332   19.3246   43.9382 H   0  0  0  0  0  0  0  0  0  0  0  0
   56.5166   18.6980   43.9382 H   0  0  0  0  0  0  0  0  0  0  0  0
   55.1157   22.8698   42.5057 H   0  0  0  0  0  0  0  0  0  0  0  0
   55.7418   25.1748   43.2111 H   0  0  0  0  0  0  0  0  0  0  0  0
   56.6700   27.4590   43.7850 H   0  0  0  0  0  0  0  0  0  0  0  0
   61.3582   30.7526   48.1777 H   0  0  0  0  0  0  0  0  0  0  0  0
   61.9498   29.8286   46.7554 H   0  0  0  0  0  0  0  0  0  0  0  0
   62.0258   31.6233   46.7554 H   0  0  0  0  0  0  0  0  0  0  0  0
   60.0930   32.9110   46.6764 H   0  0  0  0  0  0  0  0  0  0  0  0
   58.9455   23.5628   45.6363 H   0  0  0  0  0  0  0  0  0  0  0  0
   58.3159   21.2554   44.9374 H   0  0  0  0  0  0  0  0  0  0  0  0
  1  2  1  0
  2  3  1  0
  3  4  2  0
  4  5  1  0
  5  6  2  0
  6  7  1  0
  7  8  2  0
  8  9  1  0
  9 10  1  0
 10 11  2  0
 11 12  1  0
 12 13  1  0
 12 14  2  0
 14 15  1  0
 15 16  2  0
 15 17  1  0
 17 18  1  0
 18 19  2  0
  9 20  1  0
  6 21  1  0
 21 22  2  0
 22  3  1  0
 20  7  1  0
 18 10  1  0
  1 23  1  0
  1 24  1  0
  1 25  1  0
  4 26  1  0
  5 27  1  0
  8 28  1  0
 13 29  1  0
 13 30  1  0
 13 31  1  0
 14 32  1  0
 21 33  1  0
 22 34  1  0
M  CHG  2   8   1  17  -1
M  END
>  <UniqueID>  (22) 
20

>  <SMILES>  (22) 
COc1ccc(-c2[nH+]n(-c3nc(C)cc(=O)[n-]c3=O)s2)cc1

>  <Energy>  (22) 
70.49387103878108

>  <Genealogy>  (22) 
COc1ccc(-c2[nH+]n(-c3nc(C)cc(=O)[n-]c3=O)s2)cc1 (protonated)
COc1ccc(-c2[nH+]n(-c3nc(C)cc(=O)[n-]c3=O)s2)cc1 (3D coordinates assigned)
COc1ccc(-c2[nH+]n(-c3nc(C)cc(=O)[n-]c3=O)s2)cc1 (optimized conformer: 70.49387103878108 kcal/mol)

>  <smiles>  (22) 
COc1ccc(-c2nn(-c3nc(C)cc(=O)[nH]c3=O)s2)cc1

>  <score_type>  (22) 
oracle

>  <origin>  (22) 
adg

>  <m_score__min__energy>  (22) 
-7.2199999999999998

>  <m_primary>  (22) 
energy

$$$$
22:0
     RDKit          3D

 34 35  0  0  0  0  0  0  0  0999 V2000
   60.3220   29.5230   46.9460 C   0  0  0  0  0  0  0  0  0  0  0  0
   59.6950   28.4830   46.0240 C   0  0  0  0  0  0  0  0  0  0  0  0
   58.7260   29.1180   45.1190 N   0  0  0  0  0  0  0  0  0  0  0  0
   58.6210   30.5830   45.0830 C   0  0  0  0  0  0  0  0  0  0  0  0
   57.2170   30.9930   44.8690 N   0  0  1  0  0  0  0  0  0  0  0  0
   57.0230   32.4590   45.0130 C   0  0  0  0  0  0  0  0  0  0  0  0
   58.0110   33.1260   45.9490 C   0  0  0  0  0  0  0  0  0  0  0  0
   58.8770   34.1250   45.4740 C   0  0  0  0  0  0  0  0  0  0  0  0
   59.7880   34.7410   46.3390 C   0  0  0  0  0  0  0  0  0  0  0  0
   59.8340   34.3700   47.6860 C   0  0  0  0  0  0  0  0  0  0  0  0
   60.7170   34.9680   48.5240 F   0  0  0  0  0  0  0  0  0  0  0  0
   58.9680   33.3850   48.1690 C   0  0  0  0  0  0  0  0  0  0  0  0
   58.0570   32.7670   47.3070 C   0  0  0  0  0  0  0  0  0  0  0  0
   56.7240   30.4840   43.5710 C   0  0  0  0  0  0  0  0  0  0  0  0
   56.8340   29.0280   43.5220 N   0  0  0  0  0  0  0  0  0  0  0  0
   57.8810   28.3570   44.2280 C   0  0  0  0  0  0  0  0  0  0  0  0
   58.0650   26.7360   44.0310 S   0  0  0  0  0  0  0  0  0  0  0  0
   60.1490   29.2360   47.9937 H   0  0  0  0  0  0  0  0  0  0  0  0
   61.4038   29.5779   46.7547 H   0  0  0  0  0  0  0  0  0  0  0  0
   59.8655   30.5054   46.7547 H   0  0  0  0  0  0  0  0  0  0  0  0
   60.4856   28.0025   45.4290 H   0  0  0  0  0  0  0  0  0  0  0  0
   59.1731   27.7323   46.6357 H   0  0  0  0  0  0  0  0  0  0  0  0
   58.9777   30.9957   46.0382 H   0  0  0  0  0  0  0  0  0  0  0  0
   59.2350   30.9649   44.2540 H   0  0  0  0  0  0  0  0  0  0  0  0
   56.6400   30.5460   45.6220 H   0  0  0  0  0  0  0  0  0  0  0  0
   57.1237   32.9198   44.0193 H   0  0  0  0  0  0  0  0  0  0  0  0
   56.0243   32.6049   45.4504 H   0  0  0  0  0  0  0  0  0  0  0  0
   58.8386   34.4246   44.4163 H   0  0  0  0  0  0  0  0  0  0  0  0
   60.4682   35.5175   45.9590 H   0  0  0  0  0  0  0  0  0  0  0  0
   59.0032   33.0954   49.2296 H   0  0  0  0  0  0  0  0  0  0  0  0
   57.3734   31.9966   47.6933 H   0  0  0  0  0  0  0  0  0  0  0  0
   55.6701   30.7727   43.4448 H   0  0  0  0  0  0  0  0  0  0  0  0
   57.3326   30.9160   42.7630 H   0  0  0  0  0  0  0  0  0  0  0  0
   56.2200   28.4960   42.8650 H   0  0  0  0  0  0  0  0  0  0  0  0
  1  2  1  0
  2  3  1  0
  3  4  1  0
  4  5  1  0
  5  6  1  0
  6  7  1  0
  7  8  2  0
  8  9  1  0
  9 10  2  0
 10 11  1  0
 10 12  1  0
 12 13  2  0
  5 14  1  0
 14 15  1  0
 15 16  1  0
 16 17  2  0
 16  3  1  0
 13  7  1  0
  1 18  1  0
  1 19  1  0
  1 20  1  0
  2 21  1  0
  2 22  1  0
  4 23  1  0
  4 24  1  0
  5 25  1  1
  6 26  1  0
  6 27  1  0
  8 28  1  0
  9 29  1  0
 12 30  1  0
 13 31  1  0
 14 32  1  0
 14 33  1  0
 15 34  1  0
M  CHG  1   5   1
M  END
>  <UniqueID>  (23) 
21

>  <SMILES>  (23) 
CCN1C[N@@H+](Cc2ccc(F)cc2)CNC1=S

>  <Energy>  (23) 
34.24556968887233

>  <Genealogy>  (23) 
CCN1C[NH+](Cc2ccc(F)cc2)CNC1=S (protonated)
CCN1C[N@@H+](Cc2ccc(F)cc2)CNC1=S (chirality)
CCN1C[N@@H+](Cc2ccc(F)cc2)CNC1=S (3D coordinates assigned)
CCN1C[N@@H+](Cc2ccc(F)cc2)CNC1=S (nonaromatic ring conformer: 34.24556968887233 kcal/mol)

>  <smiles>  (23) 
CCN1CN(Cc2ccc(F)cc2)CNC1=S

>  <score_type>  (23) 
oracle

>  <origin>  (23) 
adg

>  <m_score__min__energy>  (23) 
-4.5499999999999998

>  <m_primary>  (23) 
energy

$$$$
23:0
     RDKit          3D

 61 65  0  0  0  0  0  0  0  0999 V2000
   58.3780   27.1670   44.4850 C   0  0  0  0  0  0  0  0  0  0  0  0
   57.8000   27.7560   43.3560 C   0  0  0  0  0  0  0  0  0  0  0  0
   57.2040   29.0180   43.4510 C   0  0  0  0  0  0  0  0  0  0  0  0
   57.1840   29.7030   44.6830 C   0  0  0  0  0  0  0  0  0  0  0  0
   56.6010   30.9710   44.8350 O   0  0  0  0  0  0  0  0  0  0  0  0
   57.1880   32.2050   44.4180 C   0  0  0  0  0  0  0  0  0  0  0  0
   58.0610   32.7910   45.4970 C   0  0  0  0  0  0  0  0  0  0  0  0
   58.0970   32.2060   46.7720 C   0  0  0  0  0  0  0  0  0  0  0  0
   58.8650   32.7780   47.7880 C   0  0  0  0  0  0  0  0  0  0  0  0
   59.5880   33.9590   47.5590 C   0  0  0  0  0  0  0  0  0  0  0  0
   60.4020   34.5890   48.6740 C   0  0  0  0  0  0  0  0  0  0  0  0
   61.6250   33.8300   49.0530 N   0  0  2  0  0  0  0  0  0  0  0  0
   62.6240   34.6730   49.7430 C   0  0  0  0  0  0  0  0  0  0  0  0
   63.7570   33.8240   50.3540 C   0  0  0  0  0  0  0  0  0  0  0  0
   64.2350   32.6410   49.4380 C   0  0  2  0  0  0  0  0  0  0  0  0
   63.7290   32.8730   47.9920 C   0  0  0  0  0  0  0  0  0  0  0  0
   62.2010   33.0720   47.9060 C   0  0  0  0  0  0  0  0  0  0  0  0
   63.6920   31.2730   49.9420 C   0  0  0  0  0  0  0  0  0  0  0  0
   64.4070   30.7750   51.1680 C   0  0  0  0  0  0  0  0  0  0  0  0
   63.8130   29.7740   51.9530 C   0  0  0  0  0  0  0  0  0  0  0  0
   64.4910   29.2450   53.0550 C   0  0  0  0  0  0  0  0  0  0  0  0
   65.7720   29.7040   53.3720 C   0  0  0  0  0  0  0  0  0  0  0  0
   66.3770   30.6900   52.5900 C   0  0  0  0  0  0  0  0  0  0  0  0
   65.7070   31.2230   51.4760 C   0  0  0  0  0  0  0  0  0  0  0  0
   66.3500   32.3370   50.6970 C   0  0  0  0  0  0  0  0  0  0  0  0
   65.7130   32.5620   49.3880 N   0  0  0  0  0  0  0  0  0  0  0  0
   59.5680   34.5300   46.2750 C   0  0  0  0  0  0  0  0  0  0  0  0
   58.7980   33.9600   45.2570 C   0  0  0  0  0  0  0  0  0  0  0  0
   57.7680   29.1020   45.8070 C   0  0  0  0  0  0  0  0  0  0  0  0
   58.3630   27.8400   45.7100 C   0  0  0  0  0  0  0  0  0  0  0  0
   58.8446   26.1738   44.4090 H   0  0  0  0  0  0  0  0  0  0  0  0
   57.8140   27.2263   42.3920 H   0  0  0  0  0  0  0  0  0  0  0  0
   56.7492   29.4776   42.5611 H   0  0  0  0  0  0  0  0  0  0  0  0
   57.7993   32.0255   43.5213 H   0  0  0  0  0  0  0  0  0  0  0  0
   56.3785   32.9179   44.2025 H   0  0  0  0  0  0  0  0  0  0  0  0
   57.5175   31.2926   46.9719 H   0  0  0  0  0  0  0  0  0  0  0  0
   58.9038   32.2986   48.7773 H   0  0  0  0  0  0  0  0  0  0  0  0
   60.7089   35.5941   48.3491 H   0  0  0  0  0  0  0  0  0  0  0  0
   59.7549   34.6020   49.5634 H   0  0  0  0  0  0  0  0  0  0  0  0
   61.2950   33.1250   49.7550 H   0  0  0  0  0  0  0  0  0  0  0  0
   62.1243   35.2333   50.5469 H   0  0  0  0  0  0  0  0  0  0  0  0
   63.0665   35.3573   49.0041 H   0  0  0  0  0  0  0  0  0  0  0  0
   63.3988   33.4022   51.3047 H   0  0  0  0  0  0  0  0  0  0  0  0
   64.6202   34.4931   50.4855 H   0  0  0  0  0  0  0  0  0  0  0  0
   64.0025   31.9996   47.3818 H   0  0  0  0  0  0  0  0  0  0  0  0
   64.1997   33.7973   47.6258 H   0  0  0  0  0  0  0  0  0  0  0  0
   61.7242   32.0813   47.8711 H   0  0  0  0  0  0  0  0  0  0  0  0
   62.0069   33.6663   47.0009 H   0  0  0  0  0  0  0  0  0  0  0  0
   62.6240   31.3855   50.1800 H   0  0  0  0  0  0  0  0  0  0  0  0
   63.8578   30.5370   49.1415 H   0  0  0  0  0  0  0  0  0  0  0  0
   62.8086   29.4040   51.6995 H   0  0  0  0  0  0  0  0  0  0  0  0
   64.0164   28.4679   53.6722 H   0  0  0  0  0  0  0  0  0  0  0  0
   66.3051   29.2877   54.2395 H   0  0  0  0  0  0  0  0  0  0  0  0
   67.3835   31.0514   52.8475 H   0  0  0  0  0  0  0  0  0  0  0  0
   66.2794   33.2635   51.2858 H   0  0  0  0  0  0  0  0  0  0  0  0
   67.3953   32.0495   50.5108 H   0  0  0  0  0  0  0  0  0  0  0  0
   66.1000   33.4530   48.9990 H   0  0  0  0  0  0  0  0  0  0  0  0
   60.1627   35.4323   46.0695 H   0  0  0  0  0  0  0  0  0  0  0  0
   58.7700   34.4305   44.2631 H   0  0  0  0  0  0  0  0  0  0  0  0
   57.7582   29.6275   46.7733 H   0  0  0  0  0  0  0  0  0  0  0  0
   58.8191   27.3772   46.5976 H   0  0  0  0  0  0  0  0  0  0  0  0
  1  2  2  0
  2  3  1  0
  3  4  2  0
  4  5  1  0
  5  6  1  0
  6  7  1  0
  7  8  2  0
  8  9  1  0
  9 10  2  0
 10 11  1  0
 11 12  1  0
 12 13  1  0
 13 14  1  0
 14 15  1  0
 15 16  1  0
 16 17  1  0
 15 18  1  0
 18 19  1  0
 19 20  2  0
 20 21  1  0
 21 22  2  0
 22 23  1  0
 23 24  2  0
 24 25  1  0
 25 26  1  0
 10 27  1  0
 27 28  2  0
  4 29  1  0
 29 30  2  0
 30  1  1  0
 28  7  1  0
 17 12  1  0
 24 19  1  0
 15 26  1  6
  1 31  1  0
  2 32  1  0
  3 33  1  0
  6 34  1  0
  6 35  1  0
  8 36  1  0
  9 37  1  0
 11 38  1  0
 11 39  1  0
 12 40  1  1
 13 41  1  0
 13 42  1  0
 14 43  1  0
 14 44  1  0
 16 45  1  0
 16 46  1  0
 17 47  1  0
 17 48  1  0
 18 49  1  0
 18 50  1  0
 20 51  1  0
 21 52  1  0
 22 53  1  0
 23 54  1  0
 25 55  1  0
 25 56  1  0
 26 57  1  0
 27 58  1  0
 28 59  1  0
 29 60  1  0
 30 61  1  0
M  CHG  1  12   1
M  END
>  <UniqueID>  (24) 
22

>  <SMILES>  (24) 
c1ccc(OCc2ccc(C[NH+]3CCC4(CC3)Cc3ccccc3CN4)cc2)cc1

>  <Energy>  (24) 
84.86439081609333

>  <Genealogy>  (24) 
c1ccc(OCc2ccc(C[NH+]3CCC4(CC3)Cc3ccccc3CN4)cc2)cc1 (protonated)
c1ccc(OCc2ccc(C[NH+]3CCC4(CC3)Cc3ccccc3CN4)cc2)cc1 (3D coordinates assigned)
c1ccc(OCc2ccc(C[NH+]3CCC4(CC3)Cc3ccccc3CN4)cc2)cc1 (nonaromatic ring conformer: 84.86439081609333 kcal/mol)

>  <smiles>  (24) 
c1ccc(OCc2ccc(CN3CCC4(CC3)Cc3ccccc3CN4)cc2)cc1

>  <score_type>  (24) 
oracle

>  <origin>  (24) 
adg

>  <m_score__min__energy>  (24) 
-7.7300000000000004

>  <m_primary>  (24) 
energy

$$$$
24:0
     RDKit          3D

 39 40  0  0  0  0  0  0  0  0999 V2000
   58.1050   32.7000   43.5260 C   0  0  0  0  0  0  0  0  0  0  0  0
   57.3910   31.3710   43.3070 C   0  0  0  0  0  0  0  0  0  0  0  0
   56.8290   30.8970   44.5280 O   0  0  0  0  0  0  0  0  0  0  0  0
   56.3450   29.5950   44.7000 C   0  0  0  0  0  0  0  0  0  0  0  0
   55.1180   29.3430   44.5460 O   0  0  0  0  0  0  0  0  0  0  0  0
   57.2930   28.5100   45.1390 C   0  0  1  0  0  0  0  0  0  0  0  0
   58.3100   28.1130   44.0610 C   0  0  0  0  0  0  0  0  0  0  0  0
   57.9510   28.8460   46.3670 O   0  0  0  0  0  0  0  0  0  0  0  0
   58.8810   29.8810   46.5910 C   0  0  0  0  0  0  0  0  0  0  0  0
   60.2030   29.5160   46.8610 C   0  0  0  0  0  0  0  0  0  0  0  0
   61.1820   30.4830   47.1020 C   0  0  0  0  0  0  0  0  0  0  0  0
   60.8550   31.8530   47.0680 C   0  0  0  0  0  0  0  0  0  0  0  0
   61.8000   32.8830   47.3020 C   0  0  0  0  0  0  0  0  0  0  0  0
   63.2480   32.6310   47.4740 C   0  0  0  0  0  0  0  0  0  0  0  0
   64.0640   33.0710   46.6160 O   0  0  0  0  0  0  0  0  0  0  0  0
   63.7060   31.8580   48.5450 O   0  0  0  0  0  0  0  0  0  0  0  0
   64.5530   32.3800   49.5630 C   0  0  0  0  0  0  0  0  0  0  0  0
   61.3480   34.2100   47.3400 C   0  0  0  0  0  0  0  0  0  0  0  0
   60.0000   34.4850   47.1060 C   0  0  0  0  0  0  0  0  0  0  0  0
   59.5890   35.6760   47.1230 O   0  0  0  0  0  0  0  0  0  0  0  0
   59.1450   33.5020   46.8570 O   0  0  0  0  0  0  0  0  0  0  0  0
   59.5090   32.2230   46.8320 C   0  0  0  0  0  0  0  0  0  0  0  0
   58.5400   31.2470   46.5810 C   0  0  0  0  0  0  0  0  0  0  0  0
   58.2062   32.8884   44.6050 H   0  0  0  0  0  0  0  0  0  0  0  0
   59.1032   32.6602   43.0655 H   0  0  0  0  0  0  0  0  0  0  0  0
   57.5208   33.5103   43.0655 H   0  0  0  0  0  0  0  0  0  0  0  0
   56.5874   31.5096   42.5688 H   0  0  0  0  0  0  0  0  0  0  0  0
   58.1198   30.6326   42.9415 H   0  0  0  0  0  0  0  0  0  0  0  0
   56.6656   27.6235   45.3137 H   0  0  0  0  0  0  0  0  0  0  0  0
   59.2318   27.7532   44.5413 H   0  0  0  0  0  0  0  0  0  0  0  0
   57.8871   27.3140   43.4344 H   0  0  0  0  0  0  0  0  0  0  0  0
   58.5403   28.9873   43.4344 H   0  0  0  0  0  0  0  0  0  0  0  0
   60.4767   28.4509   46.8841 H   0  0  0  0  0  0  0  0  0  0  0  0
   62.2147   30.1728   47.3197 H   0  0  0  0  0  0  0  0  0  0  0  0
   64.1398   32.1253   50.5501 H   0  0  0  0  0  0  0  0  0  0  0  0
   65.5581   31.9444   49.4628 H   0  0  0  0  0  0  0  0  0  0  0  0
   64.6157   33.4736   49.4628 H   0  0  0  0  0  0  0  0  0  0  0  0
   62.0513   35.0286   47.5528 H   0  0  0  0  0  0  0  0  0  0  0  0
   57.5027   31.5488   46.3740 H   0  0  0  0  0  0  0  0  0  0  0  0
  1  2  1  0
  2  3  1  0
  3  4  1  0
  4  5  2  0
  4  6  1  0
  6  7  1  0
  6  8  1  0
  8  9  1  0
  9 10  2  0
 10 11  1  0
 11 12  2  0
 12 13  1  0
 13 14  1  0
 14 15  2  0
 14 16  1  0
 16 17  1  0
 13 18  2  0
 18 19  1  0
 19 20  2  0
 19 21  1  0
 21 22  1  0
 22 23  2  0
 23  9  1  0
 22 12  1  0
  1 24  1  0
  1 25  1  0
  1 26  1  0
  2 27  1  0
  2 28  1  0
  6 29  1  1
  7 30  1  0
  7 31  1  0
  7 32  1  0
 10 33  1  0
 11 34  1  0
 17 35  1  0
 17 36  1  0
 17 37  1  0
 18 38  1  0
 23 39  1  0
M  END
>  <UniqueID>  (25) 
23

>  <SMILES>  (25) 
CCOC(=O)[C@@H](C)Oc1ccc2c(C(=O)OC)cc(=O)oc2c1

>  <Energy>  (25) 
43.167973642929

>  <Genealogy>  (25) 
CCOC(=O)[C@@H](C)Oc1ccc2c(C(=O)OC)cc(=O)oc2c1 (chirality)
CCOC(=O)[C@@H](C)Oc1ccc2c(C(=O)OC)cc(=O)oc2c1 (3D coordinates assigned)
CCOC(=O)[C@@H](C)Oc1ccc2c(C(=O)OC)cc(=O)oc2c1 (optimized conformer: 43.167973642929 kcal/mol)

>  <smiles>  (25) 
CCOC(=O)C(C)Oc1ccc2c(C(=O)OC)cc(=O)oc2c1

>  <score_type>  (25) 
oracle

>  <origin>  (25) 
adg

>  <m_score__min__energy>  (25) 
-6.4699999999999998

>  <m_primary>  (25) 
energy

$$$$
25:0
     RDKit          3D

 25 25  0  0  0  0  0  0  0  0999 V2000
   57.7743   26.7973   43.8791 H   0  0  0  0  0  0  0  0  0  0  0  0
   57.6580   27.2690   44.8660 C   0  0  0  0  0  0  0  0  0  0  0  0
   57.5150   26.4560   45.9340 C   0  0  0  0  0  0  0  0  0  0  0  0
   56.1580   26.0180   46.3430 C   0  0  0  0  0  0  0  0  0  0  0  0
   55.1490   26.6960   46.0030 O   0  0  0  0  0  0  0  0  0  0  0  0
   55.9920   24.8600   47.1110 O   0  0  0  0  0  0  0  0  0  0  0  0
   55.6250   23.6070   46.5440 C   0  0  0  0  0  0  0  0  0  0  0  0
   55.4143   22.8878   47.3492 H   0  0  0  0  0  0  0  0  0  0  0  0
   54.7266   23.7349   45.9223 H   0  0  0  0  0  0  0  0  0  0  0  0
   56.4505   23.2300   45.9223 H   0  0  0  0  0  0  0  0  0  0  0  0
   58.7040   25.9580   46.7240 C   0  0  0  0  0  0  0  0  0  0  0  0
   58.4925   26.0466   47.7998 H   0  0  0  0  0  0  0  0  0  0  0  0
   58.8953   24.9041   46.4735 H   0  0  0  0  0  0  0  0  0  0  0  0
   59.5892   26.5610   46.4735 H   0  0  0  0  0  0  0  0  0  0  0  0
   57.6700   28.7470   44.9240 C   0  0  0  0  0  0  0  0  0  0  0  0
   58.5880   29.4430   45.7290 C   0  0  0  0  0  0  0  0  0  0  0  0
   59.2991   28.8850   46.3559 H   0  0  0  0  0  0  0  0  0  0  0  0
   58.6020   30.8410   45.7370 C   0  0  0  0  0  0  0  0  0  0  0  0
   59.3126   31.3794   46.3814 H   0  0  0  0  0  0  0  0  0  0  0  0
   57.7140   31.5560   44.9270 C   0  0  0  0  0  0  0  0  0  0  0  0
   57.7370   33.4650   44.9360 Br  0  0  0  0  0  0  0  0  0  0  0  0
   56.8180   30.8700   44.1000 C   0  0  0  0  0  0  0  0  0  0  0  0
   56.1247   31.4311   43.4562 H   0  0  0  0  0  0  0  0  0  0  0  0
   56.8030   29.4720   44.0910 C   0  0  0  0  0  0  0  0  0  0  0  0
   56.1078   28.9369   43.4274 H   0  0  0  0  0  0  0  0  0  0  0  0
  1  2  1  0
  2  3  2  0
  3  4  1  0
  4  5  2  0
  4  6  1  0
  6  7  1  0
  7  8  1  0
  7  9  1  0
  7 10  1  0
  3 11  1  0
 11 12  1  0
 11 13  1  0
 11 14  1  0
  2 15  1  0
 15 16  2  0
 16 17  1  0
 16 18  1  0
 18 19  1  0
 18 20  2  0
 20 21  1  0
 20 22  1  0
 22 23  1  0
 22 24  2  0
 24 25  1  0
 24 15  1  0
M  END
>  <UniqueID>  (26) 
24

>  <SMILES>  (26) 
COC(=O)/C(C)=C/c1ccc(Br)cc1

>  <Energy>  (26) 
27.054625714472483

>  <Genealogy>  (26) 
COC(=O)/C(C)=C/c1ccc(Br)cc1 (cis-trans isomerization)
COC(=O)/C(C)=C/c1ccc(Br)cc1 (3D coordinates assigned)
COC(=O)/C(C)=C/c1ccc(Br)cc1 (optimized conformer: 27.054625714472483 kcal/mol)

>  <smiles>  (26) 
COC(=O)C(C)=Cc1ccc(Br)cc1

>  <score_type>  (26) 
oracle

>  <origin>  (26) 
adg

>  <m_score__min__energy>  (26) 
-6

>  <m_primary>  (26) 
energy

$$$$
26:0
     RDKit          3D

 47 49  0  0  0  0  0  0  0  0999 V2000
   56.6420   29.7190   42.9860 C   0  0  0  0  0  0  0  0  0  0  0  0
   55.5170   29.7250   44.0080 C   0  0  0  0  0  0  0  0  0  0  0  0
   55.6810   28.6280   44.9030 O   0  0  0  0  0  0  0  0  0  0  0  0
   56.9040   28.2420   45.4720 C   0  0  0  0  0  0  0  0  0  0  0  0
   57.2430   26.8860   45.4530 C   0  0  0  0  0  0  0  0  0  0  0  0
   58.4490   26.4500   46.0060 C   0  0  0  0  0  0  0  0  0  0  0  0
   59.3270   27.3680   46.5840 C   0  0  0  0  0  0  0  0  0  0  0  0
   59.0110   28.7370   46.6170 C   0  0  0  0  0  0  0  0  0  0  0  0
   59.9630   29.6880   47.2380 C   0  0  0  0  0  0  0  0  0  0  0  0
   60.2530   30.9220   46.7670 N   0  0  0  0  0  0  0  0  0  0  0  0
   61.1500   31.4120   47.6390 C   0  0  0  0  0  0  0  0  0  0  0  0
   61.7530   32.7870   47.5610 C   0  0  0  0  0  0  0  0  0  0  0  0
   61.2750   33.5270   46.3810 N   0  0  0  0  0  0  0  0  0  0  0  0
   60.3800   34.6510   46.7360 C   0  0  0  0  0  0  0  0  0  0  0  0
   59.6410   35.1710   45.4720 C   0  0  0  0  0  0  0  0  0  0  0  0
   58.2250   34.5870   45.2870 C   0  0  0  0  0  0  0  0  0  0  0  0
   58.1300   33.1570   45.8240 C   0  0  0  0  0  0  0  0  0  0  0  0
   58.4320   33.0940   47.3350 C   0  0  0  0  0  0  0  0  0  0  0  0
   59.3670   34.2220   47.8190 C   0  0  0  0  0  0  0  0  0  0  0  0
   61.3780   30.4700   48.6160 C   0  0  0  0  0  0  0  0  0  0  0  0
   60.6360   29.4220   48.3390 O   0  0  0  0  0  0  0  0  0  0  0  0
   57.7930   29.1680   46.0560 C   0  0  0  0  0  0  0  0  0  0  0  0
   57.6107   29.7138   43.5071 H   0  0  0  0  0  0  0  0  0  0  0  0
   56.5599   28.8213   42.3556 H   0  0  0  0  0  0  0  0  0  0  0  0
   56.5695   30.6175   42.3556 H   0  0  0  0  0  0  0  0  0  0  0  0
   55.5419   30.6674   44.5749 H   0  0  0  0  0  0  0  0  0  0  0  0
   54.5510   29.6336   43.4898 H   0  0  0  0  0  0  0  0  0  0  0  0
   56.5551   26.1573   44.9993 H   0  0  0  0  0  0  0  0  0  0  0  0
   58.7074   25.3810   45.9860 H   0  0  0  0  0  0  0  0  0  0  0  0
   60.2750   27.0169   47.0177 H   0  0  0  0  0  0  0  0  0  0  0  0
   59.8770   31.4080   45.9240 H   0  0  0  0  0  0  0  0  0  0  0  0
   61.4803   33.3474   48.4674 H   0  0  0  0  0  0  0  0  0  0  0  0
   62.8444   32.6778   47.4774 H   0  0  0  0  0  0  0  0  0  0  0  0
   60.7920   32.8520   45.7400 H   0  0  0  0  0  0  0  0  0  0  0  0
   60.9927   35.4679   47.1450 H   0  0  0  0  0  0  0  0  0  0  0  0
   59.5566   36.2652   45.5465 H   0  0  0  0  0  0  0  0  0  0  0  0
   60.2334   34.8495   44.6027 H   0  0  0  0  0  0  0  0  0  0  0  0
   57.5048   35.2195   45.8268 H   0  0  0  0  0  0  0  0  0  0  0  0
   57.9999   34.5656   44.2105 H   0  0  0  0  0  0  0  0  0  0  0  0
   57.1130   32.7768   45.6476 H   0  0  0  0  0  0  0  0  0  0  0  0
   58.8769   32.5432   45.2991 H   0  0  0  0  0  0  0  0  0  0  0  0
   57.4818   33.1686   47.8842 H   0  0  0  0  0  0  0  0  0  0  0  0
   58.9470   32.1407   47.5244 H   0  0  0  0  0  0  0  0  0  0  0  0
   58.7555   35.0934   48.0960 H   0  0  0  0  0  0  0  0  0  0  0  0
   59.9366   33.8400   48.6790 H   0  0  0  0  0  0  0  0  0  0  0  0
   62.0585   30.5755   49.4738 H   0  0  0  0  0  0  0  0  0  0  0  0
   57.5328   30.2366   46.0736 H   0  0  0  0  0  0  0  0  0  0  0  0
  1  2  1  0
  2  3  1  0
  3  4  1  0
  4  5  2  0
  5  6  1  0
  6  7  2  0
  7  8  1  0
  8  9  1  0
  9 10  2  0
 10 11  1  0
 11 12  1  0
 12 13  1  0
 13 14  1  0
 14 15  1  0
 15 16  1  0
 16 17  1  0
 17 18  1  0
 18 19  1  0
 11 20  2  0
 20 21  1  0
  8 22  2  0
 22  4  1  0
 21  9  1  0
 19 14  1  0
  1 23  1  0
  1 24  1  0
  1 25  1  0
  2 26  1  0
  2 27  1  0
  5 28  1  0
  6 29  1  0
  7 30  1  0
 10 31  1  0
 12 32  1  0
 12 33  1  0
 13 34  1  0
 14 35  1  0
 15 36  1  0
 15 37  1  0
 16 38  1  0
 16 39  1  0
 17 40  1  0
 17 41  1  0
 18 42  1  0
 18 43  1  0
 19 44  1  0
 19 45  1  0
 20 46  1  0
 22 47  1  0
M  CHG  1  10   1
M  END
>  <UniqueID>  (27) 
25

>  <SMILES>  (27) 
CCOc1cccc(-c2[nH+]c(CNC3CCCCC3)co2)c1

>  <Energy>  (27) 
79.53976307095046

>  <Genealogy>  (27) 
CCOc1cccc(-c2[nH+]c(CNC3CCCCC3)co2)c1 (protonated)
CCOc1cccc(-c2[nH+]c(CNC3CCCCC3)co2)c1 (3D coordinates assigned)
CCOc1cccc(-c2[nH+]c(CNC3CCCCC3)co2)c1 (nonaromatic ring conformer: 79.53976307095046 kcal/mol)

>  <smiles>  (27) 
CCOc1cccc(-c2nc(CNC3CCCCC3)co2)c1

>  <score_type>  (27) 
oracle

>  <origin>  (27) 
adg

>  <m_score__min__energy>  (27) 
-5.9199999999999999

>  <m_primary>  (27) 
energy

$$$$
27:0
     RDKit          3D

 29 30  0  0  0  0  0  0  0  0999 V2000
   57.0740   27.0390   42.8010 H   0  0  0  0  0  0  0  0  0  0  0  0
   57.7870   31.3440   46.1650 N   0  0  0  0  0  0  0  0  0  0  0  0
   57.4070   30.5610   45.1890 C   0  0  0  0  0  0  0  0  0  0  0  0
   56.0430   29.7090   43.3740 S   0  0  0  0  0  0  0  0  0  0  0  0
   56.2710   30.8900   44.5130 N   0  0  0  0  0  0  0  0  0  0  0  0
   57.3880   28.8190   43.7500 C   0  0  0  0  0  0  0  0  0  0  0  0
   57.7660   27.7480   43.1290 N   0  0  0  0  0  0  0  0  0  0  0  0
   58.4410   32.6160   46.1290 C   0  0  0  0  0  0  0  0  0  0  0  0
   58.4630   33.3390   44.9290 C   0  0  0  0  0  0  0  0  0  0  0  0
   58.0161   32.9072   44.0214 H   0  0  0  0  0  0  0  0  0  0  0  0
   59.0500   34.6060   44.8800 C   0  0  0  0  0  0  0  0  0  0  0  0
   59.0858   35.1587   43.9296 H   0  0  0  0  0  0  0  0  0  0  0  0
   59.5910   35.1710   46.0360 C   0  0  0  0  0  0  0  0  0  0  0  0
   60.0654   36.1625   45.9924 H   0  0  0  0  0  0  0  0  0  0  0  0
   59.5310   34.4790   47.2490 C   0  0  0  0  0  0  0  0  0  0  0  0
   59.9544   34.9312   48.1580 H   0  0  0  0  0  0  0  0  0  0  0  0
   58.9330   33.2090   47.3140 C   0  0  0  0  0  0  0  0  0  0  0  0
   58.8700   32.4760   48.6260 C   0  0  0  0  0  0  0  0  0  0  0  0
   58.9321   33.1986   49.4531 H   0  0  0  0  0  0  0  0  0  0  0  0
   57.9211   31.9236   48.6922 H   0  0  0  0  0  0  0  0  0  0  0  0
   59.7108   31.7698   48.6922 H   0  0  0  0  0  0  0  0  0  0  0  0
   58.0620   29.4010   44.7780 N   0  0  0  0  0  0  0  0  0  0  0  0
   59.3950   28.9130   45.1810 C   0  0  0  0  0  0  0  0  0  0  0  0
   59.6389   28.0089   44.6039 H   0  0  0  0  0  0  0  0  0  0  0  0
   60.1363   29.7013   44.9836 H   0  0  0  0  0  0  0  0  0  0  0  0
   59.4160   28.5790   46.6690 C   0  0  0  0  0  0  0  0  0  0  0  0
   59.3576   29.5085   47.2543 H   0  0  0  0  0  0  0  0  0  0  0  0
   58.5564   27.9374   46.9129 H   0  0  0  0  0  0  0  0  0  0  0  0
   60.3492   28.0502   46.9129 H   0  0  0  0  0  0  0  0  0  0  0  0
  1  2  1  0
  2  3  2  0
  3  4  1  0
  4  5  1  0
  5  6  1  0
  6  7  2  0
  7  8  1  0
  8  9  2  0
  9 10  1  0
  9 11  1  0
 11 12  1  0
 11 13  2  0
 13 14  1  0
 13 15  1  0
 15 16  1  0
 15 17  2  0
 17 18  1  0
 18 19  1  0
 18 20  1  0
 18 21  1  0
  6 22  1  0
 22 23  1  0
 23 24  1  0
 23 25  1  0
 23 26  1  0
 26 27  1  0
 26 28  1  0
 26 29  1  0
 22  3  1  0
 17  8  1  0
M  CHG  1   5  -1
M  END
>  <UniqueID>  (28) 
26

>  <SMILES>  (28) 
[H]/N=c1\s[n-]/c(=N/c2ccccc2C)n1CC

>  <Energy>  (28) 
82.59983074874285

>  <Genealogy>  (28) 
CCn1c(=Nc2ccccc2C)[n-]sc1=N (protonated)
[H]/N=c1\s[n-]/c(=N/c2ccccc2C)n1CC (cis-trans isomerization)
[H]/N=c1\s[n-]/c(=N/c2ccccc2C)n1CC (3D coordinates assigned)
[H]/N=c1\s[n-]/c(=N/c2ccccc2C)n1CC (optimized conformer: 82.59983074874285 kcal/mol)

>  <smiles>  (28) 
CCn1c(=Nc2ccccc2C)[nH]sc1=N

>  <score_type>  (28) 
oracle

>  <origin>  (28) 
adg

>  <m_score__min__energy>  (28) 
-7.8399999999999999

>  <m_primary>  (28) 
energy

$$$$
28:0
     RDKit          3D

 71 75  0  0  0  0  0  0  0  0999 V2000
   55.0270   31.2170   51.8940 C   0  0  0  0  0  0  0  0  0  0  0  0
   55.2410   30.0330   52.7960 C   0  0  0  0  0  0  0  0  0  0  0  0
   54.1290   29.3890   53.3620 C   0  0  0  0  0  0  0  0  0  0  0  0
   54.2990   28.2980   54.2170 C   0  0  0  0  0  0  0  0  0  0  0  0
   55.5820   27.8420   54.5230 C   0  0  0  0  0  0  0  0  0  0  0  0
   56.6980   28.4780   53.9760 C   0  0  0  0  0  0  0  0  0  0  0  0
   56.5400   29.5780   53.1190 C   0  0  0  0  0  0  0  0  0  0  0  0
   57.7110   30.2090   52.5800 N   0  0  0  0  0  0  0  0  0  0  0  0
   58.2990   29.6990   51.3370 C   0  0  0  0  0  0  0  0  0  0  0  0
   59.0540   30.8070   50.5860 C   0  0  0  0  0  0  0  0  0  0  0  0
   58.4880   32.1330   50.9060 N   0  0  0  0  0  0  0  0  0  0  0  0
   58.9350   33.2090   49.9810 C   0  0  0  0  0  0  0  0  0  0  0  0
   59.1580   32.7800   48.4980 C   0  0  1  0  0  0  0  0  0  0  0  0
   57.8620   32.6580   47.6740 C   0  0  0  0  0  0  0  0  0  0  0  0
   58.0360   33.3930   46.4010 N   0  0  0  0  0  0  0  0  0  0  0  0
   57.5060   32.6550   45.2220 C   0  0  0  0  0  0  0  0  0  0  0  0
   58.0350   33.2910   43.9010 C   0  0  0  0  0  0  0  0  0  0  0  0
   58.1370   32.3060   42.7180 C   0  0  0  0  0  0  0  0  0  0  0  0
   57.0920   31.1920   42.8220 C   0  0  0  0  0  0  0  0  0  0  0  0
   57.2900   30.3590   44.1010 C   0  0  0  0  0  0  0  0  0  0  0  0
   57.9060   31.1590   45.2700 C   0  0  0  0  0  0  0  0  0  0  0  0
   59.4700   33.6910   46.3050 C   0  0  0  0  0  0  0  0  0  0  0  0
   59.9620   33.8280   47.7320 C   0  0  2  0  0  0  0  0  0  0  0  0
   61.4680   33.6830   47.8720 C   0  0  0  0  0  0  0  0  0  0  0  0
   62.3000   33.4680   46.7530 C   0  0  0  0  0  0  0  0  0  0  0  0
   63.6860   33.3550   46.9140 C   0  0  0  0  0  0  0  0  0  0  0  0
   64.2530   33.4520   48.1870 C   0  0  0  0  0  0  0  0  0  0  0  0
   63.4370   33.6530   49.3040 C   0  0  0  0  0  0  0  0  0  0  0  0
   62.0520   33.7670   49.1500 C   0  0  0  0  0  0  0  0  0  0  0  0
   58.7300   32.4770   52.3260 C   0  0  0  0  0  0  0  0  0  0  0  0
   58.3150   31.3410   53.2910 C   0  0  0  0  0  0  0  0  0  0  0  0
   54.8642   32.1179   52.5039 H   0  0  0  0  0  0  0  0  0  0  0  0
   55.9140   31.3594   51.2592 H   0  0  0  0  0  0  0  0  0  0  0  0
   54.1463   31.0399   51.2592 H   0  0  0  0  0  0  0  0  0  0  0  0
   53.1151   29.7470   53.1299 H   0  0  0  0  0  0  0  0  0  0  0  0
   53.4204   27.7973   54.6499 H   0  0  0  0  0  0  0  0  0  0  0  0
   55.7140   26.9814   55.1952 H   0  0  0  0  0  0  0  0  0  0  0  0
   57.7076   28.1146   54.2183 H   0  0  0  0  0  0  0  0  0  0  0  0
   59.0003   28.8866   51.5783 H   0  0  0  0  0  0  0  0  0  0  0  0
   57.4874   29.3308   50.6922 H   0  0  0  0  0  0  0  0  0  0  0  0
   60.1135   30.7858   50.8809 H   0  0  0  0  0  0  0  0  0  0  0  0
   58.9555   30.6319   49.5045 H   0  0  0  0  0  0  0  0  0  0  0  0
   57.4480   32.0750   50.7780 H   0  0  0  0  0  0  0  0  0  0  0  0
   58.1726   34.0018   49.9920 H   0  0  0  0  0  0  0  0  0  0  0  0
   59.9200   33.5304   50.3504 H   0  0  0  0  0  0  0  0  0  0  0  0
   59.6627   31.8072   48.5926 H   0  0  0  0  0  0  0  0  0  0  0  0
   57.6557   31.5981   47.4639 H   0  0  0  0  0  0  0  0  0  0  0  0
   57.0185   33.0821   48.2385 H   0  0  0  0  0  0  0  0  0  0  0  0
   56.4087   32.7260   45.2502 H   0  0  0  0  0  0  0  0  0  0  0  0
   57.3533   34.1051   43.6136 H   0  0  0  0  0  0  0  0  0  0  0  0
   59.0569   33.6417   44.1076 H   0  0  0  0  0  0  0  0  0  0  0  0
   57.9790   32.8575   41.7794 H   0  0  0  0  0  0  0  0  0  0  0  0
   59.1355   31.8448   42.7387 H   0  0  0  0  0  0  0  0  0  0  0  0
   56.0885   31.6422   42.8390 H   0  0  0  0  0  0  0  0  0  0  0  0
   57.2048   30.5271   41.9530 H   0  0  0  0  0  0  0  0  0  0  0  0
   56.3103   29.9744   44.4208 H   0  0  0  0  0  0  0  0  0  0  0  0
   57.9958   29.5520   43.8547 H   0  0  0  0  0  0  0  0  0  0  0  0
   57.5557   30.7277   46.2194 H   0  0  0  0  0  0  0  0  0  0  0  0
   59.0010   31.0966   45.1855 H   0  0  0  0  0  0  0  0  0  0  0  0
   59.9978   32.8715   45.7953 H   0  0  0  0  0  0  0  0  0  0  0  0
   59.6543   34.6070   45.7245 H   0  0  0  0  0  0  0  0  0  0  0  0
   59.7998   34.8386   48.1349 H   0  0  0  0  0  0  0  0  0  0  0  0
   61.8574   33.3888   45.7491 H   0  0  0  0  0  0  0  0  0  0  0  0
   64.3293   33.1897   46.0372 H   0  0  0  0  0  0  0  0  0  0  0  0
   65.3430   33.3701   48.3106 H   0  0  0  0  0  0  0  0  0  0  0  0
   63.8854   33.7216   50.3061 H   0  0  0  0  0  0  0  0  0  0  0  0
   61.4148   33.9233   50.0330 H   0  0  0  0  0  0  0  0  0  0  0  0
   59.8025   32.6806   52.4616 H   0  0  0  0  0  0  0  0  0  0  0  0
   58.1170   33.3586   52.5650 H   0  0  0  0  0  0  0  0  0  0  0  0
   59.2075   30.9876   53.8281 H   0  0  0  0  0  0  0  0  0  0  0  0
   57.5649   31.7440   53.9874 H   0  0  0  0  0  0  0  0  0  0  0  0
  1  2  1  0
  2  3  2  0
  3  4  1  0
  4  5  2  0
  5  6  1  0
  6  7  2  0
  7  8  1  0
  8  9  1  0
  9 10  1  0
 10 11  1  0
 11 12  1  0
 12 13  1  0
 13 14  1  0
 14 15  1  0
 15 16  1  0
 16 17  1  0
 17 18  1  0
 18 19  1  0
 19 20  1  0
 20 21  1  0
 15 22  1  0
 22 23  1  0
 23 24  1  0
 24 25  2  0
 25 26  1  0
 26 27  2  0
 27 28  1  0
 28 29  2  0
 11 30  1  0
 30 31  1  0
  7  2  1  0
 31  8  1  0
 23 13  1  0
 29 24  1  0
 21 16  1  0
  1 32  1  0
  1 33  1  0
  1 34  1  0
  3 35  1  0
  4 36  1  0
  5 37  1  0
  6 38  1  0
  9 39  1  0
  9 40  1  0
 10 41  1  0
 10 42  1  0
 11 43  1  0
 12 44  1  0
 12 45  1  0
 13 46  1  1
 14 47  1  0
 14 48  1  0
 16 49  1  0
 17 50  1  0
 17 51  1  0
 18 52  1  0
 18 53  1  0
 19 54  1  0
 19 55  1  0
 20 56  1  0
 20 57  1  0
 21 58  1  0
 21 59  1  0
 22 60  1  0
 22 61  1  0
 23 62  1  1
 25 63  1  0
 26 64  1  0
 27 65  1  0
 28 66  1  0
 29 67  1  0
 30 68  1  0
 30 69  1  0
 31 70  1  0
 31 71  1  0
M  CHG  1  11   1
M  END
>  <UniqueID>  (29) 
27

>  <SMILES>  (29) 
Cc1ccccc1N1CC[NH+](C[C@H]2CN(C3CCCCC3)C[C@@H]2c2ccccc2)CC1

>  <Energy>  (29) 
100.92943297651716

>  <Genealogy>  (29) 
Cc1ccccc1N1CC[NH+](CC2CN(C3CCCCC3)CC2c2ccccc2)CC1 (protonated)
Cc1ccccc1N1CC[NH+](C[C@H]2CN(C3CCCCC3)C[C@@H]2c2ccccc2)CC1 (chirality)
Cc1ccccc1N1CC[NH+](C[C@H]2CN(C3CCCCC3)C[C@@H]2c2ccccc2)CC1 (3D coordinates assigned)
Cc1ccccc1N1CC[NH+](C[C@H]2CN(C3CCCCC3)C[C@@H]2c2ccccc2)CC1 (nonaromatic ring conformer: 100.92943297651716 kcal/mol)

>  <smiles>  (29) 
Cc1ccccc1N1CCN(CC2CN(C3CCCCC3)CC2c2ccccc2)CC1

>  <score_type>  (29) 
oracle

>  <origin>  (29) 
adg

>  <m_score__min__energy>  (29) 
-8.5600000000000005

>  <m_primary>  (29) 
energy

$$$$
29:0
     RDKit          3D

 50 52  0  0  0  0  0  0  0  0999 V2000
   57.0640   27.2230   45.9270 C   0  0  0  0  0  0  0  0  0  0  0  0
   58.3390   26.8880   45.2670 N   0  0  0  0  0  0  0  0  0  0  0  0
   59.3800   26.6860   46.2870 C   0  0  0  0  0  0  0  0  0  0  0  0
   58.7480   27.9590   44.3350 C   0  0  0  0  0  0  0  0  0  0  0  0
   58.4820   29.3090   44.9380 C   0  0  0  0  0  0  0  0  0  0  0  0
   59.0540   29.7250   46.0840 N   0  0  0  0  0  0  0  0  0  0  0  0
   58.6120   30.9510   46.3150 N   0  0  0  0  0  0  0  0  0  0  0  0
   57.7720   31.2710   45.3080 C   0  0  0  0  0  0  0  0  0  0  0  0
   57.0820   32.6150   45.1810 C   0  0  0  0  0  0  0  0  0  0  0  0
   57.7600   33.4740   44.0980 C   0  0  0  0  0  0  0  0  0  0  0  0
   59.1670   33.9600   44.5160 C   0  0  0  0  0  0  0  0  0  0  0  0
   59.3990   33.8420   45.9720 N   0  0  0  0  0  0  0  0  0  0  0  0
   60.6310   34.5550   46.3640 C   0  0  0  0  0  0  0  0  0  0  0  0
   61.6170   33.5910   46.9700 C   0  0  0  0  0  0  0  0  0  0  0  0
   62.9920   33.8770   46.9270 C   0  0  0  0  0  0  0  0  0  0  0  0
   63.9150   32.9790   47.4680 C   0  0  0  0  0  0  0  0  0  0  0  0
   63.4740   31.7890   48.0520 C   0  0  0  0  0  0  0  0  0  0  0  0
   62.1080   31.4950   48.0960 C   0  0  0  0  0  0  0  0  0  0  0  0
   61.1810   32.3920   47.5550 C   0  0  0  0  0  0  0  0  0  0  0  0
   58.2300   34.3250   46.7310 C   0  0  0  0  0  0  0  0  0  0  0  0
   57.0280   33.3820   46.5260 C   0  0  0  0  0  0  0  0  0  0  0  0
   57.6890   30.2660   44.4080 N   0  0  0  0  0  0  0  0  0  0  0  0
   56.8510   30.1770   43.2120 C   0  0  0  0  0  0  0  0  0  0  0  0
   57.1959   27.1883   47.0185 H   0  0  0  0  0  0  0  0  0  0  0  0
   56.7506   28.2340   45.6275 H   0  0  0  0  0  0  0  0  0  0  0  0
   56.2941   26.4966   45.6275 H   0  0  0  0  0  0  0  0  0  0  0  0
   58.9336   26.7726   47.2886 H   0  0  0  0  0  0  0  0  0  0  0  0
   59.8212   25.6855   46.1675 H   0  0  0  0  0  0  0  0  0  0  0  0
   60.1634   27.4489   46.1675 H   0  0  0  0  0  0  0  0  0  0  0  0
   59.8229   27.8628   44.1219 H   0  0  0  0  0  0  0  0  0  0  0  0
   58.1678   27.8633   43.4054 H   0  0  0  0  0  0  0  0  0  0  0  0
   56.0430   32.4140   44.8810 H   0  0  0  0  0  0  0  0  0  0  0  0
   57.8530   32.8745   43.1804 H   0  0  0  0  0  0  0  0  0  0  0  0
   57.1341   34.3647   43.9403 H   0  0  0  0  0  0  0  0  0  0  0  0
   59.9198   33.3554   43.9889 H   0  0  0  0  0  0  0  0  0  0  0  0
   59.2446   35.0248   44.2510 H   0  0  0  0  0  0  0  0  0  0  0  0
   61.0791   35.0227   45.4749 H   0  0  0  0  0  0  0  0  0  0  0  0
   60.3794   35.3266   47.1065 H   0  0  0  0  0  0  0  0  0  0  0  0
   63.3429   34.8118   46.4655 H   0  0  0  0  0  0  0  0  0  0  0  0
   64.9901   33.2090   47.4342 H   0  0  0  0  0  0  0  0  0  0  0  0
   64.2021   31.0828   48.4775 H   0  0  0  0  0  0  0  0  0  0  0  0
   61.7620   30.5578   48.5563 H   0  0  0  0  0  0  0  0  0  0  0  0
   60.1069   32.1570   47.5881 H   0  0  0  0  0  0  0  0  0  0  0  0
   58.4829   34.3622   47.8009 H   0  0  0  0  0  0  0  0  0  0  0  0
   57.9610   35.3288   46.3705 H   0  0  0  0  0  0  0  0  0  0  0  0
   57.0132   32.6497   47.3467 H   0  0  0  0  0  0  0  0  0  0  0  0
   56.1207   34.0038   46.5137 H   0  0  0  0  0  0  0  0  0  0  0  0
   55.7980   30.0652   43.5096 H   0  0  0  0  0  0  0  0  0  0  0  0
   56.9676   31.0926   42.6136 H   0  0  0  0  0  0  0  0  0  0  0  0
   57.1574   29.3063   42.6136 H   0  0  0  0  0  0  0  0  0  0  0  0
  1  2  1  0
  2  3  1  0
  2  4  1  0
  4  5  1  0
  5  6  2  0
  6  7  1  0
  7  8  2  0
  8  9  1  0
  9 10  1  0
 10 11  1  0
 11 12  1  0
 12 13  1  0
 13 14  1  0
 14 15  2  0
 15 16  1  0
 16 17  2  0
 17 18  1  0
 18 19  2  0
 12 20  1  0
 20 21  1  0
  8 22  1  0
 22 23  1  0
 22  5  1  0
 21  9  1  0
 19 14  1  0
  1 24  1  0
  1 25  1  0
  1 26  1  0
  3 27  1  0
  3 28  1  0
  3 29  1  0
  4 30  1  0
  4 31  1  0
  9 32  1  0
 10 33  1  0
 10 34  1  0
 11 35  1  0
 11 36  1  0
 13 37  1  0
 13 38  1  0
 15 39  1  0
 16 40  1  0
 17 41  1  0
 18 42  1  0
 19 43  1  0
 20 44  1  0
 20 45  1  0
 21 46  1  0
 21 47  1  0
 23 48  1  0
 23 49  1  0
 23 50  1  0
M  END
>  <UniqueID>  (30) 
28

>  <SMILES>  (30) 
CN(C)Cc1nnc(C2CCN(Cc3ccccc3)CC2)n1C

>  <Energy>  (30) 
89.81077880285397

>  <Genealogy>  (30) 
CN(C)Cc1nnc(C2CCN(Cc3ccccc3)CC2)n1C (3D coordinates assigned)
CN(C)Cc1nnc(C2CCN(Cc3ccccc3)CC2)n1C (nonaromatic ring conformer: 89.81077880285397 kcal/mol)

>  <smiles>  (30) 
CN(C)Cc1nnc(C2CCN(Cc3ccccc3)CC2)n1C

>  <score_type>  (30) 
oracle

>  <origin>  (30) 
adg

>  <m_score__min__energy>  (30) 
-7.96

>  <m_primary>  (30) 
energy

$$$$
30:0
     RDKit          3D

 54 56  0  0  0  0  0  0  0  0999 V2000
   59.2670   34.6780   46.2140 C   0  0  0  0  0  0  0  0  0  0  0  0
   59.1300   34.3360   44.8390 O   0  0  0  0  0  0  0  0  0  0  0  0
   58.4310   33.2150   44.3680 C   0  0  0  0  0  0  0  0  0  0  0  0
   57.7500   32.4170   45.2940 C   0  0  0  0  0  0  0  0  0  0  0  0
   57.0320   31.2940   44.8750 C   0  0  0  0  0  0  0  0  0  0  0  0
   56.9850   30.9550   43.5170 C   0  0  0  0  0  0  0  0  0  0  0  0
   56.2140   29.7380   43.0660 C   0  0  0  0  0  0  0  0  0  0  0  0
   57.0910   28.5680   42.8840 N   0  0  0  0  0  0  0  0  0  0  0  0
   57.4120   27.9120   44.1650 C   0  0  0  0  0  0  0  0  0  0  0  0
   58.9360   27.9660   44.4440 C   0  0  0  0  0  0  0  0  0  0  0  0
   59.3200   28.9880   45.4390 N   0  0  0  0  0  0  0  0  0  0  0  0
   60.7660   29.0000   45.7460 C   0  0  0  0  0  0  0  0  0  0  0  0
   61.1070   30.2740   46.5300 C   0  0  0  0  0  0  0  0  0  0  0  0
   60.1170   30.5170   47.5870 N   0  0  0  0  0  0  0  0  0  0  0  0
   59.9440   31.8450   48.1070 C   0  0  0  0  0  0  0  0  0  0  0  0
   58.7840   32.3380   48.1820 O   0  0  0  0  0  0  0  0  0  0  0  0
   61.1020   32.6550   48.5380 C   0  0  0  0  0  0  0  0  0  0  0  0
   61.2120   33.0980   49.8660 C   0  0  0  0  0  0  0  0  0  0  0  0
   62.3110   33.8670   50.2650 C   0  0  0  0  0  0  0  0  0  0  0  0
   63.3080   34.2010   49.3420 C   0  0  0  0  0  0  0  0  0  0  0  0
   63.1990   33.7800   48.0150 C   0  0  0  0  0  0  0  0  0  0  0  0
   62.0980   33.0210   47.6070 C   0  0  0  0  0  0  0  0  0  0  0  0
   59.1390   29.4720   47.9080 C   0  0  0  0  0  0  0  0  0  0  0  0
   58.4300   29.0010   46.6290 C   0  0  0  0  0  0  0  0  0  0  0  0
   57.6750   31.7440   42.5850 C   0  0  0  0  0  0  0  0  0  0  0  0
   58.3910   32.8700   43.0050 C   0  0  0  0  0  0  0  0  0  0  0  0
   58.9298   33.8362   46.8366 H   0  0  0  0  0  0  0  0  0  0  0  0
   60.3223   34.8971   46.4340 H   0  0  0  0  0  0  0  0  0  0  0  0
   58.6548   35.5650   46.4340 H   0  0  0  0  0  0  0  0  0  0  0  0
   57.7802   32.6764   46.3625 H   0  0  0  0  0  0  0  0  0  0  0  0
   56.5023   30.6745   45.6137 H   0  0  0  0  0  0  0  0  0  0  0  0
   55.4535   29.4979   43.8237 H   0  0  0  0  0  0  0  0  0  0  0  0
   55.7488   29.9693   42.0964 H   0  0  0  0  0  0  0  0  0  0  0  0
   56.6420   27.8810   42.2320 H   0  0  0  0  0  0  0  0  0  0  0  0
   57.9830   28.9010   42.4450 H   0  0  0  0  0  0  0  0  0  0  0  0
   56.8781   28.4266   44.9775 H   0  0  0  0  0  0  0  0  0  0  0  0
   57.1007   26.8584   44.1095 H   0  0  0  0  0  0  0  0  0  0  0  0
   59.2565   26.9815   44.8155 H   0  0  0  0  0  0  0  0  0  0  0  0
   59.4274   28.2368   43.4978 H   0  0  0  0  0  0  0  0  0  0  0  0
   61.0207   28.1171   46.3507 H   0  0  0  0  0  0  0  0  0  0  0  0
   61.3420   28.9785   44.8091 H   0  0  0  0  0  0  0  0  0  0  0  0
   62.1014   30.1612   46.9864 H   0  0  0  0  0  0  0  0  0  0  0  0
   61.0985   31.1276   45.8362 H   0  0  0  0  0  0  0  0  0  0  0  0
   60.4308   32.8394   50.5959 H   0  0  0  0  0  0  0  0  0  0  0  0
   62.3912   34.2098   51.3071 H   0  0  0  0  0  0  0  0  0  0  0  0
   64.1771   34.7948   49.6614 H   0  0  0  0  0  0  0  0  0  0  0  0
   63.9813   34.0462   47.2889 H   0  0  0  0  0  0  0  0  0  0  0  0
   62.0075   32.7078   46.5564 H   0  0  0  0  0  0  0  0  0  0  0  0
   59.6567   28.6195   48.3719 H   0  0  0  0  0  0  0  0  0  0  0  0
   58.3916   29.8802   48.6042 H   0  0  0  0  0  0  0  0  0  0  0  0
   58.0515   27.9814   46.7940 H   0  0  0  0  0  0  0  0  0  0  0  0
   57.6181   29.7140   46.4230 H   0  0  0  0  0  0  0  0  0  0  0  0
   57.6530   31.4760   41.5184 H   0  0  0  0  0  0  0  0  0  0  0  0
   58.9243   33.4874   42.2672 H   0  0  0  0  0  0  0  0  0  0  0  0
  1  2  1  0
  2  3  1  0
  3  4  2  0
  4  5  1  0
  5  6  2  0
  6  7  1  0
  7  8  1  0
  8  9  1  0
  9 10  1  0
 10 11  1  0
 11 12  1  0
 12 13  1  0
 13 14  1  0
 14 15  1  0
 15 16  2  0
 15 17  1  0
 17 18  2  0
 18 19  1  0
 19 20  2  0
 20 21  1  0
 21 22  2  0
 14 23  1  0
 23 24  1  0
  6 25  1  0
 25 26  2  0
 26  3  1  0
 24 11  1  0
 22 17  1  0
  1 27  1  0
  1 28  1  0
  1 29  1  0
  4 30  1  0
  5 31  1  0
  7 32  1  0
  7 33  1  0
  8 34  1  0
  8 35  1  0
  9 36  1  0
  9 37  1  0
 10 38  1  0
 10 39  1  0
 12 40  1  0
 12 41  1  0
 13 42  1  0
 13 43  1  0
 18 44  1  0
 19 45  1  0
 20 46  1  0
 21 47  1  0
 22 48  1  0
 23 49  1  0
 23 50  1  0
 24 51  1  0
 24 52  1  0
 25 53  1  0
 26 54  1  0
M  CHG  1   8   1
M  END
>  <UniqueID>  (31) 
29

>  <SMILES>  (31) 
COc1ccc(C[NH2+]CCN2CCN(C(=O)c3ccccc3)CC2)cc1

>  <Energy>  (31) 
69.19943111414835

>  <Genealogy>  (31) 
COc1ccc(C[NH2+]CCN2CCN(C(=O)c3ccccc3)CC2)cc1 (protonated)
COc1ccc(C[NH2+]CCN2CCN(C(=O)c3ccccc3)CC2)cc1 (3D coordinates assigned)
COc1ccc(C[NH2+]CCN2CCN(C(=O)c3ccccc3)CC2)cc1 (nonaromatic ring conformer: 69.19943111414835 kcal/mol)

>  <smiles>  (31) 
COc1ccc(CNCCN2CCN(C(=O)c3ccccc3)CC2)cc1

>  <score_type>  (31) 
oracle

>  <origin>  (31) 
adg

>  <m_score__min__energy>  (31) 
-6.4400000000000004

>  <m_primary>  (31) 
energy

$$$$
31:0
     RDKit          3D

 25 26  0  0  0  0  0  0  0  0999 V2000
   58.5130   34.0750   47.1770 C   0  0  0  0  0  0  0  0  0  0  0  0
   58.4310   32.9430   46.2390 N   0  0  0  0  0  0  0  0  0  0  0  0
   58.5410   31.6550   46.7120 C   0  0  0  0  0  0  0  0  0  0  0  0
   58.7280   31.4220   47.9370 O   0  0  0  0  0  0  0  0  0  0  0  0
   58.4300   30.6090   45.8040 C   0  0  0  0  0  0  0  0  0  0  0  0
   58.1970   30.8650   44.4950 C   0  0  0  0  0  0  0  0  0  0  0  0
   58.0820   29.7080   43.8140 N   0  0  0  0  0  0  0  0  0  0  0  0
   58.2570   28.7520   44.7590 C   0  0  0  0  0  0  0  0  0  0  0  0
   58.1660   26.8830   44.3590 Br  0  0  0  0  0  0  0  0  0  0  0  0
   58.4790   29.2740   45.9940 N   0  0  0  0  0  0  0  0  0  0  0  0
   58.6670   28.5550   47.2530 C   0  0  0  0  0  0  0  0  0  0  0  0
   58.0680   32.1290   44.0060 N   0  0  0  0  0  0  0  0  0  0  0  0
   57.7820   32.3410   42.5800 C   0  0  0  0  0  0  0  0  0  0  0  0
   58.1660   33.1760   44.8990 C   0  0  0  0  0  0  0  0  0  0  0  0
   58.0060   34.3620   44.4920 O   0  0  0  0  0  0  0  0  0  0  0  0
   58.4857   33.6979   48.2100 H   0  0  0  0  0  0  0  0  0  0  0  0
   59.4531   34.6215   47.0109 H   0  0  0  0  0  0  0  0  0  0  0  0
   57.6615   34.7513   47.0109 H   0  0  0  0  0  0  0  0  0  0  0  0
   57.8840   29.5670   42.7990 H   0  0  0  0  0  0  0  0  0  0  0  0
   58.4882   29.2387   48.0959 H   0  0  0  0  0  0  0  0  0  0  0  0
   57.9582   27.7154   47.3052 H   0  0  0  0  0  0  0  0  0  0  0  0
   59.6960   28.1698   47.3052 H   0  0  0  0  0  0  0  0  0  0  0  0
   56.9023   32.9931   42.4755 H   0  0  0  0  0  0  0  0  0  0  0  0
   58.6497   32.8158   42.0987 H   0  0  0  0  0  0  0  0  0  0  0  0
   57.5800   31.3728   42.0987 H   0  0  0  0  0  0  0  0  0  0  0  0
  1  2  1  0
  2  3  1  0
  3  4  2  0
  3  5  1  0
  5  6  2  0
  6  7  1  0
  7  8  2  0
  8  9  1  0
  8 10  1  0
 10 11  1  0
  6 12  1  0
 12 13  1  0
 12 14  1  0
 14 15  2  0
 14  2  1  0
 10  5  1  0
  1 16  1  0
  1 17  1  0
  1 18  1  0
  7 19  1  0
 11 20  1  0
 11 21  1  0
 11 22  1  0
 13 23  1  0
 13 24  1  0
 13 25  1  0
M  CHG  1   7   1
M  END
>  <UniqueID>  (32) 
30

>  <SMILES>  (32) 
Cn1c(=O)c2c([nH+]c(Br)n2C)n(C)c1=O

>  <Energy>  (32) 
72.7872485319147

>  <Genealogy>  (32) 
Cn1c(=O)c2c([nH+]c(Br)n2C)n(C)c1=O (protonated)
Cn1c(=O)c2c([nH+]c(Br)n2C)n(C)c1=O (3D coordinates assigned)
Cn1c(=O)c2c([nH+]c(Br)n2C)n(C)c1=O (optimized conformer: 72.7872485319147 kcal/mol)

>  <smiles>  (32) 
Cn1c(=O)c2c(nc(Br)n2C)n(C)c1=O

>  <score_type>  (32) 
oracle

>  <origin>  (32) 
adg

>  <m_score__min__energy>  (32) 
-3.8599999999999999

>  <m_primary>  (32) 
energy

$$$$
32:0
     RDKit          3D

 28 30  0  0  0  0  0  0  0  0999 V2000
   56.4040   26.1900   46.0190 C   0  0  0  0  0  0  0  0  0  0  0  0
   56.0550   27.4970   45.6160 O   0  0  0  0  0  0  0  0  0  0  0  0
   57.1970   28.3310   45.6160 C   0  0  0  0  0  0  0  0  0  0  0  0
   57.1080   29.3370   44.5080 C   0  0  0  0  0  0  0  0  0  0  0  0
   56.5740   29.1020   43.2880 N   0  0  0  0  0  0  0  0  0  0  0  0
   56.7240   30.1930   42.5390 N   0  0  0  0  0  0  0  0  0  0  0  0
   57.3610   31.0810   43.3280 C   0  0  0  0  0  0  0  0  0  0  0  0
   57.7620   32.3690   43.0080 C   0  0  0  0  0  0  0  0  0  0  0  0
   58.4340   33.0960   44.0060 C   0  0  0  0  0  0  0  0  0  0  0  0
   58.6760   32.5060   45.2740 C   0  0  0  0  0  0  0  0  0  0  0  0
   59.3820   33.2250   46.3510 C   0  0  0  0  0  0  0  0  0  0  0  0
   58.8670   34.2090   47.1800 C   0  0  0  0  0  0  0  0  0  0  0  0
   59.8990   34.5730   48.0180 C   0  0  0  0  0  0  0  0  0  0  0  0
   60.9730   33.7930   47.6510 C   0  0  0  0  0  0  0  0  0  0  0  0
   62.7030   33.8370   48.4510 Br  0  0  0  0  0  0  0  0  0  0  0  0
   60.6390   33.0010   46.6590 O   0  0  0  0  0  0  0  0  0  0  0  0
   58.2460   31.2300   45.5070 N   0  0  0  0  0  0  0  0  0  0  0  0
   57.6100   30.5770   44.5380 N   0  0  0  0  0  0  0  0  0  0  0  0
   56.4183   26.1366   47.1176 H   0  0  0  0  0  0  0  0  0  0  0  0
   55.6651   25.4757   45.6267 H   0  0  0  0  0  0  0  0  0  0  0  0
   57.4006   25.9392   45.6267 H   0  0  0  0  0  0  0  0  0  0  0  0
   57.2615   28.8576   46.5796 H   0  0  0  0  0  0  0  0  0  0  0  0
   58.0926   27.7106   45.4642 H   0  0  0  0  0  0  0  0  0  0  0  0
   56.1240   28.2180   42.9630 H   0  0  0  0  0  0  0  0  0  0  0  0
   57.5631   32.8029   42.0169 H   0  0  0  0  0  0  0  0  0  0  0  0
   58.7725   34.1229   43.8041 H   0  0  0  0  0  0  0  0  0  0  0  0
   57.8450   34.6158   47.1710 H   0  0  0  0  0  0  0  0  0  0  0  0
   59.8706   35.3302   48.8154 H   0  0  0  0  0  0  0  0  0  0  0  0
  1  2  1  0
  2  3  1  0
  3  4  1  0
  4  5  2  0
  5  6  1  0
  6  7  2  0
  7  8  1  0
  8  9  2  0
  9 10  1  0
 10 11  1  0
 11 12  2  0
 12 13  1  0
 13 14  2  0
 14 15  1  0
 14 16  1  0
 10 17  2  0
 17 18  1  0
 18  4  1  0
 18  7  1  0
 16 11  1  0
  1 19  1  0
  1 20  1  0
  1 21  1  0
  3 22  1  0
  3 23  1  0
  5 24  1  0
  8 25  1  0
  9 26  1  0
 12 27  1  0
 13 28  1  0
M  CHG  1   5   1
M  END
>  <UniqueID>  (33) 
31

>  <SMILES>  (33) 
COCc1[nH+]nc2ccc(-c3ccc(Br)o3)nn12

>  <Energy>  (33) 
101.04740671817038

>  <Genealogy>  (33) 
COCc1[nH+]nc2ccc(-c3ccc(Br)o3)nn12 (protonated)
COCc1[nH+]nc2ccc(-c3ccc(Br)o3)nn12 (3D coordinates assigned)
COCc1[nH+]nc2ccc(-c3ccc(Br)o3)nn12 (optimized conformer: 101.04740671817038 kcal/mol)

>  <smiles>  (33) 
COCc1nnc2ccc(-c3ccc(Br)o3)nn12

>  <score_type>  (33) 
oracle

>  <origin>  (33) 
adg

>  <m_score__min__energy>  (33) 
-5.7999999999999998

>  <m_primary>  (33) 
energy

$$$$
33:0
     RDKit          3D

 50 52  0  0  0  0  0  0  0  0999 V2000
   56.8330   30.0120   55.0640 C   0  0  0  0  0  0  0  0  0  0  0  0
   56.5900   31.2030   54.3220 O   0  0  0  0  0  0  0  0  0  0  0  0
   57.3560   31.6260   53.2240 C   0  0  0  0  0  0  0  0  0  0  0  0
   58.2750   32.6870   53.3190 C   0  0  0  0  0  0  0  0  0  0  0  0
   59.0220   33.0800   52.2070 C   0  0  0  0  0  0  0  0  0  0  0  0
   58.8710   32.4180   50.9770 C   0  0  0  0  0  0  0  0  0  0  0  0
   59.6500   32.8330   49.7830 C   0  0  0  0  0  0  0  0  0  0  0  0
   58.9930   33.3450   48.7100 N   0  0  0  0  0  0  0  0  0  0  0  0
   59.6450   33.7570   47.5930 C   0  0  0  0  0  0  0  0  0  0  0  0
   58.6720   34.4630   46.2520 S   0  0  0  0  0  0  0  0  0  0  0  0
   57.4630   33.0900   46.1600 C   0  0  0  0  0  0  0  0  0  0  0  0
   57.4600   32.4000   44.7900 C   0  0  0  0  0  0  0  0  0  0  0  0
   57.0100   30.9940   44.8780 N   0  0  0  0  0  0  0  0  0  0  0  0
   58.0480   30.1310   45.4700 C   0  0  0  0  0  0  0  0  0  0  0  0
   56.6620   30.4890   43.5400 C   0  0  0  0  0  0  0  0  0  0  0  0
   61.0440   33.6190   47.5190 C   0  0  0  0  0  0  0  0  0  0  0  0
   61.7840   33.9820   46.3780 C   0  0  0  0  0  0  0  0  0  0  0  0
   63.1740   33.8380   46.3670 C   0  0  0  0  0  0  0  0  0  0  0  0
   63.8370   33.3210   47.4810 C   0  0  0  0  0  0  0  0  0  0  0  0
   63.1120   32.9430   48.6140 C   0  0  0  0  0  0  0  0  0  0  0  0
   61.7150   33.0860   48.6420 C   0  0  0  0  0  0  0  0  0  0  0  0
   61.0080   32.7060   49.7440 N   0  0  0  0  0  0  0  0  0  0  0  0
   57.9430   31.3670   50.8800 C   0  0  0  0  0  0  0  0  0  0  0  0
   57.1880   30.9650   51.9990 C   0  0  0  0  0  0  0  0  0  0  0  0
   56.2610   29.9120   51.9320 O   0  0  0  0  0  0  0  0  0  0  0  0
   54.8540   30.0630   52.0840 C   0  0  0  0  0  0  0  0  0  0  0  0
   56.7875   30.2348   56.1402 H   0  0  0  0  0  0  0  0  0  0  0  0
   56.0696   29.2611   54.8124 H   0  0  0  0  0  0  0  0  0  0  0  0
   57.8296   29.6202   54.8124 H   0  0  0  0  0  0  0  0  0  0  0  0
   58.4060   33.2111   54.2772 H   0  0  0  0  0  0  0  0  0  0  0  0
   59.7339   33.9140   52.2945 H   0  0  0  0  0  0  0  0  0  0  0  0
   57.7157   32.3455   46.9293 H   0  0  0  0  0  0  0  0  0  0  0  0
   56.4616   33.5154   46.3219 H   0  0  0  0  0  0  0  0  0  0  0  0
   56.7831   32.9480   44.1180 H   0  0  0  0  0  0  0  0  0  0  0  0
   58.4908   32.4031   44.4061 H   0  0  0  0  0  0  0  0  0  0  0  0
   57.9859   30.1826   46.5670 H   0  0  0  0  0  0  0  0  0  0  0  0
   57.8922   29.0925   45.1424 H   0  0  0  0  0  0  0  0  0  0  0  0
   59.0405   30.4738   45.1424 H   0  0  0  0  0  0  0  0  0  0  0  0
   56.0404   29.5869   43.6388 H   0  0  0  0  0  0  0  0  0  0  0  0
   56.1032   31.2610   42.9906 H   0  0  0  0  0  0  0  0  0  0  0  0
   57.5823   30.2417   42.9906 H   0  0  0  0  0  0  0  0  0  0  0  0
   61.2668   34.3801   45.4926 H   0  0  0  0  0  0  0  0  0  0  0  0
   63.7481   34.1334   45.4764 H   0  0  0  0  0  0  0  0  0  0  0  0
   64.9314   33.2110   47.4670 H   0  0  0  0  0  0  0  0  0  0  0  0
   63.6378   32.5315   49.4882 H   0  0  0  0  0  0  0  0  0  0  0  0
   61.5160   32.2810   50.5530 H   0  0  0  0  0  0  0  0  0  0  0  0
   57.8046   30.8518   49.9180 H   0  0  0  0  0  0  0  0  0  0  0  0
   54.6016   30.0901   53.1543 H   0  0  0  0  0  0  0  0  0  0  0  0
   54.5323   31.0008   51.6076 H   0  0  0  0  0  0  0  0  0  0  0  0
   54.3406   29.2148   51.6076 H   0  0  0  0  0  0  0  0  0  0  0  0
  1  2  1  0
  2  3  1  0
  3  4  2  0
  4  5  1  0
  5  6  2  0
  6  7  1  0
  7  8  2  0
  8  9  1  0
  9 10  1  0
 10 11  1  0
 11 12  1  0
 12 13  1  0
 13 14  1  0
 13 15  1  0
  9 16  2  0
 16 17  1  0
 17 18  2  0
 18 19  1  0
 19 20  2  0
 20 21  1  0
 21 22  2  0
  6 23  1  0
 23 24  2  0
 24 25  1  0
 25 26  1  0
 24  3  1  0
 22  7  1  0
 21 16  1  0
  1 27  1  0
  1 28  1  0
  1 29  1  0
  4 30  1  0
  5 31  1  0
 11 32  1  0
 11 33  1  0
 12 34  1  0
 12 35  1  0
 14 36  1  0
 14 37  1  0
 14 38  1  0
 15 39  1  0
 15 40  1  0
 15 41  1  0
 17 42  1  0
 18 43  1  0
 19 44  1  0
 20 45  1  0
 22 46  1  0
 23 47  1  0
 26 48  1  0
 26 49  1  0
 26 50  1  0
M  CHG  1  22   1
M  END
>  <UniqueID>  (34) 
32

>  <SMILES>  (34) 
COc1ccc(-c2nc(SCCN(C)C)c3ccccc3[nH+]2)cc1OC

>  <Energy>  (34) 
53.55158154651009

>  <Genealogy>  (34) 
COc1ccc(-c2nc(SCCN(C)C)c3ccccc3[nH+]2)cc1OC (protonated)
COc1ccc(-c2nc(SCCN(C)C)c3ccccc3[nH+]2)cc1OC (3D coordinates assigned)
COc1ccc(-c2nc(SCCN(C)C)c3ccccc3[nH+]2)cc1OC (optimized conformer: 53.55158154651009 kcal/mol)

>  <smiles>  (34) 
COc1ccc(-c2nc(SCCN(C)C)c3ccccc3n2)cc1OC

>  <score_type>  (34) 
oracle

>  <origin>  (34) 
adg

>  <m_score__min__energy>  (34) 
-6.5800000000000001

>  <m_primary>  (34) 
energy

$$$$
34:0
     RDKit          3D

 49 51  0  0  0  0  0  0  0  0999 V2000
   62.9400   34.1910   48.2570 F   0  0  0  0  0  0  0  0  0  0  0  0
   62.5720   33.4280   47.1650 C   0  0  0  0  0  0  0  0  0  0  0  0
   62.9630   34.0860   46.0120 F   0  0  0  0  0  0  0  0  0  0  0  0
   63.2250   32.2090   47.2340 F   0  0  0  0  0  0  0  0  0  0  0  0
   61.0530   33.2180   47.1730 C   0  0  0  0  0  0  0  0  0  0  0  0
   60.7180   32.4040   48.2430 F   0  0  0  0  0  0  0  0  0  0  0  0
   60.6890   32.5740   46.0030 F   0  0  0  0  0  0  0  0  0  0  0  0
   60.2960   34.5530   47.2990 C   0  0  0  0  0  0  0  0  0  0  0  0
   58.8770   34.3840   46.9110 N   0  0  0  0  0  0  0  0  0  0  0  0
   58.7070   34.5030   45.4460 C   0  0  0  0  0  0  0  0  0  0  0  0
   57.3500   33.9430   44.9990 C   0  0  0  0  0  0  0  0  0  0  0  0
   57.2070   32.4970   45.3120 N   0  0  0  0  0  0  0  0  0  0  0  0
   57.3950   31.6620   44.1070 C   0  0  0  0  0  0  0  0  0  0  0  0
   57.6880   30.2320   44.4830 C   0  0  0  0  0  0  0  0  0  0  0  0
   59.0080   29.7540   44.4960 C   0  0  0  0  0  0  0  0  0  0  0  0
   59.2750   28.4390   44.8820 C   0  0  0  0  0  0  0  0  0  0  0  0
   58.2300   27.5900   45.2550 C   0  0  0  0  0  0  0  0  0  0  0  0
   56.9020   28.0510   45.2330 C   0  0  0  0  0  0  0  0  0  0  0  0
   55.8270   27.2370   45.6200 O   0  0  0  0  0  0  0  0  0  0  0  0
   55.9270   25.9040   46.0440 C   0  0  0  0  0  0  0  0  0  0  0  0
   56.8560   25.5010   47.0220 C   0  0  0  0  0  0  0  0  0  0  0  0
   56.9340   24.1580   47.4060 C   0  0  0  0  0  0  0  0  0  0  0  0
   56.0970   23.2100   46.8110 C   0  0  0  0  0  0  0  0  0  0  0  0
   55.1870   23.6010   45.8270 C   0  0  0  0  0  0  0  0  0  0  0  0
   55.1070   24.9430   45.4400 C   0  0  0  0  0  0  0  0  0  0  0  0
   56.6420   29.3770   44.8650 C   0  0  0  0  0  0  0  0  0  0  0  0
   58.0860   32.0490   46.4210 C   0  0  0  0  0  0  0  0  0  0  0  0
   58.2710   33.1490   47.4760 C   0  0  0  0  0  0  0  0  0  0  0  0
   60.3472   34.9010   48.3412 H   0  0  0  0  0  0  0  0  0  0  0  0
   60.7622   35.2906   46.6292 H   0  0  0  0  0  0  0  0  0  0  0  0
   58.7686   35.5640   45.1624 H   0  0  0  0  0  0  0  0  0  0  0  0
   59.5025   33.9240   44.9542 H   0  0  0  0  0  0  0  0  0  0  0  0
   56.5514   34.4973   45.5138 H   0  0  0  0  0  0  0  0  0  0  0  0
   57.2801   34.0601   43.9075 H   0  0  0  0  0  0  0  0  0  0  0  0
   56.4781   31.6941   43.5001 H   0  0  0  0  0  0  0  0  0  0  0  0
   58.2482   32.0568   43.5358 H   0  0  0  0  0  0  0  0  0  0  0  0
   59.8344   30.4175   44.2012 H   0  0  0  0  0  0  0  0  0  0  0  0
   60.3113   28.0703   44.8925 H   0  0  0  0  0  0  0  0  0  0  0  0
   58.4469   26.5577   45.5669 H   0  0  0  0  0  0  0  0  0  0  0  0
   57.5221   26.2438   47.4853 H   0  0  0  0  0  0  0  0  0  0  0  0
   57.6548   23.8479   48.1769 H   0  0  0  0  0  0  0  0  0  0  0  0
   56.1552   22.1553   47.1181 H   0  0  0  0  0  0  0  0  0  0  0  0
   54.5323   22.8532   45.3556 H   0  0  0  0  0  0  0  0  0  0  0  0
   54.3960   25.2449   44.6569 H   0  0  0  0  0  0  0  0  0  0  0  0
   55.6081   29.7523   44.8754 H   0  0  0  0  0  0  0  0  0  0  0  0
   57.6350   31.1674   46.8999 H   0  0  0  0  0  0  0  0  0  0  0  0
   59.0731   31.8062   46.0007 H   0  0  0  0  0  0  0  0  0  0  0  0
   57.2875   33.4006   47.8995 H   0  0  0  0  0  0  0  0  0  0  0  0
   58.9557   32.7625   48.2453 H   0  0  0  0  0  0  0  0  0  0  0  0
  1  2  1  0
  2  3  1  0
  2  4  1  0
  2  5  1  0
  5  6  1  0
  5  7  1  0
  5  8  1  0
  8  9  1  0
  9 10  1  0
 10 11  1  0
 11 12  1  0
 12 13  1  0
 13 14  1  0
 14 15  2  0
 15 16  1  0
 16 17  2  0
 17 18  1  0
 18 19  1  0
 19 20  1  0
 20 21  2  0
 21 22  1  0
 22 23  2  0
 23 24  1  0
 24 25  2  0
 18 26  2  0
 12 27  1  0
 27 28  1  0
 28  9  1  0
 26 14  1  0
 25 20  1  0
  8 29  1  0
  8 30  1  0
 10 31  1  0
 10 32  1  0
 11 33  1  0
 11 34  1  0
 13 35  1  0
 13 36  1  0
 15 37  1  0
 16 38  1  0
 17 39  1  0
 21 40  1  0
 22 41  1  0
 23 42  1  0
 24 43  1  0
 25 44  1  0
 26 45  1  0
 27 46  1  0
 27 47  1  0
 28 48  1  0
 28 49  1  0
M  END
>  <UniqueID>  (35) 
33

>  <SMILES>  (35) 
FC(F)(F)C(F)(F)CN1CCN(Cc2cccc(Oc3ccccc3)c2)CC1

>  <Energy>  (35) 
67.97364985561914

>  <Genealogy>  (35) 
FC(F)(F)C(F)(F)CN1CCN(Cc2cccc(Oc3ccccc3)c2)CC1 (3D coordinates assigned)
FC(F)(F)C(F)(F)CN1CCN(Cc2cccc(Oc3ccccc3)c2)CC1 (nonaromatic ring conformer: 67.97364985561914 kcal/mol)

>  <smiles>  (35) 
FC(F)(F)C(F)(F)CN1CCN(Cc2cccc(Oc3ccccc3)c2)CC1

>  <score_type>  (35) 
oracle

>  <origin>  (35) 
adg

>  <m_score__min__energy>  (35) 
-7.3600000000000003

>  <m_primary>  (35) 
energy

$$$$
35:0
     RDKit          3D

 28 29  0  0  0  0  0  0  0  0999 V2000
   54.7160   30.3560   44.5400 H   0  0  0  0  0  0  0  0  0  0  0  0
   55.1800   29.4210   44.5910 N   0  0  0  0  0  0  0  0  0  0  0  0
   54.5620   28.5910   44.4850 H   0  0  0  0  0  0  0  0  0  0  0  0
   56.4560   29.2900   45.1680 N   0  0  0  0  0  0  0  0  0  0  0  0
   56.8040   28.0590   45.6660 C   0  0  0  0  0  0  0  0  0  0  0  0
   55.9740   27.1090   45.6410 O   0  0  0  0  0  0  0  0  0  0  0  0
   58.0860   27.8360   46.1870 C   0  0  0  0  0  0  0  0  0  0  0  0
   58.9760   28.9070   46.2300 C   0  0  0  0  0  0  0  0  0  0  0  0
   58.5970   30.1130   45.7470 N   0  0  0  0  0  0  0  0  0  0  0  0
   57.3610   30.3360   45.2280 C   0  0  0  0  0  0  0  0  0  0  0  0
   57.0960   31.5670   44.8690 N   0  0  0  0  0  0  0  0  0  0  0  0
   57.9290   32.6820   44.4220 C   0  0  0  0  0  0  0  0  0  0  0  0
   57.6546   32.9475   43.3904 H   0  0  0  0  0  0  0  0  0  0  0  0
   58.9848   32.3769   44.4682 H   0  0  0  0  0  0  0  0  0  0  0  0
   57.7280   33.8970   45.3230 C   0  0  0  0  0  0  0  0  0  0  0  0
   57.7796   33.5848   46.3765 H   0  0  0  0  0  0  0  0  0  0  0  0
   58.5158   34.6376   45.1210 H   0  0  0  0  0  0  0  0  0  0  0  0
   56.7436   34.3444   45.1210 H   0  0  0  0  0  0  0  0  0  0  0  0
   60.3690   28.7210   46.7560 C   0  0  0  0  0  0  0  0  0  0  0  0
   60.6254   29.5698   47.4070 H   0  0  0  0  0  0  0  0  0  0  0  0
   61.0641   28.6688   45.9050 H   0  0  0  0  0  0  0  0  0  0  0  0
   60.4760   27.4200   47.5600 C   0  0  0  0  0  0  0  0  0  0  0  0
   59.9461   27.5391   48.5166 H   0  0  0  0  0  0  0  0  0  0  0  0
   61.5374   27.1977   47.7445 H   0  0  0  0  0  0  0  0  0  0  0  0
   59.8990   26.3510   46.8360 O   0  0  0  0  0  0  0  0  0  0  0  0
   58.4910   26.5060   46.7840 C   0  0  0  0  0  0  0  0  0  0  0  0
   58.0889   26.4387   47.8057 H   0  0  0  0  0  0  0  0  0  0  0  0
   58.0862   25.7096   46.1423 H   0  0  0  0  0  0  0  0  0  0  0  0
  1  2  1  0
  2  3  1  0
  2  4  1  0
  4  5  1  0
  5  6  2  0
  5  7  1  0
  7  8  2  0
  8  9  1  0
  9 10  1  0
 10 11  2  0
 11 12  1  0
 12 13  1  0
 12 14  1  0
 12 15  1  0
 15 16  1  0
 15 17  1  0
 15 18  1  0
  8 19  1  0
 19 20  1  0
 19 21  1  0
 19 22  1  0
 22 23  1  0
 22 24  1  0
 22 25  1  0
 25 26  1  0
 26 27  1  0
 26 28  1  0
 10  4  1  0
 26  7  1  0
M  CHG  1   9  -1
M  END
>  <UniqueID>  (36) 
34

>  <SMILES>  (36) 
CC/N=c1/[n-]c2c(c(=O)n1N)COCC2

>  <Energy>  (36) 
48.23945059848056

>  <Genealogy>  (36) 
CCN=c1[n-]c2c(c(=O)n1N)COCC2 (protonated)
CC/N=c1/[n-]c2c(c(=O)n1N)COCC2 (cis-trans isomerization)
CC/N=c1/[n-]c2c(c(=O)n1N)COCC2 (3D coordinates assigned)
CC/N=c1/[n-]c2c(c(=O)n1N)COCC2 (nonaromatic ring conformer: 48.23945059848056 kcal/mol)

>  <smiles>  (36) 
CCN=c1[nH]c2c(c(=O)n1N)COCC2

>  <score_type>  (36) 
oracle

>  <origin>  (36) 
adg

>  <m_score__min__energy>  (36) 
-7.4500000000000002

>  <m_primary>  (36) 
energy

$$$$
36:0
     RDKit          3D

 53 55  0  0  0  0  0  0  0  0999 V2000
   62.5900   33.1770   47.0980 C   0  0  0  0  0  0  0  0  0  0  0  0
   61.2510   32.7190   47.2430 O   0  0  0  0  0  0  0  0  0  0  0  0
   60.1670   33.1660   46.4690 C   0  0  0  0  0  0  0  0  0  0  0  0
   59.9920   34.5270   46.1450 C   0  0  0  0  0  0  0  0  0  0  0  0
   58.9120   34.9320   45.3560 C   0  0  0  0  0  0  0  0  0  0  0  0
   57.9990   33.9890   44.8820 C   0  0  0  0  0  0  0  0  0  0  0  0
   58.1600   32.6390   45.1970 C   0  0  0  0  0  0  0  0  0  0  0  0
   59.2380   32.2200   45.9950 C   0  0  0  0  0  0  0  0  0  0  0  0
   59.3890   30.8290   46.3290 N   0  0  0  0  0  0  0  0  0  0  0  0
   58.8980   30.3490   47.6240 C   0  0  0  0  0  0  0  0  0  0  0  0
   59.7750   29.2030   48.1300 C   0  0  0  0  0  0  0  0  0  0  0  0
   59.9710   28.2080   47.0660 N   0  0  0  0  0  0  0  0  0  0  0  0
   59.9600   26.7990   47.3900 C   0  0  0  0  0  0  0  0  0  0  0  0
   60.0780   26.4290   48.5910 O   0  0  0  0  0  0  0  0  0  0  0  0
   59.8100   25.7420   46.3290 C   0  0  0  0  0  0  0  0  0  0  0  0
   58.4770   25.1070   46.4030 N   0  0  0  0  0  0  0  0  0  0  0  0
   57.3840   26.1050   46.5570 C   0  0  0  0  0  0  0  0  0  0  0  0
   57.3170   27.1830   45.4560 C   0  0  0  0  0  0  0  0  0  0  0  0
   58.1300   26.8760   44.1730 C   0  0  0  0  0  0  0  0  0  0  0  0
   57.6820   25.6360   43.3780 C   0  0  0  0  0  0  0  0  0  0  0  0
   57.2900   24.4380   44.2550 C   0  0  0  0  0  0  0  0  0  0  0  0
   58.2980   24.0690   45.3590 C   0  0  0  0  0  0  0  0  0  0  0  0
   60.4770   28.6990   45.7750 C   0  0  0  0  0  0  0  0  0  0  0  0
   59.6010   29.8430   45.2640 C   0  0  0  0  0  0  0  0  0  0  0  0
   63.0351   33.3293   48.0923 H   0  0  0  0  0  0  0  0  0  0  0  0
   63.1758   32.4281   46.5448 H   0  0  0  0  0  0  0  0  0  0  0  0
   62.5944   34.1277   46.5448 H   0  0  0  0  0  0  0  0  0  0  0  0
   60.7095   35.2741   46.5153 H   0  0  0  0  0  0  0  0  0  0  0  0
   58.7814   35.9957   45.1082 H   0  0  0  0  0  0  0  0  0  0  0  0
   57.1512   34.3103   44.2591 H   0  0  0  0  0  0  0  0  0  0  0  0
   57.4393   31.8991   44.8186 H   0  0  0  0  0  0  0  0  0  0  0  0
   58.9237   31.1743   48.3508 H   0  0  0  0  0  0  0  0  0  0  0  0
   57.8667   29.9856   47.5043 H   0  0  0  0  0  0  0  0  0  0  0  0
   60.7523   29.6021   48.4391 H   0  0  0  0  0  0  0  0  0  0  0  0
   59.2792   28.7215   48.9858 H   0  0  0  0  0  0  0  0  0  0  0  0
   59.9341   26.2051   45.3390 H   0  0  0  0  0  0  0  0  0  0  0  0
   60.5769   24.9701   46.4904 H   0  0  0  0  0  0  0  0  0  0  0  0
   56.4268   25.5630   46.5609 H   0  0  0  0  0  0  0  0  0  0  0  0
   57.5905   26.6405   47.4954 H   0  0  0  0  0  0  0  0  0  0  0  0
   56.2629   27.3082   45.1677 H   0  0  0  0  0  0  0  0  0  0  0  0
   57.7676   28.0875   45.8905 H   0  0  0  0  0  0  0  0  0  0  0  0
   58.0541   27.7490   43.5081 H   0  0  0  0  0  0  0  0  0  0  0  0
   59.1540   26.6603   44.5120 H   0  0  0  0  0  0  0  0  0  0  0  0
   56.8125   25.9144   42.7645 H   0  0  0  0  0  0  0  0  0  0  0  0
   58.5440   25.3181   42.7730 H   0  0  0  0  0  0  0  0  0  0  0  0
   56.3290   24.6705   44.7370 H   0  0  0  0  0  0  0  0  0  0  0  0
   57.2482   23.5699   43.5807 H   0  0  0  0  0  0  0  0  0  0  0  0
   57.9495   23.1472   45.8477 H   0  0  0  0  0  0  0  0  0  0  0  0
   59.2736   23.9525   44.8644 H   0  0  0  0  0  0  0  0  0  0  0  0
   61.5081   29.0603   45.9027 H   0  0  0  0  0  0  0  0  0  0  0  0
   60.4544   27.8765   45.0449 H   0  0  0  0  0  0  0  0  0  0  0  0
   60.0980   30.3292   44.4116 H   0  0  0  0  0  0  0  0  0  0  0  0
   58.6279   29.4385   44.9485 H   0  0  0  0  0  0  0  0  0  0  0  0
  1  2  1  0
  2  3  1  0
  3  4  2  0
  4  5  1  0
  5  6  2  0
  6  7  1  0
  7  8  2  0
  8  9  1  0
  9 10  1  0
 10 11  1  0
 11 12  1  0
 12 13  1  0
 13 14  2  0
 13 15  1  0
 15 16  1  0
 16 17  1  0
 17 18  1  0
 18 19  1  0
 19 20  1  0
 20 21  1  0
 21 22  1  0
 12 23  1  0
 23 24  1  0
  8  3  1  0
 24  9  1  0
 22 16  1  0
  1 25  1  0
  1 26  1  0
  1 27  1  0
  4 28  1  0
  5 29  1  0
  6 30  1  0
  7 31  1  0
 10 32  1  0
 10 33  1  0
 11 34  1  0
 11 35  1  0
 15 36  1  0
 15 37  1  0
 17 38  1  0
 17 39  1  0
 18 40  1  0
 18 41  1  0
 19 42  1  0
 19 43  1  0
 20 44  1  0
 20 45  1  0
 21 46  1  0
 21 47  1  0
 22 48  1  0
 22 49  1  0
 23 50  1  0
 23 51  1  0
 24 52  1  0
 24 53  1  0
M  END
>  <UniqueID>  (37) 
35

>  <SMILES>  (37) 
COc1ccccc1N1CCN(C(=O)CN2CCCCCC2)CC1

>  <Energy>  (37) 
71.22051661241012

>  <Genealogy>  (37) 
COc1ccccc1N1CCN(C(=O)CN2CCCCCC2)CC1 (3D coordinates assigned)
COc1ccccc1N1CCN(C(=O)CN2CCCCCC2)CC1 (nonaromatic ring conformer: 71.22051661241012 kcal/mol)

>  <smiles>  (37) 
COc1ccccc1N1CCN(C(=O)CN2CCCCCC2)CC1

>  <score_type>  (37) 
oracle

>  <origin>  (37) 
adg

>  <m_score__min__energy>  (37) 
-4.9800000000000004

>  <m_primary>  (37) 
energy

$$$$
37:0
     RDKit          3D

 44 47  0  0  0  0  0  0  0  0999 V2000
   56.9440   30.5490   45.0600 O   0  0  0  0  0  0  0  0  0  0  0  0
   57.4830   31.7890   45.3990 C   0  0  0  0  0  0  0  0  0  0  0  0
   57.1500   32.9120   44.6170 C   0  0  0  0  0  0  0  0  0  0  0  0
   57.7050   34.1610   44.8950 C   0  0  0  0  0  0  0  0  0  0  0  0
   58.6370   34.2390   45.9200 C   0  0  0  0  0  0  0  0  0  0  0  0
   59.3520   35.3290   46.2290 N   0  0  0  0  0  0  0  0  0  0  0  0
   60.2100   34.9510   47.1630 N   0  0  0  0  0  0  0  0  0  0  0  0
   59.9970   33.6420   47.4300 C   0  0  0  0  0  0  0  0  0  0  0  0
   61.0440   32.8250   48.1690 C   0  0  0  0  0  0  0  0  0  0  0  0
   61.9900   32.1560   47.1410 C   0  0  0  0  0  0  0  0  0  0  0  0
   63.3390   31.7990   47.7730 C   0  0  0  0  0  0  0  0  0  0  0  0
   64.0860   33.0550   48.2680 C   0  0  0  0  0  0  0  0  0  0  0  0
   63.1460   34.2100   48.6670 C   0  0  0  0  0  0  0  0  0  0  0  0
   61.8100   33.6890   49.2130 C   0  0  0  0  0  0  0  0  0  0  0  0
   58.9820   33.1620   46.6550 N   0  0  0  0  0  0  0  0  0  0  0  0
   58.3650   31.9390   46.5090 C   0  0  0  0  0  0  0  0  0  0  0  0
   58.5670   30.8310   47.5330 C   0  0  0  0  0  0  0  0  0  0  0  0
   59.2060   29.5680   47.0060 C   0  0  0  0  0  0  0  0  0  0  0  0
   59.9200   29.5910   45.7950 C   0  0  0  0  0  0  0  0  0  0  0  0
   60.5170   28.4250   45.3080 C   0  0  0  0  0  0  0  0  0  0  0  0
   60.4030   27.2290   46.0220 C   0  0  0  0  0  0  0  0  0  0  0  0
   59.6920   27.1970   47.2240 C   0  0  0  0  0  0  0  0  0  0  0  0
   59.0930   28.3610   47.7160 C   0  0  0  0  0  0  0  0  0  0  0  0
   56.2490   30.0910   45.6390 H   0  0  0  0  0  0  0  0  0  0  0  0
   56.4456   32.8030   43.7792 H   0  0  0  0  0  0  0  0  0  0  0  0
   57.4139   35.0534   44.3215 H   0  0  0  0  0  0  0  0  0  0  0  0
   60.5465   32.0309   48.7450 H   0  0  0  0  0  0  0  0  0  0  0  0
   61.5169   31.2372   46.7642 H   0  0  0  0  0  0  0  0  0  0  0  0
   62.1690   32.8672   46.3211 H   0  0  0  0  0  0  0  0  0  0  0  0
   63.1663   31.1271   48.6266 H   0  0  0  0  0  0  0  0  0  0  0  0
   63.9588   31.3105   47.0067 H   0  0  0  0  0  0  0  0  0  0  0  0
   64.6899   32.7784   49.1448 H   0  0  0  0  0  0  0  0  0  0  0  0
   64.7051   33.4144   47.4328 H   0  0  0  0  0  0  0  0  0  0  0  0
   63.6360   34.8172   49.4424 H   0  0  0  0  0  0  0  0  0  0  0  0
   62.9395   34.8109   47.7691 H   0  0  0  0  0  0  0  0  0  0  0  0
   62.0069   33.0753   50.1044 H   0  0  0  0  0  0  0  0  0  0  0  0
   61.1826   34.5592   49.4562 H   0  0  0  0  0  0  0  0  0  0  0  0
   59.2066   31.2246   48.3367 H   0  0  0  0  0  0  0  0  0  0  0  0
   57.5600   30.5428   47.8691 H   0  0  0  0  0  0  0  0  0  0  0  0
   60.0090   30.5300   45.2289 H   0  0  0  0  0  0  0  0  0  0  0  0
   61.0772   28.4486   44.3617 H   0  0  0  0  0  0  0  0  0  0  0  0
   60.8735   26.3122   45.6372 H   0  0  0  0  0  0  0  0  0  0  0  0
   59.6031   26.2547   47.7845 H   0  0  0  0  0  0  0  0  0  0  0  0
   58.5318   28.3314   48.6616 H   0  0  0  0  0  0  0  0  0  0  0  0
  1  2  1  0
  2  3  1  0
  3  4  2  0
  4  5  1  0
  5  6  2  0
  6  7  1  0
  7  8  2  0
  8  9  1  0
  9 10  1  0
 10 11  1  0
 11 12  1  0
 12 13  1  0
 13 14  1  0
  8 15  1  0
 15 16  1  0
 16 17  1  0
 17 18  1  0
 18 19  2  0
 19 20  1  0
 20 21  2  0
 21 22  1  0
 22 23  2  0
 16  2  2  0
 23 18  1  0
 15  5  1  0
 14  9  1  0
  1 24  1  0
  3 25  1  0
  4 26  1  0
  9 27  1  0
 10 28  1  0
 10 29  1  0
 11 30  1  0
 11 31  1  0
 12 32  1  0
 12 33  1  0
 13 34  1  0
 13 35  1  0
 14 36  1  0
 14 37  1  0
 17 38  1  0
 17 39  1  0
 19 40  1  0
 20 41  1  0
 21 42  1  0
 22 43  1  0
 23 44  1  0
M  END
>  <UniqueID>  (38) 
36

>  <SMILES>  (38) 
Oc1ccc2nnc(C3CCCCC3)n2c1Cc1ccccc1

>  <Energy>  (38) 
102.10006874146359

>  <Genealogy>  (38) 
Oc1ccc2nnc(C3CCCCC3)n2c1Cc1ccccc1 (3D coordinates assigned)
Oc1ccc2nnc(C3CCCCC3)n2c1Cc1ccccc1 (nonaromatic ring conformer: 102.10006874146359 kcal/mol)

>  <smiles>  (38) 
Oc1ccc2nnc(C3CCCCC3)n2c1Cc1ccccc1

>  <score_type>  (38) 
oracle

>  <origin>  (38) 
adg

>  <m_score__min__energy>  (38) 
-8.1199999999999992

>  <m_primary>  (38) 
energy

$$$$
38:0
     RDKit          3D

 62 65  0  0  0  0  0  0  0  0999 V2000
   63.6780   33.3910   46.4180 C   0  0  0  0  0  0  0  0  0  0  0  0
   62.6430   33.8160   47.4560 C   0  0  0  0  0  0  0  0  0  0  0  0
   62.9070   33.1670   48.7500 N   0  0  0  0  0  0  0  0  0  0  0  0
   63.9870   33.7090   49.5900 C   0  0  0  0  0  0  0  0  0  0  0  0
   65.1350   32.7110   49.6950 C   0  0  0  0  0  0  0  0  0  0  0  0
   62.1690   32.0030   49.2080 C   0  0  0  0  0  0  0  0  0  0  0  0
   62.4900   31.4650   50.3040 O   0  0  0  0  0  0  0  0  0  0  0  0
   61.0590   31.3560   48.3990 C   0  0  0  0  0  0  0  0  0  0  0  0
   60.1560   30.4560   49.2870 C   0  0  0  0  0  0  0  0  0  0  0  0
   59.6340   29.1990   48.5640 C   0  0  0  0  0  0  0  0  0  0  0  0
   59.4600   29.4380   47.1270 N   0  0  0  0  0  0  0  0  0  0  0  0
   58.2530   29.0150   46.4710 C   0  0  0  0  0  0  0  0  0  0  0  0
   57.4710   29.9440   45.7480 C   0  0  0  0  0  0  0  0  0  0  0  0
   57.8860   31.3570   45.6320 C   0  0  0  0  0  0  0  0  0  0  0  0
   58.1380   31.9140   44.3700 C   0  0  0  0  0  0  0  0  0  0  0  0
   58.5130   33.2540   44.2580 C   0  0  0  0  0  0  0  0  0  0  0  0
   58.6460   34.0450   45.4040 C   0  0  0  0  0  0  0  0  0  0  0  0
   58.4080   33.4930   46.6780 C   0  0  0  0  0  0  0  0  0  0  0  0
   58.5330   34.2410   47.8580 O   0  0  0  0  0  0  0  0  0  0  0  0
   59.7000   34.2660   48.6730 C   0  0  0  0  0  0  0  0  0  0  0  0
   58.0350   32.1470   46.7810 C   0  0  0  0  0  0  0  0  0  0  0  0
   56.2780   29.5070   45.1410 C   0  0  0  0  0  0  0  0  0  0  0  0
   55.5610   30.3120   44.4870 O   0  0  0  0  0  0  0  0  0  0  0  0
   55.8910   28.2100   45.2470 N   0  0  0  0  0  0  0  0  0  0  0  0
   56.6210   27.2970   45.9360 C   0  0  0  0  0  0  0  0  0  0  0  0
   56.1820   25.9740   46.0260 C   0  0  0  0  0  0  0  0  0  0  0  0
   56.9290   25.0450   46.7490 C   0  0  0  0  0  0  0  0  0  0  0  0
   56.3890   23.3800   46.8750 Cl  0  0  0  0  0  0  0  0  0  0  0  0
   58.1080   25.4520   47.3780 C   0  0  0  0  0  0  0  0  0  0  0  0
   58.5280   26.7440   47.2830 N   0  0  0  0  0  0  0  0  0  0  0  0
   57.8210   27.6760   46.5740 C   0  0  0  0  0  0  0  0  0  0  0  0
   60.5360   30.0340   46.3260 C   0  0  0  0  0  0  0  0  0  0  0  0
   61.6590   30.5790   47.2160 C   0  0  0  0  0  0  0  0  0  0  0  0
   64.5791   33.0210   46.9289 H   0  0  0  0  0  0  0  0  0  0  0  0
   63.2593   32.5920   45.7885 H   0  0  0  0  0  0  0  0  0  0  0  0
   63.9416   34.2537   45.7885 H   0  0  0  0  0  0  0  0  0  0  0  0
   62.6872   34.9076   47.5839 H   0  0  0  0  0  0  0  0  0  0  0  0
   61.6455   33.5128   47.1054 H   0  0  0  0  0  0  0  0  0  0  0  0
   64.3590   34.6428   49.1431 H   0  0  0  0  0  0  0  0  0  0  0  0
   63.5906   33.9020   50.5978 H   0  0  0  0  0  0  0  0  0  0  0  0
   65.3572   32.5179   50.7549 H   0  0  0  0  0  0  0  0  0  0  0  0
   64.8488   31.7698   49.2029 H   0  0  0  0  0  0  0  0  0  0  0  0
   66.0273   33.1254   49.2029 H   0  0  0  0  0  0  0  0  0  0  0  0
   60.4097   32.1475   47.9966 H   0  0  0  0  0  0  0  0  0  0  0  0
   60.7388   30.1360   50.1633 H   0  0  0  0  0  0  0  0  0  0  0  0
   59.2769   31.0561   49.5647 H   0  0  0  0  0  0  0  0  0  0  0  0
   60.3548   28.3802   48.7054 H   0  0  0  0  0  0  0  0  0  0  0  0
   58.6547   28.9371   48.9912 H   0  0  0  0  0  0  0  0  0  0  0  0
   58.0400   31.2940   43.4667 H   0  0  0  0  0  0  0  0  0  0  0  0
   58.7044   33.6890   43.2660 H   0  0  0  0  0  0  0  0  0  0  0  0
   58.9374   35.1015   45.3101 H   0  0  0  0  0  0  0  0  0  0  0  0
   59.4070   34.2597   49.7332 H   0  0  0  0  0  0  0  0  0  0  0  0
   60.3166   33.3809   48.4577 H   0  0  0  0  0  0  0  0  0  0  0  0
   60.2781   35.1767   48.4577 H   0  0  0  0  0  0  0  0  0  0  0  0
   57.8572   31.7053   47.7726 H   0  0  0  0  0  0  0  0  0  0  0  0
   55.2505   25.6663   45.5284 H   0  0  0  0  0  0  0  0  0  0  0  0
   58.7003   24.7251   47.9531 H   0  0  0  0  0  0  0  0  0  0  0  0
   59.4090   27.0030   47.7780 H   0  0  0  0  0  0  0  0  0  0  0  0
   60.9508   29.2665   45.6560 H   0  0  0  0  0  0  0  0  0  0  0  0
   60.1153   30.8701   45.7481 H   0  0  0  0  0  0  0  0  0  0  0  0
   62.2609   29.7412   47.5977 H   0  0  0  0  0  0  0  0  0  0  0  0
   62.2944   31.2543   46.6243 H   0  0  0  0  0  0  0  0  0  0  0  0
  1  2  1  0
  2  3  1  0
  3  4  1  0
  4  5  1  0
  3  6  1  0
  6  7  2  0
  6  8  1  0
  8  9  1  0
  9 10  1  0
 10 11  1  0
 11 12  1  0
 12 13  2  0
 13 14  1  0
 14 15  2  0
 15 16  1  0
 16 17  2  0
 17 18  1  0
 18 19  1  0
 19 20  1  0
 18 21  2  0
 13 22  1  0
 22 23  2  0
 22 24  1  0
 24 25  1  0
 25 26  2  0
 26 27  1  0
 27 28  1  0
 27 29  2  0
 29 30  1  0
 30 31  2  0
 11 32  1  0
 32 33  1  0
 33  8  1  0
 31 12  1  0
 21 14  1  0
 31 25  1  0
  1 34  1  0
  1 35  1  0
  1 36  1  0
  2 37  1  0
  2 38  1  0
  4 39  1  0
  4 40  1  0
  5 41  1  0
  5 42  1  0
  5 43  1  0
  8 44  1  0
  9 45  1  0
  9 46  1  0
 10 47  1  0
 10 48  1  0
 15 49  1  0
 16 50  1  0
 17 51  1  0
 20 52  1  0
 20 53  1  0
 20 54  1  0
 21 55  1  0
 26 56  1  0
 29 57  1  0
 30 58  1  0
 32 59  1  0
 32 60  1  0
 33 61  1  0
 33 62  1  0
M  CHG  2  24  -1  30   1
M  END
>  <UniqueID>  (39) 
37

>  <SMILES>  (39) 
CCN(CC)C(=O)C1CCN(c2c(-c3cccc(OC)c3)c(=O)[n-]c3cc(Cl)c[nH+]c23)CC1

>  <Energy>  (39) 
77.25866505256307

>  <Genealogy>  (39) 
CCN(CC)C(=O)C1CCN(c2c(-c3cccc(OC)c3)c(=O)[n-]c3cc(Cl)c[nH+]c23)CC1 (protonated)
CCN(CC)C(=O)C1CCN(c2c(-c3cccc(OC)c3)c(=O)[n-]c3cc(Cl)c[nH+]c23)CC1 (3D coordinates assigned)
CCN(CC)C(=O)C1CCN(c2c(-c3cccc(OC)c3)c(=O)[n-]c3cc(Cl)c[nH+]c23)CC1 (nonaromatic ring conformer: 77.25866505256307 kcal/mol)

>  <smiles>  (39) 
CCN(CC)C(=O)C1CCN(c2c(-c3cccc(OC)c3)c(=O)[nH]c3cc(Cl)cnc23)CC1

>  <score_type>  (39) 
oracle

>  <origin>  (39) 
adg

>  <m_score__min__energy>  (39) 
-9.3900000000000006

>  <m_primary>  (39) 
energy

$$$$
39:0
     RDKit          3D

 45 46  0  0  0  0  0  0  0  0999 V2000
   63.4000   33.1880   46.7530 C   0  0  0  0  0  0  0  0  0  0  0  0
   62.9150   32.9190   48.1780 C   0  0  0  0  0  0  0  0  0  0  0  0
   62.5220   34.2050   48.9260 C   0  0  0  0  0  0  0  0  0  0  0  0
   61.0820   34.2050   49.4660 C   0  0  0  0  0  0  0  0  0  0  0  0
   60.0720   33.8770   48.3960 C   0  0  0  0  0  0  0  0  0  0  0  0
   59.0460   32.9520   48.6440 C   0  0  0  0  0  0  0  0  0  0  0  0
   58.1020   32.6630   47.6560 C   0  0  0  0  0  0  0  0  0  0  0  0
   58.1700   33.2950   46.4040 C   0  0  0  0  0  0  0  0  0  0  0  0
   57.1980   32.9350   45.3160 C   0  0  0  0  0  0  0  0  0  0  0  0
   58.0650   32.2360   43.8640 S   0  0  0  0  0  0  0  0  0  0  0  0
   58.3930   30.6310   44.6190 C   0  0  0  0  0  0  0  0  0  0  0  0
   59.3300   30.5660   45.6590 C   0  0  0  0  0  0  0  0  0  0  0  0
   59.6280   29.3460   46.2690 C   0  0  0  0  0  0  0  0  0  0  0  0
   58.9820   28.1820   45.8550 C   0  0  0  0  0  0  0  0  0  0  0  0
   58.0310   28.2340   44.8330 C   0  0  0  0  0  0  0  0  0  0  0  0
   57.7270   29.4530   44.2000 C   0  0  0  0  0  0  0  0  0  0  0  0
   56.6420   29.4740   43.1480 C   0  0  0  0  0  0  0  0  0  0  0  0
   55.3100   29.9160   43.7530 C   0  0  0  0  0  0  0  0  0  0  0  0
   55.1400   29.3420   45.0210 O   0  0  0  0  0  0  0  0  0  0  0  0
   59.1920   34.2240   46.1580 C   0  0  0  0  0  0  0  0  0  0  0  0
   60.1340   34.5170   47.1470 C   0  0  0  0  0  0  0  0  0  0  0  0
   64.3615   33.7213   46.7875 H   0  0  0  0  0  0  0  0  0  0  0  0
   63.5293   32.2327   46.2232 H   0  0  0  0  0  0  0  0  0  0  0  0
   62.6581   33.8035   46.2232 H   0  0  0  0  0  0  0  0  0  0  0  0
   62.0377   32.2571   48.1317 H   0  0  0  0  0  0  0  0  0  0  0  0
   63.7465   32.4557   48.7293 H   0  0  0  0  0  0  0  0  0  0  0  0
   63.2090   34.3337   49.7754 H   0  0  0  0  0  0  0  0  0  0  0  0
   62.5865   35.0267   48.1975 H   0  0  0  0  0  0  0  0  0  0  0  0
   61.0044   33.4559   50.2678 H   0  0  0  0  0  0  0  0  0  0  0  0
   60.8617   35.2159   49.8395 H   0  0  0  0  0  0  0  0  0  0  0  0
   58.9850   32.4519   49.6218 H   0  0  0  0  0  0  0  0  0  0  0  0
   57.3014   31.9367   47.8597 H   0  0  0  0  0  0  0  0  0  0  0  0
   56.4859   32.1907   45.7020 H   0  0  0  0  0  0  0  0  0  0  0  0
   56.6705   33.8479   45.0023 H   0  0  0  0  0  0  0  0  0  0  0  0
   59.8345   31.4831   45.9973 H   0  0  0  0  0  0  0  0  0  0  0  0
   60.3732   29.3032   47.0770 H   0  0  0  0  0  0  0  0  0  0  0  0
   59.2215   27.2211   46.3338 H   0  0  0  0  0  0  0  0  0  0  0  0
   57.5155   27.3139   44.5205 H   0  0  0  0  0  0  0  0  0  0  0  0
   56.9265   30.1757   42.3501 H   0  0  0  0  0  0  0  0  0  0  0  0
   56.5254   28.4589   42.7406 H   0  0  0  0  0  0  0  0  0  0  0  0
   55.2989   31.0120   43.8458 H   0  0  0  0  0  0  0  0  0  0  0  0
   54.4908   29.5864   43.0970 H   0  0  0  0  0  0  0  0  0  0  0  0
   55.1470   30.0910   45.6740 H   0  0  0  0  0  0  0  0  0  0  0  0
   59.2519   34.7247   45.1804 H   0  0  0  0  0  0  0  0  0  0  0  0
   60.9276   35.2519   46.9470 H   0  0  0  0  0  0  0  0  0  0  0  0
  1  2  1  0
  2  3  1  0
  3  4  1  0
  4  5  1  0
  5  6  2  0
  6  7  1  0
  7  8  2  0
  8  9  1  0
  9 10  1  0
 10 11  1  0
 11 12  2  0
 12 13  1  0
 13 14  2  0
 14 15  1  0
 15 16  2  0
 16 17  1  0
 17 18  1  0
 18 19  1  0
  8 20  1  0
 20 21  2  0
 21  5  1  0
 16 11  1  0
  1 22  1  0
  1 23  1  0
  1 24  1  0
  2 25  1  0
  2 26  1  0
  3 27  1  0
  3 28  1  0
  4 29  1  0
  4 30  1  0
  6 31  1  0
  7 32  1  0
  9 33  1  0
  9 34  1  0
 12 35  1  0
 13 36  1  0
 14 37  1  0
 15 38  1  0
 17 39  1  0
 17 40  1  0
 18 41  1  0
 18 42  1  0
 19 43  1  0
 20 44  1  0
 21 45  1  0
M  END
>  <UniqueID>  (40) 
38

>  <SMILES>  (40) 
CCCCc1ccc(CSc2ccccc2CCO)cc1

>  <Energy>  (40) 
30.56139949500735

>  <Genealogy>  (40) 
CCCCc1ccc(CSc2ccccc2CCO)cc1 (3D coordinates assigned)
CCCCc1ccc(CSc2ccccc2CCO)cc1 (optimized conformer: 30.56139949500735 kcal/mol)

>  <smiles>  (40) 
CCCCc1ccc(CSc2ccccc2CCO)cc1

>  <score_type>  (40) 
oracle

>  <origin>  (40) 
adg

>  <m_score__min__energy>  (40) 
-8.3300000000000001

>  <m_primary>  (40) 
energy

$$$$
40:0
     RDKit          3D

 53 57  0  0  0  0  0  0  0  0999 V2000
   59.7680   27.1850   53.5390 C   0  0  0  0  0  0  0  0  0  0  0  0
   59.6390   28.3030   52.5470 C   0  0  0  0  0  0  0  0  0  0  0  0
   58.4960   29.1180   52.5450 C   0  0  0  0  0  0  0  0  0  0  0  0
   58.3570   30.1350   51.5980 C   0  0  0  0  0  0  0  0  0  0  0  0
   59.3570   30.3440   50.6370 C   0  0  0  0  0  0  0  0  0  0  0  0
   59.1930   31.3930   49.6120 C   0  0  0  0  0  0  0  0  0  0  0  0
   59.4100   32.7670   49.9150 C   0  0  0  0  0  0  0  0  0  0  0  0
   59.8090   33.2220   51.2630 C   0  0  0  0  0  0  0  0  0  0  0  0
   58.8860   33.8540   52.1160 C   0  0  0  0  0  0  0  0  0  0  0  0
   59.2810   34.2800   53.3880 C   0  0  0  0  0  0  0  0  0  0  0  0
   60.6000   34.0940   53.8110 C   0  0  0  0  0  0  0  0  0  0  0  0
   61.5280   33.4870   52.9610 C   0  0  0  0  0  0  0  0  0  0  0  0
   61.1370   33.0580   51.6890 C   0  0  0  0  0  0  0  0  0  0  0  0
   59.2570   33.7140   48.9370 N   0  0  0  0  0  0  0  0  0  0  0  0
   58.8890   33.4070   47.6620 C   0  0  0  0  0  0  0  0  0  0  0  0
   58.6800   32.0690   47.3340 C   0  0  0  0  0  0  0  0  0  0  0  0
   58.8390   31.0820   48.2870 C   0  0  0  0  0  0  0  0  0  0  0  0
   58.5890   29.8840   47.6270 C   0  0  0  0  0  0  0  0  0  0  0  0
   58.6350   28.5510   48.0460 C   0  0  0  0  0  0  0  0  0  0  0  0
   58.3110   27.5520   47.1150 C   0  0  0  0  0  0  0  0  0  0  0  0
   57.9540   27.8790   45.7880 C   0  0  0  0  0  0  0  0  0  0  0  0
   57.6360   26.8270   44.9140 O   0  0  0  0  0  0  0  0  0  0  0  0
   57.2350   25.5160   45.3130 C   0  0  0  0  0  0  0  0  0  0  0  0
   55.9270   25.5600   46.0380 C   0  0  0  0  0  0  0  0  0  0  0  0
   55.5440   24.5660   46.7100 O   0  0  0  0  0  0  0  0  0  0  0  0
   55.1440   26.7060   45.9940 O   0  0  0  0  0  0  0  0  0  0  0  0
   57.9320   29.2350   45.3850 C   0  0  0  0  0  0  0  0  0  0  0  0
   58.2680   30.2150   46.3240 C   0  0  0  0  0  0  0  0  0  0  0  0
   58.3400   31.5540   46.1280 N   0  0  0  0  0  0  0  0  0  0  0  0
   58.0290   32.2880   44.9000 C   0  0  0  0  0  0  0  0  0  0  0  0
   60.4880   29.5140   50.6200 C   0  0  0  0  0  0  0  0  0  0  0  0
   60.6260   28.4980   51.5690 C   0  0  0  0  0  0  0  0  0  0  0  0
   59.7209   27.5930   54.5595 H   0  0  0  0  0  0  0  0  0  0  0  0
   58.9466   26.4682   53.3925 H   0  0  0  0  0  0  0  0  0  0  0  0
   60.7311   26.6741   53.3925 H   0  0  0  0  0  0  0  0  0  0  0  0
   57.7061   28.9548   53.2929 H   0  0  0  0  0  0  0  0  0  0  0  0
   57.4613   30.7735   51.6058 H   0  0  0  0  0  0  0  0  0  0  0  0
   57.8504   34.0136   51.7814 H   0  0  0  0  0  0  0  0  0  0  0  0
   58.5526   34.7621   54.0566 H   0  0  0  0  0  0  0  0  0  0  0  0
   60.9077   34.4257   54.8137 H   0  0  0  0  0  0  0  0  0  0  0  0
   62.5673   33.3465   53.2929 H   0  0  0  0  0  0  0  0  0  0  0  0
   61.8731   32.5899   51.0189 H   0  0  0  0  0  0  0  0  0  0  0  0
   58.7597   34.1976   46.9082 H   0  0  0  0  0  0  0  0  0  0  0  0
   58.9174   28.2923   49.0772 H   0  0  0  0  0  0  0  0  0  0  0  0
   58.3355   26.4965   47.4239 H   0  0  0  0  0  0  0  0  0  0  0  0
   57.1314   24.8827   44.4196 H   0  0  0  0  0  0  0  0  0  0  0  0
   57.9992   25.1027   45.9877 H   0  0  0  0  0  0  0  0  0  0  0  0
   57.6569   29.5119   44.3566 H   0  0  0  0  0  0  0  0  0  0  0  0
   57.6117   33.2728   45.1571 H   0  0  0  0  0  0  0  0  0  0  0  0
   58.9478   32.4217   44.3101 H   0  0  0  0  0  0  0  0  0  0  0  0
   57.2938   31.7210   44.3101 H   0  0  0  0  0  0  0  0  0  0  0  0
   61.2674   29.6634   49.8582 H   0  0  0  0  0  0  0  0  0  0  0  0
   61.5129   27.8476   51.5494 H   0  0  0  0  0  0  0  0  0  0  0  0
  1  2  1  0
  2  3  2  0
  3  4  1  0
  4  5  2  0
  5  6  1  0
  6  7  1  0
  7  8  1  0
  8  9  2  0
  9 10  1  0
 10 11  2  0
 11 12  1  0
 12 13  2  0
  7 14  2  0
 14 15  1  0
 15 16  2  0
 16 17  1  0
 17 18  1  0
 18 19  2  0
 19 20  1  0
 20 21  2  0
 21 22  1  0
 22 23  1  0
 23 24  1  0
 24 25  2  0
 24 26  1  0
 21 27  1  0
 27 28  2  0
 28 29  1  0
 29 30  1  0
  5 31  1  0
 31 32  2  0
 32  2  1  0
 17  6  2  0
 28 18  1  0
 13  8  1  0
 29 16  1  0
  1 33  1  0
  1 34  1  0
  1 35  1  0
  3 36  1  0
  4 37  1  0
  9 38  1  0
 10 39  1  0
 11 40  1  0
 12 41  1  0
 13 42  1  0
 15 43  1  0
 19 44  1  0
 20 45  1  0
 23 46  1  0
 23 47  1  0
 27 48  1  0
 30 49  1  0
 30 50  1  0
 30 51  1  0
 31 52  1  0
 32 53  1  0
M  CHG  1  26  -1
M  END
>  <UniqueID>  (41) 
39

>  <SMILES>  (41) 
Cc1ccc(-c2c(-c3ccccc3)ncc3c2c2ccc(OCC(=O)[O-])cc2n3C)cc1

>  <Energy>  (41) 
114.96833004399191

>  <Genealogy>  (41) 
Cc1ccc(-c2c(-c3ccccc3)ncc3c2c2ccc(OCC(=O)[O-])cc2n3C)cc1 (protonated)
Cc1ccc(-c2c(-c3ccccc3)ncc3c2c2ccc(OCC(=O)[O-])cc2n3C)cc1 (3D coordinates assigned)
Cc1ccc(-c2c(-c3ccccc3)ncc3c2c2ccc(OCC(=O)[O-])cc2n3C)cc1 (optimized conformer: 114.96833004399191 kcal/mol)

>  <smiles>  (41) 
Cc1ccc(-c2c(-c3ccccc3)ncc3c2c2ccc(OCC(=O)O)cc2n3C)cc1

>  <score_type>  (41) 
oracle

>  <origin>  (41) 
adg

>  <m_score__min__energy>  (41) 
-10.380000000000001

>  <m_primary>  (41) 
energy

$$$$
41:0
     RDKit          3D

 44 48  0  0  0  0  0  0  0  0999 V2000
   57.1410   25.1700   44.9000 F   0  0  0  0  0  0  0  0  0  0  0  0
   57.7500   26.3690   45.0710 C   0  0  0  0  0  0  0  0  0  0  0  0
   58.2500   27.0690   43.9540 C   0  0  0  0  0  0  0  0  0  0  0  0
   58.8810   28.3150   44.1180 C   0  0  0  0  0  0  0  0  0  0  0  0
   59.0010   28.8410   45.4050 C   0  0  0  0  0  0  0  0  0  0  0  0
   59.5760   30.0360   45.6930 N   0  0  0  0  0  0  0  0  0  0  0  0
   59.5400   30.2860   47.0260 C   0  0  0  0  0  0  0  0  0  0  0  0
   60.0300   31.5080   47.6110 N   0  0  0  0  0  0  0  0  0  0  0  0
   61.2530   32.1460   47.1180 C   0  0  0  0  0  0  0  0  0  0  0  0
   60.9930   33.6250   46.7890 C   0  0  0  0  0  0  0  0  0  0  0  0
   59.9040   34.2280   47.5900 N   0  0  0  0  0  0  0  0  0  0  0  0
   58.7080   34.6620   46.8310 C   0  0  0  0  0  0  0  0  0  0  0  0
   58.3170   33.7250   45.7100 C   0  0  0  0  0  0  0  0  0  0  0  0
   58.8610   33.9060   44.4110 C   0  0  0  0  0  0  0  0  0  0  0  0
   58.5060   33.0450   43.3570 C   0  0  0  0  0  0  0  0  0  0  0  0
   57.6260   32.0060   43.6360 C   0  0  0  0  0  0  0  0  0  0  0  0
   57.1200   31.8080   44.8790 C   0  0  0  0  0  0  0  0  0  0  0  0
   57.4440   32.6370   45.9490 C   0  0  0  0  0  0  0  0  0  0  0  0
   56.2870   30.7070   44.8670 O   0  0  0  0  0  0  0  0  0  0  0  0
   56.2690   30.1790   43.5330 C   0  0  0  0  0  0  0  0  0  0  0  0
   57.1330   31.0410   42.7790 O   0  0  0  0  0  0  0  0  0  0  0  0
   59.6500   33.5960   48.9010 C   0  0  0  0  0  0  0  0  0  0  0  0
   59.3810   32.0850   48.7930 C   0  0  0  0  0  0  0  0  0  0  0  0
   58.7860   29.0320   47.8900 S   0  0  0  0  0  0  0  0  0  0  0  0
   58.5060   28.1440   46.4960 C   0  0  0  0  0  0  0  0  0  0  0  0
   57.8760   26.9090   46.3610 C   0  0  0  0  0  0  0  0  0  0  0  0
   58.1458   26.6376   42.9475 H   0  0  0  0  0  0  0  0  0  0  0  0
   59.2723   28.8642   43.2489 H   0  0  0  0  0  0  0  0  0  0  0  0
   62.0332   32.0786   47.8905 H   0  0  0  0  0  0  0  0  0  0  0  0
   61.5799   31.6299   46.2032 H   0  0  0  0  0  0  0  0  0  0  0  0
   61.9174   34.1908   46.9773 H   0  0  0  0  0  0  0  0  0  0  0  0
   60.6815   33.6709   45.7350 H   0  0  0  0  0  0  0  0  0  0  0  0
   57.8624   34.7360   47.5307 H   0  0  0  0  0  0  0  0  0  0  0  0
   58.9591   35.6268   46.3662 H   0  0  0  0  0  0  0  0  0  0  0  0
   59.5678   34.7286   44.2270 H   0  0  0  0  0  0  0  0  0  0  0  0
   58.9117   33.1892   42.3448 H   0  0  0  0  0  0  0  0  0  0  0  0
   57.0330   32.4517   46.9524 H   0  0  0  0  0  0  0  0  0  0  0  0
   56.6476   29.1463   43.5211 H   0  0  0  0  0  0  0  0  0  0  0  0
   55.2517   30.1472   43.1157 H   0  0  0  0  0  0  0  0  0  0  0  0
   60.5301   33.7512   49.5423 H   0  0  0  0  0  0  0  0  0  0  0  0
   58.7487   34.0632   49.3245 H   0  0  0  0  0  0  0  0  0  0  0  0
   59.7700   31.5872   49.6935 H   0  0  0  0  0  0  0  0  0  0  0  0
   58.2955   31.9328   48.7003 H   0  0  0  0  0  0  0  0  0  0  0  0
   57.4884   26.3723   47.2395 H   0  0  0  0  0  0  0  0  0  0  0  0
  1  2  1  0
  2  3  2  0
  3  4  1  0
  4  5  2  0
  5  6  1  0
  6  7  2  0
  7  8  1  0
  8  9  1  0
  9 10  1  0
 10 11  1  0
 11 12  1  0
 12 13  1  0
 13 14  2  0
 14 15  1  0
 15 16  2  0
 16 17  1  0
 17 18  2  0
 17 19  1  0
 19 20  1  0
 20 21  1  0
 11 22  1  0
 22 23  1  0
  7 24  1  0
 24 25  1  0
 25 26  2  0
 26  2  1  0
 25  5  1  0
 23  8  1  0
 18 13  1  0
 21 16  1  0
  3 27  1  0
  4 28  1  0
  9 29  1  0
  9 30  1  0
 10 31  1  0
 10 32  1  0
 12 33  1  0
 12 34  1  0
 14 35  1  0
 15 36  1  0
 18 37  1  0
 20 38  1  0
 20 39  1  0
 22 40  1  0
 22 41  1  0
 23 42  1  0
 23 43  1  0
 26 44  1  0
M  END
>  <UniqueID>  (42) 
40

>  <SMILES>  (42) 
Fc1ccc2nc(N3CCN(Cc4ccc5c(c4)OCO5)CC3)sc2c1

>  <Energy>  (42) 
119.20279851674286

>  <Genealogy>  (42) 
Fc1ccc2nc(N3CCN(Cc4ccc5c(c4)OCO5)CC3)sc2c1 (3D coordinates assigned)
Fc1ccc2nc(N3CCN(Cc4ccc5c(c4)OCO5)CC3)sc2c1 (nonaromatic ring conformer: 119.20279851674286 kcal/mol)

>  <smiles>  (42) 
Fc1ccc2nc(N3CCN(Cc4ccc5c(c4)OCO5)CC3)sc2c1

>  <score_type>  (42) 
oracle

>  <origin>  (42) 
adg

>  <m_score__min__energy>  (42) 
-7.7199999999999998

>  <m_primary>  (42) 
energy

$$$$
42:0
     RDKit          3D

 41 42  0  0  0  0  0  0  0  0999 V2000
   55.4900   23.7230   44.0160 C   0  0  0  0  0  0  0  0  0  0  0  0
   54.7310   23.7570   45.3410 C   0  0  0  0  0  0  0  0  0  0  0  0
   54.0630   25.1110   45.6080 C   0  0  0  0  0  0  0  0  0  0  0  0
   55.0480   26.1170   45.9960 N   0  0  0  0  0  0  0  0  0  0  0  0
   56.2900   25.8150   46.6440 C   0  0  0  0  0  0  0  0  0  0  0  0
   56.3410   24.9150   47.5280 O   0  0  0  0  0  0  0  0  0  0  0  0
   57.4860   26.5370   46.2730 N   0  0  0  0  0  0  0  0  0  0  0  0
   58.1540   27.0430   47.4960 C   0  0  0  0  0  0  0  0  0  0  0  0
   59.2420   28.0690   47.1590 C   0  0  0  0  0  0  0  0  0  0  0  0
   58.6840   29.1660   46.3620 N   0  0  0  0  0  0  0  0  0  0  0  0
   59.4980   30.3250   46.0900 C   0  0  0  0  0  0  0  0  0  0  0  0
   60.7500   30.1950   46.0110 O   0  0  0  0  0  0  0  0  0  0  0  0
   58.9040   31.6690   45.9070 C   0  0  0  0  0  0  0  0  0  0  0  0
   58.2950   32.0110   44.6860 C   0  0  0  0  0  0  0  0  0  0  0  0
   57.7420   33.2820   44.5030 C   0  0  0  0  0  0  0  0  0  0  0  0
   57.8000   34.2260   45.5300 C   0  0  0  0  0  0  0  0  0  0  0  0
   58.4170   33.9020   46.7420 C   0  0  0  0  0  0  0  0  0  0  0  0
   58.9720   32.6320   46.9290 C   0  0  0  0  0  0  0  0  0  0  0  0
   57.3500   29.0140   45.7670 C   0  0  0  0  0  0  0  0  0  0  0  0
   57.1800   27.5800   45.2490 C   0  0  0  0  0  0  0  0  0  0  0  0
   56.5710   23.6746   44.2138 H   0  0  0  0  0  0  0  0  0  0  0  0
   55.1826   22.8377   43.4400 H   0  0  0  0  0  0  0  0  0  0  0  0
   55.2630   24.6322   43.4400 H   0  0  0  0  0  0  0  0  0  0  0  0
   53.9534   22.9793   45.3207 H   0  0  0  0  0  0  0  0  0  0  0  0
   55.4608   23.5832   46.1455 H   0  0  0  0  0  0  0  0  0  0  0  0
   53.5499   25.4447   44.6940 H   0  0  0  0  0  0  0  0  0  0  0  0
   53.3452   24.9893   46.4326 H   0  0  0  0  0  0  0  0  0  0  0  0
   58.1410   25.8480   45.8310 H   0  0  0  0  0  0  0  0  0  0  0  0
   57.4022   27.5188   48.1429 H   0  0  0  0  0  0  0  0  0  0  0  0
   58.6286   26.1922   48.0068 H   0  0  0  0  0  0  0  0  0  0  0  0
   59.6582   28.4752   48.0927 H   0  0  0  0  0  0  0  0  0  0  0  0
   60.0317   27.5719   46.5765 H   0  0  0  0  0  0  0  0  0  0  0  0
   58.2536   31.2741   43.8704 H   0  0  0  0  0  0  0  0  0  0  0  0
   57.2603   33.5387   43.5480 H   0  0  0  0  0  0  0  0  0  0  0  0
   57.3605   35.2240   45.3857 H   0  0  0  0  0  0  0  0  0  0  0  0
   58.4660   34.6471   47.5497 H   0  0  0  0  0  0  0  0  0  0  0  0
   59.4645   32.3852   47.8811 H   0  0  0  0  0  0  0  0  0  0  0  0
   56.5835   29.2220   46.5280 H   0  0  0  0  0  0  0  0  0  0  0  0
   57.2392   29.7207   44.9313 H   0  0  0  0  0  0  0  0  0  0  0  0
   56.1385   27.4498   44.9198 H   0  0  0  0  0  0  0  0  0  0  0  0
   57.8974   27.4459   44.4259 H   0  0  0  0  0  0  0  0  0  0  0  0
  1  2  1  0
  2  3  1  0
  3  4  1  0
  4  5  1  0
  5  6  2  0
  5  7  1  0
  7  8  1  0
  8  9  1  0
  9 10  1  0
 10 11  1  0
 11 12  2  0
 11 13  1  0
 13 14  2  0
 14 15  1  0
 15 16  2  0
 16 17  1  0
 17 18  2  0
 10 19  1  0
 19 20  1  0
 20  7  1  0
 18 13  1  0
  1 21  1  0
  1 22  1  0
  1 23  1  0
  2 24  1  0
  2 25  1  0
  3 26  1  0
  3 27  1  0
  7 28  1  0
  8 29  1  0
  8 30  1  0
  9 31  1  0
  9 32  1  0
 14 33  1  0
 15 34  1  0
 16 35  1  0
 17 36  1  0
 18 37  1  0
 19 38  1  0
 19 39  1  0
 20 40  1  0
 20 41  1  0
M  CHG  2   4  -1   7   1
M  END
>  <UniqueID>  (43) 
41

>  <SMILES>  (43) 
CCC[N-]C(=O)[NH+]1CCN(C(=O)c2ccccc2)CC1

>  <Energy>  (43) 
47.318918286924244

>  <Genealogy>  (43) 
CCC[N-]C(=O)[NH+]1CCN(C(=O)c2ccccc2)CC1 (protonated)
CCC[N-]C(=O)[NH+]1CCN(C(=O)c2ccccc2)CC1 (3D coordinates assigned)
CCC[N-]C(=O)[NH+]1CCN(C(=O)c2ccccc2)CC1 (nonaromatic ring conformer: 47.318918286924244 kcal/mol)

>  <smiles>  (43) 
CCCNC(=O)N1CCN(C(=O)c2ccccc2)CC1

>  <score_type>  (43) 
oracle

>  <origin>  (43) 
adg

>  <m_score__min__energy>  (43) 
-6.8200000000000003

>  <m_primary>  (43) 
energy

$$$$
43:0
     RDKit          3D

 34 36  0  0  0  0  0  0  0  0999 V2000
   55.1640   24.7430   45.9670 C   0  0  0  0  0  0  0  0  0  0  0  0
   55.5160   26.0580   46.3380 O   0  0  0  0  0  0  0  0  0  0  0  0
   56.6670   26.4790   45.6300 C   0  0  0  0  0  0  0  0  0  0  0  0
   57.5970   27.2710   46.5560 C   0  0  0  0  0  0  0  0  0  0  0  0
   58.7520   27.9400   45.7980 C   0  0  0  0  0  0  0  0  0  0  0  0
   58.4470   29.3480   45.4810 N   0  0  0  0  0  0  0  0  0  0  0  0
   58.9570   30.3880   46.2400 C   0  0  0  0  0  0  0  0  0  0  0  0
   59.6860   30.1510   47.2410 O   0  0  0  0  0  0  0  0  0  0  0  0
   58.6590   31.7280   45.8840 C   0  0  0  0  0  0  0  0  0  0  0  0
   59.0690   32.9280   46.5000 C   0  0  0  0  0  0  0  0  0  0  0  0
   59.9420   33.0110   47.7160 C   0  0  0  0  0  0  0  0  0  0  0  0
   58.5700   34.0640   45.8500 C   0  0  0  0  0  0  0  0  0  0  0  0
   57.6310   33.5970   44.5210 S   0  0  0  0  0  0  0  0  0  0  0  0
   57.8610   31.9570   44.7790 C   0  0  0  0  0  0  0  0  0  0  0  0
   57.3830   30.9210   44.0650 N   0  0  0  0  0  0  0  0  0  0  0  0
   56.6110   30.8280   42.9740 C   0  0  0  0  0  0  0  0  0  0  0  0
   56.4340   29.5240   42.6650 N   0  0  0  0  0  0  0  0  0  0  0  0
   57.0880   28.7770   43.5500 N   0  0  0  0  0  0  0  0  0  0  0  0
   57.6620   29.6550   44.3970 C   0  0  0  0  0  0  0  0  0  0  0  0
   55.0020   24.1378   46.8712 H   0  0  0  0  0  0  0  0  0  0  0  0
   54.2402   24.7652   45.3703 H   0  0  0  0  0  0  0  0  0  0  0  0
   55.9754   24.3007   45.3703 H   0  0  0  0  0  0  0  0  0  0  0  0
   57.2008   25.5969   45.2467 H   0  0  0  0  0  0  0  0  0  0  0  0
   56.3586   27.1237   44.7938 H   0  0  0  0  0  0  0  0  0  0  0  0
   57.0095   28.0506   47.0630 H   0  0  0  0  0  0  0  0  0  0  0  0
   58.0351   26.5627   47.2746 H   0  0  0  0  0  0  0  0  0  0  0  0
   59.6578   27.9020   46.4209 H   0  0  0  0  0  0  0  0  0  0  0  0
   58.9038   27.3985   44.8526 H   0  0  0  0  0  0  0  0  0  0  0  0
   59.3181   32.9517   48.6200 H   0  0  0  0  0  0  0  0  0  0  0  0
   60.6592   32.1770   47.7101 H   0  0  0  0  0  0  0  0  0  0  0  0
   60.4892   33.9652   47.7101 H   0  0  0  0  0  0  0  0  0  0  0  0
   58.7597   35.1032   46.1569 H   0  0  0  0  0  0  0  0  0  0  0  0
   56.1883   31.6778   42.4180 H   0  0  0  0  0  0  0  0  0  0  0  0
   55.8790   29.1460   41.8660 H   0  0  0  0  0  0  0  0  0  0  0  0
  1  2  1  0
  2  3  1  0
  3  4  1  0
  4  5  1  0
  5  6  1  0
  6  7  1  0
  7  8  2  0
  7  9  1  0
  9 10  1  0
 10 11  1  0
 10 12  2  0
 12 13  1  0
 13 14  1  0
 14 15  1  0
 15 16  1  0
 16 17  2  0
 17 18  1  0
 18 19  2  0
 19  6  1  0
 14  9  2  0
 19 15  1  0
  1 20  1  0
  1 21  1  0
  1 22  1  0
  3 23  1  0
  3 24  1  0
  4 25  1  0
  4 26  1  0
  5 27  1  0
  5 28  1  0
 11 29  1  0
 11 30  1  0
 11 31  1  0
 12 32  1  0
 16 33  1  0
 17 34  1  0
M  CHG  1  17   1
M  END
>  <UniqueID>  (44) 
42

>  <SMILES>  (44) 
COCCCn1c(=O)c2c(C)csc2n2c[nH+]nc12

>  <Energy>  (44) 
112.18570913214573

>  <Genealogy>  (44) 
COCCCn1c(=O)c2c(C)csc2n2c[nH+]nc12 (protonated)
COCCCn1c(=O)c2c(C)csc2n2c[nH+]nc12 (3D coordinates assigned)
COCCCn1c(=O)c2c(C)csc2n2c[nH+]nc12 (optimized conformer: 112.18570913214573 kcal/mol)

>  <smiles>  (44) 
COCCCn1c(=O)c2c(C)csc2n2cnnc12

>  <score_type>  (44) 
oracle

>  <origin>  (44) 
adg

>  <m_score__min__energy>  (44) 
-5.4800000000000004

>  <m_primary>  (44) 
energy

$$$$
44:0
     RDKit          3D

 47 50  0  0  0  0  0  0  0  0999 V2000
   58.7789   27.4122   45.3308 H   0  0  0  0  0  0  0  0  0  0  0  0
   57.7140   27.2320   45.1220 C   0  0  0  0  0  0  0  0  0  0  0  0
   56.8680   28.2110   45.2270 N   0  0  0  0  0  0  0  0  0  0  0  0
   57.2360   29.5500   44.9890 N   0  0  0  0  0  0  0  0  0  0  0  0
   56.9880   30.1530   43.7690 C   0  0  0  0  0  0  0  0  0  0  0  0
   56.3360   29.3960   42.6420 C   0  0  0  0  0  0  0  0  0  0  0  0
   55.6708   28.6237   43.0556 H   0  0  0  0  0  0  0  0  0  0  0  0
   55.7500   30.0918   42.0236 H   0  0  0  0  0  0  0  0  0  0  0  0
   57.1110   28.9196   42.0236 H   0  0  0  0  0  0  0  0  0  0  0  0
   57.3360   31.4590   43.5680 N   0  0  0  0  0  0  0  0  0  0  0  0
   57.1420   31.9350   42.6580 H   0  0  0  0  0  0  0  0  0  0  0  0
   57.9600   32.1390   44.5560 C   0  0  0  0  0  0  0  0  0  0  0  0
   58.5020   33.7300   44.4950 S   0  0  0  0  0  0  0  0  0  0  0  0
   59.1490   33.6900   46.0550 C   0  0  0  0  0  0  0  0  0  0  0  0
   58.9150   32.4520   46.6460 C   0  0  0  0  0  0  0  0  0  0  0  0
   58.2590   31.5630   45.7740 C   0  0  0  0  0  0  0  0  0  0  0  0
   57.8930   30.2290   45.9820 C   0  0  0  0  0  0  0  0  0  0  0  0
   58.1580   29.6540   47.0730 O   0  0  0  0  0  0  0  0  0  0  0  0
   59.4160   32.1400   48.0290 C   0  0  0  0  0  0  0  0  0  0  0  0
   58.6168   31.6392   48.5951 H   0  0  0  0  0  0  0  0  0  0  0  0
   60.2973   31.4878   47.9400 H   0  0  0  0  0  0  0  0  0  0  0  0
   59.8340   33.4250   48.7780 C   0  0  0  0  0  0  0  0  0  0  0  0
   58.9260   33.9279   49.1421 H   0  0  0  0  0  0  0  0  0  0  0  0
   60.4978   33.1212   49.6009 H   0  0  0  0  0  0  0  0  0  0  0  0
   60.5910   34.3760   47.9320 N   0  0  0  0  0  0  0  0  0  0  0  0
   61.9010   33.8410   47.5230 C   0  0  0  0  0  0  0  0  0  0  0  0
   62.4937   33.5989   48.4175 H   0  0  0  0  0  0  0  0  0  0  0  0
   61.7542   32.9308   46.9230 H   0  0  0  0  0  0  0  0  0  0  0  0
   62.4334   34.5937   46.9230 H   0  0  0  0  0  0  0  0  0  0  0  0
   59.7970   34.8360   46.7700 C   0  0  0  0  0  0  0  0  0  0  0  0
   59.0150   35.5247   47.1224 H   0  0  0  0  0  0  0  0  0  0  0  0
   60.4769   35.3394   46.0669 H   0  0  0  0  0  0  0  0  0  0  0  0
   57.2700   25.8810   44.7270 C   0  0  0  0  0  0  0  0  0  0  0  0
   57.4320   25.4640   43.3970 C   0  0  0  0  0  0  0  0  0  0  0  0
   57.8855   26.1454   42.6621 H   0  0  0  0  0  0  0  0  0  0  0  0
   57.0210   24.1890   43.0000 C   0  0  0  0  0  0  0  0  0  0  0  0
   57.1529   23.8749   41.9541 H   0  0  0  0  0  0  0  0  0  0  0  0
   56.4430   23.3080   43.9210 C   0  0  0  0  0  0  0  0  0  0  0  0
   56.0480   22.0390   43.4730 O   0  0  0  0  0  0  0  0  0  0  0  0
   56.9420   21.0430   42.9870 C   0  0  0  0  0  0  0  0  0  0  0  0
   57.4087   20.5231   43.8367 H   0  0  0  0  0  0  0  0  0  0  0  0
   56.3856   20.3183   42.3744 H   0  0  0  0  0  0  0  0  0  0  0  0
   57.7224   21.5182   42.3744 H   0  0  0  0  0  0  0  0  0  0  0  0
   56.2790   23.7220   45.2560 C   0  0  0  0  0  0  0  0  0  0  0  0
   55.8254   23.0388   45.9892 H   0  0  0  0  0  0  0  0  0  0  0  0
   56.6900   24.9980   45.6550 C   0  0  0  0  0  0  0  0  0  0  0  0
   56.5587   25.3126   46.7008 H   0  0  0  0  0  0  0  0  0  0  0  0
  1  2  1  0
  2  3  2  0
  3  4  1  0
  4  5  1  0
  5  6  1  0
  6  7  1  0
  6  8  1  0
  6  9  1  0
  5 10  2  0
 10 11  1  0
 10 12  1  0
 12 13  1  0
 13 14  1  0
 14 15  2  0
 15 16  1  0
 16 17  1  0
 17 18  2  0
 15 19  1  0
 19 20  1  0
 19 21  1  0
 19 22  1  0
 22 23  1  0
 22 24  1  0
 22 25  1  0
 25 26  1  0
 26 27  1  0
 26 28  1  0
 26 29  1  0
 25 30  1  0
 30 31  1  0
 30 32  1  0
  2 33  1  0
 33 34  2  0
 34 35  1  0
 34 36  1  0
 36 37  1  0
 36 38  2  0
 38 39  1  0
 39 40  1  0
 40 41  1  0
 40 42  1  0
 40 43  1  0
 38 44  1  0
 44 45  1  0
 44 46  2  0
 46 47  1  0
 17  4  1  0
 46 33  1  0
 16 12  2  0
 30 14  1  0
M  CHG  1  10   1
M  END
>  <UniqueID>  (45) 
43

>  <SMILES>  (45) 
COc1ccc(/C=N/n2c(C)[nH+]c3sc4c(c3c2=O)CCN(C)C4)cc1

>  <Energy>  (45) 
96.50730060844784

>  <Genealogy>  (45) 
COc1ccc(C=Nn2c(C)[nH+]c3sc4c(c3c2=O)CCN(C)C4)cc1 (protonated)
COc1ccc(/C=N/n2c(C)[nH+]c3sc4c(c3c2=O)CCN(C)C4)cc1 (cis-trans isomerization)
COc1ccc(/C=N/n2c(C)[nH+]c3sc4c(c3c2=O)CCN(C)C4)cc1 (3D coordinates assigned)
COc1ccc(/C=N/n2c(C)[nH+]c3sc4c(c3c2=O)CCN(C)C4)cc1 (nonaromatic ring conformer: 96.50730060844784 kcal/mol)

>  <smiles>  (45) 
COc1ccc(C=Nn2c(C)nc3sc4c(c3c2=O)CCN(C)C4)cc1

>  <score_type>  (45) 
oracle

>  <origin>  (45) 
adg

>  <m_score__min__energy>  (45) 
-7.3499999999999996

>  <m_primary>  (45) 
energy

$$$$
45:0
     RDKit          3D

 40 42  0  0  0  0  0  0  0  0999 V2000
   65.3140   32.8360   49.9550 C   0  0  0  0  0  0  0  0  0  0  0  0
   64.3040   33.8300   49.8130 O   0  0  0  0  0  0  0  0  0  0  0  0
   63.2230   33.7390   48.9240 C   0  0  0  0  0  0  0  0  0  0  0  0
   63.3700   33.2830   47.6010 C   0  0  0  0  0  0  0  0  0  0  0  0
   62.2600   33.2100   46.7520 C   0  0  0  0  0  0  0  0  0  0  0  0
   60.9850   33.5910   47.2080 C   0  0  0  0  0  0  0  0  0  0  0  0
   59.8070   33.5140   46.3060 C   0  0  0  0  0  0  0  0  0  0  0  0
   59.2770   34.6790   45.7260 C   0  0  0  0  0  0  0  0  0  0  0  0
   58.1640   34.6060   44.8840 C   0  0  0  0  0  0  0  0  0  0  0  0
   57.5730   33.3710   44.6060 C   0  0  0  0  0  0  0  0  0  0  0  0
   58.1000   32.1960   45.1580 C   0  0  0  0  0  0  0  0  0  0  0  0
   57.4660   30.8890   44.8880 C   0  0  0  0  0  0  0  0  0  0  0  0
   56.2070   30.8200   44.8490 O   0  0  0  0  0  0  0  0  0  0  0  0
   58.2490   29.6990   44.6810 N   0  0  0  0  0  0  0  0  0  0  0  0
   57.6940   28.4900   44.0940 C   0  0  0  0  0  0  0  0  0  0  0  0
   58.6860   27.3800   44.4140 C   0  0  0  0  0  0  0  0  0  0  0  0
   59.9700   28.0750   44.8560 C   0  0  0  0  0  0  0  0  0  0  0  0
   59.5650   29.4860   45.2610 C   0  0  0  0  0  0  0  0  0  0  0  0
   59.2040   32.2740   46.0220 C   0  0  0  0  0  0  0  0  0  0  0  0
   60.8450   34.0470   48.5310 C   0  0  0  0  0  0  0  0  0  0  0  0
   61.9550   34.1170   49.3770 C   0  0  0  0  0  0  0  0  0  0  0  0
   65.5003   32.6526   51.0235 H   0  0  0  0  0  0  0  0  0  0  0  0
   64.9809   31.9037   49.4756 H   0  0  0  0  0  0  0  0  0  0  0  0
   66.2409   33.1840   49.4756 H   0  0  0  0  0  0  0  0  0  0  0  0
   64.3619   32.9826   47.2324 H   0  0  0  0  0  0  0  0  0  0  0  0
   62.3855   32.8517   45.7196 H   0  0  0  0  0  0  0  0  0  0  0  0
   59.7408   35.6541   45.9359 H   0  0  0  0  0  0  0  0  0  0  0  0
   57.7521   35.5237   44.4388 H   0  0  0  0  0  0  0  0  0  0  0  0
   56.6905   33.3209   43.9512 H   0  0  0  0  0  0  0  0  0  0  0  0
   56.7122   28.2654   44.5362 H   0  0  0  0  0  0  0  0  0  0  0  0
   57.5439   28.5985   43.0097 H   0  0  0  0  0  0  0  0  0  0  0  0
   58.2986   26.7432   45.2230 H   0  0  0  0  0  0  0  0  0  0  0  0
   58.8593   26.7321   43.5421 H   0  0  0  0  0  0  0  0  0  0  0  0
   60.4167   27.5454   45.7104 H   0  0  0  0  0  0  0  0  0  0  0  0
   60.7198   28.0862   44.0513 H   0  0  0  0  0  0  0  0  0  0  0  0
   59.5199   29.5725   46.3567 H   0  0  0  0  0  0  0  0  0  0  0  0
   60.2903   30.2338   44.9079 H   0  0  0  0  0  0  0  0  0  0  0  0
   59.6017   31.3571   46.4815 H   0  0  0  0  0  0  0  0  0  0  0  0
   59.8551   34.3506   48.9023 H   0  0  0  0  0  0  0  0  0  0  0  0
   61.8301   34.4732   50.4102 H   0  0  0  0  0  0  0  0  0  0  0  0
  1  2  1  0
  2  3  1  0
  3  4  2  0
  4  5  1  0
  5  6  2  0
  6  7  1  0
  7  8  2  0
  8  9  1  0
  9 10  2  0
 10 11  1  0
 11 12  1  0
 12 13  2  0
 12 14  1  0
 14 15  1  0
 15 16  1  0
 16 17  1  0
 17 18  1  0
 11 19  2  0
  6 20  1  0
 20 21  2  0
 21  3  1  0
 19  7  1  0
 18 14  1  0
  1 22  1  0
  1 23  1  0
  1 24  1  0
  4 25  1  0
  5 26  1  0
  8 27  1  0
  9 28  1  0
 10 29  1  0
 15 30  1  0
 15 31  1  0
 16 32  1  0
 16 33  1  0
 17 34  1  0
 17 35  1  0
 18 36  1  0
 18 37  1  0
 19 38  1  0
 20 39  1  0
 21 40  1  0
M  END
>  <UniqueID>  (46) 
44

>  <SMILES>  (46) 
COc1ccc(-c2cccc(C(=O)N3CCCC3)c2)cc1

>  <Energy>  (46) 
50.43557868894686

>  <Genealogy>  (46) 
COc1ccc(-c2cccc(C(=O)N3CCCC3)c2)cc1 (3D coordinates assigned)
COc1ccc(-c2cccc(C(=O)N3CCCC3)c2)cc1 (nonaromatic ring conformer: 50.43557868894686 kcal/mol)

>  <smiles>  (46) 
COc1ccc(-c2cccc(C(=O)N3CCCC3)c2)cc1

>  <score_type>  (46) 
oracle

>  <origin>  (46) 
adg

>  <m_score__min__energy>  (46) 
-8.0800000000000001

>  <m_primary>  (46) 
energy

$$$$
46:0
     RDKit          3D

 41 44  0  0  0  0  0  0  0  0999 V2000
   56.0840   22.7000   45.5360 Cl  0  0  0  0  0  0  0  0  0  0  0  0
   56.5170   24.4020   45.3980 C   0  0  0  0  0  0  0  0  0  0  0  0
   57.4780   24.8210   44.4780 C   0  0  0  0  0  0  0  0  0  0  0  0
   57.7710   26.1800   44.3310 C   0  0  0  0  0  0  0  0  0  0  0  0
   57.0630   27.1250   45.0950 C   0  0  0  0  0  0  0  0  0  0  0  0
   57.2560   28.5520   44.9060 N   0  0  0  0  0  0  0  0  0  0  0  0
   56.1690   29.3560   44.3070 C   0  0  0  0  0  0  0  0  0  0  0  0
   56.5730   30.8020   44.0570 C   0  0  0  0  0  0  0  0  0  0  0  0
   57.2780   31.3010   45.2430 N   0  0  0  0  0  0  0  0  0  0  0  0
   57.3250   32.7790   45.3190 C   0  0  0  0  0  0  0  0  0  0  0  0
   58.3120   33.3170   46.3320 C   0  0  0  0  0  0  0  0  0  0  0  0
   59.1480   34.4190   46.0090 C   0  0  0  0  0  0  0  0  0  0  0  0
   60.0290   34.9560   46.9660 C   0  0  0  0  0  0  0  0  0  0  0  0
   60.0460   34.3750   48.2290 C   0  0  0  0  0  0  0  0  0  0  0  0
   59.2490   33.3250   48.5460 C   0  0  0  0  0  0  0  0  0  0  0  0
   58.3670   32.7610   47.6290 C   0  0  0  0  0  0  0  0  0  0  0  0
   59.4640   32.9660   49.8620 O   0  0  0  0  0  0  0  0  0  0  0  0
   60.4660   33.8380   50.4010 C   0  0  0  0  0  0  0  0  0  0  0  0
   60.8040   34.7280   49.3280 O   0  0  0  0  0  0  0  0  0  0  0  0
   58.6010   30.6680   45.3160 C   0  0  0  0  0  0  0  0  0  0  0  0
   58.4730   29.1480   45.5020 C   0  0  0  0  0  0  0  0  0  0  0  0
   56.1340   26.6790   45.9880 N   0  0  0  0  0  0  0  0  0  0  0  0
   55.8540   25.3580   46.1610 C   0  0  0  0  0  0  0  0  0  0  0  0
   58.0084   24.0778   43.8646 H   0  0  0  0  0  0  0  0  0  0  0  0
   58.5480   26.5071   43.6244 H   0  0  0  0  0  0  0  0  0  0  0  0
   55.8827   28.9003   43.3476 H   0  0  0  0  0  0  0  0  0  0  0  0
   55.3321   29.3649   45.0208 H   0  0  0  0  0  0  0  0  0  0  0  0
   57.2365   30.8556   43.1812 H   0  0  0  0  0  0  0  0  0  0  0  0
   55.6799   31.4146   43.8644 H   0  0  0  0  0  0  0  0  0  0  0  0
   57.6023   33.1667   44.3276 H   0  0  0  0  0  0  0  0  0  0  0  0
   56.3274   33.1107   45.6427 H   0  0  0  0  0  0  0  0  0  0  0  0
   59.1064   34.8570   45.0008 H   0  0  0  0  0  0  0  0  0  0  0  0
   60.6823   35.8069   46.7229 H   0  0  0  0  0  0  0  0  0  0  0  0
   57.7313   31.9072   47.9063 H   0  0  0  0  0  0  0  0  0  0  0  0
   60.0677   34.4005   51.2583 H   0  0  0  0  0  0  0  0  0  0  0  0
   61.3421   33.2824   50.7668 H   0  0  0  0  0  0  0  0  0  0  0  0
   59.1495   30.8718   44.3845 H   0  0  0  0  0  0  0  0  0  0  0  0
   59.1417   31.0831   46.1794 H   0  0  0  0  0  0  0  0  0  0  0  0
   59.3498   28.6712   45.0395 H   0  0  0  0  0  0  0  0  0  0  0  0
   58.4061   28.9723   46.5858 H   0  0  0  0  0  0  0  0  0  0  0  0
   55.1043   25.0468   46.9033 H   0  0  0  0  0  0  0  0  0  0  0  0
  1  2  1  0
  2  3  2  0
  3  4  1  0
  4  5  2  0
  5  6  1  0
  6  7  1  0
  7  8  1  0
  8  9  1  0
  9 10  1  0
 10 11  1  0
 11 12  2  0
 12 13  1  0
 13 14  2  0
 14 15  1  0
 15 16  2  0
 15 17  1  0
 17 18  1  0
 18 19  1  0
  9 20  1  0
 20 21  1  0
  5 22  1  0
 22 23  2  0
 23  2  1  0
 21  6  1  0
 16 11  1  0
 19 14  1  0
  3 24  1  0
  4 25  1  0
  7 26  1  0
  7 27  1  0
  8 28  1  0
  8 29  1  0
 10 30  1  0
 10 31  1  0
 12 32  1  0
 13 33  1  0
 16 34  1  0
 18 35  1  0
 18 36  1  0
 20 37  1  0
 20 38  1  0
 21 39  1  0
 21 40  1  0
 23 41  1  0
M  END
>  <UniqueID>  (47) 
45

>  <SMILES>  (47) 
Clc1ccc(N2CCN(Cc3ccc4c(c3)OCO4)CC2)nc1

>  <Energy>  (47) 
81.6535023870333

>  <Genealogy>  (47) 
Clc1ccc(N2CCN(Cc3ccc4c(c3)OCO4)CC2)nc1 (3D coordinates assigned)
Clc1ccc(N2CCN(Cc3ccc4c(c3)OCO4)CC2)nc1 (nonaromatic ring conformer: 81.6535023870333 kcal/mol)

>  <smiles>  (47) 
Clc1ccc(N2CCN(Cc3ccc4c(c3)OCO4)CC2)nc1

>  <score_type>  (47) 
oracle

>  <origin>  (47) 
adg

>  <m_score__min__energy>  (47) 
-7.29

>  <m_primary>  (47) 
energy

$$$$
