0:0
     RDKit          3D

 47 50  0  0  0  0  0  0  0  0999 V2000
   61.0840   30.3950   49.3150 C   0  0  0  0  0  0  0  0  0  0  0  0
   61.4980   30.1880   47.9750 O   0  0  0  0  0  0  0  0  0  0  0  0
   60.4930   30.2130   47.0060 C   0  0  0  0  0  0  0  0  0  0  0  0
   60.3320   29.1270   46.1730 C   0  0  0  0  0  0  0  0  0  0  0  0
   59.3430   29.1060   45.1910 C   0  0  0  0  0  0  0  0  0  0  0  0
   58.5300   30.2240   45.0900 C   0  0  0  0  0  0  0  0  0  0  0  0
   58.6670   31.3270   45.9070 C   0  0  0  0  0  0  0  0  0  0  0  0
   59.6600   31.3210   46.8770 C   0  0  0  0  0  0  0  0  0  0  0  0
   57.6980   32.2430   45.5260 C   0  0  0  0  0  0  0  0  0  0  0  0
   57.4650   33.5880   46.1320 C   0  0  0  0  0  0  0  0  0  0  0  0
   58.5200   34.5760   45.7300 C   0  0  0  0  0  0  0  0  0  0  0  0
   59.3540   35.0250   46.8090 N   0  0  0  0  0  0  0  0  0  0  0  0
   60.5640   34.4570   47.2190 C   0  0  0  0  0  0  0  0  0  0  0  0
   61.5330   33.9730   46.3750 C   0  0  0  0  0  0  0  0  0  0  0  0
   62.7280   33.4260   46.8220 C   0  0  0  0  0  0  0  0  0  0  0  0
   62.9960   33.3440   48.1710 C   0  0  0  0  0  0  0  0  0  0  0  0
   64.1690   32.8080   48.6580 C   0  0  0  0  0  0  0  0  0  0  0  0
   64.3780   32.7540   50.0310 C   0  0  0  0  0  0  0  0  0  0  0  0
   63.4110   33.2360   50.9060 C   0  0  0  0  0  0  0  0  0  0  0  0
   62.2330   33.7740   50.4080 C   0  0  0  0  0  0  0  0  0  0  0  0
   62.0410   33.8210   49.0410 C   0  0  0  0  0  0  0  0  0  0  0  0
   60.8590   34.3630   48.5870 C   0  0  0  0  0  0  0  0  0  0  0  0
   57.0080   31.6430   44.4760 C   0  0  0  0  0  0  0  0  0  0  0  0
   57.5190   30.4240   44.2210 N   0  0  0  0  0  0  0  0  0  0  0  0
   57.0140   29.5470   43.1800 C   0  0  0  0  0  0  0  0  0  0  0  0
   61.8537   30.0102   50.0002 H   0  0  0  0  0  0  0  0  0  0  0  0
   60.9402   31.4711   49.4923 H   0  0  0  0  0  0  0  0  0  0  0  0
   60.1369   29.8644   49.4923 H   0  0  0  0  0  0  0  0  0  0  0  0
   60.9978   28.2587   46.2854 H   0  0  0  0  0  0  0  0  0  0  0  0
   59.2134   28.2400   44.5253 H   0  0  0  0  0  0  0  0  0  0  0  0
   59.7882   32.1884   47.5412 H   0  0  0  0  0  0  0  0  0  0  0  0
   56.4845   33.9613   45.8016 H   0  0  0  0  0  0  0  0  0  0  0  0
   57.5011   33.4786   47.2260 H   0  0  0  0  0  0  0  0  0  0  0  0
   59.1624   34.1040   44.9720 H   0  0  0  0  0  0  0  0  0  0  0  0
   57.9913   35.4633   45.3516 H   0  0  0  0  0  0  0  0  0  0  0  0
   59.0070   35.8750   47.3420 H   0  0  0  0  0  0  0  0  0  0  0  0
   61.3534   34.0211   45.2908 H   0  0  0  0  0  0  0  0  0  0  0  0
   63.4655   33.0557   46.0947 H   0  0  0  0  0  0  0  0  0  0  0  0
   64.9335   32.4261   47.9654 H   0  0  0  0  0  0  0  0  0  0  0  0
   65.3119   32.3284   50.4268 H   0  0  0  0  0  0  0  0  0  0  0  0
   63.5797   33.1909   51.9920 H   0  0  0  0  0  0  0  0  0  0  0  0
   61.4624   34.1579   51.0926 H   0  0  0  0  0  0  0  0  0  0  0  0
   60.1252   34.7328   49.3183 H   0  0  0  0  0  0  0  0  0  0  0  0
   56.1669   32.0991   43.9333 H   0  0  0  0  0  0  0  0  0  0  0  0
   56.5154   28.6811   43.6400 H   0  0  0  0  0  0  0  0  0  0  0  0
   56.2937   30.0959   42.5556 H   0  0  0  0  0  0  0  0  0  0  0  0
   57.8503   29.1995   42.5556 H   0  0  0  0  0  0  0  0  0  0  0  0
  1  2  1  0
  2  3  1  0
  3  4  2  0
  4  5  1  0
  5  6  2  0
  6  7  1  0
  7  8  2  0
  7  9  1  0
  9 10  1  0
 10 11  1  0
 11 12  1  0
 12 13  1  0
 13 14  2  0
 14 15  1  0
 15 16  2  0
 16 17  1  0
 17 18  2  0
 18 19  1  0
 19 20  2  0
 20 21  1  0
 21 22  2  0
  9 23  2  0
 23 24  1  0
 24 25  1  0
  8  3  1  0
 22 13  1  0
 24  6  1  0
 21 16  1  0
  1 26  1  0
  1 27  1  0
  1 28  1  0
  4 29  1  0
  5 30  1  0
  8 31  1  0
 10 32  1  0
 10 33  1  0
 11 34  1  0
 11 35  1  0
 12 36  1  0
 14 37  1  0
 15 38  1  0
 17 39  1  0
 18 40  1  0
 19 41  1  0
 20 42  1  0
 22 43  1  0
 23 44  1  0
 25 45  1  0
 25 46  1  0
 25 47  1  0
M  END
>  <smiles>  (1) 
COc1ccc2c(c1)c(CCNc1ccc3ccccc3c1)cn2C

>  <score_type>  (1) 
oracle

>  <origin>  (1) 
adg

>  <m_score__min__energy>  (1) 
-7.96

>  <m_primary>  (1) 
energy

$$$$
1:0
     RDKit          3D

 48 50  0  0  0  0  0  0  0  0999 V2000
   59.5380   29.3550   45.1700 C   0  0  0  0  0  0  0  0  0  0  0  0
   58.2910   29.0940   46.0190 C   0  0  0  0  0  0  0  0  0  0  0  0
   57.2250   29.8270   45.3480 N   0  0  0  0  0  0  0  0  0  0  0  0
   57.6850   30.5730   44.2350 C   0  0  0  0  0  0  0  0  0  0  0  0
   57.3920   32.0120   44.1310 C   0  0  0  0  0  0  0  0  0  0  0  0
   56.6540   32.6060   45.2170 N   0  0  0  0  0  0  0  0  0  0  0  0
   57.3170   33.8220   45.6760 C   0  0  0  0  0  0  0  0  0  0  0  0
   58.3570   33.6220   46.7180 C   0  0  0  0  0  0  0  0  0  0  0  0
   58.7970   32.2510   46.8760 N   0  0  0  0  0  0  0  0  0  0  0  0
   59.9000   31.9480   47.7050 C   0  0  0  0  0  0  0  0  0  0  0  0
   61.1670   32.4460   47.5490 C   0  0  0  0  0  0  0  0  0  0  0  0
   61.4580   33.3280   46.5360 C   0  0  0  0  0  0  0  0  0  0  0  0
   62.7290   33.8380   46.3800 C   0  0  0  0  0  0  0  0  0  0  0  0
   63.7390   33.4590   47.2570 C   0  0  0  0  0  0  0  0  0  0  0  0
   63.4580   32.5730   48.2770 C   0  0  0  0  0  0  0  0  0  0  0  0
   62.1770   32.0580   48.4360 C   0  0  0  0  0  0  0  0  0  0  0  0
   61.9240   31.2050   49.4400 N   0  0  0  0  0  0  0  0  0  0  0  0
   62.9740   30.7790   50.3750 C   0  0  0  0  0  0  0  0  0  0  0  0
   60.6930   30.7120   49.6030 C   0  0  0  0  0  0  0  0  0  0  0  0
   60.1360   29.8360   50.5140 C   0  0  0  0  0  0  0  0  0  0  0  0
   58.8500   29.6930   50.2030 O   0  0  0  0  0  0  0  0  0  0  0  0
   58.5230   30.4020   49.1690 C   0  0  0  0  0  0  0  0  0  0  0  0
   59.6700   31.0670   48.7550 C   0  0  0  0  0  0  0  0  0  0  0  0
   60.3996   29.5353   45.8297 H   0  0  0  0  0  0  0  0  0  0  0  0
   59.7392   28.4795   44.5352 H   0  0  0  0  0  0  0  0  0  0  0  0
   59.3712   30.2377   44.5352 H   0  0  0  0  0  0  0  0  0  0  0  0
   58.0617   28.0186   46.0507 H   0  0  0  0  0  0  0  0  0  0  0  0
   58.4237   29.4158   47.0625 H   0  0  0  0  0  0  0  0  0  0  0  0
   56.6470   30.3620   46.0200 H   0  0  0  0  0  0  0  0  0  0  0  0
   58.7802   30.4717   44.2178 H   0  0  0  0  0  0  0  0  0  0  0  0
   57.1188   30.1426   43.3959 H   0  0  0  0  0  0  0  0  0  0  0  0
   58.3526   32.5422   44.0525 H   0  0  0  0  0  0  0  0  0  0  0  0
   56.7379   32.1093   43.2520 H   0  0  0  0  0  0  0  0  0  0  0  0
   56.6580   31.9030   46.0010 H   0  0  0  0  0  0  0  0  0  0  0  0
   57.7938   34.2982   44.8066 H   0  0  0  0  0  0  0  0  0  0  0  0
   56.5341   34.4389   46.1413 H   0  0  0  0  0  0  0  0  0  0  0  0
   59.2312   34.2343   46.4521 H   0  0  0  0  0  0  0  0  0  0  0  0
   57.8998   33.9147   47.6747 H   0  0  0  0  0  0  0  0  0  0  0  0
   58.2810   31.4690   46.3650 H   0  0  0  0  0  0  0  0  0  0  0  0
   60.6637   33.6319   45.8384 H   0  0  0  0  0  0  0  0  0  0  0  0
   62.9437   34.5432   45.5636 H   0  0  0  0  0  0  0  0  0  0  0  0
   64.7554   33.8627   47.1386 H   0  0  0  0  0  0  0  0  0  0  0  0
   64.2561   32.2713   48.9713 H   0  0  0  0  0  0  0  0  0  0  0  0
   62.6244   30.9208   51.4083 H   0  0  0  0  0  0  0  0  0  0  0  0
   63.2042   29.7163   50.2084 H   0  0  0  0  0  0  0  0  0  0  0  0
   63.8795   31.3809   50.2084 H   0  0  0  0  0  0  0  0  0  0  0  0
   60.6609   29.3449   51.3467 H   0  0  0  0  0  0  0  0  0  0  0  0
   57.5267   30.4652   48.7070 H   0  0  0  0  0  0  0  0  0  0  0  0
  1  2  1  0
  2  3  1  0
  3  4  1  0
  4  5  1  0
  5  6  1  0
  6  7  1  0
  7  8  1  0
  8  9  1  0
  9 10  1  0
 10 11  2  0
 11 12  1  0
 12 13  2  0
 13 14  1  0
 14 15  2  0
 15 16  1  0
 16 17  2  0
 17 18  1  0
 17 19  1  0
 19 20  2  0
 20 21  1  0
 21 22  1  0
 22 23  2  0
 23 10  1  0
 16 11  1  0
 23 19  1  0
  1 24  1  0
  1 25  1  0
  1 26  1  0
  2 27  1  0
  2 28  1  0
  3 29  1  0
  4 30  1  0
  4 31  1  0
  5 32  1  0
  5 33  1  0
  6 34  1  0
  7 35  1  0
  7 36  1  0
  8 37  1  0
  8 38  1  0
  9 39  1  0
 12 40  1  0
 13 41  1  0
 14 42  1  0
 15 43  1  0
 18 44  1  0
 18 45  1  0
 18 46  1  0
 20 47  1  0
 22 48  1  0
M  CHG  1  17   1
M  END
>  <smiles>  (2) 
CCNCCNCCNc1c2ccccc2[n+](C)c2cocc12

>  <score_type>  (2) 
oracle

>  <origin>  (2) 
adg

>  <m_score__min__energy>  (2) 
-4.3200000000000003

>  <m_primary>  (2) 
energy

$$$$
2:0
     RDKit          3D

 57 59  0  0  0  0  0  0  0  0999 V2000
   59.6300   34.9090   47.2690 C   0  0  0  0  0  0  0  0  0  0  0  0
   59.6370   34.1430   45.9690 C   0  0  0  0  0  0  0  0  0  0  0  0
   59.0260   32.9020   46.1220 O   0  0  0  0  0  0  0  0  0  0  0  0
   57.6320   33.1310   46.1360 C   0  0  0  0  0  0  0  0  0  0  0  0
   57.0230   32.6270   44.8660 C   0  0  0  0  0  0  0  0  0  0  0  0
   56.7540   31.2770   44.8830 O   0  0  0  0  0  0  0  0  0  0  0  0
   57.3670   30.5840   43.8540 C   0  0  0  0  0  0  0  0  0  0  0  0
   58.2060   29.4480   44.4640 C   0  0  0  0  0  0  0  0  0  0  0  0
   58.8990   29.8590   45.6380 N   0  0  0  0  0  0  0  0  0  0  0  0
   58.7240   28.9850   46.7900 C   0  0  0  0  0  0  0  0  0  0  0  0
   59.1770   29.6200   48.0590 C   0  0  0  0  0  0  0  0  0  0  0  0
   59.4740   31.0290   47.9340 N   0  0  0  0  0  0  0  0  0  0  0  0
   60.2440   31.7700   48.8510 C   0  0  0  0  0  0  0  0  0  0  0  0
   61.5080   32.2460   48.6420 C   0  0  0  0  0  0  0  0  0  0  0  0
   62.1010   32.0630   47.4160 C   0  0  0  0  0  0  0  0  0  0  0  0
   63.3660   32.5240   47.1270 C   0  0  0  0  0  0  0  0  0  0  0  0
   64.0900   33.1990   48.0810 C   0  0  0  0  0  0  0  0  0  0  0  0
   63.4760   33.3800   49.3250 C   0  0  0  0  0  0  0  0  0  0  0  0
   62.2180   32.9190   49.6050 C   0  0  0  0  0  0  0  0  0  0  0  0
   61.6720   33.1480   50.8440 N   0  0  0  0  0  0  0  0  0  0  0  0
   62.4570   33.8410   51.7800 C   0  0  0  0  0  0  0  0  0  0  0  0
   60.4290   32.6870   51.0620 C   0  0  0  0  0  0  0  0  0  0  0  0
   59.8410   32.8970   52.2830 C   0  0  0  0  0  0  0  0  0  0  0  0
   58.5480   32.4530   52.5820 C   0  0  0  0  0  0  0  0  0  0  0  0
   57.8170   31.7770   51.6370 C   0  0  0  0  0  0  0  0  0  0  0  0
   56.2070   31.2210   52.0030 Cl  0  0  0  0  0  0  0  0  0  0  0  0
   58.3980   31.5510   50.3850 C   0  0  0  0  0  0  0  0  0  0  0  0
   59.6920   32.0050   50.1080 C   0  0  0  0  0  0  0  0  0  0  0  0
   59.6365   34.2017   48.1114 H   0  0  0  0  0  0  0  0  0  0  0  0
   60.5223   35.5501   47.3217 H   0  0  0  0  0  0  0  0  0  0  0  0
   58.7261   35.5337   47.3217 H   0  0  0  0  0  0  0  0  0  0  0  0
   59.0933   34.7210   45.2072 H   0  0  0  0  0  0  0  0  0  0  0  0
   60.6805   33.9858   45.6587 H   0  0  0  0  0  0  0  0  0  0  0  0
   57.1837   32.6031   46.9906 H   0  0  0  0  0  0  0  0  0  0  0  0
   57.4422   34.2107   46.2264 H   0  0  0  0  0  0  0  0  0  0  0  0
   56.0806   33.1675   44.6935 H   0  0  0  0  0  0  0  0  0  0  0  0
   57.7565   32.8003   44.0648 H   0  0  0  0  0  0  0  0  0  0  0  0
   56.6034   30.1628   43.1835 H   0  0  0  0  0  0  0  0  0  0  0  0
   58.0125   31.2610   43.2752 H   0  0  0  0  0  0  0  0  0  0  0  0
   57.5374   28.6134   44.7217 H   0  0  0  0  0  0  0  0  0  0  0  0
   58.9563   29.1459   43.7185 H   0  0  0  0  0  0  0  0  0  0  0  0
   58.5810   30.7990   45.9550 H   0  0  0  0  0  0  0  0  0  0  0  0
   57.6575   28.7321   46.8827 H   0  0  0  0  0  0  0  0  0  0  0  0
   59.3385   28.0875   46.6263 H   0  0  0  0  0  0  0  0  0  0  0  0
   58.3826   29.4986   48.8102 H   0  0  0  0  0  0  0  0  0  0  0  0
   60.1127   29.1205   48.3503 H   0  0  0  0  0  0  0  0  0  0  0  0
   59.0980   31.5820   47.1020 H   0  0  0  0  0  0  0  0  0  0  0  0
   61.5430   31.5269   46.6342 H   0  0  0  0  0  0  0  0  0  0  0  0
   63.7983   32.3517   46.1303 H   0  0  0  0  0  0  0  0  0  0  0  0
   65.1021   33.5781   47.8763 H   0  0  0  0  0  0  0  0  0  0  0  0
   64.0277   33.9156   50.1116 H   0  0  0  0  0  0  0  0  0  0  0  0
   62.1438   33.5645   52.7976 H   0  0  0  0  0  0  0  0  0  0  0  0
   63.5154   33.5773   51.6378 H   0  0  0  0  0  0  0  0  0  0  0  0
   62.3266   34.9239   51.6378 H   0  0  0  0  0  0  0  0  0  0  0  0
   60.4075   33.4352   53.0572 H   0  0  0  0  0  0  0  0  0  0  0  0
   58.1169   32.6459   53.5755 H   0  0  0  0  0  0  0  0  0  0  0  0
   57.8324   31.0114   49.6111 H   0  0  0  0  0  0  0  0  0  0  0  0
  1  2  1  0
  2  3  1  0
  3  4  1  0
  4  5  1  0
  5  6  1  0
  6  7  1  0
  7  8  1  0
  8  9  1  0
  9 10  1  0
 10 11  1  0
 11 12  1  0
 12 13  1  0
 13 14  2  0
 14 15  1  0
 15 16  2  0
 16 17  1  0
 17 18  2  0
 18 19  1  0
 19 20  2  0
 20 21  1  0
 20 22  1  0
 22 23  2  0
 23 24  1  0
 24 25  2  0
 25 26  1  0
 25 27  1  0
 27 28  2  0
 28 13  1  0
 19 14  1  0
 28 22  1  0
  1 29  1  0
  1 30  1  0
  1 31  1  0
  2 32  1  0
  2 33  1  0
  4 34  1  0
  4 35  1  0
  5 36  1  0
  5 37  1  0
  7 38  1  0
  7 39  1  0
  8 40  1  0
  8 41  1  0
  9 42  1  0
 10 43  1  0
 10 44  1  0
 11 45  1  0
 11 46  1  0
 12 47  1  0
 15 48  1  0
 16 49  1  0
 17 50  1  0
 18 51  1  0
 21 52  1  0
 21 53  1  0
 21 54  1  0
 23 55  1  0
 24 56  1  0
 27 57  1  0
M  CHG  1  20   1
M  END
>  <smiles>  (3) 
CCOCCOCCNCCNc1c2ccccc2[n+](C)c2ccc(Cl)cc12

>  <score_type>  (3) 
oracle

>  <origin>  (3) 
adg

>  <m_score__min__energy>  (3) 
-5.5599999999999996

>  <m_primary>  (3) 
energy

$$$$
3:0
     RDKit          3D

 63 65  0  0  0  0  0  0  0  0999 V2000
   60.4180   28.9780   47.6260 C   0  0  0  0  0  0  0  0  0  0  0  0
   59.0980   29.2570   48.2840 C   0  0  0  0  0  0  0  0  0  0  0  0
   58.3010   30.0310   47.4420 O   0  0  0  0  0  0  0  0  0  0  0  0
   58.8970   30.0310   46.1770 C   0  0  0  0  0  0  0  0  0  0  0  0
   58.0910   30.8050   45.1730 C   0  0  0  0  0  0  0  0  0  0  0  0
   57.5080   31.9410   45.6730 O   0  0  0  0  0  0  0  0  0  0  0  0
   57.0130   32.8080   44.7320 C   0  0  0  0  0  0  0  0  0  0  0  0
   57.3710   34.2630   44.9750 C   0  0  0  0  0  0  0  0  0  0  0  0
   58.6900   34.5560   44.8380 O   0  0  0  0  0  0  0  0  0  0  0  0
   59.5610   34.1030   45.7320 C   0  0  0  0  0  0  0  0  0  0  0  0
   59.2610   34.0780   47.1950 C   0  0  0  0  0  0  0  0  0  0  0  0
   59.0230   32.8510   47.8470 N   0  0  0  0  0  0  0  0  0  0  0  0
   59.9460   32.4440   48.8660 C   0  0  0  0  0  0  0  0  0  0  0  0
   61.2940   32.2950   48.6680 C   0  0  0  0  0  0  0  0  0  0  0  0
   62.1410   31.8880   49.6910 C   0  0  0  0  0  0  0  0  0  0  0  0
   61.6470   31.6220   50.9350 N   0  0  0  0  0  0  0  0  0  0  0  0
   62.5750   31.2030   51.9300 C   0  0  0  0  0  0  0  0  0  0  0  0
   60.3220   31.7720   51.1150 C   0  0  0  0  0  0  0  0  0  0  0  0
   59.7770   31.5190   52.3550 C   0  0  0  0  0  0  0  0  0  0  0  0
   58.4070   31.6710   52.5630 C   0  0  0  0  0  0  0  0  0  0  0  0
   57.5510   32.0680   51.5820 C   0  0  0  0  0  0  0  0  0  0  0  0
   58.0900   32.3260   50.3320 C   0  0  0  0  0  0  0  0  0  0  0  0
   59.4550   32.1740   50.1260 C   0  0  0  0  0  0  0  0  0  0  0  0
   63.5960   31.7070   49.5600 C   0  0  0  0  0  0  0  0  0  0  0  0
   64.2110   33.0550   49.2860 C   0  0  0  0  0  0  0  0  0  0  0  0
   64.0710   33.2940   47.7840 C   0  0  0  0  0  0  0  0  0  0  0  0
   62.7110   33.7630   47.3830 C   0  0  0  0  0  0  0  0  0  0  0  0
   61.6890   32.6210   47.2890 C   0  0  0  0  0  0  0  0  0  0  0  0
   61.1852   28.8158   48.3974 H   0  0  0  0  0  0  0  0  0  0  0  0
   60.3323   28.0781   46.9992 H   0  0  0  0  0  0  0  0  0  0  0  0
   60.7038   29.8356   46.9992 H   0  0  0  0  0  0  0  0  0  0  0  0
   58.5880   28.3057   48.4957 H   0  0  0  0  0  0  0  0  0  0  0  0
   59.2703   29.8042   49.2226 H   0  0  0  0  0  0  0  0  0  0  0  0
   59.8960   30.4846   46.2555 H   0  0  0  0  0  0  0  0  0  0  0  0
   58.9583   28.9886   45.8312 H   0  0  0  0  0  0  0  0  0  0  0  0
   58.7565   31.0944   44.3463 H   0  0  0  0  0  0  0  0  0  0  0  0
   57.2715   30.1457   44.8510 H   0  0  0  0  0  0  0  0  0  0  0  0
   57.4112   32.5145   43.7495 H   0  0  0  0  0  0  0  0  0  0  0  0
   55.9165   32.7397   44.7860 H   0  0  0  0  0  0  0  0  0  0  0  0
   56.8076   34.8783   44.2580 H   0  0  0  0  0  0  0  0  0  0  0  0
   57.1145   34.4738   46.0237 H   0  0  0  0  0  0  0  0  0  0  0  0
   59.7815   33.0639   45.4463 H   0  0  0  0  0  0  0  0  0  0  0  0
   60.3595   34.8575   45.6755 H   0  0  0  0  0  0  0  0  0  0  0  0
   60.1176   34.5457   47.7024 H   0  0  0  0  0  0  0  0  0  0  0  0
   58.2902   34.5910   47.2617 H   0  0  0  0  0  0  0  0  0  0  0  0
   58.2540   32.1620   47.6740 H   0  0  0  0  0  0  0  0  0  0  0  0
   62.1534   31.3934   52.9280 H   0  0  0  0  0  0  0  0  0  0  0  0
   62.7747   30.1274   51.8154 H   0  0  0  0  0  0  0  0  0  0  0  0
   63.5139   31.7645   51.8154 H   0  0  0  0  0  0  0  0  0  0  0  0
   60.4249   31.1961   53.1832 H   0  0  0  0  0  0  0  0  0  0  0  0
   58.0001   31.4610   53.5632 H   0  0  0  0  0  0  0  0  0  0  0  0
   56.4737   32.1796   51.7741 H   0  0  0  0  0  0  0  0  0  0  0  0
   57.4395   32.6499   49.5062 H   0  0  0  0  0  0  0  0  0  0  0  0
   64.0059   31.2925   50.4928 H   0  0  0  0  0  0  0  0  0  0  0  0
   63.8217   31.0105   48.7391 H   0  0  0  0  0  0  0  0  0  0  0  0
   63.6790   33.8373   49.8472 H   0  0  0  0  0  0  0  0  0  0  0  0
   65.2653   33.0839   49.5984 H   0  0  0  0  0  0  0  0  0  0  0  0
   64.8056   34.0550   47.4819 H   0  0  0  0  0  0  0  0  0  0  0  0
   64.2427   32.3294   47.2840 H   0  0  0  0  0  0  0  0  0  0  0  0
   62.3568   34.4906   48.1280 H   0  0  0  0  0  0  0  0  0  0  0  0
   62.7981   34.2114   46.3823 H   0  0  0  0  0  0  0  0  0  0  0  0
   60.8117   32.9437   46.7093 H   0  0  0  0  0  0  0  0  0  0  0  0
   62.1193   31.7446   46.7822 H   0  0  0  0  0  0  0  0  0  0  0  0
  1  2  1  0
  2  3  1  0
  3  4  1  0
  4  5  1  0
  5  6  1  0
  6  7  1  0
  7  8  1  0
  8  9  1  0
  9 10  1  0
 10 11  1  0
 11 12  1  0
 12 13  1  0
 13 14  2  0
 14 15  1  0
 15 16  2  0
 16 17  1  0
 16 18  1  0
 18 19  2  0
 19 20  1  0
 20 21  2  0
 21 22  1  0
 22 23  2  0
 15 24  1  0
 24 25  1  0
 25 26  1  0
 26 27  1  0
 27 28  1  0
 23 13  1  0
 28 14  1  0
 23 18  1  0
  1 29  1  0
  1 30  1  0
  1 31  1  0
  2 32  1  0
  2 33  1  0
  4 34  1  0
  4 35  1  0
  5 36  1  0
  5 37  1  0
  7 38  1  0
  7 39  1  0
  8 40  1  0
  8 41  1  0
 10 42  1  0
 10 43  1  0
 11 44  1  0
 11 45  1  0
 12 46  1  0
 17 47  1  0
 17 48  1  0
 17 49  1  0
 19 50  1  0
 20 51  1  0
 21 52  1  0
 22 53  1  0
 24 54  1  0
 24 55  1  0
 25 56  1  0
 25 57  1  0
 26 58  1  0
 26 59  1  0
 27 60  1  0
 27 61  1  0
 28 62  1  0
 28 63  1  0
M  CHG  1  16   1
M  END
>  <smiles>  (4) 
CCOCCOCCOCCNc1c2c([n+](C)c3ccccc13)CCCCC2

>  <score_type>  (4) 
oracle

>  <origin>  (4) 
adg

>  <m_score__min__energy>  (4) 
-3.4700000000000002

>  <m_primary>  (4) 
energy

$$$$
4:0
     RDKit          3D

 42 44  0  0  0  0  0  0  0  0999 V2000
   58.5430   24.9480   45.3080 C   0  0  0  0  0  0  0  0  0  0  0  0
   57.1730   25.2950   45.6240 N   0  0  0  0  0  0  0  0  0  0  0  0
   56.7520   26.4060   46.2880 C   0  0  0  0  0  0  0  0  0  0  0  0
   57.8600   27.6360   46.9020 S   0  0  0  0  0  0  0  0  0  0  0  0
   58.3420   28.8460   45.6830 C   0  0  0  0  0  0  0  0  0  0  0  0
   57.1000   29.2690   44.9060 C   0  0  0  0  0  0  0  0  0  0  0  0
   57.0230   30.7060   44.9210 N   0  0  0  0  0  0  0  0  0  0  0  0
   57.0430   31.2460   43.5980 C   0  0  0  0  0  0  0  0  0  0  0  0
   57.9520   32.4780   43.5950 C   0  0  0  0  0  0  0  0  0  0  0  0
   57.4810   33.3830   44.7020 C   0  0  0  0  0  0  0  0  0  0  0  0
   57.8120   32.7240   46.0360 C   0  0  0  0  0  0  0  0  0  0  0  0
   58.0080   31.2330   45.8140 C   0  0  0  0  0  0  0  0  0  0  0  0
   55.4040   26.3470   46.3720 N   0  0  0  0  0  0  0  0  0  0  0  0
   55.0170   25.2220   45.7710 N   0  0  0  0  0  0  0  0  0  0  0  0
   56.0890   24.5620   45.3050 C   0  0  0  0  0  0  0  0  0  0  0  0
   56.1690   23.2930   44.5880 C   0  0  0  0  0  0  0  0  0  0  0  0
   56.2200   23.2680   43.2080 C   0  0  0  0  0  0  0  0  0  0  0  0
   56.2910   22.0780   42.5270 C   0  0  0  0  0  0  0  0  0  0  0  0
   56.3110   20.9260   43.2280 N   0  0  0  0  0  0  0  0  0  0  0  0
   56.2610   20.9250   44.5790 C   0  0  0  0  0  0  0  0  0  0  0  0
   56.1880   22.1290   45.2910 C   0  0  0  0  0  0  0  0  0  0  0  0
   59.1092   24.8046   46.2401 H   0  0  0  0  0  0  0  0  0  0  0  0
   58.5597   24.0173   44.7219 H   0  0  0  0  0  0  0  0  0  0  0  0
   59.0007   25.7586   44.7219 H   0  0  0  0  0  0  0  0  0  0  0  0
   58.7833   29.7210   46.1826 H   0  0  0  0  0  0  0  0  0  0  0  0
   59.0874   28.4157   44.9981 H   0  0  0  0  0  0  0  0  0  0  0  0
   57.1713   28.9115   43.8682 H   0  0  0  0  0  0  0  0  0  0  0  0
   56.1998   28.8372   45.3677 H   0  0  0  0  0  0  0  0  0  0  0  0
   57.4327   30.4946   42.8955 H   0  0  0  0  0  0  0  0  0  0  0  0
   56.0254   31.5252   43.2873 H   0  0  0  0  0  0  0  0  0  0  0  0
   58.9950   32.1770   43.7727 H   0  0  0  0  0  0  0  0  0  0  0  0
   57.9071   32.9934   42.6242 H   0  0  0  0  0  0  0  0  0  0  0  0
   57.9922   34.3544   44.6306 H   0  0  0  0  0  0  0  0  0  0  0  0
   56.3964   33.5470   44.6203 H   0  0  0  0  0  0  0  0  0  0  0  0
   58.7351   33.1609   46.4446 H   0  0  0  0  0  0  0  0  0  0  0  0
   56.9896   32.8897   46.7475 H   0  0  0  0  0  0  0  0  0  0  0  0
   59.0070   31.0628   45.3862 H   0  0  0  0  0  0  0  0  0  0  0  0
   57.9069   30.7218   46.7827 H   0  0  0  0  0  0  0  0  0  0  0  0
   56.2035   24.2141   42.6471 H   0  0  0  0  0  0  0  0  0  0  0  0
   56.3309   22.0644   41.4278 H   0  0  0  0  0  0  0  0  0  0  0  0
   56.2778   19.9697   45.1242 H   0  0  0  0  0  0  0  0  0  0  0  0
   56.1471   22.1329   46.3902 H   0  0  0  0  0  0  0  0  0  0  0  0
  1  2  1  0
  2  3  1  0
  3  4  1  0
  4  5  1  0
  5  6  1  0
  6  7  1  0
  7  8  1  0
  8  9  1  0
  9 10  1  0
 10 11  1  0
 11 12  1  0
  3 13  2  0
 13 14  1  0
 14 15  2  0
 15 16  1  0
 16 17  2  0
 17 18  1  0
 18 19  2  0
 19 20  1  0
 20 21  2  0
 15  2  1  0
 21 16  1  0
 12  7  1  0
  1 22  1  0
  1 23  1  0
  1 24  1  0
  5 25  1  0
  5 26  1  0
  6 27  1  0
  6 28  1  0
  8 29  1  0
  8 30  1  0
  9 31  1  0
  9 32  1  0
 10 33  1  0
 10 34  1  0
 11 35  1  0
 11 36  1  0
 12 37  1  0
 12 38  1  0
 17 39  1  0
 18 40  1  0
 20 41  1  0
 21 42  1  0
M  END
>  <smiles>  (5) 
Cn1c(SCCN2CCCCC2)nnc1-c1ccncc1

>  <score_type>  (5) 
oracle

>  <origin>  (5) 
adg

>  <m_score__min__energy>  (5) 
-7.9800000000000004

>  <m_primary>  (5) 
energy

$$$$
5:0
     RDKit          3D

 57 59  0  0  0  0  0  0  0  0999 V2000
   63.0140   33.8510   46.3580 C   0  0  0  0  0  0  0  0  0  0  0  0
   63.7460   32.6930   46.9520 C   0  0  0  0  0  0  0  0  0  0  0  0
   63.4550   32.3080   48.1980 O   0  0  0  0  0  0  0  0  0  0  0  0
   63.7900   33.0200   49.2870 C   0  0  0  0  0  0  0  0  0  0  0  0
   62.6910   33.7680   49.9400 C   0  0  0  0  0  0  0  0  0  0  0  0
   61.4020   33.2800   49.4340 N   0  0  0  0  0  0  0  0  0  0  0  0
   60.8600   32.2490   50.2670 C   0  0  0  0  0  0  0  0  0  0  0  0
   60.1190   31.2710   49.3500 C   0  0  0  0  0  0  0  0  0  0  0  0
   60.5370   31.3980   47.9890 N   0  0  0  0  0  0  0  0  0  0  0  0
   59.7720   31.1100   46.8460 C   0  0  0  0  0  0  0  0  0  0  0  0
   59.6190   29.8630   46.2850 C   0  0  0  0  0  0  0  0  0  0  0  0
   58.8250   29.6870   45.1490 C   0  0  0  0  0  0  0  0  0  0  0  0
   58.1880   30.7480   44.5760 N   0  0  0  0  0  0  0  0  0  0  0  0
   57.3920   30.5590   43.3910 C   0  0  0  0  0  0  0  0  0  0  0  0
   55.9900   30.0940   43.7170 C   0  0  0  0  0  0  0  0  0  0  0  0
   58.3290   31.9860   45.1220 C   0  0  0  0  0  0  0  0  0  0  0  0
   57.7060   33.1020   44.6030 C   0  0  0  0  0  0  0  0  0  0  0  0
   57.8410   34.3600   45.1590 C   0  0  0  0  0  0  0  0  0  0  0  0
   58.6190   34.5540   46.2760 C   0  0  0  0  0  0  0  0  0  0  0  0
   59.2500   33.4550   46.8110 C   0  0  0  0  0  0  0  0  0  0  0  0
   59.1120   32.1960   46.2510 C   0  0  0  0  0  0  0  0  0  0  0  0
   58.6410   28.3500   44.5510 C   0  0  0  0  0  0  0  0  0  0  0  0
   58.7150   27.3290   45.6770 C   0  0  0  0  0  0  0  0  0  0  0  0
   60.1160   27.4180   46.2370 C   0  0  0  0  0  0  0  0  0  0  0  0
   60.3380   28.7400   46.9390 C   0  0  0  0  0  0  0  0  0  0  0  0
   62.6138   34.4841   47.1636 H   0  0  0  0  0  0  0  0  0  0  0  0
   63.7037   34.4409   45.7364 H   0  0  0  0  0  0  0  0  0  0  0  0
   62.1853   33.4811   45.7364 H   0  0  0  0  0  0  0  0  0  0  0  0
   63.5641   31.8278   46.2975 H   0  0  0  0  0  0  0  0  0  0  0  0
   64.7844   33.0487   47.0237 H   0  0  0  0  0  0  0  0  0  0  0  0
   64.2092   32.3235   50.0281 H   0  0  0  0  0  0  0  0  0  0  0  0
   64.4984   33.7839   48.9341 H   0  0  0  0  0  0  0  0  0  0  0  0
   62.7395   33.6160   51.0284 H   0  0  0  0  0  0  0  0  0  0  0  0
   62.7920   34.8402   49.7159 H   0  0  0  0  0  0  0  0  0  0  0  0
   61.5190   32.9750   48.4370 H   0  0  0  0  0  0  0  0  0  0  0  0
   61.6704   31.7280   50.7979 H   0  0  0  0  0  0  0  0  0  0  0  0
   60.1787   32.6721   51.0198 H   0  0  0  0  0  0  0  0  0  0  0  0
   60.3188   30.2439   49.6894 H   0  0  0  0  0  0  0  0  0  0  0  0
   59.0448   31.5025   49.4005 H   0  0  0  0  0  0  0  0  0  0  0  0
   61.5280   31.7430   47.8140 H   0  0  0  0  0  0  0  0  0  0  0  0
   57.3320   31.5136   42.8477 H   0  0  0  0  0  0  0  0  0  0  0  0
   57.8735   29.7819   42.7792 H   0  0  0  0  0  0  0  0  0  0  0  0
   55.8623   30.0516   44.8087 H   0  0  0  0  0  0  0  0  0  0  0  0
   55.2613   30.7986   43.2897 H   0  0  0  0  0  0  0  0  0  0  0  0
   55.8268   29.0936   43.2897 H   0  0  0  0  0  0  0  0  0  0  0  0
   57.0754   32.9857   43.7092 H   0  0  0  0  0  0  0  0  0  0  0  0
   57.3205   35.2152   44.7031 H   0  0  0  0  0  0  0  0  0  0  0  0
   58.7327   35.5516   46.7254 H   0  0  0  0  0  0  0  0  0  0  0  0
   59.8791   33.5792   47.7048 H   0  0  0  0  0  0  0  0  0  0  0  0
   57.6604   28.2921   44.0559 H   0  0  0  0  0  0  0  0  0  0  0  0
   59.4187   28.1527   43.7985 H   0  0  0  0  0  0  0  0  0  0  0  0
   57.9769   27.5676   46.4569 H   0  0  0  0  0  0  0  0  0  0  0  0
   58.4929   26.3149   45.3132 H   0  0  0  0  0  0  0  0  0  0  0  0
   60.2685   26.5993   46.9557 H   0  0  0  0  0  0  0  0  0  0  0  0
   60.8310   27.3394   45.4048 H   0  0  0  0  0  0  0  0  0  0  0  0
   59.9835   28.6516   47.9765 H   0  0  0  0  0  0  0  0  0  0  0  0
   61.4142   28.9634   46.8950 H   0  0  0  0  0  0  0  0  0  0  0  0
  1  2  1  0
  2  3  1  0
  3  4  1  0
  4  5  1  0
  5  6  1  0
  6  7  1  0
  7  8  1  0
  8  9  1  0
  9 10  1  0
 10 11  2  0
 11 12  1  0
 12 13  2  0
 13 14  1  0
 14 15  1  0
 13 16  1  0
 16 17  2  0
 17 18  1  0
 18 19  2  0
 19 20  1  0
 20 21  2  0
 12 22  1  0
 22 23  1  0
 23 24  1  0
 24 25  1  0
 21 10  1  0
 25 11  1  0
 21 16  1  0
  1 26  1  0
  1 27  1  0
  1 28  1  0
  2 29  1  0
  2 30  1  0
  4 31  1  0
  4 32  1  0
  5 33  1  0
  5 34  1  0
  6 35  1  0
  7 36  1  0
  7 37  1  0
  8 38  1  0
  8 39  1  0
  9 40  1  0
 14 41  1  0
 14 42  1  0
 15 43  1  0
 15 44  1  0
 15 45  1  0
 17 46  1  0
 18 47  1  0
 19 48  1  0
 20 49  1  0
 22 50  1  0
 22 51  1  0
 23 52  1  0
 23 53  1  0
 24 54  1  0
 24 55  1  0
 25 56  1  0
 25 57  1  0
M  CHG  1  13   1
M  END
>  <smiles>  (6) 
CCOCCNCCNc1c2c([n+](CC)c3ccccc13)CCCC2

>  <score_type>  (6) 
oracle

>  <origin>  (6) 
adg

>  <m_score__min__energy>  (6) 
-4.8499999999999996

>  <m_primary>  (6) 
energy

$$$$
6:0
     RDKit          3D

 69 71  0  0  0  0  0  0  0  0999 V2000
   61.5340   29.7040   50.4600 C   0  0  0  0  0  0  0  0  0  0  0  0
   60.3030   28.9680   49.9100 C   0  0  0  0  0  0  0  0  0  0  0  0
   59.2670   29.8380   49.5610 N   0  0  0  0  0  0  0  0  0  0  0  0
   58.5060   30.5580   50.4770 C   0  0  0  0  0  0  0  0  0  0  0  0
   58.3860   32.0230   50.4450 C   0  0  0  0  0  0  0  0  0  0  0  0
   59.3590   32.8690   51.1640 C   0  0  0  0  0  0  0  0  0  0  0  0
   60.4290   33.8160   50.0380 S   0  0  0  0  0  0  0  0  0  0  0  0
   62.1670   33.3610   50.2880 C   0  0  0  0  0  0  0  0  0  0  0  0
   63.0800   34.0650   49.3180 C   0  0  0  0  0  0  0  0  0  0  0  0
   63.6810   33.0870   48.3440 C   0  0  0  0  0  0  0  0  0  0  0  0
   62.7630   32.8490   47.1400 C   0  0  0  0  0  0  0  0  0  0  0  0
   62.2520   31.4230   47.3070 C   0  0  0  0  0  0  0  0  0  0  0  0
   60.8620   31.3750   47.7120 N   0  0  0  0  0  0  0  0  0  0  0  0
   59.8990   31.3440   46.6530 C   0  0  0  0  0  0  0  0  0  0  0  0
   59.3100   32.5620   46.2650 C   0  0  0  0  0  0  0  0  0  0  0  0
   58.4070   32.5500   45.2070 C   0  0  0  0  0  0  0  0  0  0  0  0
   58.1050   31.3770   44.5640 N   0  0  0  0  0  0  0  0  0  0  0  0
   57.1700   31.3820   43.4610 C   0  0  0  0  0  0  0  0  0  0  0  0
   57.7370   31.9540   42.1900 C   0  0  0  0  0  0  0  0  0  0  0  0
   58.6800   30.2220   44.9550 C   0  0  0  0  0  0  0  0  0  0  0  0
   58.4030   29.0020   44.3560 C   0  0  0  0  0  0  0  0  0  0  0  0
   58.9780   27.8160   44.7580 C   0  0  0  0  0  0  0  0  0  0  0  0
   59.8730   27.7850   45.7980 C   0  0  0  0  0  0  0  0  0  0  0  0
   60.1730   28.9740   46.4170 C   0  0  0  0  0  0  0  0  0  0  0  0
   59.5930   30.1670   46.0080 C   0  0  0  0  0  0  0  0  0  0  0  0
   57.8060   33.8430   44.8350 C   0  0  0  0  0  0  0  0  0  0  0  0
   58.9150   34.9040   44.9710 C   0  0  0  0  0  0  0  0  0  0  0  0
   59.2960   35.0430   46.4250 C   0  0  0  0  0  0  0  0  0  0  0  0
   59.6750   33.7400   47.0490 C   0  0  0  0  0  0  0  0  0  0  0  0
   61.5091   29.6891   51.5596 H   0  0  0  0  0  0  0  0  0  0  0  0
   62.4481   29.2041   50.1071 H   0  0  0  0  0  0  0  0  0  0  0  0
   61.5263   30.7458   50.1071 H   0  0  0  0  0  0  0  0  0  0  0  0
   60.6022   28.4005   49.0165 H   0  0  0  0  0  0  0  0  0  0  0  0
   59.9283   28.3065   50.7049 H   0  0  0  0  0  0  0  0  0  0  0  0
   58.8660   29.7210   48.6060 H   0  0  0  0  0  0  0  0  0  0  0  0
   57.4809   30.1684   50.3913 H   0  0  0  0  0  0  0  0  0  0  0  0
   59.0772   30.4052   51.4046 H   0  0  0  0  0  0  0  0  0  0  0  0
   58.4310   32.3201   49.3868 H   0  0  0  0  0  0  0  0  0  0  0  0
   57.4478   32.2069   50.9890 H   0  0  0  0  0  0  0  0  0  0  0  0
   58.8078   33.5747   51.8029 H   0  0  0  0  0  0  0  0  0  0  0  0
   60.0046   32.2042   51.7567 H   0  0  0  0  0  0  0  0  0  0  0  0
   62.4611   33.6317   51.3128 H   0  0  0  0  0  0  0  0  0  0  0  0
   62.2623   32.2782   50.1195 H   0  0  0  0  0  0  0  0  0  0  0  0
   62.5034   34.8192   48.7624 H   0  0  0  0  0  0  0  0  0  0  0  0
   63.8928   34.5445   49.8832 H   0  0  0  0  0  0  0  0  0  0  0  0
   64.6420   33.4851   47.9863 H   0  0  0  0  0  0  0  0  0  0  0  0
   63.8205   32.1276   48.8636 H   0  0  0  0  0  0  0  0  0  0  0  0
   61.9258   33.5625   47.1456 H   0  0  0  0  0  0  0  0  0  0  0  0
   63.2907   32.9888   46.1850 H   0  0  0  0  0  0  0  0  0  0  0  0
   62.3581   30.8957   46.3475 H   0  0  0  0  0  0  0  0  0  0  0  0
   62.8473   30.9456   48.0992 H   0  0  0  0  0  0  0  0  0  0  0  0
   60.5360   31.3620   48.6960 H   0  0  0  0  0  0  0  0  0  0  0  0
   56.8572   30.3456   43.2662 H   0  0  0  0  0  0  0  0  0  0  0  0
   56.3284   32.0260   43.7559 H   0  0  0  0  0  0  0  0  0  0  0  0
   58.4919   32.7155   42.4354 H   0  0  0  0  0  0  0  0  0  0  0  0
   58.2047   31.1500   41.6027 H   0  0  0  0  0  0  0  0  0  0  0  0
   56.9289   32.4146   41.6027 H   0  0  0  0  0  0  0  0  0  0  0  0
   57.6894   28.9802   43.5191 H   0  0  0  0  0  0  0  0  0  0  0  0
   58.7163   26.8822   44.2388 H   0  0  0  0  0  0  0  0  0  0  0  0
   60.3339   26.8411   46.1244 H   0  0  0  0  0  0  0  0  0  0  0  0
   60.8872   28.9809   47.2536 H   0  0  0  0  0  0  0  0  0  0  0  0
   57.4414   33.8069   43.7978 H   0  0  0  0  0  0  0  0  0  0  0  0
   56.9496   34.0815   45.4828 H   0  0  0  0  0  0  0  0  0  0  0  0
   59.7948   34.5928   44.3886 H   0  0  0  0  0  0  0  0  0  0  0  0
   58.5499   35.8698   44.5915 H   0  0  0  0  0  0  0  0  0  0  0  0
   60.1509   35.7311   46.5005 H   0  0  0  0  0  0  0  0  0  0  0  0
   58.4166   35.4258   46.9636 H   0  0  0  0  0  0  0  0  0  0  0  0
   60.7656   33.7324   47.1925 H   0  0  0  0  0  0  0  0  0  0  0  0
   59.1155   33.6719   47.9936 H   0  0  0  0  0  0  0  0  0  0  0  0
  1  2  1  0
  2  3  1  0
  3  4  1  0
  4  5  1  0
  5  6  1  0
  6  7  1  0
  7  8  1  0
  8  9  1  0
  9 10  1  0
 10 11  1  0
 11 12  1  0
 12 13  1  0
 13 14  1  0
 14 15  2  0
 15 16  1  0
 16 17  2  0
 17 18  1  0
 18 19  1  0
 17 20  1  0
 20 21  2  0
 21 22  1  0
 22 23  2  0
 23 24  1  0
 24 25  2  0
 16 26  1  0
 26 27  1  0
 27 28  1  0
 28 29  1  0
 25 14  1  0
 29 15  1  0
 25 20  1  0
  1 30  1  0
  1 31  1  0
  1 32  1  0
  2 33  1  0
  2 34  1  0
  3 35  1  0
  4 36  1  0
  4 37  1  0
  5 38  1  0
  5 39  1  0
  6 40  1  0
  6 41  1  0
  8 42  1  0
  8 43  1  0
  9 44  1  0
  9 45  1  0
 10 46  1  0
 10 47  1  0
 11 48  1  0
 11 49  1  0
 12 50  1  0
 12 51  1  0
 13 52  1  0
 18 53  1  0
 18 54  1  0
 19 55  1  0
 19 56  1  0
 19 57  1  0
 21 58  1  0
 22 59  1  0
 23 60  1  0
 24 61  1  0
 26 62  1  0
 26 63  1  0
 27 64  1  0
 27 65  1  0
 28 66  1  0
 28 67  1  0
 29 68  1  0
 29 69  1  0
M  CHG  1  17   1
M  END
>  <smiles>  (7) 
CCNCCCSCCCCCNc1c2c([n+](CC)c3ccccc13)CCCC2

>  <score_type>  (7) 
oracle

>  <origin>  (7) 
adg

>  <m_score__min__energy>  (7) 
-6.6299999999999999

>  <m_primary>  (7) 
energy

$$$$
7:0
     RDKit          3D

 42 43  0  0  0  0  0  0  0  0999 V2000
   59.6540   35.0990   46.0460 C   0  0  0  0  0  0  0  0  0  0  0  0
   58.7570   34.6260   44.8850 C   0  0  0  0  0  0  0  0  0  0  0  0
   58.3660   33.3900   44.9370 O   0  0  0  0  0  0  0  0  0  0  0  0
   57.9910   32.1750   44.9830 C   0  0  0  0  0  0  0  0  0  0  0  0
   58.4040   31.3190   46.0290 C   0  0  0  0  0  0  0  0  0  0  0  0
   58.0080   30.0110   46.1000 C   0  0  0  0  0  0  0  0  0  0  0  0
   57.1860   29.5320   45.1170 C   0  0  0  0  0  0  0  0  0  0  0  0
   56.7920   28.1580   45.2230 N   0  0  0  0  0  0  0  0  0  0  0  0
   57.4470   27.2220   46.1190 C   0  0  0  0  0  0  0  0  0  0  0  0
   56.5410   26.0730   46.4980 C   0  0  0  0  0  0  0  0  0  0  0  0
   55.2240   26.2000   46.0260 N   0  0  0  0  0  0  0  0  0  0  0  0
   54.5230   25.0730   45.5780 C   0  0  0  0  0  0  0  0  0  0  0  0
   55.3910   23.9770   45.0870 C   0  0  0  0  0  0  0  0  0  0  0  0
   55.7360   24.0410   43.7360 C   0  0  0  0  0  0  0  0  0  0  0  0
   56.5070   23.1030   43.1130 C   0  0  0  0  0  0  0  0  0  0  0  0
   56.9620   22.0490   43.8500 C   0  0  0  0  0  0  0  0  0  0  0  0
   56.6270   21.9730   45.1920 C   0  0  0  0  0  0  0  0  0  0  0  0
   55.8470   22.9220   45.8280 C   0  0  0  0  0  0  0  0  0  0  0  0
   56.7380   30.3000   44.0610 C   0  0  0  0  0  0  0  0  0  0  0  0
   57.1470   31.6080   44.0130 C   0  0  0  0  0  0  0  0  0  0  0  0
   59.1764   34.8472   47.0044 H   0  0  0  0  0  0  0  0  0  0  0  0
   60.6318   34.5992   45.9810 H   0  0  0  0  0  0  0  0  0  0  0  0
   59.7939   36.1881   45.9810 H   0  0  0  0  0  0  0  0  0  0  0  0
   57.8601   35.2627   44.8714 H   0  0  0  0  0  0  0  0  0  0  0  0
   59.3771   34.7037   43.9797 H   0  0  0  0  0  0  0  0  0  0  0  0
   59.0658   31.7174   46.8121 H   0  0  0  0  0  0  0  0  0  0  0  0
   58.3412   29.3631   46.9241 H   0  0  0  0  0  0  0  0  0  0  0  0
   56.0000   27.7750   44.6460 H   0  0  0  0  0  0  0  0  0  0  0  0
   58.3413   26.8197   45.6206 H   0  0  0  0  0  0  0  0  0  0  0  0
   57.7138   27.7624   47.0392 H   0  0  0  0  0  0  0  0  0  0  0  0
   56.9676   25.1466   46.0860 H   0  0  0  0  0  0  0  0  0  0  0  0
   56.4842   26.0634   47.5965 H   0  0  0  0  0  0  0  0  0  0  0  0
   54.7830   27.1110   45.9780 H   0  0  0  0  0  0  0  0  0  0  0  0
   53.9186   24.6877   46.4124 H   0  0  0  0  0  0  0  0  0  0  0  0
   53.9100   25.3989   44.7248 H   0  0  0  0  0  0  0  0  0  0  0  0
   55.3675   24.8911   43.1431 H   0  0  0  0  0  0  0  0  0  0  0  0
   56.7549   23.1944   42.0452 H   0  0  0  0  0  0  0  0  0  0  0  0
   57.5857   21.2710   43.3855 H   0  0  0  0  0  0  0  0  0  0  0  0
   56.9980   21.1195   45.7784 H   0  0  0  0  0  0  0  0  0  0  0  0
   55.6012   22.8309   46.8963 H   0  0  0  0  0  0  0  0  0  0  0  0
   56.0784   29.8790   43.2879 H   0  0  0  0  0  0  0  0  0  0  0  0
   56.8003   32.2391   43.1814 H   0  0  0  0  0  0  0  0  0  0  0  0
  1  2  1  0
  2  3  1  0
  3  4  1  0
  4  5  2  0
  5  6  1  0
  6  7  2  0
  7  8  1  0
  8  9  1  0
  9 10  1  0
 10 11  1  0
 11 12  1  0
 12 13  1  0
 13 14  2  0
 14 15  1  0
 15 16  2  0
 16 17  1  0
 17 18  2  0
  7 19  1  0
 19 20  2  0
 20  4  1  0
 18 13  1  0
  1 21  1  0
  1 22  1  0
  1 23  1  0
  2 24  1  0
  2 25  1  0
  5 26  1  0
  6 27  1  0
  8 28  1  0
  9 29  1  0
  9 30  1  0
 10 31  1  0
 10 32  1  0
 11 33  1  0
 12 34  1  0
 12 35  1  0
 14 36  1  0
 15 37  1  0
 16 38  1  0
 17 39  1  0
 18 40  1  0
 19 41  1  0
 20 42  1  0
M  END
>  <smiles>  (8) 
CCOc1ccc(NCCNCc2ccccc2)cc1

>  <score_type>  (8) 
oracle

>  <origin>  (8) 
adg

>  <m_score__min__energy>  (8) 
-6.7699999999999996

>  <m_primary>  (8) 
energy

$$$$
8:0
     RDKit          3D

 43 45  0  0  0  0  0  0  0  0999 V2000
   64.6040   33.0850   49.3120 C   0  0  0  0  0  0  0  0  0  0  0  0
   63.5800   33.5040   48.2900 C   0  0  0  0  0  0  0  0  0  0  0  0
   63.5860   32.6830   47.1190 N   0  0  0  0  0  0  0  0  0  0  0  0
   62.7080   31.5220   47.2030 C   0  0  0  0  0  0  0  0  0  0  0  0
   61.9340   31.4510   48.4920 C   0  0  0  0  0  0  0  0  0  0  0  0
   60.5170   31.5430   48.3660 N   0  0  0  0  0  0  0  0  0  0  0  0
   59.7810   31.4260   47.1820 C   0  0  0  0  0  0  0  0  0  0  0  0
   59.4740   32.5990   46.4810 C   0  0  0  0  0  0  0  0  0  0  0  0
   59.9100   33.8150   46.9930 C   0  0  0  0  0  0  0  0  0  0  0  0
   59.6270   34.9940   46.3340 C   0  0  0  0  0  0  0  0  0  0  0  0
   58.9030   34.9440   45.1610 C   0  0  0  0  0  0  0  0  0  0  0  0
   58.4660   33.7170   44.6500 C   0  0  0  0  0  0  0  0  0  0  0  0
   58.7400   32.5430   45.2920 C   0  0  0  0  0  0  0  0  0  0  0  0
   58.3000   31.3960   44.7700 N   0  0  0  0  0  0  0  0  0  0  0  0
   57.5430   31.2490   43.5630 C   0  0  0  0  0  0  0  0  0  0  0  0
   58.5930   30.2440   45.4440 C   0  0  0  0  0  0  0  0  0  0  0  0
   58.1610   29.0150   44.9680 C   0  0  0  0  0  0  0  0  0  0  0  0
   58.4150   27.8270   45.6060 C   0  0  0  0  0  0  0  0  0  0  0  0
   57.7760   26.1700   44.8670 Br  0  0  0  0  0  0  0  0  0  0  0  0
   59.1300   27.8630   46.7690 C   0  0  0  0  0  0  0  0  0  0  0  0
   59.5630   29.0700   47.2520 C   0  0  0  0  0  0  0  0  0  0  0  0
   59.3170   30.2610   46.6240 C   0  0  0  0  0  0  0  0  0  0  0  0
   64.2020   33.2495   50.3226 H   0  0  0  0  0  0  0  0  0  0  0  0
   64.8388   32.0185   49.1799 H   0  0  0  0  0  0  0  0  0  0  0  0
   65.5191   33.6810   49.1799 H   0  0  0  0  0  0  0  0  0  0  0  0
   62.5828   33.4488   48.7509 H   0  0  0  0  0  0  0  0  0  0  0  0
   63.8323   34.5270   47.9740 H   0  0  0  0  0  0  0  0  0  0  0  0
   64.5490   32.4120   46.8260 H   0  0  0  0  0  0  0  0  0  0  0  0
   61.9927   31.5645   46.3684 H   0  0  0  0  0  0  0  0  0  0  0  0
   63.3466   30.6275   47.1575 H   0  0  0  0  0  0  0  0  0  0  0  0
   62.1691   30.4913   48.9754 H   0  0  0  0  0  0  0  0  0  0  0  0
   62.2417   32.3307   49.0763 H   0  0  0  0  0  0  0  0  0  0  0  0
   59.9440   31.7180   49.2530 H   0  0  0  0  0  0  0  0  0  0  0  0
   60.4850   33.8380   47.9305 H   0  0  0  0  0  0  0  0  0  0  0  0
   59.9729   35.9572   46.7373 H   0  0  0  0  0  0  0  0  0  0  0  0
   58.6677   35.8747   44.6239 H   0  0  0  0  0  0  0  0  0  0  0  0
   57.8904   33.6975   43.7128 H   0  0  0  0  0  0  0  0  0  0  0  0
   56.4913   31.0448   43.8124 H   0  0  0  0  0  0  0  0  0  0  0  0
   57.6070   32.1763   42.9748 H   0  0  0  0  0  0  0  0  0  0  0  0
   57.9494   30.4130   42.9748 H   0  0  0  0  0  0  0  0  0  0  0  0
   57.5852   28.9914   44.0310 H   0  0  0  0  0  0  0  0  0  0  0  0
   59.3558   26.9334   47.3120 H   0  0  0  0  0  0  0  0  0  0  0  0
   60.1365   29.0824   48.1906 H   0  0  0  0  0  0  0  0  0  0  0  0
  1  2  1  0
  2  3  1  0
  3  4  1  0
  4  5  1  0
  5  6  1  0
  6  7  1  0
  7  8  2  0
  8  9  1  0
  9 10  2  0
 10 11  1  0
 11 12  2  0
 12 13  1  0
 13 14  2  0
 14 15  1  0
 14 16  1  0
 16 17  2  0
 17 18  1  0
 18 19  1  0
 18 20  2  0
 20 21  1  0
 21 22  2  0
 22  7  1  0
 13  8  1  0
 22 16  1  0
  1 23  1  0
  1 24  1  0
  1 25  1  0
  2 26  1  0
  2 27  1  0
  3 28  1  0
  4 29  1  0
  4 30  1  0
  5 31  1  0
  5 32  1  0
  6 33  1  0
  9 34  1  0
 10 35  1  0
 11 36  1  0
 12 37  1  0
 15 38  1  0
 15 39  1  0
 15 40  1  0
 17 41  1  0
 20 42  1  0
 21 43  1  0
M  CHG  1  14   1
M  END
>  <smiles>  (9) 
CCNCCNc1c2ccccc2[n+](C)c2cc(Br)ccc12

>  <score_type>  (9) 
oracle

>  <origin>  (9) 
adg

>  <m_score__min__energy>  (9) 
-6.1299999999999999

>  <m_primary>  (9) 
energy

$$$$
9:0
     RDKit          3D

 54 56  0  0  0  0  0  0  0  0999 V2000
   56.0520   24.3580   44.9510 C   0  0  0  0  0  0  0  0  0  0  0  0
   54.8600   25.0230   45.6110 C   0  0  0  0  0  0  0  0  0  0  0  0
   55.1710   26.3260   46.0140 O   0  0  0  0  0  0  0  0  0  0  0  0
   56.5430   26.4860   46.2360 C   0  0  0  0  0  0  0  0  0  0  0  0
   57.0980   27.5940   45.3710 C   0  0  0  0  0  0  0  0  0  0  0  0
   56.1190   28.5230   44.9210 N   0  0  0  0  0  0  0  0  0  0  0  0
   56.4390   29.3340   43.8090 C   0  0  0  0  0  0  0  0  0  0  0  0
   57.4790   30.4470   44.1560 C   0  0  0  0  0  0  0  0  0  0  0  0
   57.5400   30.6160   45.5850 N   0  0  0  0  0  0  0  0  0  0  0  0
   58.5290   31.1900   46.3830 C   0  0  0  0  0  0  0  0  0  0  0  0
   59.2040   30.5820   47.4240 C   0  0  0  0  0  0  0  0  0  0  0  0
   60.1290   31.2420   48.2100 C   0  0  0  0  0  0  0  0  0  0  0  0
   60.4130   32.5580   47.9640 N   0  0  0  0  0  0  0  0  0  0  0  0
   61.3850   33.2960   48.7360 C   0  0  0  0  0  0  0  0  0  0  0  0
   59.7830   33.1890   46.9600 C   0  0  0  0  0  0  0  0  0  0  0  0
   60.0990   34.5260   46.7550 C   0  0  0  0  0  0  0  0  0  0  0  0
   59.5070   35.2740   45.7560 C   0  0  0  0  0  0  0  0  0  0  0  0
   58.5850   34.6360   44.9670 C   0  0  0  0  0  0  0  0  0  0  0  0
   58.2660   33.2880   45.1760 C   0  0  0  0  0  0  0  0  0  0  0  0
   58.8570   32.5420   46.1730 C   0  0  0  0  0  0  0  0  0  0  0  0
   60.8410   30.6570   49.3670 C   0  0  0  0  0  0  0  0  0  0  0  0
   60.4640   29.2560   49.7060 C   0  0  0  0  0  0  0  0  0  0  0  0
   60.2230   28.5350   48.4270 C   0  0  0  0  0  0  0  0  0  0  0  0
   58.9750   29.1410   47.7200 C   0  0  0  0  0  0  0  0  0  0  0  0
   56.7345   23.9772   45.7251 H   0  0  0  0  0  0  0  0  0  0  0  0
   55.7056   23.5228   44.3245 H   0  0  0  0  0  0  0  0  0  0  0  0
   56.5807   25.0915   44.3245 H   0  0  0  0  0  0  0  0  0  0  0  0
   54.0256   25.0576   44.8950 H   0  0  0  0  0  0  0  0  0  0  0  0
   54.5814   24.4387   46.5004 H   0  0  0  0  0  0  0  0  0  0  0  0
   56.7110   26.7353   47.2941 H   0  0  0  0  0  0  0  0  0  0  0  0
   57.0548   25.5467   45.9795 H   0  0  0  0  0  0  0  0  0  0  0  0
   57.8530   28.1423   45.9536 H   0  0  0  0  0  0  0  0  0  0  0  0
   57.5193   27.1165   44.4741 H   0  0  0  0  0  0  0  0  0  0  0  0
   55.1510   28.1790   44.8960 H   0  0  0  0  0  0  0  0  0  0  0  0
   56.8571   28.6960   43.0164 H   0  0  0  0  0  0  0  0  0  0  0  0
   55.5141   29.8324   43.4832 H   0  0  0  0  0  0  0  0  0  0  0  0
   58.4698   30.1540   43.7785 H   0  0  0  0  0  0  0  0  0  0  0  0
   57.1741   31.3940   43.6867 H   0  0  0  0  0  0  0  0  0  0  0  0
   56.6790   30.2390   46.0810 H   0  0  0  0  0  0  0  0  0  0  0  0
   61.1902   33.1481   49.8085 H   0  0  0  0  0  0  0  0  0  0  0  0
   62.3957   32.9357   48.4938 H   0  0  0  0  0  0  0  0  0  0  0  0
   61.3095   34.3663   48.4938 H   0  0  0  0  0  0  0  0  0  0  0  0
   60.8437   35.0039   47.4084 H   0  0  0  0  0  0  0  0  0  0  0  0
   59.7634   36.3324   45.6007 H   0  0  0  0  0  0  0  0  0  0  0  0
   58.0882   35.1910   44.1576 H   0  0  0  0  0  0  0  0  0  0  0  0
   57.5203   32.8098   44.5238 H   0  0  0  0  0  0  0  0  0  0  0  0
   61.9186   30.6750   49.1471 H   0  0  0  0  0  0  0  0  0  0  0  0
   60.5580   31.2668   50.2377 H   0  0  0  0  0  0  0  0  0  0  0  0
   61.2802   28.7716   50.2620 H   0  0  0  0  0  0  0  0  0  0  0  0
   59.5622   29.2393   50.3357 H   0  0  0  0  0  0  0  0  0  0  0  0
   61.1022   28.6410   47.7745 H   0  0  0  0  0  0  0  0  0  0  0  0
   60.0474   27.4689   48.6332 H   0  0  0  0  0  0  0  0  0  0  0  0
   58.7918   28.6010   46.7793 H   0  0  0  0  0  0  0  0  0  0  0  0
   58.1029   29.0439   48.3833 H   0  0  0  0  0  0  0  0  0  0  0  0
  1  2  1  0
  2  3  1  0
  3  4  1  0
  4  5  1  0
  5  6  1  0
  6  7  1  0
  7  8  1  0
  8  9  1  0
  9 10  1  0
 10 11  2  0
 11 12  1  0
 12 13  2  0
 13 14  1  0
 13 15  1  0
 15 16  2  0
 16 17  1  0
 17 18  2  0
 18 19  1  0
 19 20  2  0
 12 21  1  0
 21 22  1  0
 22 23  1  0
 23 24  1  0
 20 10  1  0
 24 11  1  0
 20 15  1  0
  1 25  1  0
  1 26  1  0
  1 27  1  0
  2 28  1  0
  2 29  1  0
  4 30  1  0
  4 31  1  0
  5 32  1  0
  5 33  1  0
  6 34  1  0
  7 35  1  0
  7 36  1  0
  8 37  1  0
  8 38  1  0
  9 39  1  0
 14 40  1  0
 14 41  1  0
 14 42  1  0
 16 43  1  0
 17 44  1  0
 18 45  1  0
 19 46  1  0
 21 47  1  0
 21 48  1  0
 22 49  1  0
 22 50  1  0
 23 51  1  0
 23 52  1  0
 24 53  1  0
 24 54  1  0
M  CHG  1  13   1
M  END
>  <smiles>  (10) 
CCOCCNCCNc1c2c([n+](C)c3ccccc13)CCCC2

>  <score_type>  (10) 
oracle

>  <origin>  (10) 
adg

>  <m_score__min__energy>  (10) 
-6.7599999999999998

>  <m_primary>  (10) 
energy

$$$$
10:0
     RDKit          3D

 81 85  0  0  0  0  0  0  0  0999 V2000
   56.5780   31.3810   52.0110 C   0  0  0  0  0  0  0  0  0  0  0  0
   57.6640   32.4000   51.9040 C   0  0  0  0  0  0  0  0  0  0  0  0
   58.4810   32.3120   50.7150 N   0  0  0  0  0  0  0  0  0  0  0  0
   59.6120   33.1900   50.7540 C   0  0  0  0  0  0  0  0  0  0  0  0
   59.6770   34.2200   49.6760 C   0  0  0  0  0  0  0  0  0  0  0  0
   58.9350   30.9490   50.6040 C   0  0  0  0  0  0  0  0  0  0  0  0
   58.5270   30.2460   49.3560 C   0  0  0  0  0  0  0  0  0  0  0  0
   59.6980   29.9790   48.5020 N   0  0  0  0  0  0  0  0  0  0  0  0
   60.6200   31.0590   48.3000 C   0  0  0  0  0  0  0  0  0  0  0  0
   61.7660   31.1870   49.0600 C   0  0  0  0  0  0  0  0  0  0  0  0
   62.0630   30.3040   50.0570 C   0  0  0  0  0  0  0  0  0  0  0  0
   63.1990   30.4280   50.8220 C   0  0  0  0  0  0  0  0  0  0  0  0
   64.1060   31.4550   50.6220 C   0  0  0  0  0  0  0  0  0  0  0  0
   63.8170   32.3550   49.6160 C   0  0  0  0  0  0  0  0  0  0  0  0
   62.6780   32.2230   48.8570 C   0  0  0  0  0  0  0  0  0  0  0  0
   62.4400   33.1230   47.9000 N   0  0  0  0  0  0  0  0  0  0  0  0
   63.4010   34.2070   47.6990 C   0  0  0  0  0  0  0  0  0  0  0  0
   61.3230   33.0090   47.1520 C   0  0  0  0  0  0  0  0  0  0  0  0
   60.9220   33.8260   46.1540 N   0  0  0  0  0  0  0  0  0  0  0  0
   59.7650   33.3330   45.7090 C   0  0  0  0  0  0  0  0  0  0  0  0
   58.9420   33.7920   44.7080 C   0  0  0  0  0  0  0  0  0  0  0  0
   57.7540   33.1090   44.4120 C   0  0  0  0  0  0  0  0  0  0  0  0
   57.3660   31.9800   45.0880 C   0  0  0  0  0  0  0  0  0  0  0  0
   56.2270   31.2560   44.8710 O   0  0  0  0  0  0  0  0  0  0  0  0
   56.0790   30.0760   44.1370 C   0  0  0  0  0  0  0  0  0  0  0  0
   57.3120   29.5700   43.4930 C   0  0  0  0  0  0  0  0  0  0  0  0
   58.1350   28.6950   44.3030 N   0  0  0  0  0  0  0  0  0  0  0  0
   58.2760   27.4310   43.5750 C   0  0  0  0  0  0  0  0  0  0  0  0
   59.4450   29.2040   44.5620 C   0  0  0  0  0  0  0  0  0  0  0  0
   60.2470   28.2220   45.3860 C   0  0  0  0  0  0  0  0  0  0  0  0
   59.5350   27.6120   46.4520 N   0  0  0  0  0  0  0  0  0  0  0  0
   59.7390   26.2090   46.5640 C   0  0  0  0  0  0  0  0  0  0  0  0
   58.2220   28.0960   46.7050 C   0  0  0  0  0  0  0  0  0  0  0  0
   57.3940   28.3810   45.5030 C   0  0  0  0  0  0  0  0  0  0  0  0
   58.2170   31.5240   46.1050 C   0  0  0  0  0  0  0  0  0  0  0  0
   59.3940   32.1980   46.4000 C   0  0  0  0  0  0  0  0  0  0  0  0
   60.4030   31.9950   47.3280 C   0  0  0  0  0  0  0  0  0  0  0  0
   56.3655   31.1816   53.0717 H   0  0  0  0  0  0  0  0  0  0  0  0
   55.6696   31.7603   51.5201 H   0  0  0  0  0  0  0  0  0  0  0  0
   56.8988   30.4504   51.5201 H   0  0  0  0  0  0  0  0  0  0  0  0
   57.1978   33.3962   51.9226 H   0  0  0  0  0  0  0  0  0  0  0  0
   58.3402   32.2128   52.7512 H   0  0  0  0  0  0  0  0  0  0  0  0
   59.5977   33.7147   51.7207 H   0  0  0  0  0  0  0  0  0  0  0  0
   60.4921   32.5474   50.6042 H   0  0  0  0  0  0  0  0  0  0  0  0
   59.7401   35.2207   50.1283 H   0  0  0  0  0  0  0  0  0  0  0  0
   60.5657   34.0427   49.0525 H   0  0  0  0  0  0  0  0  0  0  0  0
   58.7730   34.1558   49.0525 H   0  0  0  0  0  0  0  0  0  0  0  0
   60.0340   30.9513   50.6499 H   0  0  0  0  0  0  0  0  0  0  0  0
   58.4626   30.4007   51.4324 H   0  0  0  0  0  0  0  0  0  0  0  0
   58.0471   29.2919   49.6194 H   0  0  0  0  0  0  0  0  0  0  0  0
   57.8245   30.8866   48.8027 H   0  0  0  0  0  0  0  0  0  0  0  0
   59.8150   29.0410   48.0830 H   0  0  0  0  0  0  0  0  0  0  0  0
   61.3742   29.4694   50.2544 H   0  0  0  0  0  0  0  0  0  0  0  0
   63.3926   29.6907   51.6150 H   0  0  0  0  0  0  0  0  0  0  0  0
   65.0140   31.5492   51.2358 H   0  0  0  0  0  0  0  0  0  0  0  0
   64.5069   33.1887   49.4189 H   0  0  0  0  0  0  0  0  0  0  0  0
   63.7365   34.5854   48.6759 H   0  0  0  0  0  0  0  0  0  0  0  0
   64.2667   33.8296   47.1350 H   0  0  0  0  0  0  0  0  0  0  0  0
   62.9226   35.0213   47.1350 H   0  0  0  0  0  0  0  0  0  0  0  0
   61.4140   34.6910   45.7820 H   0  0  0  0  0  0  0  0  0  0  0  0
   59.2152   34.6937   44.1402 H   0  0  0  0  0  0  0  0  0  0  0  0
   57.1089   33.4926   43.6078 H   0  0  0  0  0  0  0  0  0  0  0  0
   55.7078   29.2966   44.8187 H   0  0  0  0  0  0  0  0  0  0  0  0
   55.3848   30.3138   43.3176 H   0  0  0  0  0  0  0  0  0  0  0  0
   57.0174   29.0152   42.5900 H   0  0  0  0  0  0  0  0  0  0  0  0
   57.9293   30.4581   43.2923 H   0  0  0  0  0  0  0  0  0  0  0  0
   58.3684   26.6027   44.2929 H   0  0  0  0  0  0  0  0  0  0  0  0
   57.3901   27.2712   42.9428 H   0  0  0  0  0  0  0  0  0  0  0  0
   59.1753   27.4703   42.9428 H   0  0  0  0  0  0  0  0  0  0  0  0
   59.9601   29.3784   43.6059 H   0  0  0  0  0  0  0  0  0  0  0  0
   59.3538   30.1453   45.1238 H   0  0  0  0  0  0  0  0  0  0  0  0
   60.6055   27.4268   44.7158 H   0  0  0  0  0  0  0  0  0  0  0  0
   61.0592   28.8009   45.8500 H   0  0  0  0  0  0  0  0  0  0  0  0
   59.7798   25.9281   47.6267 H   0  0  0  0  0  0  0  0  0  0  0  0
   58.9087   25.6776   46.0759 H   0  0  0  0  0  0  0  0  0  0  0  0
   60.6863   25.9361   46.0759 H   0  0  0  0  0  0  0  0  0  0  0  0
   57.6944   27.3415   47.3070 H   0  0  0  0  0  0  0  0  0  0  0  0
   58.3529   29.0627   47.2134 H   0  0  0  0  0  0  0  0  0  0  0  0
   56.7756   27.4946   45.2984 H   0  0  0  0  0  0  0  0  0  0  0  0
   56.8087   29.2808   45.7432 H   0  0  0  0  0  0  0  0  0  0  0  0
   57.9489   30.6223   46.6752 H   0  0  0  0  0  0  0  0  0  0  0  0
  1  2  1  0
  2  3  1  0
  3  4  1  0
  4  5  1  0
  3  6  1  0
  6  7  1  0
  7  8  1  0
  8  9  1  0
  9 10  2  0
 10 11  1  0
 11 12  2  0
 12 13  1  0
 13 14  2  0
 14 15  1  0
 15 16  2  0
 16 17  1  0
 16 18  1  0
 18 19  1  0
 19 20  1  0
 20 21  2  0
 21 22  1  0
 22 23  2  0
 23 24  1  0
 24 25  1  0
 25 26  1  0
 26 27  1  0
 27 28  1  0
 27 29  1  0
 29 30  1  0
 30 31  1  0
 31 32  1  0
 31 33  1  0
 33 34  1  0
 23 35  1  0
 35 36  2  0
 36 37  1  0
 37  9  1  0
 15 10  1  0
 37 18  2  0
 36 20  1  0
 34 27  1  0
  1 38  1  0
  1 39  1  0
  1 40  1  0
  2 41  1  0
  2 42  1  0
  4 43  1  0
  4 44  1  0
  5 45  1  0
  5 46  1  0
  5 47  1  0
  6 48  1  0
  6 49  1  0
  7 50  1  0
  7 51  1  0
  8 52  1  0
 11 53  1  0
 12 54  1  0
 13 55  1  0
 14 56  1  0
 17 57  1  0
 17 58  1  0
 17 59  1  0
 19 60  1  0
 21 61  1  0
 22 62  1  0
 25 63  1  0
 25 64  1  0
 26 65  1  0
 26 66  1  0
 28 67  1  0
 28 68  1  0
 28 69  1  0
 29 70  1  0
 29 71  1  0
 30 72  1  0
 30 73  1  0
 32 74  1  0
 32 75  1  0
 32 76  1  0
 33 77  1  0
 33 78  1  0
 34 79  1  0
 34 80  1  0
 35 81  1  0
M  CHG  2  16   1  27   1
M  END
>  <smiles>  (11) 
CCN(CC)CCNc1c2ccccc2[n+](C)c2[nH]c3ccc(OCC[N+]4(C)CCN(C)CC4)cc3c12

>  <score_type>  (11) 
oracle

>  <origin>  (11) 
adg

>  <m_score__min__energy>  (11) 
-6.0599999999999996

>  <m_primary>  (11) 
energy

$$$$
11:0
     RDKit          3D

 50 51  0  0  0  0  0  0  0  0999 V2000
   59.4030   33.3450   49.7290 C   0  0  0  0  0  0  0  0  0  0  0  0
   59.6970   34.5670   48.9360 C   0  0  0  0  0  0  0  0  0  0  0  0
   58.8740   34.8350   47.8810 O   0  0  0  0  0  0  0  0  0  0  0  0
   59.4140   35.3840   46.7670 C   0  0  0  0  0  0  0  0  0  0  0  0
   59.9070   34.3620   45.7470 C   0  0  0  0  0  0  0  0  0  0  0  0
   60.2440   33.1050   46.4240 N   0  0  0  0  0  0  0  0  0  0  0  0
   59.4750   32.0160   46.5820 C   0  0  0  0  0  0  0  0  0  0  0  0
   57.7810   31.7640   46.1140 S   0  0  0  0  0  0  0  0  0  0  0  0
   57.4760   31.5460   44.3690 C   0  0  0  0  0  0  0  0  0  0  0  0
   58.0380   30.2960   43.7950 C   0  0  0  0  0  0  0  0  0  0  0  0
   56.9470   29.3730   43.3580 C   0  0  0  0  0  0  0  0  0  0  0  0
   55.5600   29.7210   43.7410 C   0  0  0  0  0  0  0  0  0  0  0  0
   55.1400   29.3320   44.9920 O   0  0  0  0  0  0  0  0  0  0  0  0
   60.2590   31.0520   47.2540 C   0  0  0  0  0  0  0  0  0  0  0  0
   59.6790   29.4580   47.6560 S   0  0  0  0  0  0  0  0  0  0  0  0
   59.4930   28.2670   46.3780 C   0  0  0  0  0  0  0  0  0  0  0  0
   58.1350   27.6220   46.2480 C   0  0  0  0  0  0  0  0  0  0  0  0
   61.4870   31.6430   47.4640 C   0  0  0  0  0  0  0  0  0  0  0  0
   62.6490   31.2170   48.0490 C   0  0  0  0  0  0  0  0  0  0  0  0
   63.7680   32.0130   48.1310 C   0  0  0  0  0  0  0  0  0  0  0  0
   63.7680   33.2930   47.6200 C   0  0  0  0  0  0  0  0  0  0  0  0
   62.6000   33.7240   47.0290 C   0  0  0  0  0  0  0  0  0  0  0  0
   61.4700   32.9170   46.9470 C   0  0  0  0  0  0  0  0  0  0  0  0
   59.4599   33.5815   50.8018 H   0  0  0  0  0  0  0  0  0  0  0  0
   58.3925   32.9846   49.4861 H   0  0  0  0  0  0  0  0  0  0  0  0
   60.1390   32.5644   49.4861 H   0  0  0  0  0  0  0  0  0  0  0  0
   59.6487   35.4264   49.6209 H   0  0  0  0  0  0  0  0  0  0  0  0
   60.6850   34.3853   48.4879 H   0  0  0  0  0  0  0  0  0  0  0  0
   58.6498   36.0119   46.2857 H   0  0  0  0  0  0  0  0  0  0  0  0
   60.2936   35.9599   47.0907 H   0  0  0  0  0  0  0  0  0  0  0  0
   59.1164   34.1763   45.0051 H   0  0  0  0  0  0  0  0  0  0  0  0
   60.8032   34.7547   45.2443 H   0  0  0  0  0  0  0  0  0  0  0  0
   56.3877   31.5381   44.2091 H   0  0  0  0  0  0  0  0  0  0  0  0
   57.9808   32.3788   43.8575 H   0  0  0  0  0  0  0  0  0  0  0  0
   58.6655   30.5483   42.9275 H   0  0  0  0  0  0  0  0  0  0  0  0
   58.6365   29.7920   44.5681 H   0  0  0  0  0  0  0  0  0  0  0  0
   56.9815   29.3194   42.2598 H   0  0  0  0  0  0  0  0  0  0  0  0
   57.1531   28.4287   43.8832 H   0  0  0  0  0  0  0  0  0  0  0  0
   55.4652   30.8155   43.6848 H   0  0  0  0  0  0  0  0  0  0  0  0
   54.9221   29.1630   43.0398 H   0  0  0  0  0  0  0  0  0  0  0  0
   55.2010   30.0940   45.6270 H   0  0  0  0  0  0  0  0  0  0  0  0
   59.7192   28.7640   45.4231 H   0  0  0  0  0  0  0  0  0  0  0  0
   60.1787   27.4485   46.6423 H   0  0  0  0  0  0  0  0  0  0  0  0
   57.7243   27.4269   47.2496 H   0  0  0  0  0  0  0  0  0  0  0  0
   57.4600   28.2957   45.6998 H   0  0  0  0  0  0  0  0  0  0  0  0
   58.2307   26.6732   45.6998 H   0  0  0  0  0  0  0  0  0  0  0  0
   62.6894   30.2011   48.4689 H   0  0  0  0  0  0  0  0  0  0  0  0
   64.6768   31.6219   48.6118 H   0  0  0  0  0  0  0  0  0  0  0  0
   64.6564   33.9387   47.6809 H   0  0  0  0  0  0  0  0  0  0  0  0
   62.5600   34.7396   46.6083 H   0  0  0  0  0  0  0  0  0  0  0  0
  1  2  1  0
  2  3  1  0
  3  4  1  0
  4  5  1  0
  5  6  1  0
  6  7  1  0
  7  8  1  0
  8  9  1  0
  9 10  1  0
 10 11  1  0
 11 12  1  0
 12 13  1  0
  7 14  2  0
 14 15  1  0
 15 16  1  0
 16 17  1  0
 14 18  1  0
 18 19  2  0
 19 20  1  0
 20 21  2  0
 21 22  1  0
 22 23  2  0
 23  6  1  0
 23 18  1  0
  1 24  1  0
  1 25  1  0
  1 26  1  0
  2 27  1  0
  2 28  1  0
  4 29  1  0
  4 30  1  0
  5 31  1  0
  5 32  1  0
  9 33  1  0
  9 34  1  0
 10 35  1  0
 10 36  1  0
 11 37  1  0
 11 38  1  0
 12 39  1  0
 12 40  1  0
 13 41  1  0
 16 42  1  0
 16 43  1  0
 17 44  1  0
 17 45  1  0
 17 46  1  0
 19 47  1  0
 20 48  1  0
 21 49  1  0
 22 50  1  0
M  END
>  <smiles>  (12) 
CCOCCn1c(SCCCCO)c(SCC)c2ccccc21

>  <score_type>  (12) 
oracle

>  <origin>  (12) 
adg

>  <m_score__min__energy>  (12) 
-7.8499999999999996

>  <m_primary>  (12) 
energy

$$$$
12:0
     RDKit          3D

 56 58  0  0  0  0  0  0  0  0999 V2000
   63.7730   32.8660   47.0960 C   0  0  0  0  0  0  0  0  0  0  0  0
   62.4320   33.5070   46.7420 C   0  0  0  0  0  0  0  0  0  0  0  0
   61.4440   33.1510   47.7130 N   0  0  0  0  0  0  0  0  0  0  0  0
   61.2240   34.2060   48.6680 C   0  0  0  0  0  0  0  0  0  0  0  0
   60.3330   33.7390   49.7850 C   0  0  0  0  0  0  0  0  0  0  0  0
   60.2590   32.3500   49.8310 O   0  0  0  0  0  0  0  0  0  0  0  0
   59.2290   31.9220   50.6820 C   0  0  0  0  0  0  0  0  0  0  0  0
   58.5110   30.7040   50.2040 C   0  0  0  0  0  0  0  0  0  0  0  0
   59.1900   29.9130   49.1530 C   0  0  0  0  0  0  0  0  0  0  0  0
   59.6890   30.5900   47.9970 N   0  0  0  0  0  0  0  0  0  0  0  0
   59.0440   30.5490   46.7490 C   0  0  0  0  0  0  0  0  0  0  0  0
   58.5890   31.7720   46.2530 C   0  0  0  0  0  0  0  0  0  0  0  0
   57.9310   31.8540   45.0240 C   0  0  0  0  0  0  0  0  0  0  0  0
   57.7120   30.7480   44.2710 N   0  0  0  0  0  0  0  0  0  0  0  0
   57.0290   30.7620   43.0060 C   0  0  0  0  0  0  0  0  0  0  0  0
   58.1500   29.5430   44.7350 C   0  0  0  0  0  0  0  0  0  0  0  0
   57.9660   28.3800   44.0040 C   0  0  0  0  0  0  0  0  0  0  0  0
   58.4090   27.1450   44.4480 C   0  0  0  0  0  0  0  0  0  0  0  0
   59.0500   27.0780   45.6510 C   0  0  0  0  0  0  0  0  0  0  0  0
   59.2350   28.2180   46.3730 C   0  0  0  0  0  0  0  0  0  0  0  0
   58.8100   29.4580   45.9660 C   0  0  0  0  0  0  0  0  0  0  0  0
   57.4560   33.1850   44.5030 C   0  0  0  0  0  0  0  0  0  0  0  0
   58.3860   34.2680   45.0630 C   0  0  0  0  0  0  0  0  0  0  0  0
   58.3550   34.2680   46.5760 C   0  0  0  0  0  0  0  0  0  0  0  0
   58.8020   32.9560   47.0300 N   0  0  0  0  0  0  0  0  0  0  0  0
   63.8780   32.8158   48.1898 H   0  0  0  0  0  0  0  0  0  0  0  0
   63.8159   31.8500   46.6765 H   0  0  0  0  0  0  0  0  0  0  0  0
   64.5905   33.4707   46.6765 H   0  0  0  0  0  0  0  0  0  0  0  0
   62.5456   34.6010   46.7232 H   0  0  0  0  0  0  0  0  0  0  0  0
   62.1110   33.1463   45.7537 H   0  0  0  0  0  0  0  0  0  0  0  0
   61.6200   32.2500   48.1930 H   0  0  0  0  0  0  0  0  0  0  0  0
   62.1914   34.5211   49.0863 H   0  0  0  0  0  0  0  0  0  0  0  0
   60.7351   35.0480   48.1562 H   0  0  0  0  0  0  0  0  0  0  0  0
   60.7345   34.1075   50.7405 H   0  0  0  0  0  0  0  0  0  0  0  0
   59.3214   34.1331   49.6076 H   0  0  0  0  0  0  0  0  0  0  0  0
   59.6644   31.7019   51.6679 H   0  0  0  0  0  0  0  0  0  0  0  0
   58.4879   32.7342   50.7169 H   0  0  0  0  0  0  0  0  0  0  0  0
   58.3546   30.0452   51.0709 H   0  0  0  0  0  0  0  0  0  0  0  0
   57.5839   31.0727   49.7409 H   0  0  0  0  0  0  0  0  0  0  0  0
   60.0455   29.4107   49.6282 H   0  0  0  0  0  0  0  0  0  0  0  0
   58.3981   29.2596   48.7580 H   0  0  0  0  0  0  0  0  0  0  0  0
   60.5890   31.1500   48.0810 H   0  0  0  0  0  0  0  0  0  0  0  0
   55.9425   30.7843   43.1762 H   0  0  0  0  0  0  0  0  0  0  0  0
   57.3294   31.6542   42.4370 H   0  0  0  0  0  0  0  0  0  0  0  0
   57.2926   29.8583   42.4370 H   0  0  0  0  0  0  0  0  0  0  0  0
   57.4488   28.4399   43.0350 H   0  0  0  0  0  0  0  0  0  0  0  0
   58.2479   26.2392   43.8450 H   0  0  0  0  0  0  0  0  0  0  0  0
   59.4136   26.1129   46.0337 H   0  0  0  0  0  0  0  0  0  0  0  0
   59.7555   28.1404   47.3389 H   0  0  0  0  0  0  0  0  0  0  0  0
   57.4939   33.1914   43.4037 H   0  0  0  0  0  0  0  0  0  0  0  0
   56.4180   33.3713   44.8159 H   0  0  0  0  0  0  0  0  0  0  0  0
   59.4137   34.0730   44.7227 H   0  0  0  0  0  0  0  0  0  0  0  0
   58.0447   35.2493   44.7018 H   0  0  0  0  0  0  0  0  0  0  0  0
   59.0270   35.0475   46.9642 H   0  0  0  0  0  0  0  0  0  0  0  0
   57.3378   34.4750   46.9399 H   0  0  0  0  0  0  0  0  0  0  0  0
   59.2930   32.9280   47.9620 H   0  0  0  0  0  0  0  0  0  0  0  0
  1  2  1  0
  2  3  1  0
  3  4  1  0
  4  5  1  0
  5  6  1  0
  6  7  1  0
  7  8  1  0
  8  9  1  0
  9 10  1  0
 10 11  1  0
 11 12  2  0
 12 13  1  0
 13 14  2  0
 14 15  1  0
 14 16  1  0
 16 17  2  0
 17 18  1  0
 18 19  2  0
 19 20  1  0
 20 21  2  0
 13 22  1  0
 22 23  1  0
 23 24  1  0
 24 25  1  0
 21 11  1  0
 25 12  1  0
 21 16  1  0
  1 26  1  0
  1 27  1  0
  1 28  1  0
  2 29  1  0
  2 30  1  0
  3 31  1  0
  4 32  1  0
  4 33  1  0
  5 34  1  0
  5 35  1  0
  7 36  1  0
  7 37  1  0
  8 38  1  0
  8 39  1  0
  9 40  1  0
  9 41  1  0
 10 42  1  0
 15 43  1  0
 15 44  1  0
 15 45  1  0
 17 46  1  0
 18 47  1  0
 19 48  1  0
 20 49  1  0
 22 50  1  0
 22 51  1  0
 23 52  1  0
 23 53  1  0
 24 54  1  0
 24 55  1  0
 25 56  1  0
M  CHG  1  14   1
M  END
>  <smiles>  (13) 
CCNCCOCCCNc1c2c([n+](C)c3ccccc13)CCCN2

>  <score_type>  (13) 
oracle

>  <origin>  (13) 
adg

>  <m_score__min__energy>  (13) 
-4.1500000000000004

>  <m_primary>  (13) 
energy

$$$$
13:0
     RDKit          3D

 28 29  0  0  0  0  0  0  0  0999 V2000
   61.3950   33.7790   47.4810 C   0  0  0  0  0  0  0  0  0  0  0  0
   60.1260   33.4950   46.7620 C   0  0  0  0  0  0  0  0  0  0  0  0
   59.7620   32.2020   46.3760 C   0  0  0  0  0  0  0  0  0  0  0  0
   58.5340   32.3390   45.7430 C   0  0  0  0  0  0  0  0  0  0  0  0
   57.8390   31.2250   45.1980 N   0  0  0  0  0  0  0  0  0  0  0  0
   57.9920   29.9680   45.9470 C   0  0  0  0  0  0  0  0  0  0  0  0
   57.0190   28.9210   45.4930 C   0  0  0  0  0  0  0  0  0  0  0  0
   55.8970   29.4550   44.8710 O   0  0  0  0  0  0  0  0  0  0  0  0
   56.3070   30.0380   43.6920 C   0  0  0  0  0  0  0  0  0  0  0  0
   57.0270   31.3130   44.0020 C   0  0  0  0  0  0  0  0  0  0  0  0
   58.2000   33.6460   45.7560 N   0  0  0  0  0  0  0  0  0  0  0  0
   57.0130   34.2320   45.2040 C   0  0  0  0  0  0  0  0  0  0  0  0
   59.1790   34.3300   46.3790 N   0  0  0  0  0  0  0  0  0  0  0  0
   61.2184   33.7395   48.5660 H   0  0  0  0  0  0  0  0  0  0  0  0
   62.1491   33.0274   47.2046 H   0  0  0  0  0  0  0  0  0  0  0  0
   61.7568   34.7803   47.2046 H   0  0  0  0  0  0  0  0  0  0  0  0
   60.3282   31.2731   46.5391 H   0  0  0  0  0  0  0  0  0  0  0  0
   59.0145   29.5897   45.8007 H   0  0  0  0  0  0  0  0  0  0  0  0
   57.7935   30.1787   47.0082 H   0  0  0  0  0  0  0  0  0  0  0  0
   57.5288   28.2532   44.7830 H   0  0  0  0  0  0  0  0  0  0  0  0
   56.6738   28.3827   46.3880 H   0  0  0  0  0  0  0  0  0  0  0  0
   56.9826   29.3537   43.1579 H   0  0  0  0  0  0  0  0  0  0  0  0
   55.4326   30.2500   43.0591 H   0  0  0  0  0  0  0  0  0  0  0  0
   57.6794   31.5632   43.1524 H   0  0  0  0  0  0  0  0  0  0  0  0
   56.2660   32.0881   44.1758 H   0  0  0  0  0  0  0  0  0  0  0  0
   56.3516   34.5585   46.0201 H   0  0  0  0  0  0  0  0  0  0  0  0
   57.2861   35.0988   44.5843 H   0  0  0  0  0  0  0  0  0  0  0  0
   56.4909   33.4881   44.5843 H   0  0  0  0  0  0  0  0  0  0  0  0
  1  2  1  0
  2  3  1  0
  3  4  2  0
  4  5  1  0
  5  6  1  0
  6  7  1  0
  7  8  1  0
  8  9  1  0
  9 10  1  0
  4 11  1  0
 11 12  1  0
 11 13  1  0
 13  2  2  0
 10  5  1  0
  1 14  1  0
  1 15  1  0
  1 16  1  0
  3 17  1  0
  6 18  1  0
  6 19  1  0
  7 20  1  0
  7 21  1  0
  9 22  1  0
  9 23  1  0
 10 24  1  0
 10 25  1  0
 12 26  1  0
 12 27  1  0
 12 28  1  0
M  END
>  <smiles>  (14) 
Cc1cc(N2CCOCC2)n(C)n1

>  <score_type>  (14) 
oracle

>  <origin>  (14) 
adg

>  <m_score__min__energy>  (14) 
-5.1900000000000004

>  <m_primary>  (14) 
energy

$$$$
14:0
     RDKit          3D

 85 89  0  0  0  0  0  0  0  0999 V2000
   54.6090   30.8350   51.9300 C   0  0  0  0  0  0  0  0  0  0  0  0
   55.8600   30.1760   52.4360 C   0  0  0  0  0  0  0  0  0  0  0  0
   56.9130   30.2110   51.6270 O   0  0  0  0  0  0  0  0  0  0  0  0
   57.7570   31.2360   51.4580 C   0  0  0  0  0  0  0  0  0  0  0  0
   58.9060   30.9800   50.5520 C   0  0  0  0  0  0  0  0  0  0  0  0
   59.7890   30.0160   51.0640 O   0  0  0  0  0  0  0  0  0  0  0  0
   60.3940   29.2350   50.0860 C   0  0  0  0  0  0  0  0  0  0  0  0
   59.5800   29.1690   48.8590 C   0  0  0  0  0  0  0  0  0  0  0  0
   60.1210   29.6650   47.6450 N   0  0  0  0  0  0  0  0  0  0  0  0
   59.3610   29.8450   46.4400 C   0  0  0  0  0  0  0  0  0  0  0  0
   58.9440   28.7950   45.6550 C   0  0  0  0  0  0  0  0  0  0  0  0
   59.2830   27.4960   45.9630 C   0  0  0  0  0  0  0  0  0  0  0  0
   58.8960   26.4140   45.2040 C   0  0  0  0  0  0  0  0  0  0  0  0
   58.1370   26.6590   44.0850 C   0  0  0  0  0  0  0  0  0  0  0  0
   57.7690   27.9200   43.7250 C   0  0  0  0  0  0  0  0  0  0  0  0
   58.1740   28.9810   44.5080 C   0  0  0  0  0  0  0  0  0  0  0  0
   57.8170   30.2240   44.1420 N   0  0  0  0  0  0  0  0  0  0  0  0
   57.0120   30.4020   42.9430 C   0  0  0  0  0  0  0  0  0  0  0  0
   58.2140   31.2650   44.8920 C   0  0  0  0  0  0  0  0  0  0  0  0
   57.9560   32.5910   44.6790 N   0  0  0  0  0  0  0  0  0  0  0  0
   58.5510   33.2490   45.6720 C   0  0  0  0  0  0  0  0  0  0  0  0
   58.6030   34.5960   45.9270 C   0  0  0  0  0  0  0  0  0  0  0  0
   59.2990   35.0680   47.0430 C   0  0  0  0  0  0  0  0  0  0  0  0
   59.9510   34.2390   47.9180 C   0  0  0  0  0  0  0  0  0  0  0  0
   60.6530   34.5850   49.0190 O   0  0  0  0  0  0  0  0  0  0  0  0
   60.9550   33.8870   50.1730 C   0  0  0  0  0  0  0  0  0  0  0  0
   61.8940   32.7540   49.9600 C   0  0  0  0  0  0  0  0  0  0  0  0
   63.2580   33.1880   49.7130 N   0  0  0  0  0  0  0  0  0  0  0  0
   63.3860   33.8260   48.4170 C   0  0  0  0  0  0  0  0  0  0  0  0
   64.1640   32.0590   49.6970 C   0  0  0  0  0  0  0  0  0  0  0  0
   65.5700   32.3930   50.0830 C   0  0  0  0  0  0  0  0  0  0  0  0
   65.6830   32.9820   51.3860 N   0  0  0  0  0  0  0  0  0  0  0  0
   66.3140   32.1060   52.3560 C   0  0  0  0  0  0  0  0  0  0  0  0
   66.4070   34.2420   51.3530 C   0  0  0  0  0  0  0  0  0  0  0  0
   64.3280   33.2600   51.8520 C   0  0  0  0  0  0  0  0  0  0  0  0
   63.6500   34.0800   50.7770 C   0  0  0  0  0  0  0  0  0  0  0  0
   59.8720   32.8660   47.6200 C   0  0  0  0  0  0  0  0  0  0  0  0
   59.1950   32.3870   46.5340 C   0  0  0  0  0  0  0  0  0  0  0  0
   58.9760   31.1210   46.0320 C   0  0  0  0  0  0  0  0  0  0  0  0
   53.9944   31.1588   52.7829 H   0  0  0  0  0  0  0  0  0  0  0  0
   54.8767   31.7091   51.3182 H   0  0  0  0  0  0  0  0  0  0  0  0
   54.0395   30.1198   51.3182 H   0  0  0  0  0  0  0  0  0  0  0  0
   56.1432   30.6720   53.3761 H   0  0  0  0  0  0  0  0  0  0  0  0
   55.6075   29.1107   52.5422 H   0  0  0  0  0  0  0  0  0  0  0  0
   57.1848   32.0812   51.0480 H   0  0  0  0  0  0  0  0  0  0  0  0
   58.1934   31.4323   52.4485 H   0  0  0  0  0  0  0  0  0  0  0  0
   58.5205   30.6268   49.5842 H   0  0  0  0  0  0  0  0  0  0  0  0
   59.4642   31.9218   50.4451 H   0  0  0  0  0  0  0  0  0  0  0  0
   61.3747   29.6684   49.8401 H   0  0  0  0  0  0  0  0  0  0  0  0
   60.5015   28.2140   50.4810 H   0  0  0  0  0  0  0  0  0  0  0  0
   59.3337   28.1099   48.6927 H   0  0  0  0  0  0  0  0  0  0  0  0
   58.7368   29.8443   49.0663 H   0  0  0  0  0  0  0  0  0  0  0  0
   61.1460   29.9420   47.5430 H   0  0  0  0  0  0  0  0  0  0  0  0
   59.8932   27.3138   46.8599 H   0  0  0  0  0  0  0  0  0  0  0  0
   59.1843   25.3899   45.4836 H   0  0  0  0  0  0  0  0  0  0  0  0
   57.8170   25.8113   43.4613 H   0  0  0  0  0  0  0  0  0  0  0  0
   57.1593   28.0894   42.8253 H   0  0  0  0  0  0  0  0  0  0  0  0
   55.9747   30.6314   43.2285 H   0  0  0  0  0  0  0  0  0  0  0  0
   57.4203   31.2316   42.3471 H   0  0  0  0  0  0  0  0  0  0  0  0
   57.0324   29.4776   42.3471 H   0  0  0  0  0  0  0  0  0  0  0  0
   57.4050   33.0200   43.9010 H   0  0  0  0  0  0  0  0  0  0  0  0
   58.0973   35.3037   45.2536 H   0  0  0  0  0  0  0  0  0  0  0  0
   59.3246   36.1522   47.2272 H   0  0  0  0  0  0  0  0  0  0  0  0
   61.4104   34.5846   50.8913 H   0  0  0  0  0  0  0  0  0  0  0  0
   60.0127   33.4572   50.5436 H   0  0  0  0  0  0  0  0  0  0  0  0
   61.8853   32.1177   50.8573 H   0  0  0  0  0  0  0  0  0  0  0  0
   61.5549   32.2081   49.0672 H   0  0  0  0  0  0  0  0  0  0  0  0
   63.6007   34.8960   48.5547 H   0  0  0  0  0  0  0  0  0  0  0  0
   64.2078   33.3563   47.8566 H   0  0  0  0  0  0  0  0  0  0  0  0
   62.4466   33.7096   47.8566 H   0  0  0  0  0  0  0  0  0  0  0  0
   63.7843   31.3025   50.3995 H   0  0  0  0  0  0  0  0  0  0  0  0
   64.1995   31.6981   48.6585 H   0  0  0  0  0  0  0  0  0  0  0  0
   66.1643   31.4675   50.0669 H   0  0  0  0  0  0  0  0  0  0  0  0
   65.9351   33.1371   49.3598 H   0  0  0  0  0  0  0  0  0  0  0  0
   66.0683   32.4471   53.3725 H   0  0  0  0  0  0  0  0  0  0  0  0
   65.9472   31.0785   52.2153 H   0  0  0  0  0  0  0  0  0  0  0  0
   67.4047   32.1284   52.2153 H   0  0  0  0  0  0  0  0  0  0  0  0
   66.6014   34.5803   52.3815 H   0  0  0  0  0  0  0  0  0  0  0  0
   67.3625   34.1022   50.8263 H   0  0  0  0  0  0  0  0  0  0  0  0
   65.8050   34.9971   50.8263 H   0  0  0  0  0  0  0  0  0  0  0  0
   63.7820   32.3181   52.0094 H   0  0  0  0  0  0  0  0  0  0  0  0
   64.3456   33.8039   52.8080 H   0  0  0  0  0  0  0  0  0  0  0  0
   62.7615   34.5778   51.1926 H   0  0  0  0  0  0  0  0  0  0  0  0
   64.3366   34.8500   50.3952 H   0  0  0  0  0  0  0  0  0  0  0  0
   60.3748   32.1505   48.2873 H   0  0  0  0  0  0  0  0  0  0  0  0
  1  2  1  0
  2  3  1  0
  3  4  1  0
  4  5  1  0
  5  6  1  0
  6  7  1  0
  7  8  1  0
  8  9  1  0
  9 10  1  0
 10 11  2  0
 11 12  1  0
 12 13  2  0
 13 14  1  0
 14 15  2  0
 15 16  1  0
 16 17  2  0
 17 18  1  0
 17 19  1  0
 19 20  1  0
 20 21  1  0
 21 22  2  0
 22 23  1  0
 23 24  2  0
 24 25  1  0
 25 26  1  0
 26 27  1  0
 27 28  1  0
 28 29  1  0
 28 30  1  0
 30 31  1  0
 31 32  1  0
 32 33  1  0
 32 34  1  0
 32 35  1  0
 35 36  1  0
 24 37  1  0
 37 38  2  0
 38 39  1  0
 39 10  1  0
 16 11  1  0
 39 19  2  0
 38 21  1  0
 36 28  1  0
  1 40  1  0
  1 41  1  0
  1 42  1  0
  2 43  1  0
  2 44  1  0
  4 45  1  0
  4 46  1  0
  5 47  1  0
  5 48  1  0
  7 49  1  0
  7 50  1  0
  8 51  1  0
  8 52  1  0
  9 53  1  0
 12 54  1  0
 13 55  1  0
 14 56  1  0
 15 57  1  0
 18 58  1  0
 18 59  1  0
 18 60  1  0
 20 61  1  0
 22 62  1  0
 23 63  1  0
 26 64  1  0
 26 65  1  0
 27 66  1  0
 27 67  1  0
 29 68  1  0
 29 69  1  0
 29 70  1  0
 30 71  1  0
 30 72  1  0
 31 73  1  0
 31 74  1  0
 33 75  1  0
 33 76  1  0
 33 77  1  0
 34 78  1  0
 34 79  1  0
 34 80  1  0
 35 81  1  0
 35 82  1  0
 36 83  1  0
 36 84  1  0
 37 85  1  0
M  CHG  3  17   1  28   1  32   1
M  END
>  <smiles>  (15) 
CCOCCOCCNc1c2ccccc2[n+](C)c2[nH]c3ccc(OCC[N+]4(C)CC[N+](C)(C)CC4)cc3c12

>  <score_type>  (15) 
oracle

>  <origin>  (15) 
adg

>  <m_score__min__energy>  (15) 
-4.9199999999999999

>  <m_primary>  (15) 
energy

$$$$
15:0
     RDKit          3D

 45 46  0  0  0  0  0  0  0  0999 V2000
   59.5040   31.4130   48.1580 C   0  0  0  0  0  0  0  0  0  0  0  0
   59.9940   32.8230   48.3160 C   0  0  0  0  0  0  0  0  0  0  0  0
   60.1730   33.4760   47.1030 N   0  0  0  0  0  0  0  0  0  0  0  0
   61.4420   33.8680   46.6490 C   0  0  0  0  0  0  0  0  0  0  0  0
   62.5390   33.0020   47.1940 C   0  0  0  0  0  0  0  0  0  0  0  0
   59.0990   34.3270   46.6680 C   0  0  0  0  0  0  0  0  0  0  0  0
   57.7890   33.6810   46.4190 C   0  0  0  0  0  0  0  0  0  0  0  0
   57.3940   33.9920   44.9780 C   0  0  0  0  0  0  0  0  0  0  0  0
   58.1080   32.7140   43.9100 S   0  0  0  0  0  0  0  0  0  0  0  0
   57.3960   31.1520   44.4480 C   0  0  0  0  0  0  0  0  0  0  0  0
   56.0690   30.8430   44.4990 N   0  0  0  0  0  0  0  0  0  0  0  0
   55.9600   29.5770   44.9380 N   0  0  0  0  0  0  0  0  0  0  0  0
   57.2110   29.1310   45.1480 C   0  0  0  0  0  0  0  0  0  0  0  0
   57.5960   27.8020   45.6110 C   0  0  0  0  0  0  0  0  0  0  0  0
   57.7650   26.8270   44.6250 C   0  0  0  0  0  0  0  0  0  0  0  0
   58.1140   25.5480   44.9200 C   0  0  0  0  0  0  0  0  0  0  0  0
   58.3140   25.1710   46.2450 C   0  0  0  0  0  0  0  0  0  0  0  0
   58.1440   26.1430   47.2050 C   0  0  0  0  0  0  0  0  0  0  0  0
   57.7890   27.4450   46.9090 C   0  0  0  0  0  0  0  0  0  0  0  0
   58.1190   30.0800   44.8540 N   0  0  0  0  0  0  0  0  0  0  0  0
   59.5570   30.0550   44.9330 C   0  0  0  0  0  0  0  0  0  0  0  0
   59.3485   30.9655   49.1507 H   0  0  0  0  0  0  0  0  0  0  0  0
   58.5538   31.4150   47.6037 H   0  0  0  0  0  0  0  0  0  0  0  0
   60.2506   30.8253   47.6037 H   0  0  0  0  0  0  0  0  0  0  0  0
   59.2588   33.3847   48.9110 H   0  0  0  0  0  0  0  0  0  0  0  0
   60.9749   32.7762   48.8116 H   0  0  0  0  0  0  0  0  0  0  0  0
   61.4579   33.8083   45.5507 H   0  0  0  0  0  0  0  0  0  0  0  0
   61.6206   34.8950   47.0004 H   0  0  0  0  0  0  0  0  0  0  0  0
   62.5114   33.0238   48.2934 H   0  0  0  0  0  0  0  0  0  0  0  0
   62.3985   31.9686   46.8441 H   0  0  0  0  0  0  0  0  0  0  0  0
   63.5115   33.3786   46.8441 H   0  0  0  0  0  0  0  0  0  0  0  0
   58.9491   35.0943   47.4418 H   0  0  0  0  0  0  0  0  0  0  0  0
   59.4184   34.7130   45.6887 H   0  0  0  0  0  0  0  0  0  0  0  0
   57.8733   32.5933   46.5594 H   0  0  0  0  0  0  0  0  0  0  0  0
   57.0301   34.0584   47.1201 H   0  0  0  0  0  0  0  0  0  0  0  0
   56.2981   33.9880   44.8827 H   0  0  0  0  0  0  0  0  0  0  0  0
   57.7675   34.9847   44.6863 H   0  0  0  0  0  0  0  0  0  0  0  0
   57.6099   27.1050   43.5721 H   0  0  0  0  0  0  0  0  0  0  0  0
   58.2384   24.8110   44.1129 H   0  0  0  0  0  0  0  0  0  0  0  0
   58.5954   24.1420   46.5131 H   0  0  0  0  0  0  0  0  0  0  0  0
   58.2984   25.8697   48.2593 H   0  0  0  0  0  0  0  0  0  0  0  0
   57.6639   28.1843   47.7139 H   0  0  0  0  0  0  0  0  0  0  0  0
   59.8662   30.0496   45.9886 H   0  0  0  0  0  0  0  0  0  0  0  0
   59.9359   29.1501   44.4353 H   0  0  0  0  0  0  0  0  0  0  0  0
   59.9671   30.9462   44.4353 H   0  0  0  0  0  0  0  0  0  0  0  0
  1  2  1  0
  2  3  1  0
  3  4  1  0
  4  5  1  0
  3  6  1  0
  6  7  1  0
  7  8  1  0
  8  9  1  0
  9 10  1  0
 10 11  2  0
 11 12  1  0
 12 13  2  0
 13 14  1  0
 14 15  2  0
 15 16  1  0
 16 17  2  0
 17 18  1  0
 18 19  2  0
 13 20  1  0
 20 21  1  0
 20 10  1  0
 19 14  1  0
  1 22  1  0
  1 23  1  0
  1 24  1  0
  2 25  1  0
  2 26  1  0
  4 27  1  0
  4 28  1  0
  5 29  1  0
  5 30  1  0
  5 31  1  0
  6 32  1  0
  6 33  1  0
  7 34  1  0
  7 35  1  0
  8 36  1  0
  8 37  1  0
 15 38  1  0
 16 39  1  0
 17 40  1  0
 18 41  1  0
 19 42  1  0
 21 43  1  0
 21 44  1  0
 21 45  1  0
M  END
>  <smiles>  (16) 
CCN(CC)CCCSc1nnc(-c2ccccc2)n1C

>  <score_type>  (16) 
oracle

>  <origin>  (16) 
adg

>  <m_score__min__energy>  (16) 
-7.1500000000000004

>  <m_primary>  (16) 
energy

$$$$
16:0
     RDKit          3D

 68 70  0  0  0  0  0  0  0  0999 V2000
   56.5970   30.0900   42.7350 C   0  0  0  0  0  0  0  0  0  0  0  0
   56.5990   29.8170   44.2230 C   0  0  0  0  0  0  0  0  0  0  0  0
   56.7070   31.0430   44.8700 O   0  0  0  0  0  0  0  0  0  0  0  0
   57.7430   31.8180   44.4210 C   0  0  0  0  0  0  0  0  0  0  0  0
   57.7000   33.2440   44.9220 C   0  0  0  0  0  0  0  0  0  0  0  0
   57.6270   33.2300   46.4460 C   0  0  0  0  0  0  0  0  0  0  0  0
   58.5340   34.1890   47.0100 N   0  0  0  0  0  0  0  0  0  0  0  0
   59.0790   33.6630   48.2430 C   0  0  0  0  0  0  0  0  0  0  0  0
   60.5230   34.2140   48.4150 C   0  0  0  0  0  0  0  0  0  0  0  0
   60.9090   34.6490   47.2020 O   0  0  0  0  0  0  0  0  0  0  0  0
   61.6010   33.8410   46.3670 C   0  0  0  0  0  0  0  0  0  0  0  0
   63.0780   33.7820   46.4250 C   0  0  0  0  0  0  0  0  0  0  0  0
   63.6740   32.6030   46.9740 N   0  0  0  0  0  0  0  0  0  0  0  0
   63.0540   32.0380   48.1400 C   0  0  0  0  0  0  0  0  0  0  0  0
   63.4500   32.4160   49.4260 C   0  0  0  0  0  0  0  0  0  0  0  0
   62.8670   31.8650   50.5570 C   0  0  0  0  0  0  0  0  0  0  0  0
   61.8840   30.9320   50.4220 N   0  0  0  0  0  0  0  0  0  0  0  0
   61.3310   30.4090   51.6470 C   0  0  0  0  0  0  0  0  0  0  0  0
   61.4710   30.5380   49.2150 C   0  0  0  0  0  0  0  0  0  0  0  0
   62.0590   31.0940   48.0730 C   0  0  0  0  0  0  0  0  0  0  0  0
   61.5310   30.5960   46.7750 C   0  0  0  0  0  0  0  0  0  0  0  0
   60.0270   30.8360   46.8580 C   0  0  0  0  0  0  0  0  0  0  0  0
   59.4020   30.0000   47.9180 C   0  0  0  0  0  0  0  0  0  0  0  0
   60.4120   29.5370   48.9650 C   0  0  0  0  0  0  0  0  0  0  0  0
   63.2920   32.2660   51.9290 C   0  0  0  0  0  0  0  0  0  0  0  0
   64.0530   33.5500   51.8850 C   0  0  0  0  0  0  0  0  0  0  0  0
   65.1750   33.4030   50.8620 C   0  0  0  0  0  0  0  0  0  0  0  0
   64.5250   33.4400   49.4910 C   0  0  0  0  0  0  0  0  0  0  0  0
   56.5890   31.1762   42.5615 H   0  0  0  0  0  0  0  0  0  0  0  0
   57.4984   29.6527   42.2808 H   0  0  0  0  0  0  0  0  0  0  0  0
   55.7021   29.6396   42.2808 H   0  0  0  0  0  0  0  0  0  0  0  0
   55.6629   29.3187   44.5152 H   0  0  0  0  0  0  0  0  0  0  0  0
   57.4366   29.1583   44.4961 H   0  0  0  0  0  0  0  0  0  0  0  0
   58.6870   31.3618   44.7538 H   0  0  0  0  0  0  0  0  0  0  0  0
   57.6595   31.8608   43.3250 H   0  0  0  0  0  0  0  0  0  0  0  0
   58.6076   33.7759   44.6006 H   0  0  0  0  0  0  0  0  0  0  0  0
   56.8180   33.7571   44.5112 H   0  0  0  0  0  0  0  0  0  0  0  0
   56.6018   33.4756   46.7599 H   0  0  0  0  0  0  0  0  0  0  0  0
   57.9077   32.2280   46.8026 H   0  0  0  0  0  0  0  0  0  0  0  0
   59.3050   34.3980   46.3510 H   0  0  0  0  0  0  0  0  0  0  0  0
   58.4557   33.9828   49.0911 H   0  0  0  0  0  0  0  0  0  0  0  0
   59.0950   32.5636   48.2108 H   0  0  0  0  0  0  0  0  0  0  0  0
   60.5304   35.0438   49.1371 H   0  0  0  0  0  0  0  0  0  0  0  0
   61.2036   33.4386   48.7965 H   0  0  0  0  0  0  0  0  0  0  0  0
   61.2384   32.8183   46.5473 H   0  0  0  0  0  0  0  0  0  0  0  0
   61.4121   34.2886   45.3801 H   0  0  0  0  0  0  0  0  0  0  0  0
   63.4521   33.8911   45.3963 H   0  0  0  0  0  0  0  0  0  0  0  0
   63.3620   34.5869   47.1189 H   0  0  0  0  0  0  0  0  0  0  0  0
   64.5240   32.1110   46.6430 H   0  0  0  0  0  0  0  0  0  0  0  0
   61.8304   30.8813   52.5058 H   0  0  0  0  0  0  0  0  0  0  0  0
   60.2533   30.6259   51.6848 H   0  0  0  0  0  0  0  0  0  0  0  0
   61.4875   29.3209   51.6848 H   0  0  0  0  0  0  0  0  0  0  0  0
   61.9687   31.1570   45.9361 H   0  0  0  0  0  0  0  0  0  0  0  0
   61.7771   29.5381   46.6012 H   0  0  0  0  0  0  0  0  0  0  0  0
   59.8458   31.8969   47.0855 H   0  0  0  0  0  0  0  0  0  0  0  0
   59.5787   30.5621   45.8916 H   0  0  0  0  0  0  0  0  0  0  0  0
   58.6200   30.5902   48.4182 H   0  0  0  0  0  0  0  0  0  0  0  0
   58.9842   29.1040   47.4357 H   0  0  0  0  0  0  0  0  0  0  0  0
   59.8790   29.3450   49.9079 H   0  0  0  0  0  0  0  0  0  0  0  0
   60.8971   28.6276   48.5807 H   0  0  0  0  0  0  0  0  0  0  0  0
   62.4010   32.3945   52.5612 H   0  0  0  0  0  0  0  0  0  0  0  0
   63.9411   31.4812   52.3446 H   0  0  0  0  0  0  0  0  0  0  0  0
   63.3830   34.3702   51.5878 H   0  0  0  0  0  0  0  0  0  0  0  0
   64.4701   33.7792   52.8767 H   0  0  0  0  0  0  0  0  0  0  0  0
   65.8916   34.2313   50.9640 H   0  0  0  0  0  0  0  0  0  0  0  0
   65.7262   32.4630   51.0126 H   0  0  0  0  0  0  0  0  0  0  0  0
   64.0934   34.4366   49.3164 H   0  0  0  0  0  0  0  0  0  0  0  0
   65.2809   33.2283   48.7204 H   0  0  0  0  0  0  0  0  0  0  0  0
  1  2  1  0
  2  3  1  0
  3  4  1  0
  4  5  1  0
  5  6  1  0
  6  7  1  0
  7  8  1  0
  8  9  1  0
  9 10  1  0
 10 11  1  0
 11 12  1  0
 12 13  1  0
 13 14  1  0
 14 15  2  0
 15 16  1  0
 16 17  2  0
 17 18  1  0
 17 19  1  0
 19 20  2  0
 20 21  1  0
 21 22  1  0
 22 23  1  0
 23 24  1  0
 16 25  1  0
 25 26  1  0
 26 27  1  0
 27 28  1  0
 20 14  1  0
 28 15  1  0
 24 19  1  0
  1 29  1  0
  1 30  1  0
  1 31  1  0
  2 32  1  0
  2 33  1  0
  4 34  1  0
  4 35  1  0
  5 36  1  0
  5 37  1  0
  6 38  1  0
  6 39  1  0
  7 40  1  0
  8 41  1  0
  8 42  1  0
  9 43  1  0
  9 44  1  0
 11 45  1  0
 11 46  1  0
 12 47  1  0
 12 48  1  0
 13 49  1  0
 18 50  1  0
 18 51  1  0
 18 52  1  0
 21 53  1  0
 21 54  1  0
 22 55  1  0
 22 56  1  0
 23 57  1  0
 23 58  1  0
 24 59  1  0
 24 60  1  0
 25 61  1  0
 25 62  1  0
 26 63  1  0
 26 64  1  0
 27 65  1  0
 27 66  1  0
 28 67  1  0
 28 68  1  0
M  CHG  1  17   1
M  END
>  <smiles>  (17) 
CCOCCCNCCOCCNc1c2c([n+](C)c3c1CCCC3)CCCC2

>  <score_type>  (17) 
oracle

>  <origin>  (17) 
adg

>  <m_score__min__energy>  (17) 
-6.7999999999999998

>  <m_primary>  (17) 
energy

$$$$
17:0
     RDKit          3D

 53 55  0  0  0  0  0  0  0  0999 V2000
   63.4040   33.8360   46.3770 C   0  0  0  0  0  0  0  0  0  0  0  0
   63.2670   32.5780   47.2070 C   0  0  0  0  0  0  0  0  0  0  0  0
   62.0580   32.6880   47.9890 N   0  0  0  0  0  0  0  0  0  0  0  0
   61.9230   33.9720   48.6540 C   0  0  0  0  0  0  0  0  0  0  0  0
   61.0390   33.8830   49.8720 C   0  0  0  0  0  0  0  0  0  0  0  0
   60.4660   32.6500   50.0770 O   0  0  0  0  0  0  0  0  0  0  0  0
   59.0940   32.6400   50.1570 C   0  0  0  0  0  0  0  0  0  0  0  0
   58.5200   31.2590   50.3050 C   0  0  0  0  0  0  0  0  0  0  0  0
   59.0150   30.2780   49.2720 C   0  0  0  0  0  0  0  0  0  0  0  0
   59.6620   30.9120   48.1690 N   0  0  0  0  0  0  0  0  0  0  0  0
   59.0940   31.0100   46.8880 C   0  0  0  0  0  0  0  0  0  0  0  0
   58.7650   32.1940   46.2650 C   0  0  0  0  0  0  0  0  0  0  0  0
   59.0320   33.3580   46.9730 C   0  0  0  0  0  0  0  0  0  0  0  0
   58.7400   34.5890   46.4190 C   0  0  0  0  0  0  0  0  0  0  0  0
   58.1830   34.6140   45.1570 C   0  0  0  0  0  0  0  0  0  0  0  0
   57.9210   33.4300   44.4580 C   0  0  0  0  0  0  0  0  0  0  0  0
   58.2110   32.2010   45.0080 C   0  0  0  0  0  0  0  0  0  0  0  0
   57.9460   31.0890   44.2950 N   0  0  0  0  0  0  0  0  0  0  0  0
   57.3550   31.0690   42.9980 C   0  0  0  0  0  0  0  0  0  0  0  0
   58.2620   29.9080   44.8900 C   0  0  0  0  0  0  0  0  0  0  0  0
   58.0510   28.6910   44.2680 C   0  0  0  0  0  0  0  0  0  0  0  0
   58.3790   27.4810   44.8690 C   0  0  0  0  0  0  0  0  0  0  0  0
   58.1510   26.2980   44.2160 F   0  0  0  0  0  0  0  0  0  0  0  0
   58.9350   27.4540   46.1300 C   0  0  0  0  0  0  0  0  0  0  0  0
   59.1540   28.6550   46.7680 C   0  0  0  0  0  0  0  0  0  0  0  0
   58.8240   29.8500   46.1560 C   0  0  0  0  0  0  0  0  0  0  0  0
   63.4988   34.7062   47.0431 H   0  0  0  0  0  0  0  0  0  0  0  0
   64.2993   33.7608   45.7423 H   0  0  0  0  0  0  0  0  0  0  0  0
   62.5135   33.9553   45.7423 H   0  0  0  0  0  0  0  0  0  0  0  0
   63.2059   31.7002   46.5469 H   0  0  0  0  0  0  0  0  0  0  0  0
   64.1390   32.4590   47.8668 H   0  0  0  0  0  0  0  0  0  0  0  0
   61.9430   31.8940   48.6250 H   0  0  0  0  0  0  0  0  0  0  0  0
   62.9200   34.3194   48.9626 H   0  0  0  0  0  0  0  0  0  0  0  0
   61.4597   34.6757   47.9467 H   0  0  0  0  0  0  0  0  0  0  0  0
   61.6466   34.1296   50.7552 H   0  0  0  0  0  0  0  0  0  0  0  0
   60.2103   34.5872   49.7066 H   0  0  0  0  0  0  0  0  0  0  0  0
   58.7901   33.2401   51.0274 H   0  0  0  0  0  0  0  0  0  0  0  0
   58.7084   33.0551   49.2141 H   0  0  0  0  0  0  0  0  0  0  0  0
   58.7878   30.8775   51.3014 H   0  0  0  0  0  0  0  0  0  0  0  0
   57.4326   31.3484   50.1655 H   0  0  0  0  0  0  0  0  0  0  0  0
   59.7299   29.5936   49.7521 H   0  0  0  0  0  0  0  0  0  0  0  0
   58.1382   29.7435   48.8776 H   0  0  0  0  0  0  0  0  0  0  0  0
   60.6140   31.3250   48.3280 H   0  0  0  0  0  0  0  0  0  0  0  0
   59.4770   33.2997   47.9773 H   0  0  0  0  0  0  0  0  0  0  0  0
   58.9451   35.5205   46.9669 H   0  0  0  0  0  0  0  0  0  0  0  0
   57.9406   35.5811   44.6922 H   0  0  0  0  0  0  0  0  0  0  0  0
   57.4763   33.4819   43.4532 H   0  0  0  0  0  0  0  0  0  0  0  0
   56.2599   31.0319   43.0946 H   0  0  0  0  0  0  0  0  0  0  0  0
   57.6441   31.9774   42.4493 H   0  0  0  0  0  0  0  0  0  0  0  0
   57.7049   30.1822   42.4493 H   0  0  0  0  0  0  0  0  0  0  0  0
   57.6076   28.6799   43.2614 H   0  0  0  0  0  0  0  0  0  0  0  0
   59.1963   26.5008   46.6129 H   0  0  0  0  0  0  0  0  0  0  0  0
   59.5962   28.6634   47.7752 H   0  0  0  0  0  0  0  0  0  0  0  0
  1  2  1  0
  2  3  1  0
  3  4  1  0
  4  5  1  0
  5  6  1  0
  6  7  1  0
  7  8  1  0
  8  9  1  0
  9 10  1  0
 10 11  1  0
 11 12  2  0
 12 13  1  0
 13 14  2  0
 14 15  1  0
 15 16  2  0
 16 17  1  0
 17 18  2  0
 18 19  1  0
 18 20  1  0
 20 21  2  0
 21 22  1  0
 22 23  1  0
 22 24  2  0
 24 25  1  0
 25 26  2  0
 26 11  1  0
 17 12  1  0
 26 20  1  0
  1 27  1  0
  1 28  1  0
  1 29  1  0
  2 30  1  0
  2 31  1  0
  3 32  1  0
  4 33  1  0
  4 34  1  0
  5 35  1  0
  5 36  1  0
  7 37  1  0
  7 38  1  0
  8 39  1  0
  8 40  1  0
  9 41  1  0
  9 42  1  0
 10 43  1  0
 13 44  1  0
 14 45  1  0
 15 46  1  0
 16 47  1  0
 19 48  1  0
 19 49  1  0
 19 50  1  0
 21 51  1  0
 24 52  1  0
 25 53  1  0
M  CHG  1  18   1
M  END
>  <smiles>  (18) 
CCNCCOCCCNc1c2ccccc2[n+](C)c2cc(F)ccc12

>  <score_type>  (18) 
oracle

>  <origin>  (18) 
adg

>  <m_score__min__energy>  (18) 
-6.2199999999999998

>  <m_primary>  (18) 
energy

$$$$
18:0
     RDKit          3D

 73 75  0  0  0  0  0  0  0  0999 V2000
   59.2830   33.3820   50.9520 C   0  0  0  0  0  0  0  0  0  0  0  0
   60.1160   33.8220   49.7740 C   0  0  0  0  0  0  0  0  0  0  0  0
   61.5700   33.8280   50.1330 C   0  0  0  0  0  0  0  0  0  0  0  0
   62.5410   33.5760   49.1760 N   0  0  0  0  0  0  0  0  0  0  0  0
   62.4420   32.5200   48.2470 C   0  0  0  0  0  0  0  0  0  0  0  0
   63.4120   32.5300   47.1060 C   0  0  0  0  0  0  0  0  0  0  0  0
   63.2310   33.8350   46.3400 C   0  0  0  0  0  0  0  0  0  0  0  0
   63.9140   33.5160   49.7080 C   0  0  0  0  0  0  0  0  0  0  0  0
   63.9920   33.1190   51.1390 C   0  0  0  0  0  0  0  0  0  0  0  0
   64.4550   31.8810   51.4430 O   0  0  0  0  0  0  0  0  0  0  0  0
   63.7930   30.8090   50.8780 C   0  0  0  0  0  0  0  0  0  0  0  0
   62.4990   30.4620   51.6270 C   0  0  0  0  0  0  0  0  0  0  0  0
   61.8640   29.3470   50.8630 C   0  0  0  0  0  0  0  0  0  0  0  0
   61.1420   29.8560   49.7350 N   0  0  0  0  0  0  0  0  0  0  0  0
   59.7080   29.8490   50.0010 C   0  0  0  0  0  0  0  0  0  0  0  0
   58.9410   30.5010   48.8730 C   0  0  0  0  0  0  0  0  0  0  0  0
   59.8070   30.5890   47.7130 N   0  0  0  0  0  0  0  0  0  0  0  0
   59.1210   30.7220   46.4550 C   0  0  0  0  0  0  0  0  0  0  0  0
   58.7960   31.9810   45.9470 C   0  0  0  0  0  0  0  0  0  0  0  0
   59.1970   33.0550   46.7070 C   0  0  0  0  0  0  0  0  0  0  0  0
   58.9180   34.3420   46.2620 C   0  0  0  0  0  0  0  0  0  0  0  0
   58.2430   34.4920   45.0640 C   0  0  0  0  0  0  0  0  0  0  0  0
   57.8500   33.3750   44.3140 C   0  0  0  0  0  0  0  0  0  0  0  0
   58.1220   32.0860   44.7500 C   0  0  0  0  0  0  0  0  0  0  0  0
   57.7480   31.0040   44.0170 N   0  0  0  0  0  0  0  0  0  0  0  0
   57.0300   31.2190   42.7840 C   0  0  0  0  0  0  0  0  0  0  0  0
   58.0640   29.7920   44.5070 C   0  0  0  0  0  0  0  0  0  0  0  0
   57.7180   28.6580   43.7940 C   0  0  0  0  0  0  0  0  0  0  0  0
   58.0400   27.3810   44.2660 C   0  0  0  0  0  0  0  0  0  0  0  0
   58.7200   27.2770   45.4780 C   0  0  0  0  0  0  0  0  0  0  0  0
   59.0780   28.3870   46.2100 C   0  0  0  0  0  0  0  0  0  0  0  0
   58.7420   29.6260   45.7070 C   0  0  0  0  0  0  0  0  0  0  0  0
   59.7967   33.6533   51.8861 H   0  0  0  0  0  0  0  0  0  0  0  0
   58.3029   33.8801   50.9145 H   0  0  0  0  0  0  0  0  0  0  0  0
   59.1419   32.2917   50.9145 H   0  0  0  0  0  0  0  0  0  0  0  0
   59.9529   33.1283   48.9360 H   0  0  0  0  0  0  0  0  0  0  0  0
   59.8162   34.8406   49.4868 H   0  0  0  0  0  0  0  0  0  0  0  0
   61.7869   34.8249   50.5442 H   0  0  0  0  0  0  0  0  0  0  0  0
   61.6583   32.9600   50.8029 H   0  0  0  0  0  0  0  0  0  0  0  0
   62.5855   31.5784   48.7973 H   0  0  0  0  0  0  0  0  0  0  0  0
   61.4515   32.6372   47.7832 H   0  0  0  0  0  0  0  0  0  0  0  0
   64.4404   32.4633   47.4907 H   0  0  0  0  0  0  0  0  0  0  0  0
   63.2287   31.6714   46.4433 H   0  0  0  0  0  0  0  0  0  0  0  0
   63.1158   34.6653   47.0523 H   0  0  0  0  0  0  0  0  0  0  0  0
   64.1129   34.0142   45.7074 H   0  0  0  0  0  0  0  0  0  0  0  0
   62.3336   33.7674   45.7074 H   0  0  0  0  0  0  0  0  0  0  0  0
   64.4830   32.7850   49.1148 H   0  0  0  0  0  0  0  0  0  0  0  0
   64.3272   34.5330   49.6372 H   0  0  0  0  0  0  0  0  0  0  0  0
   64.6491   33.8439   51.6417 H   0  0  0  0  0  0  0  0  0  0  0  0
   62.9436   33.1034   51.4716 H   0  0  0  0  0  0  0  0  0  0  0  0
   63.5427   31.0573   49.8360 H   0  0  0  0  0  0  0  0  0  0  0  0
   64.4587   29.9351   50.9344 H   0  0  0  0  0  0  0  0  0  0  0  0
   62.7270   30.1398   52.6538 H   0  0  0  0  0  0  0  0  0  0  0  0
   61.8301   31.3324   51.6978 H   0  0  0  0  0  0  0  0  0  0  0  0
   62.6463   28.6585   50.5108 H   0  0  0  0  0  0  0  0  0  0  0  0
   61.1618   28.8185   51.5245 H   0  0  0  0  0  0  0  0  0  0  0  0
   61.3520   29.1990   48.9230 H   0  0  0  0  0  0  0  0  0  0  0  0
   59.3684   28.8086   50.1118 H   0  0  0  0  0  0  0  0  0  0  0  0
   59.5215   30.4175   50.9241 H   0  0  0  0  0  0  0  0  0  0  0  0
   58.0555   29.8958   48.6290 H   0  0  0  0  0  0  0  0  0  0  0  0
   58.6138   31.5071   49.1741 H   0  0  0  0  0  0  0  0  0  0  0  0
   60.8310   30.5630   47.7310 H   0  0  0  0  0  0  0  0  0  0  0  0
   59.7319   32.8974   47.6552 H   0  0  0  0  0  0  0  0  0  0  0  0
   59.2266   35.2200   46.8484 H   0  0  0  0  0  0  0  0  0  0  0  0
   58.0114   35.5020   44.6947 H   0  0  0  0  0  0  0  0  0  0  0  0
   57.3167   33.5227   43.3633 H   0  0  0  0  0  0  0  0  0  0  0  0
   55.9986   31.5278   43.0094 H   0  0  0  0  0  0  0  0  0  0  0  0
   57.5297   32.0069   42.2013 H   0  0  0  0  0  0  0  0  0  0  0  0
   57.0144   30.2861   42.2013 H   0  0  0  0  0  0  0  0  0  0  0  0
   57.1806   28.7622   42.8399 H   0  0  0  0  0  0  0  0  0  0  0  0
   57.7636   26.4822   43.6952 H   0  0  0  0  0  0  0  0  0  0  0  0
   58.9784   26.2788   45.8612 H   0  0  0  0  0  0  0  0  0  0  0  0
   59.6147   28.2884   47.1651 H   0  0  0  0  0  0  0  0  0  0  0  0
  1  2  1  0
  2  3  1  0
  3  4  1  0
  4  5  1  0
  5  6  1  0
  6  7  1  0
  4  8  1  0
  8  9  1  0
  9 10  1  0
 10 11  1  0
 11 12  1  0
 12 13  1  0
 13 14  1  0
 14 15  1  0
 15 16  1  0
 16 17  1  0
 17 18  1  0
 18 19  2  0
 19 20  1  0
 20 21  2  0
 21 22  1  0
 22 23  2  0
 23 24  1  0
 24 25  2  0
 25 26  1  0
 25 27  1  0
 27 28  2  0
 28 29  1  0
 29 30  2  0
 30 31  1  0
 31 32  2  0
 32 18  1  0
 24 19  1  0
 32 27  1  0
  1 33  1  0
  1 34  1  0
  1 35  1  0
  2 36  1  0
  2 37  1  0
  3 38  1  0
  3 39  1  0
  5 40  1  0
  5 41  1  0
  6 42  1  0
  6 43  1  0
  7 44  1  0
  7 45  1  0
  7 46  1  0
  8 47  1  0
  8 48  1  0
  9 49  1  0
  9 50  1  0
 11 51  1  0
 11 52  1  0
 12 53  1  0
 12 54  1  0
 13 55  1  0
 13 56  1  0
 14 57  1  0
 15 58  1  0
 15 59  1  0
 16 60  1  0
 16 61  1  0
 17 62  1  0
 20 63  1  0
 21 64  1  0
 22 65  1  0
 23 66  1  0
 26 67  1  0
 26 68  1  0
 26 69  1  0
 28 70  1  0
 29 71  1  0
 30 72  1  0
 31 73  1  0
M  CHG  1  25   1
M  END
>  <smiles>  (19) 
CCCN(CCC)CCOCCCNCCNc1c2ccccc2[n+](C)c2ccccc12

>  <score_type>  (19) 
oracle

>  <origin>  (19) 
adg

>  <m_score__min__energy>  (19) 
-5.96

>  <m_primary>  (19) 
energy

$$$$
19:0
     RDKit          3D

 46 48  0  0  0  0  0  0  0  0999 V2000
   56.2630   29.7120   42.9210 C   0  0  0  0  0  0  0  0  0  0  0  0
   55.5290   29.8900   44.2490 C   0  0  0  0  0  0  0  0  0  0  0  0
   56.0660   28.9230   45.1830 N   0  0  0  0  0  0  0  0  0  0  0  0
   57.1990   28.2240   44.6370 C   0  0  0  0  0  0  0  0  0  0  0  0
   58.3510   28.3320   45.6320 C   0  0  0  0  0  0  0  0  0  0  0  0
   58.9060   29.7230   45.5810 C   0  0  0  0  0  0  0  0  0  0  0  0
   58.0540   30.7450   46.1860 N   0  0  0  0  0  0  0  0  0  0  0  0
   58.7560   31.6410   47.0770 C   0  0  0  0  0  0  0  0  0  0  0  0
   59.1440   31.1270   48.2990 C   0  0  0  0  0  0  0  0  0  0  0  0
   58.8220   29.8430   48.6650 C   0  0  0  0  0  0  0  0  0  0  0  0
   59.1970   29.2990   49.8970 C   0  0  0  0  0  0  0  0  0  0  0  0
   59.9180   30.1110   50.7530 C   0  0  0  0  0  0  0  0  0  0  0  0
   60.2420   31.4090   50.3810 C   0  0  0  0  0  0  0  0  0  0  0  0
   59.8630   31.9350   49.1570 C   0  0  0  0  0  0  0  0  0  0  0  0
   60.1940   33.2200   48.8270 N   0  0  0  0  0  0  0  0  0  0  0  0
   60.9370   33.9520   49.8090 C   0  0  0  0  0  0  0  0  0  0  0  0
   59.8040   33.7040   47.6340 C   0  0  0  0  0  0  0  0  0  0  0  0
   60.1150   35.0050   47.3030 C   0  0  0  0  0  0  0  0  0  0  0  0
   59.7120   35.5680   46.0850 C   0  0  0  0  0  0  0  0  0  0  0  0
   58.9900   34.7860   45.2100 C   0  0  0  0  0  0  0  0  0  0  0  0
   58.6780   33.4780   45.5410 C   0  0  0  0  0  0  0  0  0  0  0  0
   57.6040   32.5170   44.3030 Br  0  0  0  0  0  0  0  0  0  0  0  0
   59.0800   32.9280   46.7400 C   0  0  0  0  0  0  0  0  0  0  0  0
   57.3153   29.4568   43.1150 H   0  0  0  0  0  0  0  0  0  0  0  0
   55.7894   28.9027   42.3459 H   0  0  0  0  0  0  0  0  0  0  0  0
   56.2128   30.6484   42.3459 H   0  0  0  0  0  0  0  0  0  0  0  0
   55.6889   30.9089   44.6316 H   0  0  0  0  0  0  0  0  0  0  0  0
   54.4481   29.7363   44.1149 H   0  0  0  0  0  0  0  0  0  0  0  0
   56.4360   29.5050   45.9920 H   0  0  0  0  0  0  0  0  0  0  0  0
   56.9425   27.1662   44.4777 H   0  0  0  0  0  0  0  0  0  0  0  0
   57.4883   28.6650   43.6717 H   0  0  0  0  0  0  0  0  0  0  0  0
   57.9842   28.1175   46.6466 H   0  0  0  0  0  0  0  0  0  0  0  0
   59.1368   27.6070   45.3734 H   0  0  0  0  0  0  0  0  0  0  0  0
   59.8713   29.7259   46.1085 H   0  0  0  0  0  0  0  0  0  0  0  0
   58.9930   29.9830   44.5157 H   0  0  0  0  0  0  0  0  0  0  0  0
   57.0360   30.8320   45.9990 H   0  0  0  0  0  0  0  0  0  0  0  0
   58.2481   29.2200   47.9632 H   0  0  0  0  0  0  0  0  0  0  0  0
   58.9298   28.2685   50.1737 H   0  0  0  0  0  0  0  0  0  0  0  0
   60.2364   29.7269   51.7333 H   0  0  0  0  0  0  0  0  0  0  0  0
   60.8159   32.0373   51.0781 H   0  0  0  0  0  0  0  0  0  0  0  0
   60.6207   33.6404   50.8154 H   0  0  0  0  0  0  0  0  0  0  0  0
   62.0107   33.7490   49.6828 H   0  0  0  0  0  0  0  0  0  0  0  0
   60.7501   35.0286   49.6828 H   0  0  0  0  0  0  0  0  0  0  0  0
   60.6933   35.6159   48.0118 H   0  0  0  0  0  0  0  0  0  0  0  0
   59.9657   36.6084   45.8335 H   0  0  0  0  0  0  0  0  0  0  0  0
   58.6606   35.2016   44.2463 H   0  0  0  0  0  0  0  0  0  0  0  0
  1  2  1  0
  2  3  1  0
  3  4  1  0
  4  5  1  0
  5  6  1  0
  6  7  1  0
  7  8  1  0
  8  9  2  0
  9 10  1  0
 10 11  2  0
 11 12  1  0
 12 13  2  0
 13 14  1  0
 14 15  2  0
 15 16  1  0
 15 17  1  0
 17 18  2  0
 18 19  1  0
 19 20  2  0
 20 21  1  0
 21 22  1  0
 21 23  2  0
 23  8  1  0
 14  9  1  0
 23 17  1  0
  1 24  1  0
  1 25  1  0
  1 26  1  0
  2 27  1  0
  2 28  1  0
  3 29  1  0
  4 30  1  0
  4 31  1  0
  5 32  1  0
  5 33  1  0
  6 34  1  0
  6 35  1  0
  7 36  1  0
 10 37  1  0
 11 38  1  0
 12 39  1  0
 13 40  1  0
 16 41  1  0
 16 42  1  0
 16 43  1  0
 18 44  1  0
 19 45  1  0
 20 46  1  0
M  CHG  1  15   1
M  END
>  <smiles>  (20) 
CCNCCCNc1c2ccccc2[n+](C)c2cccc(Br)c12

>  <score_type>  (20) 
oracle

>  <origin>  (20) 
adg

>  <m_score__min__energy>  (20) 
-6.21

>  <m_primary>  (20) 
energy

$$$$
21:0
     RDKit          3D

 59 63  0  0  0  0  0  0  0  0999 V2000
   56.3400   29.7910   42.9710 C   0  0  0  0  0  0  0  0  0  0  0  0
   55.8280   29.7050   44.3960 C   0  0  0  0  0  0  0  0  0  0  0  0
   56.8150   29.1520   45.2350 N   0  0  0  0  0  0  0  0  0  0  0  0
   56.9430   27.7350   45.3100 C   0  0  0  0  0  0  0  0  0  0  0  0
   58.3380   27.4270   44.7420 C   0  0  0  0  0  0  0  0  0  0  0  0
   59.1470   28.6600   44.5380 C   0  0  0  0  0  0  0  0  0  0  0  0
   59.9320   29.1130   45.6940 C   0  0  0  0  0  0  0  0  0  0  0  0
   59.1340   29.3640   46.9030 N   0  0  0  0  0  0  0  0  0  0  0  0
   59.7990   29.9430   47.9750 C   0  0  0  0  0  0  0  0  0  0  0  0
   60.2650   28.9320   48.8600 C   0  0  0  0  0  0  0  0  0  0  0  0
   60.0090   27.6090   48.6760 C   0  0  0  0  0  0  0  0  0  0  0  0
   60.4050   26.5640   49.4720 C   0  0  0  0  0  0  0  0  0  0  0  0
   61.1540   26.9630   50.5930 C   0  0  0  0  0  0  0  0  0  0  0  0
   61.4480   28.2730   50.8440 C   0  0  0  0  0  0  0  0  0  0  0  0
   61.0100   29.2570   49.9880 C   0  0  0  0  0  0  0  0  0  0  0  0
   61.2760   30.5270   50.2230 N   0  0  0  0  0  0  0  0  0  0  0  0
   62.0410   30.8540   51.4150 C   0  0  0  0  0  0  0  0  0  0  0  0
   60.8090   31.4450   49.3560 C   0  0  0  0  0  0  0  0  0  0  0  0
   61.0080   32.7880   49.5150 N   0  0  0  0  0  0  0  0  0  0  0  0
   60.3720   33.3280   48.4730 C   0  0  0  0  0  0  0  0  0  0  0  0
   60.2520   34.6860   48.2040 C   0  0  0  0  0  0  0  0  0  0  0  0
   59.5300   35.0500   47.1140 C   0  0  0  0  0  0  0  0  0  0  0  0
   58.9510   34.0990   46.3300 C   0  0  0  0  0  0  0  0  0  0  0  0
   58.1830   34.5840   45.2700 C   0  0  0  0  0  0  0  0  0  0  0  0
   57.5300   33.6970   44.4710 C   0  0  0  0  0  0  0  0  0  0  0  0
   57.6500   32.3700   44.7330 C   0  0  0  0  0  0  0  0  0  0  0  0
   58.4260   31.9020   45.8020 C   0  0  0  0  0  0  0  0  0  0  0  0
   59.0800   32.7580   46.6090 C   0  0  0  0  0  0  0  0  0  0  0  0
   59.7940   32.3580   47.6840 C   0  0  0  0  0  0  0  0  0  0  0  0
   60.0930   31.1920   48.2650 N   0  0  0  0  0  0  0  0  0  0  0  0
   57.4248   29.9732   42.9815 H   0  0  0  0  0  0  0  0  0  0  0  0
   56.1321   28.8453   42.4490 H   0  0  0  0  0  0  0  0  0  0  0  0
   55.8345   30.6168   42.4490 H   0  0  0  0  0  0  0  0  0  0  0  0
   55.5724   30.7140   44.7518 H   0  0  0  0  0  0  0  0  0  0  0  0
   54.9361   29.0616   44.4187 H   0  0  0  0  0  0  0  0  0  0  0  0
   56.9670   29.6850   46.0900 H   0  0  0  0  0  0  0  0  0  0  0  0
   56.8675   27.3953   46.3535 H   0  0  0  0  0  0  0  0  0  0  0  0
   56.1480   27.2197   44.7511 H   0  0  0  0  0  0  0  0  0  0  0  0
   58.8687   26.7673   45.4443 H   0  0  0  0  0  0  0  0  0  0  0  0
   58.2048   26.9446   43.7624 H   0  0  0  0  0  0  0  0  0  0  0  0
   59.8458   28.4710   43.7098 H   0  0  0  0  0  0  0  0  0  0  0  0
   58.4208   29.4621   44.3397 H   0  0  0  0  0  0  0  0  0  0  0  0
   60.6790   28.3402   45.9280 H   0  0  0  0  0  0  0  0  0  0  0  0
   60.3870   30.0735   45.4104 H   0  0  0  0  0  0  0  0  0  0  0  0
   58.1260   29.0340   46.9710 H   0  0  0  0  0  0  0  0  0  0  0  0
   59.4165   27.3467   47.7871 H   0  0  0  0  0  0  0  0  0  0  0  0
   60.1599   25.5141   49.2539 H   0  0  0  0  0  0  0  0  0  0  0  0
   61.5155   26.1940   51.2916 H   0  0  0  0  0  0  0  0  0  0  0  0
   62.0368   28.5421   51.7333 H   0  0  0  0  0  0  0  0  0  0  0  0
   61.4520   30.6022   52.3092 H   0  0  0  0  0  0  0  0  0  0  0  0
   62.9780   30.2778   51.4189 H   0  0  0  0  0  0  0  0  0  0  0  0
   62.2719   31.9295   51.4189 H   0  0  0  0  0  0  0  0  0  0  0  0
   61.5240   33.2950   50.2590 H   0  0  0  0  0  0  0  0  0  0  0  0
   60.7252   35.4390   48.8513 H   0  0  0  0  0  0  0  0  0  0  0  0
   59.4124   36.1146   46.8635 H   0  0  0  0  0  0  0  0  0  0  0  0
   58.1069   35.6654   45.0837 H   0  0  0  0  0  0  0  0  0  0  0  0
   56.9163   34.0484   43.6285 H   0  0  0  0  0  0  0  0  0  0  0  0
   57.1262   31.6460   44.0916 H   0  0  0  0  0  0  0  0  0  0  0  0
   58.5017   30.8198   45.9841 H   0  0  0  0  0  0  0  0  0  0  0  0
  1  2  1  0
  2  3  1  0
  3  4  1  0
  4  5  1  0
  5  6  1  0
  6  7  1  0
  7  8  1  0
  8  9  1  0
  9 10  2  0
 10 11  1  0
 11 12  2  0
 12 13  1  0
 13 14  2  0
 14 15  1  0
 15 16  2  0
 16 17  1  0
 16 18  1  0
 18 19  1  0
 19 20  1  0
 20 21  2  0
 21 22  1  0
 22 23  2  0
 23 24  1  0
 24 25  2  0
 25 26  1  0
 26 27  2  0
 27 28  1  0
 28 29  2  0
 29 30  1  0
 30  9  1  0
 15 10  1  0
 30 18  2  0
 29 20  1  0
 28 23  1  0
  1 31  1  0
  1 32  1  0
  1 33  1  0
  2 34  1  0
  2 35  1  0
  3 36  1  0
  4 37  1  0
  4 38  1  0
  5 39  1  0
  5 40  1  0
  6 41  1  0
  6 42  1  0
  7 43  1  0
  7 44  1  0
  8 45  1  0
 11 46  1  0
 12 47  1  0
 13 48  1  0
 14 49  1  0
 17 50  1  0
 17 51  1  0
 17 52  1  0
 19 53  1  0
 21 54  1  0
 22 55  1  0
 24 56  1  0
 25 57  1  0
 26 58  1  0
 27 59  1  0
M  CHG  2  16   1  30   1
M  END
>  <smiles>  (21) 
CCNCCCCNc1c2ccccc2[n+](C)c2[nH]c3ccc4ccccc4c3[n+]12

>  <score_type>  (21) 
oracle

>  <origin>  (21) 
adg

>  <m_score__min__energy>  (21) 
-6.0199999999999996

>  <m_primary>  (21) 
energy

$$$$
22:0
     RDKit          3D

 38 40  0  0  0  0  0  0  0  0999 V2000
   62.5500   33.7920   47.9950 C   0  0  0  0  0  0  0  0  0  0  0  0
   61.5140   34.3040   48.9830 C   0  0  0  0  0  0  0  0  0  0  0  0
   59.9650   34.5530   48.0890 S   0  0  0  0  0  0  0  0  0  0  0  0
   59.4660   33.1040   47.1780 C   0  0  0  0  0  0  0  0  0  0  0  0
   59.8650   31.8560   47.4930 N   0  0  0  0  0  0  0  0  0  0  0  0
   59.3300   30.9610   46.6310 C   0  0  0  0  0  0  0  0  0  0  0  0
   59.5020   29.5070   46.6090 C   0  0  0  0  0  0  0  0  0  0  0  0
   58.8890   28.7380   47.5880 C   0  0  0  0  0  0  0  0  0  0  0  0
   59.0690   27.3670   47.5420 C   0  0  0  0  0  0  0  0  0  0  0  0
   59.8170   26.7920   46.5750 N   0  0  0  0  0  0  0  0  0  0  0  0
   60.4110   27.5630   45.6230 C   0  0  0  0  0  0  0  0  0  0  0  0
   60.2690   28.9340   45.6150 C   0  0  0  0  0  0  0  0  0  0  0  0
   58.5760   31.7210   45.7600 C   0  0  0  0  0  0  0  0  0  0  0  0
   57.8000   31.1980   44.6430 C   0  0  0  0  0  0  0  0  0  0  0  0
   57.0070   30.0860   44.8890 C   0  0  0  0  0  0  0  0  0  0  0  0
   56.2310   29.5180   43.8810 C   0  0  0  0  0  0  0  0  0  0  0  0
   56.2660   30.0880   42.6160 C   0  0  0  0  0  0  0  0  0  0  0  0
   57.0680   31.1990   42.3970 C   0  0  0  0  0  0  0  0  0  0  0  0
   57.8330   31.7640   43.3800 C   0  0  0  0  0  0  0  0  0  0  0  0
   58.6590   33.0300   46.0940 N   0  0  0  0  0  0  0  0  0  0  0  0
   58.0130   34.1530   45.4310 C   0  0  0  0  0  0  0  0  0  0  0  0
   63.4040   33.3699   48.5450 H   0  0  0  0  0  0  0  0  0  0  0  0
   62.0998   33.0126   47.3626 H   0  0  0  0  0  0  0  0  0  0  0  0
   62.8957   34.6230   47.3626 H   0  0  0  0  0  0  0  0  0  0  0  0
   61.3672   33.5664   49.7857 H   0  0  0  0  0  0  0  0  0  0  0  0
   61.8508   35.2490   49.4343 H   0  0  0  0  0  0  0  0  0  0  0  0
   58.2790   29.2039   48.3760 H   0  0  0  0  0  0  0  0  0  0  0  0
   58.5947   26.7339   48.3063 H   0  0  0  0  0  0  0  0  0  0  0  0
   61.0180   27.0809   44.8425 H   0  0  0  0  0  0  0  0  0  0  0  0
   60.7509   29.5508   44.8422 H   0  0  0  0  0  0  0  0  0  0  0  0
   56.9909   29.6456   45.8969 H   0  0  0  0  0  0  0  0  0  0  0  0
   55.6042   28.6370   44.0833 H   0  0  0  0  0  0  0  0  0  0  0  0
   55.6656   29.6644   41.7974 H   0  0  0  0  0  0  0  0  0  0  0  0
   57.0894   31.6437   41.3911 H   0  0  0  0  0  0  0  0  0  0  0  0
   58.4581   32.6450   43.1725 H   0  0  0  0  0  0  0  0  0  0  0  0
   57.6147   34.8455   46.1872 H   0  0  0  0  0  0  0  0  0  0  0  0
   58.7466   34.6790   44.8023 H   0  0  0  0  0  0  0  0  0  0  0  0
   57.1895   33.7833   44.8023 H   0  0  0  0  0  0  0  0  0  0  0  0
  1  2  1  0
  2  3  1  0
  3  4  1  0
  4  5  2  0
  5  6  1  0
  6  7  1  0
  7  8  2  0
  8  9  1  0
  9 10  2  0
 10 11  1  0
 11 12  2  0
  6 13  2  0
 13 14  1  0
 14 15  2  0
 15 16  1  0
 16 17  2  0
 17 18  1  0
 18 19  2  0
 13 20  1  0
 20 21  1  0
 20  4  1  0
 12  7  1  0
 19 14  1  0
  1 22  1  0
  1 23  1  0
  1 24  1  0
  2 25  1  0
  2 26  1  0
  8 27  1  0
  9 28  1  0
 11 29  1  0
 12 30  1  0
 15 31  1  0
 16 32  1  0
 17 33  1  0
 18 34  1  0
 19 35  1  0
 21 36  1  0
 21 37  1  0
 21 38  1  0
M  END
>  <smiles>  (22) 
CCSc1nc(-c2ccncc2)c(-c2ccccc2)n1C

>  <score_type>  (22) 
oracle

>  <origin>  (22) 
adg

>  <m_score__min__energy>  (22) 
-6.7000000000000002

>  <m_primary>  (22) 
energy

$$$$
