0:0
     RDKit          3D

 26 26  0  0  0  0  0  0  0  0999 V2000
   59.4060   28.5830   44.6050 C   0  0  0  0  0  0  0  0  0  0  0  0
   57.8880   28.3780   44.5540 C   0  0  0  0  0  0  0  0  0  0  0  0
   57.3360   28.5460   43.1950 N   0  0  0  0  0  0  0  0  0  0  0  0
   56.4020   29.6790   43.0640 C   0  0  0  0  0  0  0  0  0  0  0  0
   56.9930   30.9610   43.5810 C   0  0  0  0  0  0  0  0  0  0  0  0
   57.7710   31.8110   42.7980 C   0  0  0  0  0  0  0  0  0  0  0  0
   58.2460   33.1050   43.7610 S   0  0  0  0  0  0  0  0  0  0  0  0
   57.4610   32.5200   45.1280 C   0  0  0  0  0  0  0  0  0  0  0  0
   57.3950   33.2240   46.4450 C   0  0  0  0  0  0  0  0  0  0  0  0
   58.5440   34.2160   46.5810 C   0  0  0  0  0  0  0  0  0  0  0  0
   56.8200   31.3580   44.8700 N   0  0  0  0  0  0  0  0  0  0  0  0
   59.7350   28.6274   45.6537 H   0  0  0  0  0  0  0  0  0  0  0  0
   59.9065   27.7443   44.0989 H   0  0  0  0  0  0  0  0  0  0  0  0
   59.6661   29.5244   44.0989 H   0  0  0  0  0  0  0  0  0  0  0  0
   57.6583   27.3608   44.9039 H   0  0  0  0  0  0  0  0  0  0  0  0
   57.4275   29.1428   45.1967 H   0  0  0  0  0  0  0  0  0  0  0  0
   56.8380   27.6640   42.9270 H   0  0  0  0  0  0  0  0  0  0  0  0
   58.1220   28.6770   42.5170 H   0  0  0  0  0  0  0  0  0  0  0  0
   56.1480   29.8085   42.0016 H   0  0  0  0  0  0  0  0  0  0  0  0
   55.5077   29.4521   43.6630 H   0  0  0  0  0  0  0  0  0  0  0  0
   58.0285   31.6622   41.7390 H   0  0  0  0  0  0  0  0  0  0  0  0
   56.4399   33.7647   46.5184 H   0  0  0  0  0  0  0  0  0  0  0  0
   57.4730   32.4784   47.2500 H   0  0  0  0  0  0  0  0  0  0  0  0
   58.7504   34.3942   47.6467 H   0  0  0  0  0  0  0  0  0  0  0  0
   59.4424   33.8051   46.0972 H   0  0  0  0  0  0  0  0  0  0  0  0
   58.2685   35.1647   46.0972 H   0  0  0  0  0  0  0  0  0  0  0  0
  1  2  1  0
  2  3  1  0
  3  4  1  0
  4  5  1  0
  5  6  2  0
  6  7  1  0
  7  8  1  0
  8  9  1  0
  9 10  1  0
  8 11  2  0
 11  5  1  0
  1 12  1  0
  1 13  1  0
  1 14  1  0
  2 15  1  0
  2 16  1  0
  3 17  1  0
  3 18  1  0
  4 19  1  0
  4 20  1  0
  6 21  1  0
  9 22  1  0
  9 23  1  0
 10 24  1  0
 10 25  1  0
 10 26  1  0
M  CHG  1   3   1
M  END
>  <UniqueID>  (1) 
1

>  <SMILES>  (1) 
CC[NH2+]Cc1csc(CC)n1

>  <Energy>  (1) 
46.660946030453445

>  <Genealogy>  (1) 
CC[NH2+]Cc1csc(CC)n1 (protonated)
CC[NH2+]Cc1csc(CC)n1 (3D coordinates assigned)
CC[NH2+]Cc1csc(CC)n1 (optimized conformer: 46.660946030453445 kcal/mol)

>  <smiles>  (1) 
CCNCc1csc(CC)n1

>  <score_type>  (1) 
oracle

>  <origin>  (1) 
adg

>  <m_score__min__energy>  (1) 
-3.9399999999999999

>  <m_primary>  (1) 
energy

$$$$
1:0
     RDKit          3D

 45 47  0  0  0  0  0  0  0  0999 V2000
   55.8840   29.7330   46.0000 H   0  0  0  0  0  0  0  0  0  0  0  0
   55.8790   30.0610   45.0420 O   0  0  0  0  0  0  0  0  0  0  0  0
   56.6590   31.1330   44.6780 N   0  0  0  0  0  0  0  0  0  0  0  0
   57.9340   31.2260   44.9220 C   0  0  0  0  0  0  0  0  0  0  0  0
   58.4820   32.5570   45.2630 C   0  0  0  0  0  0  0  0  0  0  0  0
   57.9800   33.6990   44.6230 C   0  0  0  0  0  0  0  0  0  0  0  0
   57.1362   33.6089   43.9230 H   0  0  0  0  0  0  0  0  0  0  0  0
   58.5470   34.9490   44.8710 C   0  0  0  0  0  0  0  0  0  0  0  0
   58.1494   35.8472   44.3759 H   0  0  0  0  0  0  0  0  0  0  0  0
   59.6220   35.0490   45.7520 C   0  0  0  0  0  0  0  0  0  0  0  0
   60.0854   36.0283   45.9425 H   0  0  0  0  0  0  0  0  0  0  0  0
   60.1000   33.9400   46.3770 N   0  0  0  0  0  0  0  0  0  0  0  0
   60.8990   34.0410   47.0440 H   0  0  0  0  0  0  0  0  0  0  0  0
   59.5490   32.7090   46.1820 C   0  0  0  0  0  0  0  0  0  0  0  0
   60.0620   31.6190   46.8990 O   0  0  0  0  0  0  0  0  0  0  0  0
   59.4840   31.0960   48.0660 C   0  0  0  0  0  0  0  0  0  0  0  0
   58.9010   31.9760   48.9820 C   0  0  0  0  0  0  0  0  0  0  0  0
   58.8896   33.0555   48.7709 H   0  0  0  0  0  0  0  0  0  0  0  0
   58.3320   31.4940   50.1650 C   0  0  0  0  0  0  0  0  0  0  0  0
   57.8874   32.1967   50.8851 H   0  0  0  0  0  0  0  0  0  0  0  0
   58.3260   30.1130   50.4380 C   0  0  0  0  0  0  0  0  0  0  0  0
   57.7730   29.5790   51.6110 O   0  0  0  0  0  0  0  0  0  0  0  0
   56.9610   30.3130   52.5230 C   0  0  0  0  0  0  0  0  0  0  0  0
   57.2445   30.0567   53.5545 H   0  0  0  0  0  0  0  0  0  0  0  0
   57.1081   31.3908   52.3593 H   0  0  0  0  0  0  0  0  0  0  0  0
   55.9035   30.0582   52.3593 H   0  0  0  0  0  0  0  0  0  0  0  0
   58.8870   29.2320   49.5070 C   0  0  0  0  0  0  0  0  0  0  0  0
   58.8759   28.1499   49.7045 H   0  0  0  0  0  0  0  0  0  0  0  0
   59.4610   29.7150   48.3290 C   0  0  0  0  0  0  0  0  0  0  0  0
   59.8969   29.0120   47.6039 H   0  0  0  0  0  0  0  0  0  0  0  0
   58.8250   30.0910   44.8820 N   0  0  0  0  0  0  0  0  0  0  0  0
   59.7980   30.2350   45.2380 H   0  0  0  0  0  0  0  0  0  0  0  0
   58.5330   28.8340   44.1900 C   0  0  0  0  0  0  0  0  0  0  0  0
   57.6638   28.9779   43.5314 H   0  0  0  0  0  0  0  0  0  0  0  0
   59.4146   28.5420   43.6004 H   0  0  0  0  0  0  0  0  0  0  0  0
   58.2290   27.7430   45.1760 C   0  0  0  0  0  0  0  0  0  0  0  0
   56.9660   27.6150   45.6690 N   0  0  0  0  0  0  0  0  0  0  0  0
   56.6490   26.6690   46.5930 C   0  0  0  0  0  0  0  0  0  0  0  0
   55.6170   26.5889   46.9653 H   0  0  0  0  0  0  0  0  0  0  0  0
   57.6320   25.7990   47.0700 C   0  0  0  0  0  0  0  0  0  0  0  0
   57.3802   25.0292   47.8143 H   0  0  0  0  0  0  0  0  0  0  0  0
   58.9380   25.9180   46.5910 C   0  0  0  0  0  0  0  0  0  0  0  0
   59.7238   25.2424   46.9599 H   0  0  0  0  0  0  0  0  0  0  0  0
   59.2450   26.8960   45.6430 C   0  0  0  0  0  0  0  0  0  0  0  0
   60.2731   27.0012   45.2662 H   0  0  0  0  0  0  0  0  0  0  0  0
  1  2  1  0
  2  3  1  0
  3  4  2  0
  4  5  1  0
  5  6  2  0
  6  7  1  0
  6  8  1  0
  8  9  1  0
  8 10  2  0
 10 11  1  0
 10 12  1  0
 12 13  1  0
 12 14  2  0
 14 15  1  0
 15 16  1  0
 16 17  2  0
 17 18  1  0
 17 19  1  0
 19 20  1  0
 19 21  2  0
 21 22  1  0
 22 23  1  0
 23 24  1  0
 23 25  1  0
 23 26  1  0
 21 27  1  0
 27 28  1  0
 27 29  2  0
 29 30  1  0
  4 31  1  0
 31 32  1  0
 31 33  1  0
 33 34  1  0
 33 35  1  0
 33 36  1  0
 36 37  2  0
 37 38  1  0
 38 39  1  0
 38 40  2  0
 40 41  1  0
 40 42  1  0
 42 43  1  0
 42 44  2  0
 44 45  1  0
 14  5  1  0
 29 16  1  0
 44 36  1  0
M  CHG  1  12   1
M  END
>  <UniqueID>  (2) 
2

>  <SMILES>  (2) 
COc1ccc(Oc2[nH+]cccc2/C(=N/O)NCc2ccccn2)cc1

>  <Energy>  (2) 
59.2382721209035

>  <Genealogy>  (2) 
COc1ccc(Oc2[nH+]cccc2C(=NO)NCc2ccccn2)cc1 (protonated)
COc1ccc(Oc2[nH+]cccc2/C(=N/O)NCc2ccccn2)cc1 (cis-trans isomerization)
COc1ccc(Oc2[nH+]cccc2/C(=N/O)NCc2ccccn2)cc1 (3D coordinates assigned)
COc1ccc(Oc2[nH+]cccc2/C(=N/O)NCc2ccccn2)cc1 (optimized conformer: 59.2382721209035 kcal/mol)

>  <smiles>  (2) 
COc1ccc(Oc2ncccc2C(=NO)NCc2ccccn2)cc1

>  <score_type>  (2) 
oracle

>  <origin>  (2) 
adg

>  <m_score__min__energy>  (2) 
-6.5300000000000002

>  <m_primary>  (2) 
energy

$$$$
2:0
     RDKit          3D

 39 41  0  0  0  0  0  0  0  0999 V2000
   56.3250   30.3420   43.6910 C   0  0  0  0  0  0  0  0  0  0  0  0
   56.2480   31.5100   44.5020 O   0  0  0  0  0  0  0  0  0  0  0  0
   57.3530   32.1390   45.0940 C   0  0  0  0  0  0  0  0  0  0  0  0
   57.4100   33.5360   45.0670 C   0  0  0  0  0  0  0  0  0  0  0  0
   58.4860   34.2170   45.6390 C   0  0  0  0  0  0  0  0  0  0  0  0
   59.5260   33.5050   46.2530 C   0  0  0  0  0  0  0  0  0  0  0  0
   60.6070   34.1910   46.8270 C   0  0  0  0  0  0  0  0  0  0  0  0
   61.6440   33.4840   47.4370 C   0  0  0  0  0  0  0  0  0  0  0  0
   61.6110   32.0900   47.4820 C   0  0  0  0  0  0  0  0  0  0  0  0
   60.5430   31.3830   46.9170 C   0  0  0  0  0  0  0  0  0  0  0  0
   60.5470   29.9500   46.9910 N   0  0  0  0  0  0  0  0  0  0  0  0
   60.7700   29.1660   45.7710 C   0  0  0  0  0  0  0  0  0  0  0  0
   59.9550   27.8510   45.7670 C   0  0  0  0  0  0  0  0  0  0  0  0
   59.3950   27.5030   47.0930 N   0  0  0  0  0  0  0  0  0  0  0  0
   59.0010   26.0870   47.1250 C   0  0  0  0  0  0  0  0  0  0  0  0
   60.3550   27.7950   48.1680 C   0  0  0  0  0  0  0  0  0  0  0  0
   60.4830   29.3100   48.3090 C   0  0  0  0  0  0  0  0  0  0  0  0
   59.4860   32.0880   46.2930 C   0  0  0  0  0  0  0  0  0  0  0  0
   58.3930   31.4170   45.7090 C   0  0  0  0  0  0  0  0  0  0  0  0
   56.3837   29.4519   44.3347 H   0  0  0  0  0  0  0  0  0  0  0  0
   55.4292   30.2768   43.0559 H   0  0  0  0  0  0  0  0  0  0  0  0
   57.2216   30.3950   43.0559 H   0  0  0  0  0  0  0  0  0  0  0  0
   56.5981   34.1045   44.5898 H   0  0  0  0  0  0  0  0  0  0  0  0
   58.5180   35.3161   45.6079 H   0  0  0  0  0  0  0  0  0  0  0  0
   60.6372   35.2902   46.7961 H   0  0  0  0  0  0  0  0  0  0  0  0
   62.4898   34.0273   47.8836 H   0  0  0  0  0  0  0  0  0  0  0  0
   62.4322   31.5411   47.9661 H   0  0  0  0  0  0  0  0  0  0  0  0
   60.4722   29.7705   44.9016 H   0  0  0  0  0  0  0  0  0  0  0  0
   61.8372   28.9031   45.7277 H   0  0  0  0  0  0  0  0  0  0  0  0
   59.1238   27.9579   45.0545 H   0  0  0  0  0  0  0  0  0  0  0  0
   60.6443   27.0422   45.4828 H   0  0  0  0  0  0  0  0  0  0  0  0
   58.9088   25.7556   48.1698 H   0  0  0  0  0  0  0  0  0  0  0  0
   58.0344   25.9637   46.6146 H   0  0  0  0  0  0  0  0  0  0  0  0
   59.7650   25.4822   46.6146 H   0  0  0  0  0  0  0  0  0  0  0  0
   59.9947   27.3640   49.1137 H   0  0  0  0  0  0  0  0  0  0  0  0
   61.3343   27.3561   47.9265 H   0  0  0  0  0  0  0  0  0  0  0  0
   59.6106   29.6967   48.8561 H   0  0  0  0  0  0  0  0  0  0  0  0
   61.4090   29.5370   48.8576 H   0  0  0  0  0  0  0  0  0  0  0  0
   58.3522   30.3180   45.7340 H   0  0  0  0  0  0  0  0  0  0  0  0
  1  2  1  0
  2  3  1  0
  3  4  2  0
  4  5  1  0
  5  6  2  0
  6  7  1  0
  7  8  2  0
  8  9  1  0
  9 10  2  0
 10 11  1  0
 11 12  1  0
 12 13  1  0
 13 14  1  0
 14 15  1  0
 14 16  1  0
 16 17  1  0
 10 18  1  0
 18 19  2  0
 19  3  1  0
 18  6  1  0
 17 11  1  0
  1 20  1  0
  1 21  1  0
  1 22  1  0
  4 23  1  0
  5 24  1  0
  7 25  1  0
  8 26  1  0
  9 27  1  0
 12 28  1  0
 12 29  1  0
 13 30  1  0
 13 31  1  0
 15 32  1  0
 15 33  1  0
 15 34  1  0
 16 35  1  0
 16 36  1  0
 17 37  1  0
 17 38  1  0
 19 39  1  0
M  END
>  <UniqueID>  (3) 
3

>  <SMILES>  (3) 
COc1ccc2cccc(N3CCN(C)CC3)c2c1

>  <Energy>  (3) 
53.440578022762864

>  <Genealogy>  (3) 
COc1ccc2cccc(N3CCN(C)CC3)c2c1 (3D coordinates assigned)
COc1ccc2cccc(N3CCN(C)CC3)c2c1 (nonaromatic ring conformer: 53.440578022762864 kcal/mol)

>  <smiles>  (3) 
COc1ccc2cccc(N3CCN(C)CC3)c2c1

>  <score_type>  (3) 
oracle

>  <origin>  (3) 
adg

>  <m_score__min__energy>  (3) 
-6.3600000000000003

>  <m_primary>  (3) 
energy

$$$$
3:0
     RDKit          3D

 42 43  0  0  0  0  0  0  0  0999 V2000
   54.9390   25.1190   45.6200 C   0  0  0  0  0  0  0  0  0  0  0  0
   55.2100   26.4780   45.9460 O   0  0  0  0  0  0  0  0  0  0  0  0
   56.4910   27.0520   45.9640 C   0  0  0  0  0  0  0  0  0  0  0  0
   57.6030   26.3790   46.5070 C   0  0  0  0  0  0  0  0  0  0  0  0
   58.8620   26.9820   46.5060 C   0  0  0  0  0  0  0  0  0  0  0  0
   59.0360   28.2570   45.9550 C   0  0  0  0  0  0  0  0  0  0  0  0
   60.3900   28.9210   45.9900 C   0  0  0  0  0  0  0  0  0  0  0  0
   60.6390   29.5090   47.3150 N   0  0  0  0  0  0  0  0  0  0  0  0
   60.7490   30.9720   47.2200 C   0  0  0  0  0  0  0  0  0  0  0  0
   59.4730   31.6480   47.7380 C   0  0  0  0  0  0  0  0  0  0  0  0
   58.9800   32.6740   46.7540 C   0  0  0  0  0  0  0  0  0  0  0  0
   59.6940   33.8680   46.5570 C   0  0  0  0  0  0  0  0  0  0  0  0
   59.2520   34.8060   45.6180 C   0  0  0  0  0  0  0  0  0  0  0  0
   58.1020   34.5560   44.8650 C   0  0  0  0  0  0  0  0  0  0  0  0
   57.3930   33.3640   45.0460 C   0  0  0  0  0  0  0  0  0  0  0  0
   57.8320   32.4230   45.9830 C   0  0  0  0  0  0  0  0  0  0  0  0
   57.9290   28.9370   45.4270 C   0  0  0  0  0  0  0  0  0  0  0  0
   56.6550   28.3380   45.4250 C   0  0  0  0  0  0  0  0  0  0  0  0
   55.5260   28.9870   44.8970 O   0  0  0  0  0  0  0  0  0  0  0  0
   55.5370   29.7990   43.7280 C   0  0  0  0  0  0  0  0  0  0  0  0
   54.8228   24.5361   46.5456 H   0  0  0  0  0  0  0  0  0  0  0  0
   54.0116   25.0611   45.0313 H   0  0  0  0  0  0  0  0  0  0  0  0
   55.7732   24.7098   45.0313 H   0  0  0  0  0  0  0  0  0  0  0  0
   57.4786   25.3730   46.9341 H   0  0  0  0  0  0  0  0  0  0  0  0
   59.7224   26.4521   46.9407 H   0  0  0  0  0  0  0  0  0  0  0  0
   61.1664   28.1723   45.7741 H   0  0  0  0  0  0  0  0  0  0  0  0
   60.4149   29.7203   45.2347 H   0  0  0  0  0  0  0  0  0  0  0  0
   59.8460   29.2640   47.9550 H   0  0  0  0  0  0  0  0  0  0  0  0
   61.5310   29.1200   47.7020 H   0  0  0  0  0  0  0  0  0  0  0  0
   61.6058   31.3093   47.8218 H   0  0  0  0  0  0  0  0  0  0  0  0
   60.8909   31.2475   46.1646 H   0  0  0  0  0  0  0  0  0  0  0  0
   58.6943   30.8853   47.8856 H   0  0  0  0  0  0  0  0  0  0  0  0
   59.6994   32.1501   48.6902 H   0  0  0  0  0  0  0  0  0  0  0  0
   60.6036   34.0658   47.1431 H   0  0  0  0  0  0  0  0  0  0  0  0
   59.8109   35.7422   45.4722 H   0  0  0  0  0  0  0  0  0  0  0  0
   57.7542   35.2966   44.1298 H   0  0  0  0  0  0  0  0  0  0  0  0
   56.4893   33.1664   44.4508 H   0  0  0  0  0  0  0  0  0  0  0  0
   57.2767   31.4830   46.1170 H   0  0  0  0  0  0  0  0  0  0  0  0
   58.0572   29.9471   45.0108 H   0  0  0  0  0  0  0  0  0  0  0  0
   55.5514   30.8598   44.0186 H   0  0  0  0  0  0  0  0  0  0  0  0
   56.4321   29.5702   43.1310 H   0  0  0  0  0  0  0  0  0  0  0  0
   54.6360   29.5945   43.1310 H   0  0  0  0  0  0  0  0  0  0  0  0
  1  2  1  0
  2  3  1  0
  3  4  2  0
  4  5  1  0
  5  6  2  0
  6  7  1  0
  7  8  1  0
  8  9  1  0
  9 10  1  0
 10 11  1  0
 11 12  2  0
 12 13  1  0
 13 14  2  0
 14 15  1  0
 15 16  2  0
  6 17  1  0
 17 18  2  0
 18 19  1  0
 19 20  1  0
 18  3  1  0
 16 11  1  0
  1 21  1  0
  1 22  1  0
  1 23  1  0
  4 24  1  0
  5 25  1  0
  7 26  1  0
  7 27  1  0
  8 28  1  0
  8 29  1  0
  9 30  1  0
  9 31  1  0
 10 32  1  0
 10 33  1  0
 12 34  1  0
 13 35  1  0
 14 36  1  0
 15 37  1  0
 16 38  1  0
 17 39  1  0
 20 40  1  0
 20 41  1  0
 20 42  1  0
M  CHG  1   8   1
M  END
>  <UniqueID>  (4) 
4

>  <SMILES>  (4) 
COc1ccc(C[NH2+]CCc2ccccc2)cc1OC

>  <Energy>  (4) 
36.68244252593367

>  <Genealogy>  (4) 
COc1ccc(C[NH2+]CCc2ccccc2)cc1OC (protonated)
COc1ccc(C[NH2+]CCc2ccccc2)cc1OC (3D coordinates assigned)
COc1ccc(C[NH2+]CCc2ccccc2)cc1OC (optimized conformer: 36.68244252593367 kcal/mol)

>  <smiles>  (4) 
COc1ccc(CNCCc2ccccc2)cc1OC

>  <score_type>  (4) 
oracle

>  <origin>  (4) 
adg

>  <m_score__min__energy>  (4) 
-5.8099999999999996

>  <m_primary>  (4) 
energy

$$$$
4:0
     RDKit          3D

 53 55  0  0  0  0  0  0  0  0999 V2000
   63.3010   33.7660   46.4220 C   0  0  0  0  0  0  0  0  0  0  0  0
   62.7750   33.8500   47.8520 C   0  0  0  0  0  0  0  0  0  0  0  0
   62.6100   32.4920   48.4200 N   0  0  0  0  0  0  0  0  0  0  0  0
   63.8520   32.0570   49.0860 C   0  0  0  0  0  0  0  0  0  0  0  0
   61.4790   32.4360   49.3710 C   0  0  0  0  0  0  0  0  0  0  0  0
   60.4510   31.3950   48.9130 C   0  0  0  0  0  0  0  0  0  0  0  0
   60.7160   30.9670   47.5380 N   0  0  0  0  0  0  0  0  0  0  0  0
   59.6640   30.8220   46.5680 C   0  0  0  0  0  0  0  0  0  0  0  0
   59.1120   31.9610   45.9570 C   0  0  0  0  0  0  0  0  0  0  0  0
   59.6130   33.2480   46.2450 C   0  0  0  0  0  0  0  0  0  0  0  0
   59.0160   34.3830   45.7040 C   0  0  0  0  0  0  0  0  0  0  0  0
   57.9060   34.2570   44.8780 C   0  0  0  0  0  0  0  0  0  0  0  0
   57.4060   32.9940   44.5600 C   0  0  0  0  0  0  0  0  0  0  0  0
   58.0220   31.8170   45.0570 C   0  0  0  0  0  0  0  0  0  0  0  0
   57.5760   30.5560   44.7030 N   0  0  0  0  0  0  0  0  0  0  0  0
   56.6390   30.3970   43.5680 C   0  0  0  0  0  0  0  0  0  0  0  0
   58.0390   29.4410   45.3780 C   0  0  0  0  0  0  0  0  0  0  0  0
   57.4420   28.1640   45.2090 C   0  0  0  0  0  0  0  0  0  0  0  0
   57.9820   27.0190   45.8060 C   0  0  0  0  0  0  0  0  0  0  0  0
   57.3340   25.7490   45.6110 N   0  0  0  0  0  0  0  0  0  0  0  0
   55.9110   25.5640   45.6020 C   0  0  0  0  0  0  0  0  0  0  0  0
   55.3350   24.2440   45.2020 C   0  0  0  0  0  0  0  0  0  0  0  0
   55.1410   26.4770   46.0050 O   0  0  0  0  0  0  0  0  0  0  0  0
   59.1100   27.1410   46.6230 C   0  0  0  0  0  0  0  0  0  0  0  0
   59.6810   28.3900   46.8520 C   0  0  0  0  0  0  0  0  0  0  0  0
   59.1340   29.5530   46.2750 C   0  0  0  0  0  0  0  0  0  0  0  0
   64.3871   33.5926   46.4404 H   0  0  0  0  0  0  0  0  0  0  0  0
   62.8059   32.9355   45.8974 H   0  0  0  0  0  0  0  0  0  0  0  0
   63.0892   34.7094   45.8974 H   0  0  0  0  0  0  0  0  0  0  0  0
   63.4884   34.4168   48.4683 H   0  0  0  0  0  0  0  0  0  0  0  0
   61.7982   34.3557   47.8447 H   0  0  0  0  0  0  0  0  0  0  0  0
   63.7188   32.1037   50.1769 H   0  0  0  0  0  0  0  0  0  0  0  0
   64.0849   31.0238   48.7889 H   0  0  0  0  0  0  0  0  0  0  0  0
   64.6786   32.7191   48.7889 H   0  0  0  0  0  0  0  0  0  0  0  0
   61.8556   32.1605   50.3671 H   0  0  0  0  0  0  0  0  0  0  0  0
   60.9956   33.4233   49.4112 H   0  0  0  0  0  0  0  0  0  0  0  0
   60.5031   30.5207   49.5785 H   0  0  0  0  0  0  0  0  0  0  0  0
   59.4500   31.8494   48.9523 H   0  0  0  0  0  0  0  0  0  0  0  0
   61.7060   30.8450   47.2280 H   0  0  0  0  0  0  0  0  0  0  0  0
   60.4862   33.3558   46.9052 H   0  0  0  0  0  0  0  0  0  0  0  0
   59.4230   35.3796   45.9304 H   0  0  0  0  0  0  0  0  0  0  0  0
   57.4195   35.1567   44.4731 H   0  0  0  0  0  0  0  0  0  0  0  0
   56.5200   32.9096   43.9136 H   0  0  0  0  0  0  0  0  0  0  0  0
   55.6230   30.2246   43.9527 H   0  0  0  0  0  0  0  0  0  0  0  0
   56.6486   31.3096   42.9540 H   0  0  0  0  0  0  0  0  0  0  0  0
   56.9491   29.5386   42.9540 H   0  0  0  0  0  0  0  0  0  0  0  0
   56.5341   28.0724   44.5947 H   0  0  0  0  0  0  0  0  0  0  0  0
   57.9340   24.8950   45.5570 H   0  0  0  0  0  0  0  0  0  0  0  0
   55.0827   23.6658   46.1031 H   0  0  0  0  0  0  0  0  0  0  0  0
   54.4260   24.4066   44.6042 H   0  0  0  0  0  0  0  0  0  0  0  0
   56.0724   23.6882   44.6042 H   0  0  0  0  0  0  0  0  0  0  0  0
   59.5487   26.2455   47.0873 H   0  0  0  0  0  0  0  0  0  0  0  0
   60.5718   28.4698   47.4925 H   0  0  0  0  0  0  0  0  0  0  0  0
  1  2  1  0
  2  3  1  0
  3  4  1  0
  3  5  1  0
  5  6  1  0
  6  7  1  0
  7  8  1  0
  8  9  2  0
  9 10  1  0
 10 11  2  0
 11 12  1  0
 12 13  2  0
 13 14  1  0
 14 15  2  0
 15 16  1  0
 15 17  1  0
 17 18  2  0
 18 19  1  0
 19 20  1  0
 20 21  1  0
 21 22  1  0
 21 23  2  0
 19 24  2  0
 24 25  1  0
 25 26  2  0
 26  8  1  0
 14  9  1  0
 26 17  1  0
  1 27  1  0
  1 28  1  0
  1 29  1  0
  2 30  1  0
  2 31  1  0
  4 32  1  0
  4 33  1  0
  4 34  1  0
  5 35  1  0
  5 36  1  0
  6 37  1  0
  6 38  1  0
  7 39  1  0
 10 40  1  0
 11 41  1  0
 12 42  1  0
 13 43  1  0
 16 44  1  0
 16 45  1  0
 16 46  1  0
 18 47  1  0
 20 48  1  0
 22 49  1  0
 22 50  1  0
 22 51  1  0
 24 52  1  0
 25 53  1  0
M  CHG  1  15   1
M  END
>  <UniqueID>  (5) 
5

>  <SMILES>  (5) 
CCN(C)CCNc1c2ccccc2[n+](C)c2cc(NC(C)=O)ccc12

>  <Energy>  (5) 
80.64330156910246

>  <Genealogy>  (5) 
CCN(C)CCNc1c2ccccc2[n+](C)c2cc(NC(C)=O)ccc12 (3D coordinates assigned)
CCN(C)CCNc1c2ccccc2[n+](C)c2cc(NC(C)=O)ccc12 (optimized conformer: 80.64330156910246 kcal/mol)

>  <smiles>  (5) 
CCN(C)CCNc1c2ccccc2[n+](C)c2cc(NC(C)=O)ccc12

>  <score_type>  (5) 
oracle

>  <origin>  (5) 
adg

>  <m_score__min__energy>  (5) 
-6.8099999999999996

>  <m_primary>  (5) 
energy

$$$$
5:0
     RDKit          3D

 43 44  0  0  0  0  0  0  0  0999 V2000
   58.7930   31.3200   46.7060 C   0  0  0  0  0  0  0  0  0  0  0  0
   57.7740   32.2490   46.0460 C   0  0  0  0  0  0  0  0  0  0  0  0
   58.4120   33.0510   44.9760 N   0  0  0  0  0  0  0  0  0  0  0  0
   57.8130   32.7570   43.6540 C   0  0  0  0  0  0  0  0  0  0  0  0
   57.3950   31.2910   43.5750 C   0  0  0  0  0  0  0  0  0  0  0  0
   58.3670   34.5040   45.2850 C   0  0  0  0  0  0  0  0  0  0  0  0
   59.6780   34.9490   45.9380 C   0  0  0  0  0  0  0  0  0  0  0  0
   60.6360   33.8440   45.9980 N   0  0  0  0  0  0  0  0  0  0  0  0
   61.6450   33.7240   47.0210 C   0  0  0  0  0  0  0  0  0  0  0  0
   62.9930   33.6350   46.6580 C   0  0  0  0  0  0  0  0  0  0  0  0
   63.9710   33.4450   47.6260 C   0  0  0  0  0  0  0  0  0  0  0  0
   63.6480   33.3390   48.9490 N   0  0  0  0  0  0  0  0  0  0  0  0
   64.7400   33.1280   49.9140 C   0  0  0  0  0  0  0  0  0  0  0  0
   62.3320   33.4330   49.3550 C   0  0  0  0  0  0  0  0  0  0  0  0
   61.9690   33.3380   50.7200 C   0  0  0  0  0  0  0  0  0  0  0  0
   60.6390   33.4580   51.1180 C   0  0  0  0  0  0  0  0  0  0  0  0
   59.6420   33.6810   50.1750 C   0  0  0  0  0  0  0  0  0  0  0  0
   59.9650   33.7760   48.8220 C   0  0  0  0  0  0  0  0  0  0  0  0
   61.3020   33.6360   48.3890 C   0  0  0  0  0  0  0  0  0  0  0  0
   58.7065   31.3988   47.7998 H   0  0  0  0  0  0  0  0  0  0  0  0
   58.5978   30.2826   46.3966 H   0  0  0  0  0  0  0  0  0  0  0  0
   59.8079   31.6101   46.3966 H   0  0  0  0  0  0  0  0  0  0  0  0
   56.9641   31.6453   45.6105 H   0  0  0  0  0  0  0  0  0  0  0  0
   57.3729   32.9326   46.8087 H   0  0  0  0  0  0  0  0  0  0  0  0
   56.9289   33.3947   43.5065 H   0  0  0  0  0  0  0  0  0  0  0  0
   58.5587   32.9588   42.8709 H   0  0  0  0  0  0  0  0  0  0  0  0
   57.2799   30.8872   44.5917 H   0  0  0  0  0  0  0  0  0  0  0  0
   56.4382   31.2109   43.0382 H   0  0  0  0  0  0  0  0  0  0  0  0
   58.1657   30.7184   43.0382 H   0  0  0  0  0  0  0  0  0  0  0  0
   58.2157   35.0687   44.3532 H   0  0  0  0  0  0  0  0  0  0  0  0
   57.5372   34.6963   45.9810 H   0  0  0  0  0  0  0  0  0  0  0  0
   60.1126   35.7702   45.3491 H   0  0  0  0  0  0  0  0  0  0  0  0
   59.4629   35.2822   46.9640 H   0  0  0  0  0  0  0  0  0  0  0  0
   60.5560   33.1040   45.2650 H   0  0  0  0  0  0  0  0  0  0  0  0
   63.2804   33.7160   45.5993 H   0  0  0  0  0  0  0  0  0  0  0  0
   65.0259   33.3786   47.3213 H   0  0  0  0  0  0  0  0  0  0  0  0
   64.3446   33.2044   50.9376 H   0  0  0  0  0  0  0  0  0  0  0  0
   65.1752   32.1292   49.7626 H   0  0  0  0  0  0  0  0  0  0  0  0
   65.5160   33.8928   49.7626 H   0  0  0  0  0  0  0  0  0  0  0  0
   62.7481   33.1670   51.4774 H   0  0  0  0  0  0  0  0  0  0  0  0
   60.3767   33.3759   52.1831 H   0  0  0  0  0  0  0  0  0  0  0  0
   58.5952   33.7828   50.4973 H   0  0  0  0  0  0  0  0  0  0  0  0
   59.1705   33.9619   48.0843 H   0  0  0  0  0  0  0  0  0  0  0  0
  1  2  1  0
  2  3  1  0
  3  4  1  0
  4  5  1  0
  3  6  1  0
  6  7  1  0
  7  8  1  0
  8  9  1  0
  9 10  2  0
 10 11  1  0
 11 12  2  0
 12 13  1  0
 12 14  1  0
 14 15  2  0
 15 16  1  0
 16 17  2  0
 17 18  1  0
 18 19  2  0
 19  9  1  0
 19 14  1  0
  1 20  1  0
  1 21  1  0
  1 22  1  0
  2 23  1  0
  2 24  1  0
  4 25  1  0
  4 26  1  0
  5 27  1  0
  5 28  1  0
  5 29  1  0
  6 30  1  0
  6 31  1  0
  7 32  1  0
  7 33  1  0
  8 34  1  0
 10 35  1  0
 11 36  1  0
 13 37  1  0
 13 38  1  0
 13 39  1  0
 15 40  1  0
 16 41  1  0
 17 42  1  0
 18 43  1  0
M  CHG  1  12   1
M  END
>  <UniqueID>  (6) 
6

>  <SMILES>  (6) 
CCN(CC)CCNc1cc[n+](C)c2ccccc12

>  <Energy>  (6) 
51.060854483335575

>  <Genealogy>  (6) 
CCN(CC)CCNc1cc[n+](C)c2ccccc12 (3D coordinates assigned)
CCN(CC)CCNc1cc[n+](C)c2ccccc12 (optimized conformer: 51.060854483335575 kcal/mol)

>  <smiles>  (6) 
CCN(CC)CCNc1cc[n+](C)c2ccccc12

>  <score_type>  (6) 
oracle

>  <origin>  (6) 
adg

>  <m_score__min__energy>  (6) 
-4.71

>  <m_primary>  (6) 
energy

$$$$
6:0
     RDKit          3D

 43 45  0  0  0  0  0  0  0  0999 V2000
   57.3050   31.8100   44.8760 C   0  0  0  0  0  0  0  0  0  0  0  0
   56.9500   30.3880   44.7600 N   0  0  0  0  0  0  0  0  0  0  0  0
   55.5280   30.2190   44.4250 C   0  0  0  0  0  0  0  0  0  0  0  0
   57.8510   29.6390   43.8530 C   0  0  0  0  0  0  0  0  0  0  0  0
   59.1380   29.1150   44.5250 C   0  0  0  0  0  0  0  0  0  0  0  0
   58.8300   28.5370   45.9130 C   0  0  0  0  0  0  0  0  0  0  0  0
   57.5130   27.8960   45.9300 N   0  0  0  0  0  0  0  0  0  0  0  0
   57.2940   26.4720   45.9600 C   0  0  0  0  0  0  0  0  0  0  0  0
   58.3820   25.6580   45.9110 N   0  0  0  0  0  0  0  0  0  0  0  0
   58.2780   24.3310   45.9370 N   0  0  0  0  0  0  0  0  0  0  0  0
   59.4280   23.5770   45.8860 O   0  0  0  0  0  0  0  0  0  0  0  0
   57.0560   23.7340   46.0150 C   0  0  0  0  0  0  0  0  0  0  0  0
   56.9240   22.3300   46.0490 C   0  0  0  0  0  0  0  0  0  0  0  0
   55.6480   21.7740   46.1210 C   0  0  0  0  0  0  0  0  0  0  0  0
   54.5290   22.5640   46.1590 C   0  0  0  0  0  0  0  0  0  0  0  0
   54.6240   23.9550   46.1270 C   0  0  0  0  0  0  0  0  0  0  0  0
   55.9010   24.5560   46.0560 C   0  0  0  0  0  0  0  0  0  0  0  0
   56.0420   25.9150   46.0200 N   0  0  0  0  0  0  0  0  0  0  0  0
   54.9180   26.7100   46.0060 O   0  0  0  0  0  0  0  0  0  0  0  0
   53.2850   21.7650   46.2360 C   0  0  0  0  0  0  0  0  0  0  0  0
   53.7750   20.3040   46.2250 C   0  0  0  0  0  0  0  0  0  0  0  0
   55.3150   20.3320   46.1670 C   0  0  0  0  0  0  0  0  0  0  0  0
   57.3737   32.0852   45.9388 H   0  0  0  0  0  0  0  0  0  0  0  0
   58.2748   31.9868   44.3880 H   0  0  0  0  0  0  0  0  0  0  0  0
   56.5320   32.4219   44.3880 H   0  0  0  0  0  0  0  0  0  0  0  0
   54.9389   30.1490   45.3513 H   0  0  0  0  0  0  0  0  0  0  0  0
   55.1848   31.0827   43.8366 H   0  0  0  0  0  0  0  0  0  0  0  0
   55.3968   29.2989   43.8366 H   0  0  0  0  0  0  0  0  0  0  0  0
   57.2970   28.7777   43.4515 H   0  0  0  0  0  0  0  0  0  0  0  0
   58.1691   30.3452   43.0719 H   0  0  0  0  0  0  0  0  0  0  0  0
   59.5787   28.3276   43.8959 H   0  0  0  0  0  0  0  0  0  0  0  0
   59.8426   29.9520   44.6394 H   0  0  0  0  0  0  0  0  0  0  0  0
   59.5969   27.7920   46.1715 H   0  0  0  0  0  0  0  0  0  0  0  0
   58.8314   29.3583   46.6447 H   0  0  0  0  0  0  0  0  0  0  0  0
   56.6710   28.4920   45.7570 H   0  0  0  0  0  0  0  0  0  0  0  0
   57.8140   21.6842   46.0192 H   0  0  0  0  0  0  0  0  0  0  0  0
   53.7167   24.5762   46.1566 H   0  0  0  0  0  0  0  0  0  0  0  0
   52.7360   21.9857   47.1633 H   0  0  0  0  0  0  0  0  0  0  0  0
   52.5912   21.9837   45.4109 H   0  0  0  0  0  0  0  0  0  0  0  0
   53.4429   19.7897   47.1389 H   0  0  0  0  0  0  0  0  0  0  0  0
   53.3645   19.7643   45.3588 H   0  0  0  0  0  0  0  0  0  0  0  0
   55.7482   19.8594   47.0609 H   0  0  0  0  0  0  0  0  0  0  0  0
   55.7153   19.7783   45.3049 H   0  0  0  0  0  0  0  0  0  0  0  0
  1  2  1  0
  2  3  1  0
  2  4  1  0
  4  5  1  0
  5  6  1  0
  6  7  1  0
  7  8  1  0
  8  9  2  0
  9 10  1  0
 10 11  1  0
 10 12  2  0
 12 13  1  0
 13 14  2  0
 14 15  1  0
 15 16  2  0
 16 17  1  0
 17 18  2  0
 18 19  1  0
 15 20  1  0
 20 21  1  0
 21 22  1  0
 18  8  1  0
 17 12  1  0
 22 14  1  0
  1 23  1  0
  1 24  1  0
  1 25  1  0
  3 26  1  0
  3 27  1  0
  3 28  1  0
  4 29  1  0
  4 30  1  0
  5 31  1  0
  5 32  1  0
  6 33  1  0
  6 34  1  0
  7 35  1  0
 13 36  1  0
 16 37  1  0
 20 38  1  0
 20 39  1  0
 21 40  1  0
 21 41  1  0
 22 42  1  0
 22 43  1  0
M  CHG  4  10   1  11  -1  18   1  19  -1
M  END
>  <UniqueID>  (7) 
7

>  <SMILES>  (7) 
CN(C)CCCNc1n[n+]([O-])c2cc3c(cc2[n+]1[O-])CCC3

>  <Energy>  (7) 
58.80256819666874

>  <Genealogy>  (7) 
CN(C)CCCNc1n[n+]([O-])c2cc3c(cc2[n+]1[O-])CCC3 (3D coordinates assigned)
CN(C)CCCNc1n[n+]([O-])c2cc3c(cc2[n+]1[O-])CCC3 (nonaromatic ring conformer: 58.80256819666874 kcal/mol)

>  <smiles>  (7) 
CN(C)CCCNc1n[n+]([O-])c2cc3c(cc2[n+]1[O-])CCC3

>  <score_type>  (7) 
oracle

>  <origin>  (7) 
adg

>  <m_score__min__energy>  (7) 
-7.2199999999999998

>  <m_primary>  (7) 
energy

$$$$
7:0
     RDKit          3D

 46 49  0  0  0  0  0  0  0  0999 V2000
   62.5920   31.1820   48.8420 C   0  0  0  0  0  0  0  0  0  0  0  0
   63.2930   31.6050   47.5520 C   0  0  0  0  0  0  0  0  0  0  0  0
   63.7740   32.9930   47.6480 N   0  0  0  0  0  0  0  0  0  0  0  0
   63.5010   33.5880   48.9680 C   0  0  0  0  0  0  0  0  0  0  0  0
   62.3070   34.5580   48.9410 C   0  0  0  0  0  0  0  0  0  0  0  0
   61.0490   33.8080   48.7830 N   0  0  0  0  0  0  0  0  0  0  0  0
   60.5440   33.5110   47.5330 C   0  0  0  0  0  0  0  0  0  0  0  0
   61.1660   33.8840   46.4990 O   0  0  0  0  0  0  0  0  0  0  0  0
   59.3100   32.8040   47.3930 C   0  0  0  0  0  0  0  0  0  0  0  0
   58.7640   32.4560   46.0560 C   0  0  0  0  0  0  0  0  0  0  0  0
   58.6720   33.4280   45.0450 C   0  0  0  0  0  0  0  0  0  0  0  0
   58.1680   33.0910   43.7860 C   0  0  0  0  0  0  0  0  0  0  0  0
   57.7550   31.7830   43.5220 C   0  0  0  0  0  0  0  0  0  0  0  0
   57.8490   30.8060   44.5180 C   0  0  0  0  0  0  0  0  0  0  0  0
   57.3310   29.1630   44.1860 Cl  0  0  0  0  0  0  0  0  0  0  0  0
   58.3530   31.1390   45.7800 C   0  0  0  0  0  0  0  0  0  0  0  0
   58.5880   32.4410   48.5480 C   0  0  0  0  0  0  0  0  0  0  0  0
   59.1310   32.7840   49.7760 C   0  0  0  0  0  0  0  0  0  0  0  0
   60.3210   33.4450   49.8780 C   0  0  0  0  0  0  0  0  0  0  0  0
   60.6390   33.6800   51.1740 N   0  0  0  0  0  0  0  0  0  0  0  0
   59.5870   33.1260   51.8290 C   0  0  0  0  0  0  0  0  0  0  0  0
   59.4170   33.0970   53.2120 C   0  0  0  0  0  0  0  0  0  0  0  0
   58.2600   32.4800   53.7160 C   0  0  0  0  0  0  0  0  0  0  0  0
   57.3110   31.9170   52.8400 C   0  0  0  0  0  0  0  0  0  0  0  0
   57.5280   31.9730   51.4550 C   0  0  0  0  0  0  0  0  0  0  0  0
   58.6600   32.5770   51.0120 N   0  0  0  0  0  0  0  0  0  0  0  0
   63.1735   31.5329   49.7073 H   0  0  0  0  0  0  0  0  0  0  0  0
   61.5849   31.6233   48.8737 H   0  0  0  0  0  0  0  0  0  0  0  0
   62.5129   30.0853   48.8737 H   0  0  0  0  0  0  0  0  0  0  0  0
   64.1493   30.9385   47.3719 H   0  0  0  0  0  0  0  0  0  0  0  0
   62.5739   31.5382   46.7223 H   0  0  0  0  0  0  0  0  0  0  0  0
   63.2800   33.5700   46.9280 H   0  0  0  0  0  0  0  0  0  0  0  0
   64.8020   33.0290   47.4450 H   0  0  0  0  0  0  0  0  0  0  0  0
   63.2827   32.7795   49.6812 H   0  0  0  0  0  0  0  0  0  0  0  0
   64.3909   34.1613   49.2669 H   0  0  0  0  0  0  0  0  0  0  0  0
   62.2770   35.1244   49.8835 H   0  0  0  0  0  0  0  0  0  0  0  0
   62.4233   35.2487   48.0928 H   0  0  0  0  0  0  0  0  0  0  0  0
   58.9984   34.4591   45.2458 H   0  0  0  0  0  0  0  0  0  0  0  0
   58.0963   33.8579   43.0007 H   0  0  0  0  0  0  0  0  0  0  0  0
   57.3559   31.5216   42.5308 H   0  0  0  0  0  0  0  0  0  0  0  0
   58.4283   30.3673   46.5603 H   0  0  0  0  0  0  0  0  0  0  0  0
   57.6297   31.9056   48.4772 H   0  0  0  0  0  0  0  0  0  0  0  0
   60.1636   33.5422   53.8861 H   0  0  0  0  0  0  0  0  0  0  0  0
   58.0937   32.4361   54.8025 H   0  0  0  0  0  0  0  0  0  0  0  0
   56.4057   31.4366   53.2394 H   0  0  0  0  0  0  0  0  0  0  0  0
   56.8030   31.5407   50.7497 H   0  0  0  0  0  0  0  0  0  0  0  0
  1  2  1  0
  2  3  1  0
  3  4  1  0
  4  5  1  0
  5  6  1  0
  6  7  1  0
  7  8  2  0
  7  9  1  0
  9 10  1  0
 10 11  2  0
 11 12  1  0
 12 13  2  0
 13 14  1  0
 14 15  1  0
 14 16  2  0
  9 17  2  0
 17 18  1  0
 18 19  2  0
 19 20  1  0
 20 21  2  0
 21 22  1  0
 22 23  2  0
 23 24  1  0
 24 25  2  0
 25 26  1  0
 19  6  1  0
 26 21  1  0
 16 10  1  0
 26 18  1  0
  1 27  1  0
  1 28  1  0
  1 29  1  0
  2 30  1  0
  2 31  1  0
  3 32  1  0
  3 33  1  0
  4 34  1  0
  4 35  1  0
  5 36  1  0
  5 37  1  0
 11 38  1  0
 12 39  1  0
 13 40  1  0
 16 41  1  0
 17 42  1  0
 22 43  1  0
 23 44  1  0
 24 45  1  0
 25 46  1  0
M  CHG  1   3   1
M  END
>  <UniqueID>  (8) 
8

>  <SMILES>  (8) 
CC[NH2+]CCn1c(=O)c(-c2cccc(Cl)c2)cc2c1nc1ccccn12

>  <Energy>  (8) 
98.89449224554403

>  <Genealogy>  (8) 
CC[NH2+]CCn1c(=O)c(-c2cccc(Cl)c2)cc2c1nc1ccccn12 (protonated)
CC[NH2+]CCn1c(=O)c(-c2cccc(Cl)c2)cc2c1nc1ccccn12 (3D coordinates assigned)
CC[NH2+]CCn1c(=O)c(-c2cccc(Cl)c2)cc2c1nc1ccccn12 (optimized conformer: 98.89449224554403 kcal/mol)

>  <smiles>  (8) 
CCNCCn1c(=O)c(-c2cccc(Cl)c2)cc2c1nc1ccccn12

>  <score_type>  (8) 
oracle

>  <origin>  (8) 
adg

>  <m_score__min__energy>  (8) 
-6.04

>  <m_primary>  (8) 
energy

$$$$
8:0
     RDKit          3D

 60 63  0  0  0  0  0  0  0  0999 V2000
   64.1200   33.2070   48.5330 C   0  0  0  0  0  0  0  0  0  0  0  0
   63.0950   34.0300   49.2120 C   0  0  0  0  0  0  0  0  0  0  0  0
   61.7290   33.8530   48.7510 N   0  0  0  0  0  0  0  0  0  0  0  0
   60.9110   33.0700   49.5970 C   0  0  0  0  0  0  0  0  0  0  0  0
   59.7250   33.8070   50.2090 C   0  0  0  0  0  0  0  0  0  0  0  0
   61.8290   33.2940   47.4350 C   0  0  0  0  0  0  0  0  0  0  0  0
   61.2500   34.2020   46.4010 C   0  0  0  0  0  0  0  0  0  0  0  0
   60.2050   34.9790   47.0240 N   0  0  0  0  0  0  0  0  0  0  0  0
   58.9180   34.7190   46.5110 C   0  0  0  0  0  0  0  0  0  0  0  0
   58.6400   33.3290   46.0940 C   0  0  0  0  0  0  0  0  0  0  0  0
   58.7410   32.3630   47.1110 C   0  0  0  0  0  0  0  0  0  0  0  0
   58.5250   31.0440   46.7720 C   0  0  0  0  0  0  0  0  0  0  0  0
   58.2170   30.6380   45.4900 C   0  0  0  0  0  0  0  0  0  0  0  0
   58.0190   29.2240   45.1970 C   0  0  0  0  0  0  0  0  0  0  0  0
   57.7460   28.3450   46.2580 C   0  0  0  0  0  0  0  0  0  0  0  0
   57.5630   26.9980   46.0400 C   0  0  0  0  0  0  0  0  0  0  0  0
   57.6360   26.4420   44.7770 C   0  0  0  0  0  0  0  0  0  0  0  0
   57.4250   25.0140   44.5380 C   0  0  0  0  0  0  0  0  0  0  0  0
   57.5210   24.0850   45.5030 N   0  0  0  0  0  0  0  0  0  0  0  0
   57.2660   22.8640   45.0020 C   0  0  0  0  0  0  0  0  0  0  0  0
   57.2490   21.6310   45.6150 C   0  0  0  0  0  0  0  0  0  0  0  0
   56.9470   20.4930   44.8470 C   0  0  0  0  0  0  0  0  0  0  0  0
   56.6890   20.7190   43.5190 C   0  0  0  0  0  0  0  0  0  0  0  0
   56.7030   21.9350   42.8990 C   0  0  0  0  0  0  0  0  0  0  0  0
   57.0040   23.0640   43.6670 C   0  0  0  0  0  0  0  0  0  0  0  0
   57.1040   24.3860   43.3890 N   0  0  0  0  0  0  0  0  0  0  0  0
   57.9070   27.3250   43.7340 C   0  0  0  0  0  0  0  0  0  0  0  0
   58.0900   28.6740   43.9520 C   0  0  0  0  0  0  0  0  0  0  0  0
   58.1250   31.6140   44.5220 C   0  0  0  0  0  0  0  0  0  0  0  0
   58.3310   32.9640   44.7940 C   0  0  0  0  0  0  0  0  0  0  0  0
   64.7452   32.7051   49.2862 H   0  0  0  0  0  0  0  0  0  0  0  0
   63.6261   32.4517   47.9040 H   0  0  0  0  0  0  0  0  0  0  0  0
   64.7508   33.8524   47.9040 H   0  0  0  0  0  0  0  0  0  0  0  0
   63.1228   33.7853   50.2841 H   0  0  0  0  0  0  0  0  0  0  0  0
   63.3528   35.0743   48.9820 H   0  0  0  0  0  0  0  0  0  0  0  0
   60.5216   32.2257   49.0092 H   0  0  0  0  0  0  0  0  0  0  0  0
   61.5475   32.7595   50.4387 H   0  0  0  0  0  0  0  0  0  0  0  0
   59.7934   33.7645   51.3061 H   0  0  0  0  0  0  0  0  0  0  0  0
   59.7370   34.8570   49.8813 H   0  0  0  0  0  0  0  0  0  0  0  0
   58.7889   33.3313   49.8813 H   0  0  0  0  0  0  0  0  0  0  0  0
   62.8898   33.1197   47.2019 H   0  0  0  0  0  0  0  0  0  0  0  0
   61.2607   32.3523   47.4197 H   0  0  0  0  0  0  0  0  0  0  0  0
   62.0316   34.8714   46.0123 H   0  0  0  0  0  0  0  0  0  0  0  0
   60.8431   33.6166   45.5633 H   0  0  0  0  0  0  0  0  0  0  0  0
   60.2980   35.0000   48.0680 H   0  0  0  0  0  0  0  0  0  0  0  0
   58.1883   34.9861   47.2896 H   0  0  0  0  0  0  0  0  0  0  0  0
   58.8464   35.3175   45.5908 H   0  0  0  0  0  0  0  0  0  0  0  0
   58.9846   32.6506   48.1444 H   0  0  0  0  0  0  0  0  0  0  0  0
   58.6018   30.2804   47.5600 H   0  0  0  0  0  0  0  0  0  0  0  0
   57.6771   28.7402   47.2822 H   0  0  0  0  0  0  0  0  0  0  0  0
   57.3520   26.3435   46.8985 H   0  0  0  0  0  0  0  0  0  0  0  0
   57.4683   21.5380   46.6889 H   0  0  0  0  0  0  0  0  0  0  0  0
   56.9193   19.4839   45.2840 H   0  0  0  0  0  0  0  0  0  0  0  0
   56.4496   19.8427   42.8986 H   0  0  0  0  0  0  0  0  0  0  0  0
   56.4835   22.0243   41.8248 H   0  0  0  0  0  0  0  0  0  0  0  0
   56.9600   24.8350   42.4620 H   0  0  0  0  0  0  0  0  0  0  0  0
   57.9769   26.9350   42.7079 H   0  0  0  0  0  0  0  0  0  0  0  0
   58.3002   29.3279   43.0928 H   0  0  0  0  0  0  0  0  0  0  0  0
   57.8788   31.3147   43.4925 H   0  0  0  0  0  0  0  0  0  0  0  0
   58.2506   33.7196   43.9986 H   0  0  0  0  0  0  0  0  0  0  0  0
  1  2  1  0
  2  3  1  0
  3  4  1  0
  4  5  1  0
  3  6  1  0
  6  7  1  0
  7  8  1  0
  8  9  1  0
  9 10  1  0
 10 11  2  0
 11 12  1  0
 12 13  2  0
 13 14  1  0
 14 15  2  0
 15 16  1  0
 16 17  2  0
 17 18  1  0
 18 19  2  0
 19 20  1  0
 20 21  2  0
 21 22  1  0
 22 23  2  0
 23 24  1  0
 24 25  2  0
 25 26  1  0
 17 27  1  0
 27 28  2  0
 13 29  1  0
 29 30  2  0
 30 10  1  0
 28 14  1  0
 26 18  1  0
 25 20  1  0
  1 31  1  0
  1 32  1  0
  1 33  1  0
  2 34  1  0
  2 35  1  0
  4 36  1  0
  4 37  1  0
  5 38  1  0
  5 39  1  0
  5 40  1  0
  6 41  1  0
  6 42  1  0
  7 43  1  0
  7 44  1  0
  8 45  1  0
  9 46  1  0
  9 47  1  0
 11 48  1  0
 12 49  1  0
 15 50  1  0
 16 51  1  0
 21 52  1  0
 22 53  1  0
 23 54  1  0
 24 55  1  0
 26 56  1  0
 27 57  1  0
 28 58  1  0
 29 59  1  0
 30 60  1  0
M  END
>  <smiles>  (9) 
CCN(CC)CCNCc1ccc(-c2ccc(-c3nc4ccccc4[nH]3)cc2)cc1

>  <score_type>  (9) 
oracle

>  <origin>  (9) 
adg

>  <m_score__min__energy>  (9) 
-8.4299999999999997

>  <m_primary>  (9) 
energy

$$$$
9:0
     RDKit          3D

 28 28  0  0  0  0  0  0  0  0999 V2000
   59.3000   34.6040   46.1550 C   0  0  0  0  0  0  0  0  0  0  0  0
   58.3970   34.5570   44.9280 C   0  0  0  0  0  0  0  0  0  0  0  0
   58.9060   33.6400   43.9620 O   0  0  0  0  0  0  0  0  0  0  0  0
   58.1140   32.6820   43.3160 C   0  0  0  0  0  0  0  0  0  0  0  0
   58.0270   32.6670   42.0570 O   0  0  0  0  0  0  0  0  0  0  0  0
   57.3910   31.6830   44.1180 C   0  0  0  0  0  0  0  0  0  0  0  0
   57.3410   31.8150   45.3700 O   0  0  0  0  0  0  0  0  0  0  0  0
   56.7420   30.4870   43.4760 C   0  0  0  0  0  0  0  0  0  0  0  0
   56.3730   29.4290   44.4880 C   0  0  0  0  0  0  0  0  0  0  0  0
   55.1730   29.3250   44.8640 O   0  0  0  0  0  0  0  0  0  0  0  0
   57.3830   28.4720   45.0130 C   0  0  0  0  0  0  0  0  0  0  0  0
   57.0000   27.3320   45.7470 C   0  0  0  0  0  0  0  0  0  0  0  0
   57.9650   26.4460   46.2360 C   0  0  0  0  0  0  0  0  0  0  0  0
   59.3210   26.6850   46.0010 C   0  0  0  0  0  0  0  0  0  0  0  0
   59.7140   27.8150   45.2800 C   0  0  0  0  0  0  0  0  0  0  0  0
   58.7540   28.7050   44.7910 C   0  0  0  0  0  0  0  0  0  0  0  0
   58.6835   34.5719   47.0654 H   0  0  0  0  0  0  0  0  0  0  0  0
   59.9808   33.7401   46.1425 H   0  0  0  0  0  0  0  0  0  0  0  0
   59.8874   35.5339   46.1425 H   0  0  0  0  0  0  0  0  0  0  0  0
   57.3896   34.2377   45.2332 H   0  0  0  0  0  0  0  0  0  0  0  0
   58.3597   35.5600   44.4779 H   0  0  0  0  0  0  0  0  0  0  0  0
   55.8293   30.8148   42.9569 H   0  0  0  0  0  0  0  0  0  0  0  0
   57.4645   30.0461   42.7734 H   0  0  0  0  0  0  0  0  0  0  0  0
   55.9341   27.1375   45.9368 H   0  0  0  0  0  0  0  0  0  0  0  0
   57.6554   25.5584   46.8073 H   0  0  0  0  0  0  0  0  0  0  0  0
   60.0782   25.9845   46.3831 H   0  0  0  0  0  0  0  0  0  0  0  0
   60.7819   28.0048   45.0967 H   0  0  0  0  0  0  0  0  0  0  0  0
   59.0719   29.5949   44.2280 H   0  0  0  0  0  0  0  0  0  0  0  0
  1  2  1  0
  2  3  1  0
  3  4  1  0
  4  5  2  0
  4  6  1  0
  6  7  2  0
  6  8  1  0
  8  9  1  0
  9 10  2  0
  9 11  1  0
 11 12  2  0
 12 13  1  0
 13 14  2  0
 14 15  1  0
 15 16  2  0
 16 11  1  0
  1 17  1  0
  1 18  1  0
  1 19  1  0
  2 20  1  0
  2 21  1  0
  8 22  1  0
  8 23  1  0
 12 24  1  0
 13 25  1  0
 14 26  1  0
 15 27  1  0
 16 28  1  0
M  END
>  <UniqueID>  (10) 
9

>  <SMILES>  (10) 
CCOC(=O)C(=O)CC(=O)c1ccccc1

>  <Energy>  (10) 
22.545013332487528

>  <Genealogy>  (10) 
CCOC(=O)C(=O)CC(=O)c1ccccc1 (3D coordinates assigned)
CCOC(=O)C(=O)CC(=O)c1ccccc1 (optimized conformer: 22.545013332487528 kcal/mol)

>  <smiles>  (10) 
CCOC(=O)C(=O)CC(=O)c1ccccc1

>  <score_type>  (10) 
oracle

>  <origin>  (10) 
adg

>  <m_score__min__energy>  (10) 
-5.8899999999999997

>  <m_primary>  (10) 
energy

$$$$
10:0
     RDKit          3D

 56 58  0  0  0  0  0  0  0  0999 V2000
   56.4050   30.0440   42.7550 C   0  0  0  0  0  0  0  0  0  0  0  0
   55.9300   30.4770   44.1400 C   0  0  0  0  0  0  0  0  0  0  0  0
   57.0680   30.8310   45.0160 N   0  0  0  0  0  0  0  0  0  0  0  0
   58.2610   29.9660   44.8840 C   0  0  0  0  0  0  0  0  0  0  0  0
   58.0180   28.4970   45.2570 C   0  0  0  0  0  0  0  0  0  0  0  0
   57.4640   32.5400   44.9280 S   0  0  0  0  0  0  0  0  0  0  0  0
   57.9560   32.9040   43.5540 O   0  0  0  0  0  0  0  0  0  0  0  0
   56.2720   33.3960   45.2590 O   0  0  0  0  0  0  0  0  0  0  0  0
   58.7420   32.8620   46.0960 C   0  0  0  0  0  0  0  0  0  0  0  0
   59.8000   33.7200   45.7720 C   0  0  0  0  0  0  0  0  0  0  0  0
   60.8540   33.9080   46.6690 C   0  0  0  0  0  0  0  0  0  0  0  0
   60.8620   33.2460   47.9070 C   0  0  0  0  0  0  0  0  0  0  0  0
   62.0180   33.3640   48.7490 N   0  0  0  0  0  0  0  0  0  0  0  0
   62.0120   34.0390   50.0370 C   0  0  0  0  0  0  0  0  0  0  0  0
   63.4760   34.1790   50.4320 C   0  0  0  0  0  0  0  0  0  0  0  0
   64.2430   33.2280   49.5170 C   0  0  0  0  0  0  0  0  0  0  0  0
   63.3620   33.0480   48.2940 C   0  0  0  0  0  0  0  0  0  0  0  0
   59.7650   32.4200   48.2640 C   0  0  0  0  0  0  0  0  0  0  0  0
   59.6650   31.7390   49.5750 C   0  0  0  0  0  0  0  0  0  0  0  0
   59.1340   32.3640   50.5410 O   0  0  0  0  0  0  0  0  0  0  0  0
   60.3050   30.4560   49.8050 N   0  0  0  0  0  0  0  0  0  0  0  0
   61.1570   30.0470   48.6750 C   0  0  0  0  0  0  0  0  0  0  0  0
   60.3340   29.1340   47.7720 C   0  0  0  0  0  0  0  0  0  0  0  0
   59.0760   28.7990   48.5580 C   0  0  0  0  0  0  0  0  0  0  0  0
   59.2900   29.4000   49.9390 C   0  0  0  0  0  0  0  0  0  0  0  0
   58.7220   32.2300   47.3430 C   0  0  0  0  0  0  0  0  0  0  0  0
   57.2143   29.3063   42.8590 H   0  0  0  0  0  0  0  0  0  0  0  0
   55.5664   29.5931   42.2041 H   0  0  0  0  0  0  0  0  0  0  0  0
   56.7765   30.9206   42.2041 H   0  0  0  0  0  0  0  0  0  0  0  0
   55.2733   31.3532   44.0351 H   0  0  0  0  0  0  0  0  0  0  0  0
   55.3894   29.6359   44.5986 H   0  0  0  0  0  0  0  0  0  0  0  0
   58.6011   30.0047   43.8386 H   0  0  0  0  0  0  0  0  0  0  0  0
   59.0105   30.3516   45.5908 H   0  0  0  0  0  0  0  0  0  0  0  0
   58.0011   28.3947   46.3521 H   0  0  0  0  0  0  0  0  0  0  0  0
   57.0533   28.1684   44.8431 H   0  0  0  0  0  0  0  0  0  0  0  0
   58.8255   27.8752   44.8431 H   0  0  0  0  0  0  0  0  0  0  0  0
   59.8011   34.2482   44.8071 H   0  0  0  0  0  0  0  0  0  0  0  0
   61.6838   34.5796   46.4035 H   0  0  0  0  0  0  0  0  0  0  0  0
   61.5414   35.0294   49.9494 H   0  0  0  0  0  0  0  0  0  0  0  0
   61.4392   33.4765   50.7890 H   0  0  0  0  0  0  0  0  0  0  0  0
   63.8166   35.2141   50.2816 H   0  0  0  0  0  0  0  0  0  0  0  0
   63.6351   33.9380   51.4934 H   0  0  0  0  0  0  0  0  0  0  0  0
   65.2117   33.6649   49.2327 H   0  0  0  0  0  0  0  0  0  0  0  0
   64.4581   32.2691   50.0112 H   0  0  0  0  0  0  0  0  0  0  0  0
   63.6698   33.7343   47.4913 H   0  0  0  0  0  0  0  0  0  0  0  0
   63.4302   32.0305   47.8817 H   0  0  0  0  0  0  0  0  0  0  0  0
   60.8760   30.4900   50.6770 H   0  0  0  0  0  0  0  0  0  0  0  0
   61.4823   30.9344   48.1122 H   0  0  0  0  0  0  0  0  0  0  0  0
   62.0502   29.5193   49.0407 H   0  0  0  0  0  0  0  0  0  0  0  0
   60.0749   29.6523   46.8370 H   0  0  0  0  0  0  0  0  0  0  0  0
   60.8923   28.2274   47.4957 H   0  0  0  0  0  0  0  0  0  0  0  0
   58.1922   29.2439   48.0775 H   0  0  0  0  0  0  0  0  0  0  0  0
   58.9011   27.7141   48.6068 H   0  0  0  0  0  0  0  0  0  0  0  0
   58.3484   29.8284   50.3129 H   0  0  0  0  0  0  0  0  0  0  0  0
   59.6214   28.6300   50.6513 H   0  0  0  0  0  0  0  0  0  0  0  0
   57.8781   31.5753   47.6062 H   0  0  0  0  0  0  0  0  0  0  0  0
  1  2  1  0
  2  3  1  0
  3  4  1  0
  4  5  1  0
  3  6  1  0
  6  7  2  0
  6  8  2  0
  6  9  1  0
  9 10  2  0
 10 11  1  0
 11 12  2  0
 12 13  1  0
 13 14  1  0
 14 15  1  0
 15 16  1  0
 16 17  1  0
 12 18  1  0
 18 19  1  0
 19 20  2  0
 19 21  1  0
 21 22  1  0
 22 23  1  0
 23 24  1  0
 24 25  1  0
 18 26  2  0
 26  9  1  0
 17 13  1  0
 25 21  1  0
  1 27  1  0
  1 28  1  0
  1 29  1  0
  2 30  1  0
  2 31  1  0
  4 32  1  0
  4 33  1  0
  5 34  1  0
  5 35  1  0
  5 36  1  0
 10 37  1  0
 11 38  1  0
 14 39  1  0
 14 40  1  0
 15 41  1  0
 15 42  1  0
 16 43  1  0
 16 44  1  0
 17 45  1  0
 17 46  1  0
 21 47  1  0
 22 48  1  0
 22 49  1  0
 23 50  1  0
 23 51  1  0
 24 52  1  0
 24 53  1  0
 25 54  1  0
 25 55  1  0
 26 56  1  0
M  CHG  1  21   1
M  END
>  <UniqueID>  (11) 
10

>  <SMILES>  (11) 
CCN(CC)S(=O)(=O)c1ccc(N2CCCC2)c(C(=O)[NH+]2CCCC2)c1

>  <Energy>  (11) 
72.94797762003333

>  <Genealogy>  (11) 
CCN(CC)S(=O)(=O)c1ccc(N2CCCC2)c(C(=O)[NH+]2CCCC2)c1 (protonated)
CCN(CC)S(=O)(=O)c1ccc(N2CCCC2)c(C(=O)[NH+]2CCCC2)c1 (3D coordinates assigned)
CCN(CC)S(=O)(=O)c1ccc(N2CCCC2)c(C(=O)[NH+]2CCCC2)c1 (nonaromatic ring conformer: 72.94797762003333 kcal/mol)

>  <smiles>  (11) 
CCN(CC)S(=O)(=O)c1ccc(N2CCCC2)c(C(=O)N2CCCC2)c1

>  <score_type>  (11) 
oracle

>  <origin>  (11) 
adg

>  <m_score__min__energy>  (11) 
-6.5499999999999998

>  <m_primary>  (11) 
energy

$$$$
11:0
     RDKit          3D

 46 48  0  0  0  0  0  0  0  0999 V2000
   58.7360   23.3440   45.5190 C   0  0  0  0  0  0  0  0  0  0  0  0
   58.8930   24.4470   46.4050 O   0  0  0  0  0  0  0  0  0  0  0  0
   58.7320   25.7900   46.0370 C   0  0  0  0  0  0  0  0  0  0  0  0
   59.8560   26.6240   46.0500 C   0  0  0  0  0  0  0  0  0  0  0  0
   59.7480   27.9700   45.6900 C   0  0  0  0  0  0  0  0  0  0  0  0
   58.5090   28.4990   45.2980 C   0  0  0  0  0  0  0  0  0  0  0  0
   58.3800   29.8920   44.9630 N   0  0  0  0  0  0  0  0  0  0  0  0
   58.1980   30.3240   43.7250 N   0  0  0  0  0  0  0  0  0  0  0  0
   58.0480   31.6620   43.7480 C   0  0  0  0  0  0  0  0  0  0  0  0
   57.7910   32.4990   42.5380 C   0  0  0  0  0  0  0  0  0  0  0  0
   58.1630   32.1020   45.0570 C   0  0  0  0  0  0  0  0  0  0  0  0
   57.9580   33.7560   45.6350 S   0  0  0  0  0  0  0  0  0  0  0  0
   56.9390   34.4790   44.8010 O   0  0  0  0  0  0  0  0  0  0  0  0
   57.4810   33.7360   47.0590 O   0  0  0  0  0  0  0  0  0  0  0  0
   59.5260   34.6020   45.5270 C   0  0  0  0  0  0  0  0  0  0  0  0
   60.4280   34.1830   46.6550 C   0  0  0  0  0  0  0  0  0  0  0  0
   61.6100   33.4730   46.3810 C   0  0  0  0  0  0  0  0  0  0  0  0
   62.4680   33.1050   47.4210 C   0  0  0  0  0  0  0  0  0  0  0  0
   62.1590   33.4500   48.7400 C   0  0  0  0  0  0  0  0  0  0  0  0
   60.9940   34.1660   49.0190 C   0  0  0  0  0  0  0  0  0  0  0  0
   60.1290   34.5330   47.9850 C   0  0  0  0  0  0  0  0  0  0  0  0
   59.0020   35.2320   48.2780 F   0  0  0  0  0  0  0  0  0  0  0  0
   58.3710   30.9520   45.8070 C   0  0  0  0  0  0  0  0  0  0  0  0
   58.5910   30.8950   47.2910 C   0  0  0  0  0  0  0  0  0  0  0  0
   57.3780   27.6720   45.3000 C   0  0  0  0  0  0  0  0  0  0  0  0
   57.4860   26.3260   45.6580 C   0  0  0  0  0  0  0  0  0  0  0  0
   58.6046   22.4208   46.1025 H   0  0  0  0  0  0  0  0  0  0  0  0
   57.8519   23.5060   44.8849 H   0  0  0  0  0  0  0  0  0  0  0  0
   59.6302   23.2528   44.8849 H   0  0  0  0  0  0  0  0  0  0  0  0
   60.8336   26.2161   46.3464 H   0  0  0  0  0  0  0  0  0  0  0  0
   60.6373   28.6169   45.7140 H   0  0  0  0  0  0  0  0  0  0  0  0
   58.1430   29.7110   42.8800 H   0  0  0  0  0  0  0  0  0  0  0  0
   57.4813   33.5077   42.8489 H   0  0  0  0  0  0  0  0  0  0  0  0
   58.7098   32.5665   41.9370 H   0  0  0  0  0  0  0  0  0  0  0  0
   56.9926   32.0393   41.9370 H   0  0  0  0  0  0  0  0  0  0  0  0
   60.0058   34.3546   44.5686 H   0  0  0  0  0  0  0  0  0  0  0  0
   59.3513   35.6860   45.5943 H   0  0  0  0  0  0  0  0  0  0  0  0
   61.8606   33.2060   45.3437 H   0  0  0  0  0  0  0  0  0  0  0  0
   63.3878   32.5431   47.2014 H   0  0  0  0  0  0  0  0  0  0  0  0
   62.8339   33.1572   49.5578 H   0  0  0  0  0  0  0  0  0  0  0  0
   60.7559   34.4424   50.0567 H   0  0  0  0  0  0  0  0  0  0  0  0
   57.6524   31.1382   47.8104 H   0  0  0  0  0  0  0  0  0  0  0  0
   58.9157   29.8831   47.5749 H   0  0  0  0  0  0  0  0  0  0  0  0
   59.3662   31.6220   47.5749 H   0  0  0  0  0  0  0  0  0  0  0  0
   56.3985   28.0854   45.0178 H   0  0  0  0  0  0  0  0  0  0  0  0
   56.5942   25.6822   45.6438 H   0  0  0  0  0  0  0  0  0  0  0  0
  1  2  1  0
  2  3  1  0
  3  4  2  0
  4  5  1  0
  5  6  2  0
  6  7  1  0
  7  8  1  0
  8  9  2  0
  9 10  1  0
  9 11  1  0
 11 12  1  0
 12 13  2  0
 12 14  2  0
 12 15  1  0
 15 16  1  0
 16 17  2  0
 17 18  1  0
 18 19  2  0
 19 20  1  0
 20 21  2  0
 21 22  1  0
 11 23  2  0
 23 24  1  0
  6 25  1  0
 25 26  2  0
 26  3  1  0
 23  7  1  0
 21 16  1  0
  1 27  1  0
  1 28  1  0
  1 29  1  0
  4 30  1  0
  5 31  1  0
  8 32  1  0
 10 33  1  0
 10 34  1  0
 10 35  1  0
 15 36  1  0
 15 37  1  0
 17 38  1  0
 18 39  1  0
 19 40  1  0
 20 41  1  0
 24 42  1  0
 24 43  1  0
 24 44  1  0
 25 45  1  0
 26 46  1  0
M  CHG  1   8   1
M  END
>  <UniqueID>  (12) 
11

>  <SMILES>  (12) 
COc1ccc(-n2[nH+]c(C)c(S(=O)(=O)Cc3ccccc3F)c2C)cc1

>  <Energy>  (12) 
80.3361220069945

>  <Genealogy>  (12) 
COc1ccc(-n2[nH+]c(C)c(S(=O)(=O)Cc3ccccc3F)c2C)cc1 (protonated)
COc1ccc(-n2[nH+]c(C)c(S(=O)(=O)Cc3ccccc3F)c2C)cc1 (3D coordinates assigned)
COc1ccc(-n2[nH+]c(C)c(S(=O)(=O)Cc3ccccc3F)c2C)cc1 (optimized conformer: 80.3361220069945 kcal/mol)

>  <smiles>  (12) 
COc1ccc(-n2nc(C)c(S(=O)(=O)Cc3ccccc3F)c2C)cc1

>  <score_type>  (12) 
oracle

>  <origin>  (12) 
adg

>  <m_score__min__energy>  (12) 
-7.0999999999999996

>  <m_primary>  (12) 
energy

$$$$
12:0
     RDKit          3D

 49 50  0  0  0  0  0  0  0  0999 V2000
   63.3740   33.8290   46.3790 C   0  0  0  0  0  0  0  0  0  0  0  0
   63.4190   32.5810   47.2790 C   0  0  0  0  0  0  0  0  0  0  0  0
   62.7030   32.7100   48.5800 N   0  0  0  0  0  0  0  0  0  0  0  0
   63.4970   32.2490   49.7480 C   0  0  0  0  0  0  0  0  0  0  0  0
   64.9480   32.7480   49.7180 C   0  0  0  0  0  0  0  0  0  0  0  0
   62.1970   34.0950   48.8030 C   0  0  0  0  0  0  0  0  0  0  0  0
   61.3260   34.2120   50.0700 C   0  0  0  0  0  0  0  0  0  0  0  0
   60.0170   33.5800   49.8850 N   0  0  0  0  0  0  0  0  0  0  0  0
   59.5180   33.1570   48.5970 C   0  0  0  0  0  0  0  0  0  0  0  0
   59.1330   34.1050   47.6280 C   0  0  0  0  0  0  0  0  0  0  0  0
   58.6460   33.6990   46.3840 C   0  0  0  0  0  0  0  0  0  0  0  0
   58.5290   32.3370   46.0720 C   0  0  0  0  0  0  0  0  0  0  0  0
   58.0090   31.9060   44.7490 C   0  0  0  0  0  0  0  0  0  0  0  0
   57.2590   30.7210   44.6260 C   0  0  0  0  0  0  0  0  0  0  0  0
   56.7710   30.3180   43.3790 C   0  0  0  0  0  0  0  0  0  0  0  0
   57.0260   31.0890   42.2440 C   0  0  0  0  0  0  0  0  0  0  0  0
   57.7710   32.2670   42.3530 C   0  0  0  0  0  0  0  0  0  0  0  0
   58.2600   32.6750   43.5970 C   0  0  0  0  0  0  0  0  0  0  0  0
   58.9120   31.3870   47.0320 C   0  0  0  0  0  0  0  0  0  0  0  0
   59.3980   31.7830   48.2850 C   0  0  0  0  0  0  0  0  0  0  0  0
   59.8840   30.4940   49.4440 S   0  0  0  0  0  0  0  0  0  0  0  0
   60.0020   29.2140   48.1560 C   0  0  0  0  0  0  0  0  0  0  0  0
   63.3414   34.7322   47.0060 H   0  0  0  0  0  0  0  0  0  0  0  0
   64.2718   33.8557   45.7439 H   0  0  0  0  0  0  0  0  0  0  0  0
   62.4766   33.7909   45.7439 H   0  0  0  0  0  0  0  0  0  0  0  0
   62.9683   31.7450   46.7241 H   0  0  0  0  0  0  0  0  0  0  0  0
   64.4786   32.4228   47.5284 H   0  0  0  0  0  0  0  0  0  0  0  0
   61.8740   32.0710   48.5240 H   0  0  0  0  0  0  0  0  0  0  0  0
   63.0176   32.6188   50.6664 H   0  0  0  0  0  0  0  0  0  0  0  0
   63.5251   31.1499   49.7150 H   0  0  0  0  0  0  0  0  0  0  0  0
   65.3138   32.8738   50.7477 H   0  0  0  0  0  0  0  0  0  0  0  0
   65.5772   32.0146   49.1924 H   0  0  0  0  0  0  0  0  0  0  0  0
   64.9930   33.7132   49.1924 H   0  0  0  0  0  0  0  0  0  0  0  0
   63.0578   34.7725   48.9036 H   0  0  0  0  0  0  0  0  0  0  0  0
   61.5682   34.3625   47.9410 H   0  0  0  0  0  0  0  0  0  0  0  0
   61.8447   33.7206   50.9064 H   0  0  0  0  0  0  0  0  0  0  0  0
   61.1659   35.2798   50.2800 H   0  0  0  0  0  0  0  0  0  0  0  0
   59.4270   33.4250   50.7330 H   0  0  0  0  0  0  0  0  0  0  0  0
   59.2172   35.1781   47.8545 H   0  0  0  0  0  0  0  0  0  0  0  0
   58.3512   34.4551   45.6414 H   0  0  0  0  0  0  0  0  0  0  0  0
   57.0555   30.1081   45.5165 H   0  0  0  0  0  0  0  0  0  0  0  0
   56.1848   29.3912   43.2925 H   0  0  0  0  0  0  0  0  0  0  0  0
   56.6410   30.7700   41.2642 H   0  0  0  0  0  0  0  0  0  0  0  0
   57.9726   32.8738   41.4580 H   0  0  0  0  0  0  0  0  0  0  0  0
   58.8449   33.6032   43.6764 H   0  0  0  0  0  0  0  0  0  0  0  0
   58.8293   30.3156   46.7969 H   0  0  0  0  0  0  0  0  0  0  0  0
   60.0932   28.2251   48.6291 H   0  0  0  0  0  0  0  0  0  0  0  0
   59.0977   29.2391   47.5302 H   0  0  0  0  0  0  0  0  0  0  0  0
   60.8864   29.4040   47.5302 H   0  0  0  0  0  0  0  0  0  0  0  0
  1  2  1  0
  2  3  1  0
  3  4  1  0
  4  5  1  0
  3  6  1  0
  6  7  1  0
  7  8  1  0
  8  9  1  0
  9 10  2  0
 10 11  1  0
 11 12  2  0
 12 13  1  0
 13 14  2  0
 14 15  1  0
 15 16  2  0
 16 17  1  0
 17 18  2  0
 12 19  1  0
 19 20  2  0
 20 21  1  0
 21 22  1  0
 20  9  1  0
 18 13  1  0
  1 23  1  0
  1 24  1  0
  1 25  1  0
  2 26  1  0
  2 27  1  0
  3 28  1  0
  4 29  1  0
  4 30  1  0
  5 31  1  0
  5 32  1  0
  5 33  1  0
  6 34  1  0
  6 35  1  0
  7 36  1  0
  7 37  1  0
  8 38  1  0
 10 39  1  0
 11 40  1  0
 14 41  1  0
 15 42  1  0
 16 43  1  0
 17 44  1  0
 18 45  1  0
 19 46  1  0
 22 47  1  0
 22 48  1  0
 22 49  1  0
M  CHG  1   3   1
M  END
>  <UniqueID>  (13) 
12

>  <SMILES>  (13) 
CC[NH+](CC)CCNc1ccc(-c2ccccc2)cc1SC

>  <Energy>  (13) 
54.35515635508102

>  <Genealogy>  (13) 
CC[NH+](CC)CCNc1ccc(-c2ccccc2)cc1SC (protonated)
CC[NH+](CC)CCNc1ccc(-c2ccccc2)cc1SC (3D coordinates assigned)
CC[NH+](CC)CCNc1ccc(-c2ccccc2)cc1SC (optimized conformer: 54.35515635508102 kcal/mol)

>  <smiles>  (13) 
CCN(CC)CCNc1ccc(-c2ccccc2)cc1SC

>  <score_type>  (13) 
oracle

>  <origin>  (13) 
adg

>  <m_score__min__energy>  (13) 
-5.4100000000000001

>  <m_primary>  (13) 
energy

$$$$
13:0
     RDKit          3D

 72 76  0  0  0  0  0  0  0  0999 V2000
   61.5970   31.2250   47.1180 C   0  0  0  0  0  0  0  0  0  0  0  0
   62.7730   31.6580   47.8920 N   0  0  0  0  0  0  0  0  0  0  0  0
   63.3400   32.9040   47.3480 C   0  0  0  0  0  0  0  0  0  0  0  0
   62.5120   31.7210   49.3500 C   0  0  0  0  0  0  0  0  0  0  0  0
   62.1130   30.3750   49.9840 C   0  0  0  0  0  0  0  0  0  0  0  0
   60.6980   30.2140   49.9110 O   0  0  0  0  0  0  0  0  0  0  0  0
   60.0560   29.2170   49.1590 C   0  0  0  0  0  0  0  0  0  0  0  0
   58.8580   29.4560   48.4580 C   0  0  0  0  0  0  0  0  0  0  0  0
   58.2630   28.4390   47.7120 C   0  0  0  0  0  0  0  0  0  0  0  0
   58.8600   27.1690   47.6360 C   0  0  0  0  0  0  0  0  0  0  0  0
   58.2450   26.1080   46.8180 C   0  0  0  0  0  0  0  0  0  0  0  0
   57.4380   24.7720   47.4770 S   0  0  0  0  0  0  0  0  0  0  0  0
   56.9790   24.1230   46.0020 C   0  0  0  0  0  0  0  0  0  0  0  0
   56.2470   22.9620   45.7700 C   0  0  0  0  0  0  0  0  0  0  0  0
   55.9820   22.5960   44.4410 C   0  0  0  0  0  0  0  0  0  0  0  0
   56.4540   23.3910   43.3800 C   0  0  0  0  0  0  0  0  0  0  0  0
   57.1860   24.5630   43.6360 C   0  0  0  0  0  0  0  0  0  0  0  0
   57.4480   24.9240   44.9680 C   0  0  0  0  0  0  0  0  0  0  0  0
   58.1810   26.0430   45.4130 C   0  0  0  0  0  0  0  0  0  0  0  0
   58.8870   27.0070   44.4820 C   0  0  0  0  0  0  0  0  0  0  0  0
   58.3690   28.4300   44.5400 C   0  0  0  0  0  0  0  0  0  0  0  0
   56.9800   28.6340   44.5090 C   0  0  0  0  0  0  0  0  0  0  0  0
   56.4470   29.9210   44.6190 C   0  0  0  0  0  0  0  0  0  0  0  0
   57.2890   31.0290   44.7430 C   0  0  0  0  0  0  0  0  0  0  0  0
   56.7070   32.3010   44.8460 O   0  0  0  0  0  0  0  0  0  0  0  0
   57.4160   33.5330   44.6650 C   0  0  0  0  0  0  0  0  0  0  0  0
   57.5820   34.2740   46.0020 C   0  0  0  0  0  0  0  0  0  0  0  0
   58.7000   33.7180   46.7920 N   0  0  0  0  0  0  0  0  0  0  0  0
   58.2150   32.8230   47.8500 C   0  0  0  0  0  0  0  0  0  0  0  0
   59.2510   32.8590   48.9650 C   0  0  0  0  0  0  0  0  0  0  0  0
   60.1390   34.0550   48.6580 C   0  0  0  0  0  0  0  0  0  0  0  0
   59.4620   34.7530   47.4920 C   0  0  0  0  0  0  0  0  0  0  0  0
   58.6810   30.8350   44.7870 C   0  0  0  0  0  0  0  0  0  0  0  0
   59.2150   29.5440   44.7150 C   0  0  0  0  0  0  0  0  0  0  0  0
   60.0420   26.9250   48.3460 C   0  0  0  0  0  0  0  0  0  0  0  0
   60.6320   27.9410   49.1040 C   0  0  0  0  0  0  0  0  0  0  0  0
   60.7928   30.9289   47.8077 H   0  0  0  0  0  0  0  0  0  0  0  0
   61.2496   32.0542   46.4841 H   0  0  0  0  0  0  0  0  0  0  0  0
   61.8703   30.3685   46.4841 H   0  0  0  0  0  0  0  0  0  0  0  0
   63.6398   33.5627   48.1764 H   0  0  0  0  0  0  0  0  0  0  0  0
   64.2193   32.6678   46.7307 H   0  0  0  0  0  0  0  0  0  0  0  0
   62.5843   33.4119   46.7307 H   0  0  0  0  0  0  0  0  0  0  0  0
   63.4255   32.0784   49.8479 H   0  0  0  0  0  0  0  0  0  0  0  0
   61.6560   32.3982   49.4866 H   0  0  0  0  0  0  0  0  0  0  0  0
   62.6036   29.5542   49.4403 H   0  0  0  0  0  0  0  0  0  0  0  0
   62.4292   30.3588   51.0375 H   0  0  0  0  0  0  0  0  0  0  0  0
   58.3891   30.4502   48.4992 H   0  0  0  0  0  0  0  0  0  0  0  0
   57.3201   28.6322   47.1795 H   0  0  0  0  0  0  0  0  0  0  0  0
   55.8853   22.3468   46.6071 H   0  0  0  0  0  0  0  0  0  0  0  0
   55.4036   21.6849   44.2282 H   0  0  0  0  0  0  0  0  0  0  0  0
   56.2482   23.0925   42.3415 H   0  0  0  0  0  0  0  0  0  0  0  0
   57.5481   25.1879   42.8063 H   0  0  0  0  0  0  0  0  0  0  0  0
   59.9549   27.0191   44.7454 H   0  0  0  0  0  0  0  0  0  0  0  0
   58.7003   26.6476   43.4593 H   0  0  0  0  0  0  0  0  0  0  0  0
   56.3052   27.7726   44.3971 H   0  0  0  0  0  0  0  0  0  0  0  0
   55.3562   30.0629   44.6079 H   0  0  0  0  0  0  0  0  0  0  0  0
   58.4105   33.3178   44.2470 H   0  0  0  0  0  0  0  0  0  0  0  0
   56.8400   34.1717   43.9792 H   0  0  0  0  0  0  0  0  0  0  0  0
   57.7806   35.3368   45.7997 H   0  0  0  0  0  0  0  0  0  0  0  0
   56.6551   34.1533   46.5818 H   0  0  0  0  0  0  0  0  0  0  0  0
   57.2421   33.1728   48.2255 H   0  0  0  0  0  0  0  0  0  0  0  0
   58.0791   31.7997   47.4701 H   0  0  0  0  0  0  0  0  0  0  0  0
   58.7604   32.9853   49.9414 H   0  0  0  0  0  0  0  0  0  0  0  0
   59.8289   31.9244   49.0146 H   0  0  0  0  0  0  0  0  0  0  0  0
   60.2003   34.7253   49.5280 H   0  0  0  0  0  0  0  0  0  0  0  0
   61.1704   33.7556   48.4200 H   0  0  0  0  0  0  0  0  0  0  0  0
   58.7888   35.5425   47.8574 H   0  0  0  0  0  0  0  0  0  0  0  0
   60.1957   35.2329   46.8277 H   0  0  0  0  0  0  0  0  0  0  0  0
   59.3525   31.7015   44.8784 H   0  0  0  0  0  0  0  0  0  0  0  0
   60.3022   29.3971   44.7955 H   0  0  0  0  0  0  0  0  0  0  0  0
   60.5084   25.9295   48.3072 H   0  0  0  0  0  0  0  0  0  0  0  0
   61.5573   27.7365   49.6625 H   0  0  0  0  0  0  0  0  0  0  0  0
  1  2  1  0
  2  3  1  0
  2  4  1  0
  4  5  1  0
  5  6  1  0
  6  7  1  0
  7  8  2  0
  8  9  1  0
  9 10  2  0
 10 11  1  0
 11 12  1  0
 12 13  1  0
 13 14  2  0
 14 15  1  0
 15 16  2  0
 16 17  1  0
 17 18  2  0
 18 19  1  0
 19 20  1  0
 20 21  1  0
 21 22  2  0
 22 23  1  0
 23 24  2  0
 24 25  1  0
 25 26  1  0
 26 27  1  0
 27 28  1  0
 28 29  1  0
 29 30  1  0
 30 31  1  0
 31 32  1  0
 24 33  1  0
 33 34  2  0
 10 35  1  0
 35 36  2  0
 36  7  1  0
 19 11  2  0
 34 21  1  0
 18 13  1  0
 32 28  1  0
  1 37  1  0
  1 38  1  0
  1 39  1  0
  3 40  1  0
  3 41  1  0
  3 42  1  0
  4 43  1  0
  4 44  1  0
  5 45  1  0
  5 46  1  0
  8 47  1  0
  9 48  1  0
 14 49  1  0
 15 50  1  0
 16 51  1  0
 17 52  1  0
 20 53  1  0
 20 54  1  0
 22 55  1  0
 23 56  1  0
 26 57  1  0
 26 58  1  0
 27 59  1  0
 27 60  1  0
 29 61  1  0
 29 62  1  0
 30 63  1  0
 30 64  1  0
 31 65  1  0
 31 66  1  0
 32 67  1  0
 32 68  1  0
 33 69  1  0
 34 70  1  0
 35 71  1  0
 36 72  1  0
M  END
>  <UniqueID>  (14) 
13

>  <SMILES>  (14) 
CN(C)CCOc1ccc(-c2sc3ccccc3c2Cc2ccc(OCCN3CCCC3)cc2)cc1

>  <Energy>  (14) 
118.3393773920501

>  <Genealogy>  (14) 
CN(C)CCOc1ccc(-c2sc3ccccc3c2Cc2ccc(OCCN3CCCC3)cc2)cc1 (3D coordinates assigned)
CN(C)CCOc1ccc(-c2sc3ccccc3c2Cc2ccc(OCCN3CCCC3)cc2)cc1 (nonaromatic ring conformer: 118.3393773920501 kcal/mol)

>  <smiles>  (14) 
CN(C)CCOc1ccc(-c2sc3ccccc3c2Cc2ccc(OCCN3CCCC3)cc2)cc1

>  <score_type>  (14) 
oracle

>  <origin>  (14) 
adg

>  <m_score__min__energy>  (14) 
-9.5199999999999996

>  <m_primary>  (14) 
energy

$$$$
14:0
     RDKit          3D

 49 51  0  0  0  0  0  0  0  0999 V2000
   59.6380   35.3340   46.7860 C   0  0  0  0  0  0  0  0  0  0  0  0
   59.1730   34.6160   45.5290 C   0  0  0  0  0  0  0  0  0  0  0  0
   58.1520   33.6990   45.8660 O   0  0  0  0  0  0  0  0  0  0  0  0
   57.3970   33.3560   44.7200 C   0  0  0  0  0  0  0  0  0  0  0  0
   57.5230   31.8570   44.4300 C   0  0  0  0  0  0  0  0  0  0  0  0
   57.4140   31.1090   45.6270 O   0  0  0  0  0  0  0  0  0  0  0  0
   58.5030   30.2160   45.7710 C   0  0  0  0  0  0  0  0  0  0  0  0
   59.1660   30.3960   47.1420 C   0  0  0  0  0  0  0  0  0  0  0  0
   58.9950   31.7640   47.6330 N   0  0  0  0  0  0  0  0  0  0  0  0
   59.8260   32.3060   48.6760 C   0  0  0  0  0  0  0  0  0  0  0  0
   61.1310   32.7370   48.3800 C   0  0  0  0  0  0  0  0  0  0  0  0
   61.6620   32.5860   47.0810 C   0  0  0  0  0  0  0  0  0  0  0  0
   62.9210   33.0870   46.7640 C   0  0  0  0  0  0  0  0  0  0  0  0
   63.6660   33.7550   47.7270 C   0  0  0  0  0  0  0  0  0  0  0  0
   63.1720   33.8990   49.0220 C   0  0  0  0  0  0  0  0  0  0  0  0
   61.9120   33.3600   49.3910 C   0  0  0  0  0  0  0  0  0  0  0  0
   61.4310   33.4520   50.6840 N   0  0  0  0  0  0  0  0  0  0  0  0
   62.3390   33.8470   51.7830 C   0  0  0  0  0  0  0  0  0  0  0  0
   60.1120   33.1330   50.9570 C   0  0  0  0  0  0  0  0  0  0  0  0
   59.5150   33.4350   52.2080 C   0  0  0  0  0  0  0  0  0  0  0  0
   58.2140   33.0280   52.5020 C   0  0  0  0  0  0  0  0  0  0  0  0
   57.4760   32.3170   51.5640 C   0  0  0  0  0  0  0  0  0  0  0  0
   58.0160   32.0510   50.3080 C   0  0  0  0  0  0  0  0  0  0  0  0
   59.3120   32.4970   49.9710 C   0  0  0  0  0  0  0  0  0  0  0  0
   59.2841   34.7875   47.6726 H   0  0  0  0  0  0  0  0  0  0  0  0
   60.7370   35.3788   46.7974 H   0  0  0  0  0  0  0  0  0  0  0  0
   59.2293   36.3552   46.7974 H   0  0  0  0  0  0  0  0  0  0  0  0
   58.7840   35.3507   44.8087 H   0  0  0  0  0  0  0  0  0  0  0  0
   60.0190   34.0765   45.0783 H   0  0  0  0  0  0  0  0  0  0  0  0
   56.3397   33.6044   44.8942 H   0  0  0  0  0  0  0  0  0  0  0  0
   57.7793   33.9210   43.8571 H   0  0  0  0  0  0  0  0  0  0  0  0
   56.7224   31.5535   43.7394 H   0  0  0  0  0  0  0  0  0  0  0  0
   58.5072   31.6638   43.9784 H   0  0  0  0  0  0  0  0  0  0  0  0
   58.1385   29.1823   45.6778 H   0  0  0  0  0  0  0  0  0  0  0  0
   59.2440   30.4284   44.9863 H   0  0  0  0  0  0  0  0  0  0  0  0
   58.7077   29.6973   47.8574 H   0  0  0  0  0  0  0  0  0  0  0  0
   60.2422   30.1929   47.0396 H   0  0  0  0  0  0  0  0  0  0  0  0
   58.1810   32.3260   47.2950 H   0  0  0  0  0  0  0  0  0  0  0  0
   61.0739   32.0663   46.3103 H   0  0  0  0  0  0  0  0  0  0  0  0
   63.3263   32.9538   45.7501 H   0  0  0  0  0  0  0  0  0  0  0  0
   64.6500   34.1721   47.4665 H   0  0  0  0  0  0  0  0  0  0  0  0
   63.7689   34.4398   49.7712 H   0  0  0  0  0  0  0  0  0  0  0  0
   61.8575   33.6376   52.7496 H   0  0  0  0  0  0  0  0  0  0  0  0
   63.2756   33.2750   51.7083 H   0  0  0  0  0  0  0  0  0  0  0  0
   62.5590   34.9222   51.7083 H   0  0  0  0  0  0  0  0  0  0  0  0
   60.0878   33.9995   52.9585 H   0  0  0  0  0  0  0  0  0  0  0  0
   57.7710   33.2706   53.4792 H   0  0  0  0  0  0  0  0  0  0  0  0
   56.4645   31.9639   51.8134 H   0  0  0  0  0  0  0  0  0  0  0  0
   57.4259   31.4871   49.5706 H   0  0  0  0  0  0  0  0  0  0  0  0
  1  2  1  0
  2  3  1  0
  3  4  1  0
  4  5  1  0
  5  6  1  0
  6  7  1  0
  7  8  1  0
  8  9  1  0
  9 10  1  0
 10 11  2  0
 11 12  1  0
 12 13  2  0
 13 14  1  0
 14 15  2  0
 15 16  1  0
 16 17  2  0
 17 18  1  0
 17 19  1  0
 19 20  2  0
 20 21  1  0
 21 22  2  0
 22 23  1  0
 23 24  2  0
 24 10  1  0
 16 11  1  0
 24 19  1  0
  1 25  1  0
  1 26  1  0
  1 27  1  0
  2 28  1  0
  2 29  1  0
  4 30  1  0
  4 31  1  0
  5 32  1  0
  5 33  1  0
  7 34  1  0
  7 35  1  0
  8 36  1  0
  8 37  1  0
  9 38  1  0
 12 39  1  0
 13 40  1  0
 14 41  1  0
 15 42  1  0
 18 43  1  0
 18 44  1  0
 18 45  1  0
 20 46  1  0
 21 47  1  0
 22 48  1  0
 23 49  1  0
M  CHG  1  17   1
M  END
>  <UniqueID>  (15) 
14

>  <SMILES>  (15) 
CCOCCOCCNc1c2ccccc2[n+](C)c2ccccc12

>  <Energy>  (15) 
74.92529156799262

>  <Genealogy>  (15) 
CCOCCOCCNc1c2ccccc2[n+](C)c2ccccc12 (3D coordinates assigned)
CCOCCOCCNc1c2ccccc2[n+](C)c2ccccc12 (optimized conformer: 74.92529156799262 kcal/mol)

>  <smiles>  (15) 
CCOCCOCCNc1c2ccccc2[n+](C)c2ccccc12

>  <score_type>  (15) 
oracle

>  <origin>  (15) 
adg

>  <m_score__min__energy>  (15) 
-5.9699999999999998

>  <m_primary>  (15) 
energy

$$$$
15:0
     RDKit          3D

 36 36  0  0  0  0  0  0  0  0999 V2000
   57.8075   34.3698   43.8237 H   0  0  0  0  0  0  0  0  0  0  0  0
   58.0390   34.1580   44.8780 C   0  0  0  0  0  0  0  0  0  0  0  0
   57.1550   33.4630   45.6410 N   0  0  0  0  0  0  0  0  0  0  0  0
   57.4070   33.1750   46.9460 C   0  0  0  0  0  0  0  0  0  0  0  0
   56.6679   32.6135   47.5363 H   0  0  0  0  0  0  0  0  0  0  0  0
   58.6100   33.5930   47.5430 C   0  0  0  0  0  0  0  0  0  0  0  0
   58.9070   33.3200   48.9240 N   0  0  0  0  0  0  0  0  0  0  0  0
   59.1890   34.1120   49.5430 H   0  0  0  0  0  0  0  0  0  0  0  0
   58.6690   32.0500   49.5460 C   0  0  0  0  0  0  0  0  0  0  0  0
   59.3930   31.0090   49.2490 N   0  0  0  0  0  0  0  0  0  0  0  0
   60.5730   31.0230   48.3890 C   0  0  0  0  0  0  0  0  0  0  0  0
   61.3404   30.3581   48.8121 H   0  0  0  0  0  0  0  0  0  0  0  0
   60.9633   32.0496   48.3267 H   0  0  0  0  0  0  0  0  0  0  0  0
   60.2020   30.5410   46.9890 C   0  0  0  0  0  0  0  0  0  0  0  0
   60.6221   29.5373   46.8273 H   0  0  0  0  0  0  0  0  0  0  0  0
   60.6108   31.2437   46.2480 H   0  0  0  0  0  0  0  0  0  0  0  0
   58.7920   30.4870   46.8460 O   0  0  0  0  0  0  0  0  0  0  0  0
   58.4120   30.2570   45.5020 C   0  0  0  0  0  0  0  0  0  0  0  0
   59.2821   29.8898   44.9380 H   0  0  0  0  0  0  0  0  0  0  0  0
   58.0491   31.2010   45.0694 H   0  0  0  0  0  0  0  0  0  0  0  0
   57.2910   29.2180   45.4300 C   0  0  0  0  0  0  0  0  0  0  0  0
   57.0938   28.8264   46.4388 H   0  0  0  0  0  0  0  0  0  0  0  0
   57.6027   28.4007   44.7630 H   0  0  0  0  0  0  0  0  0  0  0  0
   56.1100   29.8050   44.9180 O   0  0  0  0  0  0  0  0  0  0  0  0
   56.3670   30.4260   43.6770 C   0  0  0  0  0  0  0  0  0  0  0  0
   56.7825   31.4300   43.8485 H   0  0  0  0  0  0  0  0  0  0  0  0
   57.0893   29.8226   43.1076 H   0  0  0  0  0  0  0  0  0  0  0  0
   55.4295   30.5095   43.1076 H   0  0  0  0  0  0  0  0  0  0  0  0
   57.6620   31.9530   50.5600 N   0  0  0  0  0  0  0  0  0  0  0  0
   57.1040   32.7990   50.8120 H   0  0  0  0  0  0  0  0  0  0  0  0
   57.3860   30.7440   51.2170 C   0  0  0  0  0  0  0  0  0  0  0  0
   57.1590   29.7460   51.7580 N   0  0  0  0  0  0  0  0  0  0  0  0
   59.5230   34.3220   46.7690 C   0  0  0  0  0  0  0  0  0  0  0  0
   60.4644   34.6735   47.2165 H   0  0  0  0  0  0  0  0  0  0  0  0
   59.2400   34.6030   45.4310 C   0  0  0  0  0  0  0  0  0  0  0  0
   59.9570   35.1697   44.8188 H   0  0  0  0  0  0  0  0  0  0  0  0
  1  2  1  0
  2  3  2  0
  3  4  1  0
  4  5  1  0
  4  6  2  0
  6  7  1  0
  7  8  1  0
  7  9  1  0
  9 10  2  0
 10 11  1  0
 11 12  1  0
 11 13  1  0
 11 14  1  0
 14 15  1  0
 14 16  1  0
 14 17  1  0
 17 18  1  0
 18 19  1  0
 18 20  1  0
 18 21  1  0
 21 22  1  0
 21 23  1  0
 21 24  1  0
 24 25  1  0
 25 26  1  0
 25 27  1  0
 25 28  1  0
  9 29  1  0
 29 30  1  0
 29 31  1  0
 31 32  3  0
  6 33  1  0
 33 34  1  0
 33 35  2  0
 35 36  1  0
 35  2  1  0
M  END
>  <UniqueID>  (16) 
15

>  <SMILES>  (16) 
COCCOCC/N=C(/NC#N)Nc1cccnc1

>  <Energy>  (16) 
40.076057122935104

>  <Genealogy>  (16) 
COCCOCC/N=C(/NC#N)Nc1cccnc1 (cis-trans isomerization)
COCCOCC/N=C(/NC#N)Nc1cccnc1 (3D coordinates assigned)
COCCOCC/N=C(/NC#N)Nc1cccnc1 (optimized conformer: 40.076057122935104 kcal/mol)

>  <smiles>  (16) 
COCCOCCN=C(NC#N)Nc1cccnc1

>  <score_type>  (16) 
oracle

>  <origin>  (16) 
adg

>  <m_score__min__energy>  (16) 
-5.6799999999999997

>  <m_primary>  (16) 
energy

$$$$
16:0
     RDKit          3D

 47 49  0  0  0  0  0  0  0  0999 V2000
   55.8980   29.9610   43.7820 C   0  0  0  0  0  0  0  0  0  0  0  0
   57.3100   30.4560   44.0760 C   0  0  0  0  0  0  0  0  0  0  0  0
   57.3430   31.1940   45.3010 O   0  0  0  0  0  0  0  0  0  0  0  0
   58.1300   32.3300   45.5500 C   0  0  0  0  0  0  0  0  0  0  0  0
   57.9170   33.4670   44.7550 C   0  0  0  0  0  0  0  0  0  0  0  0
   58.6540   34.6360   44.9700 C   0  0  0  0  0  0  0  0  0  0  0  0
   59.6200   34.6760   45.9800 C   0  0  0  0  0  0  0  0  0  0  0  0
   59.8690   33.5380   46.7730 C   0  0  0  0  0  0  0  0  0  0  0  0
   60.9020   33.5810   47.8340 C   0  0  0  0  0  0  0  0  0  0  0  0
   62.2740   33.7090   47.6620 C   0  0  0  0  0  0  0  0  0  0  0  0
   63.0160   33.8470   46.3670 C   0  0  0  0  0  0  0  0  0  0  0  0
   62.8760   33.7140   48.8730 N   0  0  0  0  0  0  0  0  0  0  0  0
   61.8770   33.5580   49.7700 C   0  0  0  0  0  0  0  0  0  0  0  0
   61.9800   33.4880   51.1790 C   0  0  0  0  0  0  0  0  0  0  0  0
   63.2180   33.4210   51.9190 N   0  0  0  0  0  0  0  0  0  0  0  0
   64.5010   34.0270   51.5430 C   0  0  0  0  0  0  0  0  0  0  0  0
   65.6950   33.0720   51.7470 C   0  0  0  0  0  0  0  0  0  0  0  0
   66.2720   32.5260   50.4320 C   0  0  0  0  0  0  0  0  0  0  0  0
   67.4710   33.1650   50.1710 F   0  0  0  0  0  0  0  0  0  0  0  0
   66.5030   31.1600   50.5360 F   0  0  0  0  0  0  0  0  0  0  0  0
   65.4090   32.7670   49.3740 F   0  0  0  0  0  0  0  0  0  0  0  0
   60.7700   33.4410   51.9050 C   0  0  0  0  0  0  0  0  0  0  0  0
   59.5320   33.4150   51.2470 C   0  0  0  0  0  0  0  0  0  0  0  0
   59.4940   33.4390   49.8490 C   0  0  0  0  0  0  0  0  0  0  0  0
   60.6720   33.5010   49.1650 N   0  0  0  0  0  0  0  0  0  0  0  0
   59.1190   32.3700   46.5550 C   0  0  0  0  0  0  0  0  0  0  0  0
   55.3698   29.7758   44.7289 H   0  0  0  0  0  0  0  0  0  0  0  0
   55.3557   30.7226   43.2025 H   0  0  0  0  0  0  0  0  0  0  0  0
   55.9499   29.0275   43.2025 H   0  0  0  0  0  0  0  0  0  0  0  0
   57.9859   29.5919   44.1568 H   0  0  0  0  0  0  0  0  0  0  0  0
   57.6306   31.1165   43.2569 H   0  0  0  0  0  0  0  0  0  0  0  0
   57.1628   33.4383   43.9548 H   0  0  0  0  0  0  0  0  0  0  0  0
   58.4738   35.5231   44.3451 H   0  0  0  0  0  0  0  0  0  0  0  0
   60.1888   35.6008   46.1566 H   0  0  0  0  0  0  0  0  0  0  0  0
   64.0784   34.0446   46.5724 H   0  0  0  0  0  0  0  0  0  0  0  0
   62.9213   32.9158   45.7891 H   0  0  0  0  0  0  0  0  0  0  0  0
   62.5928   34.6818   45.7891 H   0  0  0  0  0  0  0  0  0  0  0  0
   63.8940   33.8510   49.0370 H   0  0  0  0  0  0  0  0  0  0  0  0
   63.2680   32.7190   52.6920 H   0  0  0  0  0  0  0  0  0  0  0  0
   64.4571   34.3132   50.4818 H   0  0  0  0  0  0  0  0  0  0  0  0
   64.6591   34.8992   52.1943 H   0  0  0  0  0  0  0  0  0  0  0  0
   66.4903   33.6166   52.2771 H   0  0  0  0  0  0  0  0  0  0  0  0
   65.3263   32.2099   52.3222 H   0  0  0  0  0  0  0  0  0  0  0  0
   60.7989   33.4245   53.0045 H   0  0  0  0  0  0  0  0  0  0  0  0
   58.5975   33.3760   51.8260 H   0  0  0  0  0  0  0  0  0  0  0  0
   58.5341   33.4085   49.3127 H   0  0  0  0  0  0  0  0  0  0  0  0
   59.3046   31.4793   47.1732 H   0  0  0  0  0  0  0  0  0  0  0  0
  1  2  1  0
  2  3  1  0
  3  4  1  0
  4  5  2  0
  5  6  1  0
  6  7  2  0
  7  8  1  0
  8  9  1  0
  9 10  2  0
 10 11  1  0
 10 12  1  0
 12 13  2  0
 13 14  1  0
 14 15  1  0
 15 16  1  0
 16 17  1  0
 17 18  1  0
 18 19  1  0
 18 20  1  0
 18 21  1  0
 14 22  2  0
 22 23  1  0
 23 24  2  0
 24 25  1  0
  8 26  2  0
 26  4  1  0
 25  9  1  0
 25 13  1  0
  1 27  1  0
  1 28  1  0
  1 29  1  0
  2 30  1  0
  2 31  1  0
  5 32  1  0
  6 33  1  0
  7 34  1  0
 11 35  1  0
 11 36  1  0
 11 37  1  0
 12 38  1  0
 15 39  1  0
 16 40  1  0
 16 41  1  0
 17 42  1  0
 17 43  1  0
 22 44  1  0
 23 45  1  0
 24 46  1  0
 26 47  1  0
M  CHG  1  12   1
M  END
>  <UniqueID>  (17) 
16

>  <SMILES>  (17) 
CCOc1cccc(-c2c(C)[nH+]c3c(NCCC(F)(F)F)cccn23)c1

>  <Energy>  (17) 
89.23060105263728

>  <Genealogy>  (17) 
CCOc1cccc(-c2c(C)[nH+]c3c(NCCC(F)(F)F)cccn23)c1 (protonated)
CCOc1cccc(-c2c(C)[nH+]c3c(NCCC(F)(F)F)cccn23)c1 (3D coordinates assigned)
CCOc1cccc(-c2c(C)[nH+]c3c(NCCC(F)(F)F)cccn23)c1 (optimized conformer: 89.23060105263728 kcal/mol)

>  <smiles>  (17) 
CCOc1cccc(-c2c(C)nc3c(NCCC(F)(F)F)cccn23)c1

>  <score_type>  (17) 
oracle

>  <origin>  (17) 
adg

>  <m_score__min__energy>  (17) 
-5.6699999999999999

>  <m_primary>  (17) 
energy

$$$$
17:0
     RDKit          3D

 43 44  0  0  0  0  0  0  0  0999 V2000
   63.7430   33.2930   47.3740 C   0  0  0  0  0  0  0  0  0  0  0  0
   62.2550   33.4310   47.0530 C   0  0  0  0  0  0  0  0  0  0  0  0
   61.3570   33.1070   48.2560 C   0  0  0  0  0  0  0  0  0  0  0  0
   60.5200   31.8400   48.0400 C   0  0  0  0  0  0  0  0  0  0  0  0
   61.3410   30.7140   46.8590 S   0  0  0  0  0  0  0  0  0  0  0  0
   59.8390   29.8280   46.4290 C   0  0  0  0  0  0  0  0  0  0  0  0
   59.6200   28.5450   46.8160 N   0  0  0  0  0  0  0  0  0  0  0  0
   58.3950   28.2900   46.3160 C   0  0  0  0  0  0  0  0  0  0  0  0
   57.9020   29.3770   45.6680 C   0  0  0  0  0  0  0  0  0  0  0  0
   56.6240   29.3380   45.1200 C   0  0  0  0  0  0  0  0  0  0  0  0
   56.1230   30.3270   44.5220 O   0  0  0  0  0  0  0  0  0  0  0  0
   55.9090   28.1860   45.2550 N   0  0  0  0  0  0  0  0  0  0  0  0
   56.4210   27.0940   45.9060 C   0  0  0  0  0  0  0  0  0  0  0  0
   55.7090   26.0590   46.0140 O   0  0  0  0  0  0  0  0  0  0  0  0
   57.6910   27.1290   46.4380 N   0  0  0  0  0  0  0  0  0  0  0  0
   58.2400   25.9870   47.1810 C   0  0  0  0  0  0  0  0  0  0  0  0
   58.8130   30.3680   45.7160 N   0  0  0  0  0  0  0  0  0  0  0  0
   58.6950   31.7430   45.2250 C   0  0  0  0  0  0  0  0  0  0  0  0
   57.7540   32.5480   46.1240 C   0  0  0  0  0  0  0  0  0  0  0  0
   57.4690   33.8050   45.5380 O   0  0  0  0  0  0  0  0  0  0  0  0
   58.6240   34.3680   44.9400 C   0  0  0  0  0  0  0  0  0  0  0  0
   59.5040   35.0220   46.0000 C   0  0  0  0  0  0  0  0  0  0  0  0
   63.8831   33.2800   48.4650 H   0  0  0  0  0  0  0  0  0  0  0  0
   64.1255   32.3555   46.9440 H   0  0  0  0  0  0  0  0  0  0  0  0
   64.2913   34.1441   46.9440 H   0  0  0  0  0  0  0  0  0  0  0  0
   62.0580   34.4655   46.7352 H   0  0  0  0  0  0  0  0  0  0  0  0
   62.0182   32.7091   46.2575 H   0  0  0  0  0  0  0  0  0  0  0  0
   61.9927   32.9630   49.1421 H   0  0  0  0  0  0  0  0  0  0  0  0
   60.6612   33.9484   48.3898 H   0  0  0  0  0  0  0  0  0  0  0  0
   60.3932   31.3230   49.0026 H   0  0  0  0  0  0  0  0  0  0  0  0
   59.5415   32.1295   47.6292 H   0  0  0  0  0  0  0  0  0  0  0  0
   58.1498   26.1747   48.2611 H   0  0  0  0  0  0  0  0  0  0  0  0
   57.6812   25.0764   46.9192 H   0  0  0  0  0  0  0  0  0  0  0  0
   59.3002   25.8547   46.9192 H   0  0  0  0  0  0  0  0  0  0  0  0
   59.6886   32.2149   45.2245 H   0  0  0  0  0  0  0  0  0  0  0  0
   58.2865   31.7249   44.2038 H   0  0  0  0  0  0  0  0  0  0  0  0
   56.8159   31.9898   46.2593 H   0  0  0  0  0  0  0  0  0  0  0  0
   58.2406   32.7094   47.0972 H   0  0  0  0  0  0  0  0  0  0  0  0
   59.1940   33.5747   44.4343 H   0  0  0  0  0  0  0  0  0  0  0  0
   58.3135   35.1319   44.2119 H   0  0  0  0  0  0  0  0  0  0  0  0
   59.1370   34.7493   47.0005 H   0  0  0  0  0  0  0  0  0  0  0  0
   60.5406   34.6734   45.8821 H   0  0  0  0  0  0  0  0  0  0  0  0
   59.4691   36.1151   45.8821 H   0  0  0  0  0  0  0  0  0  0  0  0
  1  2  1  0
  2  3  1  0
  3  4  1  0
  4  5  1  0
  5  6  1  0
  6  7  2  0
  7  8  1  0
  8  9  2  0
  9 10  1  0
 10 11  2  0
 10 12  1  0
 12 13  1  0
 13 14  2  0
 13 15  1  0
 15 16  1  0
  9 17  1  0
 17 18  1  0
 18 19  1  0
 19 20  1  0
 20 21  1  0
 21 22  1  0
 17  6  1  0
 15  8  1  0
  1 23  1  0
  1 24  1  0
  1 25  1  0
  2 26  1  0
  2 27  1  0
  3 28  1  0
  3 29  1  0
  4 30  1  0
  4 31  1  0
 16 32  1  0
 16 33  1  0
 16 34  1  0
 18 35  1  0
 18 36  1  0
 19 37  1  0
 19 38  1  0
 21 39  1  0
 21 40  1  0
 22 41  1  0
 22 42  1  0
 22 43  1  0
M  CHG  1  12  -1
M  END
>  <UniqueID>  (18) 
17

>  <SMILES>  (18) 
CCCCSc1nc2c(c(=O)[n-]c(=O)n2C)n1CCOCC

>  <Energy>  (18) 
73.07585667988594

>  <Genealogy>  (18) 
CCCCSc1nc2c(c(=O)[n-]c(=O)n2C)n1CCOCC (protonated)
CCCCSc1nc2c(c(=O)[n-]c(=O)n2C)n1CCOCC (3D coordinates assigned)
CCCCSc1nc2c(c(=O)[n-]c(=O)n2C)n1CCOCC (optimized conformer: 73.07585667988594 kcal/mol)

>  <smiles>  (18) 
CCCCSc1nc2c(c(=O)[nH]c(=O)n2C)n1CCOCC

>  <score_type>  (18) 
oracle

>  <origin>  (18) 
adg

>  <m_score__min__energy>  (18) 
-8.1099999999999994

>  <m_primary>  (18) 
energy

$$$$
18:0
     RDKit          3D

 38 40  0  0  0  0  0  0  0  0999 V2000
   55.9510   29.6940   43.9390 C   0  0  0  0  0  0  0  0  0  0  0  0
   55.9370   29.0250   45.2440 N   0  0  0  0  0  0  0  0  0  0  0  0
   57.1960   28.3060   45.5140 C   0  0  0  0  0  0  0  0  0  0  0  0
   58.4310   29.2200   45.4540 C   0  0  0  0  0  0  0  0  0  0  0  0
   58.3470   30.2770   46.4620 N   0  0  0  0  0  0  0  0  0  0  0  0
   58.6720   31.6460   46.1670 C   0  0  0  0  0  0  0  0  0  0  0  0
   57.7670   32.4240   45.4270 C   0  0  0  0  0  0  0  0  0  0  0  0
   58.0230   33.7710   45.1730 C   0  0  0  0  0  0  0  0  0  0  0  0
   59.1840   34.3670   45.6600 C   0  0  0  0  0  0  0  0  0  0  0  0
   60.1070   33.6150   46.4000 C   0  0  0  0  0  0  0  0  0  0  0  0
   61.2750   34.2140   46.8800 C   0  0  0  0  0  0  0  0  0  0  0  0
   62.2030   33.4530   47.6010 C   0  0  0  0  0  0  0  0  0  0  0  0
   63.3740   34.0580   48.0800 C   0  0  0  0  0  0  0  0  0  0  0  0
   64.3000   33.2960   48.7910 C   0  0  0  0  0  0  0  0  0  0  0  0
   64.0560   31.9440   49.0160 C   0  0  0  0  0  0  0  0  0  0  0  0
   62.8830   31.3660   48.5270 C   0  0  0  0  0  0  0  0  0  0  0  0
   61.9710   32.1150   47.8310 N   0  0  0  0  0  0  0  0  0  0  0  0
   60.8320   31.5140   47.3690 C   0  0  0  0  0  0  0  0  0  0  0  0
   59.8620   32.2460   46.6560 C   0  0  0  0  0  0  0  0  0  0  0  0
   55.9738   30.7839   44.0859 H   0  0  0  0  0  0  0  0  0  0  0  0
   56.8428   29.3812   43.3761 H   0  0  0  0  0  0  0  0  0  0  0  0
   55.0469   29.4187   43.3761 H   0  0  0  0  0  0  0  0  0  0  0  0
   55.1550   28.3310   45.2400 H   0  0  0  0  0  0  0  0  0  0  0  0
   55.7390   29.7260   45.9950 H   0  0  0  0  0  0  0  0  0  0  0  0
   57.1375   27.8604   46.5180 H   0  0  0  0  0  0  0  0  0  0  0  0
   57.3133   27.5404   44.7329 H   0  0  0  0  0  0  0  0  0  0  0  0
   59.3336   28.6185   45.6371 H   0  0  0  0  0  0  0  0  0  0  0  0
   58.4756   29.6860   44.4586 H   0  0  0  0  0  0  0  0  0  0  0  0
   58.2030   29.9900   47.4560 H   0  0  0  0  0  0  0  0  0  0  0  0
   56.8442   31.9649   45.0427 H   0  0  0  0  0  0  0  0  0  0  0  0
   57.3062   34.3645   44.5865 H   0  0  0  0  0  0  0  0  0  0  0  0
   59.3773   35.4318   45.4631 H   0  0  0  0  0  0  0  0  0  0  0  0
   61.4647   35.2810   46.6917 H   0  0  0  0  0  0  0  0  0  0  0  0
   63.5606   35.1263   47.8960 H   0  0  0  0  0  0  0  0  0  0  0  0
   65.2205   33.7616   49.1730 H   0  0  0  0  0  0  0  0  0  0  0  0
   64.7821   31.3355   49.5750 H   0  0  0  0  0  0  0  0  0  0  0  0
   62.6889   30.2976   48.7024 H   0  0  0  0  0  0  0  0  0  0  0  0
   60.6710   30.4422   47.5572 H   0  0  0  0  0  0  0  0  0  0  0  0
  1  2  1  0
  2  3  1  0
  3  4  1  0
  4  5  1  0
  5  6  1  0
  6  7  2  0
  7  8  1  0
  8  9  2  0
  9 10  1  0
 10 11  2  0
 11 12  1  0
 12 13  2  0
 13 14  1  0
 14 15  2  0
 15 16  1  0
 16 17  2  0
 17 18  1  0
 18 19  2  0
 19  6  1  0
 19 10  1  0
 17 12  1  0
  1 20  1  0
  1 21  1  0
  1 22  1  0
  2 23  1  0
  2 24  1  0
  3 25  1  0
  3 26  1  0
  4 27  1  0
  4 28  1  0
  5 29  1  0
  7 30  1  0
  8 31  1  0
  9 32  1  0
 11 33  1  0
 13 34  1  0
 14 35  1  0
 15 36  1  0
 16 37  1  0
 18 38  1  0
M  CHG  2   2   1  17   1
M  END
>  <UniqueID>  (19) 
18

>  <SMILES>  (19) 
C[NH2+]CCNc1cccc2cc3cccc[n+]3cc12

>  <Energy>  (19) 
49.84152250820166

>  <Genealogy>  (19) 
C[NH2+]CCNc1cccc2cc3cccc[n+]3cc12 (protonated)
C[NH2+]CCNc1cccc2cc3cccc[n+]3cc12 (3D coordinates assigned)
C[NH2+]CCNc1cccc2cc3cccc[n+]3cc12 (optimized conformer: 49.84152250820166 kcal/mol)

>  <smiles>  (19) 
CNCCNc1cccc2cc3cccc[n+]3cc12

>  <score_type>  (19) 
oracle

>  <origin>  (19) 
adg

>  <m_score__min__energy>  (19) 
-4.4699999999999998

>  <m_primary>  (19) 
energy

$$$$
19:0
     RDKit          3D

 46 48  0  0  0  0  0  0  0  0999 V2000
   57.3760   31.6160   42.2890 C   0  0  0  0  0  0  0  0  0  0  0  0
   56.7870   30.5500   43.2080 C   0  0  0  0  0  0  0  0  0  0  0  0
   56.7940   30.9920   44.5650 O   0  0  0  0  0  0  0  0  0  0  0  0
   57.7690   30.6760   45.5300 C   0  0  0  0  0  0  0  0  0  0  0  0
   58.3960   29.4150   45.5780 C   0  0  0  0  0  0  0  0  0  0  0  0
   59.3690   29.1440   46.5430 C   0  0  0  0  0  0  0  0  0  0  0  0
   59.7300   30.1240   47.4680 C   0  0  0  0  0  0  0  0  0  0  0  0
   59.1140   31.3760   47.4360 C   0  0  0  0  0  0  0  0  0  0  0  0
   58.1230   31.6570   46.4810 C   0  0  0  0  0  0  0  0  0  0  0  0
   57.4940   33.0240   46.4380 C   0  0  0  0  0  0  0  0  0  0  0  0
   57.8140   33.6660   45.1560 N   0  0  0  0  0  0  0  0  0  0  0  0
   59.2500   33.9540   45.0100 C   0  0  0  0  0  0  0  0  0  0  0  0
   59.7440   35.0180   46.0120 C   0  0  0  0  0  0  0  0  0  0  0  0
   60.1580   34.5030   47.3890 C   0  0  0  0  0  0  0  0  0  0  0  0
   59.2720   34.5510   48.4890 C   0  0  0  0  0  0  0  0  0  0  0  0
   59.6570   34.0840   49.7450 C   0  0  0  0  0  0  0  0  0  0  0  0
   60.9260   33.5490   49.9400 C   0  0  0  0  0  0  0  0  0  0  0  0
   61.8270   33.4660   48.8730 C   0  0  0  0  0  0  0  0  0  0  0  0
   63.1010   32.9140   49.0800 C   0  0  0  0  0  0  0  0  0  0  0  0
   64.0070   32.8200   48.0250 C   0  0  0  0  0  0  0  0  0  0  0  0
   63.6520   33.2710   46.7560 C   0  0  0  0  0  0  0  0  0  0  0  0
   62.3880   33.8230   46.5300 C   0  0  0  0  0  0  0  0  0  0  0  0
   61.4520   33.9380   47.5830 C   0  0  0  0  0  0  0  0  0  0  0  0
   57.8197   32.4189   42.8960 H   0  0  0  0  0  0  0  0  0  0  0  0
   58.1526   31.1644   41.6542 H   0  0  0  0  0  0  0  0  0  0  0  0
   56.5804   32.0332   41.6542 H   0  0  0  0  0  0  0  0  0  0  0  0
   55.7512   30.3418   42.9017 H   0  0  0  0  0  0  0  0  0  0  0  0
   57.3992   29.6394   43.1302 H   0  0  0  0  0  0  0  0  0  0  0  0
   58.1173   28.6385   44.8504 H   0  0  0  0  0  0  0  0  0  0  0  0
   59.8515   28.1559   46.5736 H   0  0  0  0  0  0  0  0  0  0  0  0
   60.5007   29.9098   48.2231 H   0  0  0  0  0  0  0  0  0  0  0  0
   59.4064   32.1477   48.1633 H   0  0  0  0  0  0  0  0  0  0  0  0
   56.4027   32.9296   46.5393 H   0  0  0  0  0  0  0  0  0  0  0  0
   57.8855   33.6357   47.2641 H   0  0  0  0  0  0  0  0  0  0  0  0
   57.4990   33.0450   44.3750 H   0  0  0  0  0  0  0  0  0  0  0  0
   59.8148   33.0246   45.1753 H   0  0  0  0  0  0  0  0  0  0  0  0
   59.4102   34.3497   43.9962 H   0  0  0  0  0  0  0  0  0  0  0  0
   60.6143   35.5215   45.5658 H   0  0  0  0  0  0  0  0  0  0  0  0
   58.8827   35.6786   46.1902 H   0  0  0  0  0  0  0  0  0  0  0  0
   58.2616   34.9638   48.3519 H   0  0  0  0  0  0  0  0  0  0  0  0
   58.9522   34.1390   50.5877 H   0  0  0  0  0  0  0  0  0  0  0  0
   61.2222   33.1899   50.9367 H   0  0  0  0  0  0  0  0  0  0  0  0
   63.3857   32.5539   50.0797 H   0  0  0  0  0  0  0  0  0  0  0  0
   65.0045   32.3887   48.1950 H   0  0  0  0  0  0  0  0  0  0  0  0
   64.3706   33.1923   45.9268 H   0  0  0  0  0  0  0  0  0  0  0  0
   62.1187   34.1716   45.5221 H   0  0  0  0  0  0  0  0  0  0  0  0
  1  2  1  0
  2  3  1  0
  3  4  1  0
  4  5  2  0
  5  6  1  0
  6  7  2  0
  7  8  1  0
  8  9  2  0
  9 10  1  0
 10 11  1  0
 11 12  1  0
 12 13  1  0
 13 14  1  0
 14 15  2  0
 15 16  1  0
 16 17  2  0
 17 18  1  0
 18 19  2  0
 19 20  1  0
 20 21  2  0
 21 22  1  0
 22 23  2  0
  9  4  1  0
 23 14  1  0
 23 18  1  0
  1 24  1  0
  1 25  1  0
  1 26  1  0
  2 27  1  0
  2 28  1  0
  5 29  1  0
  6 30  1  0
  7 31  1  0
  8 32  1  0
 10 33  1  0
 10 34  1  0
 11 35  1  0
 12 36  1  0
 12 37  1  0
 13 38  1  0
 13 39  1  0
 15 40  1  0
 16 41  1  0
 17 42  1  0
 19 43  1  0
 20 44  1  0
 21 45  1  0
 22 46  1  0
M  END
>  <UniqueID>  (20) 
19

>  <SMILES>  (20) 
CCOc1ccccc1CNCCc1cccc2ccccc12

>  <Energy>  (20) 
54.1386091057192

>  <Genealogy>  (20) 
CCOc1ccccc1CNCCc1cccc2ccccc12 (3D coordinates assigned)
CCOc1ccccc1CNCCc1cccc2ccccc12 (optimized conformer: 54.1386091057192 kcal/mol)

>  <smiles>  (20) 
CCOc1ccccc1CNCCc1cccc2ccccc12

>  <score_type>  (20) 
oracle

>  <origin>  (20) 
adg

>  <m_score__min__energy>  (20) 
-7.9000000000000004

>  <m_primary>  (20) 
energy

$$$$
20:0
     RDKit          3D

 50 51  0  0  0  0  0  0  0  0999 V2000
   65.0210   32.3490   49.9250 C   0  0  0  0  0  0  0  0  0  0  0  0
   64.2780   33.2180   48.9060 C   0  0  0  0  0  0  0  0  0  0  0  0
   62.8990   32.7640   48.6010 N   0  0  0  0  0  0  0  0  0  0  0  0
   62.5270   32.7740   47.1680 C   0  0  0  0  0  0  0  0  0  0  0  0
   63.2950   33.8490   46.4010 C   0  0  0  0  0  0  0  0  0  0  0  0
   61.8610   33.2860   49.5260 C   0  0  0  0  0  0  0  0  0  0  0  0
   60.6880   32.3180   49.7640 C   0  0  0  0  0  0  0  0  0  0  0  0
   59.1560   33.0430   49.2180 S   0  0  0  0  0  0  0  0  0  0  0  0
   57.8190   32.0890   49.5660 O   0  0  0  0  0  0  0  0  0  0  0  0
   59.1760   33.5680   47.5380 C   0  0  0  0  0  0  0  0  0  0  0  0
   59.6540   34.8550   47.2590 C   0  0  0  0  0  0  0  0  0  0  0  0
   59.6040   35.3640   45.9590 C   0  0  0  0  0  0  0  0  0  0  0  0
   59.0550   34.5980   44.9300 C   0  0  0  0  0  0  0  0  0  0  0  0
   58.5710   33.3150   45.1960 C   0  0  0  0  0  0  0  0  0  0  0  0
   58.6560   32.7740   46.4870 C   0  0  0  0  0  0  0  0  0  0  0  0
   58.1490   31.4500   46.7110 N   0  0  0  0  0  0  0  0  0  0  0  0
   58.1110   30.4230   45.7050 C   0  0  0  0  0  0  0  0  0  0  0  0
   57.0290   30.4090   44.8100 C   0  0  0  0  0  0  0  0  0  0  0  0
   56.9150   29.4050   43.8490 C   0  0  0  0  0  0  0  0  0  0  0  0
   57.8900   28.4130   43.7540 C   0  0  0  0  0  0  0  0  0  0  0  0
   58.9970   28.4370   44.6040 C   0  0  0  0  0  0  0  0  0  0  0  0
   59.1360   29.4490   45.5700 C   0  0  0  0  0  0  0  0  0  0  0  0
   60.3660   29.4590   46.4360 C   0  0  0  0  0  0  0  0  0  0  0  0
   64.7505   32.6654   50.9432 H   0  0  0  0  0  0  0  0  0  0  0  0
   64.7405   31.2951   49.7819 H   0  0  0  0  0  0  0  0  0  0  0  0
   66.1057   32.4624   49.7819 H   0  0  0  0  0  0  0  0  0  0  0  0
   64.2227   34.2423   49.3032 H   0  0  0  0  0  0  0  0  0  0  0  0
   64.8447   33.1518   47.9656 H   0  0  0  0  0  0  0  0  0  0  0  0
   62.7559   31.7905   46.7318 H   0  0  0  0  0  0  0  0  0  0  0  0
   61.4521   32.9943   47.0906 H   0  0  0  0  0  0  0  0  0  0  0  0
   63.7820   34.5307   47.1138 H   0  0  0  0  0  0  0  0  0  0  0  0
   64.0588   33.3731   45.7685 H   0  0  0  0  0  0  0  0  0  0  0  0
   62.5972   34.4173   45.7685 H   0  0  0  0  0  0  0  0  0  0  0  0
   62.3365   33.4975   50.4951 H   0  0  0  0  0  0  0  0  0  0  0  0
   61.4393   34.1860   49.0546 H   0  0  0  0  0  0  0  0  0  0  0  0
   60.8675   31.3881   49.2044 H   0  0  0  0  0  0  0  0  0  0  0  0
   60.6160   32.1063   50.8410 H   0  0  0  0  0  0  0  0  0  0  0  0
   57.0880   32.7360   49.7270 H   0  0  0  0  0  0  0  0  0  0  0  0
   60.0720   35.4696   48.0699 H   0  0  0  0  0  0  0  0  0  0  0  0
   59.9975   36.3690   45.7465 H   0  0  0  0  0  0  0  0  0  0  0  0
   59.0034   35.0046   43.9092 H   0  0  0  0  0  0  0  0  0  0  0  0
   58.1192   32.7239   44.3858 H   0  0  0  0  0  0  0  0  0  0  0  0
   57.8620   31.2040   47.6850 H   0  0  0  0  0  0  0  0  0  0  0  0
   56.2641   31.1975   44.8675 H   0  0  0  0  0  0  0  0  0  0  0  0
   56.0540   29.3957   43.1645 H   0  0  0  0  0  0  0  0  0  0  0  0
   57.7868   27.6107   43.0086 H   0  0  0  0  0  0  0  0  0  0  0  0
   59.7677   27.6569   44.5172 H   0  0  0  0  0  0  0  0  0  0  0  0
   60.0688   29.4566   47.4951 H   0  0  0  0  0  0  0  0  0  0  0  0
   60.9716   28.5657   46.2231 H   0  0  0  0  0  0  0  0  0  0  0  0
   60.9570   30.3620   46.2231 H   0  0  0  0  0  0  0  0  0  0  0  0
  1  2  1  0
  2  3  1  0
  3  4  1  0
  4  5  1  0
  3  6  1  0
  6  7  1  0
  7  8  1  0
  8  9  1  6
  8 10  1  0
 10 11  2  0
 11 12  1  0
 12 13  2  0
 13 14  1  0
 14 15  2  0
 15 16  1  0
 16 17  1  0
 17 18  2  0
 18 19  1  0
 19 20  2  0
 20 21  1  0
 21 22  2  0
 22 23  1  0
 15 10  1  0
 22 17  1  0
  1 24  1  0
  1 25  1  0
  1 26  1  0
  2 27  1  0
  2 28  1  0
  4 29  1  0
  4 30  1  0
  5 31  1  0
  5 32  1  0
  5 33  1  0
  6 34  1  0
  6 35  1  0
  7 36  1  0
  7 37  1  0
  9 38  1  0
 11 39  1  0
 12 40  1  0
 13 41  1  0
 14 42  1  0
 16 43  1  0
 18 44  1  0
 19 45  1  0
 20 46  1  0
 21 47  1  0
 23 48  1  0
 23 49  1  0
 23 50  1  0
M  CHG  1   8   1
M  END
>  <UniqueID>  (21) 
20

>  <SMILES>  (21) 
CCN(CC)CC[S@+](O)c1ccccc1Nc1ccccc1C

>  <Energy>  (21) 
58.125265036161196

>  <Genealogy>  (21) 
CCN(CC)CC[S+](O)c1ccccc1Nc1ccccc1C (protonated)
CCN(CC)CC[S@+](O)c1ccccc1Nc1ccccc1C (chirality)
CCN(CC)CC[S@+](O)c1ccccc1Nc1ccccc1C (3D coordinates assigned)
CCN(CC)CC[S@+](O)c1ccccc1Nc1ccccc1C (optimized conformer: 58.125265036161196 kcal/mol)

>  <smiles>  (21) 
CCN(CC)CC[S+]([O-])c1ccccc1Nc1ccccc1C

>  <score_type>  (21) 
oracle

>  <origin>  (21) 
adg

>  <m_score__min__energy>  (21) 
-5.4000000000000004

>  <m_primary>  (21) 
energy

$$$$
21:0
     RDKit          3D

 37 38  0  0  0  0  0  0  0  0999 V2000
   60.4760   32.7560   46.7470 C   0  0  0  0  0  0  0  0  0  0  0  0
   60.5580   34.2250   46.3580 C   0  0  0  0  0  0  0  0  0  0  0  0
   59.2520   34.7420   46.2210 O   0  0  0  0  0  0  0  0  0  0  0  0
   58.3380   34.0140   47.0220 C   0  0  0  0  0  0  0  0  0  0  0  0
   57.1290   33.6110   46.1860 C   0  0  0  0  0  0  0  0  0  0  0  0
   57.4440   32.4650   45.4010 O   0  0  0  0  0  0  0  0  0  0  0  0
   57.8580   32.5550   44.0690 C   0  0  0  0  0  0  0  0  0  0  0  0
   58.5700   33.5210   43.6790 O   0  0  0  0  0  0  0  0  0  0  0  0
   57.4130   31.5180   43.0900 C   0  0  0  0  0  0  0  0  0  0  0  0
   56.8840   30.3230   43.8230 C   0  0  0  0  0  0  0  0  0  0  0  0
   55.5530   30.0470   44.1170 C   0  0  0  0  0  0  0  0  0  0  0  0
   55.4720   28.9650   44.8720 O   0  0  0  0  0  0  0  0  0  0  0  0
   56.6920   28.5370   45.0920 C   0  0  0  0  0  0  0  0  0  0  0  0
   57.0830   27.4390   45.8540 C   0  0  0  0  0  0  0  0  0  0  0  0
   58.4650   27.1680   45.9700 C   0  0  0  0  0  0  0  0  0  0  0  0
   58.9340   26.0220   46.8160 C   0  0  0  0  0  0  0  0  0  0  0  0
   59.4060   28.0210   45.3410 C   0  0  0  0  0  0  0  0  0  0  0  0
   58.9780   29.1200   44.5750 C   0  0  0  0  0  0  0  0  0  0  0  0
   57.6070   29.3440   44.4700 C   0  0  0  0  0  0  0  0  0  0  0  0
   60.4710   32.6667   47.8434 H   0  0  0  0  0  0  0  0  0  0  0  0
   59.5521   32.3198   46.3394 H   0  0  0  0  0  0  0  0  0  0  0  0
   61.3456   32.2197   46.3394 H   0  0  0  0  0  0  0  0  0  0  0  0
   61.0946   34.7832   47.1393 H   0  0  0  0  0  0  0  0  0  0  0  0
   61.0973   34.3254   45.4045 H   0  0  0  0  0  0  0  0  0  0  0  0
   58.8313   33.1108   47.4104 H   0  0  0  0  0  0  0  0  0  0  0  0
   58.0069   34.6441   47.8606 H   0  0  0  0  0  0  0  0  0  0  0  0
   56.2862   33.3762   46.8527 H   0  0  0  0  0  0  0  0  0  0  0  0
   56.8551   34.4426   45.5201 H   0  0  0  0  0  0  0  0  0  0  0  0
   56.6206   31.9349   42.4511 H   0  0  0  0  0  0  0  0  0  0  0  0
   58.2682   31.2140   42.4685 H   0  0  0  0  0  0  0  0  0  0  0  0
   54.6942   30.6415   43.7721 H   0  0  0  0  0  0  0  0  0  0  0  0
   56.3376   26.8010   46.3513 H   0  0  0  0  0  0  0  0  0  0  0  0
   58.8271   26.2833   47.8792 H   0  0  0  0  0  0  0  0  0  0  0  0
   58.3282   25.1309   46.5947 H   0  0  0  0  0  0  0  0  0  0  0  0
   59.9907   25.8112   46.5947 H   0  0  0  0  0  0  0  0  0  0  0  0
   60.4819   27.8214   45.4531 H   0  0  0  0  0  0  0  0  0  0  0  0
   59.7017   29.7808   44.0754 H   0  0  0  0  0  0  0  0  0  0  0  0
  1  2  1  0
  2  3  1  0
  3  4  1  0
  4  5  1  0
  5  6  1  0
  6  7  1  0
  7  8  2  0
  7  9  1  0
  9 10  1  0
 10 11  2  0
 11 12  1  0
 12 13  1  0
 13 14  2  0
 14 15  1  0
 15 16  1  0
 15 17  2  0
 17 18  1  0
 18 19  2  0
 19 10  1  0
 19 13  1  0
  1 20  1  0
  1 21  1  0
  1 22  1  0
  2 23  1  0
  2 24  1  0
  4 25  1  0
  4 26  1  0
  5 27  1  0
  5 28  1  0
  9 29  1  0
  9 30  1  0
 11 31  1  0
 14 32  1  0
 16 33  1  0
 16 34  1  0
 16 35  1  0
 17 36  1  0
 18 37  1  0
M  END
>  <UniqueID>  (22) 
21

>  <SMILES>  (22) 
CCOCCOC(=O)Cc1coc2cc(C)ccc12

>  <Energy>  (22) 
61.57358151744389

>  <Genealogy>  (22) 
CCOCCOC(=O)Cc1coc2cc(C)ccc12 (3D coordinates assigned)
CCOCCOC(=O)Cc1coc2cc(C)ccc12 (optimized conformer: 61.57358151744389 kcal/mol)

>  <smiles>  (22) 
CCOCCOC(=O)Cc1coc2cc(C)ccc12

>  <score_type>  (22) 
oracle

>  <origin>  (22) 
adg

>  <m_score__min__energy>  (22) 
-7.3300000000000001

>  <m_primary>  (22) 
energy

$$$$
22:0
     RDKit          3D

 37 39  0  0  0  0  0  0  0  0999 V2000
   58.6092   27.0419   47.0458 H   0  0  0  0  0  0  0  0  0  0  0  0
   57.9920   27.7600   46.4860 C   0  0  0  0  0  0  0  0  0  0  0  0
   58.3560   29.3840   46.2280 S   0  0  0  0  0  0  0  0  0  0  0  0
   56.9540   29.6590   45.3510 C   0  0  0  0  0  0  0  0  0  0  0  0
   56.6550   30.7950   44.7990 N   0  0  0  0  0  0  0  0  0  0  0  0
   57.6220   31.6860   44.1560 C   0  0  0  0  0  0  0  0  0  0  0  0
   58.6367   31.3948   44.4652 H   0  0  0  0  0  0  0  0  0  0  0  0
   57.5030   31.5950   43.0662 H   0  0  0  0  0  0  0  0  0  0  0  0
   57.3830   33.1540   44.5460 C   0  0  0  0  0  0  0  0  0  0  0  0
   57.6404   33.7941   43.6893 H   0  0  0  0  0  0  0  0  0  0  0  0
   56.3238   33.2606   44.8230 H   0  0  0  0  0  0  0  0  0  0  0  0
   58.2140   33.5730   45.7310 C   0  0  0  0  0  0  0  0  0  0  0  0
   58.0900   32.9050   46.9620 C   0  0  0  0  0  0  0  0  0  0  0  0
   57.3364   32.1128   47.0821 H   0  0  0  0  0  0  0  0  0  0  0  0
   58.9210   33.2440   48.0340 C   0  0  0  0  0  0  0  0  0  0  0  0
   58.8218   32.7161   48.9939 H   0  0  0  0  0  0  0  0  0  0  0  0
   59.8780   34.2530   47.8880 C   0  0  0  0  0  0  0  0  0  0  0  0
   60.6930   34.5700   48.9250 F   0  0  0  0  0  0  0  0  0  0  0  0
   60.0010   34.9300   46.6710 C   0  0  0  0  0  0  0  0  0  0  0  0
   60.7491   35.7286   46.5591 H   0  0  0  0  0  0  0  0  0  0  0  0
   59.1730   34.5920   45.5960 C   0  0  0  0  0  0  0  0  0  0  0  0
   59.2726   35.1263   44.6397 H   0  0  0  0  0  0  0  0  0  0  0  0
   56.1930   28.5500   45.2540 N   0  0  0  0  0  0  0  0  0  0  0  0
   56.7700   27.4820   45.8660 C   0  0  0  0  0  0  0  0  0  0  0  0
   56.1130   26.1610   45.8310 C   0  0  0  0  0  0  0  0  0  0  0  0
   54.7750   26.0290   45.7730 N   0  0  0  0  0  0  0  0  0  0  0  0
   54.5780   24.6980   45.6870 C   0  0  0  0  0  0  0  0  0  0  0  0
   53.2220   24.0800   45.6440 C   0  0  0  0  0  0  0  0  0  0  0  0
   52.8613   23.9156   46.6701 H   0  0  0  0  0  0  0  0  0  0  0  0
   52.5296   24.7515   45.1151 H   0  0  0  0  0  0  0  0  0  0  0  0
   53.2746   23.1169   45.1151 H   0  0  0  0  0  0  0  0  0  0  0  0
   55.7160   23.9740   45.6920 N   0  0  0  0  0  0  0  0  0  0  0  0
   56.6890   24.9010   45.7680 C   0  0  0  0  0  0  0  0  0  0  0  0
   58.1410   24.5530   45.7430 C   0  0  0  0  0  0  0  0  0  0  0  0
   58.5144   24.4635   46.7738 H   0  0  0  0  0  0  0  0  0  0  0  0
   58.2797   23.5962   45.2184 H   0  0  0  0  0  0  0  0  0  0  0  0
   58.6984   25.3430   45.2184 H   0  0  0  0  0  0  0  0  0  0  0  0
  1  2  1  0
  2  3  1  0
  3  4  1  0
  4  5  2  0
  5  6  1  0
  6  7  1  0
  6  8  1  0
  6  9  1  0
  9 10  1  0
  9 11  1  0
  9 12  1  0
 12 13  2  0
 13 14  1  0
 13 15  1  0
 15 16  1  0
 15 17  2  0
 17 18  1  0
 17 19  1  0
 19 20  1  0
 19 21  2  0
 21 22  1  0
  4 23  1  0
 23 24  1  0
 24 25  1  0
 25 26  1  0
 26 27  1  0
 27 28  1  0
 28 29  1  0
 28 30  1  0
 28 31  1  0
 27 32  2  0
 32 33  1  0
 33 34  1  0
 34 35  1  0
 34 36  1  0
 34 37  1  0
 24  2  2  0
 33 25  2  0
 21 12  1  0
M  CHG  2  23  -1  26  -1
M  END
>  <UniqueID>  (23) 
22

>  <SMILES>  (23) 
Cc1nc(C)c(-c2cs/c(=N/CCc3ccc(F)cc3)[n-]2)[n-]1

>  <Energy>  (23) 
90.63239048689304

>  <Genealogy>  (23) 
Cc1nc(C)c(-c2csc(=NCCc3ccc(F)cc3)[n-]2)[n-]1 (protonated)
Cc1nc(C)c(-c2cs/c(=N/CCc3ccc(F)cc3)[n-]2)[n-]1 (cis-trans isomerization)
Cc1nc(C)c(-c2cs/c(=N/CCc3ccc(F)cc3)[n-]2)[n-]1 (3D coordinates assigned)
Cc1nc(C)c(-c2cs/c(=N/CCc3ccc(F)cc3)[n-]2)[n-]1 (optimized conformer: 90.63239048689304 kcal/mol)

>  <smiles>  (23) 
Cc1nc(C)c(-c2csc(=NCCc3ccc(F)cc3)[nH]2)[nH]1

>  <score_type>  (23) 
oracle

>  <origin>  (23) 
adg

>  <m_score__min__energy>  (23) 
-11.5

>  <m_primary>  (23) 
energy

$$$$
23:0
     RDKit          3D

 37 40  0  0  0  0  0  0  0  0999 V2000
   65.9760   32.6370   50.1330 C   0  0  0  0  0  0  0  0  0  0  0  0
   64.8640   33.4810   49.8510 O   0  0  0  0  0  0  0  0  0  0  0  0
   63.6980   33.0630   49.1930 C   0  0  0  0  0  0  0  0  0  0  0  0
   63.7760   32.7640   47.8280 C   0  0  0  0  0  0  0  0  0  0  0  0
   62.6410   32.3430   47.1280 C   0  0  0  0  0  0  0  0  0  0  0  0
   61.4120   32.2190   47.7890 C   0  0  0  0  0  0  0  0  0  0  0  0
   60.2430   31.7850   47.0680 N   0  0  0  0  0  0  0  0  0  0  0  0
   59.4830   32.6830   46.3480 C   0  0  0  0  0  0  0  0  0  0  0  0
   59.8230   34.0560   46.2840 C   0  0  0  0  0  0  0  0  0  0  0  0
   59.0430   34.9530   45.5530 C   0  0  0  0  0  0  0  0  0  0  0  0
   57.9140   34.5060   44.8700 C   0  0  0  0  0  0  0  0  0  0  0  0
   57.5570   33.1590   44.9140 C   0  0  0  0  0  0  0  0  0  0  0  0
   58.3310   32.2370   45.6470 C   0  0  0  0  0  0  0  0  0  0  0  0
   57.9770   30.8780   45.6930 C   0  0  0  0  0  0  0  0  0  0  0  0
   56.9560   30.4640   45.0760 O   0  0  0  0  0  0  0  0  0  0  0  0
   58.7640   29.9800   46.4290 C   0  0  0  0  0  0  0  0  0  0  0  0
   58.4490   28.6110   46.5050 C   0  0  0  0  0  0  0  0  0  0  0  0
   59.2530   27.7480   47.2480 C   0  0  0  0  0  0  0  0  0  0  0  0
   60.3690   28.2540   47.9110 C   0  0  0  0  0  0  0  0  0  0  0  0
   60.6640   29.5770   47.8330 N   0  0  0  0  0  0  0  0  0  0  0  0
   59.9040   30.4560   47.1170 C   0  0  0  0  0  0  0  0  0  0  0  0
   61.3270   32.5130   49.1560 C   0  0  0  0  0  0  0  0  0  0  0  0
   62.4610   32.9340   49.8560 C   0  0  0  0  0  0  0  0  0  0  0  0
   66.0987   32.5439   51.2222 H   0  0  0  0  0  0  0  0  0  0  0  0
   65.8011   31.6422   49.6973 H   0  0  0  0  0  0  0  0  0  0  0  0
   66.8871   33.0731   49.6973 H   0  0  0  0  0  0  0  0  0  0  0  0
   64.7372   32.8609   47.3019 H   0  0  0  0  0  0  0  0  0  0  0  0
   62.7133   32.1086   46.0557 H   0  0  0  0  0  0  0  0  0  0  0  0
   60.7134   34.4203   46.8173 H   0  0  0  0  0  0  0  0  0  0  0  0
   59.3206   36.0168   45.5159 H   0  0  0  0  0  0  0  0  0  0  0  0
   57.3030   35.2173   44.2948 H   0  0  0  0  0  0  0  0  0  0  0  0
   56.6642   32.8131   44.3724 H   0  0  0  0  0  0  0  0  0  0  0  0
   57.5664   28.2208   45.9770 H   0  0  0  0  0  0  0  0  0  0  0  0
   59.0085   26.6773   47.3103 H   0  0  0  0  0  0  0  0  0  0  0  0
   61.0115   27.5812   48.4980 H   0  0  0  0  0  0  0  0  0  0  0  0
   60.3650   32.4122   49.6799 H   0  0  0  0  0  0  0  0  0  0  0  0
   62.3878   33.1656   50.9288 H   0  0  0  0  0  0  0  0  0  0  0  0
  1  2  1  0
  2  3  1  0
  3  4  2  0
  4  5  1  0
  5  6  2  0
  6  7  1  0
  7  8  1  0
  8  9  2  0
  9 10  1  0
 10 11  2  0
 11 12  1  0
 12 13  2  0
 13 14  1  0
 14 15  2  0
 14 16  1  0
 16 17  2  0
 17 18  1  0
 18 19  2  0
 19 20  1  0
 20 21  2  0
  6 22  1  0
 22 23  2  0
 23  3  1  0
 21  7  1  0
 13  8  1  0
 21 16  1  0
  1 24  1  0
  1 25  1  0
  1 26  1  0
  4 27  1  0
  5 28  1  0
  9 29  1  0
 10 30  1  0
 11 31  1  0
 12 32  1  0
 17 33  1  0
 18 34  1  0
 19 35  1  0
 22 36  1  0
 23 37  1  0
M  END
>  <UniqueID>  (24) 
23

>  <SMILES>  (24) 
COc1ccc(-n2c3ccccc3c(=O)c3cccnc32)cc1

>  <Energy>  (24) 
62.578426996709396

>  <Genealogy>  (24) 
COc1ccc(-n2c3ccccc3c(=O)c3cccnc32)cc1 (3D coordinates assigned)
COc1ccc(-n2c3ccccc3c(=O)c3cccnc32)cc1 (optimized conformer: 62.578426996709396 kcal/mol)

>  <smiles>  (24) 
COc1ccc(-n2c3ccccc3c(=O)c3cccnc32)cc1

>  <score_type>  (24) 
oracle

>  <origin>  (24) 
adg

>  <m_score__min__energy>  (24) 
-7.5599999999999996

>  <m_primary>  (24) 
energy

$$$$
24:0
     RDKit          3D

 49 52  0  0  0  0  0  0  0  0999 V2000
   60.1040   30.0570   46.8850 C   0  0  0  0  0  0  0  0  0  0  0  0
   59.9140   29.7230   45.4100 C   0  0  0  0  0  0  0  0  0  0  0  0
   58.5080   29.8840   45.0230 N   0  0  0  0  0  0  0  0  0  0  0  0
   57.5690   28.9180   44.9290 C   0  0  0  0  0  0  0  0  0  0  0  0
   57.8220   27.4470   45.1800 C   0  0  0  0  0  0  0  0  0  0  0  0
   56.7520   26.7050   45.9690 C   0  0  0  0  0  0  0  0  0  0  0  0
   58.0780   27.0580   46.6300 C   0  0  0  0  0  0  0  0  0  0  0  0
   56.3680   29.5240   44.5950 C   0  0  0  0  0  0  0  0  0  0  0  0
   56.5460   30.8550   44.4960 N   0  0  0  0  0  0  0  0  0  0  0  0
   57.8540   31.0420   44.7700 C   0  0  0  0  0  0  0  0  0  0  0  0
   58.4890   32.4030   44.7780 C   0  0  0  0  0  0  0  0  0  0  0  0
   57.8530   33.2580   45.8030 N   0  0  0  0  0  0  0  0  0  0  0  0
   57.7640   32.5890   47.1270 C   0  0  0  0  0  0  0  0  0  0  0  0
   58.8030   33.0770   48.1600 C   0  0  0  0  0  0  0  0  0  0  0  0
   60.0210   33.5510   47.4980 N   0  0  0  0  0  0  0  0  0  0  0  0
   61.3110   33.1770   48.0000 C   0  0  0  0  0  0  0  0  0  0  0  0
   62.3040   32.7560   47.1030 C   0  0  0  0  0  0  0  0  0  0  0  0
   63.5670   32.3840   47.5720 C   0  0  0  0  0  0  0  0  0  0  0  0
   63.8480   32.4350   48.9400 C   0  0  0  0  0  0  0  0  0  0  0  0
   65.0750   32.0770   49.3940 F   0  0  0  0  0  0  0  0  0  0  0  0
   62.8680   32.8630   49.8400 C   0  0  0  0  0  0  0  0  0  0  0  0
   61.6000   33.2350   49.3790 C   0  0  0  0  0  0  0  0  0  0  0  0
   60.4080   33.8120   50.5380 Cl  0  0  0  0  0  0  0  0  0  0  0  0
   59.9290   34.4990   46.3860 C   0  0  0  0  0  0  0  0  0  0  0  0
   58.4840   34.5930   45.8770 C   0  0  0  0  0  0  0  0  0  0  0  0
   59.6535   29.2650   47.5013 H   0  0  0  0  0  0  0  0  0  0  0  0
   61.1785   30.1294   47.1091 H   0  0  0  0  0  0  0  0  0  0  0  0
   59.6172   31.0176   47.1091 H   0  0  0  0  0  0  0  0  0  0  0  0
   60.5359   30.3976   44.8032 H   0  0  0  0  0  0  0  0  0  0  0  0
   60.2117   28.6776   45.2410 H   0  0  0  0  0  0  0  0  0  0  0  0
   58.3371   27.2789   44.2227 H   0  0  0  0  0  0  0  0  0  0  0  0
   55.8312   27.2255   46.2710 H   0  0  0  0  0  0  0  0  0  0  0  0
   56.1793   25.7776   45.8210 H   0  0  0  0  0  0  0  0  0  0  0  0
   58.1149   27.8335   47.4093 H   0  0  0  0  0  0  0  0  0  0  0  0
   58.8597   26.4913   47.1570 H   0  0  0  0  0  0  0  0  0  0  0  0
   55.4152   28.9980   44.4352 H   0  0  0  0  0  0  0  0  0  0  0  0
   59.5610   32.3023   45.0032 H   0  0  0  0  0  0  0  0  0  0  0  0
   58.3544   32.8673   43.7899 H   0  0  0  0  0  0  0  0  0  0  0  0
   56.7596   32.7705   47.5373 H   0  0  0  0  0  0  0  0  0  0  0  0
   57.9706   31.5225   46.9541 H   0  0  0  0  0  0  0  0  0  0  0  0
   58.3683   33.9006   48.7455 H   0  0  0  0  0  0  0  0  0  0  0  0
   59.0667   32.2342   48.8159 H   0  0  0  0  0  0  0  0  0  0  0  0
   62.0876   32.7185   46.0252 H   0  0  0  0  0  0  0  0  0  0  0  0
   64.3402   32.0509   46.8640 H   0  0  0  0  0  0  0  0  0  0  0  0
   63.0944   32.9077   50.9155 H   0  0  0  0  0  0  0  0  0  0  0  0
   60.2573   35.4914   46.7284 H   0  0  0  0  0  0  0  0  0  0  0  0
   60.5727   34.1484   45.5658 H   0  0  0  0  0  0  0  0  0  0  0  0
   57.9028   35.2266   46.5632 H   0  0  0  0  0  0  0  0  0  0  0  0
   58.4993   35.0265   44.8661 H   0  0  0  0  0  0  0  0  0  0  0  0
  1  2  1  0
  2  3  1  0
  3  4  1  0
  4  5  1  0
  5  6  1  0
  6  7  1  0
  4  8  2  0
  8  9  1  0
  9 10  2  0
 10 11  1  0
 11 12  1  0
 12 13  1  0
 13 14  1  0
 14 15  1  0
 15 16  1  0
 16 17  2  0
 17 18  1  0
 18 19  2  0
 19 20  1  0
 19 21  1  0
 21 22  2  0
 22 23  1  0
 15 24  1  0
 24 25  1  0
 10  3  1  0
 25 12  1  0
  7  5  1  0
 22 16  1  0
  1 26  1  0
  1 27  1  0
  1 28  1  0
  2 29  1  0
  2 30  1  0
  5 31  1  0
  6 32  1  0
  6 33  1  0
  7 34  1  0
  7 35  1  0
  8 36  1  0
 11 37  1  0
 11 38  1  0
 13 39  1  0
 13 40  1  0
 14 41  1  0
 14 42  1  0
 17 43  1  0
 18 44  1  0
 21 45  1  0
 24 46  1  0
 24 47  1  0
 25 48  1  0
 25 49  1  0
M  END
>  <UniqueID>  (25) 
24

>  <SMILES>  (25) 
CCn1c(C2CC2)cnc1CN1CCN(c2ccc(F)cc2Cl)CC1

>  <Energy>  (25) 
355.27665648986545

>  <Genealogy>  (25) 
CCn1c(C2CC2)cnc1CN1CCN(c2ccc(F)cc2Cl)CC1 (3D coordinates assigned)
CCn1c(C2CC2)cnc1CN1CCN(c2ccc(F)cc2Cl)CC1 (nonaromatic ring conformer: 355.27665648986545 kcal/mol)

>  <smiles>  (25) 
CCn1c(C2CC2)cnc1CN1CCN(c2ccc(F)cc2Cl)CC1

>  <score_type>  (25) 
oracle

>  <origin>  (25) 
adg

>  <m_score__min__energy>  (25) 
-8.2400000000000002

>  <m_primary>  (25) 
energy

$$$$
25:0
     RDKit          3D

 40 41  0  0  0  0  0  0  0  0999 V2000
   58.1190   32.3490   41.1800 C   0  0  0  0  0  0  0  0  0  0  0  0
   57.3870   32.1530   42.3860 O   0  0  0  0  0  0  0  0  0  0  0  0
   57.8050   32.5920   43.6520 C   0  0  0  0  0  0  0  0  0  0  0  0
   58.8500   33.5240   43.8090 C   0  0  0  0  0  0  0  0  0  0  0  0
   59.2760   33.9000   45.0860 C   0  0  0  0  0  0  0  0  0  0  0  0
   58.6740   33.3450   46.2180 C   0  0  0  0  0  0  0  0  0  0  0  0
   59.2640   33.8520   47.9610 Br  0  0  0  0  0  0  0  0  0  0  0  0
   57.6350   32.4220   46.0730 C   0  0  0  0  0  0  0  0  0  0  0  0
   57.1750   32.0680   44.7990 C   0  0  0  0  0  0  0  0  0  0  0  0
   56.1020   31.1250   44.6930 N   0  0  0  0  0  0  0  0  0  0  0  0
   56.2440   29.7010   44.6240 C   0  0  0  0  0  0  0  0  0  0  0  0
   55.2400   28.9820   44.8730 O   0  0  0  0  0  0  0  0  0  0  0  0
   57.5310   29.0360   44.1830 C   0  0  0  0  0  0  0  0  0  0  0  0
   58.4750   28.7720   45.2910 N   0  0  0  0  0  0  0  0  0  0  0  0
   59.2510   27.5230   45.1080 C   0  0  0  0  0  0  0  0  0  0  0  0
   60.3730   27.3690   46.1600 C   0  0  0  0  0  0  0  0  0  0  0  0
   60.1240   28.2510   47.3870 C   0  0  0  0  0  0  0  0  0  0  0  0
   59.9810   29.7430   46.9990 C   0  0  1  0  0  0  0  0  0  0  0  0
   61.3260   30.4760   47.0770 C   0  0  0  0  0  0  0  0  0  0  0  0
   59.3450   29.9200   45.5990 C   0  0  0  0  0  0  0  0  0  0  0  0
   59.1557   32.6266   41.4213 H   0  0  0  0  0  0  0  0  0  0  0  0
   58.1156   31.4183   40.5936 H   0  0  0  0  0  0  0  0  0  0  0  0
   57.6510   33.1535   40.5936 H   0  0  0  0  0  0  0  0  0  0  0  0
   59.3334   33.9582   42.9214 H   0  0  0  0  0  0  0  0  0  0  0  0
   60.0869   34.6344   45.2000 H   0  0  0  0  0  0  0  0  0  0  0  0
   57.1758   31.9709   46.9650 H   0  0  0  0  0  0  0  0  0  0  0  0
   57.2803   28.0776   43.7048 H   0  0  0  0  0  0  0  0  0  0  0  0
   58.0318   29.7314   43.4934 H   0  0  0  0  0  0  0  0  0  0  0  0
   58.5667   26.6659   45.1928 H   0  0  0  0  0  0  0  0  0  0  0  0
   59.7239   27.5634   44.1157 H   0  0  0  0  0  0  0  0  0  0  0  0
   60.4196   26.3177   46.4802 H   0  0  0  0  0  0  0  0  0  0  0  0
   61.3210   27.6829   45.6987 H   0  0  0  0  0  0  0  0  0  0  0  0
   59.1987   27.9209   47.8817 H   0  0  0  0  0  0  0  0  0  0  0  0
   60.9875   28.1529   48.0613 H   0  0  0  0  0  0  0  0  0  0  0  0
   59.2999   30.1960   47.7345 H   0  0  0  0  0  0  0  0  0  0  0  0
   61.6012   30.6260   48.1314 H   0  0  0  0  0  0  0  0  0  0  0  0
   62.1005   29.8752   46.5778 H   0  0  0  0  0  0  0  0  0  0  0  0
   61.2409   31.4525   46.5778 H   0  0  0  0  0  0  0  0  0  0  0  0
   58.7478   30.8436   45.5846 H   0  0  0  0  0  0  0  0  0  0  0  0
   60.1437   29.9797   44.8450 H   0  0  0  0  0  0  0  0  0  0  0  0
  1  2  1  0
  2  3  1  0
  3  4  2  0
  4  5  1  0
  5  6  2  0
  6  7  1  0
  6  8  1  0
  8  9  2  0
  9 10  1  0
 10 11  1  0
 11 12  2  0
 11 13  1  0
 13 14  1  0
 14 15  1  0
 15 16  1  0
 16 17  1  0
 17 18  1  0
 18 19  1  0
 18 20  1  0
  9  3  1  0
 20 14  1  0
  1 21  1  0
  1 22  1  0
  1 23  1  0
  4 24  1  0
  5 25  1  0
  8 26  1  0
 13 27  1  0
 13 28  1  0
 15 29  1  0
 15 30  1  0
 16 31  1  0
 16 32  1  0
 17 33  1  0
 17 34  1  0
 18 35  1  1
 19 36  1  0
 19 37  1  0
 19 38  1  0
 20 39  1  0
 20 40  1  0
M  CHG  1  10  -1
M  END
>  <UniqueID>  (26) 
25

>  <SMILES>  (26) 
COc1ccc(Br)cc1[N-]C(=O)CN1CCC[C@@H](C)C1

>  <Energy>  (26) 
49.404364865202865

>  <Genealogy>  (26) 
COc1ccc(Br)cc1[N-]C(=O)CN1CCCC(C)C1 (protonated)
COc1ccc(Br)cc1[N-]C(=O)CN1CCC[C@@H](C)C1 (chirality)
COc1ccc(Br)cc1[N-]C(=O)CN1CCC[C@@H](C)C1 (3D coordinates assigned)
COc1ccc(Br)cc1[N-]C(=O)CN1CCC[C@@H](C)C1 (nonaromatic ring conformer: 49.404364865202865 kcal/mol)

>  <smiles>  (26) 
COc1ccc(Br)cc1NC(=O)CN1CCCC(C)C1

>  <score_type>  (26) 
oracle

>  <origin>  (26) 
adg

>  <m_score__min__energy>  (26) 
-10.68

>  <m_primary>  (26) 
energy

$$$$
26:0
     RDKit          3D

 43 45  0  0  0  0  0  0  0  0999 V2000
   60.0400   30.1190   49.1120 C   0  0  0  0  0  0  0  0  0  0  0  0
   58.8560   31.0640   49.3180 C   0  0  0  0  0  0  0  0  0  0  0  0
   58.9860   32.2720   48.4640 N   0  0  0  0  0  0  0  0  0  0  0  0
   59.3470   33.4840   49.0320 C   0  0  0  0  0  0  0  0  0  0  0  0
   59.6510   33.6540   50.5160 C   0  0  0  0  0  0  0  0  0  0  0  0
   60.9020   32.9760   50.9090 N   0  0  0  0  0  0  0  0  0  0  0  0
   62.0930   33.7790   50.5850 C   0  0  0  0  0  0  0  0  0  0  0  0
   62.6780   33.3480   49.2600 C   0  0  0  0  0  0  0  0  0  0  0  0
   62.5970   34.2180   48.1590 C   0  0  0  0  0  0  0  0  0  0  0  0
   63.1010   33.8350   46.9130 C   0  0  0  0  0  0  0  0  0  0  0  0
   63.6790   32.5750   46.7500 C   0  0  0  0  0  0  0  0  0  0  0  0
   63.7510   31.6940   47.8310 C   0  0  0  0  0  0  0  0  0  0  0  0
   63.2490   32.0660   49.0840 C   0  0  0  0  0  0  0  0  0  0  0  0
   63.3460   30.9010   50.4010 Cl  0  0  0  0  0  0  0  0  0  0  0  0
   59.4750   34.6270   48.2350 C   0  0  0  0  0  0  0  0  0  0  0  0
   59.2410   34.5690   46.8720 C   0  0  0  0  0  0  0  0  0  0  0  0
   59.3790   35.6160   46.1800 O   0  0  0  0  0  0  0  0  0  0  0  0
   58.8500   33.3620   46.2860 C   0  0  0  0  0  0  0  0  0  0  0  0
   58.5900   33.2920   44.9030 C   0  0  0  0  0  0  0  0  0  0  0  0
   58.1730   32.0990   44.3180 C   0  0  0  0  0  0  0  0  0  0  0  0
   57.8500   32.0290   42.5950 Cl  0  0  0  0  0  0  0  0  0  0  0  0
   58.0050   30.9640   45.1040 C   0  0  0  0  0  0  0  0  0  0  0  0
   58.2600   31.0100   46.4750 C   0  0  0  0  0  0  0  0  0  0  0  0
   58.7050   32.2040   47.1030 C   0  0  0  0  0  0  0  0  0  0  0  0
   60.4332   29.8052   50.0902 H   0  0  0  0  0  0  0  0  0  0  0  0
   59.7091   29.2340   48.5488 H   0  0  0  0  0  0  0  0  0  0  0  0
   60.8296   30.6379   48.5488 H   0  0  0  0  0  0  0  0  0  0  0  0
   57.9258   30.5376   49.0578 H   0  0  0  0  0  0  0  0  0  0  0  0
   58.8378   31.3793   50.3717 H   0  0  0  0  0  0  0  0  0  0  0  0
   59.7447   34.7273   50.7380 H   0  0  0  0  0  0  0  0  0  0  0  0
   58.8266   33.1987   51.0844 H   0  0  0  0  0  0  0  0  0  0  0  0
   60.8720   32.8170   51.9430 H   0  0  0  0  0  0  0  0  0  0  0  0
   60.9790   32.0470   50.4360 H   0  0  0  0  0  0  0  0  0  0  0  0
   61.8093   34.8402   50.5273 H   0  0  0  0  0  0  0  0  0  0  0  0
   62.8471   33.6301   51.3719 H   0  0  0  0  0  0  0  0  0  0  0  0
   62.1332   35.2082   48.2790 H   0  0  0  0  0  0  0  0  0  0  0  0
   63.0421   34.5271   46.0600 H   0  0  0  0  0  0  0  0  0  0  0  0
   64.0780   32.2759   45.7695 H   0  0  0  0  0  0  0  0  0  0  0  0
   64.2051   30.7011   47.6973 H   0  0  0  0  0  0  0  0  0  0  0  0
   59.7648   35.5823   48.6968 H   0  0  0  0  0  0  0  0  0  0  0  0
   58.7177   34.1888   44.2790 H   0  0  0  0  0  0  0  0  0  0  0  0
   57.6690   30.0241   44.6419 H   0  0  0  0  0  0  0  0  0  0  0  0
   58.1136   30.1040   47.0814 H   0  0  0  0  0  0  0  0  0  0  0  0
  1  2  1  0
  2  3  1  0
  3  4  1  0
  4  5  1  0
  5  6  1  0
  6  7  1  0
  7  8  1  0
  8  9  2  0
  9 10  1  0
 10 11  2  0
 11 12  1  0
 12 13  2  0
 13 14  1  0
  4 15  2  0
 15 16  1  0
 16 17  2  0
 16 18  1  0
 18 19  2  0
 19 20  1  0
 20 21  1  0
 20 22  2  0
 22 23  1  0
 23 24  2  0
 24  3  1  0
 13  8  1  0
 24 18  1  0
  1 25  1  0
  1 26  1  0
  1 27  1  0
  2 28  1  0
  2 29  1  0
  5 30  1  0
  5 31  1  0
  6 32  1  0
  6 33  1  0
  7 34  1  0
  7 35  1  0
  9 36  1  0
 10 37  1  0
 11 38  1  0
 12 39  1  0
 15 40  1  0
 19 41  1  0
 22 42  1  0
 23 43  1  0
M  CHG  1   6   1
M  END
>  <UniqueID>  (27) 
26

>  <SMILES>  (27) 
CCn1c(C[NH2+]Cc2ccccc2Cl)cc(=O)c2cc(Cl)ccc21

>  <Energy>  (27) 
58.66510327635048

>  <Genealogy>  (27) 
CCn1c(C[NH2+]Cc2ccccc2Cl)cc(=O)c2cc(Cl)ccc21 (protonated)
CCn1c(C[NH2+]Cc2ccccc2Cl)cc(=O)c2cc(Cl)ccc21 (3D coordinates assigned)
CCn1c(C[NH2+]Cc2ccccc2Cl)cc(=O)c2cc(Cl)ccc21 (optimized conformer: 58.66510327635048 kcal/mol)

>  <smiles>  (27) 
CCn1c(CNCc2ccccc2Cl)cc(=O)c2cc(Cl)ccc21

>  <score_type>  (27) 
oracle

>  <origin>  (27) 
adg

>  <m_score__min__energy>  (27) 
-6.1100000000000003

>  <m_primary>  (27) 
energy

$$$$
27:0
     RDKit          3D

 26 26  0  0  0  0  0  0  0  0999 V2000
   56.4470   30.0220   43.5290 C   0  0  0  0  0  0  0  0  0  0  0  0
   56.5440   30.5780   44.8370 O   0  0  0  0  0  0  0  0  0  0  0  0
   57.7190   31.1150   45.3840 C   0  0  0  0  0  0  0  0  0  0  0  0
   58.7120   30.2340   45.8220 C   0  0  0  0  0  0  0  0  0  0  0  0
   59.8990   30.7210   46.3760 C   0  0  0  0  0  0  0  0  0  0  0  0
   60.1150   32.0980   46.5040 C   0  0  0  0  0  0  0  0  0  0  0  0
   61.3300   32.5210   47.0690 O   0  0  0  0  0  0  0  0  0  0  0  0
   61.9310   33.8110   46.9300 C   0  0  0  0  0  0  0  0  0  0  0  0
   63.4620   33.7120   46.8990 C   0  0  0  0  0  0  0  0  0  0  0  0
   63.9360   32.3500   47.1380 N   0  0  0  0  0  0  0  0  0  0  0  0
   59.1190   32.9890   46.0580 C   0  0  0  0  0  0  0  0  0  0  0  0
   57.9300   32.5010   45.5050 C   0  0  0  0  0  0  0  0  0  0  0  0
   56.2584   28.9408   43.6032 H   0  0  0  0  0  0  0  0  0  0  0  0
   55.6191   30.5023   42.9869 H   0  0  0  0  0  0  0  0  0  0  0  0
   57.3886   30.1936   42.9869 H   0  0  0  0  0  0  0  0  0  0  0  0
   58.5579   29.1488   45.7299 H   0  0  0  0  0  0  0  0  0  0  0  0
   60.6714   30.0150   46.7149 H   0  0  0  0  0  0  0  0  0  0  0  0
   61.5825   34.2697   45.9929 H   0  0  0  0  0  0  0  0  0  0  0  0
   61.6401   34.4248   47.7952 H   0  0  0  0  0  0  0  0  0  0  0  0
   63.8177   34.0420   45.9118 H   0  0  0  0  0  0  0  0  0  0  0  0
   63.8563   34.3509   47.7029 H   0  0  0  0  0  0  0  0  0  0  0  0
   64.5200   32.0230   46.3340 H   0  0  0  0  0  0  0  0  0  0  0  0
   64.5270   32.3430   47.9990 H   0  0  0  0  0  0  0  0  0  0  0  0
   63.1260   31.7050   47.2840 H   0  0  0  0  0  0  0  0  0  0  0  0
   59.2769   34.0741   46.1450 H   0  0  0  0  0  0  0  0  0  0  0  0
   57.1563   33.2043   45.1631 H   0  0  0  0  0  0  0  0  0  0  0  0
  1  2  1  0
  2  3  1  0
  3  4  2  0
  4  5  1  0
  5  6  2  0
  6  7  1  0
  7  8  1  0
  8  9  1  0
  9 10  1  0
  6 11  1  0
 11 12  2  0
 12  3  1  0
  1 13  1  0
  1 14  1  0
  1 15  1  0
  4 16  1  0
  5 17  1  0
  8 18  1  0
  8 19  1  0
  9 20  1  0
  9 21  1  0
 10 22  1  0
 10 23  1  0
 10 24  1  0
 11 25  1  0
 12 26  1  0
M  CHG  1  10   1
M  END
>  <UniqueID>  (28) 
27

>  <SMILES>  (28) 
COc1ccc(OCC[NH3+])cc1

>  <Energy>  (28) 
22.520437150200323

>  <Genealogy>  (28) 
COc1ccc(OCC[NH3+])cc1 (protonated)
COc1ccc(OCC[NH3+])cc1 (3D coordinates assigned)
COc1ccc(OCC[NH3+])cc1 (optimized conformer: 22.520437150200323 kcal/mol)

>  <smiles>  (28) 
COc1ccc(OCCN)cc1

>  <score_type>  (28) 
oracle

>  <origin>  (28) 
adg

>  <m_score__min__energy>  (28) 
-2.6600000000000001

>  <m_primary>  (28) 
energy

$$$$
28:0
     RDKit          3D

 55 57  0  0  0  0  0  0  0  0999 V2000
   57.0270   32.4490   40.6980 C   0  0  0  0  0  0  0  0  0  0  0  0
   58.2220   32.3190   41.6370 C   0  0  0  0  0  0  0  0  0  0  0  0
   57.7680   32.0170   43.0770 C   0  0  0  0  0  0  0  0  0  0  0  0
   57.7270   30.5690   43.3630 N   0  0  0  0  0  0  0  0  0  0  0  0
   58.1980   30.1410   44.6780 C   0  0  0  0  0  0  0  0  0  0  0  0
   58.7690   31.0650   45.5820 C   0  0  0  0  0  0  0  0  0  0  0  0
   59.0830   30.7160   46.9040 C   0  0  0  0  0  0  0  0  0  0  0  0
   59.6810   31.6830   47.7880 N   0  0  0  0  0  0  0  0  0  0  0  0
   60.0480   33.0450   47.3870 C   0  0  0  0  0  0  0  0  0  0  0  0
   58.8370   33.9840   47.4720 C   0  0  0  0  0  0  0  0  0  0  0  0
   58.5130   34.5880   46.1600 N   0  0  0  0  0  0  0  0  0  0  0  0
   57.2740   34.0230   45.5980 C   0  0  0  0  0  0  0  0  0  0  0  0
   59.6220   34.3570   45.2190 C   0  0  0  0  0  0  0  0  0  0  0  0
   58.9060   29.3850   47.3190 C   0  0  0  0  0  0  0  0  0  0  0  0
   59.1830   28.9720   48.6300 O   0  0  0  0  0  0  0  0  0  0  0  0
   60.3410   28.2250   48.9860 C   0  0  0  0  0  0  0  0  0  0  0  0
   58.4810   28.4160   46.4050 C   0  0  0  0  0  0  0  0  0  0  0  0
   58.3850   27.1600   46.8250 O   0  0  0  0  0  0  0  0  0  0  0  0
   58.0280   26.1560   46.0390 C   0  0  0  0  0  0  0  0  0  0  0  0
   57.9390   24.8630   46.5680 C   0  0  0  0  0  0  0  0  0  0  0  0
   57.5830   23.7910   45.7480 C   0  0  0  0  0  0  0  0  0  0  0  0
   57.3150   24.0030   44.3920 C   0  0  0  0  0  0  0  0  0  0  0  0
   56.8710   22.6530   43.3650 Cl  0  0  0  0  0  0  0  0  0  0  0  0
   57.4020   25.2920   43.8540 C   0  0  0  0  0  0  0  0  0  0  0  0
   57.7540   26.3820   44.6760 C   0  0  0  0  0  0  0  0  0  0  0  0
   57.8520   27.6930   44.1790 C   0  0  0  0  0  0  0  0  0  0  0  0
   57.7080   27.8870   42.9410 O   0  0  0  0  0  0  0  0  0  0  0  0
   58.1620   28.7630   45.0650 C   0  0  0  0  0  0  0  0  0  0  0  0
   56.1051   32.5493   41.2896 H   0  0  0  0  0  0  0  0  0  0  0  0
   57.1542   33.3386   40.0636 H   0  0  0  0  0  0  0  0  0  0  0  0
   56.9600   31.5529   40.0636 H   0  0  0  0  0  0  0  0  0  0  0  0
   58.8675   31.5007   41.2852 H   0  0  0  0  0  0  0  0  0  0  0  0
   58.7703   33.2726   41.6373 H   0  0  0  0  0  0  0  0  0  0  0  0
   58.4697   32.4953   43.7761 H   0  0  0  0  0  0  0  0  0  0  0  0
   56.7480   32.4111   43.1964 H   0  0  0  0  0  0  0  0  0  0  0  0
   56.7220   30.3030   43.2560 H   0  0  0  0  0  0  0  0  0  0  0  0
   58.2910   30.0730   42.6350 H   0  0  0  0  0  0  0  0  0  0  0  0
   58.9736   32.0897   45.2384 H   0  0  0  0  0  0  0  0  0  0  0  0
   59.8130   31.4280   48.7920 H   0  0  0  0  0  0  0  0  0  0  0  0
   60.8396   33.4163   48.0544 H   0  0  0  0  0  0  0  0  0  0  0  0
   60.4036   33.0220   46.3463 H   0  0  0  0  0  0  0  0  0  0  0  0
   57.9667   33.4108   47.8241 H   0  0  0  0  0  0  0  0  0  0  0  0
   59.0850   34.7975   48.1696 H   0  0  0  0  0  0  0  0  0  0  0  0
   56.6056   33.7182   46.4168 H   0  0  0  0  0  0  0  0  0  0  0  0
   56.7730   34.7816   44.9788 H   0  0  0  0  0  0  0  0  0  0  0  0
   57.5183   33.1473   44.9788 H   0  0  0  0  0  0  0  0  0  0  0  0
   60.5469   34.1643   45.7825 H   0  0  0  0  0  0  0  0  0  0  0  0
   59.3906   33.4878   44.5858 H   0  0  0  0  0  0  0  0  0  0  0  0
   59.7569   35.2463   44.5858 H   0  0  0  0  0  0  0  0  0  0  0  0
   60.4213   28.1732   50.0818 H   0  0  0  0  0  0  0  0  0  0  0  0
   60.2615   27.2075   48.5757 H   0  0  0  0  0  0  0  0  0  0  0  0
   61.2352   28.7170   48.5757 H   0  0  0  0  0  0  0  0  0  0  0  0
   58.1504   24.6912   47.6337 H   0  0  0  0  0  0  0  0  0  0  0  0
   57.5131   22.7773   46.1693 H   0  0  0  0  0  0  0  0  0  0  0  0
   57.1950   25.4553   42.7861 H   0  0  0  0  0  0  0  0  0  0  0  0
  1  2  1  0
  2  3  1  0
  3  4  1  0
  4  5  1  0
  5  6  2  0
  6  7  1  0
  7  8  1  0
  8  9  1  0
  9 10  1  0
 10 11  1  0
 11 12  1  0
 11 13  1  0
  7 14  2  0
 14 15  1  0
 15 16  1  0
 14 17  1  0
 17 18  1  0
 18 19  1  0
 19 20  2  0
 20 21  1  0
 21 22  2  0
 22 23  1  0
 22 24  1  0
 24 25  2  0
 25 26  1  0
 26 27  2  0
 26 28  1  0
 28  5  1  0
 28 17  2  0
 25 19  1  0
  1 29  1  0
  1 30  1  0
  1 31  1  0
  2 32  1  0
  2 33  1  0
  3 34  1  0
  3 35  1  0
  4 36  1  0
  4 37  1  0
  6 38  1  0
  8 39  1  0
  9 40  1  0
  9 41  1  0
 10 42  1  0
 10 43  1  0
 12 44  1  0
 12 45  1  0
 12 46  1  0
 13 47  1  0
 13 48  1  0
 13 49  1  0
 16 50  1  0
 16 51  1  0
 16 52  1  0
 20 53  1  0
 21 54  1  0
 24 55  1  0
M  CHG  1   4   1
M  END
>  <UniqueID>  (29) 
28

>  <SMILES>  (29) 
CCC[NH2+]c1cc(NCCN(C)C)c(OC)c2oc3ccc(Cl)cc3c(=O)c12

>  <Energy>  (29) 
79.98338235772682

>  <Genealogy>  (29) 
CCC[NH2+]c1cc(NCCN(C)C)c(OC)c2oc3ccc(Cl)cc3c(=O)c12 (protonated)
CCC[NH2+]c1cc(NCCN(C)C)c(OC)c2oc3ccc(Cl)cc3c(=O)c12 (3D coordinates assigned)
CCC[NH2+]c1cc(NCCN(C)C)c(OC)c2oc3ccc(Cl)cc3c(=O)c12 (optimized conformer: 79.98338235772682 kcal/mol)

>  <smiles>  (29) 
CCCNc1cc(NCCN(C)C)c(OC)c2oc3ccc(Cl)cc3c(=O)c12

>  <score_type>  (29) 
oracle

>  <origin>  (29) 
adg

>  <m_score__min__energy>  (29) 
-5.7400000000000002

>  <m_primary>  (29) 
energy

$$$$
29:0
     RDKit          3D

 47 49  0  0  0  0  0  0  0  0999 V2000
   57.0710   22.5080   43.7370 C   0  0  0  0  0  0  0  0  0  0  0  0
   56.2550   23.7610   43.4400 C   0  0  0  0  0  0  0  0  0  0  0  0
   56.5060   24.7790   44.4850 N   0  0  0  0  0  0  0  0  0  0  0  0
   55.5570   24.6700   45.6220 C   0  0  0  0  0  0  0  0  0  0  0  0
   56.2250   24.4680   46.9900 C   0  0  0  0  0  0  0  0  0  0  0  0
   57.9350   24.8490   44.8680 C   0  0  0  0  0  0  0  0  0  0  0  0
   58.4930   26.2780   44.7450 C   0  0  0  0  0  0  0  0  0  0  0  0
   57.7590   27.0380   43.7230 N   0  0  0  0  0  0  0  0  0  0  0  0
   57.7930   28.4470   44.0360 C   0  0  0  0  0  0  0  0  0  0  0  0
   56.9010   29.3330   43.4150 C   0  0  0  0  0  0  0  0  0  0  0  0
   56.9100   30.6890   43.7410 C   0  0  0  0  0  0  0  0  0  0  0  0
   57.8050   31.1880   44.7030 C   0  0  0  0  0  0  0  0  0  0  0  0
   58.6980   30.3020   45.3440 C   0  0  0  0  0  0  0  0  0  0  0  0
   58.6810   28.9370   45.0070 C   0  0  0  0  0  0  0  0  0  0  0  0
   59.6410   30.8150   46.3660 C   0  0  0  0  0  0  0  0  0  0  0  0
   60.4380   30.0250   46.9410 O   0  0  0  0  0  0  0  0  0  0  0  0
   59.6490   32.2560   46.7150 C   0  0  0  0  0  0  0  0  0  0  0  0
   60.5400   32.7530   47.6840 C   0  0  0  0  0  0  0  0  0  0  0  0
   60.5450   34.1110   48.0090 C   0  0  0  0  0  0  0  0  0  0  0  0
   59.6630   34.9860   47.3740 C   0  0  0  0  0  0  0  0  0  0  0  0
   58.7720   34.5070   46.4110 C   0  0  0  0  0  0  0  0  0  0  0  0
   58.7570   33.1410   46.0730 C   0  0  0  0  0  0  0  0  0  0  0  0
   57.8140   32.6280   45.0510 C   0  0  0  0  0  0  0  0  0  0  0  0
   57.0170   33.4200   44.4760 O   0  0  0  0  0  0  0  0  0  0  0  0
   57.1570   22.3759   44.8257 H   0  0  0  0  0  0  0  0  0  0  0  0
   56.5698   21.6318   43.2998 H   0  0  0  0  0  0  0  0  0  0  0  0
   58.0750   22.6121   43.2998 H   0  0  0  0  0  0  0  0  0  0  0  0
   56.5476   24.1640   42.4592 H   0  0  0  0  0  0  0  0  0  0  0  0
   55.1852   23.5052   43.4300 H   0  0  0  0  0  0  0  0  0  0  0  0
   54.9619   25.5942   45.6630 H   0  0  0  0  0  0  0  0  0  0  0  0
   54.9464   23.7742   45.4359 H   0  0  0  0  0  0  0  0  0  0  0  0
   55.5002   24.6872   47.7879 H   0  0  0  0  0  0  0  0  0  0  0  0
   56.5667   23.4264   47.0810 H   0  0  0  0  0  0  0  0  0  0  0  0
   57.0866   25.1458   47.0810 H   0  0  0  0  0  0  0  0  0  0  0  0
   58.0405   24.5146   45.9106 H   0  0  0  0  0  0  0  0  0  0  0  0
   58.5032   24.2012   44.1842 H   0  0  0  0  0  0  0  0  0  0  0  0
   58.3944   26.7885   45.7144 H   0  0  0  0  0  0  0  0  0  0  0  0
   59.5509   26.2195   44.4494 H   0  0  0  0  0  0  0  0  0  0  0  0
   56.7650   26.7120   43.6820 H   0  0  0  0  0  0  0  0  0  0  0  0
   58.1910   26.8770   42.7820 H   0  0  0  0  0  0  0  0  0  0  0  0
   56.1894   28.9560   42.6657 H   0  0  0  0  0  0  0  0  0  0  0  0
   56.2101   31.3744   43.2406 H   0  0  0  0  0  0  0  0  0  0  0  0
   59.3718   28.2445   45.5102 H   0  0  0  0  0  0  0  0  0  0  0  0
   61.2369   32.0676   48.1886 H   0  0  0  0  0  0  0  0  0  0  0  0
   61.2455   34.4916   48.7669 H   0  0  0  0  0  0  0  0  0  0  0  0
   59.6694   36.0552   47.6323 H   0  0  0  0  0  0  0  0  0  0  0  0
   58.0783   35.2012   45.9141 H   0  0  0  0  0  0  0  0  0  0  0  0
  1  2  1  0
  2  3  1  0
  3  4  1  0
  4  5  1  0
  3  6  1  0
  6  7  1  0
  7  8  1  0
  8  9  1  0
  9 10  2  0
 10 11  1  0
 11 12  2  0
 12 13  1  0
 13 14  2  0
 13 15  1  0
 15 16  2  0
 15 17  1  0
 17 18  2  0
 18 19  1  0
 19 20  2  0
 20 21  1  0
 21 22  2  0
 22 23  1  0
 23 24  2  0
 14  9  1  0
 22 17  1  0
 23 12  1  0
  1 25  1  0
  1 26  1  0
  1 27  1  0
  2 28  1  0
  2 29  1  0
  4 30  1  0
  4 31  1  0
  5 32  1  0
  5 33  1  0
  5 34  1  0
  6 35  1  0
  6 36  1  0
  7 37  1  0
  7 38  1  0
  8 39  1  0
  8 40  1  0
 10 41  1  0
 11 42  1  0
 14 43  1  0
 18 44  1  0
 19 45  1  0
 20 46  1  0
 21 47  1  0
M  CHG  1   8   1
M  END
>  <UniqueID>  (30) 
29

>  <SMILES>  (30) 
CCN(CC)CC[NH2+]c1ccc2c(c1)C(=O)c1ccccc1C2=O

>  <Energy>  (30) 
55.34973554678326

>  <Genealogy>  (30) 
CCN(CC)CC[NH2+]c1ccc2c(c1)C(=O)c1ccccc1C2=O (protonated)
CCN(CC)CC[NH2+]c1ccc2c(c1)C(=O)c1ccccc1C2=O (3D coordinates assigned)
CCN(CC)CC[NH2+]c1ccc2c(c1)C(=O)c1ccccc1C2=O (nonaromatic ring conformer: 55.34973554678326 kcal/mol)

>  <smiles>  (30) 
CCN(CC)CCNc1ccc2c(c1)C(=O)c1ccccc1C2=O

>  <score_type>  (30) 
oracle

>  <origin>  (30) 
adg

>  <m_score__min__energy>  (30) 
-6.1699999999999999

>  <m_primary>  (30) 
energy

$$$$
30:0
     RDKit          3D

 49 50  0  0  0  0  0  0  0  0999 V2000
   62.9770   32.8110   47.3290 C   0  0  0  0  0  0  0  0  0  0  0  0
   62.0240   33.8720   46.7570 C   0  0  0  0  0  0  0  0  0  0  0  0
   60.6040   33.7240   47.1810 N   0  0  0  0  0  0  0  0  0  0  0  0
   59.7890   34.8830   46.7240 C   0  0  0  0  0  0  0  0  0  0  0  0
   59.2820   34.7130   45.2860 C   0  0  0  0  0  0  0  0  0  0  0  0
   60.4430   33.5110   48.6450 C   0  0  0  0  0  0  0  0  0  0  0  0
   59.5870   32.2850   49.0110 C   0  0  0  0  0  0  0  0  0  0  0  0
   58.7530   31.9000   47.9180 O   0  0  0  0  0  0  0  0  0  0  0  0
   59.1580   31.0520   46.8780 C   0  0  0  0  0  0  0  0  0  0  0  0
   60.3630   31.0320   46.5060 O   0  0  0  0  0  0  0  0  0  0  0  0
   58.1710   30.0790   46.2750 C   0  0  0  0  0  0  0  0  0  0  0  0
   58.6630   28.6430   46.3070 C   0  0  0  0  0  0  0  0  0  0  0  0
   57.8440   27.5930   46.7700 C   0  0  0  0  0  0  0  0  0  0  0  0
   58.3350   26.2860   46.8300 C   0  0  0  0  0  0  0  0  0  0  0  0
   59.6490   26.0110   46.4450 C   0  0  0  0  0  0  0  0  0  0  0  0
   60.4760   27.0460   46.0020 C   0  0  0  0  0  0  0  0  0  0  0  0
   59.9900   28.3550   45.9390 C   0  0  0  0  0  0  0  0  0  0  0  0
   57.7770   30.4540   44.8580 C   0  0  0  0  0  0  0  0  0  0  0  0
   56.9240   29.6330   44.0950 C   0  0  0  0  0  0  0  0  0  0  0  0
   56.5500   30.0070   42.8020 C   0  0  0  0  0  0  0  0  0  0  0  0
   57.0100   31.2080   42.2590 C   0  0  0  0  0  0  0  0  0  0  0  0
   57.8430   32.0400   43.0110 C   0  0  0  0  0  0  0  0  0  0  0  0
   58.2230   31.6700   44.3050 C   0  0  0  0  0  0  0  0  0  0  0  0
   62.9464   32.8450   48.4280 H   0  0  0  0  0  0  0  0  0  0  0  0
   62.6652   31.8140   46.9842 H   0  0  0  0  0  0  0  0  0  0  0  0
   64.0016   33.0144   46.9842 H   0  0  0  0  0  0  0  0  0  0  0  0
   62.3776   34.8616   47.0821 H   0  0  0  0  0  0  0  0  0  0  0  0
   62.0375   33.7461   45.6643 H   0  0  0  0  0  0  0  0  0  0  0  0
   60.2460   32.8720   46.6900 H   0  0  0  0  0  0  0  0  0  0  0  0
   58.9227   34.9910   47.3932 H   0  0  0  0  0  0  0  0  0  0  0  0
   60.4323   35.7749   46.7487 H   0  0  0  0  0  0  0  0  0  0  0  0
   58.2392   34.3633   45.3038 H   0  0  0  0  0  0  0  0  0  0  0  0
   59.3361   35.6784   44.7616 H   0  0  0  0  0  0  0  0  0  0  0  0
   59.9072   33.9753   44.7616 H   0  0  0  0  0  0  0  0  0  0  0  0
   61.4417   33.3795   49.0869 H   0  0  0  0  0  0  0  0  0  0  0  0
   59.9175   34.3938   49.0382 H   0  0  0  0  0  0  0  0  0  0  0  0
   60.2508   31.4469   49.2699 H   0  0  0  0  0  0  0  0  0  0  0  0
   58.9464   32.5468   49.8660 H   0  0  0  0  0  0  0  0  0  0  0  0
   57.2783   30.1474   46.9140 H   0  0  0  0  0  0  0  0  0  0  0  0
   56.8117   27.8039   47.0861 H   0  0  0  0  0  0  0  0  0  0  0  0
   57.6846   25.4715   47.1815 H   0  0  0  0  0  0  0  0  0  0  0  0
   60.0322   24.9809   46.4905 H   0  0  0  0  0  0  0  0  0  0  0  0
   61.5121   26.8303   45.7020 H   0  0  0  0  0  0  0  0  0  0  0  0
   60.6503   29.1664   45.5990 H   0  0  0  0  0  0  0  0  0  0  0  0
   56.5495   28.6903   44.5204 H   0  0  0  0  0  0  0  0  0  0  0  0
   55.8917   29.3538   42.2105 H   0  0  0  0  0  0  0  0  0  0  0  0
   56.7167   31.4991   41.2396 H   0  0  0  0  0  0  0  0  0  0  0  0
   58.2009   32.9886   42.5842 H   0  0  0  0  0  0  0  0  0  0  0  0
   58.8740   32.3326   44.8943 H   0  0  0  0  0  0  0  0  0  0  0  0
  1  2  1  0
  2  3  1  0
  3  4  1  0
  4  5  1  0
  3  6  1  0
  6  7  1  0
  7  8  1  0
  8  9  1  0
  9 10  2  0
  9 11  1  0
 11 12  1  0
 12 13  2  0
 13 14  1  0
 14 15  2  0
 15 16  1  0
 16 17  2  0
 11 18  1  0
 18 19  2  0
 19 20  1  0
 20 21  2  0
 21 22  1  0
 22 23  2  0
 17 12  1  0
 23 18  1  0
  1 24  1  0
  1 25  1  0
  1 26  1  0
  2 27  1  0
  2 28  1  0
  3 29  1  0
  4 30  1  0
  4 31  1  0
  5 32  1  0
  5 33  1  0
  5 34  1  0
  6 35  1  0
  6 36  1  0
  7 37  1  0
  7 38  1  0
 11 39  1  0
 13 40  1  0
 14 41  1  0
 15 42  1  0
 16 43  1  0
 17 44  1  0
 19 45  1  0
 20 46  1  0
 21 47  1  0
 22 48  1  0
 23 49  1  0
M  CHG  1   3   1
M  END
>  <UniqueID>  (31) 
30

>  <SMILES>  (31) 
CC[NH+](CC)CCOC(=O)C(c1ccccc1)c1ccccc1

>  <Energy>  (31) 
51.09343268497089

>  <Genealogy>  (31) 
CC[NH+](CC)CCOC(=O)C(c1ccccc1)c1ccccc1 (protonated)
CC[NH+](CC)CCOC(=O)C(c1ccccc1)c1ccccc1 (3D coordinates assigned)
CC[NH+](CC)CCOC(=O)C(c1ccccc1)c1ccccc1 (optimized conformer: 51.09343268497089 kcal/mol)

>  <smiles>  (31) 
CCN(CC)CCOC(=O)C(c1ccccc1)c1ccccc1

>  <score_type>  (31) 
oracle

>  <origin>  (31) 
adg

>  <m_score__min__energy>  (31) 
-4.4500000000000002

>  <m_primary>  (31) 
energy

$$$$
31:0
     RDKit          3D

 39 41  0  0  0  0  0  0  0  0999 V2000
   65.4667   33.5636   48.6407 H   0  0  0  0  0  0  0  0  0  0  0  0
   64.4750   33.0930   48.5700 C   0  0  0  0  0  0  0  0  0  0  0  0
   63.4740   33.1010   47.2210 S   0  0  0  0  0  0  0  0  0  0  0  0
   62.2220   32.2000   47.8990 C   0  0  0  0  0  0  0  0  0  0  0  0
   60.9530   31.8530   47.2110 C   0  0  0  0  0  0  0  0  0  0  0  0
   60.2410   32.8000   46.4420 C   0  0  0  0  0  0  0  0  0  0  0  0
   60.6720   33.9830   46.3740 O   0  0  0  0  0  0  0  0  0  0  0  0
   59.0750   32.4440   45.7950 N   0  0  0  0  0  0  0  0  0  0  0  0
   58.3260   33.4310   44.9640 C   0  0  0  0  0  0  0  0  0  0  0  0
   58.9375   34.3439   44.9119 H   0  0  0  0  0  0  0  0  0  0  0  0
   56.9910   33.8280   45.6130 C   0  0  0  0  0  0  0  0  0  0  0  0
   57.0923   33.7979   46.7079 H   0  0  0  0  0  0  0  0  0  0  0  0
   56.7185   34.8460   45.2978 H   0  0  0  0  0  0  0  0  0  0  0  0
   56.2065   33.1243   45.2978 H   0  0  0  0  0  0  0  0  0  0  0  0
   58.1400   32.9320   43.5250 C   0  0  0  0  0  0  0  0  0  0  0  0
   57.7558   31.9014   43.5411 H   0  0  0  0  0  0  0  0  0  0  0  0
   57.4238   33.5821   43.0012 H   0  0  0  0  0  0  0  0  0  0  0  0
   59.1070   32.9547   43.0012 H   0  0  0  0  0  0  0  0  0  0  0  0
   58.5970   31.1600   45.9380 C   0  0  0  0  0  0  0  0  0  0  0  0
   57.4430   30.7620   45.3340 N   0  0  0  0  0  0  0  0  0  0  0  0
   56.9580   29.4960   45.4700 C   0  0  0  0  0  0  0  0  0  0  0  0
   55.8560   29.1380   44.8840 N   0  0  0  0  0  0  0  0  0  0  0  0
   55.3660   29.7270   43.6400 C   0  0  0  0  0  0  0  0  0  0  0  0
   55.0042   30.7472   43.8358 H   0  0  0  0  0  0  0  0  0  0  0  0
   54.5430   29.1133   43.2451 H   0  0  0  0  0  0  0  0  0  0  0  0
   56.4930   29.7770   42.6190 C   0  0  0  0  0  0  0  0  0  0  0  0
   57.4598   29.8199   43.1419 H   0  0  0  0  0  0  0  0  0  0  0  0
   56.4568   28.8764   41.9885 H   0  0  0  0  0  0  0  0  0  0  0  0
   56.3772   30.6709   41.9885 H   0  0  0  0  0  0  0  0  0  0  0  0
   57.6340   28.5960   46.2270 N   0  0  0  0  0  0  0  0  0  0  0  0
   58.7890   28.9340   46.8550 C   0  0  0  0  0  0  0  0  0  0  0  0
   59.3225   28.1898   47.4646 H   0  0  0  0  0  0  0  0  0  0  0  0
   59.3000   30.2300   46.7260 C   0  0  0  0  0  0  0  0  0  0  0  0
   60.4530   30.5940   47.3420 N   0  0  0  0  0  0  0  0  0  0  0  0
   60.9720   29.8860   47.9090 H   0  0  0  0  0  0  0  0  0  0  0  0
   62.5770   31.8930   49.2110 C   0  0  0  0  0  0  0  0  0  0  0  0
   61.9330   31.3166   49.8914 H   0  0  0  0  0  0  0  0  0  0  0  0
   63.8340   32.3900   49.5790 C   0  0  0  0  0  0  0  0  0  0  0  0
   64.2721   32.2368   50.5763 H   0  0  0  0  0  0  0  0  0  0  0  0
  1  2  1  0
  2  3  1  0
  3  4  1  0
  4  5  1  0
  5  6  1  0
  6  7  2  0
  6  8  1  0
  8  9  1  0
  9 10  1  0
  9 11  1  0
 11 12  1  0
 11 13  1  0
 11 14  1  0
  9 15  1  0
 15 16  1  0
 15 17  1  0
 15 18  1  0
  8 19  1  0
 19 20  2  0
 20 21  1  0
 21 22  2  0
 22 23  1  0
 23 24  1  0
 23 25  1  0
 23 26  1  0
 26 27  1  0
 26 28  1  0
 26 29  1  0
 21 30  1  0
 30 31  1  0
 31 32  1  0
 31 33  2  0
 33 34  1  0
 34 35  1  0
  4 36  2  0
 36 37  1  0
 36 38  1  0
 38 39  1  0
 38  2  2  0
 34  5  2  0
 33 19  1  0
M  CHG  2  30  -1  34   1
M  END
>  <UniqueID>  (32) 
31

>  <SMILES>  (32) 
CC/N=c1\nc2c(c[n-]1)[nH+]c(-c1cccs1)c(=O)n2C(C)C

>  <Energy>  (32) 
75.5563338942202

>  <Genealogy>  (32) 
CCN=c1nc2c(c[n-]1)[nH+]c(-c1cccs1)c(=O)n2C(C)C (protonated)
CC/N=c1\nc2c(c[n-]1)[nH+]c(-c1cccs1)c(=O)n2C(C)C (cis-trans isomerization)
CC/N=c1\nc2c(c[n-]1)[nH+]c(-c1cccs1)c(=O)n2C(C)C (3D coordinates assigned)
CC/N=c1\nc2c(c[n-]1)[nH+]c(-c1cccs1)c(=O)n2C(C)C (optimized conformer: 75.5563338942202 kcal/mol)

>  <smiles>  (32) 
CCN=c1nc2c(c[nH]1)nc(-c1cccs1)c(=O)n2C(C)C

>  <score_type>  (32) 
oracle

>  <origin>  (32) 
adg

>  <m_score__min__energy>  (32) 
-7.5300000000000002

>  <m_primary>  (32) 
energy

$$$$
32:0
     RDKit          3D

 32 33  0  0  0  0  0  0  0  0999 V2000
   62.1246   32.9109   51.6475 H   0  0  0  0  0  0  0  0  0  0  0  0
   62.6520   32.8720   50.6830 C   0  0  0  0  0  0  0  0  0  0  0  0
   63.9540   32.3790   50.6210 C   0  0  0  0  0  0  0  0  0  0  0  0
   64.4570   32.0245   51.5328 H   0  0  0  0  0  0  0  0  0  0  0  0
   64.6130   32.3390   49.3940 C   0  0  0  0  0  0  0  0  0  0  0  0
   65.6393   31.9474   49.3356 H   0  0  0  0  0  0  0  0  0  0  0  0
   63.9910   32.7830   48.2670 N   0  0  0  0  0  0  0  0  0  0  0  0
   64.5210   32.7440   47.3680 H   0  0  0  0  0  0  0  0  0  0  0  0
   62.7140   33.2710   48.2960 C   0  0  0  0  0  0  0  0  0  0  0  0
   62.0130   33.3190   49.5160 C   0  0  0  0  0  0  0  0  0  0  0  0
   60.6260   33.8360   49.5600 C   0  0  0  0  0  0  0  0  0  0  0  0
   60.0810   34.0850   50.6690 O   0  0  0  0  0  0  0  0  0  0  0  0
   59.8200   34.0010   48.3020 C   0  0  2  0  0  0  0  0  0  0  0  0
   59.1614   34.8720   48.4345 H   0  0  0  0  0  0  0  0  0  0  0  0
   58.8800   32.5110   48.0300 Cl  0  0  0  0  0  0  0  0  0  0  0  0
   60.6860   34.2710   47.0880 C   0  0  0  0  0  0  0  0  0  0  0  0
   60.2150   34.8460   46.0160 N   0  0  0  0  0  0  0  0  0  0  0  0
   59.4740   34.1890   44.9420 C   0  0  0  0  0  0  0  0  0  0  0  0
   59.5611   33.0983   45.0553 H   0  0  0  0  0  0  0  0  0  0  0  0
   59.8933   34.5015   43.9743 H   0  0  0  0  0  0  0  0  0  0  0  0
   57.9940   34.5870   44.9970 C   0  0  0  0  0  0  0  0  0  0  0  0
   57.7198   35.0410   44.0333 H   0  0  0  0  0  0  0  0  0  0  0  0
   57.8791   35.2879   45.8369 H   0  0  0  0  0  0  0  0  0  0  0  0
   57.0480   33.4030   45.2640 C   0  0  0  0  0  0  0  0  0  0  0  0
   56.0395   33.6771   44.9209 H   0  0  0  0  0  0  0  0  0  0  0  0
   57.0758   33.1997   46.3447 H   0  0  0  0  0  0  0  0  0  0  0  0
   57.4720   32.1210   44.5500 C   0  0  0  0  0  0  0  0  0  0  0  0
   57.7260   31.3530   45.2954 H   0  0  0  0  0  0  0  0  0  0  0  0
   56.6450   31.7614   43.9202 H   0  0  0  0  0  0  0  0  0  0  0  0
   58.3504   32.3254   43.9202 H   0  0  0  0  0  0  0  0  0  0  0  0
   62.0810   33.7850   47.0640 C   0  0  0  0  0  0  0  0  0  0  0  0
   62.7370   33.8290   45.9880 O   0  0  0  0  0  0  0  0  0  0  0  0
  1  2  1  0
  2  3  2  0
  3  4  1  0
  3  5  1  0
  5  6  1  0
  5  7  2  0
  7  8  1  0
  7  9  1  0
  9 10  2  0
 10 11  1  0
 11 12  2  0
 11 13  1  0
 13 14  1  1
 13 15  1  0
 13 16  1  0
 16 17  2  0
 17 18  1  0
 18 19  1  0
 18 20  1  0
 18 21  1  0
 21 22  1  0
 21 23  1  0
 21 24  1  0
 24 25  1  0
 24 26  1  0
 24 27  1  0
 27 28  1  0
 27 29  1  0
 27 30  1  0
 16 31  1  0
 31 32  2  0
 10  2  1  0
 31  9  1  0
M  CHG  1   7   1
M  END
>  <UniqueID>  (33) 
32

>  <SMILES>  (33) 
CCCC/N=C1/C(=O)c2[nH+]cccc2C(=O)[C@@H]1Cl

>  <Energy>  (33) 
28.90172516772556

>  <Genealogy>  (33) 
CCCCN=C1C(=O)c2[nH+]cccc2C(=O)C1Cl (protonated)
CCCCN=C1C(=O)c2[nH+]cccc2C(=O)[C@@H]1Cl (chirality)
CCCC/N=C1/C(=O)c2[nH+]cccc2C(=O)[C@@H]1Cl (cis-trans isomerization)
CCCC/N=C1/C(=O)c2[nH+]cccc2C(=O)[C@@H]1Cl (3D coordinates assigned)
CCCC/N=C1/C(=O)c2[nH+]cccc2C(=O)[C@@H]1Cl (nonaromatic ring conformer: 28.90172516772556 kcal/mol)

>  <smiles>  (33) 
CCCCN=C1C(=O)c2ncccc2C(=O)C1Cl

>  <score_type>  (33) 
oracle

>  <origin>  (33) 
adg

>  <m_score__min__energy>  (33) 
-4.9900000000000002

>  <m_primary>  (33) 
energy

$$$$
33:0
     RDKit          3D

 32 32  0  0  0  0  0  0  0  0999 V2000
   59.8380   35.3350   46.3260 C   0  0  0  0  0  0  0  0  0  0  0  0
   59.2560   34.7790   45.0260 C   0  0  0  0  0  0  0  0  0  0  0  0
   58.1620   33.8200   45.2990 N   0  0  0  0  0  0  0  0  0  0  0  0
   57.7930   33.8460   46.7330 C   0  0  0  0  0  0  0  0  0  0  0  0
   58.2060   32.5480   47.4260 C   0  0  0  0  0  0  0  0  0  0  0  0
   58.5010   32.4470   44.8410 C   0  0  0  0  0  0  0  0  0  0  0  0
   57.4510   31.9700   43.8380 C   0  0  0  0  0  0  0  0  0  0  0  0
   56.4040   31.2650   44.5020 O   0  0  0  0  0  0  0  0  0  0  0  0
   56.2580   29.8750   44.4450 C   0  0  0  0  0  0  0  0  0  0  0  0
   55.2140   29.3160   44.8770 O   0  0  0  0  0  0  0  0  0  0  0  0
   57.3790   29.0380   43.9160 C   0  0  0  0  0  0  0  0  0  0  0  0
   57.7000   27.8120   44.7590 C   0  0  0  0  0  0  0  0  0  0  0  0
   58.6240   29.0190   44.7910 C   0  0  0  0  0  0  0  0  0  0  0  0
   59.3400   34.8592   47.1837 H   0  0  0  0  0  0  0  0  0  0  0  0
   60.9168   35.1235   46.3648 H   0  0  0  0  0  0  0  0  0  0  0  0
   59.6759   36.4223   46.3648 H   0  0  0  0  0  0  0  0  0  0  0  0
   58.8623   35.6111   44.4238 H   0  0  0  0  0  0  0  0  0  0  0  0
   60.0546   34.2525   44.4828 H   0  0  0  0  0  0  0  0  0  0  0  0
   58.3005   34.6916   47.2202 H   0  0  0  0  0  0  0  0  0  0  0  0
   56.7014   33.9552   46.8131 H   0  0  0  0  0  0  0  0  0  0  0  0
   58.1625   32.6847   48.5166 H   0  0  0  0  0  0  0  0  0  0  0  0
   57.5205   31.7402   47.1301 H   0  0  0  0  0  0  0  0  0  0  0  0
   59.2322   32.2848   47.1301 H   0  0  0  0  0  0  0  0  0  0  0  0
   59.4903   32.4548   44.3602 H   0  0  0  0  0  0  0  0  0  0  0  0
   58.5182   31.7664   45.7050 H   0  0  0  0  0  0  0  0  0  0  0  0
   57.0264   32.8412   43.3177 H   0  0  0  0  0  0  0  0  0  0  0  0
   57.9321   31.2925   43.1172 H   0  0  0  0  0  0  0  0  0  0  0  0
   57.1781   29.2237   42.8506 H   0  0  0  0  0  0  0  0  0  0  0  0
   57.0810   27.5699   45.6355 H   0  0  0  0  0  0  0  0  0  0  0  0
   57.8290   26.7391   44.5536 H   0  0  0  0  0  0  0  0  0  0  0  0
   58.6735   29.6499   45.6907 H   0  0  0  0  0  0  0  0  0  0  0  0
   59.6983   29.1807   44.6184 H   0  0  0  0  0  0  0  0  0  0  0  0
  1  2  1  0
  2  3  1  0
  3  4  1  0
  4  5  1  0
  3  6  1  0
  6  7  1  0
  7  8  1  0
  8  9  1  0
  9 10  2  0
  9 11  1  0
 11 12  1  0
 12 13  1  0
 13 11  1  0
  1 14  1  0
  1 15  1  0
  1 16  1  0
  2 17  1  0
  2 18  1  0
  4 19  1  0
  4 20  1  0
  5 21  1  0
  5 22  1  0
  5 23  1  0
  6 24  1  0
  6 25  1  0
  7 26  1  0
  7 27  1  0
 11 28  1  0
 12 29  1  0
 12 30  1  0
 13 31  1  0
 13 32  1  0
M  END
>  <UniqueID>  (34) 
33

>  <SMILES>  (34) 
CCN(CC)CCOC(=O)C1CC1

>  <Energy>  (34) 
287.48718880119634

>  <Genealogy>  (34) 
CCN(CC)CCOC(=O)C1CC1 (3D coordinates assigned)
CCN(CC)CCOC(=O)C1CC1 (nonaromatic ring conformer: 287.48718880119634 kcal/mol)

>  <smiles>  (34) 
CCN(CC)CCOC(=O)C1CC1

>  <score_type>  (34) 
oracle

>  <origin>  (34) 
adg

>  <m_score__min__energy>  (34) 
-5.0300000000000002

>  <m_primary>  (34) 
energy

$$$$
34:0
     RDKit          3D

 42 44  0  0  0  0  0  0  0  0999 V2000
   64.6508   34.1123   48.6877 H   0  0  0  0  0  0  0  0  0  0  0  0
   63.8330   33.4640   48.3400 C   0  0  0  0  0  0  0  0  0  0  0  0
   63.5430   32.2810   49.0210 C   0  0  0  0  0  0  0  0  0  0  0  0
   64.1345   31.9965   49.9037 H   0  0  0  0  0  0  0  0  0  0  0  0
   62.5010   31.4560   48.5830 C   0  0  0  0  0  0  0  0  0  0  0  0
   62.2792   30.5232   49.1222 H   0  0  0  0  0  0  0  0  0  0  0  0
   61.7340   31.8120   47.4560 C   0  0  0  0  0  0  0  0  0  0  0  0
   60.6290   30.9400   46.9820 C   0  0  0  0  0  0  0  0  0  0  0  0
   60.7080   29.2690   47.1880 S   0  0  0  0  0  0  0  0  0  0  0  0
   59.3460   28.4820   46.5920 C   0  0  0  0  0  0  0  0  0  0  0  0
   59.2520   27.0890   46.6900 C   0  0  0  0  0  0  0  0  0  0  0  0
   60.0686   26.5141   47.1511 H   0  0  0  0  0  0  0  0  0  0  0  0
   58.1250   26.4300   46.2040 C   0  0  0  0  0  0  0  0  0  0  0  0
   58.0517   25.3351   46.2805 H   0  0  0  0  0  0  0  0  0  0  0  0
   57.0910   27.1590   45.6210 C   0  0  0  0  0  0  0  0  0  0  0  0
   56.2013   26.6374   45.2384 H   0  0  0  0  0  0  0  0  0  0  0  0
   57.1790   28.5500   45.5200 C   0  0  0  0  0  0  0  0  0  0  0  0
   56.3536   29.1109   45.0574 H   0  0  0  0  0  0  0  0  0  0  0  0
   58.3130   29.2520   46.0030 C   0  0  0  0  0  0  0  0  0  0  0  0
   58.3840   30.6810   45.8860 C   0  0  0  0  0  0  0  0  0  0  0  0
   57.3710   31.2850   45.3160 N   0  0  0  0  0  0  0  0  0  0  0  0
   57.3900   32.4900   44.4890 C   0  0  0  0  0  0  0  0  0  0  0  0
   56.6239   32.4042   43.7043 H   0  0  0  0  0  0  0  0  0  0  0  0
   58.3851   32.5962   44.0325 H   0  0  0  0  0  0  0  0  0  0  0  0
   57.0990   33.7270   45.3480 C   0  0  0  0  0  0  0  0  0  0  0  0
   56.8029   33.3991   46.3554 H   0  0  0  0  0  0  0  0  0  0  0  0
   56.2920   34.2968   44.8642 H   0  0  0  0  0  0  0  0  0  0  0  0
   58.2820   34.6100   45.4600 N   0  0  0  0  0  0  0  0  0  0  0  0
   59.3350   34.2240   44.5030 C   0  0  0  0  0  0  0  0  0  0  0  0
   60.2289   33.8963   45.0539 H   0  0  0  0  0  0  0  0  0  0  0  0
   58.9717   33.4006   43.8705 H   0  0  0  0  0  0  0  0  0  0  0  0
   59.5900   35.0871   43.8705 H   0  0  0  0  0  0  0  0  0  0  0  0
   58.8230   34.5480   46.8280 C   0  0  0  0  0  0  0  0  0  0  0  0
   58.0004   34.6423   47.5522 H   0  0  0  0  0  0  0  0  0  0  0  0
   59.3341   33.5854   46.9769 H   0  0  0  0  0  0  0  0  0  0  0  0
   59.5386   35.3700   46.9769 H   0  0  0  0  0  0  0  0  0  0  0  0
   59.4890   31.4560   46.3540 C   0  0  0  0  0  0  0  0  0  0  0  0
   59.4403   32.5454   46.2094 H   0  0  0  0  0  0  0  0  0  0  0  0
   62.0430   33.0050   46.7750 C   0  0  0  0  0  0  0  0  0  0  0  0
   61.4598   33.2939   45.8882 H   0  0  0  0  0  0  0  0  0  0  0  0
   63.0850   33.8250   47.2170 C   0  0  0  0  0  0  0  0  0  0  0  0
   63.3164   34.7564   46.6795 H   0  0  0  0  0  0  0  0  0  0  0  0
  1  2  1  0
  2  3  2  0
  3  4  1  0
  3  5  1  0
  5  6  1  0
  5  7  2  0
  7  8  1  0
  8  9  1  0
  9 10  1  0
 10 11  2  0
 11 12  1  0
 11 13  1  0
 13 14  1  0
 13 15  2  0
 15 16  1  0
 15 17  1  0
 17 18  1  0
 17 19  2  0
 19 20  1  0
 20 21  2  0
 21 22  1  0
 22 23  1  0
 22 24  1  0
 22 25  1  0
 25 26  1  0
 25 27  1  0
 25 28  1  0
 28 29  1  0
 29 30  1  0
 29 31  1  0
 29 32  1  0
 28 33  1  0
 33 34  1  0
 33 35  1  0
 33 36  1  0
 20 37  1  0
 37 38  1  0
  7 39  1  0
 39 40  1  0
 39 41  2  0
 41 42  1  0
 41  2  1  0
 37  8  2  0
 19 10  1  0
M  END
>  <UniqueID>  (35) 
34

>  <SMILES>  (35) 
CN(C)CC/N=c1\cc(-c2ccccc2)sc2ccccc12

>  <Energy>  (35) 
58.279511270248136

>  <Genealogy>  (35) 
CN(C)CC/N=c1\cc(-c2ccccc2)sc2ccccc12 (cis-trans isomerization)
CN(C)CC/N=c1\cc(-c2ccccc2)sc2ccccc12 (3D coordinates assigned)
CN(C)CC/N=c1\cc(-c2ccccc2)sc2ccccc12 (optimized conformer: 58.279511270248136 kcal/mol)

>  <smiles>  (35) 
CN(C)CCN=c1cc(-c2ccccc2)sc2ccccc12

>  <score_type>  (35) 
oracle

>  <origin>  (35) 
adg

>  <m_score__min__energy>  (35) 
-7.2599999999999998

>  <m_primary>  (35) 
energy

$$$$
35:0
     RDKit          3D

 49 52  0  0  0  0  0  0  0  0999 V2000
   57.1140   33.4720   46.3570 C   0  0  0  0  0  0  0  0  0  0  0  0
   58.5920   33.5420   46.6540 C   0  0  0  0  0  0  0  0  0  0  0  0
   59.3840   34.3350   45.8160 C   0  0  0  0  0  0  0  0  0  0  0  0
   60.7530   34.4000   46.0170 C   0  0  0  0  0  0  0  0  0  0  0  0
   61.3210   33.7860   47.1370 C   0  0  0  0  0  0  0  0  0  0  0  0
   62.7060   33.8170   47.3590 C   0  0  0  0  0  0  0  0  0  0  0  0
   63.4690   34.3880   46.5300 O   0  0  0  0  0  0  0  0  0  0  0  0
   63.2400   33.1830   48.4900 C   0  0  0  0  0  0  0  0  0  0  0  0
   64.6330   33.1020   48.6860 C   0  0  0  0  0  0  0  0  0  0  0  0
   65.1520   32.4790   49.8200 C   0  0  0  0  0  0  0  0  0  0  0  0
   64.2940   31.9340   50.7710 C   0  0  0  0  0  0  0  0  0  0  0  0
   62.9110   32.0150   50.5990 C   0  0  0  0  0  0  0  0  0  0  0  0
   62.3570   32.6470   49.4600 C   0  0  0  0  0  0  0  0  0  0  0  0
   60.9930   32.7510   49.2840 N   0  0  0  0  0  0  0  0  0  0  0  0
   60.1080   32.6850   50.4630 C   0  0  0  0  0  0  0  0  0  0  0  0
   60.4800   33.1100   48.0520 C   0  0  0  0  0  0  0  0  0  0  0  0
   59.1780   32.8090   47.6680 N   0  0  0  0  0  0  0  0  0  0  0  0
   58.5110   31.5590   48.1320 C   0  0  0  0  0  0  0  0  0  0  0  0
   59.2260   30.2840   47.6390 C   0  0  0  0  0  0  0  0  0  0  0  0
   59.6510   30.3890   46.1670 C   0  0  0  0  0  0  0  0  0  0  0  0
   58.4460   30.3380   45.2680 C   0  0  0  0  0  0  0  0  0  0  0  0
   58.3620   31.1940   44.1570 C   0  0  0  0  0  0  0  0  0  0  0  0
   57.2630   31.1220   43.2960 C   0  0  0  0  0  0  0  0  0  0  0  0
   56.2480   30.1910   43.5310 C   0  0  0  0  0  0  0  0  0  0  0  0
   56.3310   29.3270   44.6270 C   0  0  0  0  0  0  0  0  0  0  0  0
   57.4300   29.3950   45.4910 C   0  0  0  0  0  0  0  0  0  0  0  0
   56.5510   33.4453   47.3017 H   0  0  0  0  0  0  0  0  0  0  0  0
   56.8143   34.3570   45.7764 H   0  0  0  0  0  0  0  0  0  0  0  0
   56.8993   32.5627   45.7764 H   0  0  0  0  0  0  0  0  0  0  0  0
   58.9199   34.9062   44.9985 H   0  0  0  0  0  0  0  0  0  0  0  0
   61.3914   34.9333   45.2973 H   0  0  0  0  0  0  0  0  0  0  0  0
   65.3157   33.5333   47.9391 H   0  0  0  0  0  0  0  0  0  0  0  0
   66.2409   32.4180   49.9634 H   0  0  0  0  0  0  0  0  0  0  0  0
   64.7073   31.4376   51.6614 H   0  0  0  0  0  0  0  0  0  0  0  0
   62.2432   31.5821   51.3584 H   0  0  0  0  0  0  0  0  0  0  0  0
   60.7144   32.7302   51.3796 H   0  0  0  0  0  0  0  0  0  0  0  0
   59.4082   33.5335   50.4441 H   0  0  0  0  0  0  0  0  0  0  0  0
   59.5417   31.7421   50.4441 H   0  0  0  0  0  0  0  0  0  0  0  0
   58.5003   31.5534   49.2319 H   0  0  0  0  0  0  0  0  0  0  0  0
   57.4931   31.5513   47.7150 H   0  0  0  0  0  0  0  0  0  0  0  0
   60.1221   30.1196   48.2555 H   0  0  0  0  0  0  0  0  0  0  0  0
   58.5196   29.4454   47.7273 H   0  0  0  0  0  0  0  0  0  0  0  0
   60.1805   31.3402   46.0097 H   0  0  0  0  0  0  0  0  0  0  0  0
   60.3122   29.5437   45.9255 H   0  0  0  0  0  0  0  0  0  0  0  0
   59.1631   31.9227   43.9642 H   0  0  0  0  0  0  0  0  0  0  0  0
   57.1972   31.7995   42.4319 H   0  0  0  0  0  0  0  0  0  0  0  0
   55.3832   30.1378   42.8533 H   0  0  0  0  0  0  0  0  0  0  0  0
   55.5321   28.5934   44.8104 H   0  0  0  0  0  0  0  0  0  0  0  0
   57.4979   28.7077   46.3472 H   0  0  0  0  0  0  0  0  0  0  0  0
  1  2  1  0
  2  3  2  0
  3  4  1  0
  4  5  2  0
  5  6  1  0
  6  7  2  0
  6  8  1  0
  8  9  2  0
  9 10  1  0
 10 11  2  0
 11 12  1  0
 12 13  2  0
 13 14  1  0
 14 15  1  0
 14 16  1  0
 16 17  2  0
 17 18  1  0
 18 19  1  0
 19 20  1  0
 20 21  1  0
 21 22  2  0
 22 23  1  0
 23 24  2  0
 24 25  1  0
 25 26  2  0
 17  2  1  0
 26 21  1  0
 16  5  1  0
 13  8  1  0
  1 27  1  0
  1 28  1  0
  1 29  1  0
  3 30  1  0
  4 31  1  0
  9 32  1  0
 10 33  1  0
 11 34  1  0
 12 35  1  0
 15 36  1  0
 15 37  1  0
 15 38  1  0
 18 39  1  0
 18 40  1  0
 19 41  1  0
 19 42  1  0
 20 43  1  0
 20 44  1  0
 22 45  1  0
 23 46  1  0
 24 47  1  0
 25 48  1  0
 26 49  1  0
M  CHG  1  17   1
M  END
>  <UniqueID>  (36) 
35

>  <SMILES>  (36) 
Cc1ccc2c(=O)c3ccccc3n(C)c2[n+]1CCCc1ccccc1

>  <Energy>  (36) 
88.10061220358797

>  <Genealogy>  (36) 
Cc1ccc2c(=O)c3ccccc3n(C)c2[n+]1CCCc1ccccc1 (3D coordinates assigned)
Cc1ccc2c(=O)c3ccccc3n(C)c2[n+]1CCCc1ccccc1 (optimized conformer: 88.10061220358797 kcal/mol)

>  <smiles>  (36) 
Cc1ccc2c(=O)c3ccccc3n(C)c2[n+]1CCCc1ccccc1

>  <score_type>  (36) 
oracle

>  <origin>  (36) 
adg

>  <m_score__min__energy>  (36) 
-7.4100000000000001

>  <m_primary>  (36) 
energy

$$$$
36:0
     RDKit          3D

 36 38  0  0  0  0  0  0  0  0999 V2000
   55.1660   26.6360   46.0130 O   0  0  0  0  0  0  0  0  0  0  0  0
   56.4230   26.7250   45.9860 C   0  0  0  0  0  0  0  0  0  0  0  0
   57.0620   27.7850   45.2670 N   0  0  0  0  0  0  0  0  0  0  0  0
   56.3700   28.9870   44.8200 C   0  0  0  0  0  0  0  0  0  0  0  0
   57.1450   30.2100   45.2120 C   0  0  0  0  0  0  0  0  0  0  0  0
   58.3470   30.1040   45.9270 C   0  0  0  0  0  0  0  0  0  0  0  0
   59.0540   31.2620   46.2540 C   0  0  0  0  0  0  0  0  0  0  0  0
   58.5660   32.5140   45.8620 C   0  0  0  0  0  0  0  0  0  0  0  0
   59.4330   33.9870   46.2850 S   0  0  0  0  0  0  0  0  0  0  0  0
   59.6050   34.8450   45.0630 O   0  0  0  0  0  0  0  0  0  0  0  0
   58.6370   34.7480   47.3090 O   0  0  0  0  0  0  0  0  0  0  0  0
   61.0090   33.5800   46.9420 C   0  0  0  0  0  0  0  0  0  0  0  0
   61.1170   32.9870   48.2050 C   0  0  0  0  0  0  0  0  0  0  0  0
   62.3820   32.6780   48.7090 C   0  0  0  0  0  0  0  0  0  0  0  0
   63.5210   32.9630   47.9520 C   0  0  0  0  0  0  0  0  0  0  0  0
   63.3740   33.5570   46.6960 C   0  0  0  0  0  0  0  0  0  0  0  0
   62.1330   33.8500   46.2230 N   0  0  0  0  0  0  0  0  0  0  0  0
   57.3610   32.5790   45.1530 C   0  0  0  0  0  0  0  0  0  0  0  0
   56.6880   31.4390   44.8440 N   0  0  0  0  0  0  0  0  0  0  0  0
   57.2550   25.7450   46.7520 C   0  0  0  0  0  0  0  0  0  0  0  0
   58.5890   25.4000   46.1080 C   0  0  0  0  0  0  0  0  0  0  0  0
   58.5460   26.3190   47.3170 C   0  0  0  0  0  0  0  0  0  0  0  0
   56.2649   28.9594   43.7254 H   0  0  0  0  0  0  0  0  0  0  0  0
   55.3776   29.0254   45.2930 H   0  0  0  0  0  0  0  0  0  0  0  0
   58.7290   29.1171   46.2273 H   0  0  0  0  0  0  0  0  0  0  0  0
   59.9947   31.1908   46.8198 H   0  0  0  0  0  0  0  0  0  0  0  0
   60.2148   32.7666   48.7945 H   0  0  0  0  0  0  0  0  0  0  0  0
   62.4815   32.2111   49.7000 H   0  0  0  0  0  0  0  0  0  0  0  0
   64.5217   32.7226   48.3402 H   0  0  0  0  0  0  0  0  0  0  0  0
   64.2622   33.7877   46.0895 H   0  0  0  0  0  0  0  0  0  0  0  0
   56.9575   33.5549   44.8451 H   0  0  0  0  0  0  0  0  0  0  0  0
   56.4130   25.1652   47.1580 H   0  0  0  0  0  0  0  0  0  0  0  0
   58.9995   24.3840   46.2040 H   0  0  0  0  0  0  0  0  0  0  0  0
   59.0031   25.4715   45.0914 H   0  0  0  0  0  0  0  0  0  0  0  0
   58.9251   25.9682   48.2882 H   0  0  0  0  0  0  0  0  0  0  0  0
   58.9159   27.3311   47.5381 H   0  0  0  0  0  0  0  0  0  0  0  0
  1  2  2  0
  2  3  1  0
  3  4  1  0
  4  5  1  0
  5  6  2  0
  6  7  1  0
  7  8  2  0
  8  9  1  0
  9 10  2  0
  9 11  2  0
  9 12  1  0
 12 13  2  0
 13 14  1  0
 14 15  2  0
 15 16  1  0
 16 17  2  0
  8 18  1  0
 18 19  2  0
  2 20  1  0
 20 21  1  0
 21 22  1  0
 19  5  1  0
 22 20  1  0
 17 12  1  0
  4 23  1  0
  4 24  1  0
  6 25  1  0
  7 26  1  0
 13 27  1  0
 14 28  1  0
 15 29  1  0
 16 30  1  0
 18 31  1  0
 20 32  1  0
 21 33  1  0
 21 34  1  0
 22 35  1  0
 22 36  1  0
M  CHG  1   3  -1
M  END
>  <UniqueID>  (37) 
36

>  <SMILES>  (37) 
O=C([N-]Cc1ccc(S(=O)(=O)c2ccccn2)cn1)C1CC1

>  <Energy>  (37) 
301.1663115841033

>  <Genealogy>  (37) 
O=C([N-]Cc1ccc(S(=O)(=O)c2ccccn2)cn1)C1CC1 (protonated)
O=C([N-]Cc1ccc(S(=O)(=O)c2ccccn2)cn1)C1CC1 (3D coordinates assigned)
O=C([N-]Cc1ccc(S(=O)(=O)c2ccccn2)cn1)C1CC1 (nonaromatic ring conformer: 301.1663115841033 kcal/mol)

>  <smiles>  (37) 
O=C(NCc1ccc(S(=O)(=O)c2ccccn2)cn1)C1CC1

>  <score_type>  (37) 
oracle

>  <origin>  (37) 
adg

>  <m_score__min__energy>  (37) 
-10.68

>  <m_primary>  (37) 
energy

$$$$
37:0
     RDKit          3D

 49 49  0  0  0  0  0  0  0  0999 V2000
   58.5190   34.2230   47.1130 C   0  0  0  0  0  0  0  0  0  0  0  0
   58.1310   32.8130   47.5390 C   0  0  0  0  0  0  0  0  0  0  0  0
   58.0070   31.9800   46.4030 O   0  0  0  0  0  0  0  0  0  0  0  0
   57.5710   32.7270   45.2850 C   0  0  0  0  0  0  0  0  0  0  0  0
   57.3280   31.7900   44.1100 C   0  0  0  0  0  0  0  0  0  0  0  0
   56.2930   30.8870   44.4390 O   0  0  0  0  0  0  0  0  0  0  0  0
   56.6410   29.5870   44.0150 C   0  0  0  0  0  0  0  0  0  0  0  0
   57.0330   28.7660   45.2100 C   0  0  0  0  0  0  0  0  0  0  0  0
   56.2320   27.8800   45.6150 O   0  0  0  0  0  0  0  0  0  0  0  0
   58.2990   28.9560   45.8820 N   0  0  0  0  0  0  0  0  0  0  0  0
   59.3940   29.6700   45.2070 C   0  0  0  0  0  0  0  0  0  0  0  0
   60.6390   29.7490   46.0960 C   0  0  0  0  0  0  0  0  0  0  0  0
   60.2520   30.1240   47.4720 N   0  0  0  0  0  0  0  0  0  0  0  0
   61.4700   30.4250   48.2670 C   0  0  0  0  0  0  0  0  0  0  0  0
   61.9520   31.8790   48.1120 C   0  0  0  0  0  0  0  0  0  0  0  0
   61.1570   32.5900   47.1790 O   0  0  0  0  0  0  0  0  0  0  0  0
   61.8490   33.7090   46.6580 C   0  0  0  0  0  0  0  0  0  0  0  0
   63.3550   33.5360   46.8380 C   0  0  0  0  0  0  0  0  0  0  0  0
   59.4280   29.0610   48.1130 C   0  0  0  0  0  0  0  0  0  0  0  0
   58.5840   28.2240   47.1250 C   0  0  0  0  0  0  0  0  0  0  0  0
   58.6894   34.8421   48.0062 H   0  0  0  0  0  0  0  0  0  0  0  0
   59.4399   34.1843   46.5126 H   0  0  0  0  0  0  0  0  0  0  0  0
   57.7080   34.6609   46.5126 H   0  0  0  0  0  0  0  0  0  0  0  0
   58.9070   32.4074   48.2048 H   0  0  0  0  0  0  0  0  0  0  0  0
   57.1666   32.8485   48.0670 H   0  0  0  0  0  0  0  0  0  0  0  0
   56.6364   33.2501   45.5358 H   0  0  0  0  0  0  0  0  0  0  0  0
   58.3423   33.4626   45.0130 H   0  0  0  0  0  0  0  0  0  0  0  0
   57.0366   32.3767   43.2264 H   0  0  0  0  0  0  0  0  0  0  0  0
   58.2487   31.2302   43.8887 H   0  0  0  0  0  0  0  0  0  0  0  0
   55.7797   29.1204   43.5146 H   0  0  0  0  0  0  0  0  0  0  0  0
   57.4846   29.6413   43.3112 H   0  0  0  0  0  0  0  0  0  0  0  0
   59.6498   29.1382   44.2787 H   0  0  0  0  0  0  0  0  0  0  0  0
   59.0578   30.6944   44.9889 H   0  0  0  0  0  0  0  0  0  0  0  0
   61.1385   28.7691   46.1119 H   0  0  0  0  0  0  0  0  0  0  0  0
   61.3241   30.5093   45.6927 H   0  0  0  0  0  0  0  0  0  0  0  0
   59.6820   31.0020   47.4120 H   0  0  0  0  0  0  0  0  0  0  0  0
   61.2486   30.2415   49.3287 H   0  0  0  0  0  0  0  0  0  0  0  0
   62.2733   29.7729   47.8935 H   0  0  0  0  0  0  0  0  0  0  0  0
   61.8934   32.3816   49.0887 H   0  0  0  0  0  0  0  0  0  0  0  0
   62.9882   31.8630   47.7431 H   0  0  0  0  0  0  0  0  0  0  0  0
   61.6214   33.8089   45.5865 H   0  0  0  0  0  0  0  0  0  0  0  0
   61.5268   34.6108   47.1992 H   0  0  0  0  0  0  0  0  0  0  0  0
   63.5952   33.5084   47.9111 H   0  0  0  0  0  0  0  0  0  0  0  0
   63.6750   32.5952   46.3663 H   0  0  0  0  0  0  0  0  0  0  0  0
   63.8800   34.3797   46.3663 H   0  0  0  0  0  0  0  0  0  0  0  0
   60.1035   28.3798   48.6512 H   0  0  0  0  0  0  0  0  0  0  0  0
   58.7167   29.5733   48.7775 H   0  0  0  0  0  0  0  0  0  0  0  0
   59.1360   27.3054   46.8769 H   0  0  0  0  0  0  0  0  0  0  0  0
   57.6239   27.9944   47.6103 H   0  0  0  0  0  0  0  0  0  0  0  0
  1  2  1  0
  2  3  1  0
  3  4  1  0
  4  5  1  0
  5  6  1  0
  6  7  1  0
  7  8  1  0
  8  9  2  0
  8 10  1  0
 10 11  1  0
 11 12  1  0
 12 13  1  0
 13 14  1  0
 14 15  1  0
 15 16  1  0
 16 17  1  0
 17 18  1  0
 13 19  1  0
 19 20  1  0
 20 10  1  0
  1 21  1  0
  1 22  1  0
  1 23  1  0
  2 24  1  0
  2 25  1  0
  4 26  1  0
  4 27  1  0
  5 28  1  0
  5 29  1  0
  7 30  1  0
  7 31  1  0
 11 32  1  0
 11 33  1  0
 12 34  1  0
 12 35  1  0
 13 36  1  0
 14 37  1  0
 14 38  1  0
 15 39  1  0
 15 40  1  0
 17 41  1  0
 17 42  1  0
 18 43  1  0
 18 44  1  0
 18 45  1  0
 19 46  1  0
 19 47  1  0
 20 48  1  0
 20 49  1  0
M  CHG  1  13   1
M  END
>  <UniqueID>  (38) 
37

>  <SMILES>  (38) 
CCOCCOCC(=O)N1CC[NH+](CCOCC)CC1

>  <Energy>  (38) 
49.47585634658199

>  <Genealogy>  (38) 
CCOCCOCC(=O)N1CC[NH+](CCOCC)CC1 (protonated)
CCOCCOCC(=O)N1CC[NH+](CCOCC)CC1 (3D coordinates assigned)
CCOCCOCC(=O)N1CC[NH+](CCOCC)CC1 (nonaromatic ring conformer: 49.47585634658199 kcal/mol)

>  <smiles>  (38) 
CCOCCOCC(=O)N1CCN(CCOCC)CC1

>  <score_type>  (38) 
oracle

>  <origin>  (38) 
adg

>  <m_score__min__energy>  (38) 
-3.8999999999999999

>  <m_primary>  (38) 
energy

$$$$
38:0
     RDKit          3D

 48 51  0  0  0  0  0  0  0  0999 V2000
   57.7750   28.1610   43.7230 C   0  0  0  0  0  0  0  0  0  0  0  0
   57.9830   29.4340   44.4240 N   0  0  0  0  0  0  0  0  0  0  0  0
   57.3920   30.6560   43.8640 C   0  0  0  0  0  0  0  0  0  0  0  0
   58.7560   29.4830   45.6520 C   0  0  0  0  0  0  0  0  0  0  0  0
   60.1430   29.7400   45.6240 C   0  0  0  0  0  0  0  0  0  0  0  0
   60.8880   29.7850   46.8060 C   0  0  0  0  0  0  0  0  0  0  0  0
   60.2650   29.5850   48.0440 C   0  0  0  0  0  0  0  0  0  0  0  0
   61.0800   29.5940   49.3120 C   0  0  0  0  0  0  0  0  0  0  0  0
   61.0540   30.9290   49.9310 N   0  0  0  0  0  0  0  0  0  0  0  0
   62.2870   31.6360   49.6630 C   0  0  0  0  0  0  0  0  0  0  0  0
   63.4050   31.3840   50.4830 C   0  0  0  0  0  0  0  0  0  0  0  0
   64.5990   32.0810   50.3010 C   0  0  0  0  0  0  0  0  0  0  0  0
   64.6980   33.0490   49.3050 C   0  0  0  0  0  0  0  0  0  0  0  0
   63.6050   33.3160   48.4770 C   0  0  0  0  0  0  0  0  0  0  0  0
   62.4000   32.6080   48.6280 C   0  0  0  0  0  0  0  0  0  0  0  0
   61.2930   32.9400   47.7080 C   0  0  0  0  0  0  0  0  0  0  0  0
   59.9970   32.6510   47.9870 N   0  0  0  0  0  0  0  0  0  0  0  0
   59.1670   33.1280   47.0240 C   0  0  0  0  0  0  0  0  0  0  0  0
   57.7790   32.9760   47.0300 C   0  0  0  0  0  0  0  0  0  0  0  0
   57.0360   33.5240   45.9710 C   0  0  0  0  0  0  0  0  0  0  0  0
   57.6820   34.2160   44.9260 C   0  0  0  0  0  0  0  0  0  0  0  0
   59.0780   34.3660   44.9330 C   0  0  0  0  0  0  0  0  0  0  0  0
   59.7910   33.8110   45.9930 C   0  0  0  0  0  0  0  0  0  0  0  0
   61.4430   33.8370   46.2750 S   0  0  0  0  0  0  0  0  0  0  0  0
   58.8900   29.3170   48.0850 C   0  0  0  0  0  0  0  0  0  0  0  0
   58.1440   29.2700   46.9040 C   0  0  0  0  0  0  0  0  0  0  0  0
   57.6432   27.3543   44.4591 H   0  0  0  0  0  0  0  0  0  0  0  0
   56.8766   28.2322   43.0923 H   0  0  0  0  0  0  0  0  0  0  0  0
   58.6494   27.9426   43.0923 H   0  0  0  0  0  0  0  0  0  0  0  0
   57.0722   31.3172   44.6829 H   0  0  0  0  0  0  0  0  0  0  0  0
   58.1391   31.1742   43.2448 H   0  0  0  0  0  0  0  0  0  0  0  0
   56.5220   30.3921   43.2448 H   0  0  0  0  0  0  0  0  0  0  0  0
   60.6447   29.9071   44.6595 H   0  0  0  0  0  0  0  0  0  0  0  0
   61.9700   29.9787   46.7633 H   0  0  0  0  0  0  0  0  0  0  0  0
   60.6618   28.8600   50.0165 H   0  0  0  0  0  0  0  0  0  0  0  0
   62.1208   29.3347   49.0682 H   0  0  0  0  0  0  0  0  0  0  0  0
   60.2250   31.4700   49.5980 H   0  0  0  0  0  0  0  0  0  0  0  0
   60.9460   30.8220   50.9670 H   0  0  0  0  0  0  0  0  0  0  0  0
   63.3349   30.6268   51.2778 H   0  0  0  0  0  0  0  0  0  0  0  0
   65.4641   31.8657   50.9454 H   0  0  0  0  0  0  0  0  0  0  0  0
   65.6380   33.6041   49.1700 H   0  0  0  0  0  0  0  0  0  0  0  0
   63.6882   34.0886   47.6984 H   0  0  0  0  0  0  0  0  0  0  0  0
   57.2772   32.4379   47.8477 H   0  0  0  0  0  0  0  0  0  0  0  0
   55.9418   33.4123   45.9570 H   0  0  0  0  0  0  0  0  0  0  0  0
   57.0897   34.6401   44.1018 H   0  0  0  0  0  0  0  0  0  0  0  0
   59.5935   34.9060   44.1251 H   0  0  0  0  0  0  0  0  0  0  0  0
   58.3952   29.1427   49.0519 H   0  0  0  0  0  0  0  0  0  0  0  0
   57.0645   29.0640   46.9521 H   0  0  0  0  0  0  0  0  0  0  0  0
  1  2  1  0
  2  3  1  0
  2  4  1  0
  4  5  2  0
  5  6  1  0
  6  7  2  0
  7  8  1  0
  8  9  1  0
  9 10  1  0
 10 11  2  0
 11 12  1  0
 12 13  2  0
 13 14  1  0
 14 15  2  0
 15 16  1  0
 16 17  2  0
 17 18  1  0
 18 19  2  0
 19 20  1  0
 20 21  2  0
 21 22  1  0
 22 23  2  0
 23 24  1  0
  7 25  1  0
 25 26  2  0
 26  4  1  0
 15 10  1  0
 24 16  1  0
 23 18  1  0
  1 27  1  0
  1 28  1  0
  1 29  1  0
  3 30  1  0
  3 31  1  0
  3 32  1  0
  5 33  1  0
  6 34  1  0
  8 35  1  0
  8 36  1  0
  9 37  1  0
  9 38  1  0
 11 39  1  0
 12 40  1  0
 13 41  1  0
 14 42  1  0
 19 43  1  0
 20 44  1  0
 21 45  1  0
 22 46  1  0
 25 47  1  0
 26 48  1  0
M  CHG  1   9   1
M  END
>  <UniqueID>  (39) 
38

>  <SMILES>  (39) 
CN(C)c1ccc(C[NH2+]c2ccccc2-c2nc3ccccc3s2)cc1

>  <Energy>  (39) 
94.89272132994671

>  <Genealogy>  (39) 
CN(C)c1ccc(C[NH2+]c2ccccc2-c2nc3ccccc3s2)cc1 (protonated)
CN(C)c1ccc(C[NH2+]c2ccccc2-c2nc3ccccc3s2)cc1 (3D coordinates assigned)
CN(C)c1ccc(C[NH2+]c2ccccc2-c2nc3ccccc3s2)cc1 (optimized conformer: 94.89272132994671 kcal/mol)

>  <smiles>  (39) 
CN(C)c1ccc(CNc2ccccc2-c2nc3ccccc3s2)cc1

>  <score_type>  (39) 
oracle

>  <origin>  (39) 
adg

>  <m_score__min__energy>  (39) 
-6.5800000000000001

>  <m_primary>  (39) 
energy

$$$$
39:0
     RDKit          3D

 47 48  0  0  0  0  0  0  0  0999 V2000
   56.2030   22.9970   48.0510 C   0  0  0  0  0  0  0  0  0  0  0  0
   57.3790   23.0920   47.2540 O   0  0  0  0  0  0  0  0  0  0  0  0
   57.5480   24.0000   46.1980 C   0  0  0  0  0  0  0  0  0  0  0  0
   57.0760   23.7420   44.8970 C   0  0  0  0  0  0  0  0  0  0  0  0
   57.2700   24.6800   43.8780 C   0  0  0  0  0  0  0  0  0  0  0  0
   57.9350   25.8880   44.1420 C   0  0  0  0  0  0  0  0  0  0  0  0
   58.1690   26.8920   43.0380 C   0  0  0  0  0  0  0  0  0  0  0  0
   57.5450   28.1940   43.3350 N   0  0  0  0  0  0  0  0  0  0  0  0
   58.3130   28.9550   44.3400 C   0  0  0  0  0  0  0  0  0  0  0  0
   57.4130   29.7240   45.3360 C   0  0  2  0  0  0  0  0  0  0  0  0
   56.0780   29.7280   44.8900 O   0  0  0  0  0  0  0  0  0  0  0  0
   57.9350   31.1550   45.6390 C   0  0  0  0  0  0  0  0  0  0  0  0
   56.9460   32.2110   45.3520 N   0  0  0  0  0  0  0  0  0  0  0  0
   57.5390   33.5370   45.1290 C   0  0  0  0  0  0  0  0  0  0  0  0
   58.6750   33.7930   46.0840 C   0  0  0  0  0  0  0  0  0  0  0  0
   58.4340   33.8380   47.4670 C   0  0  0  0  0  0  0  0  0  0  0  0
   59.4880   34.0640   48.3590 C   0  0  0  0  0  0  0  0  0  0  0  0
   60.7860   34.2480   47.8760 C   0  0  0  0  0  0  0  0  0  0  0  0
   61.0340   34.2010   46.5000 C   0  0  0  0  0  0  0  0  0  0  0  0
   59.9840   33.9730   45.6070 C   0  0  0  0  0  0  0  0  0  0  0  0
   58.4090   26.1400   45.4380 C   0  0  0  0  0  0  0  0  0  0  0  0
   58.2150   25.2040   46.4560 C   0  0  0  0  0  0  0  0  0  0  0  0
   56.4788   23.0193   49.1156 H   0  0  0  0  0  0  0  0  0  0  0  0
   55.5385   23.8444   47.8266 H   0  0  0  0  0  0  0  0  0  0  0  0
   55.6831   22.0539   47.8266 H   0  0  0  0  0  0  0  0  0  0  0  0
   56.5526   22.7989   44.6811 H   0  0  0  0  0  0  0  0  0  0  0  0
   56.8994   24.4701   42.8638 H   0  0  0  0  0  0  0  0  0  0  0  0
   59.2523   27.0373   42.9137 H   0  0  0  0  0  0  0  0  0  0  0  0
   57.7125   26.4982   42.1179 H   0  0  0  0  0  0  0  0  0  0  0  0
   56.5660   28.0370   43.6700 H   0  0  0  0  0  0  0  0  0  0  0  0
   57.5070   28.7350   42.4410 H   0  0  0  0  0  0  0  0  0  0  0  0
   58.9413   28.2520   44.9066 H   0  0  0  0  0  0  0  0  0  0  0  0
   58.9144   29.7000   43.7984 H   0  0  0  0  0  0  0  0  0  0  0  0
   57.4514   29.1884   46.2960 H   0  0  0  0  0  0  0  0  0  0  0  0
   55.6360   30.5400   45.2510 H   0  0  0  0  0  0  0  0  0  0  0  0
   58.2048   31.2098   46.7040 H   0  0  0  0  0  0  0  0  0  0  0  0
   58.7995   31.3318   44.9821 H   0  0  0  0  0  0  0  0  0  0  0  0
   56.3800   31.9460   44.5110 H   0  0  0  0  0  0  0  0  0  0  0  0
   57.9179   33.5918   44.0978 H   0  0  0  0  0  0  0  0  0  0  0  0
   56.7634   34.2984   45.2982 H   0  0  0  0  0  0  0  0  0  0  0  0
   57.4129   33.6950   47.8502 H   0  0  0  0  0  0  0  0  0  0  0  0
   59.2945   34.0968   49.4414 H   0  0  0  0  0  0  0  0  0  0  0  0
   61.6132   34.4299   48.5779 H   0  0  0  0  0  0  0  0  0  0  0  0
   62.0567   34.3437   46.1208 H   0  0  0  0  0  0  0  0  0  0  0  0
   60.1831   33.9343   44.5259 H   0  0  0  0  0  0  0  0  0  0  0  0
   58.9368   27.0807   45.6537 H   0  0  0  0  0  0  0  0  0  0  0  0
   58.5892   25.4142   47.4688 H   0  0  0  0  0  0  0  0  0  0  0  0
  1  2  1  0
  2  3  1  0
  3  4  2  0
  4  5  1  0
  5  6  2  0
  6  7  1  0
  7  8  1  0
  8  9  1  0
  9 10  1  0
 10 11  1  0
 10 12  1  0
 12 13  1  0
 13 14  1  0
 14 15  1  0
 15 16  2  0
 16 17  1  0
 17 18  2  0
 18 19  1  0
 19 20  2  0
  6 21  1  0
 21 22  2  0
 22  3  1  0
 20 15  1  0
  1 23  1  0
  1 24  1  0
  1 25  1  0
  4 26  1  0
  5 27  1  0
  7 28  1  0
  7 29  1  0
  8 30  1  0
  8 31  1  0
  9 32  1  0
  9 33  1  0
 10 34  1  1
 11 35  1  0
 12 36  1  0
 12 37  1  0
 13 38  1  0
 14 39  1  0
 14 40  1  0
 16 41  1  0
 17 42  1  0
 18 43  1  0
 19 44  1  0
 20 45  1  0
 21 46  1  0
 22 47  1  0
M  CHG  1   8   1
M  END
>  <UniqueID>  (40) 
39

>  <SMILES>  (40) 
COc1ccc(C[NH2+]C[C@H](O)CNCc2ccccc2)cc1

>  <Energy>  (40) 
47.25238541414008

>  <Genealogy>  (40) 
COc1ccc(C[NH2+]CC(O)CNCc2ccccc2)cc1 (protonated)
COc1ccc(C[NH2+]C[C@H](O)CNCc2ccccc2)cc1 (chirality)
COc1ccc(C[NH2+]C[C@H](O)CNCc2ccccc2)cc1 (3D coordinates assigned)
COc1ccc(C[NH2+]C[C@H](O)CNCc2ccccc2)cc1 (optimized conformer: 47.25238541414008 kcal/mol)

>  <smiles>  (40) 
COc1ccc(CNCC(O)CNCc2ccccc2)cc1

>  <score_type>  (40) 
oracle

>  <origin>  (40) 
adg

>  <m_score__min__energy>  (40) 
-6.0999999999999996

>  <m_primary>  (40) 
energy

$$$$
40:0
     RDKit          3D

 49 52  0  0  0  0  0  0  0  0999 V2000
   58.1050   27.0390   44.6650 C   0  0  0  0  0  0  0  0  0  0  0  0
   58.0500   27.7680   45.8860 O   0  0  0  0  0  0  0  0  0  0  0  0
   58.3560   29.1320   46.0250 C   0  0  0  0  0  0  0  0  0  0  0  0
   59.5380   29.5450   46.6680 C   0  0  0  0  0  0  0  0  0  0  0  0
   59.8400   30.9010   46.8190 C   0  0  0  0  0  0  0  0  0  0  0  0
   61.0720   31.3080   47.5290 C   0  0  0  0  0  0  0  0  0  0  0  0
   62.0010   32.1430   47.0030 N   0  0  0  0  0  0  0  0  0  0  0  0
   62.9080   32.3130   47.9840 C   0  0  0  0  0  0  0  0  0  0  0  0
   64.0570   33.0980   47.9330 C   0  0  0  0  0  0  0  0  0  0  0  0
   64.8570   33.1330   49.0380 N   0  0  0  0  0  0  0  0  0  0  0  0
   64.5530   32.4250   50.1690 C   0  0  0  0  0  0  0  0  0  0  0  0
   63.3900   31.6400   50.2060 C   0  0  0  0  0  0  0  0  0  0  0  0
   62.6070   31.6260   49.0980 N   0  0  0  0  0  0  0  0  0  0  0  0
   61.4630   30.9740   48.8290 C   0  0  0  0  0  0  0  0  0  0  0  0
   60.8070   30.0830   49.7460 N   0  0  0  0  0  0  0  0  0  0  0  0
   59.5970   30.4070   50.4520 C   0  0  0  0  0  0  0  0  0  0  0  0
   58.9740   31.6420   50.2210 C   0  0  0  0  0  0  0  0  0  0  0  0
   57.7810   31.9660   50.8750 C   0  0  0  0  0  0  0  0  0  0  0  0
   57.2110   31.0630   51.7770 C   0  0  0  0  0  0  0  0  0  0  0  0
   57.8370   29.8410   52.0330 C   0  0  0  0  0  0  0  0  0  0  0  0
   59.0300   29.5150   51.3810 C   0  0  0  0  0  0  0  0  0  0  0  0
   58.9710   31.8620   46.2920 C   0  0  0  0  0  0  0  0  0  0  0  0
   57.7810   31.4770   45.6540 C   0  0  0  0  0  0  0  0  0  0  0  0
   56.8760   32.4210   45.1400 O   0  0  0  0  0  0  0  0  0  0  0  0
   57.0360   33.8320   45.2400 C   0  0  0  0  0  0  0  0  0  0  0  0
   57.4650   30.1140   45.5170 C   0  0  0  0  0  0  0  0  0  0  0  0
   56.2530   29.8090   44.8680 O   0  0  0  0  0  0  0  0  0  0  0  0
   56.0240   29.7820   43.4640 C   0  0  0  0  0  0  0  0  0  0  0  0
   58.1861   25.9639   44.8832 H   0  0  0  0  0  0  0  0  0  0  0  0
   57.1901   27.2272   44.0840 H   0  0  0  0  0  0  0  0  0  0  0  0
   58.9813   27.3624   44.0840 H   0  0  0  0  0  0  0  0  0  0  0  0
   60.2350   28.7885   47.0578 H   0  0  0  0  0  0  0  0  0  0  0  0
   61.9990   32.5870   46.0570 H   0  0  0  0  0  0  0  0  0  0  0  0
   64.3119   33.6721   47.0300 H   0  0  0  0  0  0  0  0  0  0  0  0
   65.2169   32.4709   51.0449 H   0  0  0  0  0  0  0  0  0  0  0  0
   63.1232   31.0577   51.1003 H   0  0  0  0  0  0  0  0  0  0  0  0
   61.2270   29.1380   49.8910 H   0  0  0  0  0  0  0  0  0  0  0  0
   59.4264   32.3601   49.5213 H   0  0  0  0  0  0  0  0  0  0  0  0
   57.2913   32.9314   50.6796 H   0  0  0  0  0  0  0  0  0  0  0  0
   56.2687   31.3150   52.2856 H   0  0  0  0  0  0  0  0  0  0  0  0
   57.3909   29.1344   52.7483 H   0  0  0  0  0  0  0  0  0  0  0  0
   59.5274   28.5575   51.5950 H   0  0  0  0  0  0  0  0  0  0  0  0
   59.2223   32.9294   46.3782 H   0  0  0  0  0  0  0  0  0  0  0  0
   57.0690   34.1230   46.3003 H   0  0  0  0  0  0  0  0  0  0  0  0
   57.9737   34.1304   44.7485 H   0  0  0  0  0  0  0  0  0  0  0  0
   56.1889   34.3328   44.7485 H   0  0  0  0  0  0  0  0  0  0  0  0
   54.9486   29.6552   43.2703 H   0  0  0  0  0  0  0  0  0  0  0  0
   56.3680   30.7269   43.0181 H   0  0  0  0  0  0  0  0  0  0  0  0
   56.5783   28.9430   43.0181 H   0  0  0  0  0  0  0  0  0  0  0  0
  1  2  1  0
  2  3  1  0
  3  4  2  0
  4  5  1  0
  5  6  1  0
  6  7  1  0
  7  8  2  0
  8  9  1  0
  9 10  2  0
 10 11  1  0
 11 12  2  0
 12 13  1  0
 13 14  1  0
 14 15  1  0
 15 16  1  0
 16 17  2  0
 17 18  1  0
 18 19  2  0
 19 20  1  0
 20 21  2  0
  5 22  2  0
 22 23  1  0
 23 24  1  0
 24 25  1  0
 23 26  2  0
 26 27  1  0
 27 28  1  0
 26  3  1  0
 14  6  2  0
 21 16  1  0
 13  8  1  0
  1 29  1  0
  1 30  1  0
  1 31  1  0
  4 32  1  0
  7 33  1  0
  9 34  1  0
 11 35  1  0
 12 36  1  0
 15 37  1  0
 17 38  1  0
 18 39  1  0
 19 40  1  0
 20 41  1  0
 21 42  1  0
 22 43  1  0
 25 44  1  0
 25 45  1  0
 25 46  1  0
 28 47  1  0
 28 48  1  0
 28 49  1  0
M  CHG  1   7   1
M  END
>  <UniqueID>  (41) 
40

>  <SMILES>  (41) 
COc1cc(-c2[nH+]c3cnccn3c2Nc2ccccc2)cc(OC)c1OC

>  <Energy>  (41) 
100.8795274292563

>  <Genealogy>  (41) 
COc1cc(-c2[nH+]c3cnccn3c2Nc2ccccc2)cc(OC)c1OC (protonated)
COc1cc(-c2[nH+]c3cnccn3c2Nc2ccccc2)cc(OC)c1OC (3D coordinates assigned)
COc1cc(-c2[nH+]c3cnccn3c2Nc2ccccc2)cc(OC)c1OC (optimized conformer: 100.8795274292563 kcal/mol)

>  <smiles>  (41) 
COc1cc(-c2nc3cnccn3c2Nc2ccccc2)cc(OC)c1OC

>  <score_type>  (41) 
oracle

>  <origin>  (41) 
adg

>  <m_score__min__energy>  (41) 
-5.3300000000000001

>  <m_primary>  (41) 
energy

$$$$
41:0
     RDKit          3D

 45 47  0  0  0  0  0  0  0  0999 V2000
   63.3980   32.1510   47.3770 C   0  0  0  0  0  0  0  0  0  0  0  0
   62.1660   31.6400   48.1160 C   0  0  0  0  0  0  0  0  0  0  0  0
   61.0560   31.5180   47.2260 O   0  0  0  0  0  0  0  0  0  0  0  0
   60.3320   32.5810   46.6590 C   0  0  0  0  0  0  0  0  0  0  0  0
   60.7090   33.9270   46.8520 C   0  0  0  0  0  0  0  0  0  0  0  0
   59.9590   34.9620   46.2930 C   0  0  0  0  0  0  0  0  0  0  0  0
   58.8290   34.6750   45.5290 C   0  0  0  0  0  0  0  0  0  0  0  0
   58.4450   33.3500   45.3200 C   0  0  0  0  0  0  0  0  0  0  0  0
   59.1870   32.2920   45.8780 C   0  0  0  0  0  0  0  0  0  0  0  0
   58.7720   30.8870   45.6310 C   0  0  0  0  0  0  0  0  0  0  0  0
   58.5040   30.0080   46.6860 C   0  0  0  0  0  0  0  0  0  0  0  0
   58.1120   28.7020   46.4050 C   0  0  0  0  0  0  0  0  0  0  0  0
   57.9950   28.2860   45.0730 C   0  0  0  0  0  0  0  0  0  0  0  0
   57.5900   26.8950   44.7450 C   0  0  0  0  0  0  0  0  0  0  0  0
   57.7750   26.3890   43.4460 C   0  0  0  0  0  0  0  0  0  0  0  0
   57.3940   25.0810   43.1350 C   0  0  0  0  0  0  0  0  0  0  0  0
   56.8320   24.2590   44.1180 C   0  0  0  0  0  0  0  0  0  0  0  0
   56.3330   22.5820   43.7100 S   0  0  0  0  0  0  0  0  0  0  0  0
   58.0250   21.8880   43.7470 C   0  0  0  0  0  0  0  0  0  0  0  0
   58.7920   22.3730   44.9700 C   0  0  0  0  0  0  0  0  0  0  0  0
   56.6330   24.7570   45.4100 C   0  0  0  0  0  0  0  0  0  0  0  0
   57.0130   26.0650   45.7240 C   0  0  0  0  0  0  0  0  0  0  0  0
   58.2710   29.1820   44.0800 N   0  0  0  0  0  0  0  0  0  0  0  0
   58.6420   30.4330   44.3550 N   0  0  0  0  0  0  0  0  0  0  0  0
   64.1585   32.4664   48.1064 H   0  0  0  0  0  0  0  0  0  0  0  0
   63.8062   31.3480   46.7457 H   0  0  0  0  0  0  0  0  0  0  0  0
   63.1180   33.0072   46.7457 H   0  0  0  0  0  0  0  0  0  0  0  0
   62.3893   30.6548   48.5514 H   0  0  0  0  0  0  0  0  0  0  0  0
   61.9063   32.3581   48.9077 H   0  0  0  0  0  0  0  0  0  0  0  0
   61.6026   34.1624   47.4488 H   0  0  0  0  0  0  0  0  0  0  0  0
   60.2602   36.0074   46.4556 H   0  0  0  0  0  0  0  0  0  0  0  0
   58.2396   35.4937   45.0905 H   0  0  0  0  0  0  0  0  0  0  0  0
   57.5540   33.1301   44.7135 H   0  0  0  0  0  0  0  0  0  0  0  0
   58.6022   30.3458   47.7282 H   0  0  0  0  0  0  0  0  0  0  0  0
   57.8954   28.0010   47.2245 H   0  0  0  0  0  0  0  0  0  0  0  0
   58.2225   27.0270   42.6697 H   0  0  0  0  0  0  0  0  0  0  0  0
   57.5363   24.6964   42.1143 H   0  0  0  0  0  0  0  0  0  0  0  0
   57.9621   20.7902   43.7749 H   0  0  0  0  0  0  0  0  0  0  0  0
   58.5589   22.2228   42.8454 H   0  0  0  0  0  0  0  0  0  0  0  0
   58.2727   22.0447   45.8824 H   0  0  0  0  0  0  0  0  0  0  0  0
   59.8086   21.9532   44.9555 H   0  0  0  0  0  0  0  0  0  0  0  0
   58.8486   23.4714   44.9555 H   0  0  0  0  0  0  0  0  0  0  0  0
   56.1766   24.1180   46.1803 H   0  0  0  0  0  0  0  0  0  0  0  0
   56.8599   26.4483   46.7436 H   0  0  0  0  0  0  0  0  0  0  0  0
   58.1730   28.9050   43.0780 H   0  0  0  0  0  0  0  0  0  0  0  0
  1  2  1  0
  2  3  1  0
  3  4  1  0
  4  5  2  0
  5  6  1  0
  6  7  2  0
  7  8  1  0
  8  9  2  0
  9 10  1  0
 10 11  2  0
 11 12  1  0
 12 13  2  0
 13 14  1  0
 14 15  2  0
 15 16  1  0
 16 17  2  0
 17 18  1  0
 18 19  1  0
 19 20  1  0
 17 21  1  0
 21 22  2  0
 13 23  1  0
 23 24  2  0
  9  4  1  0
 24 10  1  0
 22 14  1  0
  1 25  1  0
  1 26  1  0
  1 27  1  0
  2 28  1  0
  2 29  1  0
  5 30  1  0
  6 31  1  0
  7 32  1  0
  8 33  1  0
 11 34  1  0
 12 35  1  0
 15 36  1  0
 16 37  1  0
 19 38  1  0
 19 39  1  0
 20 40  1  0
 20 41  1  0
 20 42  1  0
 21 43  1  0
 22 44  1  0
 23 45  1  0
M  CHG  1  23   1
M  END
>  <UniqueID>  (42) 
41

>  <SMILES>  (42) 
CCOc1ccccc1-c1ccc(-c2ccc(SCC)cc2)[nH+]n1

>  <Energy>  (42) 
49.59858695640886

>  <Genealogy>  (42) 
CCOc1ccccc1-c1ccc(-c2ccc(SCC)cc2)[nH+]n1 (protonated)
CCOc1ccccc1-c1ccc(-c2ccc(SCC)cc2)[nH+]n1 (3D coordinates assigned)
CCOc1ccccc1-c1ccc(-c2ccc(SCC)cc2)[nH+]n1 (optimized conformer: 49.59858695640886 kcal/mol)

>  <smiles>  (42) 
CCOc1ccccc1-c1ccc(-c2ccc(SCC)cc2)nn1

>  <score_type>  (42) 
oracle

>  <origin>  (42) 
adg

>  <m_score__min__energy>  (42) 
-6.5499999999999998

>  <m_primary>  (42) 
energy

$$$$
42:0
     RDKit          3D

 46 48  0  0  0  0  0  0  0  0999 V2000
   56.3010   23.2480   42.9880 C   0  0  0  0  0  0  0  0  0  0  0  0
   56.6050   23.2310   44.4810 C   0  0  0  0  0  0  0  0  0  0  0  0
   56.6600   24.6140   45.0030 N   0  0  0  0  0  0  0  0  0  0  0  0
   55.6820   24.8310   46.0920 C   0  0  0  0  0  0  0  0  0  0  0  0
   56.2620   24.4310   47.4450 C   0  0  0  0  0  0  0  0  0  0  0  0
   58.0410   25.0320   45.3370 C   0  0  0  0  0  0  0  0  0  0  0  0
   58.5180   26.3100   44.5980 C   0  0  0  0  0  0  0  0  0  0  0  0
   57.3980   27.1400   44.1270 N   0  0  0  0  0  0  0  0  0  0  0  0
   57.6090   28.5450   44.3820 C   0  0  0  0  0  0  0  0  0  0  0  0
   57.0370   29.5180   43.5240 C   0  0  0  0  0  0  0  0  0  0  0  0
   57.2730   30.8840   43.7300 C   0  0  0  0  0  0  0  0  0  0  0  0
   58.0690   31.2570   44.8090 C   0  0  0  0  0  0  0  0  0  0  0  0
   58.6160   30.3260   45.6710 C   0  0  0  0  0  0  0  0  0  0  0  0
   58.4020   28.9600   45.4760 C   0  0  0  0  0  0  0  0  0  0  0  0
   59.4490   30.9850   46.7350 C   0  0  0  0  0  0  0  0  0  0  0  0
   59.3110   32.4300   46.3400 C   0  0  0  0  0  0  0  0  0  0  0  0
   59.9010   33.5450   46.9440 C   0  0  0  0  0  0  0  0  0  0  0  0
   59.6620   34.8170   46.3910 C   0  0  0  0  0  0  0  0  0  0  0  0
   58.8430   34.9550   45.2520 C   0  0  0  0  0  0  0  0  0  0  0  0
   58.2560   33.8230   44.6560 C   0  0  0  0  0  0  0  0  0  0  0  0
   58.5060   32.5730   45.2260 C   0  0  0  0  0  0  0  0  0  0  0  0
   55.2133   23.3088   42.8360 H   0  0  0  0  0  0  0  0  0  0  0  0
   56.7853   24.1205   42.5251 H   0  0  0  0  0  0  0  0  0  0  0  0
   56.6850   22.3270   42.5251 H   0  0  0  0  0  0  0  0  0  0  0  0
   55.8153   22.6745   45.0070 H   0  0  0  0  0  0  0  0  0  0  0  0
   57.5778   22.7446   44.6454 H   0  0  0  0  0  0  0  0  0  0  0  0
   55.4076   25.8958   46.1204 H   0  0  0  0  0  0  0  0  0  0  0  0
   54.7981   24.2067   45.8946 H   0  0  0  0  0  0  0  0  0  0  0  0
   55.6442   24.8571   48.2492 H   0  0  0  0  0  0  0  0  0  0  0  0
   56.2701   23.3344   47.5307 H   0  0  0  0  0  0  0  0  0  0  0  0
   57.2899   24.8131   47.5307 H   0  0  0  0  0  0  0  0  0  0  0  0
   58.0914   25.2210   46.4195 H   0  0  0  0  0  0  0  0  0  0  0  0
   58.7038   24.2157   45.0141 H   0  0  0  0  0  0  0  0  0  0  0  0
   59.1339   26.9067   45.2870 H   0  0  0  0  0  0  0  0  0  0  0  0
   59.0918   25.9911   43.7154 H   0  0  0  0  0  0  0  0  0  0  0  0
   56.5100   26.8130   44.5740 H   0  0  0  0  0  0  0  0  0  0  0  0
   57.2910   26.9970   43.0960 H   0  0  0  0  0  0  0  0  0  0  0  0
   56.4003   29.1969   42.6865 H   0  0  0  0  0  0  0  0  0  0  0  0
   56.8412   31.6401   43.0578 H   0  0  0  0  0  0  0  0  0  0  0  0
   58.8424   28.2206   46.1611 H   0  0  0  0  0  0  0  0  0  0  0  0
   59.0437   30.7990   47.7406 H   0  0  0  0  0  0  0  0  0  0  0  0
   60.4864   30.6238   46.7924 H   0  0  0  0  0  0  0  0  0  0  0  0
   60.5387   33.4302   47.8329 H   0  0  0  0  0  0  0  0  0  0  0  0
   60.1164   35.7076   46.8497 H   0  0  0  0  0  0  0  0  0  0  0  0
   58.6616   35.9530   44.8265 H   0  0  0  0  0  0  0  0  0  0  0  0
   57.6177   33.9204   43.7654 H   0  0  0  0  0  0  0  0  0  0  0  0
  1  2  1  0
  2  3  1  0
  3  4  1  0
  4  5  1  0
  3  6  1  0
  6  7  1  0
  7  8  1  0
  8  9  1  0
  9 10  2  0
 10 11  1  0
 11 12  2  0
 12 13  1  0
 13 14  2  0
 13 15  1  0
 15 16  1  0
 16 17  2  0
 17 18  1  0
 18 19  2  0
 19 20  1  0
 20 21  2  0
 14  9  1  0
 21 16  1  0
 21 12  1  0
  1 22  1  0
  1 23  1  0
  1 24  1  0
  2 25  1  0
  2 26  1  0
  4 27  1  0
  4 28  1  0
  5 29  1  0
  5 30  1  0
  5 31  1  0
  6 32  1  0
  6 33  1  0
  7 34  1  0
  7 35  1  0
  8 36  1  0
  8 37  1  0
 10 38  1  0
 11 39  1  0
 14 40  1  0
 15 41  1  0
 15 42  1  0
 17 43  1  0
 18 44  1  0
 19 45  1  0
 20 46  1  0
M  CHG  1   8   1
M  END
>  <UniqueID>  (43) 
42

>  <SMILES>  (43) 
CCN(CC)CC[NH2+]c1ccc2c(c1)Cc1ccccc1-2

>  <Energy>  (43) 
72.06490460310401

>  <Genealogy>  (43) 
CCN(CC)CC[NH2+]c1ccc2c(c1)Cc1ccccc1-2 (protonated)
CCN(CC)CC[NH2+]c1ccc2c(c1)Cc1ccccc1-2 (3D coordinates assigned)
CCN(CC)CC[NH2+]c1ccc2c(c1)Cc1ccccc1-2 (nonaromatic ring conformer: 72.06490460310401 kcal/mol)

>  <smiles>  (43) 
CCN(CC)CCNc1ccc2c(c1)Cc1ccccc1-2

>  <score_type>  (43) 
oracle

>  <origin>  (43) 
adg

>  <m_score__min__energy>  (43) 
-5.8799999999999999

>  <m_primary>  (43) 
energy

$$$$
