0:0
     RDKit          3D

 69 72  0  0  0  0  0  0  0  0999 V2000
   56.5410   30.4850   52.4200 C   0  0  0  0  0  0  0  0  0  0  0  0
   57.0480   31.6710   51.5940 C   0  0  0  0  0  0  0  0  0  0  0  0
   58.5160   31.7300   51.5360 N   0  0  0  0  0  0  0  0  0  0  0  0
   59.1360   30.4010   51.6160 C   0  0  0  0  0  0  0  0  0  0  0  0
   59.1380   29.7320   50.2400 C   0  0  0  0  0  0  0  0  0  0  0  0
   59.8680   30.5270   49.2540 N   0  0  0  0  0  0  0  0  0  0  0  0
   59.3220   30.7150   47.9400 C   0  0  0  0  0  0  0  0  0  0  0  0
   58.9320   29.5900   47.1950 C   0  0  0  0  0  0  0  0  0  0  0  0
   58.9480   28.3020   47.7720 C   0  0  0  0  0  0  0  0  0  0  0  0
   58.5140   27.1930   47.0490 C   0  0  0  0  0  0  0  0  0  0  0  0
   58.0490   27.3490   45.7460 C   0  0  0  0  0  0  0  0  0  0  0  0
   57.4610   25.9560   44.8560 Cl  0  0  0  0  0  0  0  0  0  0  0  0
   58.0440   28.6120   45.1520 C   0  0  0  0  0  0  0  0  0  0  0  0
   58.5210   29.7510   45.8490 C   0  0  0  0  0  0  0  0  0  0  0  0
   58.5890   30.9940   45.2520 N   0  0  0  0  0  0  0  0  0  0  0  0
   58.4840   31.1100   43.7790 C   0  0  0  0  0  0  0  0  0  0  0  0
   58.7800   32.1260   46.0250 C   0  0  0  0  0  0  0  0  0  0  0  0
   58.5830   33.4210   45.4880 C   0  0  0  0  0  0  0  0  0  0  0  0
   58.8190   34.5590   46.2470 C   0  0  0  0  0  0  0  0  0  0  0  0
   59.2200   34.4490   47.5690 C   0  0  0  0  0  0  0  0  0  0  0  0
   59.3740   33.1880   48.1710 C   0  0  0  0  0  0  0  0  0  0  0  0
   59.6900   33.0830   49.5380 O   0  0  0  0  0  0  0  0  0  0  0  0
   60.6770   33.8380   50.2410 C   0  0  0  0  0  0  0  0  0  0  0  0
   61.8590   32.9240   50.6410 C   0  0  0  0  0  0  0  0  0  0  0  0
   63.0890   33.0560   49.7930 N   0  0  0  0  0  0  0  0  0  0  0  0
   64.2600   33.3510   50.6610 C   0  0  0  0  0  0  0  0  0  0  0  0
   62.9120   34.1650   48.7930 C   0  0  0  0  0  0  0  0  0  0  0  0
   63.6910   33.9300   47.4890 C   0  0  0  0  0  0  0  0  0  0  0  0
   63.1940   32.6630   46.7750 C   0  0  0  0  0  0  0  0  0  0  0  0
   62.6490   31.6110   47.7550 C   0  0  0  0  0  0  0  0  0  0  0  0
   63.3390   31.7310   49.1230 C   0  0  0  0  0  0  0  0  0  0  0  0
   59.1670   32.0100   47.3930 C   0  0  0  0  0  0  0  0  0  0  0  0
   56.6395   30.7154   53.4911 H   0  0  0  0  0  0  0  0  0  0  0  0
   55.4839   30.2970   52.1811 H   0  0  0  0  0  0  0  0  0  0  0  0
   57.1356   29.5909   52.1811 H   0  0  0  0  0  0  0  0  0  0  0  0
   56.6578   31.5799   50.5696 H   0  0  0  0  0  0  0  0  0  0  0  0
   56.6954   32.5924   52.0806 H   0  0  0  0  0  0  0  0  0  0  0  0
   58.8020   32.1910   50.6410 H   0  0  0  0  0  0  0  0  0  0  0  0
   60.1721   30.5047   51.9705 H   0  0  0  0  0  0  0  0  0  0  0  0
   58.5588   29.7785   52.3155 H   0  0  0  0  0  0  0  0  0  0  0  0
   59.6141   28.7440   50.3246 H   0  0  0  0  0  0  0  0  0  0  0  0
   58.0953   29.6392   49.9020 H   0  0  0  0  0  0  0  0  0  0  0  0
   60.7010   31.0950   49.5300 H   0  0  0  0  0  0  0  0  0  0  0  0
   59.3070   28.1724   48.8037 H   0  0  0  0  0  0  0  0  0  0  0  0
   58.5387   26.1936   47.5079 H   0  0  0  0  0  0  0  0  0  0  0  0
   57.6637   28.7257   44.1261 H   0  0  0  0  0  0  0  0  0  0  0  0
   57.7659   31.9033   43.5239 H   0  0  0  0  0  0  0  0  0  0  0  0
   59.4699   31.3591   43.3596 H   0  0  0  0  0  0  0  0  0  0  0  0
   58.1382   30.1537   43.3596 H   0  0  0  0  0  0  0  0  0  0  0  0
   58.2363   33.5274   44.4495 H   0  0  0  0  0  0  0  0  0  0  0  0
   58.6870   35.5538   45.7966 H   0  0  0  0  0  0  0  0  0  0  0  0
   59.4201   35.3588   48.1540 H   0  0  0  0  0  0  0  0  0  0  0  0
   61.0456   34.6473   49.5935 H   0  0  0  0  0  0  0  0  0  0  0  0
   60.2260   34.2625   51.1501 H   0  0  0  0  0  0  0  0  0  0  0  0
   62.1353   33.1610   51.6790 H   0  0  0  0  0  0  0  0  0  0  0  0
   61.5046   31.8918   50.5029 H   0  0  0  0  0  0  0  0  0  0  0  0
   63.9617   33.2759   51.7171 H   0  0  0  0  0  0  0  0  0  0  0  0
   65.0616   32.6267   50.4539 H   0  0  0  0  0  0  0  0  0  0  0  0
   64.6228   34.3686   50.4539 H   0  0  0  0  0  0  0  0  0  0  0  0
   61.8424   34.2512   48.5513 H   0  0  0  0  0  0  0  0  0  0  0  0
   63.3061   35.0849   49.2497 H   0  0  0  0  0  0  0  0  0  0  0  0
   63.5517   34.7959   46.8250 H   0  0  0  0  0  0  0  0  0  0  0  0
   64.7557   33.8013   47.7336 H   0  0  0  0  0  0  0  0  0  0  0  0
   62.3920   32.9433   46.0763 H   0  0  0  0  0  0  0  0  0  0  0  0
   64.0511   32.2176   46.2487 H   0  0  0  0  0  0  0  0  0  0  0  0
   61.5670   31.7628   47.8822 H   0  0  0  0  0  0  0  0  0  0  0  0
   62.8494   30.6100   47.3454 H   0  0  0  0  0  0  0  0  0  0  0  0
   62.9625   30.9307   49.7771 H   0  0  0  0  0  0  0  0  0  0  0  0
   64.4226   31.6468   48.9538 H   0  0  0  0  0  0  0  0  0  0  0  0
  1  2  1  0
  2  3  1  0
  3  4  1  0
  4  5  1  0
  5  6  1  0
  6  7  1  0
  7  8  2  0
  8  9  1  0
  9 10  2  0
 10 11  1  0
 11 12  1  0
 11 13  2  0
 13 14  1  0
 14 15  2  0
 15 16  1  0
 15 17  1  0
 17 18  2  0
 18 19  1  0
 19 20  2  0
 20 21  1  0
 21 22  1  0
 22 23  1  0
 23 24  1  0
 24 25  1  0
 25 26  1  0
 25 27  1  0
 27 28  1  0
 28 29  1  0
 29 30  1  0
 30 31  1  0
 21 32  2  0
 32  7  1  0
 14  8  1  0
 32 17  1  0
 31 25  1  0
  1 33  1  0
  1 34  1  0
  1 35  1  0
  2 36  1  0
  2 37  1  0
  3 38  1  0
  4 39  1  0
  4 40  1  0
  5 41  1  0
  5 42  1  0
  6 43  1  0
  9 44  1  0
 10 45  1  0
 13 46  1  0
 16 47  1  0
 16 48  1  0
 16 49  1  0
 18 50  1  0
 19 51  1  0
 20 52  1  0
 23 53  1  0
 23 54  1  0
 24 55  1  0
 24 56  1  0
 26 57  1  0
 26 58  1  0
 26 59  1  0
 27 60  1  0
 27 61  1  0
 28 62  1  0
 28 63  1  0
 29 64  1  0
 29 65  1  0
 30 66  1  0
 30 67  1  0
 31 68  1  0
 31 69  1  0
M  CHG  2  15   1  25   1
M  END
>  <UniqueID>  (1) 
1

>  <SMILES>  (1) 
CCNCCNc1c2ccc(Cl)cc2[n+](C)c2cccc(OCC[N+]3(C)CCCCC3)c12

>  <Energy>  (1) 
109.0212709733133

>  <Genealogy>  (1) 
CCNCCNc1c2ccc(Cl)cc2[n+](C)c2cccc(OCC[N+]3(C)CCCCC3)c12 (3D coordinates assigned)
CCNCCNc1c2ccc(Cl)cc2[n+](C)c2cccc(OCC[N+]3(C)CCCCC3)c12 (nonaromatic ring conformer: 109.0212709733133 kcal/mol)

>  <smiles>  (1) 
CCNCCNc1c2ccc(Cl)cc2[n+](C)c2cccc(OCC[N+]3(C)CCCCC3)c12

>  <score_type>  (1) 
oracle

>  <origin>  (1) 
adg

>  <m_score__min__energy>  (1) 
-4.6900000000000004

>  <m_primary>  (1) 
energy

$$$$
1:0
     RDKit          3D

 86 89  0  0  0  0  0  0  0  0999 V2000
   53.5120   30.8580   51.3060 C   0  0  0  0  0  0  0  0  0  0  0  0
   53.9250   29.7020   52.2330 C   0  0  0  0  0  0  0  0  0  0  0  0
   55.1590   29.9480   53.0220 N   0  0  0  0  0  0  0  0  0  0  0  0
   54.8830   30.0170   54.4690 C   0  0  0  0  0  0  0  0  0  0  0  0
   56.2700   29.0080   52.7490 C   0  0  0  0  0  0  0  0  0  0  0  0
   57.5810   29.7340   52.4310 C   0  0  0  0  0  0  0  0  0  0  0  0
   57.4220   30.5180   51.2650 O   0  0  0  0  0  0  0  0  0  0  0  0
   56.9930   31.8230   51.5920 C   0  0  0  0  0  0  0  0  0  0  0  0
   58.1320   32.5600   52.3010 C   0  0  0  0  0  0  0  0  0  0  0  0
   59.3370   32.4970   51.5610 O   0  0  0  0  0  0  0  0  0  0  0  0
   59.4750   33.5940   50.6760 C   0  0  0  0  0  0  0  0  0  0  0  0
   59.5930   33.1470   49.2150 C   0  0  0  0  0  0  0  0  0  0  0  0
   58.9960   31.8240   49.0080 N   0  0  0  0  0  0  0  0  0  0  0  0
   58.8330   31.2420   47.6970 C   0  0  0  0  0  0  0  0  0  0  0  0
   58.3790   32.0450   46.6270 C   0  0  0  0  0  0  0  0  0  0  0  0
   58.2380   33.4440   46.7690 C   0  0  0  0  0  0  0  0  0  0  0  0
   57.7490   34.2250   45.7240 C   0  0  0  0  0  0  0  0  0  0  0  0
   57.4230   33.6370   44.5090 C   0  0  0  0  0  0  0  0  0  0  0  0
   57.6110   32.2670   44.3220 C   0  0  0  0  0  0  0  0  0  0  0  0
   58.0990   31.4450   45.3730 C   0  0  0  0  0  0  0  0  0  0  0  0
   58.3440   30.1020   45.1830 N   0  0  0  0  0  0  0  0  0  0  0  0
   57.8170   29.4140   43.9820 C   0  0  0  0  0  0  0  0  0  0  0  0
   59.0810   29.3990   46.1140 C   0  0  0  0  0  0  0  0  0  0  0  0
   59.7020   28.1740   45.7760 C   0  0  0  0  0  0  0  0  0  0  0  0
   60.4040   27.4440   46.7240 C   0  0  0  0  0  0  0  0  0  0  0  0
   60.4520   27.8740   48.0410 C   0  0  0  0  0  0  0  0  0  0  0  0
   59.8250   29.0690   48.4310 C   0  0  0  0  0  0  0  0  0  0  0  0
   59.7480   29.4220   49.7900 O   0  0  0  0  0  0  0  0  0  0  0  0
   60.8080   29.9470   50.5940 C   0  0  0  0  0  0  0  0  0  0  0  0
   61.8230   30.7430   49.7290 C   0  0  0  0  0  0  0  0  0  0  0  0
   62.9680   31.3780   50.4700 N   0  0  0  0  0  0  0  0  0  0  0  0
   63.4580   30.4330   51.5060 C   0  0  0  0  0  0  0  0  0  0  0  0
   62.4770   32.6270   51.1670 C   0  0  0  0  0  0  0  0  0  0  0  0
   62.8630   33.9610   50.4810 C   0  0  0  0  0  0  0  0  0  0  0  0
   62.8150   33.8410   48.9650 C   0  0  0  0  0  0  0  0  0  0  0  0
   63.7350   32.7140   48.4590 C   0  0  0  0  0  0  0  0  0  0  0  0
   64.1120   31.7100   49.5680 C   0  0  0  0  0  0  0  0  0  0  0  0
   59.2440   29.9090   47.4360 C   0  0  0  0  0  0  0  0  0  0  0  0
   53.2033   31.7221   51.9127 H   0  0  0  0  0  0  0  0  0  0  0  0
   54.3645   31.1414   50.6712 H   0  0  0  0  0  0  0  0  0  0  0  0
   52.6729   30.5371   50.6712 H   0  0  0  0  0  0  0  0  0  0  0  0
   53.1002   29.5159   52.9366 H   0  0  0  0  0  0  0  0  0  0  0  0
   54.1403   28.8430   51.5805 H   0  0  0  0  0  0  0  0  0  0  0  0
   55.8016   29.7873   55.0288 H   0  0  0  0  0  0  0  0  0  0  0  0
   54.5386   31.0289   54.7287 H   0  0  0  0  0  0  0  0  0  0  0  0
   54.1029   29.2862   54.7287 H   0  0  0  0  0  0  0  0  0  0  0  0
   56.4226   28.3739   53.6348 H   0  0  0  0  0  0  0  0  0  0  0  0
   55.9951   28.4087   51.8685 H   0  0  0  0  0  0  0  0  0  0  0  0
   57.8522   30.3852   53.2751 H   0  0  0  0  0  0  0  0  0  0  0  0
   58.3766   28.9926   52.2653 H   0  0  0  0  0  0  0  0  0  0  0  0
   56.7205   32.3626   50.6730 H   0  0  0  0  0  0  0  0  0  0  0  0
   56.1160   31.7706   52.2539 H   0  0  0  0  0  0  0  0  0  0  0  0
   57.8480   33.6148   52.4305 H   0  0  0  0  0  0  0  0  0  0  0  0
   58.3012   32.0750   53.2737 H   0  0  0  0  0  0  0  0  0  0  0  0
   58.5936   34.2443   50.7775 H   0  0  0  0  0  0  0  0  0  0  0  0
   60.3991   34.1283   50.9416 H   0  0  0  0  0  0  0  0  0  0  0  0
   59.0755   33.8768   48.5750 H   0  0  0  0  0  0  0  0  0  0  0  0
   60.6608   33.0880   48.9573 H   0  0  0  0  0  0  0  0  0  0  0  0
   58.6530   31.2960   49.8440 H   0  0  0  0  0  0  0  0  0  0  0  0
   58.5184   33.9233   47.7185 H   0  0  0  0  0  0  0  0  0  0  0  0
   57.6210   35.3088   45.8616 H   0  0  0  0  0  0  0  0  0  0  0  0
   57.0160   34.2520   43.6928 H   0  0  0  0  0  0  0  0  0  0  0  0
   57.3778   31.8166   43.3459 H   0  0  0  0  0  0  0  0  0  0  0  0
   57.1751   28.5760   44.2915 H   0  0  0  0  0  0  0  0  0  0  0  0
   57.2292   30.1236   43.3812 H   0  0  0  0  0  0  0  0  0  0  0  0
   58.6552   29.0313   43.3812 H   0  0  0  0  0  0  0  0  0  0  0  0
   59.6272   27.7945   44.7462 H   0  0  0  0  0  0  0  0  0  0  0  0
   60.9244   26.5207   46.4296 H   0  0  0  0  0  0  0  0  0  0  0  0
   60.9876   27.2721   48.7898 H   0  0  0  0  0  0  0  0  0  0  0  0
   60.3831   30.6162   51.3566 H   0  0  0  0  0  0  0  0  0  0  0  0
   61.3361   29.1068   51.0686 H   0  0  0  0  0  0  0  0  0  0  0  0
   62.2459   30.0516   48.9853 H   0  0  0  0  0  0  0  0  0  0  0  0
   61.2520   31.5774   49.2956 H   0  0  0  0  0  0  0  0  0  0  0  0
   63.2460   30.8419   52.5049 H   0  0  0  0  0  0  0  0  0  0  0  0
   62.9481   29.4652   51.3901 H   0  0  0  0  0  0  0  0  0  0  0  0
   64.5428   30.2921   51.3901 H   0  0  0  0  0  0  0  0  0  0  0  0
   61.3794   32.5773   51.2208 H   0  0  0  0  0  0  0  0  0  0  0  0
   62.9657   32.6383   52.1524 H   0  0  0  0  0  0  0  0  0  0  0  0
   62.1596   34.7441   50.8003 H   0  0  0  0  0  0  0  0  0  0  0  0
   63.8917   34.2161   50.7753 H   0  0  0  0  0  0  0  0  0  0  0  0
   61.7817   33.6248   48.6560 H   0  0  0  0  0  0  0  0  0  0  0  0
   63.1623   34.7908   48.5322 H   0  0  0  0  0  0  0  0  0  0  0  0
   63.2170   32.1715   47.6544 H   0  0  0  0  0  0  0  0  0  0  0  0
   64.6655   33.1797   48.1022 H   0  0  0  0  0  0  0  0  0  0  0  0
   64.4659   30.7821   49.0950 H   0  0  0  0  0  0  0  0  0  0  0  0
   64.8916   32.1800   50.1855 H   0  0  0  0  0  0  0  0  0  0  0  0
  1  2  1  0
  2  3  1  0
  3  4  1  0
  3  5  1  0
  5  6  1  0
  6  7  1  0
  7  8  1  0
  8  9  1  0
  9 10  1  0
 10 11  1  0
 11 12  1  0
 12 13  1  0
 13 14  1  0
 14 15  2  0
 15 16  1  0
 16 17  2  0
 17 18  1  0
 18 19  2  0
 19 20  1  0
 20 21  2  0
 21 22  1  0
 21 23  1  0
 23 24  2  0
 24 25  1  0
 25 26  2  0
 26 27  1  0
 27 28  1  0
 28 29  1  0
 29 30  1  0
 30 31  1  0
 31 32  1  0
 31 33  1  0
 33 34  1  0
 34 35  1  0
 35 36  1  0
 36 37  1  0
 27 38  2  0
 38 14  1  0
 20 15  1  0
 38 23  1  0
 37 31  1  0
  1 39  1  0
  1 40  1  0
  1 41  1  0
  2 42  1  0
  2 43  1  0
  4 44  1  0
  4 45  1  0
  4 46  1  0
  5 47  1  0
  5 48  1  0
  6 49  1  0
  6 50  1  0
  8 51  1  0
  8 52  1  0
  9 53  1  0
  9 54  1  0
 11 55  1  0
 11 56  1  0
 12 57  1  0
 12 58  1  0
 13 59  1  0
 16 60  1  0
 17 61  1  0
 18 62  1  0
 19 63  1  0
 22 64  1  0
 22 65  1  0
 22 66  1  0
 24 67  1  0
 25 68  1  0
 26 69  1  0
 29 70  1  0
 29 71  1  0
 30 72  1  0
 30 73  1  0
 32 74  1  0
 32 75  1  0
 32 76  1  0
 33 77  1  0
 33 78  1  0
 34 79  1  0
 34 80  1  0
 35 81  1  0
 35 82  1  0
 36 83  1  0
 36 84  1  0
 37 85  1  0
 37 86  1  0
M  CHG  2  21   1  31   1
M  END
>  <UniqueID>  (2) 
2

>  <SMILES>  (2) 
CCN(C)CCOCCOCCNc1c2ccccc2[n+](C)c2cccc(OCC[N+]3(C)CCCCC3)c12

>  <Energy>  (2) 
137.93241993543518

>  <Genealogy>  (2) 
CCN(C)CCOCCOCCNc1c2ccccc2[n+](C)c2cccc(OCC[N+]3(C)CCCCC3)c12 (3D coordinates assigned)
CCN(C)CCOCCOCCNc1c2ccccc2[n+](C)c2cccc(OCC[N+]3(C)CCCCC3)c12 (nonaromatic ring conformer: 137.93241993543518 kcal/mol)

>  <smiles>  (2) 
CCN(C)CCOCCOCCNc1c2ccccc2[n+](C)c2cccc(OCC[N+]3(C)CCCCC3)c12

>  <score_type>  (2) 
oracle

>  <origin>  (2) 
adg

>  <m_score__min__energy>  (2) 
-5.9400000000000004

>  <m_primary>  (2) 
energy

$$$$
2:0
     RDKit          3D

 64 67  0  0  0  0  0  0  0  0999 V2000
   62.5290   32.8870   48.7910 C   0  0  0  0  0  0  0  0  0  0  0  0
   62.0670   33.9350   49.7210 N   0  0  0  0  0  0  0  0  0  0  0  0
   63.2000   34.3790   50.5570 C   0  0  0  0  0  0  0  0  0  0  0  0
   60.9400   33.4360   50.5540 C   0  0  0  0  0  0  0  0  0  0  0  0
   59.6340   34.2240   50.3460 C   0  0  0  0  0  0  0  0  0  0  0  0
   59.6040   34.8720   49.0700 O   0  0  0  0  0  0  0  0  0  0  0  0
   59.3860   34.2650   47.8210 C   0  0  0  0  0  0  0  0  0  0  0  0
   59.1810   34.9900   46.6360 C   0  0  0  0  0  0  0  0  0  0  0  0
   58.9660   34.3190   45.4340 C   0  0  0  0  0  0  0  0  0  0  0  0
   58.9530   32.9230   45.3940 C   0  0  0  0  0  0  0  0  0  0  0  0
   59.1530   32.1600   46.5670 C   0  0  0  0  0  0  0  0  0  0  0  0
   59.1470   30.6970   46.5340 N   0  0  0  0  0  0  0  0  0  0  0  0
   57.9260   29.9980   46.0780 C   0  0  0  0  0  0  0  0  0  0  0  0
   58.1040   28.4940   45.9130 C   0  0  0  0  0  0  0  0  0  0  0  0
   58.8230   27.9470   47.0730 N   0  0  0  0  0  0  0  0  0  0  0  0
   58.7950   26.4680   47.0600 C   0  0  0  0  0  0  0  0  0  0  0  0
   57.3720   25.9550   47.3170 C   0  0  0  0  0  0  0  0  0  0  0  0
   56.9470   25.0570   46.2240 N   0  0  0  0  0  0  0  0  0  0  0  0
   55.7500   25.2860   45.5900 C   0  0  0  0  0  0  0  0  0  0  0  0
   54.9280   26.3400   45.9800 O   0  0  0  0  0  0  0  0  0  0  0  0
   55.3330   24.4700   44.5390 C   0  0  0  0  0  0  0  0  0  0  0  0
   56.1430   23.4180   44.1110 C   0  0  0  0  0  0  0  0  0  0  0  0
   55.7380   22.5900   43.0520 C   0  0  0  0  0  0  0  0  0  0  0  0
   56.5600   21.5440   42.6240 C   0  0  0  0  0  0  0  0  0  0  0  0
   57.7880   21.3180   43.2480 C   0  0  0  0  0  0  0  0  0  0  0  0
   58.2020   22.1340   44.3040 C   0  0  0  0  0  0  0  0  0  0  0  0
   57.3830   23.1930   44.7470 C   0  0  0  0  0  0  0  0  0  0  0  0
   57.7710   24.0370   45.8080 C   0  0  0  0  0  0  0  0  0  0  0  0
   58.8860   23.8520   46.3750 O   0  0  0  0  0  0  0  0  0  0  0  0
   60.2100   28.4320   47.0040 C   0  0  0  0  0  0  0  0  0  0  0  0
   60.2800   29.9600   47.1390 C   0  0  0  0  0  0  0  0  0  0  0  0
   59.3690   32.8650   47.7760 C   0  0  0  0  0  0  0  0  0  0  0  0
   62.9075   32.0284   49.3650 H   0  0  0  0  0  0  0  0  0  0  0  0
   61.6901   32.5633   48.1573 H   0  0  0  0  0  0  0  0  0  0  0  0
   63.3338   33.2879   48.1573 H   0  0  0  0  0  0  0  0  0  0  0  0
   61.7550   34.7440   49.1370 H   0  0  0  0  0  0  0  0  0  0  0  0
   62.9346   34.2750   51.6194 H   0  0  0  0  0  0  0  0  0  0  0  0
   64.0825   33.7602   50.3372 H   0  0  0  0  0  0  0  0  0  0  0  0
   63.4271   35.4326   50.3372 H   0  0  0  0  0  0  0  0  0  0  0  0
   60.7565   32.3821   50.2980 H   0  0  0  0  0  0  0  0  0  0  0  0
   61.2324   33.5618   51.6070 H   0  0  0  0  0  0  0  0  0  0  0  0
   58.7839   33.5291   50.4130 H   0  0  0  0  0  0  0  0  0  0  0  0
   59.5728   34.9981   51.1251 H   0  0  0  0  0  0  0  0  0  0  0  0
   59.1902   36.0898   46.6568 H   0  0  0  0  0  0  0  0  0  0  0  0
   58.8053   34.8931   44.5096 H   0  0  0  0  0  0  0  0  0  0  0  0
   58.7847   32.4098   44.4357 H   0  0  0  0  0  0  0  0  0  0  0  0
   57.1295   30.1741   46.8159 H   0  0  0  0  0  0  0  0  0  0  0  0
   57.6772   30.4020   45.0856 H   0  0  0  0  0  0  0  0  0  0  0  0
   57.1164   28.0156   45.8368 H   0  0  0  0  0  0  0  0  0  0  0  0
   58.6838   28.2951   44.9996 H   0  0  0  0  0  0  0  0  0  0  0  0
   59.1378   26.1081   46.0787 H   0  0  0  0  0  0  0  0  0  0  0  0
   59.4572   26.0927   47.8541 H   0  0  0  0  0  0  0  0  0  0  0  0
   57.3511   25.4038   48.2687 H   0  0  0  0  0  0  0  0  0  0  0  0
   56.6848   26.8127   47.3638 H   0  0  0  0  0  0  0  0  0  0  0  0
   54.3664   24.6556   44.0479 H   0  0  0  0  0  0  0  0  0  0  0  0
   54.7710   22.7651   42.5578 H   0  0  0  0  0  0  0  0  0  0  0  0
   56.2387   20.8976   41.7939 H   0  0  0  0  0  0  0  0  0  0  0  0
   58.4323   20.4942   42.9071 H   0  0  0  0  0  0  0  0  0  0  0  0
   59.1706   21.9496   44.7917 H   0  0  0  0  0  0  0  0  0  0  0  0
   60.7895   27.9744   47.8193 H   0  0  0  0  0  0  0  0  0  0  0  0
   60.6245   28.1531   46.0240 H   0  0  0  0  0  0  0  0  0  0  0  0
   60.3132   30.2062   48.2106 H   0  0  0  0  0  0  0  0  0  0  0  0
   61.1789   30.2751   46.5888 H   0  0  0  0  0  0  0  0  0  0  0  0
   59.5277   32.2979   48.7051 H   0  0  0  0  0  0  0  0  0  0  0  0
  1  2  1  0
  2  3  1  0
  2  4  1  0
  4  5  1  0
  5  6  1  0
  6  7  1  0
  7  8  2  0
  8  9  1  0
  9 10  2  0
 10 11  1  0
 11 12  1  0
 12 13  1  0
 13 14  1  0
 14 15  1  0
 15 16  1  0
 16 17  1  0
 17 18  1  0
 18 19  1  0
 19 20  1  0
 19 21  2  0
 21 22  1  0
 22 23  2  0
 23 24  1  0
 24 25  2  0
 25 26  1  0
 26 27  2  0
 27 28  1  0
 28 29  2  0
 15 30  1  0
 30 31  1  0
 11 32  2  0
 32  7  1  0
 31 12  1  0
 28 18  1  0
 27 22  1  0
  1 33  1  0
  1 34  1  0
  1 35  1  0
  2 36  1  0
  3 37  1  0
  3 38  1  0
  3 39  1  0
  4 40  1  0
  4 41  1  0
  5 42  1  0
  5 43  1  0
  8 44  1  0
  9 45  1  0
 10 46  1  0
 13 47  1  0
 13 48  1  0
 14 49  1  0
 14 50  1  0
 16 51  1  0
 16 52  1  0
 17 53  1  0
 17 54  1  0
 21 55  1  0
 23 56  1  0
 24 57  1  0
 25 58  1  0
 26 59  1  0
 30 60  1  0
 30 61  1  0
 31 62  1  0
 31 63  1  0
 32 64  1  0
M  CHG  2   2   1  20  -1
M  END
>  <UniqueID>  (3) 
3

>  <SMILES>  (3) 
C[NH+](C)CCOc1cccc(N2CCN(CCn3c([O-])cc4ccccc4c3=O)CC2)c1

>  <Energy>  (3) 
86.76055238054782

>  <Genealogy>  (3) 
C[NH+](C)CCOc1cccc(N2CCN(CCn3c([O-])cc4ccccc4c3=O)CC2)c1 (protonated)
C[NH+](C)CCOc1cccc(N2CCN(CCn3c([O-])cc4ccccc4c3=O)CC2)c1 (3D coordinates assigned)
C[NH+](C)CCOc1cccc(N2CCN(CCn3c([O-])cc4ccccc4c3=O)CC2)c1 (nonaromatic ring conformer: 86.76055238054782 kcal/mol)

>  <smiles>  (3) 
CN(C)CCOc1cccc(N2CCN(CCn3c(O)cc4ccccc4c3=O)CC2)c1

>  <score_type>  (3) 
oracle

>  <origin>  (3) 
adg

>  <m_score__min__energy>  (3) 
-10.050000000000001

>  <m_primary>  (3) 
energy

$$$$
3:0
     RDKit          3D

 47 51  0  0  0  0  0  0  0  0999 V2000
   60.6310   27.6070   50.2890 C   0  0  0  0  0  0  0  0  0  0  0  0
   60.2640   28.3940   49.1210 N   0  0  0  0  0  0  0  0  0  0  0  0
   59.5130   27.9460   48.1240 N   0  0  0  0  0  0  0  0  0  0  0  0
   59.4750   28.9130   47.1750 C   0  0  0  0  0  0  0  0  0  0  0  0
   58.7720   28.7680   45.8940 C   0  0  0  0  0  0  0  0  0  0  0  0
   59.1920   27.8110   44.9590 C   0  0  0  0  0  0  0  0  0  0  0  0
   58.5150   27.6730   43.7430 C   0  0  0  0  0  0  0  0  0  0  0  0
   57.4270   28.5010   43.4500 C   0  0  0  0  0  0  0  0  0  0  0  0
   57.0200   29.4730   44.3690 C   0  0  0  0  0  0  0  0  0  0  0  0
   57.6950   29.6110   45.5870 C   0  0  0  0  0  0  0  0  0  0  0  0
   60.2510   29.9870   47.5840 C   0  0  0  0  0  0  0  0  0  0  0  0
   60.7350   29.6070   48.7930 C   0  0  0  0  0  0  0  0  0  0  0  0
   61.6430   30.3720   49.5110 O   0  0  0  0  0  0  0  0  0  0  0  0
   62.1570   31.5560   48.9540 C   0  0  0  0  0  0  0  0  0  0  0  0
   61.7710   31.9850   47.7130 C   0  0  0  0  0  0  0  0  0  0  0  0
   62.3960   33.2060   47.1360 C   0  0  0  0  0  0  0  0  0  0  0  0
   62.1240   33.5610   45.9580 O   0  0  0  0  0  0  0  0  0  0  0  0
   63.4000   34.0030   47.9180 C   0  0  0  0  0  0  0  0  0  0  0  0
   63.2100   33.7920   49.4200 C   0  0  0  0  0  0  0  0  0  0  0  0
   63.2000   32.2970   49.7510 C   0  0  0  0  0  0  0  0  0  0  0  0
   60.6890   31.2540   46.9010 C   0  0  2  0  0  0  0  0  0  0  0  0
   59.4930   32.1670   46.6810 C   0  0  0  0  0  0  0  0  0  0  0  0
   59.1700   32.5680   45.3690 C   0  0  0  0  0  0  0  0  0  0  0  0
   58.0810   33.4080   45.1280 C   0  0  0  0  0  0  0  0  0  0  0  0
   57.2980   33.8590   46.1900 C   0  0  0  0  0  0  0  0  0  0  0  0
   57.6000   33.4700   47.4950 C   0  0  0  0  0  0  0  0  0  0  0  0
   58.6880   32.6260   47.7520 C   0  0  0  0  0  0  0  0  0  0  0  0
   59.0100   32.2010   49.4310 Cl  0  0  0  0  0  0  0  0  0  0  0  0
   60.3717   28.1630   51.2020 H   0  0  0  0  0  0  0  0  0  0  0  0
   60.0853   26.6520   50.2739 H   0  0  0  0  0  0  0  0  0  0  0  0
   61.7133   27.4112   50.2739 H   0  0  0  0  0  0  0  0  0  0  0  0
   60.0557   27.1675   45.1824 H   0  0  0  0  0  0  0  0  0  0  0  0
   58.8386   26.9128   43.0168 H   0  0  0  0  0  0  0  0  0  0  0  0
   56.8911   28.3876   42.4961 H   0  0  0  0  0  0  0  0  0  0  0  0
   56.1690   30.1294   44.1345 H   0  0  0  0  0  0  0  0  0  0  0  0
   57.3798   30.3825   46.3049 H   0  0  0  0  0  0  0  0  0  0  0  0
   64.4137   33.6836   47.6344 H   0  0  0  0  0  0  0  0  0  0  0  0
   63.2570   35.0698   47.6911 H   0  0  0  0  0  0  0  0  0  0  0  0
   64.0350   34.2778   49.9616 H   0  0  0  0  0  0  0  0  0  0  0  0
   62.2484   34.2315   49.7236 H   0  0  0  0  0  0  0  0  0  0  0  0
   64.1897   31.8748   49.5225 H   0  0  0  0  0  0  0  0  0  0  0  0
   62.9599   32.1840   50.8185 H   0  0  0  0  0  0  0  0  0  0  0  0
   61.1237   30.9824   45.9277 H   0  0  0  0  0  0  0  0  0  0  0  0
   59.7823   32.2155   44.5259 H   0  0  0  0  0  0  0  0  0  0  0  0
   57.8405   33.7143   44.0992 H   0  0  0  0  0  0  0  0  0  0  0  0
   56.4415   34.5221   45.9985 H   0  0  0  0  0  0  0  0  0  0  0  0
   56.9789   33.8288   48.3289 H   0  0  0  0  0  0  0  0  0  0  0  0
  1  2  1  0
  2  3  1  0
  3  4  2  0
  4  5  1  0
  5  6  2  0
  6  7  1  0
  7  8  2  0
  8  9  1  0
  9 10  2  0
  4 11  1  0
 11 12  2  0
 12 13  1  0
 13 14  1  0
 14 15  2  0
 15 16  1  0
 16 17  2  0
 16 18  1  0
 18 19  1  0
 19 20  1  0
 15 21  1  0
 21 22  1  0
 22 23  2  0
 23 24  1  0
 24 25  2  0
 25 26  1  0
 26 27  2  0
 27 28  1  0
 12  2  1  0
 20 14  1  0
 27 22  1  0
 10  5  1  0
 21 11  1  0
  1 29  1  0
  1 30  1  0
  1 31  1  0
  6 32  1  0
  7 33  1  0
  8 34  1  0
  9 35  1  0
 10 36  1  0
 18 37  1  0
 18 38  1  0
 19 39  1  0
 19 40  1  0
 20 41  1  0
 20 42  1  0
 21 43  1  6
 23 44  1  0
 24 45  1  0
 25 46  1  0
 26 47  1  0
M  END
>  <UniqueID>  (4) 
4

>  <SMILES>  (4) 
Cn1nc(-c2ccccc2)c2c1OC1=C(C(=O)CCC1)[C@@H]2c1ccccc1Cl

>  <Energy>  (4) 
94.25341442457396

>  <Genealogy>  (4) 
Cn1nc(-c2ccccc2)c2c1OC1=C(C(=O)CCC1)[C@@H]2c1ccccc1Cl (chirality)
Cn1nc(-c2ccccc2)c2c1OC1=C(C(=O)CCC1)[C@@H]2c1ccccc1Cl (3D coordinates assigned)
Cn1nc(-c2ccccc2)c2c1OC1=C(C(=O)CCC1)[C@@H]2c1ccccc1Cl (nonaromatic ring conformer: 94.25341442457396 kcal/mol)

>  <smiles>  (4) 
Cn1nc(-c2ccccc2)c2c1OC1=C(C(=O)CCC1)C2c1ccccc1Cl

>  <score_type>  (4) 
oracle

>  <origin>  (4) 
adg

>  <m_score__min__energy>  (4) 
-8.5299999999999994

>  <m_primary>  (4) 
energy

$$$$
4:0
     RDKit          3D

 35 37  0  0  0  0  0  0  0  0999 V2000
   55.9020   29.6880   43.1990 C   0  0  0  0  0  0  0  0  0  0  0  0
   56.8200   30.3680   44.1060 N   0  0  0  0  0  0  0  0  0  0  0  0
   56.6560   31.6160   44.5290 N   0  0  0  0  0  0  0  0  0  0  0  0
   57.6960   31.9240   45.3430 C   0  0  0  0  0  0  0  0  0  0  0  0
   57.8310   33.1990   46.0040 N   0  0  0  0  0  0  0  0  0  0  0  0
   57.8300   33.2340   47.4760 C   0  0  0  0  0  0  0  0  0  0  0  0
   59.2190   32.9070   48.0720 C   0  0  0  0  0  0  0  0  0  0  0  0
   60.3600   33.8270   47.5960 C   0  0  0  0  0  0  0  0  0  0  0  0
   60.4900   33.8990   46.1300 N   0  0  0  0  0  0  0  0  0  0  0  0
   59.6260   34.8860   45.4560 C   0  0  0  0  0  0  0  0  0  0  0  0
   58.1780   34.4040   45.2290 C   0  0  0  0  0  0  0  0  0  0  0  0
   58.5450   30.8250   45.4240 C   0  0  0  0  0  0  0  0  0  0  0  0
   59.7650   30.5880   46.0630 C   0  0  0  0  0  0  0  0  0  0  0  0
   60.3620   29.3250   45.8920 C   0  0  0  0  0  0  0  0  0  0  0  0
   59.7440   28.3420   45.0890 C   0  0  0  0  0  0  0  0  0  0  0  0
   58.5240   28.6120   44.4430 C   0  0  0  0  0  0  0  0  0  0  0  0
   57.9550   29.8720   44.6340 C   0  0  0  0  0  0  0  0  0  0  0  0
   55.1531   29.1332   43.7832 H   0  0  0  0  0  0  0  0  0  0  0  0
   55.3957   30.4307   42.5649 H   0  0  0  0  0  0  0  0  0  0  0  0
   56.4649   28.9873   42.5649 H   0  0  0  0  0  0  0  0  0  0  0  0
   57.5316   34.2401   47.8057 H   0  0  0  0  0  0  0  0  0  0  0  0
   57.1234   32.4690   47.8302 H   0  0  0  0  0  0  0  0  0  0  0  0
   59.1490   32.9873   49.1668 H   0  0  0  0  0  0  0  0  0  0  0  0
   59.4734   31.8943   47.7261 H   0  0  0  0  0  0  0  0  0  0  0  0
   60.1709   34.8410   47.9781 H   0  0  0  0  0  0  0  0  0  0  0  0
   61.2983   33.4015   47.9815 H   0  0  0  0  0  0  0  0  0  0  0  0
   60.2660   32.9520   45.7430 H   0  0  0  0  0  0  0  0  0  0  0  0
   59.5945   35.7961   46.0731 H   0  0  0  0  0  0  0  0  0  0  0  0
   60.0615   35.0622   44.4614 H   0  0  0  0  0  0  0  0  0  0  0  0
   57.4921   35.2137   45.5186 H   0  0  0  0  0  0  0  0  0  0  0  0
   58.0876   34.1413   44.1647 H   0  0  0  0  0  0  0  0  0  0  0  0
   60.2432   31.3634   46.6796 H   0  0  0  0  0  0  0  0  0  0  0  0
   61.3181   29.1020   46.3881 H   0  0  0  0  0  0  0  0  0  0  0  0
   60.2200   27.3578   44.9676 H   0  0  0  0  0  0  0  0  0  0  0  0
   58.0357   27.8567   43.8097 H   0  0  0  0  0  0  0  0  0  0  0  0
  1  2  1  0
  2  3  1  0
  3  4  2  0
  4  5  1  0
  5  6  1  0
  6  7  1  0
  7  8  1  0
  8  9  1  0
  9 10  1  0
 10 11  1  0
  4 12  1  0
 12 13  2  0
 13 14  1  0
 14 15  2  0
 15 16  1  0
 16 17  2  0
 17  2  1  0
 11  5  1  0
 17 12  1  0
  1 18  1  0
  1 19  1  0
  1 20  1  0
  6 21  1  0
  6 22  1  0
  7 23  1  0
  7 24  1  0
  8 25  1  0
  8 26  1  0
  9 27  1  0
 10 28  1  0
 10 29  1  0
 11 30  1  0
 11 31  1  0
 13 32  1  0
 14 33  1  0
 15 34  1  0
 16 35  1  0
M  END
>  <UniqueID>  (5) 
5

>  <SMILES>  (5) 
Cn1nc(N2CCCNCC2)c2ccccc21

>  <Energy>  (5) 
87.25253490655442

>  <Genealogy>  (5) 
Cn1nc(N2CCCNCC2)c2ccccc21 (3D coordinates assigned)
Cn1nc(N2CCCNCC2)c2ccccc21 (nonaromatic ring conformer: 87.25253490655442 kcal/mol)

>  <smiles>  (5) 
Cn1nc(N2CCCNCC2)c2ccccc21

>  <score_type>  (5) 
oracle

>  <origin>  (5) 
adg

>  <m_score__min__energy>  (5) 
-4.7000000000000002

>  <m_primary>  (5) 
energy

$$$$
5:0
     RDKit          3D

 50 51  0  0  0  0  0  0  0  0999 V2000
   59.5130   29.2970   48.7720 C   0  0  0  0  0  0  0  0  0  0  0  0
   60.0570   28.6270   47.5130 C   0  0  0  0  0  0  0  0  0  0  0  0
   59.1150   28.8120   46.3850 N   0  0  0  0  0  0  0  0  0  0  0  0
   59.6680   28.2510   45.1300 C   0  0  0  0  0  0  0  0  0  0  0  0
   61.0560   28.8250   44.8620 C   0  0  0  0  0  0  0  0  0  0  0  0
   57.7890   28.2260   46.6930 C   0  0  0  0  0  0  0  0  0  0  0  0
   57.0610   27.8560   45.4020 C   0  0  0  0  0  0  0  0  0  0  0  0
   56.3060   28.9660   44.9710 O   0  0  0  0  0  0  0  0  0  0  0  0
   56.6980   29.3360   43.6670 C   0  0  0  0  0  0  0  0  0  0  0  0
   56.7980   30.8580   43.5700 C   0  0  0  0  0  0  0  0  0  0  0  0
   56.5950   31.4640   44.8490 O   0  0  0  0  0  0  0  0  0  0  0  0
   57.5210   32.2650   45.5390 C   0  0  0  0  0  0  0  0  0  0  0  0
   57.8590   33.5700   45.1330 C   0  0  0  0  0  0  0  0  0  0  0  0
   58.7760   34.3240   45.8710 C   0  0  0  0  0  0  0  0  0  0  0  0
   59.3710   33.7880   47.0220 C   0  0  0  0  0  0  0  0  0  0  0  0
   60.3860   34.5870   47.7930 C   0  0  0  0  0  0  0  0  0  0  0  0
   61.7000   33.8750   47.8030 C   0  0  0  0  0  0  0  0  0  0  0  0
   62.5770   33.7710   46.7310 C   0  0  0  0  0  0  0  0  0  0  0  0
   63.6950   32.9760   47.0100 C   0  0  0  0  0  0  0  0  0  0  0  0
   63.6940   32.4430   48.2930 C   0  0  0  0  0  0  0  0  0  0  0  0
   62.2990   32.9580   49.0790 S   0  0  0  0  0  0  0  0  0  0  0  0
   59.0570   32.4780   47.4110 C   0  0  0  0  0  0  0  0  0  0  0  0
   58.1380   31.7250   46.6750 C   0  0  0  0  0  0  0  0  0  0  0  0
   59.9215   28.7939   49.6608 H   0  0  0  0  0  0  0  0  0  0  0  0
   59.8100   30.3561   48.7812 H   0  0  0  0  0  0  0  0  0  0  0  0
   58.4155   29.2239   48.7812 H   0  0  0  0  0  0  0  0  0  0  0  0
   61.0270   29.0759   47.2532 H   0  0  0  0  0  0  0  0  0  0  0  0
   60.1794   27.5507   47.7045 H   0  0  0  0  0  0  0  0  0  0  0  0
   59.7388   27.1571   45.2214 H   0  0  0  0  0  0  0  0  0  0  0  0
   59.0029   28.5163   44.2950 H   0  0  0  0  0  0  0  0  0  0  0  0
   61.5579   29.0326   45.8186 H   0  0  0  0  0  0  0  0  0  0  0  0
   61.6486   28.0982   44.2871 H   0  0  0  0  0  0  0  0  0  0  0  0
   60.9622   29.7581   44.2871 H   0  0  0  0  0  0  0  0  0  0  0  0
   57.9249   27.3221   47.3050 H   0  0  0  0  0  0  0  0  0  0  0  0
   57.1893   28.9663   47.2429 H   0  0  0  0  0  0  0  0  0  0  0  0
   57.7948   27.5854   44.6285 H   0  0  0  0  0  0  0  0  0  0  0  0
   56.3955   26.9987   45.5812 H   0  0  0  0  0  0  0  0  0  0  0  0
   57.6776   28.8902   43.4396 H   0  0  0  0  0  0  0  0  0  0  0  0
   55.9503   28.9740   42.9460 H   0  0  0  0  0  0  0  0  0  0  0  0
   57.7961   31.1305   43.1964 H   0  0  0  0  0  0  0  0  0  0  0  0
   56.0192   31.2188   42.8820 H   0  0  0  0  0  0  0  0  0  0  0  0
   57.3991   33.9985   44.2303 H   0  0  0  0  0  0  0  0  0  0  0  0
   59.0323   35.3435   45.5470 H   0  0  0  0  0  0  0  0  0  0  0  0
   60.5096   35.5721   47.3194 H   0  0  0  0  0  0  0  0  0  0  0  0
   60.0357   34.7108   48.8284 H   0  0  0  0  0  0  0  0  0  0  0  0
   62.4101   34.2632   45.7615 H   0  0  0  0  0  0  0  0  0  0  0  0
   64.4986   32.7908   46.2820 H   0  0  0  0  0  0  0  0  0  0  0  0
   64.4726   31.7949   48.7216 H   0  0  0  0  0  0  0  0  0  0  0  0
   59.5362   32.0410   48.2995 H   0  0  0  0  0  0  0  0  0  0  0  0
   57.8970   30.6991   46.9905 H   0  0  0  0  0  0  0  0  0  0  0  0
  1  2  1  0
  2  3  1  0
  3  4  1  0
  4  5  1  0
  3  6  1  0
  6  7  1  0
  7  8  1  0
  8  9  1  0
  9 10  1  0
 10 11  1  0
 11 12  1  0
 12 13  2  0
 13 14  1  0
 14 15  2  0
 15 16  1  0
 16 17  1  0
 17 18  2  0
 18 19  1  0
 19 20  2  0
 20 21  1  0
 15 22  1  0
 22 23  2  0
 23 12  1  0
 21 17  1  0
  1 24  1  0
  1 25  1  0
  1 26  1  0
  2 27  1  0
  2 28  1  0
  4 29  1  0
  4 30  1  0
  5 31  1  0
  5 32  1  0
  5 33  1  0
  6 34  1  0
  6 35  1  0
  7 36  1  0
  7 37  1  0
  9 38  1  0
  9 39  1  0
 10 40  1  0
 10 41  1  0
 13 42  1  0
 14 43  1  0
 16 44  1  0
 16 45  1  0
 18 46  1  0
 19 47  1  0
 20 48  1  0
 22 49  1  0
 23 50  1  0
M  END
>  <UniqueID>  (6) 
6

>  <SMILES>  (6) 
CCN(CC)CCOCCOc1ccc(Cc2cccs2)cc1

>  <Energy>  (6) 
69.4196306379911

>  <Genealogy>  (6) 
CCN(CC)CCOCCOc1ccc(Cc2cccs2)cc1 (3D coordinates assigned)
CCN(CC)CCOCCOc1ccc(Cc2cccs2)cc1 (optimized conformer: 69.4196306379911 kcal/mol)

>  <smiles>  (6) 
CCN(CC)CCOCCOc1ccc(Cc2cccs2)cc1

>  <score_type>  (6) 
oracle

>  <origin>  (6) 
adg

>  <m_score__min__energy>  (6) 
-6.9299999999999997

>  <m_primary>  (6) 
energy

$$$$
6:0
     RDKit          3D

 83 85  0  0  0  0  0  0  0  0999 V2000
   58.7560   22.2090   44.1620 C   0  0  0  0  0  0  0  0  0  0  0  0
   57.6220   21.2530   43.7600 C   0  0  0  0  0  0  0  0  0  0  0  0
   56.2590   21.8350   43.8500 N   0  0  0  0  0  0  0  0  0  0  0  0
   56.1190   23.0320   43.0010 C   0  0  0  0  0  0  0  0  0  0  0  0
   55.7940   22.1180   45.2270 C   0  0  0  0  0  0  0  0  0  0  0  0
   56.6020   21.3430   46.2780 C   0  0  0  0  0  0  0  0  0  0  0  0
   57.0610   22.2100   47.3000 O   0  0  0  0  0  0  0  0  0  0  0  0
   56.1190   23.2340   47.5430 C   0  0  0  0  0  0  0  0  0  0  0  0
   56.8150   24.5900   47.4230 C   0  0  0  0  0  0  0  0  0  0  0  0
   56.0030   25.4970   46.6980 O   0  0  0  0  0  0  0  0  0  0  0  0
   56.2640   25.4010   45.3130 C   0  0  0  0  0  0  0  0  0  0  0  0
   57.7190   25.7770   45.0480 C   0  0  0  0  0  0  0  0  0  0  0  0
   57.8040   26.7440   43.9420 N   0  0  0  0  0  0  0  0  0  0  0  0
   58.8560   27.7300   44.2260 C   0  0  0  0  0  0  0  0  0  0  0  0
   58.2760   29.1400   44.4190 C   0  0  0  0  0  0  0  0  0  0  0  0
   57.5260   29.3420   45.7440 C   0  0  0  0  0  0  0  0  0  0  0  0
   58.3190   30.1690   46.6680 N   0  0  0  0  0  0  0  0  0  0  0  0
   58.7510   29.4240   47.8590 C   0  0  0  0  0  0  0  0  0  0  0  0
   59.4470   30.3430   48.8800 C   0  0  0  0  0  0  0  0  0  0  0  0
   58.5090   30.9020   49.9740 C   0  0  0  0  0  0  0  0  0  0  0  0
   58.2700   32.3560   49.8550 N   0  0  0  0  0  0  0  0  0  0  0  0
   59.2680   33.0060   49.0100 C   0  0  0  0  0  0  0  0  0  0  0  0
   58.9970   33.3540   47.6530 C   0  0  0  0  0  0  0  0  0  0  0  0
   57.6860   33.3500   47.1070 C   0  0  0  0  0  0  0  0  0  0  0  0
   57.4490   33.7230   45.7870 C   0  0  0  0  0  0  0  0  0  0  0  0
   58.4960   34.1360   44.9800 C   0  0  0  0  0  0  0  0  0  0  0  0
   59.7910   34.1660   45.4830 C   0  0  0  0  0  0  0  0  0  0  0  0
   60.0760   33.7540   46.8100 C   0  0  0  0  0  0  0  0  0  0  0  0
   61.3690   33.7610   47.2880 N   0  0  0  0  0  0  0  0  0  0  0  0
   62.5140   33.8380   46.3500 C   0  0  0  0  0  0  0  0  0  0  0  0
   61.6030   33.6910   48.6430 C   0  0  0  0  0  0  0  0  0  0  0  0
   62.8710   34.0190   49.1870 C   0  0  0  0  0  0  0  0  0  0  0  0
   63.1220   33.9100   50.5510 C   0  0  0  0  0  0  0  0  0  0  0  0
   62.1220   33.4770   51.4070 C   0  0  0  0  0  0  0  0  0  0  0  0
   60.8590   33.1700   50.9100 C   0  0  0  0  0  0  0  0  0  0  0  0
   60.5650   33.2860   49.5270 C   0  0  0  0  0  0  0  0  0  0  0  0
   58.8191   22.2622   45.2589 H   0  0  0  0  0  0  0  0  0  0  0  0
   59.7092   21.8379   43.7574 H   0  0  0  0  0  0  0  0  0  0  0  0
   58.5514   23.2112   43.7574 H   0  0  0  0  0  0  0  0  0  0  0  0
   57.7920   20.9378   42.7199 H   0  0  0  0  0  0  0  0  0  0  0  0
   57.6512   20.4179   44.4754 H   0  0  0  0  0  0  0  0  0  0  0  0
   56.0148   23.9230   43.6377 H   0  0  0  0  0  0  0  0  0  0  0  0
   57.0109   23.1374   42.3659 H   0  0  0  0  0  0  0  0  0  0  0  0
   55.2268   22.9288   42.3659 H   0  0  0  0  0  0  0  0  0  0  0  0
   55.8982   23.1954   45.4226 H   0  0  0  0  0  0  0  0  0  0  0  0
   54.7439   21.7994   45.3031 H   0  0  0  0  0  0  0  0  0  0  0  0
   55.9628   20.5667   46.7238 H   0  0  0  0  0  0  0  0  0  0  0  0
   57.4732   20.8859   45.7860 H   0  0  0  0  0  0  0  0  0  0  0  0
   55.3062   23.1701   46.8046 H   0  0  0  0  0  0  0  0  0  0  0  0
   55.6990   23.1202   48.5533 H   0  0  0  0  0  0  0  0  0  0  0  0
   57.0000   24.9933   48.4295 H   0  0  0  0  0  0  0  0  0  0  0  0
   57.7677   24.4573   46.8893 H   0  0  0  0  0  0  0  0  0  0  0  0
   56.0834   24.3698   44.9754 H   0  0  0  0  0  0  0  0  0  0  0  0
   55.6002   26.0852   44.7641 H   0  0  0  0  0  0  0  0  0  0  0  0
   58.1489   26.2255   45.9558 H   0  0  0  0  0  0  0  0  0  0  0  0
   58.2784   24.8703   44.7740 H   0  0  0  0  0  0  0  0  0  0  0  0
   56.8830   27.2420   43.9040 H   0  0  0  0  0  0  0  0  0  0  0  0
   59.3845   27.4331   45.1439 H   0  0  0  0  0  0  0  0  0  0  0  0
   59.5426   27.7561   43.3670 H   0  0  0  0  0  0  0  0  0  0  0  0
   59.1054   29.8615   44.3798 H   0  0  0  0  0  0  0  0  0  0  0  0
   57.5395   29.2890   43.6157 H   0  0  0  0  0  0  0  0  0  0  0  0
   56.5669   29.8421   45.5438 H   0  0  0  0  0  0  0  0  0  0  0  0
   57.3537   28.3592   46.2070 H   0  0  0  0  0  0  0  0  0  0  0  0
   59.1760   30.4860   46.1570 H   0  0  0  0  0  0  0  0  0  0  0  0
   57.8701   28.9662   48.3329 H   0  0  0  0  0  0  0  0  0  0  0  0
   59.4703   28.6546   47.5418 H   0  0  0  0  0  0  0  0  0  0  0  0
   60.2463   29.7691   49.3716 H   0  0  0  0  0  0  0  0  0  0  0  0
   59.8269   31.2087   48.3176 H   0  0  0  0  0  0  0  0  0  0  0  0
   57.5419   30.3826   49.9030 H   0  0  0  0  0  0  0  0  0  0  0  0
   59.0019   30.7319   50.9426 H   0  0  0  0  0  0  0  0  0  0  0  0
   57.2870   32.5000   49.5580 H   0  0  0  0  0  0  0  0  0  0  0  0
   58.2810   32.7870   50.8050 H   0  0  0  0  0  0  0  0  0  0  0  0
   56.8399   33.0457   47.7406 H   0  0  0  0  0  0  0  0  0  0  0  0
   56.4263   33.6896   45.3834 H   0  0  0  0  0  0  0  0  0  0  0  0
   58.3025   34.4403   43.9408 H   0  0  0  0  0  0  0  0  0  0  0  0
   60.6114   34.5162   44.8393 H   0  0  0  0  0  0  0  0  0  0  0  0
   63.4521   33.9011   46.9209 H   0  0  0  0  0  0  0  0  0  0  0  0
   62.5301   32.9389   45.7165 H   0  0  0  0  0  0  0  0  0  0  0  0
   62.4096   34.7312   45.7165 H   0  0  0  0  0  0  0  0  0  0  0  0
   63.6716   34.3664   48.5174 H   0  0  0  0  0  0  0  0  0  0  0  0
   64.1142   34.1675   50.9500 H   0  0  0  0  0  0  0  0  0  0  0  0
   62.3272   33.3756   52.4829 H   0  0  0  0  0  0  0  0  0  0  0  0
   60.0741   32.8311   51.6022 H   0  0  0  0  0  0  0  0  0  0  0  0
  1  2  1  0
  2  3  1  0
  3  4  1  0
  3  5  1  0
  5  6  1  0
  6  7  1  0
  7  8  1  0
  8  9  1  0
  9 10  1  0
 10 11  1  0
 11 12  1  0
 12 13  1  0
 13 14  1  0
 14 15  1  0
 15 16  1  0
 16 17  1  0
 17 18  1  0
 18 19  1  0
 19 20  1  0
 20 21  1  0
 21 22  1  0
 22 23  2  0
 23 24  1  0
 24 25  2  0
 25 26  1  0
 26 27  2  0
 27 28  1  0
 28 29  2  0
 29 30  1  0
 29 31  1  0
 31 32  2  0
 32 33  1  0
 33 34  2  0
 34 35  1  0
 35 36  2  0
 36 22  1  0
 28 23  1  0
 36 31  1  0
  1 37  1  0
  1 38  1  0
  1 39  1  0
  2 40  1  0
  2 41  1  0
  4 42  1  0
  4 43  1  0
  4 44  1  0
  5 45  1  0
  5 46  1  0
  6 47  1  0
  6 48  1  0
  8 49  1  0
  8 50  1  0
  9 51  1  0
  9 52  1  0
 11 53  1  0
 11 54  1  0
 12 55  1  0
 12 56  1  0
 13 57  1  0
 14 58  1  0
 14 59  1  0
 15 60  1  0
 15 61  1  0
 16 62  1  0
 16 63  1  0
 17 64  1  0
 18 65  1  0
 18 66  1  0
 19 67  1  0
 19 68  1  0
 20 69  1  0
 20 70  1  0
 21 71  1  0
 21 72  1  0
 24 73  1  0
 25 74  1  0
 26 75  1  0
 27 76  1  0
 30 77  1  0
 30 78  1  0
 30 79  1  0
 32 80  1  0
 33 81  1  0
 34 82  1  0
 35 83  1  0
M  CHG  2  21   1  29   1
M  END
>  <UniqueID>  (7) 
7

>  <SMILES>  (7) 
CCN(C)CCOCCOCCNCCCNCCC[NH2+]c1c2ccccc2[n+](C)c2ccccc12

>  <Energy>  (7) 
111.60275985633375

>  <Genealogy>  (7) 
CCN(C)CCOCCOCCNCCCNCCC[NH2+]c1c2ccccc2[n+](C)c2ccccc12 (protonated)
CCN(C)CCOCCOCCNCCCNCCC[NH2+]c1c2ccccc2[n+](C)c2ccccc12 (3D coordinates assigned)
CCN(C)CCOCCOCCNCCCNCCC[NH2+]c1c2ccccc2[n+](C)c2ccccc12 (optimized conformer: 111.60275985633375 kcal/mol)

>  <smiles>  (7) 
CCN(C)CCOCCOCCNCCCNCCCNc1c2ccccc2[n+](C)c2ccccc12

>  <score_type>  (7) 
oracle

>  <origin>  (7) 
adg

>  <m_score__min__energy>  (7) 
-4.8499999999999996

>  <m_primary>  (7) 
energy

$$$$
7:0
     RDKit          3D

 53 56  0  0  0  0  0  0  0  0999 V2000
   61.8010   33.3430   50.2880 C   0  0  0  0  0  0  0  0  0  0  0  0
   62.5100   33.3650   49.0100 N   0  0  0  0  0  0  0  0  0  0  0  0
   62.0530   33.8210   47.8230 C   0  0  0  0  0  0  0  0  0  0  0  0
   60.4310   34.5460   47.5580 S   0  0  0  0  0  0  0  0  0  0  0  0
   60.2170   33.8520   45.8790 C   0  0  0  0  0  0  0  0  0  0  0  0
   58.7550   33.8800   45.4070 C   0  0  0  0  0  0  0  0  0  0  0  0
   57.8300   32.9730   46.2420 C   0  0  0  0  0  0  0  0  0  0  0  0
   57.2550   31.8760   45.4300 N   0  0  0  0  0  0  0  0  0  0  0  0
   57.2270   32.2250   43.9730 C   0  0  0  0  0  0  0  0  0  0  0  0
   57.4540   31.0620   42.9690 C   0  0  0  0  0  0  0  0  0  0  0  0
   56.5490   29.7960   43.1260 C   0  0  1  0  0  0  0  0  0  0  0  0
   57.4070   28.5200   43.1600 C   0  0  0  0  0  0  0  0  0  0  0  0
   57.7180   28.2710   44.6440 C   0  0  0  0  0  0  0  0  0  0  0  0
   56.9590   29.3610   45.4200 C   0  0  2  0  0  0  0  0  0  0  0  0
   55.8310   29.7280   44.4630 C   0  0  0  0  0  0  0  0  0  0  0  0
   57.8890   30.5740   45.7530 C   0  0  0  0  0  0  0  0  0  0  0  0
   62.9720   33.6870   46.8470 N   0  0  0  0  0  0  0  0  0  0  0  0
   64.0330   33.1380   47.4150 N   0  0  0  0  0  0  0  0  0  0  0  0
   63.7670   32.9560   48.7230 C   0  0  0  0  0  0  0  0  0  0  0  0
   64.7380   32.3840   49.6810 C   0  0  0  0  0  0  0  0  0  0  0  0
   66.0010   32.9730   49.8380 C   0  0  0  0  0  0  0  0  0  0  0  0
   66.9100   32.4470   50.7560 C   0  0  0  0  0  0  0  0  0  0  0  0
   66.5440   31.3390   51.5230 C   0  0  0  0  0  0  0  0  0  0  0  0
   65.3100   30.7890   51.3760 N   0  0  0  0  0  0  0  0  0  0  0  0
   64.4080   31.2820   50.4850 C   0  0  0  0  0  0  0  0  0  0  0  0
   62.5295   33.3656   51.1119 H   0  0  0  0  0  0  0  0  0  0  0  0
   61.1421   34.2211   50.3569 H   0  0  0  0  0  0  0  0  0  0  0  0
   61.1978   32.4257   50.3569 H   0  0  0  0  0  0  0  0  0  0  0  0
   60.8251   34.4394   45.1754 H   0  0  0  0  0  0  0  0  0  0  0  0
   60.5352   32.7995   45.9118 H   0  0  0  0  0  0  0  0  0  0  0  0
   58.3854   34.9138   45.4751 H   0  0  0  0  0  0  0  0  0  0  0  0
   58.7377   33.5022   44.3740 H   0  0  0  0  0  0  0  0  0  0  0  0
   58.4104   32.5374   47.0687 H   0  0  0  0  0  0  0  0  0  0  0  0
   57.0006   33.5879   46.6216 H   0  0  0  0  0  0  0  0  0  0  0  0
   56.2426   32.6650   43.7552 H   0  0  0  0  0  0  0  0  0  0  0  0
   58.0793   32.9041   43.8237 H   0  0  0  0  0  0  0  0  0  0  0  0
   57.2914   31.4617   41.9572 H   0  0  0  0  0  0  0  0  0  0  0  0
   58.4754   30.7075   43.1715 H   0  0  0  0  0  0  0  0  0  0  0  0
   55.8489   29.8645   42.2803 H   0  0  0  0  0  0  0  0  0  0  0  0
   56.8499   27.6712   42.7367 H   0  0  0  0  0  0  0  0  0  0  0  0
   58.3253   28.6308   42.5646 H   0  0  0  0  0  0  0  0  0  0  0  0
   57.3692   27.2725   44.9461 H   0  0  0  0  0  0  0  0  0  0  0  0
   58.7991   28.3106   44.8432 H   0  0  0  0  0  0  0  0  0  0  0  0
   56.5876   29.0325   46.4019 H   0  0  0  0  0  0  0  0  0  0  0  0
   55.0479   28.9556   44.4556 H   0  0  0  0  0  0  0  0  0  0  0  0
   55.3116   30.6597   44.7316 H   0  0  0  0  0  0  0  0  0  0  0  0
   58.1265   30.5531   46.8269 H   0  0  0  0  0  0  0  0  0  0  0  0
   58.7965   30.4804   45.1385 H   0  0  0  0  0  0  0  0  0  0  0  0
   64.9240   32.9220   46.9160 H   0  0  0  0  0  0  0  0  0  0  0  0
   66.2754   33.8517   49.2359 H   0  0  0  0  0  0  0  0  0  0  0  0
   67.9052   32.9005   50.8745 H   0  0  0  0  0  0  0  0  0  0  0  0
   67.2543   30.9115   52.2460 H   0  0  0  0  0  0  0  0  0  0  0  0
   63.4161   30.8151   50.3943 H   0  0  0  0  0  0  0  0  0  0  0  0
  1  2  1  0
  2  3  1  0
  3  4  1  0
  4  5  1  0
  5  6  1  0
  6  7  1  0
  7  8  1  0
  8  9  1  0
  9 10  1  0
 10 11  1  0
 11 12  1  0
 12 13  1  0
 13 14  1  0
 14 15  1  0
 14 16  1  0
  3 17  2  0
 17 18  1  0
 18 19  2  0
 19 20  1  0
 20 21  2  0
 21 22  1  0
 22 23  2  0
 23 24  1  0
 24 25  2  0
 19  2  1  0
 25 20  1  0
 16  8  1  0
 15 11  1  0
  1 26  1  0
  1 27  1  0
  1 28  1  0
  5 29  1  0
  5 30  1  0
  6 31  1  0
  6 32  1  0
  7 33  1  0
  7 34  1  0
  9 35  1  0
  9 36  1  0
 10 37  1  0
 10 38  1  0
 11 39  1  6
 12 40  1  0
 12 41  1  0
 13 42  1  0
 13 43  1  0
 14 44  1  1
 15 45  1  0
 15 46  1  0
 16 47  1  0
 16 48  1  0
 18 49  1  0
 21 50  1  0
 22 51  1  0
 23 52  1  0
 25 53  1  0
M  CHG  1  18   1
M  END
>  <UniqueID>  (8) 
8

>  <SMILES>  (8) 
Cn1c(SCCCN2CC[C@H]3CC[C@H](C3)C2)n[nH+]c1-c1cccnc1

>  <Energy>  (8) 
117.8377927499096

>  <Genealogy>  (8) 
Cn1c(SCCCN2CCC3CCC(C3)C2)n[nH+]c1-c1cccnc1 (protonated)
Cn1c(SCCCN2CC[C@H]3CC[C@H](C3)C2)n[nH+]c1-c1cccnc1 (chirality)
Cn1c(SCCCN2CC[C@H]3CC[C@H](C3)C2)n[nH+]c1-c1cccnc1 (3D coordinates assigned)
Cn1c(SCCCN2CC[C@H]3CC[C@H](C3)C2)n[nH+]c1-c1cccnc1 (nonaromatic ring conformer: 117.8377927499096 kcal/mol)

>  <smiles>  (8) 
Cn1c(SCCCN2CCC3CCC(C3)C2)nnc1-c1cccnc1

>  <score_type>  (8) 
oracle

>  <origin>  (8) 
adg

>  <m_score__min__energy>  (8) 
-6.4199999999999999

>  <m_primary>  (8) 
energy

$$$$
8:0
     RDKit          3D

 34 35  0  0  0  0  0  0  0  0999 V2000
   59.1540   34.5840   45.6830 C   0  0  0  0  0  0  0  0  0  0  0  0
   58.2060   34.0970   44.8770 C   0  0  0  0  0  0  0  0  0  0  0  0
   57.1830   33.1160   45.3750 C   0  0  0  0  0  0  0  0  0  0  0  0
   57.1320   31.9630   44.5350 O   0  0  0  0  0  0  0  0  0  0  0  0
   57.5380   30.6700   44.9040 C   0  0  0  0  0  0  0  0  0  0  0  0
   58.8860   30.3260   45.1060 C   0  0  0  0  0  0  0  0  0  0  0  0
   59.2380   29.0220   45.4700 C   0  0  0  0  0  0  0  0  0  0  0  0
   58.2490   28.0280   45.6340 C   0  0  0  0  0  0  0  0  0  0  0  0
   58.5520   26.6880   45.9850 C   0  0  0  0  0  0  0  0  0  0  0  0
   59.9960   26.2480   46.1260 C   0  0  0  0  0  0  0  0  0  0  0  0
   57.4740   25.7910   46.2250 C   0  0  0  0  0  0  0  0  0  0  0  0
   57.6870   24.3590   46.6860 C   0  0  0  0  0  0  0  0  0  0  0  0
   58.0430   23.4520   45.5110 C   0  0  0  0  0  0  0  0  0  0  0  0
   56.1600   26.2470   45.9930 C   0  0  0  0  0  0  0  0  0  0  0  0
   55.1770   25.4710   46.1390 O   0  0  0  0  0  0  0  0  0  0  0  0
   55.9310   27.4980   45.6200 O   0  0  0  0  0  0  0  0  0  0  0  0
   56.8950   28.3880   45.4460 C   0  0  0  0  0  0  0  0  0  0  0  0
   56.5540   29.6940   45.0770 C   0  0  0  0  0  0  0  0  0  0  0  0
   59.8916   35.3013   45.2939 H   0  0  0  0  0  0  0  0  0  0  0  0
   59.1968   34.2676   46.7356 H   0  0  0  0  0  0  0  0  0  0  0  0
   58.1740   34.4213   43.8264 H   0  0  0  0  0  0  0  0  0  0  0  0
   57.4486   32.8060   46.3965 H   0  0  0  0  0  0  0  0  0  0  0  0
   56.1962   33.6019   45.3654 H   0  0  0  0  0  0  0  0  0  0  0  0
   59.6693   31.0874   44.9769 H   0  0  0  0  0  0  0  0  0  0  0  0
   60.2963   28.7685   45.6301 H   0  0  0  0  0  0  0  0  0  0  0  0
   60.2530   26.1697   47.1927 H   0  0  0  0  0  0  0  0  0  0  0  0
   60.1296   25.2684   45.6438 H   0  0  0  0  0  0  0  0  0  0  0  0
   60.6531   26.9867   45.6438 H   0  0  0  0  0  0  0  0  0  0  0  0
   58.5065   24.3356   47.4194 H   0  0  0  0  0  0  0  0  0  0  0  0
   56.7531   23.9946   47.1389 H   0  0  0  0  0  0  0  0  0  0  0  0
   58.4202   22.4910   45.8908 H   0  0  0  0  0  0  0  0  0  0  0  0
   57.1466   23.2775   44.8978 H   0  0  0  0  0  0  0  0  0  0  0  0
   58.8187   23.9338   44.8978 H   0  0  0  0  0  0  0  0  0  0  0  0
   55.4970   29.9554   44.9211 H   0  0  0  0  0  0  0  0  0  0  0  0
  1  2  2  0
  2  3  1  0
  3  4  1  0
  4  5  1  0
  5  6  2  0
  6  7  1  0
  7  8  2  0
  8  9  1  0
  9 10  1  0
  9 11  2  0
 11 12  1  0
 12 13  1  0
 11 14  1  0
 14 15  2  0
 14 16  1  0
 16 17  1  0
 17 18  2  0
 18  5  1  0
 17  8  1  0
  1 19  1  0
  1 20  1  0
  2 21  1  0
  3 22  1  0
  3 23  1  0
  6 24  1  0
  7 25  1  0
 10 26  1  0
 10 27  1  0
 10 28  1  0
 12 29  1  0
 12 30  1  0
 13 31  1  0
 13 32  1  0
 13 33  1  0
 18 34  1  0
M  END
>  <UniqueID>  (9) 
9

>  <SMILES>  (9) 
C=CCOc1ccc2c(C)c(CC)c(=O)oc2c1

>  <Energy>  (9) 
38.868636997860705

>  <Genealogy>  (9) 
C=CCOc1ccc2c(C)c(CC)c(=O)oc2c1 (3D coordinates assigned)
C=CCOc1ccc2c(C)c(CC)c(=O)oc2c1 (optimized conformer: 38.868636997860705 kcal/mol)

>  <smiles>  (9) 
C=CCOc1ccc2c(C)c(CC)c(=O)oc2c1

>  <score_type>  (9) 
oracle

>  <origin>  (9) 
adg

>  <m_score__min__energy>  (9) 
-6.5499999999999998

>  <m_primary>  (9) 
energy

$$$$
9:0
     RDKit          3D

 47 49  0  0  0  0  0  0  0  0999 V2000
   60.6530   28.5970   44.9040 C   0  0  0  0  0  0  0  0  0  0  0  0
   59.9030   27.4870   45.6350 C   0  0  0  0  0  0  0  0  0  0  0  0
   58.4460   27.7560   45.6310 N   0  0  0  0  0  0  0  0  0  0  0  0
   57.7700   27.0250   46.7280 C   0  0  0  0  0  0  0  0  0  0  0  0
   56.5790   26.2420   46.1840 C   0  0  0  0  0  0  0  0  0  0  0  0
   57.8450   27.4280   44.3170 C   0  0  0  0  0  0  0  0  0  0  0  0
   57.4590   28.7030   43.5580 C   0  0  0  0  0  0  0  0  0  0  0  0
   56.2040   29.6750   44.4690 S   0  0  0  0  0  0  0  0  0  0  0  0
   57.3840   30.8250   45.1790 C   0  0  0  0  0  0  0  0  0  0  0  0
   57.3700   32.1260   44.7860 N   0  0  0  0  0  0  0  0  0  0  0  0
   58.2650   32.9840   45.3240 C   0  0  0  0  0  0  0  0  0  0  0  0
   58.4060   34.6120   44.9700 S   0  0  0  0  0  0  0  0  0  0  0  0
   59.7240   34.8620   45.9960 C   0  0  0  0  0  0  0  0  0  0  0  0
   60.0730   33.6560   46.6140 C   0  0  0  0  0  0  0  0  0  0  0  0
   61.3090   33.5460   47.4140 C   0  0  0  0  0  0  0  0  0  0  0  0
   62.5330   33.2740   46.7850 C   0  0  0  0  0  0  0  0  0  0  0  0
   63.7000   33.1410   47.5460 C   0  0  0  0  0  0  0  0  0  0  0  0
   63.6480   33.2630   48.9380 C   0  0  0  0  0  0  0  0  0  0  0  0
   65.2420   33.0810   49.9720 Br  0  0  0  0  0  0  0  0  0  0  0  0
   62.4270   33.5150   49.5710 C   0  0  0  0  0  0  0  0  0  0  0  0
   61.2590   33.6480   48.8150 C   0  0  0  0  0  0  0  0  0  0  0  0
   59.2120   32.5910   46.2530 C   0  0  0  0  0  0  0  0  0  0  0  0
   59.1800   31.2520   46.6950 C   0  0  0  0  0  0  0  0  0  0  0  0
   59.9840   30.7840   47.7830 N   0  0  0  0  0  0  0  0  0  0  0  0
   58.2800   30.3970   46.1180 N   0  0  0  0  0  0  0  0  0  0  0  0
   61.1113   29.2753   45.6387 H   0  0  0  0  0  0  0  0  0  0  0  0
   61.4383   28.1551   44.2732 H   0  0  0  0  0  0  0  0  0  0  0  0
   59.9499   29.1607   44.2732 H   0  0  0  0  0  0  0  0  0  0  0  0
   60.0955   26.5279   45.1320 H   0  0  0  0  0  0  0  0  0  0  0  0
   60.2545   27.4460   46.6765 H   0  0  0  0  0  0  0  0  0  0  0  0
   58.4822   26.3270   47.1924 H   0  0  0  0  0  0  0  0  0  0  0  0
   57.4125   27.7491   47.4749 H   0  0  0  0  0  0  0  0  0  0  0  0
   55.9837   25.8507   47.0222 H   0  0  0  0  0  0  0  0  0  0  0  0
   55.9539   26.9059   45.5688 H   0  0  0  0  0  0  0  0  0  0  0  0
   56.9406   25.4049   45.5688 H   0  0  0  0  0  0  0  0  0  0  0  0
   58.5733   26.8599   43.7197 H   0  0  0  0  0  0  0  0  0  0  0  0
   56.9367   26.8308   44.4854 H   0  0  0  0  0  0  0  0  0  0  0  0
   58.3578   29.3216   43.4189 H   0  0  0  0  0  0  0  0  0  0  0  0
   57.0301   28.4099   42.5884 H   0  0  0  0  0  0  0  0  0  0  0  0
   60.2306   35.8255   46.1542 H   0  0  0  0  0  0  0  0  0  0  0  0
   62.5757   33.1650   45.6912 H   0  0  0  0  0  0  0  0  0  0  0  0
   64.6601   32.9401   47.0481 H   0  0  0  0  0  0  0  0  0  0  0  0
   62.3856   33.6088   50.6662 H   0  0  0  0  0  0  0  0  0  0  0  0
   60.2982   33.8330   49.3177 H   0  0  0  0  0  0  0  0  0  0  0  0
   59.6730   30.9460   48.7670 H   0  0  0  0  0  0  0  0  0  0  0  0
   60.9650   30.4650   47.6400 H   0  0  0  0  0  0  0  0  0  0  0  0
   58.2490   29.4000   46.4280 H   0  0  0  0  0  0  0  0  0  0  0  0
  1  2  1  0
  2  3  1  0
  3  4  1  0
  4  5  1  0
  3  6  1  0
  6  7  1  0
  7  8  1  0
  8  9  1  0
  9 10  2  0
 10 11  1  0
 11 12  1  0
 12 13  1  0
 13 14  2  0
 14 15  1  0
 15 16  2  0
 16 17  1  0
 17 18  2  0
 18 19  1  0
 18 20  1  0
 20 21  2  0
 14 22  1  0
 22 23  1  0
 23 24  1  0
 23 25  2  0
 25  9  1  0
 22 11  2  0
 21 15  1  0
  1 26  1  0
  1 27  1  0
  1 28  1  0
  2 29  1  0
  2 30  1  0
  4 31  1  0
  4 32  1  0
  5 33  1  0
  5 34  1  0
  5 35  1  0
  6 36  1  0
  6 37  1  0
  7 38  1  0
  7 39  1  0
 13 40  1  0
 16 41  1  0
 17 42  1  0
 20 43  1  0
 21 44  1  0
 24 45  1  0
 24 46  1  0
 25 47  1  0
M  CHG  1  25   1
M  END
>  <UniqueID>  (10) 
10

>  <SMILES>  (10) 
CCN(CC)CCSc1nc2scc(-c3ccc(Br)cc3)c2c(N)[nH+]1

>  <Energy>  (10) 
84.02651825415938

>  <Genealogy>  (10) 
CCN(CC)CCSc1nc2scc(-c3ccc(Br)cc3)c2c(N)[nH+]1 (protonated)
CCN(CC)CCSc1nc2scc(-c3ccc(Br)cc3)c2c(N)[nH+]1 (3D coordinates assigned)
CCN(CC)CCSc1nc2scc(-c3ccc(Br)cc3)c2c(N)[nH+]1 (optimized conformer: 84.02651825415938 kcal/mol)

>  <smiles>  (10) 
CCN(CC)CCSc1nc(N)c2c(-c3ccc(Br)cc3)csc2n1

>  <score_type>  (10) 
oracle

>  <origin>  (10) 
adg

>  <m_score__min__energy>  (10) 
-6.4100000000000001

>  <m_primary>  (10) 
energy

$$$$
10:0
     RDKit          3D

 47 46  0  0  0  0  0  0  0  0999 V2000
   63.2860   33.8510   46.2980 C   0  0  0  0  0  0  0  0  0  0  0  0
   63.3510   32.6570   47.2450 C   0  0  0  0  0  0  0  0  0  0  0  0
   63.3280   33.1070   48.6450 N   0  0  0  0  0  0  0  0  0  0  0  0
   64.5490   33.0660   49.4560 C   0  0  0  0  0  0  0  0  0  0  0  0
   64.6360   31.7550   50.2320 C   0  0  0  0  0  0  0  0  0  0  0  0
   62.2480   33.5190   49.1890 N   0  0  0  0  0  0  0  0  0  0  0  0
   61.1550   32.6960   49.3550 O   0  0  0  0  0  0  0  0  0  0  0  0
   59.8420   33.2210   49.2690 C   0  0  0  0  0  0  0  0  0  0  0  0
   59.6010   33.6930   47.9060 C   0  0  0  0  0  0  0  0  0  0  0  0
   59.4150   34.0850   46.7810 C   0  0  0  0  0  0  0  0  0  0  0  0
   59.1990   34.5790   45.4150 C   0  0  0  0  0  0  0  0  0  0  0  0
   57.8000   34.2230   44.8870 C   0  0  0  0  0  0  0  0  0  0  0  0
   57.7820   32.9370   44.0310 C   0  0  0  0  0  0  0  0  0  0  0  0
   57.3360   31.7080   44.8470 C   0  0  0  0  0  0  0  0  0  0  0  0
   56.6990   30.6280   43.9630 C   0  0  0  0  0  0  0  0  0  0  0  0
   56.6610   29.3400   44.6660 C   0  0  0  0  0  0  0  0  0  0  0  0
   56.6540   28.2770   45.2360 C   0  0  0  0  0  0  0  0  0  0  0  0
   56.6540   27.0000   45.9480 C   0  0  0  0  0  0  0  0  0  0  0  0
   55.3350   26.5010   45.9810 O   0  0  0  0  0  0  0  0  0  0  0  0
   55.3440   25.1370   45.6260 C   0  0  0  0  0  0  0  0  0  0  0  0
   63.2354   34.7809   46.8834 H   0  0  0  0  0  0  0  0  0  0  0  0
   64.1847   33.8654   45.6639 H   0  0  0  0  0  0  0  0  0  0  0  0
   62.3911   33.7677   45.6639 H   0  0  0  0  0  0  0  0  0  0  0  0
   62.4866   32.0020   47.0612 H   0  0  0  0  0  0  0  0  0  0  0  0
   64.2876   32.1096   47.0630 H   0  0  0  0  0  0  0  0  0  0  0  0
   65.4244   33.1538   48.7957 H   0  0  0  0  0  0  0  0  0  0  0  0
   64.5266   33.9006   50.1722 H   0  0  0  0  0  0  0  0  0  0  0  0
   64.6220   31.9662   51.3114 H   0  0  0  0  0  0  0  0  0  0  0  0
   63.7782   31.1174   49.9720 H   0  0  0  0  0  0  0  0  0  0  0  0
   65.5705   31.2363   49.9720 H   0  0  0  0  0  0  0  0  0  0  0  0
   59.1144   32.4352   49.5202 H   0  0  0  0  0  0  0  0  0  0  0  0
   59.7316   34.0576   49.9747 H   0  0  0  0  0  0  0  0  0  0  0  0
   59.3119   35.6732   45.4113 H   0  0  0  0  0  0  0  0  0  0  0  0
   59.9410   34.0996   44.7596 H   0  0  0  0  0  0  0  0  0  0  0  0
   57.1278   34.0807   45.7460 H   0  0  0  0  0  0  0  0  0  0  0  0
   57.4741   35.0509   44.2403 H   0  0  0  0  0  0  0  0  0  0  0  0
   57.0850   33.0784   43.1918 H   0  0  0  0  0  0  0  0  0  0  0  0
   58.8051   32.7535   43.6710 H   0  0  0  0  0  0  0  0  0  0  0  0
   58.2144   31.2801   45.3523 H   0  0  0  0  0  0  0  0  0  0  0  0
   56.5798   32.0402   45.5735 H   0  0  0  0  0  0  0  0  0  0  0  0
   55.6729   30.9300   43.7063 H   0  0  0  0  0  0  0  0  0  0  0  0
   57.3026   30.5158   43.0503 H   0  0  0  0  0  0  0  0  0  0  0  0
   57.3073   26.2852   45.4262 H   0  0  0  0  0  0  0  0  0  0  0  0
   57.0268   27.1422   46.9731 H   0  0  0  0  0  0  0  0  0  0  0  0
   55.3481   24.5210   46.5373 H   0  0  0  0  0  0  0  0  0  0  0  0
   54.4474   24.9068   45.0318 H   0  0  0  0  0  0  0  0  0  0  0  0
   56.2436   24.9187   45.0318 H   0  0  0  0  0  0  0  0  0  0  0  0
  1  2  1  0
  2  3  1  0
  3  4  1  0
  4  5  1  0
  3  6  2  3
  6  7  1  0
  7  8  1  0
  8  9  1  0
  9 10  3  0
 10 11  1  0
 11 12  1  0
 12 13  1  0
 13 14  1  0
 14 15  1  0
 15 16  1  0
 16 17  3  0
 17 18  1  0
 18 19  1  0
 19 20  1  0
  1 21  1  0
  1 22  1  0
  1 23  1  0
  2 24  1  0
  2 25  1  0
  4 26  1  0
  4 27  1  0
  5 28  1  0
  5 29  1  0
  5 30  1  0
  8 31  1  0
  8 32  1  0
 11 33  1  0
 11 34  1  0
 12 35  1  0
 12 36  1  0
 13 37  1  0
 13 38  1  0
 14 39  1  0
 14 40  1  0
 15 41  1  0
 15 42  1  0
 18 43  1  0
 18 44  1  0
 20 45  1  0
 20 46  1  0
 20 47  1  0
M  CHG  1   3   1
M  END
>  <UniqueID>  (11) 
11

>  <SMILES>  (11) 
CC[N+](CC)=NOCC#CCCCCCC#CCOC

>  <Energy>  (11) 
13.940612468925098

>  <Genealogy>  (11) 
CC[N+](CC)=NOCC#CCCCCCC#CCOC (3D coordinates assigned)
CC[N+](CC)=NOCC#CCCCCCC#CCOC (optimized conformer: 13.940612468925098 kcal/mol)

>  <smiles>  (11) 
CC[N+](CC)=NOCC#CCCCCCC#CCOC

>  <score_type>  (11) 
oracle

>  <origin>  (11) 
adg

>  <m_score__min__energy>  (11) 
-3.5800000000000001

>  <m_primary>  (11) 
energy

$$$$
11:0
     RDKit          3D

 53 54  0  0  0  0  0  0  0  0999 V2000
   62.2780   33.4630   47.6570 C   0  0  0  0  0  0  0  0  0  0  0  0
   61.6290   32.9190   48.9230 C   0  0  0  0  0  0  0  0  0  0  0  0
   60.0950   33.8300   49.3220 S   0  0  0  0  0  0  0  0  0  0  0  0
   59.3630   33.6460   47.6930 C   0  0  0  0  0  0  0  0  0  0  0  0
   59.3190   34.7310   46.8180 C   0  0  0  0  0  0  0  0  0  0  0  0
   58.7440   34.5890   45.5560 C   0  0  0  0  0  0  0  0  0  0  0  0
   58.2020   33.3580   45.1410 C   0  0  0  0  0  0  0  0  0  0  0  0
   58.2220   32.2560   46.0480 C   0  0  0  0  0  0  0  0  0  0  0  0
   58.8080   32.4230   47.3090 C   0  0  0  0  0  0  0  0  0  0  0  0
   57.7070   30.9780   45.7650 O   0  0  0  0  0  0  0  0  0  0  0  0
   56.9320   30.5950   44.6310 C   0  0  2  0  0  0  0  0  0  0  0  0
   56.5650   29.1160   44.7570 C   0  0  0  0  0  0  0  0  0  0  0  0
   56.9910   28.6400   46.0170 O   0  0  0  0  0  0  0  0  0  0  0  0
   57.7370   27.4450   45.8800 C   0  0  0  0  0  0  0  0  0  0  0  0
   59.1190   27.5740   46.5570 C   0  0  0  0  0  0  0  0  0  0  0  0
   59.4720   28.9690   46.9370 N   0  0  0  0  0  0  0  0  0  0  0  0
   59.8860   29.1490   48.3560 C   0  0  0  0  0  0  0  0  0  0  0  0
   58.8090   29.7280   49.2810 C   0  0  0  0  0  0  0  0  0  0  0  0
   60.4030   29.6280   45.9740 C   0  0  0  0  0  0  0  0  0  0  0  0
   60.8620   28.7550   44.7920 C   0  0  0  0  0  0  0  0  0  0  0  0
   57.7090   30.8430   43.3660 C   0  0  0  0  0  0  0  0  0  0  0  0
   58.0340   32.0850   42.9910 C   0  0  0  0  0  0  0  0  0  0  0  0
   57.5750   33.2900   43.7650 C   0  0  0  0  0  0  0  0  0  0  0  0
   63.0949   34.1477   47.9288 H   0  0  0  0  0  0  0  0  0  0  0  0
   62.6809   32.6288   47.0639 H   0  0  0  0  0  0  0  0  0  0  0  0
   61.5270   34.0054   47.0639 H   0  0  0  0  0  0  0  0  0  0  0  0
   61.3870   31.8563   48.7742 H   0  0  0  0  0  0  0  0  0  0  0  0
   62.3350   33.0424   49.7575 H   0  0  0  0  0  0  0  0  0  0  0  0
   59.7387   35.7006   47.1241 H   0  0  0  0  0  0  0  0  0  0  0  0
   58.7134   35.4518   44.8744 H   0  0  0  0  0  0  0  0  0  0  0  0
   58.8316   31.5755   48.0099 H   0  0  0  0  0  0  0  0  0  0  0  0
   56.0109   31.1949   44.5892 H   0  0  0  0  0  0  0  0  0  0  0  0
   55.4750   28.9980   44.6679 H   0  0  0  0  0  0  0  0  0  0  0  0
   57.0577   28.5424   43.9581 H   0  0  0  0  0  0  0  0  0  0  0  0
   57.1824   26.6190   46.3492 H   0  0  0  0  0  0  0  0  0  0  0  0
   57.8889   27.2479   44.8085 H   0  0  0  0  0  0  0  0  0  0  0  0
   59.1189   26.9558   47.4669 H   0  0  0  0  0  0  0  0  0  0  0  0
   59.8682   27.2416   45.8234 H   0  0  0  0  0  0  0  0  0  0  0  0
   58.5810   29.5160   46.8560 H   0  0  0  0  0  0  0  0  0  0  0  0
   60.1820   28.1662   48.7516 H   0  0  0  0  0  0  0  0  0  0  0  0
   60.7056   29.8826   48.3445 H   0  0  0  0  0  0  0  0  0  0  0  0
   59.1025   29.5702   50.3293 H   0  0  0  0  0  0  0  0  0  0  0  0
   58.7012   30.8057   49.0887 H   0  0  0  0  0  0  0  0  0  0  0  0
   57.8506   29.2235   49.0887 H   0  0  0  0  0  0  0  0  0  0  0  0
   59.8953   30.5135   45.5640 H   0  0  0  0  0  0  0  0  0  0  0  0
   61.3124   29.8631   46.5464 H   0  0  0  0  0  0  0  0  0  0  0  0
   61.3419   27.8423   45.1749 H   0  0  0  0  0  0  0  0  0  0  0  0
   59.9911   28.4815   44.1782 H   0  0  0  0  0  0  0  0  0  0  0  0
   61.5810   29.3174   44.1782 H   0  0  0  0  0  0  0  0  0  0  0  0
   58.0139   29.9907   42.7411 H   0  0  0  0  0  0  0  0  0  0  0  0
   58.6531   32.2288   42.0932 H   0  0  0  0  0  0  0  0  0  0  0  0
   57.8496   34.1963   43.2053 H   0  0  0  0  0  0  0  0  0  0  0  0
   56.4852   33.2140   43.8936 H   0  0  0  0  0  0  0  0  0  0  0  0
  1  2  1  0
  2  3  1  0
  3  4  1  0
  4  5  2  0
  5  6  1  0
  6  7  2  0
  7  8  1  0
  8  9  2  0
  8 10  1  0
 10 11  1  0
 11 12  1  0
 12 13  1  0
 13 14  1  0
 14 15  1  0
 15 16  1  0
 16 17  1  0
 17 18  1  0
 16 19  1  0
 19 20  1  0
 11 21  1  0
 21 22  2  0
 22 23  1  0
  9  4  1  0
 23  7  1  0
  1 24  1  0
  1 25  1  0
  1 26  1  0
  2 27  1  0
  2 28  1  0
  5 29  1  0
  6 30  1  0
  9 31  1  0
 11 32  1  6
 12 33  1  0
 12 34  1  0
 14 35  1  0
 14 36  1  0
 15 37  1  0
 15 38  1  0
 16 39  1  0
 17 40  1  0
 17 41  1  0
 18 42  1  0
 18 43  1  0
 18 44  1  0
 19 45  1  0
 19 46  1  0
 20 47  1  0
 20 48  1  0
 20 49  1  0
 21 50  1  0
 22 51  1  0
 23 52  1  0
 23 53  1  0
M  CHG  1  16   1
M  END
>  <UniqueID>  (12) 
12

>  <SMILES>  (12) 
CCSc1ccc2c(c1)O[C@H](COCC[NH+](CC)CC)C=CC2

>  <Energy>  (12) 
56.952033300553936

>  <Genealogy>  (12) 
CCSc1ccc2c(c1)OC(COCC[NH+](CC)CC)C=CC2 (protonated)
CCSc1ccc2c(c1)O[C@H](COCC[NH+](CC)CC)C=CC2 (chirality)
CCSc1ccc2c(c1)O[C@H](COCC[NH+](CC)CC)C=CC2 (3D coordinates assigned)
CCSc1ccc2c(c1)O[C@H](COCC[NH+](CC)CC)C=CC2 (nonaromatic ring conformer: 56.952033300553936 kcal/mol)

>  <smiles>  (12) 
CCSc1ccc2c(c1)OC(COCCN(CC)CC)C=CC2

>  <score_type>  (12) 
oracle

>  <origin>  (12) 
adg

>  <m_score__min__energy>  (12) 
-3.1400000000000001

>  <m_primary>  (12) 
energy

$$$$
12:0
     RDKit          3D

 76 79  0  0  0  0  0  0  0  0999 V2000
   58.3400   26.3750   46.7540 C   0  0  0  0  0  0  0  0  0  0  0  0
   59.5680   27.1880   46.8260 N   0  0  0  0  0  0  0  0  0  0  0  0
   60.7210   26.3660   46.4220 C   0  0  0  0  0  0  0  0  0  0  0  0
   59.7710   27.7260   48.1900 C   0  0  0  0  0  0  0  0  0  0  0  0
   60.2340   29.2000   48.1230 C   0  0  0  0  0  0  0  0  0  0  0  0
   60.5700   29.7120   46.7670 N   0  0  0  0  0  0  0  0  0  0  0  0
   59.7490   30.8140   46.2810 C   0  0  0  0  0  0  0  0  0  0  0  0
   58.6970   30.5430   45.3630 C   0  0  0  0  0  0  0  0  0  0  0  0
   58.5440   29.2640   44.7680 C   0  0  0  0  0  0  0  0  0  0  0  0
   57.4650   28.9780   43.9370 C   0  0  0  0  0  0  0  0  0  0  0  0
   56.5080   29.9500   43.6840 C   0  0  0  0  0  0  0  0  0  0  0  0
   56.6550   31.2250   44.2180 C   0  0  0  0  0  0  0  0  0  0  0  0
   57.7760   31.5660   45.0210 C   0  0  0  0  0  0  0  0  0  0  0  0
   57.9650   32.8520   45.4760 N   0  0  0  0  0  0  0  0  0  0  0  0
   57.1880   33.9630   44.8770 C   0  0  0  0  0  0  0  0  0  0  0  0
   58.9170   33.1210   46.4400 C   0  0  0  0  0  0  0  0  0  0  0  0
   58.9270   34.3680   47.1080 C   0  0  0  0  0  0  0  0  0  0  0  0
   59.9530   34.7150   47.9690 C   0  0  0  0  0  0  0  0  0  0  0  0
   61.0020   33.8430   48.1850 C   0  0  0  0  0  0  0  0  0  0  0  0
   61.0080   32.5600   47.6110 C   0  0  0  0  0  0  0  0  0  0  0  0
   62.1120   31.7110   47.8170 O   0  0  0  0  0  0  0  0  0  0  0  0
   63.4930   32.0750   47.7670 C   0  0  0  0  0  0  0  0  0  0  0  0
   63.9330   33.0380   48.9080 C   0  0  0  0  0  0  0  0  0  0  0  0
   64.3270   32.4230   50.2240 N   0  0  0  0  0  0  0  0  0  0  0  0
   63.4990   31.2200   50.5090 C   0  0  0  0  0  0  0  0  0  0  0  0
   64.1620   33.4110   51.3430 C   0  0  0  0  0  0  0  0  0  0  0  0
   65.4440   34.2190   51.6250 C   0  0  0  0  0  0  0  0  0  0  0  0
   66.5780   33.3460   52.0660 N   0  0  0  0  0  0  0  0  0  0  0  0
   67.8570   33.9850   51.6680 C   0  0  0  0  0  0  0  0  0  0  0  0
   66.5700   33.2310   53.5460 C   0  0  0  0  0  0  0  0  0  0  0  0
   66.4920   31.9770   51.4680 C   0  0  0  0  0  0  0  0  0  0  0  0
   65.7600   31.9820   50.1100 C   0  0  0  0  0  0  0  0  0  0  0  0
   59.9030   32.1460   46.7880 C   0  0  0  0  0  0  0  0  0  0  0  0
   57.9924   26.1449   47.7720 H   0  0  0  0  0  0  0  0  0  0  0  0
   57.5599   26.9357   46.2182 H   0  0  0  0  0  0  0  0  0  0  0  0
   58.5515   25.4379   46.2182 H   0  0  0  0  0  0  0  0  0  0  0  0
   61.2398   25.9961   47.3187 H   0  0  0  0  0  0  0  0  0  0  0  0
   60.3709   25.5126   45.8228 H   0  0  0  0  0  0  0  0  0  0  0  0
   61.4136   26.9752   45.8228 H   0  0  0  0  0  0  0  0  0  0  0  0
   58.8244   27.6681   48.7474 H   0  0  0  0  0  0  0  0  0  0  0  0
   60.5446   27.1310   48.6975 H   0  0  0  0  0  0  0  0  0  0  0  0
   59.4263   29.8263   48.5297 H   0  0  0  0  0  0  0  0  0  0  0  0
   61.1694   29.2459   48.7000 H   0  0  0  0  0  0  0  0  0  0  0  0
   61.5750   29.9950   46.7570 H   0  0  0  0  0  0  0  0  0  0  0  0
   60.6070   28.9360   46.0760 H   0  0  0  0  0  0  0  0  0  0  0  0
   59.2928   28.4833   44.9675 H   0  0  0  0  0  0  0  0  0  0  0  0
   57.3709   27.9815   43.4808 H   0  0  0  0  0  0  0  0  0  0  0  0
   55.6332   29.7119   43.0611 H   0  0  0  0  0  0  0  0  0  0  0  0
   55.8871   31.9858   44.0144 H   0  0  0  0  0  0  0  0  0  0  0  0
   56.7556   34.5813   45.6774 H   0  0  0  0  0  0  0  0  0  0  0  0
   57.8519   34.5809   44.2545 H   0  0  0  0  0  0  0  0  0  0  0  0
   56.3799   33.5514   44.2545 H   0  0  0  0  0  0  0  0  0  0  0  0
   58.1023   35.0762   46.9395 H   0  0  0  0  0  0  0  0  0  0  0  0
   59.9331   35.6875   48.4826 H   0  0  0  0  0  0  0  0  0  0  0  0
   61.8462   34.1575   48.8162 H   0  0  0  0  0  0  0  0  0  0  0  0
   64.0958   31.1575   47.8364 H   0  0  0  0  0  0  0  0  0  0  0  0
   63.6478   32.6112   46.8191 H   0  0  0  0  0  0  0  0  0  0  0  0
   64.7970   33.6111   48.5405 H   0  0  0  0  0  0  0  0  0  0  0  0
   63.0355   33.6324   49.1343 H   0  0  0  0  0  0  0  0  0  0  0  0
   63.4076   31.0872   51.5971 H   0  0  0  0  0  0  0  0  0  0  0  0
   62.4988   31.3510   50.0703 H   0  0  0  0  0  0  0  0  0  0  0  0
   63.9785   30.3325   50.0703 H   0  0  0  0  0  0  0  0  0  0  0  0
   63.3572   34.1118   51.0764 H   0  0  0  0  0  0  0  0  0  0  0  0
   63.9245   32.8413   52.2535 H   0  0  0  0  0  0  0  0  0  0  0  0
   65.7396   34.7463   50.7060 H   0  0  0  0  0  0  0  0  0  0  0  0
   65.2254   34.9253   52.4394 H   0  0  0  0  0  0  0  0  0  0  0  0
   68.4218   34.2672   52.5688 H   0  0  0  0  0  0  0  0  0  0  0  0
   68.4500   33.2773   51.0701 H   0  0  0  0  0  0  0  0  0  0  0  0
   67.6472   34.8842   51.0701 H   0  0  0  0  0  0  0  0  0  0  0  0
   66.6398   34.2341   53.9921 H   0  0  0  0  0  0  0  0  0  0  0  0
   65.6362   32.7492   53.8713 H   0  0  0  0  0  0  0  0  0  0  0  0
   67.4281   32.6245   53.8713 H   0  0  0  0  0  0  0  0  0  0  0  0
   67.5109   31.5898   51.3203 H   0  0  0  0  0  0  0  0  0  0  0  0
   65.9196   31.3408   52.1591 H   0  0  0  0  0  0  0  0  0  0  0  0
   66.2860   32.6677   49.4294 H   0  0  0  0  0  0  0  0  0  0  0  0
   65.7604   30.9501   49.7289 H   0  0  0  0  0  0  0  0  0  0  0  0
  1  2  1  0
  2  3  1  0
  2  4  1  0
  4  5  1  0
  5  6  1  0
  6  7  1  0
  7  8  2  0
  8  9  1  0
  9 10  2  0
 10 11  1  0
 11 12  2  0
 12 13  1  0
 13 14  2  0
 14 15  1  0
 14 16  1  0
 16 17  2  0
 17 18  1  0
 18 19  2  0
 19 20  1  0
 20 21  1  0
 21 22  1  0
 22 23  1  0
 23 24  1  0
 24 25  1  0
 24 26  1  0
 26 27  1  0
 27 28  1  0
 28 29  1  0
 28 30  1  0
 28 31  1  0
 31 32  1  0
 20 33  2  0
 33  7  1  0
 13  8  1  0
 33 16  1  0
 32 24  1  0
  1 34  1  0
  1 35  1  0
  1 36  1  0
  3 37  1  0
  3 38  1  0
  3 39  1  0
  4 40  1  0
  4 41  1  0
  5 42  1  0
  5 43  1  0
  6 44  1  0
  6 45  1  0
  9 46  1  0
 10 47  1  0
 11 48  1  0
 12 49  1  0
 15 50  1  0
 15 51  1  0
 15 52  1  0
 17 53  1  0
 18 54  1  0
 19 55  1  0
 22 56  1  0
 22 57  1  0
 23 58  1  0
 23 59  1  0
 25 60  1  0
 25 61  1  0
 25 62  1  0
 26 63  1  0
 26 64  1  0
 27 65  1  0
 27 66  1  0
 29 67  1  0
 29 68  1  0
 29 69  1  0
 30 70  1  0
 30 71  1  0
 30 72  1  0
 31 73  1  0
 31 74  1  0
 32 75  1  0
 32 76  1  0
M  CHG  4   6   1  14   1  24   1  28   1
M  END
>  <UniqueID>  (13) 
13

>  <SMILES>  (13) 
CN(C)CC[NH2+]c1c2ccccc2[n+](C)c2cccc(OCC[N+]3(C)CC[N+](C)(C)CC3)c12

>  <Energy>  (13) 
145.7800790950461

>  <Genealogy>  (13) 
CN(C)CC[NH2+]c1c2ccccc2[n+](C)c2cccc(OCC[N+]3(C)CC[N+](C)(C)CC3)c12 (protonated)
CN(C)CC[NH2+]c1c2ccccc2[n+](C)c2cccc(OCC[N+]3(C)CC[N+](C)(C)CC3)c12 (3D coordinates assigned)
CN(C)CC[NH2+]c1c2ccccc2[n+](C)c2cccc(OCC[N+]3(C)CC[N+](C)(C)CC3)c12 (nonaromatic ring conformer: 145.7800790950461 kcal/mol)

>  <smiles>  (13) 
CN(C)CCNc1c2ccccc2[n+](C)c2cccc(OCC[N+]3(C)CC[N+](C)(C)CC3)c12

>  <score_type>  (13) 
oracle

>  <origin>  (13) 
adg

>  <m_score__min__energy>  (13) 
-2.7599999999999998

>  <m_primary>  (13) 
energy

$$$$
13:0
     RDKit          3D

 56 60  0  0  0  0  0  0  0  0999 V2000
   63.3870   33.8710   46.3800 C   0  0  0  0  0  0  0  0  0  0  0  0
   63.7130   33.4400   47.8060 C   0  0  0  0  0  0  0  0  0  0  0  0
   63.6760   31.9770   47.9150 N   0  0  0  0  0  0  0  0  0  0  0  0
   62.7400   31.5680   48.9690 C   0  0  0  0  0  0  0  0  0  0  0  0
   61.4660   30.9950   48.3350 C   0  0  0  0  0  0  0  0  0  0  0  0
   61.4800   31.0630   46.8590 N   0  0  0  0  0  0  0  0  0  0  0  0
   60.1760   30.7680   46.2770 C   0  0  0  0  0  0  0  0  0  0  0  0
   59.7500   29.4260   46.0570 C   0  0  0  0  0  0  0  0  0  0  0  0
   58.4810   29.1930   45.4600 C   0  0  0  0  0  0  0  0  0  0  0  0
   57.7940   30.2330   44.8780 N   0  0  0  0  0  0  0  0  0  0  0  0
   56.8300   29.9760   43.7900 C   0  0  0  0  0  0  0  0  0  0  0  0
   58.0950   31.5320   45.2190 C   0  0  0  0  0  0  0  0  0  0  0  0
   57.2300   32.5980   44.8680 C   0  0  0  0  0  0  0  0  0  0  0  0
   57.5440   33.9170   45.1850 C   0  0  0  0  0  0  0  0  0  0  0  0
   58.7210   34.2080   45.8580 C   0  0  0  0  0  0  0  0  0  0  0  0
   59.5870   33.1820   46.2290 C   0  0  0  0  0  0  0  0  0  0  0  0
   59.2900   31.8270   45.9300 C   0  0  0  0  0  0  0  0  0  0  0  0
   57.9560   27.7930   45.4930 C   0  0  0  0  0  0  0  0  0  0  0  0
   56.6770   27.3820   45.2780 N   0  0  0  0  0  0  0  0  0  0  0  0
   56.6490   26.0780   45.6130 C   0  0  0  0  0  0  0  0  0  0  0  0
   55.5370   25.2340   45.6250 C   0  0  0  0  0  0  0  0  0  0  0  0
   55.7070   23.9240   46.1130 C   0  0  0  0  0  0  0  0  0  0  0  0
   56.9630   23.5010   46.6000 C   0  0  0  0  0  0  0  0  0  0  0  0
   58.0620   24.3820   46.5980 C   0  0  0  0  0  0  0  0  0  0  0  0
   57.8690   25.6600   46.0750 C   0  0  0  0  0  0  0  0  0  0  0  0
   58.7080   26.7490   46.0040 C   0  0  0  0  0  0  0  0  0  0  0  0
   59.9940   26.9500   46.7270 C   0  0  0  0  0  0  0  0  0  0  0  0
   60.6920   28.2250   46.2390 C   0  0  0  0  0  0  0  0  0  0  0  0
   62.7236   34.7481   46.4046 H   0  0  0  0  0  0  0  0  0  0  0  0
   64.3174   34.1297   45.8534 H   0  0  0  0  0  0  0  0  0  0  0  0
   62.8848   33.0461   45.8534 H   0  0  0  0  0  0  0  0  0  0  0  0
   64.7179   33.7988   48.0731 H   0  0  0  0  0  0  0  0  0  0  0  0
   62.9663   33.8696   48.4900 H   0  0  0  0  0  0  0  0  0  0  0  0
   64.6310   31.6470   48.1960 H   0  0  0  0  0  0  0  0  0  0  0  0
   63.2120   30.8000   49.5994 H   0  0  0  0  0  0  0  0  0  0  0  0
   62.4796   32.4419   49.5842 H   0  0  0  0  0  0  0  0  0  0  0  0
   61.3660   29.9421   48.6373 H   0  0  0  0  0  0  0  0  0  0  0  0
   60.6192   31.6028   48.6864 H   0  0  0  0  0  0  0  0  0  0  0  0
   62.2430   30.4710   46.4710 H   0  0  0  0  0  0  0  0  0  0  0  0
   61.7770   32.0210   46.5670 H   0  0  0  0  0  0  0  0  0  0  0  0
   55.8520   29.7153   44.2207 H   0  0  0  0  0  0  0  0  0  0  0  0
   56.7285   30.8784   43.1693 H   0  0  0  0  0  0  0  0  0  0  0  0
   57.1912   29.1428   43.1693 H   0  0  0  0  0  0  0  0  0  0  0  0
   56.2929   32.3794   44.3351 H   0  0  0  0  0  0  0  0  0  0  0  0
   56.8579   34.7287   44.9014 H   0  0  0  0  0  0  0  0  0  0  0  0
   58.9714   35.2516   46.0995 H   0  0  0  0  0  0  0  0  0  0  0  0
   60.5172   33.4264   46.7630 H   0  0  0  0  0  0  0  0  0  0  0  0
   55.8400   27.9490   45.0290 H   0  0  0  0  0  0  0  0  0  0  0  0
   54.5577   25.5817   45.2642 H   0  0  0  0  0  0  0  0  0  0  0  0
   54.8565   23.2264   46.1148 H   0  0  0  0  0  0  0  0  0  0  0  0
   57.0840   22.4771   46.9833 H   0  0  0  0  0  0  0  0  0  0  0  0
   59.0397   24.0722   46.9957 H   0  0  0  0  0  0  0  0  0  0  0  0
   59.7932   27.0374   47.8050 H   0  0  0  0  0  0  0  0  0  0  0  0
   60.6499   26.0888   46.5316 H   0  0  0  0  0  0  0  0  0  0  0  0
   61.4634   28.4993   46.9737 H   0  0  0  0  0  0  0  0  0  0  0  0
   61.1110   27.9975   45.2477 H   0  0  0  0  0  0  0  0  0  0  0  0
  1  2  1  0
  2  3  1  0
  3  4  1  0
  4  5  1  0
  5  6  1  0
  6  7  1  0
  7  8  2  0
  8  9  1  0
  9 10  2  0
 10 11  1  0
 10 12  1  0
 12 13  2  0
 13 14  1  0
 14 15  2  0
 15 16  1  0
 16 17  2  0
  9 18  1  0
 18 19  1  0
 19 20  1  0
 20 21  2  0
 21 22  1  0
 22 23  2  0
 23 24  1  0
 24 25  2  0
 25 26  1  0
 26 27  1  0
 27 28  1  0
 17  7  1  0
 26 18  2  0
 28  8  1  0
 17 12  1  0
 25 20  1  0
  1 29  1  0
  1 30  1  0
  1 31  1  0
  2 32  1  0
  2 33  1  0
  3 34  1  0
  4 35  1  0
  4 36  1  0
  5 37  1  0
  5 38  1  0
  6 39  1  0
  6 40  1  0
 11 41  1  0
 11 42  1  0
 11 43  1  0
 13 44  1  0
 14 45  1  0
 15 46  1  0
 16 47  1  0
 19 48  1  0
 21 49  1  0
 22 50  1  0
 23 51  1  0
 24 52  1  0
 27 53  1  0
 27 54  1  0
 28 55  1  0
 28 56  1  0
M  CHG  2   6   1  10   1
M  END
>  <UniqueID>  (14) 
14

>  <SMILES>  (14) 
CCNCC[NH2+]c1c2c([n+](C)c3ccccc13)-c1[nH]c3ccccc3c1CC2

>  <Energy>  (14) 
124.67645601279574

>  <Genealogy>  (14) 
CCNCC[NH2+]c1c2c([n+](C)c3ccccc13)-c1[nH]c3ccccc3c1CC2 (protonated)
CCNCC[NH2+]c1c2c([n+](C)c3ccccc13)-c1[nH]c3ccccc3c1CC2 (3D coordinates assigned)
CCNCC[NH2+]c1c2c([n+](C)c3ccccc13)-c1[nH]c3ccccc3c1CC2 (nonaromatic ring conformer: 124.67645601279574 kcal/mol)

>  <smiles>  (14) 
CCNCCNc1c2c([n+](C)c3ccccc13)-c1[nH]c3ccccc3c1CC2

>  <score_type>  (14) 
oracle

>  <origin>  (14) 
adg

>  <m_score__min__energy>  (14) 
-5.4199999999999999

>  <m_primary>  (14) 
energy

$$$$
14:0
     RDKit          3D

 41 42  0  0  0  0  0  0  0  0999 V2000
   66.9060   33.1170   50.5610 C   0  0  0  0  0  0  0  0  0  0  0  0
   65.7510   32.1200   50.6570 C   0  0  0  0  0  0  0  0  0  0  0  0
   64.3900   32.8270   50.7460 C   0  0  0  0  0  0  0  0  0  0  0  0
   63.6560   32.7340   49.4610 N   0  0  0  0  0  0  0  0  0  0  0  0
   64.5080   33.1700   48.3280 C   0  0  0  0  0  0  0  0  0  0  0  0
   63.7980   33.0190   46.9720 C   0  0  0  0  0  0  0  0  0  0  0  0
   62.5350   33.8760   46.7710 C   0  0  0  0  0  0  0  0  0  0  0  0
   61.2710   33.2670   47.2460 N   0  0  0  0  0  0  0  0  0  0  0  0
   60.0210   33.9460   46.8460 C   0  0  0  0  0  0  0  0  0  0  0  0
   59.1180   32.9980   46.1010 C   0  0  0  0  0  0  0  0  0  0  0  0
   59.4010   31.6220   46.0570 C   0  0  0  0  0  0  0  0  0  0  0  0
   58.5520   30.7490   45.3700 C   0  0  0  0  0  0  0  0  0  0  0  0
   57.4160   31.2430   44.7210 C   0  0  0  0  0  0  0  0  0  0  0  0
   56.2550   30.0490   43.7840 Br  0  0  0  0  0  0  0  0  0  0  0  0
   57.1310   32.6120   44.7560 C   0  0  0  0  0  0  0  0  0  0  0  0
   57.9790   33.4870   45.4420 C   0  0  0  0  0  0  0  0  0  0  0  0
   61.3080   32.8280   48.6540 C   0  0  0  0  0  0  0  0  0  0  0  0
   62.3940   33.5100   49.4950 C   0  0  0  0  0  0  0  0  0  0  0  0
   67.2323   33.3987   51.5730 H   0  0  0  0  0  0  0  0  0  0  0  0
   67.7452   32.6550   50.0205 H   0  0  0  0  0  0  0  0  0  0  0  0
   66.5715   34.0147   50.0205 H   0  0  0  0  0  0  0  0  0  0  0  0
   65.7604   31.4778   49.7640 H   0  0  0  0  0  0  0  0  0  0  0  0
   65.8877   31.5270   51.5733 H   0  0  0  0  0  0  0  0  0  0  0  0
   63.7903   32.3539   51.5375 H   0  0  0  0  0  0  0  0  0  0  0  0
   64.5620   33.8892   50.9745 H   0  0  0  0  0  0  0  0  0  0  0  0
   64.7743   34.2275   48.4721 H   0  0  0  0  0  0  0  0  0  0  0  0
   65.4019   32.5292   48.3130 H   0  0  0  0  0  0  0  0  0  0  0  0
   64.5166   33.2891   46.1842 H   0  0  0  0  0  0  0  0  0  0  0  0
   63.4563   31.9742   46.9315 H   0  0  0  0  0  0  0  0  0  0  0  0
   62.6787   34.8237   47.3106 H   0  0  0  0  0  0  0  0  0  0  0  0
   62.4222   33.9986   45.6837 H   0  0  0  0  0  0  0  0  0  0  0  0
   59.5020   34.3076   47.7460 H   0  0  0  0  0  0  0  0  0  0  0  0
   60.2712   34.7899   46.1862 H   0  0  0  0  0  0  0  0  0  0  0  0
   60.2944   31.2302   46.5653 H   0  0  0  0  0  0  0  0  0  0  0  0
   58.7778   29.6728   45.3400 H   0  0  0  0  0  0  0  0  0  0  0  0
   56.2388   33.0007   44.2433 H   0  0  0  0  0  0  0  0  0  0  0  0
   57.7526   34.5632   45.4654 H   0  0  0  0  0  0  0  0  0  0  0  0
   60.3308   33.0461   49.1095 H   0  0  0  0  0  0  0  0  0  0  0  0
   61.5426   31.7533   48.6448 H   0  0  0  0  0  0  0  0  0  0  0  0
   62.5800   34.5174   49.0942 H   0  0  0  0  0  0  0  0  0  0  0  0
   62.0460   33.5685   50.5369 H   0  0  0  0  0  0  0  0  0  0  0  0
  1  2  1  0
  2  3  1  0
  3  4  1  0
  4  5  1  0
  5  6  1  0
  6  7  1  0
  7  8  1  0
  8  9  1  0
  9 10  1  0
 10 11  2  0
 11 12  1  0
 12 13  2  0
 13 14  1  0
 13 15  1  0
 15 16  2  0
  8 17  1  0
 17 18  1  0
 18  4  1  0
 16 10  1  0
  1 19  1  0
  1 20  1  0
  1 21  1  0
  2 22  1  0
  2 23  1  0
  3 24  1  0
  3 25  1  0
  5 26  1  0
  5 27  1  0
  6 28  1  0
  6 29  1  0
  7 30  1  0
  7 31  1  0
  9 32  1  0
  9 33  1  0
 11 34  1  0
 12 35  1  0
 15 36  1  0
 16 37  1  0
 17 38  1  0
 17 39  1  0
 18 40  1  0
 18 41  1  0
M  END
>  <UniqueID>  (15) 
15

>  <SMILES>  (15) 
CCCN1CCCN(Cc2ccc(Br)cc2)CC1

>  <Energy>  (15) 
50.835688495425536

>  <Genealogy>  (15) 
CCCN1CCCN(Cc2ccc(Br)cc2)CC1 (3D coordinates assigned)
CCCN1CCCN(Cc2ccc(Br)cc2)CC1 (nonaromatic ring conformer: 50.835688495425536 kcal/mol)

>  <smiles>  (15) 
CCCN1CCCN(Cc2ccc(Br)cc2)CC1

>  <score_type>  (15) 
oracle

>  <origin>  (15) 
adg

>  <m_score__min__energy>  (15) 
-5.0999999999999996

>  <m_primary>  (15) 
energy

$$$$
15:0
     RDKit          3D

 40 41  0  0  0  0  0  0  0  0999 V2000
   56.2520   29.8230   42.7780 C   0  0  0  0  0  0  0  0  0  0  0  0
   55.8730   30.4580   44.1110 C   0  0  0  0  0  0  0  0  0  0  0  0
   57.0230   30.4290   45.0220 N   0  0  0  0  0  0  0  0  0  0  0  0
   58.0850   29.5320   44.5400 C   0  0  0  0  0  0  0  0  0  0  0  0
   58.1730   28.2600   45.3580 C   0  0  0  0  0  0  0  0  0  0  0  0
   58.2150   27.0180   44.7080 C   0  0  0  0  0  0  0  0  0  0  0  0
   58.3190   25.8690   45.4260 N   0  0  0  0  0  0  0  0  0  0  0  0
   58.3910   25.8790   46.7820 C   0  0  0  0  0  0  0  0  0  0  0  0
   58.3610   27.0890   47.4740 C   0  0  0  0  0  0  0  0  0  0  0  0
   58.2380   28.2950   46.7650 C   0  0  0  0  0  0  0  0  0  0  0  0
   58.2350   29.5330   47.4280 O   0  0  0  0  0  0  0  0  0  0  0  0
   59.2180   30.5270   47.3070 C   0  0  0  0  0  0  0  0  0  0  0  0
   60.5880   30.2240   47.3390 C   0  0  0  0  0  0  0  0  0  0  0  0
   61.5350   31.2430   47.2350 C   0  0  0  0  0  0  0  0  0  0  0  0
   61.1320   32.5780   47.1170 C   0  0  0  0  0  0  0  0  0  0  0  0
   62.3970   33.8540   46.9930 S   0  0  0  0  0  0  0  0  0  0  0  0
   63.7710   32.6980   47.2960 C   0  0  0  0  0  0  0  0  0  0  0  0
   59.7560   32.8960   47.0910 C   0  0  0  0  0  0  0  0  0  0  0  0
   59.2900   34.3190   46.9560 C   0  0  0  0  0  0  0  0  0  0  0  0
   58.8110   31.8600   47.2010 C   0  0  0  0  0  0  0  0  0  0  0  0
   56.8079   28.8915   42.9605 H   0  0  0  0  0  0  0  0  0  0  0  0
   55.3395   29.5993   42.2058 H   0  0  0  0  0  0  0  0  0  0  0  0
   56.8820   30.5199   42.2058 H   0  0  0  0  0  0  0  0  0  0  0  0
   55.5659   31.5010   43.9441 H   0  0  0  0  0  0  0  0  0  0  0  0
   55.0418   29.8931   44.5583 H   0  0  0  0  0  0  0  0  0  0  0  0
   56.7030   30.1060   45.9660 H   0  0  0  0  0  0  0  0  0  0  0  0
   57.8767   29.2665   43.4931 H   0  0  0  0  0  0  0  0  0  0  0  0
   59.0442   30.0620   44.6347 H   0  0  0  0  0  0  0  0  0  0  0  0
   58.1634   26.9737   43.6101 H   0  0  0  0  0  0  0  0  0  0  0  0
   58.4731   24.9316   47.3349 H   0  0  0  0  0  0  0  0  0  0  0  0
   58.4334   27.0990   48.5716 H   0  0  0  0  0  0  0  0  0  0  0  0
   60.9161   29.1796   47.4464 H   0  0  0  0  0  0  0  0  0  0  0  0
   62.6067   30.9953   47.2458 H   0  0  0  0  0  0  0  0  0  0  0  0
   63.9156   32.5763   48.3796 H   0  0  0  0  0  0  0  0  0  0  0  0
   63.5355   31.7224   46.8457 H   0  0  0  0  0  0  0  0  0  0  0  0
   64.6919   33.0969   46.8457 H   0  0  0  0  0  0  0  0  0  0  0  0
   59.1474   34.7545   47.9560 H   0  0  0  0  0  0  0  0  0  0  0  0
   60.0444   34.9013   46.4066 H   0  0  0  0  0  0  0  0  0  0  0  0
   58.3373   34.3423   46.4066 H   0  0  0  0  0  0  0  0  0  0  0  0
   57.7379   32.1019   47.2036 H   0  0  0  0  0  0  0  0  0  0  0  0
  1  2  1  0
  2  3  1  0
  3  4  1  0
  4  5  1  0
  5  6  2  0
  6  7  1  0
  7  8  2  0
  8  9  1  0
  9 10  2  0
 10 11  1  0
 11 12  1  0
 12 13  2  0
 13 14  1  0
 14 15  2  0
 15 16  1  0
 16 17  1  0
 15 18  1  0
 18 19  1  0
 18 20  2  0
 10  5  1  0
 20 12  1  0
  1 21  1  0
  1 22  1  0
  1 23  1  0
  2 24  1  0
  2 25  1  0
  3 26  1  0
  4 27  1  0
  4 28  1  0
  6 29  1  0
  8 30  1  0
  9 31  1  0
 13 32  1  0
 14 33  1  0
 17 34  1  0
 17 35  1  0
 17 36  1  0
 19 37  1  0
 19 38  1  0
 19 39  1  0
 20 40  1  0
M  END
>  <UniqueID>  (16) 
16

>  <SMILES>  (16) 
CCNCc1cnccc1Oc1ccc(SC)c(C)c1

>  <Energy>  (16) 
40.20236414501522

>  <Genealogy>  (16) 
CCNCc1cnccc1Oc1ccc(SC)c(C)c1 (3D coordinates assigned)
CCNCc1cnccc1Oc1ccc(SC)c(C)c1 (optimized conformer: 40.20236414501522 kcal/mol)

>  <smiles>  (16) 
CCNCc1cnccc1Oc1ccc(SC)c(C)c1

>  <score_type>  (16) 
oracle

>  <origin>  (16) 
adg

>  <m_score__min__energy>  (16) 
-6.4299999999999997

>  <m_primary>  (16) 
energy

$$$$
16:0
     RDKit          3D

 53 55  0  0  0  0  0  0  0  0999 V2000
   63.3260   33.8170   46.4370 C   0  0  0  0  0  0  0  0  0  0  0  0
   63.3000   32.4500   47.1450 C   0  0  0  0  0  0  0  0  0  0  0  0
   62.8230   32.4710   48.5650 N   0  0  0  0  0  0  0  0  0  0  0  0
   62.0530   33.7310   48.7430 C   0  0  0  0  0  0  0  0  0  0  0  0
   63.9850   32.4920   49.4930 C   0  0  0  0  0  0  0  0  0  0  0  0
   61.9500   31.2800   48.8260 C   0  0  0  0  0  0  0  0  0  0  0  0
   61.4880   30.5120   47.5670 C   0  0  0  0  0  0  0  0  0  0  0  0
   60.0440   30.2890   47.6070 N   0  0  0  0  0  0  0  0  0  0  0  0
   59.2560   30.4080   46.4140 C   0  0  0  0  0  0  0  0  0  0  0  0
   58.8660   29.2580   45.7100 C   0  0  0  0  0  0  0  0  0  0  0  0
   59.2410   27.9750   46.1630 C   0  0  0  0  0  0  0  0  0  0  0  0
   58.9070   26.8370   45.4320 C   0  0  0  0  0  0  0  0  0  0  0  0
   58.2070   26.9590   44.2370 C   0  0  0  0  0  0  0  0  0  0  0  0
   57.8090   28.2160   43.7810 C   0  0  0  0  0  0  0  0  0  0  0  0
   58.0960   29.3900   44.5250 C   0  0  0  0  0  0  0  0  0  0  0  0
   57.6630   30.6380   44.1140 N   0  0  0  0  0  0  0  0  0  0  0  0
   56.6400   30.7520   43.0490 C   0  0  0  0  0  0  0  0  0  0  0  0
   58.1600   31.7780   44.7200 C   0  0  0  0  0  0  0  0  0  0  0  0
   57.9450   33.0690   44.1730 C   0  0  0  0  0  0  0  0  0  0  0  0
   58.4000   34.2140   44.8270 C   0  0  0  0  0  0  0  0  0  0  0  0
   59.0790   34.1120   46.0430 C   0  0  0  0  0  0  0  0  0  0  0  0
   59.5910   35.3450   46.7270 C   0  0  0  0  0  0  0  0  0  0  0  0
   59.3570   32.8470   46.5690 C   0  0  0  0  0  0  0  0  0  0  0  0
   58.9250   31.6760   45.9100 C   0  0  0  0  0  0  0  0  0  0  0  0
   63.3413   34.6193   47.1893 H   0  0  0  0  0  0  0  0  0  0  0  0
   64.2256   33.8871   45.8079 H   0  0  0  0  0  0  0  0  0  0  0  0
   62.4297   33.9212   45.8079 H   0  0  0  0  0  0  0  0  0  0  0  0
   62.6361   31.7845   46.5738 H   0  0  0  0  0  0  0  0  0  0  0  0
   64.3447   32.1074   47.1811 H   0  0  0  0  0  0  0  0  0  0  0  0
   61.9279   33.9357   49.8165 H   0  0  0  0  0  0  0  0  0  0  0  0
   62.5972   34.5629   48.2721 H   0  0  0  0  0  0  0  0  0  0  0  0
   61.0644   33.6262   48.2721 H   0  0  0  0  0  0  0  0  0  0  0  0
   63.6245   32.4855   50.5322 H   0  0  0  0  0  0  0  0  0  0  0  0
   64.6112   31.6050   49.3166 H   0  0  0  0  0  0  0  0  0  0  0  0
   64.5788   33.4010   49.3166 H   0  0  0  0  0  0  0  0  0  0  0  0
   62.5105   30.5809   49.4640 H   0  0  0  0  0  0  0  0  0  0  0  0
   61.0358   31.6701   49.2973 H   0  0  0  0  0  0  0  0  0  0  0  0
   61.7393   31.0995   46.6716 H   0  0  0  0  0  0  0  0  0  0  0  0
   61.9985   29.5381   47.5359 H   0  0  0  0  0  0  0  0  0  0  0  0
   59.5590   30.0370   48.4990 H   0  0  0  0  0  0  0  0  0  0  0  0
   59.8029   27.8725   47.1031 H   0  0  0  0  0  0  0  0  0  0  0  0
   59.1971   25.8419   45.8003 H   0  0  0  0  0  0  0  0  0  0  0  0
   57.9661   26.0612   43.6489 H   0  0  0  0  0  0  0  0  0  0  0  0
   57.2638   28.2985   42.8292 H   0  0  0  0  0  0  0  0  0  0  0  0
   55.6456   30.8628   43.5061 H   0  0  0  0  0  0  0  0  0  0  0  0
   56.8568   31.6315   42.4250 H   0  0  0  0  0  0  0  0  0  0  0  0
   56.6578   29.8463   42.4250 H   0  0  0  0  0  0  0  0  0  0  0  0
   57.4104   33.1689   43.2169 H   0  0  0  0  0  0  0  0  0  0  0  0
   58.2227   35.2041   44.3818 H   0  0  0  0  0  0  0  0  0  0  0  0
   59.5348   35.2097   47.8172 H   0  0  0  0  0  0  0  0  0  0  0  0
   60.6363   35.5203   46.4327 H   0  0  0  0  0  0  0  0  0  0  0  0
   58.9773   36.2092   46.4327 H   0  0  0  0  0  0  0  0  0  0  0  0
   59.9205   32.7630   47.5100 H   0  0  0  0  0  0  0  0  0  0  0  0
  1  2  1  0
  2  3  1  0
  3  4  1  0
  3  5  1  0
  3  6  1  0
  6  7  1  0
  7  8  1  0
  8  9  1  0
  9 10  2  0
 10 11  1  0
 11 12  2  0
 12 13  1  0
 13 14  2  0
 14 15  1  0
 15 16  2  0
 16 17  1  0
 16 18  1  0
 18 19  2  0
 19 20  1  0
 20 21  2  0
 21 22  1  0
 21 23  1  0
 23 24  2  0
 24  9  1  0
 15 10  1  0
 24 18  1  0
  1 25  1  0
  1 26  1  0
  1 27  1  0
  2 28  1  0
  2 29  1  0
  4 30  1  0
  4 31  1  0
  4 32  1  0
  5 33  1  0
  5 34  1  0
  5 35  1  0
  6 36  1  0
  6 37  1  0
  7 38  1  0
  7 39  1  0
  8 40  1  0
 11 41  1  0
 12 42  1  0
 13 43  1  0
 14 44  1  0
 17 45  1  0
 17 46  1  0
 17 47  1  0
 19 48  1  0
 20 49  1  0
 22 50  1  0
 22 51  1  0
 22 52  1  0
 23 53  1  0
M  CHG  2   3   1  16   1
M  END
>  <UniqueID>  (17) 
17

>  <SMILES>  (17) 
CC[N+](C)(C)CCNc1c2ccccc2[n+](C)c2ccc(C)cc12

>  <Energy>  (17) 
87.97033954292117

>  <Genealogy>  (17) 
CC[N+](C)(C)CCNc1c2ccccc2[n+](C)c2ccc(C)cc12 (3D coordinates assigned)
CC[N+](C)(C)CCNc1c2ccccc2[n+](C)c2ccc(C)cc12 (optimized conformer: 87.97033954292117 kcal/mol)

>  <smiles>  (17) 
CC[N+](C)(C)CCNc1c2ccccc2[n+](C)c2ccc(C)cc12

>  <score_type>  (17) 
oracle

>  <origin>  (17) 
adg

>  <m_score__min__energy>  (17) 
-4.7800000000000002

>  <m_primary>  (17) 
energy

$$$$
17:0
     RDKit          3D

 47 49  0  0  0  0  0  0  0  0999 V2000
   56.6921   28.2786   42.6690 H   0  0  0  0  0  0  0  0  0  0  0  0
   57.0220   28.9760   43.4530 C   0  0  0  0  0  0  0  0  0  0  0  0
   56.6360   30.2550   43.3490 C   0  0  0  0  0  0  0  0  0  0  0  0
   56.2972   30.6078   42.3637 H   0  0  0  0  0  0  0  0  0  0  0  0
   56.6330   31.2510   44.4930 C   0  0  0  0  0  0  0  0  0  0  0  0
   56.2493   30.7491   45.3935 H   0  0  0  0  0  0  0  0  0  0  0  0
   55.9972   32.0964   44.1910 H   0  0  0  0  0  0  0  0  0  0  0  0
   57.9760   31.7930   44.7920 N   0  0  0  0  0  0  0  0  0  0  0  0
   58.4950   31.3620   46.1070 C   0  0  0  0  0  0  0  0  0  0  0  0
   58.7583   30.2950   46.0607 H   0  0  0  0  0  0  0  0  0  0  0  0
   57.7186   31.5270   46.8685 H   0  0  0  0  0  0  0  0  0  0  0  0
   59.7390   32.1730   46.4820 C   0  0  0  0  0  0  0  0  0  0  0  0
   60.4965   32.0476   45.6943 H   0  0  0  0  0  0  0  0  0  0  0  0
   60.1092   31.8030   47.4495 H   0  0  0  0  0  0  0  0  0  0  0  0
   59.4320   33.6200   46.6280 N   0  0  0  0  0  0  0  0  0  0  0  0
   60.6290   34.4540   46.3910 C   0  0  0  0  0  0  0  0  0  0  0  0
   60.4663   35.4499   46.8289 H   0  0  0  0  0  0  0  0  0  0  0  0
   60.7927   34.5330   45.3061 H   0  0  0  0  0  0  0  0  0  0  0  0
   61.8450   33.8360   47.0150 C   0  0  0  0  0  0  0  0  0  0  0  0
   61.9920   33.4330   48.3300 C   0  0  0  0  0  0  0  0  0  0  0  0
   61.2434   33.5425   49.1285 H   0  0  0  0  0  0  0  0  0  0  0  0
   63.2140   32.8830   48.4590 N   0  0  0  0  0  0  0  0  0  0  0  0
   63.8070   32.3940   49.6980 C   0  0  0  0  0  0  0  0  0  0  0  0
   63.2762   32.8317   50.5563 H   0  0  0  0  0  0  0  0  0  0  0  0
   63.7247   31.2978   49.7362 H   0  0  0  0  0  0  0  0  0  0  0  0
   64.8675   32.6836   49.7362 H   0  0  0  0  0  0  0  0  0  0  0  0
   63.8450   32.9330   47.2960 N   0  0  0  0  0  0  0  0  0  0  0  0
   64.8160   32.5900   47.1240 H   0  0  0  0  0  0  0  0  0  0  0  0
   63.0300   33.5000   46.3870 C   0  0  0  0  0  0  0  0  0  0  0  0
   63.2664   33.6674   45.3258 H   0  0  0  0  0  0  0  0  0  0  0  0
   58.2840   34.0710   45.8010 C   0  0  0  0  0  0  0  0  0  0  0  0
   58.4406   35.1242   45.5247 H   0  0  0  0  0  0  0  0  0  0  0  0
   57.3701   33.9410   46.3992 H   0  0  0  0  0  0  0  0  0  0  0  0
   58.1220   33.2420   44.5140 C   0  0  0  0  0  0  0  0  0  0  0  0
   59.0095   33.3932   43.8819 H   0  0  0  0  0  0  0  0  0  0  0  0
   57.2059   33.5814   44.0085 H   0  0  0  0  0  0  0  0  0  0  0  0
   57.8570   28.4350   44.5420 C   0  0  0  0  0  0  0  0  0  0  0  0
   57.2750   27.8330   45.6710 C   0  0  0  0  0  0  0  0  0  0  0  0
   56.1819   27.7274   45.7333 H   0  0  0  0  0  0  0  0  0  0  0  0
   58.0800   27.3680   46.7150 C   0  0  0  0  0  0  0  0  0  0  0  0
   57.6210   26.8823   47.5888 H   0  0  0  0  0  0  0  0  0  0  0  0
   59.4680   27.5200   46.6490 C   0  0  0  0  0  0  0  0  0  0  0  0
   60.1014   27.1483   47.4679 H   0  0  0  0  0  0  0  0  0  0  0  0
   60.0510   28.1440   45.5430 C   0  0  0  0  0  0  0  0  0  0  0  0
   61.1428   28.2689   45.4950 H   0  0  0  0  0  0  0  0  0  0  0  0
   59.2480   28.6100   44.4970 C   0  0  0  0  0  0  0  0  0  0  0  0
   59.7090   29.1157   43.6358 H   0  0  0  0  0  0  0  0  0  0  0  0
  1  2  1  0
  2  3  2  0
  3  4  1  0
  3  5  1  0
  5  6  1  0
  5  7  1  0
  5  8  1  0
  8  9  1  0
  9 10  1  0
  9 11  1  0
  9 12  1  0
 12 13  1  0
 12 14  1  0
 12 15  1  0
 15 16  1  0
 16 17  1  0
 16 18  1  0
 16 19  1  0
 19 20  2  0
 20 21  1  0
 20 22  1  0
 22 23  1  0
 23 24  1  0
 23 25  1  0
 23 26  1  0
 22 27  1  0
 27 28  1  0
 27 29  2  0
 29 30  1  0
 15 31  1  0
 31 32  1  0
 31 33  1  0
 31 34  1  0
 34 35  1  0
 34 36  1  0
  2 37  1  0
 37 38  2  0
 38 39  1  0
 38 40  1  0
 40 41  1  0
 40 42  2  0
 42 43  1  0
 42 44  1  0
 44 45  1  0
 44 46  2  0
 46 47  1  0
 34  8  1  0
 46 37  1  0
 29 19  1  0
M  CHG  1  27   1
M  END
>  <UniqueID>  (18) 
18

>  <SMILES>  (18) 
Cn1cc(CN2CCN(C/C=C\c3ccccc3)CC2)c[nH+]1

>  <Energy>  (18) 
99.123637658932

>  <Genealogy>  (18) 
Cn1cc(CN2CCN(CC=Cc3ccccc3)CC2)c[nH+]1 (protonated)
Cn1cc(CN2CCN(C/C=C\c3ccccc3)CC2)c[nH+]1 (cis-trans isomerization)
Cn1cc(CN2CCN(C/C=C\c3ccccc3)CC2)c[nH+]1 (3D coordinates assigned)
Cn1cc(CN2CCN(C/C=C\c3ccccc3)CC2)c[nH+]1 (nonaromatic ring conformer: 99.123637658932 kcal/mol)

>  <smiles>  (18) 
Cn1cc(CN2CCN(CC=Cc3ccccc3)CC2)cn1

>  <score_type>  (18) 
oracle

>  <origin>  (18) 
adg

>  <m_score__min__energy>  (18) 
-6.3600000000000003

>  <m_primary>  (18) 
energy

$$$$
18:0
     RDKit          3D

 88 92  0  0  0  0  0  0  0  0999 V2000
   58.0730   32.1860   42.5160 C   0  0  0  0  0  0  0  0  0  0  0  0
   57.0140   31.0860   42.4850 C   0  0  0  0  0  0  0  0  0  0  0  0
   56.8850   30.4540   43.8160 N   0  0  0  0  0  0  0  0  0  0  0  0
   55.4970   30.0670   44.1220 C   0  0  0  0  0  0  0  0  0  0  0  0
   57.8540   29.3550   44.0410 C   0  0  0  0  0  0  0  0  0  0  0  0
   58.2390   29.1130   45.5200 C   0  0  0  0  0  0  0  0  0  0  0  0
   59.5080   29.7520   45.8740 N   0  0  0  0  0  0  0  0  0  0  0  0
   59.5890   30.6180   47.0200 C   0  0  0  0  0  0  0  0  0  0  0  0
   59.3050   31.9880   46.8850 C   0  0  0  0  0  0  0  0  0  0  0  0
   58.9860   32.5370   45.6240 C   0  0  0  0  0  0  0  0  0  0  0  0
   58.7610   33.9040   45.4810 C   0  0  0  0  0  0  0  0  0  0  0  0
   58.8690   34.7470   46.5800 C   0  0  0  0  0  0  0  0  0  0  0  0
   59.1720   34.2250   47.8370 C   0  0  0  0  0  0  0  0  0  0  0  0
   59.3640   32.8320   48.0250 C   0  0  0  0  0  0  0  0  0  0  0  0
   59.6240   32.2960   49.2740 N   0  0  0  0  0  0  0  0  0  0  0  0
   59.4150   33.1160   50.4890 C   0  0  0  0  0  0  0  0  0  0  0  0
   60.0550   30.9860   49.3880 C   0  0  0  0  0  0  0  0  0  0  0  0
   60.5860   30.4770   50.6020 C   0  0  0  0  0  0  0  0  0  0  0  0
   60.9850   29.1350   50.7220 C   0  0  0  0  0  0  0  0  0  0  0  0
   61.5630   28.6170   51.8930 O   0  0  0  0  0  0  0  0  0  0  0  0
   61.0430   28.7600   53.2170 C   0  0  0  0  0  0  0  0  0  0  0  0
   62.0780   29.4470   54.1470 C   0  0  0  0  0  0  0  0  0  0  0  0
   62.2540   30.9300   53.9860 N   0  0  2  0  0  0  0  0  0  0  0  0
   60.9680   31.6270   54.2690 C   0  0  0  0  0  0  0  0  0  0  0  0
   62.7090   31.2810   52.6010 C   0  0  0  0  0  0  0  0  0  0  0  0
   64.2410   31.3170   52.4790 C   0  0  0  0  0  0  0  0  0  0  0  0
   64.8460   32.4100   53.3080 N   0  0  1  0  0  0  0  0  0  0  0  0
   66.2240   32.0060   53.6900 C   0  0  0  0  0  0  0  0  0  0  0  0
   64.8860   33.7120   52.5590 C   0  0  0  0  0  0  0  0  0  0  0  0
   64.3340   33.6750   51.1420 C   0  0  0  0  0  0  0  0  0  0  0  0
   65.0730   33.0780   50.1050 C   0  0  0  0  0  0  0  0  0  0  0  0
   64.5590   33.0310   48.8030 C   0  0  0  0  0  0  0  0  0  0  0  0
   63.2930   33.5620   48.5290 C   0  0  0  0  0  0  0  0  0  0  0  0
   62.5960   33.5030   46.7500 Br  0  0  0  0  0  0  0  0  0  0  0  0
   62.5360   34.1260   49.5600 C   0  0  0  0  0  0  0  0  0  0  0  0
   63.0480   34.1740   50.8610 C   0  0  0  0  0  0  0  0  0  0  0  0
   64.0480   32.6300   54.5650 C   0  0  0  0  0  0  0  0  0  0  0  0
   63.2640   31.3750   55.0070 C   0  0  0  0  0  0  0  0  0  0  0  0
   60.8510   28.2850   49.6290 C   0  0  0  0  0  0  0  0  0  0  0  0
   60.3550   28.7600   48.4200 C   0  0  0  0  0  0  0  0  0  0  0  0
   59.9970   30.1150   48.2680 C   0  0  0  0  0  0  0  0  0  0  0  0
   58.3127   32.4349   43.5603 H   0  0  0  0  0  0  0  0  0  0  0  0
   58.9816   31.8348   42.0050 H   0  0  0  0  0  0  0  0  0  0  0  0
   57.6875   33.0806   42.0050 H   0  0  0  0  0  0  0  0  0  0  0  0
   56.0466   31.5228   42.1963 H   0  0  0  0  0  0  0  0  0  0  0  0
   57.3171   30.3206   41.7554 H   0  0  0  0  0  0  0  0  0  0  0  0
   55.3590   30.0285   45.2126 H   0  0  0  0  0  0  0  0  0  0  0  0
   54.8065   30.8069   43.6909 H   0  0  0  0  0  0  0  0  0  0  0  0
   55.2890   29.0766   43.6909 H   0  0  0  0  0  0  0  0  0  0  0  0
   57.4144   28.4269   43.6469 H   0  0  0  0  0  0  0  0  0  0  0  0
   58.7802   29.6529   43.5278 H   0  0  0  0  0  0  0  0  0  0  0  0
   57.4456   29.5208   46.1636 H   0  0  0  0  0  0  0  0  0  0  0  0
   58.3554   28.0288   45.6651 H   0  0  0  0  0  0  0  0  0  0  0  0
   60.4050   29.3750   45.4960 H   0  0  0  0  0  0  0  0  0  0  0  0
   58.9145   31.8785   44.7458 H   0  0  0  0  0  0  0  0  0  0  0  0
   58.4973   34.3169   44.4961 H   0  0  0  0  0  0  0  0  0  0  0  0
   58.7150   35.8293   46.4582 H   0  0  0  0  0  0  0  0  0  0  0  0
   59.2637   34.9046   48.6971 H   0  0  0  0  0  0  0  0  0  0  0  0
   59.5734   32.4944   51.3826 H   0  0  0  0  0  0  0  0  0  0  0  0
   60.1285   33.9532   50.4935 H   0  0  0  0  0  0  0  0  0  0  0  0
   58.3878   33.5096   50.4935 H   0  0  0  0  0  0  0  0  0  0  0  0
   60.6874   31.1478   51.4679 H   0  0  0  0  0  0  0  0  0  0  0  0
   60.1294   29.3715   53.1810 H   0  0  0  0  0  0  0  0  0  0  0  0
   60.8203   27.7599   53.6171 H   0  0  0  0  0  0  0  0  0  0  0  0
   61.7680   29.2595   55.1856 H   0  0  0  0  0  0  0  0  0  0  0  0
   63.0487   29.0102   53.8695 H   0  0  0  0  0  0  0  0  0  0  0  0
   60.8247   31.7047   55.3569 H   0  0  0  0  0  0  0  0  0  0  0  0
   60.9929   32.6351   53.8295 H   0  0  0  0  0  0  0  0  0  0  0  0
   60.1369   31.0558   53.8295 H   0  0  0  0  0  0  0  0  0  0  0  0
   62.3163   30.5304   51.8993 H   0  0  0  0  0  0  0  0  0  0  0  0
   62.3303   32.2872   52.3685 H   0  0  0  0  0  0  0  0  0  0  0  0
   64.6466   30.3511   52.8146 H   0  0  0  0  0  0  0  0  0  0  0  0
   64.4930   31.5108   51.4259 H   0  0  0  0  0  0  0  0  0  0  0  0
   66.3082   31.9813   54.7865 H   0  0  0  0  0  0  0  0  0  0  0  0
   66.4393   31.0069   53.2831 H   0  0  0  0  0  0  0  0  0  0  0  0
   66.9446   32.7307   53.2831 H   0  0  0  0  0  0  0  0  0  0  0  0
   64.3018   34.4486   53.1302 H   0  0  0  0  0  0  0  0  0  0  0  0
   65.9511   33.9680   52.4593 H   0  0  0  0  0  0  0  0  0  0  0  0
   66.0615   32.6450   50.3180 H   0  0  0  0  0  0  0  0  0  0  0  0
   65.1507   32.5763   47.9948 H   0  0  0  0  0  0  0  0  0  0  0  0
   61.5362   34.5327   49.3480 H   0  0  0  0  0  0  0  0  0  0  0  0
   62.4410   34.6050   51.6708 H   0  0  0  0  0  0  0  0  0  0  0  0
   64.7376   32.9156   55.3730 H   0  0  0  0  0  0  0  0  0  0  0  0
   63.3131   33.4211   54.3550 H   0  0  0  0  0  0  0  0  0  0  0  0
   63.9782   30.5555   55.1753 H   0  0  0  0  0  0  0  0  0  0  0  0
   62.7156   31.6331   55.9250 H   0  0  0  0  0  0  0  0  0  0  0  0
   61.1400   27.2277   49.7220 H   0  0  0  0  0  0  0  0  0  0  0  0
   60.2405   28.0696   47.5713 H   0  0  0  0  0  0  0  0  0  0  0  0
  1  2  1  0
  2  3  1  0
  3  4  1  0
  3  5  1  0
  5  6  1  0
  6  7  1  0
  7  8  1  0
  8  9  2  0
  9 10  1  0
 10 11  2  0
 11 12  1  0
 12 13  2  0
 13 14  1  0
 14 15  2  0
 15 16  1  0
 15 17  1  0
 17 18  2  0
 18 19  1  0
 19 20  1  0
 20 21  1  0
 21 22  1  0
 23 22  1  6
 23 24  1  0
 23 25  1  0
 25 26  1  0
 26 27  1  0
 27 28  1  1
 27 29  1  0
 29 30  1  0
 30 31  2  0
 31 32  1  0
 32 33  2  0
 33 34  1  0
 33 35  1  0
 35 36  2  0
 27 37  1  0
 37 38  1  0
 19 39  2  0
 39 40  1  0
 40 41  2  0
 41  8  1  0
 14  9  1  0
 41 17  1  0
 38 23  1  0
 36 30  1  0
  1 42  1  0
  1 43  1  0
  1 44  1  0
  2 45  1  0
  2 46  1  0
  4 47  1  0
  4 48  1  0
  4 49  1  0
  5 50  1  0
  5 51  1  0
  6 52  1  0
  6 53  1  0
  7 54  1  0
 10 55  1  0
 11 56  1  0
 12 57  1  0
 13 58  1  0
 16 59  1  0
 16 60  1  0
 16 61  1  0
 18 62  1  0
 21 63  1  0
 21 64  1  0
 22 65  1  0
 22 66  1  0
 24 67  1  0
 24 68  1  0
 24 69  1  0
 25 70  1  0
 25 71  1  0
 26 72  1  0
 26 73  1  0
 28 74  1  0
 28 75  1  0
 28 76  1  0
 29 77  1  0
 29 78  1  0
 31 79  1  0
 32 80  1  0
 35 81  1  0
 36 82  1  0
 37 83  1  0
 37 84  1  0
 38 85  1  0
 38 86  1  0
 39 87  1  0
 40 88  1  0
M  CHG  3  15   1  23   1  27   1
M  END
>  <UniqueID>  (19) 
19

>  <SMILES>  (19) 
CCN(C)CCNc1c2ccccc2[n+](C)c2cc(OCC[N+]3(C)CC[N+](C)(Cc4ccc(Br)cc4)CC3)ccc12

>  <Energy>  (19) 
157.59189288949625

>  <Genealogy>  (19) 
CCN(C)CCNc1c2ccccc2[n+](C)c2cc(OCC[N+]3(C)CC[N+](C)(Cc4ccc(Br)cc4)CC3)ccc12 (3D coordinates assigned)
CCN(C)CCNc1c2ccccc2[n+](C)c2cc(OCC[N+]3(C)CC[N+](C)(Cc4ccc(Br)cc4)CC3)ccc12 (nonaromatic ring conformer: 157.59189288949625 kcal/mol)

>  <smiles>  (19) 
CCN(C)CCNc1c2ccccc2[n+](C)c2cc(OCC[N+]3(C)CC[N+](C)(Cc4ccc(Br)cc4)CC3)ccc12

>  <score_type>  (19) 
oracle

>  <origin>  (19) 
adg

>  <m_score__min__energy>  (19) 
-5.6399999999999997

>  <m_primary>  (19) 
energy

$$$$
19:0
     RDKit          3D

 58 61  0  0  0  0  0  0  0  0999 V2000
   63.3200   33.8470   46.3610 C   0  0  0  0  0  0  0  0  0  0  0  0
   63.4190   33.8270   47.8930 C   0  0  0  0  0  0  0  0  0  0  0  0
   63.7500   32.5020   48.4730 N   0  0  0  0  0  0  0  0  0  0  0  0
   64.7460   32.6010   49.5520 C   0  0  0  0  0  0  0  0  0  0  0  0
   62.5840   31.7010   48.9040 C   0  0  0  0  0  0  0  0  0  0  0  0
   61.8850   31.0010   47.7290 C   0  0  0  0  0  0  0  0  0  0  0  0
   60.4240   31.0560   47.8420 N   0  0  0  0  0  0  0  0  0  0  0  0
   59.5340   30.8780   46.7230 C   0  0  0  0  0  0  0  0  0  0  0  0
   59.1270   31.9890   45.9610 C   0  0  0  0  0  0  0  0  0  0  0  0
   58.2480   31.8060   44.8760 C   0  0  0  0  0  0  0  0  0  0  0  0
   57.7670   30.5510   44.5660 N   0  0  0  0  0  0  0  0  0  0  0  0
   56.6140   30.4250   43.6530 C   0  0  0  0  0  0  0  0  0  0  0  0
   58.2860   29.4430   45.2050 C   0  0  0  0  0  0  0  0  0  0  0  0
   59.0640   29.5990   46.3710 C   0  0  0  0  0  0  0  0  0  0  0  0
   59.3660   28.3830   47.2200 C   0  0  0  0  0  0  0  0  0  0  0  0
   58.2480   27.3420   47.0910 C   0  0  0  0  0  0  0  0  0  0  0  0
   58.0220   27.0240   45.6750 N   0  0  0  0  0  0  0  0  0  0  0  0
   57.8000   25.7290   45.2990 C   0  0  0  0  0  0  0  0  0  0  0  0
   57.6680   25.3960   43.9510 C   0  0  0  0  0  0  0  0  0  0  0  0
   57.7840   26.3920   42.9860 C   0  0  0  0  0  0  0  0  0  0  0  0
   57.9880   27.7150   43.3780 C   0  0  0  0  0  0  0  0  0  0  0  0
   58.0370   28.0380   44.7470 C   0  0  0  0  0  0  0  0  0  0  0  0
   57.9270   33.0410   44.0470 C   0  0  0  0  0  0  0  0  0  0  0  0
   57.5320   34.2190   44.9520 C   0  0  0  0  0  0  0  0  0  0  0  0
   58.4420   34.3880   46.1940 C   0  0  0  0  0  0  0  0  0  0  0  0
   59.6140   33.3960   46.2420 C   0  0  0  0  0  0  0  0  0  0  0  0
   62.2820   34.0567   46.0634 H   0  0  0  0  0  0  0  0  0  0  0  0
   63.9814   34.6297   45.9610 H   0  0  0  0  0  0  0  0  0  0  0  0
   63.6257   32.8690   45.9610 H   0  0  0  0  0  0  0  0  0  0  0  0
   64.2009   34.5391   48.1957 H   0  0  0  0  0  0  0  0  0  0  0  0
   62.4220   34.0938   48.2735 H   0  0  0  0  0  0  0  0  0  0  0  0
   64.2375   32.5505   50.5261 H   0  0  0  0  0  0  0  0  0  0  0  0
   65.4613   31.7695   49.4682 H   0  0  0  0  0  0  0  0  0  0  0  0
   65.2836   33.5570   49.4682 H   0  0  0  0  0  0  0  0  0  0  0  0
   62.9254   30.9366   49.6175 H   0  0  0  0  0  0  0  0  0  0  0  0
   61.8581   32.3878   49.3638 H   0  0  0  0  0  0  0  0  0  0  0  0
   62.1868   31.4935   46.7929 H   0  0  0  0  0  0  0  0  0  0  0  0
   62.1851   29.9428   47.7391 H   0  0  0  0  0  0  0  0  0  0  0  0
   60.0190   31.3630   48.7550 H   0  0  0  0  0  0  0  0  0  0  0  0
   55.6899   30.3240   44.2411 H   0  0  0  0  0  0  0  0  0  0  0  0
   56.5489   31.3214   43.0188 H   0  0  0  0  0  0  0  0  0  0  0  0
   56.7440   29.5357   43.0188 H   0  0  0  0  0  0  0  0  0  0  0  0
   60.3150   27.9370   46.8876 H   0  0  0  0  0  0  0  0  0  0  0  0
   59.4394   28.6952   48.2722 H   0  0  0  0  0  0  0  0  0  0  0  0
   58.5378   26.4271   47.6285 H   0  0  0  0  0  0  0  0  0  0  0  0
   57.3221   27.7496   47.5229 H   0  0  0  0  0  0  0  0  0  0  0  0
   57.7248   24.9434   46.0652 H   0  0  0  0  0  0  0  0  0  0  0  0
   57.4739   24.3550   43.6532 H   0  0  0  0  0  0  0  0  0  0  0  0
   57.7151   26.1369   41.9182 H   0  0  0  0  0  0  0  0  0  0  0  0
   58.1101   28.5028   42.6201 H   0  0  0  0  0  0  0  0  0  0  0  0
   58.8131   33.3202   43.4580 H   0  0  0  0  0  0  0  0  0  0  0  0
   57.0822   32.8090   43.3818 H   0  0  0  0  0  0  0  0  0  0  0  0
   57.5809   35.1437   44.3582 H   0  0  0  0  0  0  0  0  0  0  0  0
   56.5183   34.0099   45.3246 H   0  0  0  0  0  0  0  0  0  0  0  0
   58.8515   35.4089   46.1879 H   0  0  0  0  0  0  0  0  0  0  0  0
   57.8181   34.1906   47.0782 H   0  0  0  0  0  0  0  0  0  0  0  0
   60.3599   33.6793   45.4848 H   0  0  0  0  0  0  0  0  0  0  0  0
   60.0643   33.4240   47.2452 H   0  0  0  0  0  0  0  0  0  0  0  0
  1  2  1  0
  2  3  1  0
  3  4  1  0
  3  5  1  0
  5  6  1  0
  6  7  1  0
  7  8  1  0
  8  9  2  0
  9 10  1  0
 10 11  2  0
 11 12  1  0
 11 13  1  0
 13 14  2  0
 14 15  1  0
 15 16  1  0
 16 17  1  0
 17 18  2  0
 18 19  1  0
 19 20  2  0
 20 21  1  0
 21 22  2  0
 10 23  1  0
 23 24  1  0
 24 25  1  0
 25 26  1  0
 14  8  1  0
 22 17  1  0
 26  9  1  0
 22 13  1  0
  1 27  1  0
  1 28  1  0
  1 29  1  0
  2 30  1  0
  2 31  1  0
  4 32  1  0
  4 33  1  0
  4 34  1  0
  5 35  1  0
  5 36  1  0
  6 37  1  0
  6 38  1  0
  7 39  1  0
 12 40  1  0
 12 41  1  0
 12 42  1  0
 15 43  1  0
 15 44  1  0
 16 45  1  0
 16 46  1  0
 18 47  1  0
 19 48  1  0
 20 49  1  0
 21 50  1  0
 23 51  1  0
 23 52  1  0
 24 53  1  0
 24 54  1  0
 25 55  1  0
 25 56  1  0
 26 57  1  0
 26 58  1  0
M  CHG  2  11   1  17   1
M  END
>  <UniqueID>  (20) 
20

>  <SMILES>  (20) 
CCN(C)CCNc1c2c([n+](C)c3c1CC[n+]1ccccc1-3)CCCC2

>  <Energy>  (20) 
90.71187520957058

>  <Genealogy>  (20) 
CCN(C)CCNc1c2c([n+](C)c3c1CC[n+]1ccccc1-3)CCCC2 (3D coordinates assigned)
CCN(C)CCNc1c2c([n+](C)c3c1CC[n+]1ccccc1-3)CCCC2 (nonaromatic ring conformer: 90.71187520957058 kcal/mol)

>  <smiles>  (20) 
CCN(C)CCNc1c2c([n+](C)c3c1CC[n+]1ccccc1-3)CCCC2

>  <score_type>  (20) 
oracle

>  <origin>  (20) 
adg

>  <m_score__min__energy>  (20) 
-4.8300000000000001

>  <m_primary>  (20) 
energy

$$$$
20:0
     RDKit          3D

 50 52  0  0  0  0  0  0  0  0999 V2000
   55.4160   25.3670   45.6760 C   0  0  0  0  0  0  0  0  0  0  0  0
   55.5880   26.7350   45.9720 O   0  0  0  0  0  0  0  0  0  0  0  0
   56.9500   27.0770   45.8250 C   0  0  0  0  0  0  0  0  0  0  0  0
   57.1040   28.5950   45.9230 C   0  0  0  0  0  0  0  0  0  0  0  0
   57.3390   29.1800   44.5830 N   0  0  0  0  0  0  0  0  0  0  0  0
   58.7560   29.5300   44.3450 C   0  0  0  0  0  0  0  0  0  0  0  0
   59.1640   30.8730   44.9840 C   0  0  0  0  0  0  0  0  0  0  0  0
   58.0980   32.0130   44.8280 C   0  0  0  0  0  0  0  0  0  0  0  0
   57.0270   31.5740   43.7970 C   0  0  0  0  0  0  0  0  0  0  0  0
   56.3700   30.2410   44.2000 C   0  0  0  0  0  0  0  0  0  0  0  0
   58.7680   33.3130   44.3080 C   0  0  0  0  0  0  0  0  0  0  0  0
   59.8580   33.8260   45.2670 C   0  0  0  0  0  0  0  0  0  0  0  0
   59.5070   33.5830   46.6740 N   0  0  0  0  0  0  0  0  0  0  0  0
   60.5260   33.7210   47.6900 C   0  0  0  0  0  0  0  0  0  0  0  0
   60.1730   33.9050   48.9920 N   0  0  0  0  0  0  0  0  0  0  0  0
   61.1100   34.0420   49.9660 C   0  0  0  0  0  0  0  0  0  0  0  0
   62.4700   33.9840   49.6420 C   0  0  0  0  0  0  0  0  0  0  0  0
   63.5210   34.1750   50.6920 C   0  0  0  0  0  0  0  0  0  0  0  0
   62.8160   33.8150   48.2980 C   0  0  0  0  0  0  0  0  0  0  0  0
   61.8460   33.6830   47.3580 N   0  0  0  0  0  0  0  0  0  0  0  0
   58.0920   33.4210   47.0370 C   0  0  0  0  0  0  0  0  0  0  0  0
   57.4070   32.3210   46.2000 C   0  0  0  0  0  0  0  0  0  0  0  0
   55.3441   24.7953   46.6130 H   0  0  0  0  0  0  0  0  0  0  0  0
   54.4937   25.2313   45.0920 H   0  0  0  0  0  0  0  0  0  0  0  0
   56.2760   25.0073   45.0920 H   0  0  0  0  0  0  0  0  0  0  0  0
   57.5375   26.5961   46.6210 H   0  0  0  0  0  0  0  0  0  0  0  0
   57.3124   26.7327   44.8452 H   0  0  0  0  0  0  0  0  0  0  0  0
   56.1860   29.0252   46.3499 H   0  0  0  0  0  0  0  0  0  0  0  0
   57.9655   28.8243   46.5674 H   0  0  0  0  0  0  0  0  0  0  0  0
   59.3884   28.7352   44.7672 H   0  0  0  0  0  0  0  0  0  0  0  0
   58.8905   29.6302   43.2579 H   0  0  0  0  0  0  0  0  0  0  0  0
   59.3347   30.7057   46.0577 H   0  0  0  0  0  0  0  0  0  0  0  0
   60.0669   31.2119   44.4549 H   0  0  0  0  0  0  0  0  0  0  0  0
   56.2507   32.3509   43.7349 H   0  0  0  0  0  0  0  0  0  0  0  0
   57.5206   31.4356   42.8237 H   0  0  0  0  0  0  0  0  0  0  0  0
   55.7055   30.4280   45.0565 H   0  0  0  0  0  0  0  0  0  0  0  0
   55.8286   29.8732   43.3159 H   0  0  0  0  0  0  0  0  0  0  0  0
   59.2247   33.1093   43.3283 H   0  0  0  0  0  0  0  0  0  0  0  0
   57.9910   34.0879   44.2325 H   0  0  0  0  0  0  0  0  0  0  0  0
   60.8025   33.3092   45.0414 H   0  0  0  0  0  0  0  0  0  0  0  0
   59.9567   34.9120   45.1223 H   0  0  0  0  0  0  0  0  0  0  0  0
   60.7995   34.1986   51.0096 H   0  0  0  0  0  0  0  0  0  0  0  0
   63.0630   34.0918   51.6886 H   0  0  0  0  0  0  0  0  0  0  0  0
   64.2965   33.4031   50.5792 H   0  0  0  0  0  0  0  0  0  0  0  0
   63.9753   35.1704   50.5792 H   0  0  0  0  0  0  0  0  0  0  0  0
   63.8752   33.7890   48.0022 H   0  0  0  0  0  0  0  0  0  0  0  0
   58.0263   33.1511   48.1013 H   0  0  0  0  0  0  0  0  0  0  0  0
   57.5772   34.3724   46.8373 H   0  0  0  0  0  0  0  0  0  0  0  0
   57.3976   31.3951   46.7939 H   0  0  0  0  0  0  0  0  0  0  0  0
   56.4000   32.6946   45.9625 H   0  0  0  0  0  0  0  0  0  0  0  0
  1  2  1  0
  2  3  1  0
  3  4  1  0
  4  5  1  0
  5  6  1  0
  6  7  1  0
  7  8  1  0
  8  9  1  0
  9 10  1  0
  8 11  1  0
 11 12  1  0
 12 13  1  0
 13 14  1  0
 14 15  2  0
 15 16  1  0
 16 17  2  0
 17 18  1  0
 17 19  1  0
 19 20  2  0
 13 21  1  0
 21 22  1  0
 10  5  1  0
 20 14  1  0
 22  8  1  0
  1 23  1  0
  1 24  1  0
  1 25  1  0
  3 26  1  0
  3 27  1  0
  4 28  1  0
  4 29  1  0
  6 30  1  0
  6 31  1  0
  7 32  1  0
  7 33  1  0
  9 34  1  0
  9 35  1  0
 10 36  1  0
 10 37  1  0
 11 38  1  0
 11 39  1  0
 12 40  1  0
 12 41  1  0
 16 42  1  0
 18 43  1  0
 18 44  1  0
 18 45  1  0
 19 46  1  0
 21 47  1  0
 21 48  1  0
 22 49  1  0
 22 50  1  0
M  END
>  <UniqueID>  (21) 
21

>  <SMILES>  (21) 
COCCN1CCC2(CC1)CCN(c1ncc(C)cn1)CC2

>  <Energy>  (21) 
68.8950234484168

>  <Genealogy>  (21) 
COCCN1CCC2(CC1)CCN(c1ncc(C)cn1)CC2 (3D coordinates assigned)
COCCN1CCC2(CC1)CCN(c1ncc(C)cn1)CC2 (nonaromatic ring conformer: 68.8950234484168 kcal/mol)

>  <smiles>  (21) 
COCCN1CCC2(CC1)CCN(c1ncc(C)cn1)CC2

>  <score_type>  (21) 
oracle

>  <origin>  (21) 
adg

>  <m_score__min__energy>  (21) 
-6.6799999999999997

>  <m_primary>  (21) 
energy

$$$$
21:0
     RDKit          3D

 35 36  0  0  0  0  0  0  0  0999 V2000
   63.3620   32.9840   47.4720 C   0  0  0  0  0  0  0  0  0  0  0  0
   62.3360   33.8380   46.7390 C   0  0  0  0  0  0  0  0  0  0  0  0
   60.8310   34.0730   47.7490 S   0  0  0  0  0  0  0  0  0  0  0  0
   59.9930   32.5930   47.1390 C   0  0  0  0  0  0  0  0  0  0  0  0
   60.1070   31.4490   47.8600 N   0  0  0  0  0  0  0  0  0  0  0  0
   59.4660   30.3020   47.5140 C   0  0  0  0  0  0  0  0  0  0  0  0
   59.6160   29.0950   48.4100 C   0  0  0  0  0  0  0  0  0  0  0  0
   58.6790   30.2650   46.3350 C   0  0  0  0  0  0  0  0  0  0  0  0
   57.9630   29.1060   45.9880 C   0  0  0  0  0  0  0  0  0  0  0  0
   57.1750   29.0690   44.8480 C   0  0  0  0  0  0  0  0  0  0  0  0
   57.1290   30.1550   43.9740 C   0  0  0  0  0  0  0  0  0  0  0  0
   56.2700   30.0310   42.7390 C   0  0  0  0  0  0  0  0  0  0  0  0
   57.9210   31.3040   44.2360 C   0  0  0  0  0  0  0  0  0  0  0  0
   58.0790   32.3390   43.1390 C   0  0  0  0  0  0  0  0  0  0  0  0
   58.6050   31.4170   45.4970 C   0  0  0  0  0  0  0  0  0  0  0  0
   59.2120   32.6220   45.9680 C   0  0  0  0  0  0  0  0  0  0  0  0
   58.9540   33.9170   45.3770 C   0  0  0  0  0  0  0  0  0  0  0  0
   58.7600   34.9530   44.8990 N   0  0  0  0  0  0  0  0  0  0  0  0
   63.2254   33.0977   48.5575 H   0  0  0  0  0  0  0  0  0  0  0  0
   63.2263   31.9284   47.1940 H   0  0  0  0  0  0  0  0  0  0  0  0
   64.3754   33.3090   47.1940 H   0  0  0  0  0  0  0  0  0  0  0  0
   62.7782   34.8210   46.5195 H   0  0  0  0  0  0  0  0  0  0  0  0
   62.0547   33.3233   45.8084 H   0  0  0  0  0  0  0  0  0  0  0  0
   60.6860   31.4730   48.7290 H   0  0  0  0  0  0  0  0  0  0  0  0
   59.5765   29.4125   49.4625 H   0  0  0  0  0  0  0  0  0  0  0  0
   58.7991   28.3861   48.2100 H   0  0  0  0  0  0  0  0  0  0  0  0
   60.5816   28.6076   48.2100 H   0  0  0  0  0  0  0  0  0  0  0  0
   58.0290   28.2155   46.6304 H   0  0  0  0  0  0  0  0  0  0  0  0
   56.5781   28.1712   44.6298 H   0  0  0  0  0  0  0  0  0  0  0  0
   55.2215   29.8796   43.0353 H   0  0  0  0  0  0  0  0  0  0  0  0
   56.3529   30.9504   42.1408 H   0  0  0  0  0  0  0  0  0  0  0  0
   56.6096   29.1726   42.1408 H   0  0  0  0  0  0  0  0  0  0  0  0
   58.2304   33.3309   43.5898 H   0  0  0  0  0  0  0  0  0  0  0  0
   58.9485   32.0829   42.5157 H   0  0  0  0  0  0  0  0  0  0  0  0
   57.1727   32.3540   42.5157 H   0  0  0  0  0  0  0  0  0  0  0  0
  1  2  1  0
  2  3  1  0
  3  4  1  0
  4  5  2  0
  5  6  1  0
  6  7  1  0
  6  8  2  0
  8  9  1  0
  9 10  2  0
 10 11  1  0
 11 12  1  0
 11 13  2  0
 13 14  1  0
 13 15  1  0
 15 16  2  0
 16 17  1  0
 17 18  3  0
 16  4  1  0
 15  8  1  0
  1 19  1  0
  1 20  1  0
  1 21  1  0
  2 22  1  0
  2 23  1  0
  5 24  1  0
  7 25  1  0
  7 26  1  0
  7 27  1  0
  9 28  1  0
 10 29  1  0
 12 30  1  0
 12 31  1  0
 12 32  1  0
 14 33  1  0
 14 34  1  0
 14 35  1  0
M  CHG  1   5   1
M  END
>  <UniqueID>  (22) 
22

>  <SMILES>  (22) 
CCSc1[nH+]c(C)c2ccc(C)c(C)c2c1C#N

>  <Energy>  (22) 
47.785484395774446

>  <Genealogy>  (22) 
CCSc1[nH+]c(C)c2ccc(C)c(C)c2c1C#N (protonated)
CCSc1[nH+]c(C)c2ccc(C)c(C)c2c1C#N (3D coordinates assigned)
CCSc1[nH+]c(C)c2ccc(C)c(C)c2c1C#N (optimized conformer: 47.785484395774446 kcal/mol)

>  <smiles>  (22) 
CCSc1nc(C)c2ccc(C)c(C)c2c1C#N

>  <score_type>  (22) 
oracle

>  <origin>  (22) 
adg

>  <m_score__min__energy>  (22) 
-5.3099999999999996

>  <m_primary>  (22) 
energy

$$$$
22:0
     RDKit          3D

 79 82  0  0  0  0  0  0  0  0999 V2000
   56.5200   30.0110   42.9150 C   0  0  0  0  0  0  0  0  0  0  0  0
   55.5520   29.9690   44.0900 C   0  0  0  0  0  0  0  0  0  0  0  0
   55.8940   28.8620   44.9810 N   0  0  0  0  0  0  0  0  0  0  0  0
   57.1790   28.2720   44.5660 C   0  0  0  0  0  0  0  0  0  0  0  0
   58.3010   28.6970   45.5060 C   0  0  0  0  0  0  0  0  0  0  0  0
   57.8880   29.8380   46.3300 N   0  0  0  0  0  0  0  0  0  0  0  0
   58.8210   30.8550   46.7330 C   0  0  0  0  0  0  0  0  0  0  0  0
   58.7480   32.1380   46.1570 C   0  0  0  0  0  0  0  0  0  0  0  0
   57.7730   32.4250   45.1550 C   0  0  0  0  0  0  0  0  0  0  0  0
   57.7110   33.6710   44.5590 C   0  0  0  0  0  0  0  0  0  0  0  0
   58.5630   34.6850   44.9950 C   0  0  0  0  0  0  0  0  0  0  0  0
   59.4710   34.4620   46.0220 C   0  0  0  0  0  0  0  0  0  0  0  0
   59.6380   33.1580   46.6030 C   0  0  0  0  0  0  0  0  0  0  0  0
   60.5700   32.8920   47.5820 N   0  0  0  0  0  0  0  0  0  0  0  0
   61.6450   33.8370   47.9330 C   0  0  0  0  0  0  0  0  0  0  0  0
   60.5710   31.6610   48.2300 C   0  0  0  0  0  0  0  0  0  0  0  0
   61.3670   31.4070   49.3810 C   0  0  0  0  0  0  0  0  0  0  0  0
   61.5330   30.1080   49.8850 C   0  0  0  0  0  0  0  0  0  0  0  0
   62.3660   29.8000   50.9630 O   0  0  0  0  0  0  0  0  0  0  0  0
   63.6950   30.2850   51.2180 C   0  0  0  0  0  0  0  0  0  0  0  0
   64.1560   30.0580   52.6980 C   0  0  0  0  0  0  0  0  0  0  0  0
   64.6910   28.6920   53.0860 N   0  0  0  0  0  0  0  0  0  0  0  0
   64.0780   28.2730   54.3950 C   0  0  0  0  0  0  0  0  0  0  0  0
   66.1780   28.8210   53.3120 C   0  0  0  0  0  0  0  0  0  0  0  0
   67.0070   28.3770   52.0890 C   0  0  0  0  0  0  0  0  0  0  0  0
   66.8280   26.9190   51.7700 N   0  0  0  0  0  0  0  0  0  0  0  0
   67.0720   26.7350   50.3070 C   0  0  0  0  0  0  0  0  0  0  0  0
   67.8040   26.0960   52.5530 C   0  0  0  0  0  0  0  0  0  0  0  0
   65.4230   26.4650   52.1010 C   0  0  0  0  0  0  0  0  0  0  0  0
   64.4160   27.6450   52.0290 C   0  0  0  0  0  0  0  0  0  0  0  0
   60.7950   29.0760   49.3000 C   0  0  0  0  0  0  0  0  0  0  0  0
   60.9390   27.7740   49.7690 O   0  0  0  0  0  0  0  0  0  0  0  0
   60.7670   27.4370   51.1410 C   0  0  0  0  0  0  0  0  0  0  0  0
   59.9080   29.3190   48.2520 C   0  0  0  0  0  0  0  0  0  0  0  0
   59.7520   30.6150   47.7370 C   0  0  0  0  0  0  0  0  0  0  0  0
   57.5524   30.0558   43.2919 H   0  0  0  0  0  0  0  0  0  0  0  0
   56.3923   29.1065   42.3022 H   0  0  0  0  0  0  0  0  0  0  0  0
   56.3144   30.9011   42.3022 H   0  0  0  0  0  0  0  0  0  0  0  0
   55.6129   30.9162   44.6460 H   0  0  0  0  0  0  0  0  0  0  0  0
   54.5298   29.8240   43.7103 H   0  0  0  0  0  0  0  0  0  0  0  0
   55.1430   28.1390   44.8910 H   0  0  0  0  0  0  0  0  0  0  0  0
   57.0932   27.1754   44.5801 H   0  0  0  0  0  0  0  0  0  0  0  0
   57.4170   28.6255   43.5519 H   0  0  0  0  0  0  0  0  0  0  0  0
   58.5600   27.8533   46.1626 H   0  0  0  0  0  0  0  0  0  0  0  0
   59.1714   28.9951   44.9030 H   0  0  0  0  0  0  0  0  0  0  0  0
   56.8750   29.9790   46.5580 H   0  0  0  0  0  0  0  0  0  0  0  0
   57.0605   31.6435   44.8525 H   0  0  0  0  0  0  0  0  0  0  0  0
   56.9944   33.8611   43.7464 H   0  0  0  0  0  0  0  0  0  0  0  0
   58.5153   35.6755   44.5189 H   0  0  0  0  0  0  0  0  0  0  0  0
   60.0749   35.3008   46.3986 H   0  0  0  0  0  0  0  0  0  0  0  0
   61.7269   33.9090   49.0276 H   0  0  0  0  0  0  0  0  0  0  0  0
   62.5982   33.4791   47.5167 H   0  0  0  0  0  0  0  0  0  0  0  0
   61.4122   34.8282   47.5167 H   0  0  0  0  0  0  0  0  0  0  0  0
   61.8636   32.2477   49.8875 H   0  0  0  0  0  0  0  0  0  0  0  0
   64.3937   29.7613   50.5490 H   0  0  0  0  0  0  0  0  0  0  0  0
   63.6895   31.3701   51.0379 H   0  0  0  0  0  0  0  0  0  0  0  0
   64.9503   30.7897   52.9070 H   0  0  0  0  0  0  0  0  0  0  0  0
   63.2336   30.1645   53.2878 H   0  0  0  0  0  0  0  0  0  0  0  0
   64.6734   28.6800   55.2256 H   0  0  0  0  0  0  0  0  0  0  0  0
   63.0495   28.6579   54.4581 H   0  0  0  0  0  0  0  0  0  0  0  0
   64.0631   27.1749   54.4581 H   0  0  0  0  0  0  0  0  0  0  0  0
   66.4106   29.8735   53.5314 H   0  0  0  0  0  0  0  0  0  0  0  0
   66.4449   28.1618   54.1512 H   0  0  0  0  0  0  0  0  0  0  0  0
   66.6941   28.9698   51.2168 H   0  0  0  0  0  0  0  0  0  0  0  0
   68.0684   28.5386   52.3285 H   0  0  0  0  0  0  0  0  0  0  0  0
   67.9424   26.0786   50.1601 H   0  0  0  0  0  0  0  0  0  0  0  0
   66.1858   26.2784   49.8420 H   0  0  0  0  0  0  0  0  0  0  0  0
   67.2674   27.7126   49.8420 H   0  0  0  0  0  0  0  0  0  0  0  0
   67.6284   26.2440   53.6288 H   0  0  0  0  0  0  0  0  0  0  0  0
   67.6712   25.0331   52.3027 H   0  0  0  0  0  0  0  0  0  0  0  0
   68.8292   26.4064   52.3027 H   0  0  0  0  0  0  0  0  0  0  0  0
   65.1184   25.6899   51.3823 H   0  0  0  0  0  0  0  0  0  0  0  0
   65.4194   26.0682   53.1269 H   0  0  0  0  0  0  0  0  0  0  0  0
   64.4897   28.1144   51.0369 H   0  0  0  0  0  0  0  0  0  0  0  0
   63.4079   27.2418   52.2053 H   0  0  0  0  0  0  0  0  0  0  0  0
   61.1772   28.2407   51.7702 H   0  0  0  0  0  0  0  0  0  0  0  0
   59.6955   27.3132   51.3566 H   0  0  0  0  0  0  0  0  0  0  0  0
   61.2954   26.4966   51.3566 H   0  0  0  0  0  0  0  0  0  0  0  0
   59.3261   28.4885   47.8257 H   0  0  0  0  0  0  0  0  0  0  0  0
  1  2  1  0
  2  3  1  0
  3  4  1  0
  4  5  1  0
  5  6  1  0
  6  7  1  0
  7  8  2  0
  8  9  1  0
  9 10  2  0
 10 11  1  0
 11 12  2  0
 12 13  1  0
 13 14  2  0
 14 15  1  0
 14 16  1  0
 16 17  2  0
 17 18  1  0
 18 19  1  0
 19 20  1  0
 20 21  1  0
 21 22  1  0
 22 23  1  0
 22 24  1  0
 24 25  1  0
 25 26  1  0
 26 27  1  0
 26 28  1  0
 26 29  1  0
 29 30  1  0
 18 31  2  0
 31 32  1  0
 32 33  1  0
 31 34  1  0
 34 35  2  0
 35  7  1  0
 13  8  1  0
 35 16  1  0
 30 22  1  0
  1 36  1  0
  1 37  1  0
  1 38  1  0
  2 39  1  0
  2 40  1  0
  3 41  1  0
  4 42  1  0
  4 43  1  0
  5 44  1  0
  5 45  1  0
  6 46  1  0
  9 47  1  0
 10 48  1  0
 11 49  1  0
 12 50  1  0
 15 51  1  0
 15 52  1  0
 15 53  1  0
 17 54  1  0
 20 55  1  0
 20 56  1  0
 21 57  1  0
 21 58  1  0
 23 59  1  0
 23 60  1  0
 23 61  1  0
 24 62  1  0
 24 63  1  0
 25 64  1  0
 25 65  1  0
 27 66  1  0
 27 67  1  0
 27 68  1  0
 28 69  1  0
 28 70  1  0
 28 71  1  0
 29 72  1  0
 29 73  1  0
 30 74  1  0
 30 75  1  0
 33 76  1  0
 33 77  1  0
 33 78  1  0
 34 79  1  0
M  CHG  3  14   1  22   1  26   1
M  END
>  <UniqueID>  (23) 
23

>  <SMILES>  (23) 
CCNCCNc1c2ccccc2[n+](C)c2cc(OCC[N+]3(C)CC[N+](C)(C)CC3)c(OC)cc12

>  <Energy>  (23) 
171.28380974097848

>  <Genealogy>  (23) 
CCNCCNc1c2ccccc2[n+](C)c2cc(OCC[N+]3(C)CC[N+](C)(C)CC3)c(OC)cc12 (3D coordinates assigned)
CCNCCNc1c2ccccc2[n+](C)c2cc(OCC[N+]3(C)CC[N+](C)(C)CC3)c(OC)cc12 (nonaromatic ring conformer: 171.28380974097848 kcal/mol)

>  <smiles>  (23) 
CCNCCNc1c2ccccc2[n+](C)c2cc(OCC[N+]3(C)CC[N+](C)(C)CC3)c(OC)cc12

>  <score_type>  (23) 
oracle

>  <origin>  (23) 
adg

>  <m_score__min__energy>  (23) 
-4.29

>  <m_primary>  (23) 
energy

$$$$
23:0
     RDKit          3D

 54 57  0  0  0  0  0  0  0  0999 V2000
   63.4030   33.7350   46.5840 C   0  0  0  0  0  0  0  0  0  0  0  0
   63.7370   32.7570   47.6360 N   0  0  0  0  0  0  0  0  0  0  0  0
   62.8080   31.6180   47.5570 C   0  0  0  0  0  0  0  0  0  0  0  0
   63.6770   33.3800   48.9770 C   0  0  0  0  0  0  0  0  0  0  0  0
   62.6520   34.5250   48.9900 C   0  0  0  0  0  0  0  0  0  0  0  0
   61.4450   34.2040   49.8830 C   0  0  0  0  0  0  0  0  0  0  0  0
   60.1890   34.5820   49.2310 N   0  0  0  0  0  0  0  0  0  0  0  0
   59.6480   33.9510   48.0450 C   0  0  0  0  0  0  0  0  0  0  0  0
   59.3000   34.7170   46.9170 C   0  0  0  0  0  0  0  0  0  0  0  0
   58.8090   34.1140   45.7620 C   0  0  0  0  0  0  0  0  0  0  0  0
   58.7060   32.7170   45.6700 C   0  0  0  0  0  0  0  0  0  0  0  0
   59.0770   31.9300   46.7830 C   0  0  0  0  0  0  0  0  0  0  0  0
   59.4630   32.5450   47.9950 C   0  0  0  0  0  0  0  0  0  0  0  0
   59.6250   31.6940   49.2280 C   0  0  0  0  0  0  0  0  0  0  0  0
   58.8400   30.3860   49.0940 C   0  0  0  0  0  0  0  0  0  0  0  0
   59.2210   29.6400   47.8820 N   0  0  0  0  0  0  0  0  0  0  0  0
   60.5630   29.0420   47.9990 C   0  0  0  0  0  0  0  0  0  0  0  0
   59.0620   30.4130   46.6220 C   0  0  1  0  0  0  0  0  0  0  0  0
   57.7670   29.9910   45.9170 C   0  0  0  0  0  0  0  0  0  0  0  0
   57.6440   30.7130   44.5960 C   0  0  0  0  0  0  0  0  0  0  0  0
   57.0380   30.0770   43.5030 C   0  0  0  0  0  0  0  0  0  0  0  0
   56.9360   30.7320   42.2750 C   0  0  0  0  0  0  0  0  0  0  0  0
   57.4390   32.0250   42.1290 C   0  0  0  0  0  0  0  0  0  0  0  0
   58.0260   32.6790   43.2150 C   0  0  0  0  0  0  0  0  0  0  0  0
   58.1170   32.0430   44.4710 C   0  0  0  0  0  0  0  0  0  0  0  0
   63.0809   34.6783   47.0492 H   0  0  0  0  0  0  0  0  0  0  0  0
   64.2895   33.9184   45.9590 H   0  0  0  0  0  0  0  0  0  0  0  0
   62.5896   33.3378   45.9590 H   0  0  0  0  0  0  0  0  0  0  0  0
   62.5414   31.2911   48.5729 H   0  0  0  0  0  0  0  0  0  0  0  0
   61.8982   31.9235   47.0195 H   0  0  0  0  0  0  0  0  0  0  0  0
   63.2902   30.7882   47.0195 H   0  0  0  0  0  0  0  0  0  0  0  0
   63.3820   32.6210   49.7165 H   0  0  0  0  0  0  0  0  0  0  0  0
   64.6685   33.7856   49.2269 H   0  0  0  0  0  0  0  0  0  0  0  0
   63.1409   35.4355   49.3669 H   0  0  0  0  0  0  0  0  0  0  0  0
   62.2869   34.6669   47.9621 H   0  0  0  0  0  0  0  0  0  0  0  0
   61.4302   33.1241   50.0918 H   0  0  0  0  0  0  0  0  0  0  0  0
   61.5396   34.7780   50.8166 H   0  0  0  0  0  0  0  0  0  0  0  0
   59.6400   35.3240   49.7170 H   0  0  0  0  0  0  0  0  0  0  0  0
   59.4178   35.8102   46.9482 H   0  0  0  0  0  0  0  0  0  0  0  0
   58.4983   34.7393   44.9120 H   0  0  0  0  0  0  0  0  0  0  0  0
   60.6910   31.4619   49.3683 H   0  0  0  0  0  0  0  0  0  0  0  0
   59.2368   32.2507   50.0937 H   0  0  0  0  0  0  0  0  0  0  0  0
   59.0400   29.7590   49.9754 H   0  0  0  0  0  0  0  0  0  0  0  0
   57.7712   30.6352   49.0198 H   0  0  0  0  0  0  0  0  0  0  0  0
   60.8217   28.9267   49.0619 H   0  0  0  0  0  0  0  0  0  0  0  0
   60.5689   28.0561   47.5112 H   0  0  0  0  0  0  0  0  0  0  0  0
   61.3000   29.6969   47.5112 H   0  0  0  0  0  0  0  0  0  0  0  0
   59.9499   30.1698   46.0200 H   0  0  0  0  0  0  0  0  0  0  0  0
   57.7851   28.9056   45.7395 H   0  0  0  0  0  0  0  0  0  0  0  0
   56.9072   30.2487   46.5528 H   0  0  0  0  0  0  0  0  0  0  0  0
   56.6412   29.0571   43.6141 H   0  0  0  0  0  0  0  0  0  0  0  0
   56.4586   30.2284   41.4215 H   0  0  0  0  0  0  0  0  0  0  0  0
   57.3731   32.5316   41.1548 H   0  0  0  0  0  0  0  0  0  0  0  0
   58.4205   33.6982   43.0898 H   0  0  0  0  0  0  0  0  0  0  0  0
  1  2  1  0
  2  3  1  0
  2  4  1  0
  4  5  1  0
  5  6  1  0
  6  7  1  0
  7  8  1  0
  8  9  2  0
  9 10  1  0
 10 11  2  0
 11 12  1  0
 12 13  2  0
 13 14  1  0
 14 15  1  0
 15 16  1  0
 16 17  1  0
 16 18  1  0
 18 19  1  0
 19 20  1  0
 20 21  2  0
 21 22  1  0
 22 23  2  0
 23 24  1  0
 24 25  2  0
 13  8  1  0
 25 20  1  0
 25 11  1  0
 18 12  1  0
  1 26  1  0
  1 27  1  0
  1 28  1  0
  3 29  1  0
  3 30  1  0
  3 31  1  0
  4 32  1  0
  4 33  1  0
  5 34  1  0
  5 35  1  0
  6 36  1  0
  6 37  1  0
  7 38  1  0
  9 39  1  0
 10 40  1  0
 14 41  1  0
 14 42  1  0
 15 43  1  0
 15 44  1  0
 17 45  1  0
 17 46  1  0
 17 47  1  0
 18 48  1  6
 19 49  1  0
 19 50  1  0
 21 51  1  0
 22 52  1  0
 23 53  1  0
 24 54  1  0
M  END
>  <UniqueID>  (24) 
24

>  <SMILES>  (24) 
CN(C)CCCNc1ccc2c3c1CCN(C)[C@H]3Cc1ccccc1-2

>  <Energy>  (24) 
72.97766584296956

>  <Genealogy>  (24) 
CN(C)CCCNc1ccc2c3c1CCN(C)[C@H]3Cc1ccccc1-2 (chirality)
CN(C)CCCNc1ccc2c3c1CCN(C)[C@H]3Cc1ccccc1-2 (3D coordinates assigned)
CN(C)CCCNc1ccc2c3c1CCN(C)[C@H]3Cc1ccccc1-2 (nonaromatic ring conformer: 72.97766584296956 kcal/mol)

>  <smiles>  (24) 
CN(C)CCCNc1ccc2c3c1CCN(C)C3Cc1ccccc1-2

>  <score_type>  (24) 
oracle

>  <origin>  (24) 
adg

>  <m_score__min__energy>  (24) 
-8.2200000000000006

>  <m_primary>  (24) 
energy

$$$$
24:0
     RDKit          3D

 57 59  0  0  0  0  0  0  0  0999 V2000
   60.7380   30.2230   46.5740 C   0  0  0  0  0  0  0  0  0  0  0  0
   61.1380   30.5130   48.0120 C   0  0  0  0  0  0  0  0  0  0  0  0
   61.6740   31.8170   48.0900 O   0  0  0  0  0  0  0  0  0  0  0  0
   62.6940   31.9990   47.1240 C   0  0  0  0  0  0  0  0  0  0  0  0
   63.3430   33.3680   47.3060 C   0  0  0  0  0  0  0  0  0  0  0  0
   63.2220   33.7680   48.6540 O   0  0  0  0  0  0  0  0  0  0  0  0
   64.2390   33.1600   49.4220 C   0  0  0  0  0  0  0  0  0  0  0  0
   63.6070   32.4020   50.5930 C   0  0  0  0  0  0  0  0  0  0  0  0
   62.1370   32.4240   50.5110 N   0  0  0  0  0  0  0  0  0  0  0  0
   61.5520   32.7740   51.8130 C   0  0  0  0  0  0  0  0  0  0  0  0
   60.3250   31.9020   52.1110 C   0  0  0  0  0  0  0  0  0  0  0  0
   59.0920   32.4070   51.3510 C   0  0  0  0  0  0  0  0  0  0  0  0
   59.4450   33.5320   50.4840 N   0  0  0  0  0  0  0  0  0  0  0  0
   59.2890   33.5460   49.0510 C   0  0  0  0  0  0  0  0  0  0  0  0
   59.8580   34.5970   48.3150 C   0  0  0  0  0  0  0  0  0  0  0  0
   59.7320   34.6480   46.9240 C   0  0  0  0  0  0  0  0  0  0  0  0
   59.0270   33.6430   46.2400 C   0  0  0  0  0  0  0  0  0  0  0  0
   58.8790   33.6520   44.8420 C   0  0  0  0  0  0  0  0  0  0  0  0
   59.3820   34.5830   44.1520 O   0  0  0  0  0  0  0  0  0  0  0  0
   58.1640   32.6130   44.2210 C   0  0  0  0  0  0  0  0  0  0  0  0
   57.9810   32.5590   42.8260 C   0  0  0  0  0  0  0  0  0  0  0  0
   57.2650   31.5030   42.2530 C   0  0  0  0  0  0  0  0  0  0  0  0
   56.7260   30.4980   43.0600 C   0  0  0  0  0  0  0  0  0  0  0  0
   56.9020   30.5420   44.4460 C   0  0  0  0  0  0  0  0  0  0  0  0
   57.6170   31.5920   45.0320 C   0  0  0  0  0  0  0  0  0  0  0  0
   57.7760   31.6200   46.3510 O   0  0  0  0  0  0  0  0  0  0  0  0
   58.4460   32.5850   46.9750 C   0  0  0  0  0  0  0  0  0  0  0  0
   58.5730   32.5440   48.3670 C   0  0  0  0  0  0  0  0  0  0  0  0
   59.8475   29.5774   46.5642 H   0  0  0  0  0  0  0  0  0  0  0  0
   60.5114   31.1681   46.0587 H   0  0  0  0  0  0  0  0  0  0  0  0
   61.5658   29.7138   46.0587 H   0  0  0  0  0  0  0  0  0  0  0  0
   60.2537   30.4390   48.6621 H   0  0  0  0  0  0  0  0  0  0  0  0
   61.8922   29.7828   48.3406 H   0  0  0  0  0  0  0  0  0  0  0  0
   63.4559   31.2150   47.2459 H   0  0  0  0  0  0  0  0  0  0  0  0
   62.2548   31.9372   46.1174 H   0  0  0  0  0  0  0  0  0  0  0  0
   64.4074   33.3086   47.0348 H   0  0  0  0  0  0  0  0  0  0  0  0
   62.8412   34.1019   46.6582 H   0  0  0  0  0  0  0  0  0  0  0  0
   64.8042   32.4573   48.7921 H   0  0  0  0  0  0  0  0  0  0  0  0
   64.9195   33.9329   49.8088 H   0  0  0  0  0  0  0  0  0  0  0  0
   63.9518   31.3577   50.5722 H   0  0  0  0  0  0  0  0  0  0  0  0
   63.9107   32.8925   51.5296 H   0  0  0  0  0  0  0  0  0  0  0  0
   61.7890   31.4780   50.2230 H   0  0  0  0  0  0  0  0  0  0  0  0
   61.8440   33.1330   49.7980 H   0  0  0  0  0  0  0  0  0  0  0  0
   62.3046   32.6186   52.6000 H   0  0  0  0  0  0  0  0  0  0  0  0
   61.2377   33.8278   51.7866 H   0  0  0  0  0  0  0  0  0  0  0  0
   60.5368   30.8669   51.8050 H   0  0  0  0  0  0  0  0  0  0  0  0
   60.1151   31.9505   53.1897 H   0  0  0  0  0  0  0  0  0  0  0  0
   58.6871   31.5899   50.7358 H   0  0  0  0  0  0  0  0  0  0  0  0
   58.3402   32.7439   52.0799 H   0  0  0  0  0  0  0  0  0  0  0  0
   59.8240   34.3880   50.9510 H   0  0  0  0  0  0  0  0  0  0  0  0
   60.4101   35.3906   48.8397 H   0  0  0  0  0  0  0  0  0  0  0  0
   60.1863   35.4777   46.3626 H   0  0  0  0  0  0  0  0  0  0  0  0
   58.4017   33.3485   42.1859 H   0  0  0  0  0  0  0  0  0  0  0  0
   57.1257   31.4636   41.1626 H   0  0  0  0  0  0  0  0  0  0  0  0
   56.1622   29.6708   42.6040 H   0  0  0  0  0  0  0  0  0  0  0  0
   56.4769   29.7484   45.0780 H   0  0  0  0  0  0  0  0  0  0  0  0
   58.1098   31.7222   48.9328 H   0  0  0  0  0  0  0  0  0  0  0  0
  1  2  1  0
  2  3  1  0
  3  4  1  0
  4  5  1  0
  5  6  1  0
  6  7  1  0
  7  8  1  0
  8  9  1  0
  9 10  1  0
 10 11  1  0
 11 12  1  0
 12 13  1  0
 13 14  1  0
 14 15  2  0
 15 16  1  0
 16 17  2  0
 17 18  1  0
 18 19  2  0
 18 20  1  0
 20 21  2  0
 21 22  1  0
 22 23  2  0
 23 24  1  0
 24 25  2  0
 25 26  1  0
 26 27  1  0
 27 28  2  0
 28 14  1  0
 27 17  1  0
 25 20  1  0
  1 29  1  0
  1 30  1  0
  1 31  1  0
  2 32  1  0
  2 33  1  0
  4 34  1  0
  4 35  1  0
  5 36  1  0
  5 37  1  0
  7 38  1  0
  7 39  1  0
  8 40  1  0
  8 41  1  0
  9 42  1  0
  9 43  1  0
 10 44  1  0
 10 45  1  0
 11 46  1  0
 11 47  1  0
 12 48  1  0
 12 49  1  0
 13 50  1  0
 15 51  1  0
 16 52  1  0
 21 53  1  0
 22 54  1  0
 23 55  1  0
 24 56  1  0
 28 57  1  0
M  CHG  1   9   1
M  END
>  <UniqueID>  (25) 
25

>  <SMILES>  (25) 
CCOCCOCC[NH2+]CCCNc1ccc2c(=O)c3ccccc3oc2c1

>  <Energy>  (25) 
57.591244337686284

>  <Genealogy>  (25) 
CCOCCOCC[NH2+]CCCNc1ccc2c(=O)c3ccccc3oc2c1 (protonated)
CCOCCOCC[NH2+]CCCNc1ccc2c(=O)c3ccccc3oc2c1 (3D coordinates assigned)
CCOCCOCC[NH2+]CCCNc1ccc2c(=O)c3ccccc3oc2c1 (optimized conformer: 57.591244337686284 kcal/mol)

>  <smiles>  (25) 
CCOCCOCCNCCCNc1ccc2c(=O)c3ccccc3oc2c1

>  <score_type>  (25) 
oracle

>  <origin>  (25) 
adg

>  <m_score__min__energy>  (25) 
-5.3099999999999996

>  <m_primary>  (25) 
energy

$$$$
25:0
     RDKit          3D

 62 64  0  0  0  0  0  0  0  0999 V2000
   57.7700   31.9280   51.0470 C   0  0  0  0  0  0  0  0  0  0  0  0
   58.5270   32.0770   49.7300 C   0  0  0  0  0  0  0  0  0  0  0  0
   59.9680   32.2940   49.9840 N   0  0  0  0  0  0  0  0  0  0  0  0
   60.5780   31.0880   50.5790 C   0  0  0  0  0  0  0  0  0  0  0  0
   60.1880   33.4720   50.8560 C   0  0  0  0  0  0  0  0  0  0  0  0
   61.6780   33.8120   50.9680 C   0  0  0  0  0  0  0  0  0  0  0  0
   62.2570   33.7810   49.6790 O   0  0  0  0  0  0  0  0  0  0  0  0
   63.6220   33.4210   49.7470 C   0  0  0  0  0  0  0  0  0  0  0  0
   63.8360   31.9740   49.2670 C   0  0  0  0  0  0  0  0  0  0  0  0
   63.3150   31.7560   47.9680 O   0  0  0  0  0  0  0  0  0  0  0  0
   63.4650   32.9110   47.1690 C   0  0  0  0  0  0  0  0  0  0  0  0
   62.0790   33.4880   46.8710 C   0  0  0  0  0  0  0  0  0  0  0  0
   61.0170   32.8790   47.6950 N   0  0  0  0  0  0  0  0  0  0  0  0
   60.0440   32.1590   46.8880 C   0  0  0  0  0  0  0  0  0  0  0  0
   59.1710   32.8770   46.0540 C   0  0  0  0  0  0  0  0  0  0  0  0
   58.2260   32.2430   45.2900 C   0  0  0  0  0  0  0  0  0  0  0  0
   58.0690   30.8820   45.3060 N   0  0  0  0  0  0  0  0  0  0  0  0
   57.0380   30.2480   44.4600 C   0  0  0  0  0  0  0  0  0  0  0  0
   58.8840   30.1180   46.1240 C   0  0  0  0  0  0  0  0  0  0  0  0
   58.7320   28.7110   46.2000 C   0  0  0  0  0  0  0  0  0  0  0  0
   59.5660   27.9390   47.0020 C   0  0  0  0  0  0  0  0  0  0  0  0
   60.5750   28.5380   47.7420 C   0  0  0  0  0  0  0  0  0  0  0  0
   60.7500   29.9190   47.7010 C   0  0  0  0  0  0  0  0  0  0  0  0
   59.9070   30.7400   46.9150 C   0  0  0  0  0  0  0  0  0  0  0  0
   57.4510   33.2140   44.4640 C   0  0  0  0  0  0  0  0  0  0  0  0
   57.9640   34.5910   44.9010 C   0  0  0  0  0  0  0  0  0  0  0  0
   59.1590   34.3510   45.8300 C   0  0  0  0  0  0  0  0  0  0  0  0
   58.4662   32.0650   51.8876 H   0  0  0  0  0  0  0  0  0  0  0  0
   56.9757   32.6870   51.1013 H   0  0  0  0  0  0  0  0  0  0  0  0
   57.3226   30.9246   51.1013 H   0  0  0  0  0  0  0  0  0  0  0  0
   58.3982   31.1624   49.1326 H   0  0  0  0  0  0  0  0  0  0  0  0
   58.1266   32.9446   49.1850 H   0  0  0  0  0  0  0  0  0  0  0  0
   60.5409   31.1614   51.6759 H   0  0  0  0  0  0  0  0  0  0  0  0
   60.0223   30.1967   50.2522 H   0  0  0  0  0  0  0  0  0  0  0  0
   61.6252   31.0075   50.2522 H   0  0  0  0  0  0  0  0  0  0  0  0
   59.6543   34.3357   50.4327 H   0  0  0  0  0  0  0  0  0  0  0  0
   59.8097   33.2350   51.8613 H   0  0  0  0  0  0  0  0  0  0  0  0
   61.7952   34.8166   51.4005 H   0  0  0  0  0  0  0  0  0  0  0  0
   62.1781   33.0780   51.6169 H   0  0  0  0  0  0  0  0  0  0  0  0
   64.2056   34.1014   49.1094 H   0  0  0  0  0  0  0  0  0  0  0  0
   63.9521   33.4953   50.7937 H   0  0  0  0  0  0  0  0  0  0  0  0
   64.9151   31.7610   49.2557 H   0  0  0  0  0  0  0  0  0  0  0  0
   63.3022   31.3071   49.9600 H   0  0  0  0  0  0  0  0  0  0  0  0
   64.0682   33.6571   47.7072 H   0  0  0  0  0  0  0  0  0  0  0  0
   63.9719   32.6512   46.2280 H   0  0  0  0  0  0  0  0  0  0  0  0
   62.0991   34.5702   47.0673 H   0  0  0  0  0  0  0  0  0  0  0  0
   61.8482   33.2686   45.8181 H   0  0  0  0  0  0  0  0  0  0  0  0
   61.4720   32.2050   48.3530 H   0  0  0  0  0  0  0  0  0  0  0  0
   60.5790   33.5830   48.3240 H   0  0  0  0  0  0  0  0  0  0  0  0
   56.2759   29.7793   45.1000 H   0  0  0  0  0  0  0  0  0  0  0  0
   56.5646   31.0113   43.8249 H   0  0  0  0  0  0  0  0  0  0  0  0
   57.5055   29.4811   43.8249 H   0  0  0  0  0  0  0  0  0  0  0  0
   57.9404   28.2207   45.6143 H   0  0  0  0  0  0  0  0  0  0  0  0
   59.4249   26.8491   47.0497 H   0  0  0  0  0  0  0  0  0  0  0  0
   61.2394   27.9198   48.3636 H   0  0  0  0  0  0  0  0  0  0  0  0
   61.5572   30.3794   48.2896 H   0  0  0  0  0  0  0  0  0  0  0  0
   57.6411   33.0510   43.3929 H   0  0  0  0  0  0  0  0  0  0  0  0
   56.3653   33.1092   44.6067 H   0  0  0  0  0  0  0  0  0  0  0  0
   58.2797   35.1726   44.0223 H   0  0  0  0  0  0  0  0  0  0  0  0
   57.1747   35.1582   45.4160 H   0  0  0  0  0  0  0  0  0  0  0  0
   60.0941   34.6789   45.3525 H   0  0  0  0  0  0  0  0  0  0  0  0
   59.0761   34.9153   46.7706 H   0  0  0  0  0  0  0  0  0  0  0  0
  1  2  1  0
  2  3  1  0
  3  4  1  0
  3  5  1  0
  5  6  1  0
  6  7  1  0
  7  8  1  0
  8  9  1  0
  9 10  1  0
 10 11  1  0
 11 12  1  0
 12 13  1  0
 13 14  1  0
 14 15  2  0
 15 16  1  0
 16 17  2  0
 17 18  1  0
 17 19  1  0
 19 20  2  0
 20 21  1  0
 21 22  2  0
 22 23  1  0
 23 24  2  0
 16 25  1  0
 25 26  1  0
 26 27  1  0
 24 14  1  0
 27 15  1  0
 24 19  1  0
  1 28  1  0
  1 29  1  0
  1 30  1  0
  2 31  1  0
  2 32  1  0
  4 33  1  0
  4 34  1  0
  4 35  1  0
  5 36  1  0
  5 37  1  0
  6 38  1  0
  6 39  1  0
  8 40  1  0
  8 41  1  0
  9 42  1  0
  9 43  1  0
 11 44  1  0
 11 45  1  0
 12 46  1  0
 12 47  1  0
 13 48  1  0
 13 49  1  0
 18 50  1  0
 18 51  1  0
 18 52  1  0
 20 53  1  0
 21 54  1  0
 22 55  1  0
 23 56  1  0
 25 57  1  0
 25 58  1  0
 26 59  1  0
 26 60  1  0
 27 61  1  0
 27 62  1  0
M  CHG  2  13   1  17   1
M  END
>  <UniqueID>  (26) 
26

>  <SMILES>  (26) 
CCN(C)CCOCCOCC[NH2+]c1c2c([n+](C)c3ccccc13)CCC2

>  <Energy>  (26) 
82.36591949011586

>  <Genealogy>  (26) 
CCN(C)CCOCCOCC[NH2+]c1c2c([n+](C)c3ccccc13)CCC2 (protonated)
CCN(C)CCOCCOCC[NH2+]c1c2c([n+](C)c3ccccc13)CCC2 (3D coordinates assigned)
CCN(C)CCOCCOCC[NH2+]c1c2c([n+](C)c3ccccc13)CCC2 (nonaromatic ring conformer: 82.36591949011586 kcal/mol)

>  <smiles>  (26) 
CCN(C)CCOCCOCCNc1c2c([n+](C)c3ccccc13)CCC2

>  <score_type>  (26) 
oracle

>  <origin>  (26) 
adg

>  <m_score__min__energy>  (26) 
-2.8900000000000001

>  <m_primary>  (26) 
energy

$$$$
26:0
     RDKit          3D

 42 44  0  0  0  0  0  0  0  0999 V2000
   58.8020   26.7070   47.5130 C   0  0  0  0  0  0  0  0  0  0  0  0
   57.6450   27.1420   46.6070 C   0  0  0  0  0  0  0  0  0  0  0  0
   58.1130   27.6000   45.2860 N   0  0  0  0  0  0  0  0  0  0  0  0
   59.5780   27.5650   45.1570 C   0  0  0  0  0  0  0  0  0  0  0  0
   60.1720   28.9660   45.3220 C   0  0  0  0  0  0  0  0  0  0  0  0
   59.3090   29.8160   46.1440 N   0  0  0  0  0  0  0  0  0  0  0  0
   59.4830   31.2380   46.1690 C   0  0  0  0  0  0  0  0  0  0  0  0
   60.6290   31.8280   46.7550 C   0  0  0  0  0  0  0  0  0  0  0  0
   61.7160   31.0320   47.1650 C   0  0  0  0  0  0  0  0  0  0  0  0
   62.8480   31.6120   47.7340 C   0  0  0  0  0  0  0  0  0  0  0  0
   62.9220   32.9910   47.8970 C   0  0  0  0  0  0  0  0  0  0  0  0
   61.8640   33.8060   47.4940 C   0  0  0  0  0  0  0  0  0  0  0  0
   60.6930   33.2530   46.9210 C   0  0  0  0  0  0  0  0  0  0  0  0
   59.6300   34.0520   46.5260 N   0  0  0  0  0  0  0  0  0  0  0  0
   59.6490   35.5090   46.7500 C   0  0  0  0  0  0  0  0  0  0  0  0
   58.5710   33.4520   45.8970 C   0  0  0  0  0  0  0  0  0  0  0  0
   57.4120   34.0100   45.3750 C   0  0  0  0  0  0  0  0  0  0  0  0
   56.6740   33.0470   44.8620 O   0  0  0  0  0  0  0  0  0  0  0  0
   57.2940   31.8950   45.0150 C   0  0  0  0  0  0  0  0  0  0  0  0
   56.7790   30.6660   44.4940 N   0  0  0  0  0  0  0  0  0  0  0  0
   56.9170   30.4190   43.2800 O   0  0  0  0  0  0  0  0  0  0  0  0
   56.4390   29.6410   45.3440 O   0  0  0  0  0  0  0  0  0  0  0  0
   58.4950   32.0990   45.6860 C   0  0  0  0  0  0  0  0  0  0  0  0
   58.5049   26.8187   48.5662 H   0  0  0  0  0  0  0  0  0  0  0  0
   59.0497   25.6544   47.3115 H   0  0  0  0  0  0  0  0  0  0  0  0
   59.6818   27.3357   47.3115 H   0  0  0  0  0  0  0  0  0  0  0  0
   56.9657   26.2884   46.4656 H   0  0  0  0  0  0  0  0  0  0  0  0
   57.1333   27.9849   47.0945 H   0  0  0  0  0  0  0  0  0  0  0  0
   57.7810   28.5780   45.1170 H   0  0  0  0  0  0  0  0  0  0  0  0
   59.9926   26.9040   45.9323 H   0  0  0  0  0  0  0  0  0  0  0  0
   59.8348   27.1889   44.1557 H   0  0  0  0  0  0  0  0  0  0  0  0
   61.1573   28.8830   45.8040 H   0  0  0  0  0  0  0  0  0  0  0  0
   60.2635   29.4239   44.3260 H   0  0  0  0  0  0  0  0  0  0  0  0
   58.3900   29.4300   46.4570 H   0  0  0  0  0  0  0  0  0  0  0  0
   61.6709   29.9407   47.0347 H   0  0  0  0  0  0  0  0  0  0  0  0
   63.6864   30.9766   48.0555 H   0  0  0  0  0  0  0  0  0  0  0  0
   63.8194   33.4415   48.3460 H   0  0  0  0  0  0  0  0  0  0  0  0
   61.9406   34.8957   47.6234 H   0  0  0  0  0  0  0  0  0  0  0  0
   59.6517   35.7138   47.8308 H   0  0  0  0  0  0  0  0  0  0  0  0
   60.5528   35.9385   46.2932 H   0  0  0  0  0  0  0  0  0  0  0  0
   58.7567   35.9619   46.2932 H   0  0  0  0  0  0  0  0  0  0  0  0
   57.1529   35.0790   45.3877 H   0  0  0  0  0  0  0  0  0  0  0  0
  1  2  1  0
  2  3  1  0
  3  4  1  0
  4  5  1  0
  5  6  1  0
  6  7  1  0
  7  8  2  0
  8  9  1  0
  9 10  2  0
 10 11  1  0
 11 12  2  0
 12 13  1  0
 13 14  2  0
 14 15  1  0
 14 16  1  0
 16 17  2  0
 17 18  1  0
 18 19  1  0
 19 20  1  0
 20 21  2  0
 20 22  1  0
 19 23  2  0
 23  7  1  0
 13  8  1  0
 23 16  1  0
  1 24  1  0
  1 25  1  0
  1 26  1  0
  2 27  1  0
  2 28  1  0
  3 29  1  0
  4 30  1  0
  4 31  1  0
  5 32  1  0
  5 33  1  0
  6 34  1  0
  9 35  1  0
 10 36  1  0
 11 37  1  0
 12 38  1  0
 15 39  1  0
 15 40  1  0
 15 41  1  0
 17 42  1  0
M  CHG  3  14   1  20   1  22  -1
M  END
>  <UniqueID>  (27) 
27

>  <SMILES>  (27) 
CCNCCNc1c2ccccc2[n+](C)c2coc([N+](=O)[O-])c12

>  <Energy>  (27) 
97.13153930356467

>  <Genealogy>  (27) 
CCNCCNc1c2ccccc2[n+](C)c2coc([N+](=O)[O-])c12 (3D coordinates assigned)
CCNCCNc1c2ccccc2[n+](C)c2coc([N+](=O)[O-])c12 (optimized conformer: 97.13153930356467 kcal/mol)

>  <smiles>  (27) 
CCNCCNc1c2ccccc2[n+](C)c2coc([N+](=O)[O-])c12

>  <score_type>  (27) 
oracle

>  <origin>  (27) 
adg

>  <m_score__min__energy>  (27) 
-4.9699999999999998

>  <m_primary>  (27) 
energy

$$$$
27:0
     RDKit          3D

 68 69  0  0  0  0  0  0  0  0999 V2000
   63.3890   33.8360   46.3650 C   0  0  0  0  0  0  0  0  0  0  0  0
   62.9590   32.6020   47.1520 C   0  0  0  0  0  0  0  0  0  0  0  0
   61.5160   32.6480   47.4760 N   0  0  0  0  0  0  0  0  0  0  0  0
   61.0020   31.3380   47.9380 C   0  0  0  0  0  0  0  0  0  0  0  0
   60.6700   30.3690   46.7940 C   0  0  0  0  0  0  0  0  0  0  0  0
   61.1500   33.7590   48.3900 C   0  0  0  0  0  0  0  0  0  0  0  0
   59.6700   33.6560   48.7590 C   0  0  0  0  0  0  0  0  0  0  0  0
   58.8940   33.7050   47.5790 O   0  0  0  0  0  0  0  0  0  0  0  0
   59.4480   34.6150   46.6440 C   0  0  0  0  0  0  0  0  0  0  0  0
   58.7050   34.6070   45.3010 C   0  0  0  0  0  0  0  0  0  0  0  0
   57.0280   33.8960   45.4870 S   0  0  0  0  0  0  0  0  0  0  0  0
   57.4610   32.2940   44.8130 C   0  0  0  0  0  0  0  0  0  0  0  0
   57.9220   32.0930   43.5620 N   0  0  0  0  0  0  0  0  0  0  0  0
   58.1140   30.7870   43.4660 N   0  0  0  0  0  0  0  0  0  0  0  0
   57.7830   30.2420   44.6520 C   0  0  0  0  0  0  0  0  0  0  0  0
   57.8860   28.8140   44.9960 C   0  0  0  0  0  0  0  0  0  0  0  0
   58.0120   28.3960   46.3300 C   0  0  0  0  0  0  0  0  0  0  0  0
   58.1700   27.0390   46.6300 C   0  0  0  0  0  0  0  0  0  0  0  0
   58.1870   26.0840   45.6010 C   0  0  0  0  0  0  0  0  0  0  0  0
   58.4310   24.6300   45.9030 C   0  0  0  0  0  0  0  0  0  0  0  0
   57.1630   23.8690   45.8660 N   0  0  0  0  0  0  0  0  0  0  0  0
   56.4260   24.0550   47.1280 C   0  0  0  0  0  0  0  0  0  0  0  0
   57.3780   22.4270   45.5840 C   0  0  0  0  0  0  0  0  0  0  0  0
   56.1180   21.8310   44.9420 C   0  0  0  0  0  0  0  0  0  0  0  0
   56.2050   21.8520   43.4660 N   0  0  0  0  0  0  0  0  0  0  0  0
   57.4020   21.1300   42.9980 C   0  0  0  0  0  0  0  0  0  0  0  0
   56.2610   23.2450   42.9920 C   0  0  0  0  0  0  0  0  0  0  0  0
   58.0210   26.5000   44.2730 C   0  0  0  0  0  0  0  0  0  0  0  0
   57.8830   27.8560   43.9720 C   0  0  0  0  0  0  0  0  0  0  0  0
   57.3760   31.1720   45.4850 O   0  0  0  0  0  0  0  0  0  0  0  0
   63.6684   34.6379   47.0643 H   0  0  0  0  0  0  0  0  0  0  0  0
   64.2525   33.5844   45.7316 H   0  0  0  0  0  0  0  0  0  0  0  0
   62.5562   34.1755   45.7316 H   0  0  0  0  0  0  0  0  0  0  0  0
   63.1629   31.7040   46.5503 H   0  0  0  0  0  0  0  0  0  0  0  0
   63.5261   32.5756   48.0942 H   0  0  0  0  0  0  0  0  0  0  0  0
   61.7650   30.8714   48.5784 H   0  0  0  0  0  0  0  0  0  0  0  0
   60.0637   31.5323   48.4783 H   0  0  0  0  0  0  0  0  0  0  0  0
   60.3403   29.4067   47.2126 H   0  0  0  0  0  0  0  0  0  0  0  0
   59.8663   30.7942   46.1749 H   0  0  0  0  0  0  0  0  0  0  0  0
   61.5656   30.2120   46.1749 H   0  0  0  0  0  0  0  0  0  0  0  0
   61.7598   33.6971   49.3034 H   0  0  0  0  0  0  0  0  0  0  0  0
   61.3342   34.7200   47.8875 H   0  0  0  0  0  0  0  0  0  0  0  0
   59.4861   32.7056   49.2815 H   0  0  0  0  0  0  0  0  0  0  0  0
   59.3939   34.4918   49.4187 H   0  0  0  0  0  0  0  0  0  0  0  0
   59.3989   35.6289   47.0677 H   0  0  0  0  0  0  0  0  0  0  0  0
   60.4859   34.3051   46.4523 H   0  0  0  0  0  0  0  0  0  0  0  0
   58.6196   35.6392   44.9304 H   0  0  0  0  0  0  0  0  0  0  0  0
   59.2720   33.9891   44.5891 H   0  0  0  0  0  0  0  0  0  0  0  0
   58.4930   30.3020   42.6230 H   0  0  0  0  0  0  0  0  0  0  0  0
   57.9864   29.1378   47.1419 H   0  0  0  0  0  0  0  0  0  0  0  0
   58.2814   26.7187   47.6764 H   0  0  0  0  0  0  0  0  0  0  0  0
   59.1224   24.2166   45.1539 H   0  0  0  0  0  0  0  0  0  0  0  0
   58.8651   24.5457   46.9102 H   0  0  0  0  0  0  0  0  0  0  0  0
   57.1040   23.8839   47.9772 H   0  0  0  0  0  0  0  0  0  0  0  0
   56.0317   25.0808   47.1746 H   0  0  0  0  0  0  0  0  0  0  0  0
   55.5921   23.3392   47.1746 H   0  0  0  0  0  0  0  0  0  0  0  0
   58.2282   22.3120   44.8956 H   0  0  0  0  0  0  0  0  0  0  0  0
   57.5907   21.8998   46.5257 H   0  0  0  0  0  0  0  0  0  0  0  0
   56.0021   20.7904   45.2792 H   0  0  0  0  0  0  0  0  0  0  0  0
   55.2529   22.4380   45.2472 H   0  0  0  0  0  0  0  0  0  0  0  0
   57.9817   20.7804   43.8650 H   0  0  0  0  0  0  0  0  0  0  0  0
   57.0949   20.2664   42.3899 H   0  0  0  0  0  0  0  0  0  0  0  0
   58.0227   21.8045   42.3899 H   0  0  0  0  0  0  0  0  0  0  0  0
   56.2884   23.9254   43.8559 H   0  0  0  0  0  0  0  0  0  0  0  0
   57.1657   23.3890   42.3830 H   0  0  0  0  0  0  0  0  0  0  0  0
   55.3708   23.4612   42.3830 H   0  0  0  0  0  0  0  0  0  0  0  0
   57.9994   25.7546   43.4643 H   0  0  0  0  0  0  0  0  0  0  0  0
   57.7712   28.1750   42.9252 H   0  0  0  0  0  0  0  0  0  0  0  0
  1  2  1  0
  2  3  1  0
  3  4  1  0
  4  5  1  0
  3  6  1  0
  6  7  1  0
  7  8  1  0
  8  9  1  0
  9 10  1  0
 10 11  1  0
 11 12  1  0
 12 13  2  0
 13 14  1  0
 14 15  2  0
 15 16  1  0
 16 17  2  0
 17 18  1  0
 18 19  2  0
 19 20  1  0
 20 21  1  0
 21 22  1  0
 21 23  1  0
 23 24  1  0
 24 25  1  0
 25 26  1  0
 25 27  1  0
 19 28  1  0
 28 29  2  0
 15 30  1  0
 30 12  1  0
 29 16  1  0
  1 31  1  0
  1 32  1  0
  1 33  1  0
  2 34  1  0
  2 35  1  0
  4 36  1  0
  4 37  1  0
  5 38  1  0
  5 39  1  0
  5 40  1  0
  6 41  1  0
  6 42  1  0
  7 43  1  0
  7 44  1  0
  9 45  1  0
  9 46  1  0
 10 47  1  0
 10 48  1  0
 14 49  1  0
 17 50  1  0
 18 51  1  0
 20 52  1  0
 20 53  1  0
 22 54  1  0
 22 55  1  0
 22 56  1  0
 23 57  1  0
 23 58  1  0
 24 59  1  0
 24 60  1  0
 26 61  1  0
 26 62  1  0
 26 63  1  0
 27 64  1  0
 27 65  1  0
 27 66  1  0
 28 67  1  0
 29 68  1  0
M  CHG  1  14   1
M  END
>  <UniqueID>  (28) 
28

>  <SMILES>  (28) 
CCN(CC)CCOCCSc1n[nH+]c(-c2ccc(CN(C)CCN(C)C)cc2)o1

>  <Energy>  (28) 
99.10468589962836

>  <Genealogy>  (28) 
CCN(CC)CCOCCSc1n[nH+]c(-c2ccc(CN(C)CCN(C)C)cc2)o1 (protonated)
CCN(CC)CCOCCSc1n[nH+]c(-c2ccc(CN(C)CCN(C)C)cc2)o1 (3D coordinates assigned)
CCN(CC)CCOCCSc1n[nH+]c(-c2ccc(CN(C)CCN(C)C)cc2)o1 (optimized conformer: 99.10468589962836 kcal/mol)

>  <smiles>  (28) 
CCN(CC)CCOCCSc1nnc(-c2ccc(CN(C)CCN(C)C)cc2)o1

>  <score_type>  (28) 
oracle

>  <origin>  (28) 
adg

>  <m_score__min__energy>  (28) 
-6.7599999999999998

>  <m_primary>  (28) 
energy

$$$$
28:0
     RDKit          3D

 61 63  0  0  0  0  0  0  0  0999 V2000
   57.9510   31.9500   50.7880 C   0  0  0  0  0  0  0  0  0  0  0  0
   58.5150   30.5850   50.4060 C   0  0  0  0  0  0  0  0  0  0  0  0
   59.8810   30.7230   49.8770 N   0  0  0  0  0  0  0  0  0  0  0  0
   60.8000   29.7640   50.5070 C   0  0  0  0  0  0  0  0  0  0  0  0
   62.2040   30.3570   50.5880 C   0  0  0  0  0  0  0  0  0  0  0  0
   62.2070   31.6330   49.9820 O   0  0  0  0  0  0  0  0  0  0  0  0
   63.5030   31.9270   49.5040 C   0  0  0  0  0  0  0  0  0  0  0  0
   63.4050   32.5820   48.1230 C   0  0  0  0  0  0  0  0  0  0  0  0
   62.4980   31.8140   47.1410 C   0  0  0  0  0  0  0  0  0  0  0  0
   61.2070   31.3980   47.7290 N   0  0  0  0  0  0  0  0  0  0  0  0
   60.1360   31.3370   46.7400 C   0  0  0  0  0  0  0  0  0  0  0  0
   59.4150   32.4990   46.3470 C   0  0  0  0  0  0  0  0  0  0  0  0
   58.3550   32.3860   45.4170 C   0  0  0  0  0  0  0  0  0  0  0  0
   58.0990   31.1950   44.7690 N   0  0  0  0  0  0  0  0  0  0  0  0
   57.1810   31.1750   43.6040 C   0  0  0  0  0  0  0  0  0  0  0  0
   57.7710   31.9390   42.4160 C   0  0  0  0  0  0  0  0  0  0  0  0
   58.7300   30.0350   45.1830 C   0  0  0  0  0  0  0  0  0  0  0  0
   58.3600   28.7630   44.6660 C   0  0  0  0  0  0  0  0  0  0  0  0
   59.0100   27.6000   45.0610 C   0  0  0  0  0  0  0  0  0  0  0  0
   60.0380   27.6580   45.9860 C   0  0  0  0  0  0  0  0  0  0  0  0
   60.4120   28.8800   46.5360 C   0  0  0  0  0  0  0  0  0  0  0  0
   59.7670   30.0870   46.1620 C   0  0  0  0  0  0  0  0  0  0  0  0
   57.5020   33.6380   45.2200 C   0  0  0  0  0  0  0  0  0  0  0  0
   58.3820   34.8470   44.8820 C   0  0  0  0  0  0  0  0  0  0  0  0
   59.6530   34.9370   45.7570 C   0  0  0  0  0  0  0  0  0  0  0  0
   59.6870   33.9020   46.8920 C   0  0  0  0  0  0  0  0  0  0  0  0
   57.9146   32.0381   51.8839 H   0  0  0  0  0  0  0  0  0  0  0  0
   58.5959   32.7411   50.3778 H   0  0  0  0  0  0  0  0  0  0  0  0
   56.9358   32.0551   50.3778 H   0  0  0  0  0  0  0  0  0  0  0  0
   58.5348   29.9392   51.2963 H   0  0  0  0  0  0  0  0  0  0  0  0
   57.8755   30.1398   49.6296 H   0  0  0  0  0  0  0  0  0  0  0  0
   60.2180   31.6850   50.1150 H   0  0  0  0  0  0  0  0  0  0  0  0
   60.4441   29.5321   51.5217 H   0  0  0  0  0  0  0  0  0  0  0  0
   60.8318   28.8459   49.9020 H   0  0  0  0  0  0  0  0  0  0  0  0
   62.5034   30.4502   51.6424 H   0  0  0  0  0  0  0  0  0  0  0  0
   62.9131   29.6986   50.0647 H   0  0  0  0  0  0  0  0  0  0  0  0
   64.0028   32.6156   50.2011 H   0  0  0  0  0  0  0  0  0  0  0  0
   64.0836   30.9960   49.4263 H   0  0  0  0  0  0  0  0  0  0  0  0
   63.0020   33.5979   48.2473 H   0  0  0  0  0  0  0  0  0  0  0  0
   64.4177   32.5846   47.6936 H   0  0  0  0  0  0  0  0  0  0  0  0
   62.2934   32.4629   46.2767 H   0  0  0  0  0  0  0  0  0  0  0  0
   63.0339   30.8961   46.8577 H   0  0  0  0  0  0  0  0  0  0  0  0
   60.9400   32.0750   48.4770 H   0  0  0  0  0  0  0  0  0  0  0  0
   61.3180   30.5260   48.2770 H   0  0  0  0  0  0  0  0  0  0  0  0
   57.0035   30.1311   43.3059 H   0  0  0  0  0  0  0  0  0  0  0  0
   56.2393   31.6625   43.8964 H   0  0  0  0  0  0  0  0  0  0  0  0
   58.4043   32.7590   42.7854 H   0  0  0  0  0  0  0  0  0  0  0  0
   58.3772   31.2545   41.8044 H   0  0  0  0  0  0  0  0  0  0  0  0
   56.9555   32.3524   41.8044 H   0  0  0  0  0  0  0  0  0  0  0  0
   57.5397   28.6981   43.9360 H   0  0  0  0  0  0  0  0  0  0  0  0
   58.7068   26.6311   44.6376 H   0  0  0  0  0  0  0  0  0  0  0  0
   60.5596   26.7373   46.2865 H   0  0  0  0  0  0  0  0  0  0  0  0
   61.2249   28.9110   47.2764 H   0  0  0  0  0  0  0  0  0  0  0  0
   56.7933   33.4660   44.3965 H   0  0  0  0  0  0  0  0  0  0  0  0
   56.9594   33.8462   46.1539 H   0  0  0  0  0  0  0  0  0  0  0  0
   58.6875   34.7736   43.8278 H   0  0  0  0  0  0  0  0  0  0  0  0
   57.7858   35.7506   45.0767 H   0  0  0  0  0  0  0  0  0  0  0  0
   60.5311   34.7781   45.1138 H   0  0  0  0  0  0  0  0  0  0  0  0
   59.6552   35.9324   46.2251 H   0  0  0  0  0  0  0  0  0  0  0  0
   60.6786   33.9194   47.3679 H   0  0  0  0  0  0  0  0  0  0  0  0
   58.9086   34.1548   47.6270 H   0  0  0  0  0  0  0  0  0  0  0  0
  1  2  1  0
  2  3  1  0
  3  4  1  0
  4  5  1  0
  5  6  1  0
  6  7  1  0
  7  8  1  0
  8  9  1  0
  9 10  1  0
 10 11  1  0
 11 12  2  0
 12 13  1  0
 13 14  2  0
 14 15  1  0
 15 16  1  0
 14 17  1  0
 17 18  2  0
 18 19  1  0
 19 20  2  0
 20 21  1  0
 21 22  2  0
 13 23  1  0
 23 24  1  0
 24 25  1  0
 25 26  1  0
 22 11  1  0
 26 12  1  0
 22 17  1  0
  1 27  1  0
  1 28  1  0
  1 29  1  0
  2 30  1  0
  2 31  1  0
  3 32  1  0
  4 33  1  0
  4 34  1  0
  5 35  1  0
  5 36  1  0
  7 37  1  0
  7 38  1  0
  8 39  1  0
  8 40  1  0
  9 41  1  0
  9 42  1  0
 10 43  1  0
 10 44  1  0
 15 45  1  0
 15 46  1  0
 16 47  1  0
 16 48  1  0
 16 49  1  0
 18 50  1  0
 19 51  1  0
 20 52  1  0
 21 53  1  0
 23 54  1  0
 23 55  1  0
 24 56  1  0
 24 57  1  0
 25 58  1  0
 25 59  1  0
 26 60  1  0
 26 61  1  0
M  CHG  2  10   1  14   1
M  END
>  <UniqueID>  (29) 
29

>  <SMILES>  (29) 
CCNCCOCCC[NH2+]c1c2c([n+](CC)c3ccccc13)CCCC2

>  <Energy>  (29) 
83.96410698919422

>  <Genealogy>  (29) 
CCNCCOCCC[NH2+]c1c2c([n+](CC)c3ccccc13)CCCC2 (protonated)
CCNCCOCCC[NH2+]c1c2c([n+](CC)c3ccccc13)CCCC2 (3D coordinates assigned)
CCNCCOCCC[NH2+]c1c2c([n+](CC)c3ccccc13)CCCC2 (nonaromatic ring conformer: 83.96410698919422 kcal/mol)

>  <smiles>  (29) 
CCNCCOCCCNc1c2c([n+](CC)c3ccccc13)CCCC2

>  <score_type>  (29) 
oracle

>  <origin>  (29) 
adg

>  <m_score__min__energy>  (29) 
-3.6299999999999999

>  <m_primary>  (29) 
energy

$$$$
