0:0
     RDKit          3D

 64 67  0  0  0  0  0  0  0  0999 V2000
   57.0960   21.9190   43.6350 C   0  0  0  0  0  0  0  0  0  0  0  0
   57.5620   21.3020   44.9440 C   0  0  0  0  0  0  0  0  0  0  0  0
   57.2990   22.2070   46.0130 O   0  0  0  0  0  0  0  0  0  0  0  0
   57.4530   23.5990   45.9330 C   0  0  0  0  0  0  0  0  0  0  0  0
   58.7110   24.2220   45.9630 C   0  0  0  0  0  0  0  0  0  0  0  0
   58.8010   25.5760   45.9280 N   0  0  0  0  0  0  0  0  0  0  0  0
   57.6890   26.3580   45.8680 C   0  0  0  0  0  0  0  0  0  0  0  0
   57.8120   27.8360   45.8380 C   0  0  0  0  0  0  0  0  0  0  0  0
   58.6000   28.5080   46.7890 C   0  0  0  0  0  0  0  0  0  0  0  0
   58.7100   29.9010   46.7640 C   0  0  0  0  0  0  0  0  0  0  0  0
   58.0280   30.6550   45.7980 C   0  0  0  0  0  0  0  0  0  0  0  0
   58.1570   32.0900   45.8060 N   0  0  0  0  0  0  0  0  0  0  0  0
   57.1310   33.0210   45.3360 C   0  0  0  0  0  0  0  0  0  0  0  0
   57.7570   34.3810   44.9860 C   0  0  0  0  0  0  0  0  0  0  0  0
   59.2990   34.3510   44.9050 C   0  0  0  0  0  0  0  0  0  0  0  0
   59.9980   34.5820   46.1880 N   0  0  0  0  0  0  0  0  0  0  0  0
   59.1410   34.7350   47.3820 C   0  0  0  0  0  0  0  0  0  0  0  0
   59.4540   33.6890   48.4580 C   0  0  0  0  0  0  0  0  0  0  0  0
   59.8150   32.4710   47.8490 O   0  0  0  0  0  0  0  0  0  0  0  0
   61.1010   32.5890   47.2740 C   0  0  0  0  0  0  0  0  0  0  0  0
   61.2620   33.8420   46.3800 C   0  0  0  0  0  0  0  0  0  0  0  0
   57.2490   29.9850   44.8390 C   0  0  0  0  0  0  0  0  0  0  0  0
   57.1420   28.5910   44.8590 C   0  0  0  0  0  0  0  0  0  0  0  0
   56.4640   25.7690   45.8250 N   0  0  0  0  0  0  0  0  0  0  0  0
   56.3180   24.4180   45.8400 C   0  0  0  0  0  0  0  0  0  0  0  0
   55.0000   23.8480   45.7680 N   0  0  0  0  0  0  0  0  0  0  0  0
   54.6200   22.7970   46.7180 C   0  0  0  0  0  0  0  0  0  0  0  0
   53.0920   22.7060   46.8060 C   0  0  0  0  0  0  0  0  0  0  0  0
   52.5210   22.5730   45.5180 O   0  0  0  0  0  0  0  0  0  0  0  0
   52.7720   23.7420   44.7600 C   0  0  0  0  0  0  0  0  0  0  0  0
   54.2720   23.9060   44.5000 C   0  0  0  0  0  0  0  0  0  0  0  0
   56.4454   22.7804   43.8467 H   0  0  0  0  0  0  0  0  0  0  0  0
   57.9694   22.2528   43.0556 H   0  0  0  0  0  0  0  0  0  0  0  0
   56.5360   21.1702   43.0556 H   0  0  0  0  0  0  0  0  0  0  0  0
   57.0214   20.3601   45.1189 H   0  0  0  0  0  0  0  0  0  0  0  0
   58.6418   21.0991   44.8911 H   0  0  0  0  0  0  0  0  0  0  0  0
   59.6249   23.6120   46.0149 H   0  0  0  0  0  0  0  0  0  0  0  0
   59.1344   27.9325   47.5592 H   0  0  0  0  0  0  0  0  0  0  0  0
   59.3378   30.4111   47.5095 H   0  0  0  0  0  0  0  0  0  0  0  0
   59.0200   32.5060   46.2260 H   0  0  0  0  0  0  0  0  0  0  0  0
   56.6469   32.6042   44.4405 H   0  0  0  0  0  0  0  0  0  0  0  0
   56.3894   33.1661   46.1354 H   0  0  0  0  0  0  0  0  0  0  0  0
   57.3640   34.7037   44.0106 H   0  0  0  0  0  0  0  0  0  0  0  0
   57.4906   35.0760   45.7959 H   0  0  0  0  0  0  0  0  0  0  0  0
   59.6014   33.3641   44.5247 H   0  0  0  0  0  0  0  0  0  0  0  0
   59.5879   35.1816   44.2442 H   0  0  0  0  0  0  0  0  0  0  0  0
   59.2999   35.7376   47.8059 H   0  0  0  0  0  0  0  0  0  0  0  0
   58.0963   34.5938   47.0679 H   0  0  0  0  0  0  0  0  0  0  0  0
   60.2861   34.0456   49.0828 H   0  0  0  0  0  0  0  0  0  0  0  0
   58.5621   33.5324   49.0825 H   0  0  0  0  0  0  0  0  0  0  0  0
   61.8421   32.6419   48.0852 H   0  0  0  0  0  0  0  0  0  0  0  0
   61.2509   31.7096   46.6305 H   0  0  0  0  0  0  0  0  0  0  0  0
   61.9943   34.5154   46.8493 H   0  0  0  0  0  0  0  0  0  0  0  0
   61.5950   33.4982   45.3896 H   0  0  0  0  0  0  0  0  0  0  0  0
   56.7193   30.5619   44.0666 H   0  0  0  0  0  0  0  0  0  0  0  0
   56.5283   28.0804   44.1022 H   0  0  0  0  0  0  0  0  0  0  0  0
   55.0245   21.8326   46.3770 H   0  0  0  0  0  0  0  0  0  0  0  0
   55.0277   23.0391   47.7105 H   0  0  0  0  0  0  0  0  0  0  0  0
   52.8173   21.8315   47.4142 H   0  0  0  0  0  0  0  0  0  0  0  0
   52.7100   23.6287   47.2672 H   0  0  0  0  0  0  0  0  0  0  0  0
   52.2445   23.6686   43.7975 H   0  0  0  0  0  0  0  0  0  0  0  0
   52.4134   24.6145   45.3258 H   0  0  0  0  0  0  0  0  0  0  0  0
   54.6198   23.0968   43.8410 H   0  0  0  0  0  0  0  0  0  0  0  0
   54.4548   24.8779   44.0183 H   0  0  0  0  0  0  0  0  0  0  0  0
  1  2  1  0
  2  3  1  0
  3  4  1  0
  4  5  2  0
  5  6  1  0
  6  7  2  0
  7  8  1  0
  8  9  2  0
  9 10  1  0
 10 11  2  0
 11 12  1  0
 12 13  1  0
 13 14  1  0
 14 15  1  0
 15 16  1  0
 16 17  1  0
 17 18  1  0
 18 19  1  0
 19 20  1  0
 20 21  1  0
 11 22  1  0
 22 23  2  0
  7 24  1  0
 24 25  2  0
 25 26  1  0
 26 27  1  0
 27 28  1  0
 28 29  1  0
 29 30  1  0
 30 31  1  0
 25  4  1  0
 31 26  1  0
 23  8  1  0
 21 16  1  0
  1 32  1  0
  1 33  1  0
  1 34  1  0
  2 35  1  0
  2 36  1  0
  5 37  1  0
  9 38  1  0
 10 39  1  0
 12 40  1  0
 13 41  1  0
 13 42  1  0
 14 43  1  0
 14 44  1  0
 15 45  1  0
 15 46  1  0
 17 47  1  0
 17 48  1  0
 18 49  1  0
 18 50  1  0
 20 51  1  0
 20 52  1  0
 21 53  1  0
 21 54  1  0
 22 55  1  0
 23 56  1  0
 27 57  1  0
 27 58  1  0
 28 59  1  0
 28 60  1  0
 30 61  1  0
 30 62  1  0
 31 63  1  0
 31 64  1  0
M  END
>  <UniqueID>  (1) 
1

>  <SMILES>  (1) 
CCOc1cnc(-c2ccc(NCCCN3CCOCC3)cc2)nc1N1CCOCC1

>  <Energy>  (1) 
84.1901127857771

>  <Genealogy>  (1) 
CCOc1cnc(-c2ccc(NCCCN3CCOCC3)cc2)nc1N1CCOCC1 (3D coordinates assigned)
CCOc1cnc(-c2ccc(NCCCN3CCOCC3)cc2)nc1N1CCOCC1 (nonaromatic ring conformer: 84.1901127857771 kcal/mol)

>  <smiles>  (1) 
CCOc1cnc(-c2ccc(NCCCN3CCOCC3)cc2)nc1N1CCOCC1

>  <score_type>  (1) 
oracle

>  <origin>  (1) 
adg

>  <m_score__min__energy>  (1) 
-7.8600000000000003

>  <m_primary>  (1) 
energy

$$$$
1:0
     RDKit          3D

 46 47  0  0  0  0  0  0  0  0999 V2000
   58.4417   27.5526   47.3176 H   0  0  0  0  0  0  0  0  0  0  0  0
   58.7720   28.5280   46.9310 C   0  0  0  0  0  0  0  0  0  0  0  0
   57.9410   29.2540   46.0740 C   0  0  0  0  0  0  0  0  0  0  0  0
   56.9632   28.8439   45.7811 H   0  0  0  0  0  0  0  0  0  0  0  0
   58.3500   30.5060   45.5850 C   0  0  0  0  0  0  0  0  0  0  0  0
   57.4780   31.2870   44.6800 C   0  0  0  0  0  0  0  0  0  0  0  0
   56.2770   30.9360   44.5160 O   0  0  0  0  0  0  0  0  0  0  0  0
   57.9780   32.5280   43.9920 C   0  0  0  0  0  0  0  0  0  0  0  0
   59.0773   32.5400   44.0296 H   0  0  0  0  0  0  0  0  0  0  0  0
   57.6235   32.5137   42.9508 H   0  0  0  0  0  0  0  0  0  0  0  0
   57.3380   34.0410   44.7980 S   0  0  0  0  0  0  0  0  0  0  0  0
   58.3180   33.8540   46.2880 C   0  0  0  0  0  0  0  0  0  0  0  0
   59.5720   34.3390   46.4160 N   0  0  0  0  0  0  0  0  0  0  0  0
   60.0990   34.1240   47.6190 N   0  0  0  0  0  0  0  0  0  0  0  0
   59.2620   33.4710   48.4530 C   0  0  0  0  0  0  0  0  0  0  0  0
   59.5950   33.1710   49.6730 N   0  0  0  0  0  0  0  0  0  0  0  0
   58.8580   32.2700   50.5590 C   0  0  0  0  0  0  0  0  0  0  0  0
   58.9708   32.6133   51.5980 H   0  0  0  0  0  0  0  0  0  0  0  0
   57.7974   32.2771   50.2675 H   0  0  0  0  0  0  0  0  0  0  0  0
   59.3900   30.8420   50.4420 C   0  0  0  0  0  0  0  0  0  0  0  0
   59.4426   30.3896   51.4433 H   0  0  0  0  0  0  0  0  0  0  0  0
   58.7134   30.2556   49.8030 H   0  0  0  0  0  0  0  0  0  0  0  0
   60.6800   30.8530   49.8650 O   0  0  0  0  0  0  0  0  0  0  0  0
   61.6510   30.8010   50.8860 C   0  0  0  0  0  0  0  0  0  0  0  0
   61.1536   30.8276   51.8668 H   0  0  0  0  0  0  0  0  0  0  0  0
   62.2304   29.8705   50.7939 H   0  0  0  0  0  0  0  0  0  0  0  0
   62.3265   31.6643   50.7939 H   0  0  0  0  0  0  0  0  0  0  0  0
   57.7880   33.1100   47.7020 S   0  0  0  0  0  0  0  0  0  0  0  0
   59.6000   31.0170   45.9670 C   0  0  0  0  0  0  0  0  0  0  0  0
   59.9206   32.0036   45.6012 H   0  0  0  0  0  0  0  0  0  0  0  0
   60.4460   30.2790   46.8130 C   0  0  0  0  0  0  0  0  0  0  0  0
   61.7840   30.8370   47.2350 C   0  0  0  0  0  0  0  0  0  0  0  0
   62.5079   30.6789   46.4220 H   0  0  0  0  0  0  0  0  0  0  0  0
   62.0977   30.3156   48.1514 H   0  0  0  0  0  0  0  0  0  0  0  0
   61.7080   32.2780   47.5320 N   0  0  0  0  0  0  0  0  0  0  0  0
   61.2030   32.3940   48.4410 H   0  0  0  0  0  0  0  0  0  0  0  0
   61.1590   32.7670   46.7870 H   0  0  0  0  0  0  0  0  0  0  0  0
   63.0440   32.8840   47.6480 C   0  0  0  0  0  0  0  0  0  0  0  0
   63.8029   32.0878   47.6372 H   0  0  0  0  0  0  0  0  0  0  0  0
   63.0934   33.4487   48.5907 H   0  0  0  0  0  0  0  0  0  0  0  0
   63.3090   33.8430   46.4900 C   0  0  0  0  0  0  0  0  0  0  0  0
   63.5822   34.8315   46.8878 H   0  0  0  0  0  0  0  0  0  0  0  0
   64.1336   33.4550   45.8740 H   0  0  0  0  0  0  0  0  0  0  0  0
   62.4022   33.9334   45.8740 H   0  0  0  0  0  0  0  0  0  0  0  0
   60.0200   29.0350   47.2990 C   0  0  0  0  0  0  0  0  0  0  0  0
   60.6704   28.4569   47.9719 H   0  0  0  0  0  0  0  0  0  0  0  0
  1  2  1  0
  2  3  2  0
  3  4  1  0
  3  5  1  0
  5  6  1  0
  6  7  2  0
  6  8  1  0
  8  9  1  0
  8 10  1  0
  8 11  1  0
 11 12  1  0
 12 13  2  0
 13 14  1  0
 14 15  1  0
 15 16  2  0
 16 17  1  0
 17 18  1  0
 17 19  1  0
 17 20  1  0
 20 21  1  0
 20 22  1  0
 20 23  1  0
 23 24  1  0
 24 25  1  0
 24 26  1  0
 24 27  1  0
 15 28  1  0
  5 29  2  0
 29 30  1  0
 29 31  1  0
 31 32  1  0
 32 33  1  0
 32 34  1  0
 32 35  1  0
 35 36  1  0
 35 37  1  0
 35 38  1  0
 38 39  1  0
 38 40  1  0
 38 41  1  0
 41 42  1  0
 41 43  1  0
 41 44  1  0
 31 45  2  0
 45 46  1  0
 45  2  1  0
 28 12  1  0
M  CHG  2  14  -1  35   1
M  END
>  <UniqueID>  (2) 
2

>  <SMILES>  (2) 
CC[NH2+]Cc1cccc(C(=O)CSc2n[n-]/c(=N/CCOC)s2)c1

>  <Energy>  (2) 
72.17399442366876

>  <Genealogy>  (2) 
CC[NH2+]Cc1cccc(C(=O)CSc2n[n-]c(=NCCOC)s2)c1 (protonated)
CC[NH2+]Cc1cccc(C(=O)CSc2n[n-]/c(=N/CCOC)s2)c1 (cis-trans isomerization)
CC[NH2+]Cc1cccc(C(=O)CSc2n[n-]/c(=N/CCOC)s2)c1 (3D coordinates assigned)
CC[NH2+]Cc1cccc(C(=O)CSc2n[n-]/c(=N/CCOC)s2)c1 (optimized conformer: 72.17399442366876 kcal/mol)

>  <smiles>  (2) 
CCNCc1cccc(C(=O)CSc2n[nH]c(=NCCOC)s2)c1

>  <score_type>  (2) 
oracle

>  <origin>  (2) 
adg

>  <m_score__min__energy>  (2) 
-5.8099999999999996

>  <m_primary>  (2) 
energy

$$$$
2:0
     RDKit          3D

 51 53  0  0  0  0  0  0  0  0999 V2000
   55.7840   31.0790   52.3590 C   0  0  0  0  0  0  0  0  0  0  0  0
   56.7950   30.4320   51.5940 O   0  0  0  0  0  0  0  0  0  0  0  0
   58.0200   31.0130   51.2340 C   0  0  0  0  0  0  0  0  0  0  0  0
   59.0000   31.1290   52.2090 C   0  0  0  0  0  0  0  0  0  0  0  0
   60.2210   31.7260   51.9180 C   0  0  0  0  0  0  0  0  0  0  0  0
   60.5010   32.2410   50.6280 C   0  0  0  0  0  0  0  0  0  0  0  0
   59.5400   32.0490   49.5970 C   0  0  0  0  0  0  0  0  0  0  0  0
   58.2900   31.4670   49.9340 C   0  0  0  0  0  0  0  0  0  0  0  0
   59.8510   32.4390   48.2620 C   0  0  0  0  0  0  0  0  0  0  0  0
   58.8850   32.2190   47.1920 N   0  0  0  0  0  0  0  0  0  0  0  0
   58.2360   33.4730   46.7640 C   0  0  0  0  0  0  0  0  0  0  0  0
   57.2560   33.2590   45.6020 C   0  0  0  0  0  0  0  0  0  0  0  0
   57.1470   31.8220   45.3090 N   0  0  0  0  0  0  0  0  0  0  0  0
   57.7920   31.3990   44.0480 C   0  0  0  0  0  0  0  0  0  0  0  0
   58.1450   32.6070   43.1740 C   0  0  0  0  0  0  0  0  0  0  0  0
   56.9770   30.3570   43.2670 C   0  0  0  0  0  0  0  0  0  0  0  0
   61.1390   32.9900   47.9950 C   0  0  0  0  0  0  0  0  0  0  0  0
   61.5410   33.3870   46.6930 C   0  0  0  0  0  0  0  0  0  0  0  0
   62.8300   33.8470   46.4410 C   0  0  0  0  0  0  0  0  0  0  0  0
   63.7580   33.9160   47.4680 C   0  0  0  0  0  0  0  0  0  0  0  0
   63.3880   33.5720   48.7630 C   0  0  0  0  0  0  0  0  0  0  0  0
   62.0660   33.1550   49.0660 C   0  0  0  0  0  0  0  0  0  0  0  0
   61.6830   32.9030   50.3670 N   0  0  0  0  0  0  0  0  0  0  0  0
   62.5220   33.3850   51.4900 C   0  0  0  0  0  0  0  0  0  0  0  0
   55.9930   30.9452   53.4306 H   0  0  0  0  0  0  0  0  0  0  0  0
   55.7729   32.1524   52.1188 H   0  0  0  0  0  0  0  0  0  0  0  0
   54.8047   30.6394   52.1188 H   0  0  0  0  0  0  0  0  0  0  0  0
   58.8090   30.7449   53.2219 H   0  0  0  0  0  0  0  0  0  0  0  0
   60.9856   31.8002   52.7053 H   0  0  0  0  0  0  0  0  0  0  0  0
   57.5157   31.3697   49.1588 H   0  0  0  0  0  0  0  0  0  0  0  0
   59.2840   31.7190   46.3720 H   0  0  0  0  0  0  0  0  0  0  0  0
   58.1560   31.5450   47.5080 H   0  0  0  0  0  0  0  0  0  0  0  0
   57.6849   33.8945   47.6176 H   0  0  0  0  0  0  0  0  0  0  0  0
   59.0245   34.1562   46.4156 H   0  0  0  0  0  0  0  0  0  0  0  0
   56.2670   33.6524   45.8797 H   0  0  0  0  0  0  0  0  0  0  0  0
   57.6245   33.7874   44.7104 H   0  0  0  0  0  0  0  0  0  0  0  0
   56.1300   31.5810   45.2540 H   0  0  0  0  0  0  0  0  0  0  0  0
   58.7272   30.8958   44.3347 H   0  0  0  0  0  0  0  0  0  0  0  0
   58.3954   33.4639   43.8167 H   0  0  0  0  0  0  0  0  0  0  0  0
   59.0086   32.3602   42.5389 H   0  0  0  0  0  0  0  0  0  0  0  0
   57.2844   32.8641   42.5389 H   0  0  0  0  0  0  0  0  0  0  0  0
   56.4576   29.6930   43.9737 H   0  0  0  0  0  0  0  0  0  0  0  0
   56.2374   30.8693   42.6341 H   0  0  0  0  0  0  0  0  0  0  0  0
   57.6523   29.7626   42.6341 H   0  0  0  0  0  0  0  0  0  0  0  0
   60.8184   33.3299   45.8656 H   0  0  0  0  0  0  0  0  0  0  0  0
   63.1130   34.1566   45.4241 H   0  0  0  0  0  0  0  0  0  0  0  0
   64.7872   34.2429   47.2584 H   0  0  0  0  0  0  0  0  0  0  0  0
   64.1349   33.6241   49.5689 H   0  0  0  0  0  0  0  0  0  0  0  0
   62.0483   33.1128   52.4447 H   0  0  0  0  0  0  0  0  0  0  0  0
   63.5176   32.9211   51.4293 H   0  0  0  0  0  0  0  0  0  0  0  0
   62.6228   34.4787   51.4293 H   0  0  0  0  0  0  0  0  0  0  0  0
  1  2  1  0
  2  3  1  0
  3  4  2  0
  4  5  1  0
  5  6  2  0
  6  7  1  0
  7  8  2  0
  7  9  1  0
  9 10  1  0
 10 11  1  0
 11 12  1  0
 12 13  1  0
 13 14  1  0
 14 15  1  0
 14 16  1  0
  9 17  2  0
 17 18  1  0
 18 19  2  0
 19 20  1  0
 20 21  2  0
 21 22  1  0
 22 23  2  0
 23 24  1  0
  8  3  1  0
 22 17  1  0
 23  6  1  0
  1 25  1  0
  1 26  1  0
  1 27  1  0
  4 28  1  0
  5 29  1  0
  8 30  1  0
 10 31  1  0
 10 32  1  0
 11 33  1  0
 11 34  1  0
 12 35  1  0
 12 36  1  0
 13 37  1  0
 14 38  1  0
 15 39  1  0
 15 40  1  0
 15 41  1  0
 16 42  1  0
 16 43  1  0
 16 44  1  0
 18 45  1  0
 19 46  1  0
 20 47  1  0
 21 48  1  0
 24 49  1  0
 24 50  1  0
 24 51  1  0
M  CHG  2  10   1  23   1
M  END
>  <UniqueID>  (3) 
3

>  <SMILES>  (3) 
COc1ccc2c(c1)c([NH2+]CCNC(C)C)c1ccccc1[n+]2C

>  <Energy>  (3) 
78.78535365207985

>  <Genealogy>  (3) 
COc1ccc2c(c1)c([NH2+]CCNC(C)C)c1ccccc1[n+]2C (protonated)
COc1ccc2c(c1)c([NH2+]CCNC(C)C)c1ccccc1[n+]2C (3D coordinates assigned)
COc1ccc2c(c1)c([NH2+]CCNC(C)C)c1ccccc1[n+]2C (optimized conformer: 78.78535365207985 kcal/mol)

>  <smiles>  (3) 
COc1ccc2c(c1)c(NCCNC(C)C)c1ccccc1[n+]2C

>  <score_type>  (3) 
oracle

>  <origin>  (3) 
adg

>  <m_score__min__energy>  (3) 
-4.3700000000000001

>  <m_primary>  (3) 
energy

$$$$
3:0
     RDKit          3D

 43 45  0  0  0  0  0  0  0  0999 V2000
   58.4450   28.0270   44.9130 C   0  0  0  0  0  0  0  0  0  0  0  0
   58.2030   29.5090   45.0360 C   0  0  0  0  0  0  0  0  0  0  0  0
   58.8370   30.2230   46.0770 C   0  0  0  0  0  0  0  0  0  0  0  0
   58.5980   31.5920   46.1840 C   0  0  0  0  0  0  0  0  0  0  0  0
   59.0760   32.5320   47.0830 C   0  0  0  0  0  0  0  0  0  0  0  0
   60.0320   32.3090   48.2330 C   0  0  0  0  0  0  0  0  0  0  0  0
   61.2690   33.1300   48.1610 N   0  0  0  0  0  0  0  0  0  0  0  0
   61.7350   33.3230   46.7650 C   0  0  0  0  0  0  0  0  0  0  0  0
   63.1700   33.8640   46.7370 C   0  0  0  0  0  0  0  0  0  0  0  0
   64.1290   32.9420   47.3780 N   0  0  0  0  0  0  0  0  0  0  0  0
   63.5130   32.0060   48.3370 C   0  0  0  0  0  0  0  0  0  0  0  0
   62.3390   32.6580   49.0850 C   0  0  0  0  0  0  0  0  0  0  0  0
   58.5250   33.7470   46.6830 C   0  0  0  0  0  0  0  0  0  0  0  0
   57.7260   33.5650   45.6060 N   0  0  0  0  0  0  0  0  0  0  0  0
   56.9910   34.6040   44.8920 C   0  0  0  0  0  0  0  0  0  0  0  0
   57.7800   32.2510   45.3070 C   0  0  0  0  0  0  0  0  0  0  0  0
   57.1380   31.5850   44.2640 C   0  0  0  0  0  0  0  0  0  0  0  0
   57.3460   30.1950   44.1230 C   0  0  0  0  0  0  0  0  0  0  0  0
   56.6570   29.4610   43.0030 C   0  0  0  0  0  0  0  0  0  0  0  0
   58.5175   27.5828   45.9167 H   0  0  0  0  0  0  0  0  0  0  0  0
   57.6107   27.5634   44.3662 H   0  0  0  0  0  0  0  0  0  0  0  0
   59.3835   27.8529   44.3662 H   0  0  0  0  0  0  0  0  0  0  0  0
   59.5036   29.7107   46.7864 H   0  0  0  0  0  0  0  0  0  0  0  0
   59.5091   32.5533   49.1694 H   0  0  0  0  0  0  0  0  0  0  0  0
   60.3466   31.2560   48.1847 H   0  0  0  0  0  0  0  0  0  0  0  0
   60.9860   34.0800   48.5040 H   0  0  0  0  0  0  0  0  0  0  0  0
   61.7036   32.3579   46.2381 H   0  0  0  0  0  0  0  0  0  0  0  0
   61.0749   34.0517   46.2717 H   0  0  0  0  0  0  0  0  0  0  0  0
   63.4707   34.0153   45.6898 H   0  0  0  0  0  0  0  0  0  0  0  0
   63.1844   34.8092   47.2996 H   0  0  0  0  0  0  0  0  0  0  0  0
   64.5970   32.3750   46.6320 H   0  0  0  0  0  0  0  0  0  0  0  0
   63.1440   31.1256   47.7905 H   0  0  0  0  0  0  0  0  0  0  0  0
   64.2752   31.7170   49.0756 H   0  0  0  0  0  0  0  0  0  0  0  0
   61.9077   31.9201   49.7774 H   0  0  0  0  0  0  0  0  0  0  0  0
   62.7291   33.5349   49.6225 H   0  0  0  0  0  0  0  0  0  0  0  0
   58.7122   34.7145   47.1718 H   0  0  0  0  0  0  0  0  0  0  0  0
   56.5133   35.2793   45.6171 H   0  0  0  0  0  0  0  0  0  0  0  0
   57.6861   35.1766   44.2604 H   0  0  0  0  0  0  0  0  0  0  0  0
   56.2196   34.1392   44.2604 H   0  0  0  0  0  0  0  0  0  0  0  0
   56.4844   32.1296   43.5667 H   0  0  0  0  0  0  0  0  0  0  0  0
   55.9614   28.7199   43.4236 H   0  0  0  0  0  0  0  0  0  0  0  0
   56.0983   30.1782   42.3837 H   0  0  0  0  0  0  0  0  0  0  0  0
   57.4080   28.9488   42.3837 H   0  0  0  0  0  0  0  0  0  0  0  0
  1  2  1  0
  2  3  2  0
  3  4  1  0
  4  5  1  0
  5  6  1  0
  6  7  1  0
  7  8  1  0
  8  9  1  0
  9 10  1  0
 10 11  1  0
 11 12  1  0
  5 13  2  0
 13 14  1  0
 14 15  1  0
 14 16  1  0
 16 17  1  0
 17 18  2  0
 18 19  1  0
 18  2  1  0
 16  4  2  0
 12  7  1  0
  1 20  1  0
  1 21  1  0
  1 22  1  0
  3 23  1  0
  6 24  1  0
  6 25  1  0
  7 26  1  0
  8 27  1  0
  8 28  1  0
  9 29  1  0
  9 30  1  0
 10 31  1  0
 11 32  1  0
 11 33  1  0
 12 34  1  0
 12 35  1  0
 13 36  1  0
 15 37  1  0
 15 38  1  0
 15 39  1  0
 17 40  1  0
 19 41  1  0
 19 42  1  0
 19 43  1  0
M  CHG  1   7   1
M  END
>  <UniqueID>  (4) 
4

>  <SMILES>  (4) 
Cc1cc2c(C[NH+]3CCNCC3)cn(C)c2cc1C

>  <Energy>  (4) 
88.36486474091845

>  <Genealogy>  (4) 
Cc1cc2c(C[NH+]3CCNCC3)cn(C)c2cc1C (protonated)
Cc1cc2c(C[NH+]3CCNCC3)cn(C)c2cc1C (3D coordinates assigned)
Cc1cc2c(C[NH+]3CCNCC3)cn(C)c2cc1C (nonaromatic ring conformer: 88.36486474091845 kcal/mol)

>  <smiles>  (4) 
Cc1cc2c(CN3CCNCC3)cn(C)c2cc1C

>  <score_type>  (4) 
oracle

>  <origin>  (4) 
adg

>  <m_score__min__energy>  (4) 
-5.8499999999999996

>  <m_primary>  (4) 
energy

$$$$
4:0
     RDKit          3D

 43 43  0  0  0  0  0  0  0  0999 V2000
   63.3270   33.8020   46.7020 C   0  0  0  0  0  0  0  0  0  0  0  0
   62.7750   32.4790   47.2200 C   0  0  0  0  0  0  0  0  0  0  0  0
   61.3610   32.5280   47.2810 O   0  0  0  0  0  0  0  0  0  0  0  0
   60.9000   33.8420   47.0490 C   0  0  0  0  0  0  0  0  0  0  0  0
   59.5670   34.0390   47.7680 C   0  0  0  0  0  0  0  0  0  0  0  0
   58.5240   33.4010   47.0550 O   0  0  0  0  0  0  0  0  0  0  0  0
   58.3770   33.9460   45.7560 C   0  0  0  0  0  0  0  0  0  0  0  0
   57.3410   33.1530   44.9620 C   0  0  0  0  0  0  0  0  0  0  0  0
   57.0850   31.9340   45.6250 O   0  0  0  0  0  0  0  0  0  0  0  0
   57.5810   30.9210   44.8530 N   0  0  0  0  0  0  0  0  0  0  0  0
   58.8510   30.3380   45.1970 C   0  0  0  0  0  0  0  0  0  0  0  0
   59.7960   31.0530   45.9940 N   0  0  0  0  0  0  0  0  0  0  0  0
   59.1200   29.1240   44.8320 N   0  0  0  0  0  0  0  0  0  0  0  0
   58.1780   28.3320   44.1040 C   0  0  0  0  0  0  0  0  0  0  0  0
   58.4710   26.9560   43.8560 N   0  0  0  0  0  0  0  0  0  0  0  0
   57.0540   28.8490   43.6940 N   0  0  0  0  0  0  0  0  0  0  0  0
   56.7530   30.2890   43.8000 C   0  0  0  0  0  0  0  0  0  0  0  0
   57.0690   30.9370   42.4420 C   0  0  0  0  0  0  0  0  0  0  0  0
   55.2560   30.4550   44.1200 C   0  0  0  0  0  0  0  0  0  0  0  0
   63.5955   34.4455   47.5528 H   0  0  0  0  0  0  0  0  0  0  0  0
   64.2208   33.6118   46.0897 H   0  0  0  0  0  0  0  0  0  0  0  0
   62.5630   34.3035   46.0897 H   0  0  0  0  0  0  0  0  0  0  0  0
   63.0814   31.6678   46.5432 H   0  0  0  0  0  0  0  0  0  0  0  0
   63.1711   32.2962   48.2298 H   0  0  0  0  0  0  0  0  0  0  0  0
   61.6359   34.5636   47.4334 H   0  0  0  0  0  0  0  0  0  0  0  0
   60.7654   34.0019   45.9690 H   0  0  0  0  0  0  0  0  0  0  0  0
   59.6325   33.6079   48.7779 H   0  0  0  0  0  0  0  0  0  0  0  0
   59.3505   35.1157   47.8306 H   0  0  0  0  0  0  0  0  0  0  0  0
   58.0487   34.9927   45.8368 H   0  0  0  0  0  0  0  0  0  0  0  0
   59.3441   33.8933   45.2346 H   0  0  0  0  0  0  0  0  0  0  0  0
   56.4101   33.7343   44.8875 H   0  0  0  0  0  0  0  0  0  0  0  0
   57.7241   32.9514   43.9508 H   0  0  0  0  0  0  0  0  0  0  0  0
   59.5910   32.0090   46.3570 H   0  0  0  0  0  0  0  0  0  0  0  0
   60.7100   30.6150   46.2440 H   0  0  0  0  0  0  0  0  0  0  0  0
   57.8000   26.3470   43.3370 H   0  0  0  0  0  0  0  0  0  0  0  0
   59.3670   26.5430   44.1950 H   0  0  0  0  0  0  0  0  0  0  0  0
   56.3890   28.2440   43.1590 H   0  0  0  0  0  0  0  0  0  0  0  0
   57.5459   31.9149   42.6044 H   0  0  0  0  0  0  0  0  0  0  0  0
   57.7509   30.2862   41.8750 H   0  0  0  0  0  0  0  0  0  0  0  0
   56.1363   31.0735   41.8750 H   0  0  0  0  0  0  0  0  0  0  0  0
   55.1137   30.4708   45.2106 H   0  0  0  0  0  0  0  0  0  0  0  0
   54.8914   31.3991   43.6890 H   0  0  0  0  0  0  0  0  0  0  0  0
   54.6934   29.6137   43.6890 H   0  0  0  0  0  0  0  0  0  0  0  0
  1  2  1  0
  2  3  1  0
  3  4  1  0
  4  5  1  0
  5  6  1  0
  6  7  1  0
  7  8  1  0
  8  9  1  0
  9 10  1  0
 10 11  1  0
 11 12  1  0
 11 13  2  0
 13 14  1  0
 14 15  1  0
 14 16  2  0
 16 17  1  0
 17 18  1  0
 17 19  1  0
 17 10  1  0
  1 20  1  0
  1 21  1  0
  1 22  1  0
  2 23  1  0
  2 24  1  0
  4 25  1  0
  4 26  1  0
  5 27  1  0
  5 28  1  0
  7 29  1  0
  7 30  1  0
  8 31  1  0
  8 32  1  0
 12 33  1  0
 12 34  1  0
 15 35  1  0
 15 36  1  0
 16 37  1  0
 18 38  1  0
 18 39  1  0
 18 40  1  0
 19 41  1  0
 19 42  1  0
 19 43  1  0
M  CHG  1  16   1
M  END
>  <UniqueID>  (5) 
5

>  <SMILES>  (5) 
CCOCCOCCON1C(N)=NC(N)=[NH+]C1(C)C

>  <Energy>  (5) 
34.21298227246775

>  <Genealogy>  (5) 
CCOCCOCCON1C(N)=NC(N)=[NH+]C1(C)C (protonated)
CCOCCOCCON1C(N)=NC(N)=[NH+]C1(C)C (3D coordinates assigned)
CCOCCOCCON1C(N)=NC(N)=[NH+]C1(C)C (nonaromatic ring conformer: 34.21298227246775 kcal/mol)

>  <smiles>  (5) 
CCOCCOCCON1C(N)=NC(N)=NC1(C)C

>  <score_type>  (5) 
oracle

>  <origin>  (5) 
adg

>  <m_score__min__energy>  (5) 
-3.77

>  <m_primary>  (5) 
energy

$$$$
5:0
     RDKit          3D

 53 55  0  0  0  0  0  0  0  0999 V2000
   62.9940   33.8470   46.3800 C   0  0  0  0  0  0  0  0  0  0  0  0
   63.6850   33.8420   47.7400 C   0  0  0  0  0  0  0  0  0  0  0  0
   63.7080   32.4360   48.3470 C   0  0  0  0  0  0  0  0  0  0  0  0
   62.6370   32.2990   49.3450 N   0  0  0  0  0  0  0  0  0  0  0  0
   62.5050   30.9200   49.8510 C   0  0  0  0  0  0  0  0  0  0  0  0
   61.0510   30.5490   50.2130 C   0  0  0  0  0  0  0  0  0  0  0  0
   60.1960   30.1570   48.9970 C   0  0  0  0  0  0  0  0  0  0  0  0
   60.5930   30.8950   47.7950 N   0  0  0  0  0  0  0  0  0  0  0  0
   59.7170   30.9400   46.6590 C   0  0  0  0  0  0  0  0  0  0  0  0
   59.3910   29.7380   46.0060 C   0  0  0  0  0  0  0  0  0  0  0  0
   59.8710   28.5000   46.4880 C   0  0  0  0  0  0  0  0  0  0  0  0
   59.5970   27.3160   45.8110 C   0  0  0  0  0  0  0  0  0  0  0  0
   58.8540   27.3420   44.6370 C   0  0  0  0  0  0  0  0  0  0  0  0
   58.3580   28.5500   44.1490 C   0  0  0  0  0  0  0  0  0  0  0  0
   58.5840   29.7690   44.8400 C   0  0  0  0  0  0  0  0  0  0  0  0
   58.0640   30.9670   44.3890 N   0  0  0  0  0  0  0  0  0  0  0  0
   57.0070   30.9670   43.3530 C   0  0  0  0  0  0  0  0  0  0  0  0
   58.5000   32.1620   44.9310 C   0  0  0  0  0  0  0  0  0  0  0  0
   58.2080   33.3980   44.3060 C   0  0  0  0  0  0  0  0  0  0  0  0
   58.5740   34.6040   44.8900 C   0  0  0  0  0  0  0  0  0  0  0  0
   59.2280   34.6190   46.1110 C   0  0  0  0  0  0  0  0  0  0  0  0
   59.5780   33.4190   46.7540 C   0  0  0  0  0  0  0  0  0  0  0  0
   60.2010   33.4480   48.0140 O   0  0  0  0  0  0  0  0  0  0  0  0
   59.7810   34.2470   49.1170 C   0  0  0  0  0  0  0  0  0  0  0  0
   59.2750   32.1740   46.1280 C   0  0  0  0  0  0  0  0  0  0  0  0
   61.9033   33.8549   46.5229 H   0  0  0  0  0  0  0  0  0  0  0  0
   63.2967   34.7430   45.8182 H   0  0  0  0  0  0  0  0  0  0  0  0
   63.2837   32.9467   45.8182 H   0  0  0  0  0  0  0  0  0  0  0  0
   64.7191   34.1966   47.6179 H   0  0  0  0  0  0  0  0  0  0  0  0
   63.1243   34.5034   48.4169 H   0  0  0  0  0  0  0  0  0  0  0  0
   63.5595   31.6930   47.5496 H   0  0  0  0  0  0  0  0  0  0  0  0
   64.6793   32.2709   48.8362 H   0  0  0  0  0  0  0  0  0  0  0  0
   61.7350   32.6190   48.9260 H   0  0  0  0  0  0  0  0  0  0  0  0
   62.8615   30.2261   49.0755 H   0  0  0  0  0  0  0  0  0  0  0  0
   63.1028   30.8478   50.7715 H   0  0  0  0  0  0  0  0  0  0  0  0
   61.0723   29.6997   50.9117 H   0  0  0  0  0  0  0  0  0  0  0  0
   60.5903   31.4438   50.6569 H   0  0  0  0  0  0  0  0  0  0  0  0
   60.3154   29.0797   48.8096 H   0  0  0  0  0  0  0  0  0  0  0  0
   59.1478   30.4043   49.2207 H   0  0  0  0  0  0  0  0  0  0  0  0
   61.3900   31.5700   47.8240 H   0  0  0  0  0  0  0  0  0  0  0  0
   60.4692   28.4718   47.4107 H   0  0  0  0  0  0  0  0  0  0  0  0
   59.9687   26.3587   46.2052 H   0  0  0  0  0  0  0  0  0  0  0  0
   58.6568   26.4073   44.0915 H   0  0  0  0  0  0  0  0  0  0  0  0
   57.7815   28.5586   43.2122 H   0  0  0  0  0  0  0  0  0  0  0  0
   56.7451   29.9299   43.0963 H   0  0  0  0  0  0  0  0  0  0  0  0
   56.1165   31.4855   43.7378 H   0  0  0  0  0  0  0  0  0  0  0  0
   57.3738   31.4855   42.4549 H   0  0  0  0  0  0  0  0  0  0  0  0
   57.6816   33.4036   43.3401 H   0  0  0  0  0  0  0  0  0  0  0  0
   58.3435   35.5513   44.3806 H   0  0  0  0  0  0  0  0  0  0  0  0
   59.4763   35.5811   46.5829 H   0  0  0  0  0  0  0  0  0  0  0  0
   60.0464   33.7421   50.0576 H   0  0  0  0  0  0  0  0  0  0  0  0
   60.2812   35.2257   49.0724 H   0  0  0  0  0  0  0  0  0  0  0  0
   58.6912   34.3899   49.0724 H   0  0  0  0  0  0  0  0  0  0  0  0
  1  2  1  0
  2  3  1  0
  3  4  1  0
  4  5  1  0
  5  6  1  0
  6  7  1  0
  7  8  1  0
  8  9  1  0
  9 10  2  0
 10 11  1  0
 11 12  2  0
 12 13  1  0
 13 14  2  0
 14 15  1  0
 15 16  2  0
 16 17  1  0
 16 18  1  0
 18 19  2  0
 19 20  1  0
 20 21  2  0
 21 22  1  0
 22 23  1  0
 23 24  1  0
 22 25  2  0
 25  9  1  0
 15 10  1  0
 25 18  1  0
  1 26  1  0
  1 27  1  0
  1 28  1  0
  2 29  1  0
  2 30  1  0
  3 31  1  0
  3 32  1  0
  4 33  1  0
  5 34  1  0
  5 35  1  0
  6 36  1  0
  6 37  1  0
  7 38  1  0
  7 39  1  0
  8 40  1  0
 11 41  1  0
 12 42  1  0
 13 43  1  0
 14 44  1  0
 17 45  1  0
 17 46  1  0
 17 47  1  0
 19 48  1  0
 20 49  1  0
 21 50  1  0
 24 51  1  0
 24 52  1  0
 24 53  1  0
M  CHG  1  16   1
M  END
>  <UniqueID>  (6) 
6

>  <SMILES>  (6) 
CCCNCCCNc1c2ccccc2[n+](C)c2cccc(OC)c12

>  <Energy>  (6) 
77.64226002554696

>  <Genealogy>  (6) 
CCCNCCCNc1c2ccccc2[n+](C)c2cccc(OC)c12 (3D coordinates assigned)
CCCNCCCNc1c2ccccc2[n+](C)c2cccc(OC)c12 (optimized conformer: 77.64226002554696 kcal/mol)

>  <smiles>  (6) 
CCCNCCCNc1c2ccccc2[n+](C)c2cccc(OC)c12

>  <score_type>  (6) 
oracle

>  <origin>  (6) 
adg

>  <m_score__min__energy>  (6) 
-6.1600000000000001

>  <m_primary>  (6) 
energy

$$$$
6:0
     RDKit          3D

 54 56  0  0  0  0  0  0  0  0999 V2000
   57.3960   34.5880   44.8680 C   0  0  0  0  0  0  0  0  0  0  0  0
   56.7860   33.4820   45.7220 C   0  0  0  0  0  0  0  0  0  0  0  0
   57.7090   32.3540   45.8260 N   0  0  0  0  0  0  0  0  0  0  0  0
   57.3940   31.1170   45.4650 N   0  0  0  0  0  0  0  0  0  0  0  0
   58.4430   30.3180   45.7540 C   0  0  0  0  0  0  0  0  0  0  0  0
   59.4440   31.0820   46.3290 C   0  0  0  0  0  0  0  0  0  0  0  0
   58.9510   32.3540   46.3470 C   0  0  0  0  0  0  0  0  0  0  0  0
   59.7020   33.5040   46.9320 C   0  0  0  0  0  0  0  0  0  0  0  0
   61.2020   33.1670   46.8960 C   0  0  0  0  0  0  0  0  0  0  0  0
   61.4910   31.8430   47.5180 N   0  0  2  0  0  0  0  0  0  0  0  0
   62.9550   31.6200   47.7200 C   0  0  0  0  0  0  0  0  0  0  0  0
   63.7360   32.6770   48.5470 C   0  0  0  0  0  0  0  0  0  0  0  0
   63.1910   32.9290   49.9610 C   0  0  0  0  0  0  0  0  0  0  0  0
   61.7910   32.8740   49.9900 O   0  0  0  0  0  0  0  0  0  0  0  0
   60.8130   30.6860   46.8400 C   0  0  1  0  0  0  0  0  0  0  0  0
   60.6680   29.4700   47.8090 C   0  0  0  0  0  0  0  0  0  0  0  0
   59.5340   29.6530   48.8290 C   0  0  0  0  0  0  0  0  0  0  0  0
   59.8950   30.6970   49.8190 N   0  0  0  0  0  0  0  0  0  0  0  0
   58.8830   31.7740   49.8980 C   0  0  0  0  0  0  0  0  0  0  0  0
   57.7620   31.4540   50.9070 C   0  0  0  0  0  0  0  0  0  0  0  0
   57.6920   30.0680   51.1610 O   0  0  0  0  0  0  0  0  0  0  0  0
   58.8620   29.6420   51.8360 C   0  0  0  0  0  0  0  0  0  0  0  0
   60.1590   30.1380   51.1570 C   0  0  0  0  0  0  0  0  0  0  0  0
   57.8232   35.3626   45.5218 H   0  0  0  0  0  0  0  0  0  0  0  0
   58.1889   34.1659   44.2331 H   0  0  0  0  0  0  0  0  0  0  0  0
   56.6160   35.0334   44.2331 H   0  0  0  0  0  0  0  0  0  0  0  0
   56.5772   33.8740   46.7284 H   0  0  0  0  0  0  0  0  0  0  0  0
   55.8534   33.1389   45.2502 H   0  0  0  0  0  0  0  0  0  0  0  0
   58.4941   29.2358   45.5636 H   0  0  0  0  0  0  0  0  0  0  0  0
   59.5103   34.4125   46.3422 H   0  0  0  0  0  0  0  0  0  0  0  0
   59.3775   33.6820   47.9679 H   0  0  0  0  0  0  0  0  0  0  0  0
   61.5369   33.1481   45.8484 H   0  0  0  0  0  0  0  0  0  0  0  0
   61.7376   33.9370   47.4706 H   0  0  0  0  0  0  0  0  0  0  0  0
   61.0800   31.9020   48.4830 H   0  0  0  0  0  0  0  0  0  0  0  0
   63.0733   30.6516   48.2281 H   0  0  0  0  0  0  0  0  0  0  0  0
   63.3884   31.6792   46.7107 H   0  0  0  0  0  0  0  0  0  0  0  0
   64.7779   32.3363   48.6388 H   0  0  0  0  0  0  0  0  0  0  0  0
   63.6331   33.6283   48.0044 H   0  0  0  0  0  0  0  0  0  0  0  0
   63.5928   32.1630   50.6405 H   0  0  0  0  0  0  0  0  0  0  0  0
   63.5031   33.9355   50.2765 H   0  0  0  0  0  0  0  0  0  0  0  0
   61.5490   31.9940   50.3740 H   0  0  0  0  0  0  0  0  0  0  0  0
   61.4456   30.3930   45.9892 H   0  0  0  0  0  0  0  0  0  0  0  0
   60.4626   28.5685   47.2132 H   0  0  0  0  0  0  0  0  0  0  0  0
   61.6087   29.3816   48.3722 H   0  0  0  0  0  0  0  0  0  0  0  0
   58.6169   29.9546   48.3017 H   0  0  0  0  0  0  0  0  0  0  0  0
   59.3702   28.7016   49.3562 H   0  0  0  0  0  0  0  0  0  0  0  0
   59.3811   32.7049   50.2068 H   0  0  0  0  0  0  0  0  0  0  0  0
   58.4216   31.8743   48.9045 H   0  0  0  0  0  0  0  0  0  0  0  0
   57.9648   31.9829   51.8500 H   0  0  0  0  0  0  0  0  0  0  0  0
   56.8023   31.7815   50.4807 H   0  0  0  0  0  0  0  0  0  0  0  0
   58.8343   30.0284   52.8655 H   0  0  0  0  0  0  0  0  0  0  0  0
   58.8758   28.5423   51.8133 H   0  0  0  0  0  0  0  0  0  0  0  0
   60.6146   30.9175   51.7854 H   0  0  0  0  0  0  0  0  0  0  0  0
   60.8358   29.2786   51.0419 H   0  0  0  0  0  0  0  0  0  0  0  0
  1  2  1  0
  2  3  1  0
  3  4  1  0
  4  5  2  0
  5  6  1  0
  6  7  2  0
  7  8  1  0
  8  9  1  0
  9 10  1  0
 10 11  1  0
 11 12  1  0
 12 13  1  0
 13 14  1  0
 10 15  1  0
 15 16  1  0
 16 17  1  0
 17 18  1  0
 18 19  1  0
 19 20  1  0
 20 21  1  0
 21 22  1  0
 22 23  1  0
  7  3  1  0
 23 18  1  0
 15  6  1  0
  1 24  1  0
  1 25  1  0
  1 26  1  0
  2 27  1  0
  2 28  1  0
  5 29  1  0
  8 30  1  0
  8 31  1  0
  9 32  1  0
  9 33  1  0
 10 34  1  1
 11 35  1  0
 11 36  1  0
 12 37  1  0
 12 38  1  0
 13 39  1  0
 13 40  1  0
 14 41  1  0
 15 42  1  6
 16 43  1  0
 16 44  1  0
 17 45  1  0
 17 46  1  0
 19 47  1  0
 19 48  1  0
 20 49  1  0
 20 50  1  0
 22 51  1  0
 22 52  1  0
 23 53  1  0
 23 54  1  0
M  CHG  1  10   1
M  END
>  <UniqueID>  (7) 
7

>  <SMILES>  (7) 
CCn1ncc2c1CC[N@H+](CCCO)[C@H]2CCN1CCOCC1

>  <Energy>  (7) 
105.93956720458132

>  <Genealogy>  (7) 
CCn1ncc2c1CC[NH+](CCCO)C2CCN1CCOCC1 (protonated)
CCn1ncc2c1CC[N@H+](CCCO)[C@H]2CCN1CCOCC1 (chirality)
CCn1ncc2c1CC[N@H+](CCCO)[C@H]2CCN1CCOCC1 (3D coordinates assigned)
CCn1ncc2c1CC[N@H+](CCCO)[C@H]2CCN1CCOCC1 (nonaromatic ring conformer: 105.93956720458132 kcal/mol)

>  <smiles>  (7) 
CCn1ncc2c1CCN(CCCO)C2CCN1CCOCC1

>  <score_type>  (7) 
oracle

>  <origin>  (7) 
adg

>  <m_score__min__energy>  (7) 
-4.9199999999999999

>  <m_primary>  (7) 
energy

$$$$
7:0
     RDKit          3D

 63 65  0  0  0  0  0  0  0  0999 V2000
   63.3500   34.1470   46.6530 C   0  0  0  0  0  0  0  0  0  0  0  0
   62.0000   33.4360   46.6810 C   0  0  0  0  0  0  0  0  0  0  0  0
   62.1080   32.1970   47.3570 O   0  0  0  0  0  0  0  0  0  0  0  0
   63.4440   31.9550   47.7470 C   0  0  0  0  0  0  0  0  0  0  0  0
   63.5260   31.9050   49.2700 C   0  0  0  0  0  0  0  0  0  0  0  0
   62.5100   31.0680   49.7900 O   0  0  0  0  0  0  0  0  0  0  0  0
   61.8630   31.6560   50.9020 C   0  0  0  0  0  0  0  0  0  0  0  0
   61.9210   33.1820   50.8290 C   0  0  0  0  0  0  0  0  0  0  0  0
   60.9770   33.6420   49.8840 O   0  0  0  0  0  0  0  0  0  0  0  0
   59.6740   33.4970   50.4070 C   0  0  0  0  0  0  0  0  0  0  0  0
   58.9520   32.3740   49.6660 C   0  0  0  0  0  0  0  0  0  0  0  0
   59.8190   31.7800   48.6490 N   0  0  0  0  0  0  0  0  0  0  0  0
   59.2840   31.2460   47.4240 C   0  0  0  0  0  0  0  0  0  0  0  0
   58.8750   32.1080   46.3990 C   0  0  0  0  0  0  0  0  0  0  0  0
   58.4540   31.5800   45.1630 C   0  0  0  0  0  0  0  0  0  0  0  0
   58.3110   30.2160   44.9880 N   0  0  0  0  0  0  0  0  0  0  0  0
   57.6650   29.6960   43.7580 C   0  0  0  0  0  0  0  0  0  0  0  0
   56.1500   29.8780   43.8140 C   0  0  0  0  0  0  0  0  0  0  0  0
   58.7380   29.3460   45.9810 C   0  0  0  0  0  0  0  0  0  0  0  0
   58.7550   27.9370   45.7940 C   0  0  0  0  0  0  0  0  0  0  0  0
   59.1540   27.0760   46.8150 C   0  0  0  0  0  0  0  0  0  0  0  0
   59.5590   27.5850   48.0410 C   0  0  0  0  0  0  0  0  0  0  0  0
   59.5910   28.9610   48.2480 C   0  0  0  0  0  0  0  0  0  0  0  0
   59.2020   29.8560   47.2290 C   0  0  0  0  0  0  0  0  0  0  0  0
   58.2460   32.6040   44.0530 C   0  0  0  0  0  0  0  0  0  0  0  0
   57.3150   33.7350   44.5170 C   0  0  0  0  0  0  0  0  0  0  0  0
   57.5940   34.2190   45.9600 C   0  0  0  0  0  0  0  0  0  0  0  0
   58.8630   33.6140   46.5790 C   0  0  0  0  0  0  0  0  0  0  0  0
   63.6912   34.3267   47.6832 H   0  0  0  0  0  0  0  0  0  0  0  0
   64.0845   33.5187   46.1278 H   0  0  0  0  0  0  0  0  0  0  0  0
   63.2474   35.1081   46.1278 H   0  0  0  0  0  0  0  0  0  0  0  0
   61.2673   34.0701   47.2016 H   0  0  0  0  0  0  0  0  0  0  0  0
   61.6731   33.2507   45.6472 H   0  0  0  0  0  0  0  0  0  0  0  0
   63.7799   30.9943   47.3296 H   0  0  0  0  0  0  0  0  0  0  0  0
   64.0888   32.7627   47.3705 H   0  0  0  0  0  0  0  0  0  0  0  0
   64.5087   31.5104   49.5676 H   0  0  0  0  0  0  0  0  0  0  0  0
   63.3911   32.9212   49.6689 H   0  0  0  0  0  0  0  0  0  0  0  0
   60.8104   31.3367   50.9154 H   0  0  0  0  0  0  0  0  0  0  0  0
   62.3775   31.3302   51.8180 H   0  0  0  0  0  0  0  0  0  0  0  0
   61.6880   33.6059   51.8169 H   0  0  0  0  0  0  0  0  0  0  0  0
   62.9299   33.4976   50.5246 H   0  0  0  0  0  0  0  0  0  0  0  0
   59.7335   33.2513   51.4776 H   0  0  0  0  0  0  0  0  0  0  0  0
   59.1195   34.4382   50.2779 H   0  0  0  0  0  0  0  0  0  0  0  0
   58.6578   31.5972   50.3872 H   0  0  0  0  0  0  0  0  0  0  0  0
   58.0640   32.7932   49.1704 H   0  0  0  0  0  0  0  0  0  0  0  0
   60.8520   31.9150   48.7340 H   0  0  0  0  0  0  0  0  0  0  0  0
   58.0602   30.2397   42.8872 H   0  0  0  0  0  0  0  0  0  0  0  0
   57.8851   28.6214   43.6753 H   0  0  0  0  0  0  0  0  0  0  0  0
   55.8240   29.9172   44.8638 H   0  0  0  0  0  0  0  0  0  0  0  0
   55.8744   30.8157   43.3092 H   0  0  0  0  0  0  0  0  0  0  0  0
   55.6602   29.0322   43.3092 H   0  0  0  0  0  0  0  0  0  0  0  0
   58.4473   27.5179   44.8246 H   0  0  0  0  0  0  0  0  0  0  0  0
   59.1479   25.9887   46.6483 H   0  0  0  0  0  0  0  0  0  0  0  0
   59.8549   26.9005   48.8496 H   0  0  0  0  0  0  0  0  0  0  0  0
   59.9240   29.3560   49.2191 H   0  0  0  0  0  0  0  0  0  0  0  0
   59.2193   33.0318   43.7708 H   0  0  0  0  0  0  0  0  0  0  0  0
   57.7836   32.0995   43.1919 H   0  0  0  0  0  0  0  0  0  0  0  0
   57.4390   34.5887   43.8345 H   0  0  0  0  0  0  0  0  0  0  0  0
   56.2911   33.3331   44.5055 H   0  0  0  0  0  0  0  0  0  0  0  0
   57.7029   35.3135   45.9444 H   0  0  0  0  0  0  0  0  0  0  0  0
   56.7461   33.8908   46.5791 H   0  0  0  0  0  0  0  0  0  0  0  0
   59.7471   34.0447   46.0861 H   0  0  0  0  0  0  0  0  0  0  0  0
   58.8791   33.8442   47.6545 H   0  0  0  0  0  0  0  0  0  0  0  0
  1  2  1  0
  2  3  1  0
  3  4  1  0
  4  5  1  0
  5  6  1  0
  6  7  1  0
  7  8  1  0
  8  9  1  0
  9 10  1  0
 10 11  1  0
 11 12  1  0
 12 13  1  0
 13 14  2  0
 14 15  1  0
 15 16  2  0
 16 17  1  0
 17 18  1  0
 16 19  1  0
 19 20  2  0
 20 21  1  0
 21 22  2  0
 22 23  1  0
 23 24  2  0
 15 25  1  0
 25 26  1  0
 26 27  1  0
 27 28  1  0
 24 13  1  0
 28 14  1  0
 24 19  1  0
  1 29  1  0
  1 30  1  0
  1 31  1  0
  2 32  1  0
  2 33  1  0
  4 34  1  0
  4 35  1  0
  5 36  1  0
  5 37  1  0
  7 38  1  0
  7 39  1  0
  8 40  1  0
  8 41  1  0
 10 42  1  0
 10 43  1  0
 11 44  1  0
 11 45  1  0
 12 46  1  0
 17 47  1  0
 17 48  1  0
 18 49  1  0
 18 50  1  0
 18 51  1  0
 20 52  1  0
 21 53  1  0
 22 54  1  0
 23 55  1  0
 25 56  1  0
 25 57  1  0
 26 58  1  0
 26 59  1  0
 27 60  1  0
 27 61  1  0
 28 62  1  0
 28 63  1  0
M  CHG  1  16   1
M  END
>  <UniqueID>  (8) 
8

>  <SMILES>  (8) 
CCOCCOCCOCCNc1c2c([n+](CC)c3ccccc13)CCCC2

>  <Energy>  (8) 
83.39123322784214

>  <Genealogy>  (8) 
CCOCCOCCOCCNc1c2c([n+](CC)c3ccccc13)CCCC2 (3D coordinates assigned)
CCOCCOCCOCCNc1c2c([n+](CC)c3ccccc13)CCCC2 (nonaromatic ring conformer: 83.39123322784214 kcal/mol)

>  <smiles>  (8) 
CCOCCOCCOCCNc1c2c([n+](CC)c3ccccc13)CCCC2

>  <score_type>  (8) 
oracle

>  <origin>  (8) 
adg

>  <m_score__min__energy>  (8) 
-5.9699999999999998

>  <m_primary>  (8) 
energy

$$$$
8:0
     RDKit          3D

 36 36  0  0  0  0  0  0  0  0999 V2000
   56.6250   29.6080   42.9630 C   0  0  0  0  0  0  0  0  0  0  0  0
   55.5110   29.7200   43.9970 C   0  0  0  0  0  0  0  0  0  0  0  0
   55.8950   29.0210   45.2280 N   0  0  0  0  0  0  0  0  0  0  0  0
   57.2610   28.4950   45.1140 C   0  0  0  0  0  0  0  0  0  0  0  0
   58.2040   29.2340   46.0700 C   0  0  0  0  0  0  0  0  0  0  0  0
   58.4520   30.6790   45.6220 C   0  0  0  0  0  0  0  0  0  0  0  0
   57.2290   31.3810   45.5040 O   0  0  0  0  0  0  0  0  0  0  0  0
   57.4050   32.6390   44.8730 C   0  0  0  0  0  0  0  0  0  0  0  0
   57.5080   33.7540   45.9160 C   0  0  0  0  0  0  0  0  0  0  0  0
   58.8570   33.7610   46.5860 C   0  0  0  0  0  0  0  0  0  0  0  0
   60.0290   33.8160   45.8130 C   0  0  0  0  0  0  0  0  0  0  0  0
   61.2800   33.8790   46.4350 C   0  0  0  0  0  0  0  0  0  0  0  0
   61.3690   33.8910   47.8300 C   0  0  0  0  0  0  0  0  0  0  0  0
   60.2080   33.8440   48.6060 C   0  0  0  0  0  0  0  0  0  0  0  0
   58.9540   33.7830   47.9880 C   0  0  0  0  0  0  0  0  0  0  0  0
   57.5931   29.5107   43.4761 H   0  0  0  0  0  0  0  0  0  0  0  0
   56.4531   28.7226   42.3333 H   0  0  0  0  0  0  0  0  0  0  0  0
   56.6328   30.5099   42.3333 H   0  0  0  0  0  0  0  0  0  0  0  0
   55.3291   30.7811   44.2226 H   0  0  0  0  0  0  0  0  0  0  0  0
   54.5965   29.2617   43.5926 H   0  0  0  0  0  0  0  0  0  0  0  0
   55.8840   29.7180   46.0110 H   0  0  0  0  0  0  0  0  0  0  0  0
   57.2583   27.4240   45.3647 H   0  0  0  0  0  0  0  0  0  0  0  0
   57.6135   28.6429   44.0826 H   0  0  0  0  0  0  0  0  0  0  0  0
   57.7558   29.2447   47.0745 H   0  0  0  0  0  0  0  0  0  0  0  0
   59.1694   28.7068   46.0731 H   0  0  0  0  0  0  0  0  0  0  0  0
   59.0881   31.1834   46.3642 H   0  0  0  0  0  0  0  0  0  0  0  0
   58.9492   30.6656   44.6409 H   0  0  0  0  0  0  0  0  0  0  0  0
   58.3276   32.6174   44.2743 H   0  0  0  0  0  0  0  0  0  0  0  0
   56.5371   32.8365   44.2267 H   0  0  0  0  0  0  0  0  0  0  0  0
   57.3504   34.7230   45.4199 H   0  0  0  0  0  0  0  0  0  0  0  0
   56.7417   33.5784   46.6854 H   0  0  0  0  0  0  0  0  0  0  0  0
   59.9624   33.8095   44.7150 H   0  0  0  0  0  0  0  0  0  0  0  0
   62.1950   33.9192   45.8258 H   0  0  0  0  0  0  0  0  0  0  0  0
   62.3541   33.9375   48.3173 H   0  0  0  0  0  0  0  0  0  0  0  0
   60.2798   33.8550   49.7036 H   0  0  0  0  0  0  0  0  0  0  0  0
   58.0414   33.7522   48.6013 H   0  0  0  0  0  0  0  0  0  0  0  0
  1  2  1  0
  2  3  1  0
  3  4  1  0
  4  5  1  0
  5  6  1  0
  6  7  1  0
  7  8  1  0
  8  9  1  0
  9 10  1  0
 10 11  2  0
 11 12  1  0
 12 13  2  0
 13 14  1  0
 14 15  2  0
 15 10  1  0
  1 16  1  0
  1 17  1  0
  1 18  1  0
  2 19  1  0
  2 20  1  0
  3 21  1  0
  4 22  1  0
  4 23  1  0
  5 24  1  0
  5 25  1  0
  6 26  1  0
  6 27  1  0
  8 28  1  0
  8 29  1  0
  9 30  1  0
  9 31  1  0
 11 32  1  0
 12 33  1  0
 13 34  1  0
 14 35  1  0
 15 36  1  0
M  END
>  <UniqueID>  (9) 
9

>  <SMILES>  (9) 
CCNCCCOCCc1ccccc1

>  <Energy>  (9) 
25.385272133842612

>  <Genealogy>  (9) 
CCNCCCOCCc1ccccc1 (3D coordinates assigned)
CCNCCCOCCc1ccccc1 (optimized conformer: 25.385272133842612 kcal/mol)

>  <smiles>  (9) 
CCNCCCOCCc1ccccc1

>  <score_type>  (9) 
oracle

>  <origin>  (9) 
adg

>  <m_score__min__energy>  (9) 
-5.8099999999999996

>  <m_primary>  (9) 
energy

$$$$
9:0
     RDKit          3D

 89 93  0  0  0  0  0  0  0  0999 V2000
   58.1560   34.1580   45.5950 C   0  0  0  0  0  0  0  0  0  0  0  0
   58.4000   33.0910   46.6580 C   0  0  0  0  0  0  0  0  0  0  0  0
   59.4570   33.5150   47.5930 N   0  0  0  0  0  0  0  0  0  0  0  0
   60.4820   34.4850   47.1750 C   0  0  0  0  0  0  0  0  0  0  0  0
   61.5700   33.8460   46.3010 C   0  0  0  0  0  0  0  0  0  0  0  0
   62.9850   33.9550   46.9010 C   0  0  0  0  0  0  0  0  0  0  0  0
   63.6780   32.6450   47.0210 N   0  0  0  0  0  0  0  0  0  0  0  0
   63.2700   31.9230   48.2250 C   0  0  0  0  0  0  0  0  0  0  0  0
   62.1180   31.0830   48.2510 C   0  0  0  0  0  0  0  0  0  0  0  0
   61.4620   30.6460   47.0700 C   0  0  0  0  0  0  0  0  0  0  0  0
   60.3370   29.8280   47.1270 C   0  0  0  0  0  0  0  0  0  0  0  0
   59.8530   29.3930   48.3500 C   0  0  0  0  0  0  0  0  0  0  0  0
   60.4850   29.7780   49.5260 C   0  0  0  0  0  0  0  0  0  0  0  0
   61.6110   30.6420   49.5100 C   0  0  0  0  0  0  0  0  0  0  0  0
   62.2150   31.0410   50.6860 N   0  0  0  0  0  0  0  0  0  0  0  0
   61.5090   30.8770   51.9760 C   0  0  0  0  0  0  0  0  0  0  0  0
   63.4690   31.6140   50.6550 C   0  0  0  0  0  0  0  0  0  0  0  0
   64.2350   31.7790   51.8400 C   0  0  0  0  0  0  0  0  0  0  0  0
   65.4600   32.4450   51.8350 C   0  0  0  0  0  0  0  0  0  0  0  0
   66.1180   32.6370   53.0590 O   0  0  0  0  0  0  0  0  0  0  0  0
   67.5010   32.3730   53.2890 C   0  0  0  0  0  0  0  0  0  0  0  0
   68.0060   31.2170   52.3960 C   0  0  0  0  0  0  0  0  0  0  0  0
   67.5030   29.8420   52.7380 N   0  0  0  0  0  0  0  0  0  0  0  0
   66.6860   29.8970   53.9830 C   0  0  0  0  0  0  0  0  0  0  0  0
   66.6740   29.2920   51.6160 C   0  0  0  0  0  0  0  0  0  0  0  0
   66.7350   27.7530   51.5360 C   0  0  0  0  0  0  0  0  0  0  0  0
   68.1210   27.2600   51.2440 N   0  0  0  0  0  0  0  0  0  0  0  0
   68.2970   25.9240   51.8660 C   0  0  0  0  0  0  0  0  0  0  0  0
   68.2950   27.1050   49.7780 C   0  0  0  0  0  0  0  0  0  0  0  0
   69.1680   28.1980   51.7610 C   0  0  0  0  0  0  0  0  0  0  0  0
   68.6950   28.9630   53.0130 C   0  0  0  0  0  0  0  0  0  0  0  0
   65.9820   32.9030   50.6230 C   0  0  0  0  0  0  0  0  0  0  0  0
   65.2740   32.7200   49.4400 C   0  0  0  0  0  0  0  0  0  0  0  0
   64.0100   32.0800   49.4290 C   0  0  0  0  0  0  0  0  0  0  0  0
   59.2700   33.2600   48.9920 C   0  0  0  0  0  0  0  0  0  0  0  0
   58.3120   32.3280   49.4190 C   0  0  0  0  0  0  0  0  0  0  0  0
   58.1140   32.0980   50.7850 C   0  0  0  0  0  0  0  0  0  0  0  0
   58.8610   32.8090   51.7310 C   0  0  0  0  0  0  0  0  0  0  0  0
   59.8160   33.7410   51.3100 C   0  0  0  0  0  0  0  0  0  0  0  0
   60.0160   33.9720   49.9450 C   0  0  0  0  0  0  0  0  0  0  0  0
   57.9363   35.1188   46.0835 H   0  0  0  0  0  0  0  0  0  0  0  0
   59.0534   34.2625   44.9676 H   0  0  0  0  0  0  0  0  0  0  0  0
   57.3024   33.8620   44.9676 H   0  0  0  0  0  0  0  0  0  0  0  0
   57.4691   32.9216   47.2190 H   0  0  0  0  0  0  0  0  0  0  0  0
   58.7213   32.1644   46.1598 H   0  0  0  0  0  0  0  0  0  0  0  0
   59.9955   35.2885   46.6025 H   0  0  0  0  0  0  0  0  0  0  0  0
   60.9663   34.8736   48.0830 H   0  0  0  0  0  0  0  0  0  0  0  0
   61.3292   32.7808   46.1690 H   0  0  0  0  0  0  0  0  0  0  0  0
   61.5807   34.3934   45.3469 H   0  0  0  0  0  0  0  0  0  0  0  0
   63.5879   34.6106   46.2555 H   0  0  0  0  0  0  0  0  0  0  0  0
   62.8761   34.3592   47.9182 H   0  0  0  0  0  0  0  0  0  0  0  0
   63.5510   32.1060   46.1460 H   0  0  0  0  0  0  0  0  0  0  0  0
   64.7130   32.7910   47.0560 H   0  0  0  0  0  0  0  0  0  0  0  0
   61.8506   30.9602   46.0901 H   0  0  0  0  0  0  0  0  0  0  0  0
   59.8309   29.5261   46.1982 H   0  0  0  0  0  0  0  0  0  0  0  0
   58.9672   28.7420   48.3901 H   0  0  0  0  0  0  0  0  0  0  0  0
   60.1050   29.4057   50.4888 H   0  0  0  0  0  0  0  0  0  0  0  0
   62.2148   31.0409   52.8037 H   0  0  0  0  0  0  0  0  0  0  0  0
   60.6905   31.6089   52.0417 H   0  0  0  0  0  0  0  0  0  0  0  0
   61.0969   29.8592   52.0417 H   0  0  0  0  0  0  0  0  0  0  0  0
   63.8515   31.3705   52.7866 H   0  0  0  0  0  0  0  0  0  0  0  0
   68.0815   33.2799   53.0641 H   0  0  0  0  0  0  0  0  0  0  0  0
   67.6293   32.0811   54.3418 H   0  0  0  0  0  0  0  0  0  0  0  0
   67.7041   31.4365   51.3613 H   0  0  0  0  0  0  0  0  0  0  0  0
   69.0940   31.1787   52.5535 H   0  0  0  0  0  0  0  0  0  0  0  0
   67.3495   29.8523   54.8592 H   0  0  0  0  0  0  0  0  0  0  0  0
   66.1130   30.8357   54.0044 H   0  0  0  0  0  0  0  0  0  0  0  0
   65.9924   29.0435   54.0044 H   0  0  0  0  0  0  0  0  0  0  0  0
   65.6279   29.5961   51.7684 H   0  0  0  0  0  0  0  0  0  0  0  0
   67.0784   29.6919   50.6745 H   0  0  0  0  0  0  0  0  0  0  0  0
   66.4043   27.3340   52.4978 H   0  0  0  0  0  0  0  0  0  0  0  0
   66.0791   27.4293   50.7144 H   0  0  0  0  0  0  0  0  0  0  0  0
   68.2837   26.0249   52.9613 H   0  0  0  0  0  0  0  0  0  0  0  0
   67.4784   25.2612   51.5489 H   0  0  0  0  0  0  0  0  0  0  0  0
   69.2593   25.4958   51.5489 H   0  0  0  0  0  0  0  0  0  0  0  0
   69.1028   26.3854   49.5787 H   0  0  0  0  0  0  0  0  0  0  0  0
   67.3582   26.7367   49.3345 H   0  0  0  0  0  0  0  0  0  0  0  0
   68.5530   28.0780   49.3345 H   0  0  0  0  0  0  0  0  0  0  0  0
   70.0672   27.6188   52.0180 H   0  0  0  0  0  0  0  0  0  0  0  0
   69.3798   28.9361   50.9734 H   0  0  0  0  0  0  0  0  0  0  0  0
   68.4231   28.2334   53.7900 H   0  0  0  0  0  0  0  0  0  0  0  0
   69.5206   29.6130   53.3384 H   0  0  0  0  0  0  0  0  0  0  0  0
   66.9576   33.4108   50.6042 H   0  0  0  0  0  0  0  0  0  0  0  0
   65.7041   33.0795   48.4936 H   0  0  0  0  0  0  0  0  0  0  0  0
   57.7149   31.7766   48.6778 H   0  0  0  0  0  0  0  0  0  0  0  0
   57.3706   31.3577   51.1155 H   0  0  0  0  0  0  0  0  0  0  0  0
   58.6975   32.6353   52.8048 H   0  0  0  0  0  0  0  0  0  0  0  0
   60.4102   34.2927   52.0534 H   0  0  0  0  0  0  0  0  0  0  0  0
   60.7596   34.7134   49.6173 H   0  0  0  0  0  0  0  0  0  0  0  0
  1  2  1  0
  2  3  1  0
  3  4  1  0
  4  5  1  0
  5  6  1  0
  6  7  1  0
  7  8  1  0
  8  9  1  0
  9 10  2  0
 10 11  1  0
 11 12  2  0
 12 13  1  0
 13 14  2  0
 14 15  1  0
 15 16  1  0
 15 17  2  0
 17 18  1  0
 18 19  2  0
 19 20  1  0
 20 21  1  0
 21 22  1  0
 22 23  1  0
 23 24  1  0
 23 25  1  0
 25 26  1  0
 26 27  1  0
 27 28  1  0
 27 29  1  0
 27 30  1  0
 30 31  1  0
 19 32  1  0
 32 33  2  0
 33 34  1  0
  3 35  1  0
 35 36  2  0
 36 37  1  0
 37 38  2  0
 38 39  1  0
 39 40  2  0
 34  8  2  0
 40 35  1  0
 14  9  1  0
 34 17  1  0
 31 23  1  0
  1 41  1  0
  1 42  1  0
  1 43  1  0
  2 44  1  0
  2 45  1  0
  4 46  1  0
  4 47  1  0
  5 48  1  0
  5 49  1  0
  6 50  1  0
  6 51  1  0
  7 52  1  0
  7 53  1  0
 10 54  1  0
 11 55  1  0
 12 56  1  0
 13 57  1  0
 16 58  1  0
 16 59  1  0
 16 60  1  0
 18 61  1  0
 21 62  1  0
 21 63  1  0
 22 64  1  0
 22 65  1  0
 24 66  1  0
 24 67  1  0
 24 68  1  0
 25 69  1  0
 25 70  1  0
 26 71  1  0
 26 72  1  0
 28 73  1  0
 28 74  1  0
 28 75  1  0
 29 76  1  0
 29 77  1  0
 29 78  1  0
 30 79  1  0
 30 80  1  0
 31 81  1  0
 31 82  1  0
 32 83  1  0
 33 84  1  0
 36 85  1  0
 37 86  1  0
 38 87  1  0
 39 88  1  0
 40 89  1  0
M  CHG  4   7   1  15   1  23   1  27   1
M  END
>  <UniqueID>  (10) 
10

>  <SMILES>  (10) 
CCN(CCC[NH2+]c1c2ccccc2[n+](C)c2cc(OCC[N+]3(C)CC[N+](C)(C)CC3)ccc12)c1ccccc1

>  <Energy>  (10) 
147.4894847205262

>  <Genealogy>  (10) 
CCN(CCC[NH2+]c1c2ccccc2[n+](C)c2cc(OCC[N+]3(C)CC[N+](C)(C)CC3)ccc12)c1ccccc1 (protonated)
CCN(CCC[NH2+]c1c2ccccc2[n+](C)c2cc(OCC[N+]3(C)CC[N+](C)(C)CC3)ccc12)c1ccccc1 (3D coordinates assigned)
CCN(CCC[NH2+]c1c2ccccc2[n+](C)c2cc(OCC[N+]3(C)CC[N+](C)(C)CC3)ccc12)c1ccccc1 (nonaromatic ring conformer: 147.4894847205262 kcal/mol)

>  <smiles>  (10) 
CCN(CCCNc1c2ccccc2[n+](C)c2cc(OCC[N+]3(C)CC[N+](C)(C)CC3)ccc12)c1ccccc1

>  <score_type>  (10) 
oracle

>  <origin>  (10) 
adg

>  <m_score__min__energy>  (10) 
-4.2000000000000002

>  <m_primary>  (10) 
energy

$$$$
10:0
     RDKit          3D

 38 39  0  0  0  0  0  0  0  0999 V2000
   58.9730   34.6520   45.3170 C   0  0  0  0  0  0  0  0  0  0  0  0
   58.3130   33.4590   44.7870 C   0  0  0  0  0  0  0  0  0  0  0  0
   57.7700   32.4750   44.3500 C   0  0  0  0  0  0  0  0  0  0  0  0
   57.1090   31.2790   43.8160 C   0  0  0  0  0  0  0  0  0  0  0  0
   56.6370   30.4680   44.8740 O   0  0  0  0  0  0  0  0  0  0  0  0
   57.2170   29.1760   44.8320 C   0  0  0  0  0  0  0  0  0  0  0  0
   58.2360   29.0150   45.9630 C   0  0  0  0  0  0  0  0  0  0  0  0
   58.4390   30.2860   46.6620 N   0  0  0  0  0  0  0  0  0  0  0  0
   59.6730   30.6960   47.2840 C   0  0  0  0  0  0  0  0  0  0  0  0
   60.2000   30.0300   48.4080 C   0  0  0  0  0  0  0  0  0  0  0  0
   61.3990   30.4530   48.9830 C   0  0  0  0  0  0  0  0  0  0  0  0
   62.1000   31.5430   48.4490 C   0  0  0  0  0  0  0  0  0  0  0  0
   61.5650   32.2380   47.3450 C   0  0  0  0  0  0  0  0  0  0  0  0
   60.3660   31.7990   46.7640 C   0  0  0  0  0  0  0  0  0  0  0  0
   62.3100   33.3910   46.7230 C   0  0  0  0  0  0  0  0  0  0  0  0
   63.3880   33.9450   47.6620 C   0  0  0  0  0  0  0  0  0  0  0  0
   64.1860   32.8600   48.2430 N   0  0  0  0  0  0  0  0  0  0  0  0
   63.3630   32.0220   49.1260 C   0  0  0  0  0  0  0  0  0  0  0  0
   58.9565   34.6222   46.4165 H   0  0  0  0  0  0  0  0  0  0  0  0
   60.0153   34.6807   44.9665 H   0  0  0  0  0  0  0  0  0  0  0  0
   58.4435   35.5502   44.9665 H   0  0  0  0  0  0  0  0  0  0  0  0
   56.2607   31.5837   43.1855 H   0  0  0  0  0  0  0  0  0  0  0  0
   57.8333   30.7049   43.2195 H   0  0  0  0  0  0  0  0  0  0  0  0
   56.4266   28.4194   44.9451 H   0  0  0  0  0  0  0  0  0  0  0  0
   57.7289   29.0444   43.8673 H   0  0  0  0  0  0  0  0  0  0  0  0
   57.8666   28.2649   46.6777 H   0  0  0  0  0  0  0  0  0  0  0  0
   59.1948   28.6916   45.5317 H   0  0  0  0  0  0  0  0  0  0  0  0
   57.6200   30.9340   46.7120 H   0  0  0  0  0  0  0  0  0  0  0  0
   59.6626   29.1706   48.8353 H   0  0  0  0  0  0  0  0  0  0  0  0
   61.7974   29.9266   49.8628 H   0  0  0  0  0  0  0  0  0  0  0  0
   59.9633   32.3277   45.8875 H   0  0  0  0  0  0  0  0  0  0  0  0
   62.7892   33.0461   45.7949 H   0  0  0  0  0  0  0  0  0  0  0  0
   61.5875   34.1951   46.5196 H   0  0  0  0  0  0  0  0  0  0  0  0
   64.0505   34.6146   47.0939 H   0  0  0  0  0  0  0  0  0  0  0  0
   62.8944   34.4932   48.4780 H   0  0  0  0  0  0  0  0  0  0  0  0
   64.5710   32.2650   47.4710 H   0  0  0  0  0  0  0  0  0  0  0  0
   63.9533   31.1463   49.4337 H   0  0  0  0  0  0  0  0  0  0  0  0
   63.0693   32.6332   49.9921 H   0  0  0  0  0  0  0  0  0  0  0  0
  1  2  1  0
  2  3  3  0
  3  4  1  0
  4  5  1  0
  5  6  1  0
  6  7  1  0
  7  8  1  0
  8  9  1  0
  9 10  2  0
 10 11  1  0
 11 12  2  0
 12 13  1  0
 13 14  2  0
 13 15  1  0
 15 16  1  0
 16 17  1  0
 17 18  1  0
 14  9  1  0
 18 12  1  0
  1 19  1  0
  1 20  1  0
  1 21  1  0
  4 22  1  0
  4 23  1  0
  6 24  1  0
  6 25  1  0
  7 26  1  0
  7 27  1  0
  8 28  1  0
 10 29  1  0
 11 30  1  0
 14 31  1  0
 15 32  1  0
 15 33  1  0
 16 34  1  0
 16 35  1  0
 17 36  1  0
 18 37  1  0
 18 38  1  0
M  END
>  <UniqueID>  (11) 
11

>  <SMILES>  (11) 
CC#CCOCCNc1ccc2c(c1)CCNC2

>  <Energy>  (11) 
34.41354857720621

>  <Genealogy>  (11) 
CC#CCOCCNc1ccc2c(c1)CCNC2 (3D coordinates assigned)
CC#CCOCCNc1ccc2c(c1)CCNC2 (nonaromatic ring conformer: 34.41354857720621 kcal/mol)

>  <smiles>  (11) 
CC#CCOCCNc1ccc2c(c1)CCNC2

>  <score_type>  (11) 
oracle

>  <origin>  (11) 
adg

>  <m_score__min__energy>  (11) 
-6.3600000000000003

>  <m_primary>  (11) 
energy

$$$$
11:0
     RDKit          3D

 40 42  0  0  0  0  0  0  0  0999 V2000
   58.8630   30.9850   49.3560 C   0  0  0  0  0  0  0  0  0  0  0  0
   59.0420   32.2490   48.6060 N   0  0  0  0  0  0  0  0  0  0  0  0
   59.4500   33.4090   49.2450 C   0  0  0  0  0  0  0  0  0  0  0  0
   59.7430   33.4840   50.7380 C   0  0  0  0  0  0  0  0  0  0  0  0
   60.9220   32.6810   51.1130 N   0  0  0  0  0  0  0  0  0  0  0  0
   62.1810   33.3920   50.8360 C   0  0  0  0  0  0  0  0  0  0  0  0
   62.6290   33.1380   49.4200 C   0  0  0  0  0  0  0  0  0  0  0  0
   62.5970   31.8370   48.8890 C   0  0  0  0  0  0  0  0  0  0  0  0
   62.9790   31.6090   47.5630 C   0  0  0  0  0  0  0  0  0  0  0  0
   63.3850   32.6760   46.7580 C   0  0  0  0  0  0  0  0  0  0  0  0
   63.4040   33.9750   47.2740 C   0  0  0  0  0  0  0  0  0  0  0  0
   63.0230   34.2070   48.5990 C   0  0  0  0  0  0  0  0  0  0  0  0
   59.6360   34.5880   48.5100 C   0  0  0  0  0  0  0  0  0  0  0  0
   59.4030   34.6160   47.1450 C   0  0  0  0  0  0  0  0  0  0  0  0
   59.5850   35.6920   46.5120 O   0  0  0  0  0  0  0  0  0  0  0  0
   58.9670   33.4580   46.4920 C   0  0  0  0  0  0  0  0  0  0  0  0
   58.7110   33.4700   45.1060 C   0  0  0  0  0  0  0  0  0  0  0  0
   58.2660   32.3200   44.4570 C   0  0  0  0  0  0  0  0  0  0  0  0
   57.9500   32.3510   42.7320 Cl  0  0  0  0  0  0  0  0  0  0  0  0
   58.0660   31.1470   45.1800 C   0  0  0  0  0  0  0  0  0  0  0  0
   58.3160   31.1140   46.5530 C   0  0  0  0  0  0  0  0  0  0  0  0
   58.7790   32.2640   47.2430 C   0  0  0  0  0  0  0  0  0  0  0  0
   58.8923   31.1921   50.4359 H   0  0  0  0  0  0  0  0  0  0  0  0
   57.8926   30.5378   49.0946 H   0  0  0  0  0  0  0  0  0  0  0  0
   59.6711   30.2860   49.0946 H   0  0  0  0  0  0  0  0  0  0  0  0
   59.9272   34.5335   51.0110 H   0  0  0  0  0  0  0  0  0  0  0  0
   58.8725   33.0789   51.2748 H   0  0  0  0  0  0  0  0  0  0  0  0
   60.9210   31.7690   50.6020 H   0  0  0  0  0  0  0  0  0  0  0  0
   60.8660   32.4830   52.1400 H   0  0  0  0  0  0  0  0  0  0  0  0
   62.0261   34.4717   50.9787 H   0  0  0  0  0  0  0  0  0  0  0  0
   62.9558   33.0260   51.5257 H   0  0  0  0  0  0  0  0  0  0  0  0
   62.2706   30.9958   49.5181 H   0  0  0  0  0  0  0  0  0  0  0  0
   62.9597   30.5882   47.1535 H   0  0  0  0  0  0  0  0  0  0  0  0
   63.6901   32.4938   45.7170 H   0  0  0  0  0  0  0  0  0  0  0  0
   63.7188   34.8150   46.6373 H   0  0  0  0  0  0  0  0  0  0  0  0
   63.0319   35.2312   49.0001 H   0  0  0  0  0  0  0  0  0  0  0  0
   59.9709   35.5015   49.0232 H   0  0  0  0  0  0  0  0  0  0  0  0
   58.8639   34.3955   44.5315 H   0  0  0  0  0  0  0  0  0  0  0  0
   57.7092   30.2418   44.6668 H   0  0  0  0  0  0  0  0  0  0  0  0
   58.1511   30.1798   47.1098 H   0  0  0  0  0  0  0  0  0  0  0  0
  1  2  1  0
  2  3  1  0
  3  4  1  0
  4  5  1  0
  5  6  1  0
  6  7  1  0
  7  8  2  0
  8  9  1  0
  9 10  2  0
 10 11  1  0
 11 12  2  0
  3 13  2  0
 13 14  1  0
 14 15  2  0
 14 16  1  0
 16 17  2  0
 17 18  1  0
 18 19  1  0
 18 20  2  0
 20 21  1  0
 21 22  2  0
 22  2  1  0
 12  7  1  0
 22 16  1  0
  1 23  1  0
  1 24  1  0
  1 25  1  0
  4 26  1  0
  4 27  1  0
  5 28  1  0
  5 29  1  0
  6 30  1  0
  6 31  1  0
  8 32  1  0
  9 33  1  0
 10 34  1  0
 11 35  1  0
 12 36  1  0
 13 37  1  0
 17 38  1  0
 20 39  1  0
 21 40  1  0
M  CHG  1   5   1
M  END
>  <UniqueID>  (12) 
12

>  <SMILES>  (12) 
Cn1c(C[NH2+]Cc2ccccc2)cc(=O)c2cc(Cl)ccc21

>  <Energy>  (12) 
56.39879713688575

>  <Genealogy>  (12) 
Cn1c(C[NH2+]Cc2ccccc2)cc(=O)c2cc(Cl)ccc21 (protonated)
Cn1c(C[NH2+]Cc2ccccc2)cc(=O)c2cc(Cl)ccc21 (3D coordinates assigned)
Cn1c(C[NH2+]Cc2ccccc2)cc(=O)c2cc(Cl)ccc21 (optimized conformer: 56.39879713688575 kcal/mol)

>  <smiles>  (12) 
Cn1c(CNCc2ccccc2)cc(=O)c2cc(Cl)ccc21

>  <score_type>  (12) 
oracle

>  <origin>  (12) 
adg

>  <m_score__min__energy>  (12) 
-6.4299999999999997

>  <m_primary>  (12) 
energy

$$$$
12:0
     RDKit          3D

 53 55  0  0  0  0  0  0  0  0999 V2000
   63.1140   33.7810   46.3740 C   0  0  0  0  0  0  0  0  0  0  0  0
   63.2530   33.7200   47.8600 C   0  0  0  0  0  0  0  0  0  0  0  0
   62.3320   34.1770   48.5900 O   0  0  0  0  0  0  0  0  0  0  0  0
   64.4460   33.1840   48.4450 N   0  0  0  0  0  0  0  0  0  0  0  0
   64.6060   32.9910   49.8860 C   0  0  0  0  0  0  0  0  0  0  0  0
   64.1000   31.6140   50.3140 C   0  0  0  0  0  0  0  0  0  0  0  0
   63.0990   31.1810   49.4160 O   0  0  0  0  0  0  0  0  0  0  0  0
   62.0060   30.6180   50.1150 C   0  0  0  0  0  0  0  0  0  0  0  0
   60.6810   30.9150   49.4010 C   0  0  0  0  0  0  0  0  0  0  0  0
   60.8880   31.6220   48.1320 N   0  0  0  0  0  0  0  0  0  0  0  0
   59.9730   31.5100   47.0290 C   0  0  0  0  0  0  0  0  0  0  0  0
   59.3230   32.6550   46.5420 C   0  0  0  0  0  0  0  0  0  0  0  0
   58.5320   32.5710   45.3810 C   0  0  0  0  0  0  0  0  0  0  0  0
   58.2560   31.3470   44.8090 N   0  0  0  0  0  0  0  0  0  0  0  0
   57.2140   31.2450   43.7640 C   0  0  0  0  0  0  0  0  0  0  0  0
   58.9260   30.2160   45.2360 C   0  0  0  0  0  0  0  0  0  0  0  0
   58.8140   28.9790   44.5530 C   0  0  0  0  0  0  0  0  0  0  0  0
   59.4250   27.8270   45.0470 C   0  0  0  0  0  0  0  0  0  0  0  0
   60.1540   27.8740   46.2290 C   0  0  0  0  0  0  0  0  0  0  0  0
   60.3190   29.0830   46.9000 C   0  0  0  0  0  0  0  0  0  0  0  0
   59.7590   30.2740   46.3890 C   0  0  0  0  0  0  0  0  0  0  0  0
   58.0070   33.8780   44.8060 C   0  0  0  0  0  0  0  0  0  0  0  0
   59.0730   34.9750   44.9200 C   0  0  0  0  0  0  0  0  0  0  0  0
   59.5760   35.1830   46.3620 C   0  0  0  0  0  0  0  0  0  0  0  0
   59.3550   33.9740   47.2890 C   0  0  0  0  0  0  0  0  0  0  0  0
   62.1351   34.2106   46.1146 H   0  0  0  0  0  0  0  0  0  0  0  0
   63.9132   34.4111   45.9565 H   0  0  0  0  0  0  0  0  0  0  0  0
   63.1913   32.7662   45.9565 H   0  0  0  0  0  0  0  0  0  0  0  0
   65.2460   32.9360   47.8200 H   0  0  0  0  0  0  0  0  0  0  0  0
   65.6716   33.0789   50.1445 H   0  0  0  0  0  0  0  0  0  0  0  0
   64.0176   33.7588   50.4097 H   0  0  0  0  0  0  0  0  0  0  0  0
   64.9347   30.8977   50.3060 H   0  0  0  0  0  0  0  0  0  0  0  0
   63.6805   31.6763   51.3290 H   0  0  0  0  0  0  0  0  0  0  0  0
   62.1433   29.5285   50.1788 H   0  0  0  0  0  0  0  0  0  0  0  0
   61.9682   31.0627   51.1204 H   0  0  0  0  0  0  0  0  0  0  0  0
   60.1658   29.9645   49.1983 H   0  0  0  0  0  0  0  0  0  0  0  0
   60.0789   31.5615   50.0563 H   0  0  0  0  0  0  0  0  0  0  0  0
   61.7830   32.1420   47.9910 H   0  0  0  0  0  0  0  0  0  0  0  0
   56.2266   31.1483   44.2390 H   0  0  0  0  0  0  0  0  0  0  0  0
   57.2328   32.1493   43.1380 H   0  0  0  0  0  0  0  0  0  0  0  0
   57.4078   30.3615   43.1380 H   0  0  0  0  0  0  0  0  0  0  0  0
   58.2360   28.9270   43.6186 H   0  0  0  0  0  0  0  0  0  0  0  0
   59.3296   26.8779   44.4992 H   0  0  0  0  0  0  0  0  0  0  0  0
   60.6014   26.9549   46.6353 H   0  0  0  0  0  0  0  0  0  0  0  0
   60.8920   29.1104   47.8386 H   0  0  0  0  0  0  0  0  0  0  0  0
   57.7492   33.7310   43.7468 H   0  0  0  0  0  0  0  0  0  0  0  0
   57.1149   34.1853   45.3714 H   0  0  0  0  0  0  0  0  0  0  0  0
   59.9291   34.6981   44.2873 H   0  0  0  0  0  0  0  0  0  0  0  0
   58.6087   35.9180   44.5958 H   0  0  0  0  0  0  0  0  0  0  0  0
   60.6546   35.3954   46.3236 H   0  0  0  0  0  0  0  0  0  0  0  0
   58.9920   36.0146   46.7832 H   0  0  0  0  0  0  0  0  0  0  0  0
   60.1728   33.9413   48.0239 H   0  0  0  0  0  0  0  0  0  0  0  0
   58.3752   34.1034   47.7719 H   0  0  0  0  0  0  0  0  0  0  0  0
  1  2  1  0
  2  3  2  0
  2  4  1  0
  4  5  1  0
  5  6  1  0
  6  7  1  0
  7  8  1  0
  8  9  1  0
  9 10  1  0
 10 11  1  0
 11 12  2  0
 12 13  1  0
 13 14  2  0
 14 15  1  0
 14 16  1  0
 16 17  2  0
 17 18  1  0
 18 19  2  0
 19 20  1  0
 20 21  2  0
 13 22  1  0
 22 23  1  0
 23 24  1  0
 24 25  1  0
 21 11  1  0
 25 12  1  0
 21 16  1  0
  1 26  1  0
  1 27  1  0
  1 28  1  0
  4 29  1  0
  5 30  1  0
  5 31  1  0
  6 32  1  0
  6 33  1  0
  8 34  1  0
  8 35  1  0
  9 36  1  0
  9 37  1  0
 10 38  1  0
 15 39  1  0
 15 40  1  0
 15 41  1  0
 17 42  1  0
 18 43  1  0
 19 44  1  0
 20 45  1  0
 22 46  1  0
 22 47  1  0
 23 48  1  0
 23 49  1  0
 24 50  1  0
 24 51  1  0
 25 52  1  0
 25 53  1  0
M  CHG  1  14   1
M  END
>  <UniqueID>  (13) 
13

>  <SMILES>  (13) 
CC(=O)NCCOCCNc1c2c([n+](C)c3ccccc13)CCCC2

>  <Energy>  (13) 
71.04349020611855

>  <Genealogy>  (13) 
CC(=O)NCCOCCNc1c2c([n+](C)c3ccccc13)CCCC2 (3D coordinates assigned)
CC(=O)NCCOCCNc1c2c([n+](C)c3ccccc13)CCCC2 (nonaromatic ring conformer: 71.04349020611855 kcal/mol)

>  <smiles>  (13) 
CC(=O)NCCOCCNc1c2c([n+](C)c3ccccc13)CCCC2

>  <score_type>  (13) 
oracle

>  <origin>  (13) 
adg

>  <m_score__min__energy>  (13) 
-5.8499999999999996

>  <m_primary>  (13) 
energy

$$$$
13:0
     RDKit          3D

 53 55  0  0  0  0  0  0  0  0999 V2000
   54.4420   30.3520   52.3470 C   0  0  0  0  0  0  0  0  0  0  0  0
   55.8230   29.8040   52.6830 C   0  0  0  0  0  0  0  0  0  0  0  0
   56.7760   30.1590   51.6230 N   0  0  0  0  0  0  0  0  0  0  0  0
   57.4300   31.4520   51.8900 C   0  0  0  0  0  0  0  0  0  0  0  0
   58.0670   32.0040   50.6080 C   0  0  0  0  0  0  0  0  0  0  0  0
   59.2400   31.1510   50.1140 C   0  0  0  0  0  0  0  0  0  0  0  0
   58.8060   29.8230   49.8990 O   0  0  0  0  0  0  0  0  0  0  0  0
   59.8540   29.0340   49.3700 C   0  0  0  0  0  0  0  0  0  0  0  0
   59.5800   28.7100   47.8990 C   0  0  0  0  0  0  0  0  0  0  0  0
   60.4840   29.4590   47.0270 N   0  0  0  0  0  0  0  0  0  0  0  0
   60.3600   30.8800   46.8540 C   0  0  0  0  0  0  0  0  0  0  0  0
   61.3190   31.7500   47.3970 C   0  0  0  0  0  0  0  0  0  0  0  0
   62.4890   31.2470   48.0070 C   0  0  0  0  0  0  0  0  0  0  0  0
   63.4560   32.1130   48.5120 C   0  0  0  0  0  0  0  0  0  0  0  0
   63.2880   33.4870   48.3970 C   0  0  0  0  0  0  0  0  0  0  0  0
   62.1450   34.0080   47.7910 C   0  0  0  0  0  0  0  0  0  0  0  0
   61.1240   33.1550   47.3000 C   0  0  0  0  0  0  0  0  0  0  0  0
   59.9730   33.6550   46.7200 N   0  0  0  0  0  0  0  0  0  0  0  0
   59.6290   35.0870   46.8740 C   0  0  0  0  0  0  0  0  0  0  0  0
   59.1350   32.8140   46.0100 C   0  0  0  0  0  0  0  0  0  0  0  0
   58.1030   33.3160   45.1780 C   0  0  0  0  0  0  0  0  0  0  0  0
   57.2300   32.4550   44.5130 C   0  0  0  0  0  0  0  0  0  0  0  0
   57.3690   31.0770   44.6460 C   0  0  0  0  0  0  0  0  0  0  0  0
   56.1640   29.9030   43.7400 Br  0  0  0  0  0  0  0  0  0  0  0  0
   58.4000   30.5540   45.4240 C   0  0  0  0  0  0  0  0  0  0  0  0
   59.3010   31.4070   46.0960 C   0  0  0  0  0  0  0  0  0  0  0  0
   53.8970   30.5683   53.2777 H   0  0  0  0  0  0  0  0  0  0  0  0
   54.5472   31.2765   51.7603 H   0  0  0  0  0  0  0  0  0  0  0  0
   53.8846   29.6069   51.7603 H   0  0  0  0  0  0  0  0  0  0  0  0
   56.1629   30.2331   53.6371 H   0  0  0  0  0  0  0  0  0  0  0  0
   55.7665   28.7086   52.7656 H   0  0  0  0  0  0  0  0  0  0  0  0
   57.5110   29.4140   51.5860 H   0  0  0  0  0  0  0  0  0  0  0  0
   56.6808   32.1676   52.2596 H   0  0  0  0  0  0  0  0  0  0  0  0
   58.2167   31.3048   52.6446 H   0  0  0  0  0  0  0  0  0  0  0  0
   57.2999   32.0370   49.8203 H   0  0  0  0  0  0  0  0  0  0  0  0
   58.4591   33.0058   50.8374 H   0  0  0  0  0  0  0  0  0  0  0  0
   59.6234   31.5676   49.1709 H   0  0  0  0  0  0  0  0  0  0  0  0
   60.0379   31.1554   50.8711 H   0  0  0  0  0  0  0  0  0  0  0  0
   60.8014   29.5871   49.4500 H   0  0  0  0  0  0  0  0  0  0  0  0
   59.9188   28.0947   49.9387 H   0  0  0  0  0  0  0  0  0  0  0  0
   59.7284   27.6328   47.7329 H   0  0  0  0  0  0  0  0  0  0  0  0
   58.5441   28.9939   47.6616 H   0  0  0  0  0  0  0  0  0  0  0  0
   61.2020   28.9410   46.4710 H   0  0  0  0  0  0  0  0  0  0  0  0
   62.6383   30.1599   48.0842 H   0  0  0  0  0  0  0  0  0  0  0  0
   64.3537   31.7084   49.0024 H   0  0  0  0  0  0  0  0  0  0  0  0
   64.0600   34.1674   48.7857 H   0  0  0  0  0  0  0  0  0  0  0  0
   62.0337   35.0979   47.6923 H   0  0  0  0  0  0  0  0  0  0  0  0
   59.5690   35.3367   47.9436 H   0  0  0  0  0  0  0  0  0  0  0  0
   60.4045   35.7038   46.3964 H   0  0  0  0  0  0  0  0  0  0  0  0
   58.6579   35.2842   46.3964 H   0  0  0  0  0  0  0  0  0  0  0  0
   57.9886   34.4031   45.0547 H   0  0  0  0  0  0  0  0  0  0  0  0
   56.4291   32.8668   43.8814 H   0  0  0  0  0  0  0  0  0  0  0  0
   58.5128   29.4636   45.5153 H   0  0  0  0  0  0  0  0  0  0  0  0
  1  2  1  0
  2  3  1  0
  3  4  1  0
  4  5  1  0
  5  6  1  0
  6  7  1  0
  7  8  1  0
  8  9  1  0
  9 10  1  0
 10 11  1  0
 11 12  2  0
 12 13  1  0
 13 14  2  0
 14 15  1  0
 15 16  2  0
 16 17  1  0
 17 18  2  0
 18 19  1  0
 18 20  1  0
 20 21  2  0
 21 22  1  0
 22 23  2  0
 23 24  1  0
 23 25  1  0
 25 26  2  0
 26 11  1  0
 17 12  1  0
 26 20  1  0
  1 27  1  0
  1 28  1  0
  1 29  1  0
  2 30  1  0
  2 31  1  0
  3 32  1  0
  4 33  1  0
  4 34  1  0
  5 35  1  0
  5 36  1  0
  6 37  1  0
  6 38  1  0
  8 39  1  0
  8 40  1  0
  9 41  1  0
  9 42  1  0
 10 43  1  0
 13 44  1  0
 14 45  1  0
 15 46  1  0
 16 47  1  0
 19 48  1  0
 19 49  1  0
 19 50  1  0
 21 51  1  0
 22 52  1  0
 25 53  1  0
M  CHG  1  18   1
M  END
>  <UniqueID>  (14) 
14

>  <SMILES>  (14) 
CCNCCCOCCNc1c2ccccc2[n+](C)c2ccc(Br)cc12

>  <Energy>  (14) 
73.52102238074005

>  <Genealogy>  (14) 
CCNCCCOCCNc1c2ccccc2[n+](C)c2ccc(Br)cc12 (3D coordinates assigned)
CCNCCCOCCNc1c2ccccc2[n+](C)c2ccc(Br)cc12 (optimized conformer: 73.52102238074005 kcal/mol)

>  <smiles>  (14) 
CCNCCCOCCNc1c2ccccc2[n+](C)c2ccc(Br)cc12

>  <score_type>  (14) 
oracle

>  <origin>  (14) 
adg

>  <m_score__min__energy>  (14) 
-6.4199999999999999

>  <m_primary>  (14) 
energy

$$$$
14:0
     RDKit          3D

 55 57  0  0  0  0  0  0  0  0999 V2000
   59.8040   28.9160   44.5040 C   0  0  0  0  0  0  0  0  0  0  0  0
   58.6580   28.0040   44.0900 C   0  0  0  0  0  0  0  0  0  0  0  0
   57.4550   28.2600   44.8940 N   0  0  0  0  0  0  0  0  0  0  0  0
   57.2210   27.4930   46.1340 C   0  0  0  0  0  0  0  0  0  0  0  0
   58.3900   27.6490   47.0780 C   0  0  0  0  0  0  0  0  0  0  0  0
   58.5810   28.8470   47.7900 C   0  0  0  0  0  0  0  0  0  0  0  0
   59.6930   29.0030   48.6300 C   0  0  0  0  0  0  0  0  0  0  0  0
   60.6360   27.9790   48.7450 C   0  0  0  0  0  0  0  0  0  0  0  0
   60.4670   26.7980   48.0240 C   0  0  0  0  0  0  0  0  0  0  0  0
   59.3430   26.6250   47.2010 C   0  0  0  0  0  0  0  0  0  0  0  0
   56.6110   29.3900   44.5880 C   0  0  0  0  0  0  0  0  0  0  0  0
   55.3690   29.3400   44.8580 O   0  0  0  0  0  0  0  0  0  0  0  0
   57.1740   30.6390   43.9670 C   0  0  0  0  0  0  0  0  0  0  0  0
   57.1630   31.7480   44.9430 N   0  0  0  0  0  0  0  0  0  0  0  0
   57.3980   33.0440   44.2560 C   0  0  0  0  0  0  0  0  0  0  0  0
   57.8920   34.1100   45.2390 C   0  0  0  0  0  0  0  0  0  0  0  0
   59.2060   33.7270   45.8040 N   0  0  0  0  0  0  0  0  0  0  0  0
   59.6110   34.5380   46.9790 C   0  0  0  0  0  0  0  0  0  0  0  0
   60.9250   34.1020   47.5990 C   0  0  0  0  0  0  0  0  0  0  0  0
   62.0400   33.8510   46.7850 C   0  0  0  0  0  0  0  0  0  0  0  0
   63.2500   33.4360   47.3530 C   0  0  0  0  0  0  0  0  0  0  0  0
   63.3610   33.2680   48.7320 C   0  0  0  0  0  0  0  0  0  0  0  0
   64.8880   32.7730   49.4360 Cl  0  0  0  0  0  0  0  0  0  0  0  0
   62.2530   33.4980   49.5420 C   0  0  0  0  0  0  0  0  0  0  0  0
   61.0390   33.8970   48.9830 C   0  0  0  0  0  0  0  0  0  0  0  0
   59.4110   32.2640   45.9580 C   0  0  0  0  0  0  0  0  0  0  0  0
   58.0810   31.5030   46.0900 C   0  0  0  0  0  0  0  0  0  0  0  0
   59.8593   28.9600   45.6017 H   0  0  0  0  0  0  0  0  0  0  0  0
   60.7497   28.5208   44.1047 H   0  0  0  0  0  0  0  0  0  0  0  0
   59.6312   29.9263   44.1047 H   0  0  0  0  0  0  0  0  0  0  0  0
   58.4246   28.1806   43.0296 H   0  0  0  0  0  0  0  0  0  0  0  0
   58.9683   26.9611   44.2517 H   0  0  0  0  0  0  0  0  0  0  0  0
   56.3082   27.8641   46.6230 H   0  0  0  0  0  0  0  0  0  0  0  0
   57.1074   26.4289   45.8794 H   0  0  0  0  0  0  0  0  0  0  0  0
   57.8540   29.6661   47.6873 H   0  0  0  0  0  0  0  0  0  0  0  0
   59.8231   29.9347   49.2001 H   0  0  0  0  0  0  0  0  0  0  0  0
   61.5091   28.1041   49.4023 H   0  0  0  0  0  0  0  0  0  0  0  0
   61.2179   25.9978   48.1003 H   0  0  0  0  0  0  0  0  0  0  0  0
   59.2081   25.6827   46.6498 H   0  0  0  0  0  0  0  0  0  0  0  0
   58.2086   30.4494   43.6451 H   0  0  0  0  0  0  0  0  0  0  0  0
   56.5548   30.9183   43.1018 H   0  0  0  0  0  0  0  0  0  0  0  0
   58.1549   32.9018   43.4706 H   0  0  0  0  0  0  0  0  0  0  0  0
   56.4471   33.3852   43.8208 H   0  0  0  0  0  0  0  0  0  0  0  0
   57.9910   35.0703   44.7117 H   0  0  0  0  0  0  0  0  0  0  0  0
   57.1652   34.2005   46.0597 H   0  0  0  0  0  0  0  0  0  0  0  0
   59.7087   35.5862   46.6601 H   0  0  0  0  0  0  0  0  0  0  0  0
   58.8339   34.4024   47.7456 H   0  0  0  0  0  0  0  0  0  0  0  0
   61.9628   33.9810   45.6954 H   0  0  0  0  0  0  0  0  0  0  0  0
   64.1187   33.2412   46.7070 H   0  0  0  0  0  0  0  0  0  0  0  0
   62.3352   33.3642   50.6307 H   0  0  0  0  0  0  0  0  0  0  0  0
   60.1643   34.0522   49.6316 H   0  0  0  0  0  0  0  0  0  0  0  0
   59.9493   31.8867   45.0760 H   0  0  0  0  0  0  0  0  0  0  0  0
   59.9883   32.0985   46.8796 H   0  0  0  0  0  0  0  0  0  0  0  0
   58.2959   30.4256   46.1450 H   0  0  0  0  0  0  0  0  0  0  0  0
   57.5799   31.8645   47.0001 H   0  0  0  0  0  0  0  0  0  0  0  0
  1  2  1  0
  2  3  1  0
  3  4  1  0
  4  5  1  0
  5  6  2  0
  6  7  1  0
  7  8  2  0
  8  9  1  0
  9 10  2  0
  3 11  1  0
 11 12  2  0
 11 13  1  0
 13 14  1  0
 14 15  1  0
 15 16  1  0
 16 17  1  0
 17 18  1  0
 18 19  1  0
 19 20  2  0
 20 21  1  0
 21 22  2  0
 22 23  1  0
 22 24  1  0
 24 25  2  0
 17 26  1  0
 26 27  1  0
 10  5  1  0
 27 14  1  0
 25 19  1  0
  1 28  1  0
  1 29  1  0
  1 30  1  0
  2 31  1  0
  2 32  1  0
  4 33  1  0
  4 34  1  0
  6 35  1  0
  7 36  1  0
  8 37  1  0
  9 38  1  0
 10 39  1  0
 13 40  1  0
 13 41  1  0
 15 42  1  0
 15 43  1  0
 16 44  1  0
 16 45  1  0
 18 46  1  0
 18 47  1  0
 20 48  1  0
 21 49  1  0
 24 50  1  0
 25 51  1  0
 26 52  1  0
 26 53  1  0
 27 54  1  0
 27 55  1  0
M  END
>  <UniqueID>  (15) 
15

>  <SMILES>  (15) 
CCN(Cc1ccccc1)C(=O)CN1CCN(Cc2ccc(Cl)cc2)CC1

>  <Energy>  (15) 
64.44342881360102

>  <Genealogy>  (15) 
CCN(Cc1ccccc1)C(=O)CN1CCN(Cc2ccc(Cl)cc2)CC1 (3D coordinates assigned)
CCN(Cc1ccccc1)C(=O)CN1CCN(Cc2ccc(Cl)cc2)CC1 (nonaromatic ring conformer: 64.44342881360102 kcal/mol)

>  <smiles>  (15) 
CCN(Cc1ccccc1)C(=O)CN1CCN(Cc2ccc(Cl)cc2)CC1

>  <score_type>  (15) 
oracle

>  <origin>  (15) 
adg

>  <m_score__min__energy>  (15) 
-9.0800000000000001

>  <m_primary>  (15) 
energy

$$$$
15:0
     RDKit          3D

 37 37  0  0  0  0  0  0  0  0999 V2000
   56.1170   27.7930   44.8810 H   0  0  0  0  0  0  0  0  0  0  0  0
   55.5140   28.6090   44.8890 O   0  0  0  0  0  0  0  0  0  0  0  0
   55.5470   29.5380   43.8720 N   0  0  0  0  0  0  0  0  0  0  0  0
   56.6510   29.8680   43.2810 C   0  0  0  0  0  0  0  0  0  0  0  0
   57.0265   29.2450   42.4559 H   0  0  0  0  0  0  0  0  0  0  0  0
   57.4200   31.0670   43.6920 C   0  0  0  0  0  0  0  0  0  0  0  0
   57.9150   31.2550   44.9420 N   0  0  0  0  0  0  0  0  0  0  0  0
   57.7650   30.4090   46.1290 C   0  0  0  0  0  0  0  0  0  0  0  0
   56.7128   30.1022   46.2224 H   0  0  0  0  0  0  0  0  0  0  0  0
   58.0764   30.9844   47.0133 H   0  0  0  0  0  0  0  0  0  0  0  0
   58.6450   29.1590   46.0220 C   0  0  0  0  0  0  0  0  0  0  0  0
   59.2684   29.0795   46.9248 H   0  0  0  0  0  0  0  0  0  0  0  0
   59.2756   29.2499   45.1253 H   0  0  0  0  0  0  0  0  0  0  0  0
   57.8540   27.9910   45.9010 O   0  0  0  0  0  0  0  0  0  0  0  0
   58.0030   27.1460   47.0270 C   0  0  0  0  0  0  0  0  0  0  0  0
   57.6839   27.6863   47.9305 H   0  0  0  0  0  0  0  0  0  0  0  0
   59.0594   26.8524   47.1158 H   0  0  0  0  0  0  0  0  0  0  0  0
   57.1510   25.8890   46.8650 C   0  0  0  0  0  0  0  0  0  0  0  0
   57.0334   25.3953   47.8409 H   0  0  0  0  0  0  0  0  0  0  0  0
   57.6416   25.1961   46.1656 H   0  0  0  0  0  0  0  0  0  0  0  0
   55.8820   26.2530   46.3630 O   0  0  0  0  0  0  0  0  0  0  0  0
   55.3190   25.1910   45.6160 C   0  0  0  0  0  0  0  0  0  0  0  0
   54.5427   25.5897   44.9463 H   0  0  0  0  0  0  0  0  0  0  0  0
   54.8783   24.4594   46.3092 H   0  0  0  0  0  0  0  0  0  0  0  0
   56.3950   24.5020   44.7850 C   0  0  0  0  0  0  0  0  0  0  0  0
   57.1300   24.0313   45.4545 H   0  0  0  0  0  0  0  0  0  0  0  0
   55.9314   23.7323   44.1504 H   0  0  0  0  0  0  0  0  0  0  0  0
   56.9001   25.2451   44.1504 H   0  0  0  0  0  0  0  0  0  0  0  0
   58.5170   32.4610   44.9230 C   0  0  0  0  0  0  0  0  0  0  0  0
   59.0182   32.9415   45.7762 H   0  0  0  0  0  0  0  0  0  0  0  0
   58.4000   32.9910   43.6580 C   0  0  0  0  0  0  0  0  0  0  0  0
   58.7979   33.9625   43.3295 H   0  0  0  0  0  0  0  0  0  0  0  0
   57.7160   32.1200   42.8890 N   0  0  0  0  0  0  0  0  0  0  0  0
   57.3750   32.3250   41.4840 C   0  0  0  0  0  0  0  0  0  0  0  0
   56.4342   32.8906   41.4138 H   0  0  0  0  0  0  0  0  0  0  0  0
   58.1797   32.8892   40.9899 H   0  0  0  0  0  0  0  0  0  0  0  0
   57.2542   31.3497   40.9899 H   0  0  0  0  0  0  0  0  0  0  0  0
  1  2  1  0
  2  3  1  0
  3  4  2  0
  4  5  1  0
  4  6  1  0
  6  7  1  0
  7  8  1  0
  8  9  1  0
  8 10  1  0
  8 11  1  0
 11 12  1  0
 11 13  1  0
 11 14  1  0
 14 15  1  0
 15 16  1  0
 15 17  1  0
 15 18  1  0
 18 19  1  0
 18 20  1  0
 18 21  1  0
 21 22  1  0
 22 23  1  0
 22 24  1  0
 22 25  1  0
 25 26  1  0
 25 27  1  0
 25 28  1  0
  7 29  1  0
 29 30  1  0
 29 31  2  0
 31 32  1  0
 31 33  1  0
 33 34  1  0
 34 35  1  0
 34 36  1  0
 34 37  1  0
 33  6  2  0
M  CHG  1  33   1
M  END
>  <UniqueID>  (16) 
16

>  <SMILES>  (16) 
CCOCCOCCn1cc[n+](C)c1/C=N/O

>  <Energy>  (16) 
63.27527527536164

>  <Genealogy>  (16) 
CCOCCOCCn1cc[n+](C)c1/C=N/O (cis-trans isomerization)
CCOCCOCCn1cc[n+](C)c1/C=N/O (3D coordinates assigned)
CCOCCOCCn1cc[n+](C)c1/C=N/O (optimized conformer: 63.27527527536164 kcal/mol)

>  <smiles>  (16) 
CCOCCOCCn1cc[n+](C)c1C=NO

>  <score_type>  (16) 
oracle

>  <origin>  (16) 
adg

>  <m_score__min__energy>  (16) 
-4.3300000000000001

>  <m_primary>  (16) 
energy

$$$$
16:0
     RDKit          3D

 60 62  0  0  0  0  0  0  0  0999 V2000
   63.3200   33.5180   46.8800 C   0  0  0  0  0  0  0  0  0  0  0  0
   63.3350   33.0910   48.3370 C   0  0  0  0  0  0  0  0  0  0  0  0
   62.2770   33.7280   49.0200 O   0  0  0  0  0  0  0  0  0  0  0  0
   62.5240   33.7400   50.4150 C   0  0  0  0  0  0  0  0  0  0  0  0
   61.2350   33.4690   51.1880 C   0  0  0  0  0  0  0  0  0  0  0  0
   60.1260   33.7330   50.3550 O   0  0  0  0  0  0  0  0  0  0  0  0
   59.0330   32.9040   50.7000 C   0  0  0  0  0  0  0  0  0  0  0  0
   58.8430   31.8100   49.6460 C   0  0  0  0  0  0  0  0  0  0  0  0
   59.9450   31.8150   48.6860 N   0  0  0  0  0  0  0  0  0  0  0  0
   59.6640   31.7170   47.2830 C   0  0  0  0  0  0  0  0  0  0  0  0
   59.4360   30.4630   46.6670 C   0  0  0  0  0  0  0  0  0  0  0  0
   58.7310   30.4530   45.4350 C   0  0  0  0  0  0  0  0  0  0  0  0
   58.3840   31.6350   44.8090 N   0  0  0  0  0  0  0  0  0  0  0  0
   57.4590   31.6190   43.6550 C   0  0  0  0  0  0  0  0  0  0  0  0
   58.8960   32.8320   45.2620 C   0  0  0  0  0  0  0  0  0  0  0  0
   58.8120   34.0210   44.4960 C   0  0  0  0  0  0  0  0  0  0  0  0
   59.2420   35.2430   45.0170 C   0  0  0  0  0  0  0  0  0  0  0  0
   59.7620   35.3090   46.3040 C   0  0  0  0  0  0  0  0  0  0  0  0
   59.8860   34.1480   47.0660 C   0  0  0  0  0  0  0  0  0  0  0  0
   59.4920   32.8980   46.5430 C   0  0  0  0  0  0  0  0  0  0  0  0
   58.2540   29.1190   44.8960 C   0  0  0  0  0  0  0  0  0  0  0  0
   59.1960   27.9960   45.2840 C   0  0  0  0  0  0  0  0  0  0  0  0
   59.4760   28.0150   46.7240 N   0  0  0  0  0  0  0  0  0  0  0  0
   59.3230   26.7440   47.4630 C   0  0  0  0  0  0  0  0  0  0  0  0
   58.4330   25.7890   46.6760 C   0  0  0  0  0  0  0  0  0  0  0  0
   59.8420   29.1440   47.2950 C   0  0  0  0  0  0  0  0  0  0  0  0
   60.7680   29.1020   48.4930 C   0  0  0  0  0  0  0  0  0  0  0  0
   63.2814   34.6157   46.8200 H   0  0  0  0  0  0  0  0  0  0  0  0
   64.2314   33.1554   46.3822 H   0  0  0  0  0  0  0  0  0  0  0  0
   62.4363   33.0923   46.3822 H   0  0  0  0  0  0  0  0  0  0  0  0
   63.2101   32.0000   48.4016 H   0  0  0  0  0  0  0  0  0  0  0  0
   64.2938   33.3757   48.7948 H   0  0  0  0  0  0  0  0  0  0  0  0
   63.2627   32.9622   50.6587 H   0  0  0  0  0  0  0  0  0  0  0  0
   62.9086   34.7304   50.7000 H   0  0  0  0  0  0  0  0  0  0  0  0
   61.2124   32.4165   51.5070 H   0  0  0  0  0  0  0  0  0  0  0  0
   61.1932   34.1199   52.0738 H   0  0  0  0  0  0  0  0  0  0  0  0
   59.2259   32.4370   51.6771 H   0  0  0  0  0  0  0  0  0  0  0  0
   58.1206   33.5164   50.7488 H   0  0  0  0  0  0  0  0  0  0  0  0
   58.8050   30.8308   50.1458 H   0  0  0  0  0  0  0  0  0  0  0  0
   57.9044   32.0015   49.1053 H   0  0  0  0  0  0  0  0  0  0  0  0
   60.9050   32.1000   48.9870 H   0  0  0  0  0  0  0  0  0  0  0  0
   56.4206   31.6010   44.0176 H   0  0  0  0  0  0  0  0  0  0  0  0
   57.6187   32.5200   43.0446 H   0  0  0  0  0  0  0  0  0  0  0  0
   57.6497   30.7240   43.0446 H   0  0  0  0  0  0  0  0  0  0  0  0
   58.4021   33.9808   43.4760 H   0  0  0  0  0  0  0  0  0  0  0  0
   59.1690   36.1556   44.4072 H   0  0  0  0  0  0  0  0  0  0  0  0
   60.0758   36.2771   46.7215 H   0  0  0  0  0  0  0  0  0  0  0  0
   60.2952   34.2070   48.0854 H   0  0  0  0  0  0  0  0  0  0  0  0
   57.2550   28.9049   45.3037 H   0  0  0  0  0  0  0  0  0  0  0  0
   58.2229   29.1807   43.7982 H   0  0  0  0  0  0  0  0  0  0  0  0
   58.7346   27.0329   45.0205 H   0  0  0  0  0  0  0  0  0  0  0  0
   60.1435   28.1320   44.7421 H   0  0  0  0  0  0  0  0  0  0  0  0
   60.3122   26.2850   47.6075 H   0  0  0  0  0  0  0  0  0  0  0  0
   58.8605   26.9471   48.4401 H   0  0  0  0  0  0  0  0  0  0  0  0
   57.8539   25.1676   47.3749 H   0  0  0  0  0  0  0  0  0  0  0  0
   57.7444   26.3675   46.0426 H   0  0  0  0  0  0  0  0  0  0  0  0
   59.0585   25.1428   46.0426 H   0  0  0  0  0  0  0  0  0  0  0  0
   60.1728   29.1290   49.4176 H   0  0  0  0  0  0  0  0  0  0  0  0
   61.3612   28.1760   48.4657 H   0  0  0  0  0  0  0  0  0  0  0  0
   61.4425   29.9705   48.4657 H   0  0  0  0  0  0  0  0  0  0  0  0
  1  2  1  0
  2  3  1  0
  3  4  1  0
  4  5  1  0
  5  6  1  0
  6  7  1  0
  7  8  1  0
  8  9  1  0
  9 10  1  0
 10 11  2  0
 11 12  1  0
 12 13  2  0
 13 14  1  0
 13 15  1  0
 15 16  2  0
 16 17  1  0
 17 18  2  0
 18 19  1  0
 19 20  2  0
 12 21  1  0
 21 22  1  0
 22 23  1  0
 23 24  1  0
 24 25  1  0
 23 26  2  0
 26 27  1  0
 20 10  1  0
 26 11  1  0
 20 15  1  0
  1 28  1  0
  1 29  1  0
  1 30  1  0
  2 31  1  0
  2 32  1  0
  4 33  1  0
  4 34  1  0
  5 35  1  0
  5 36  1  0
  7 37  1  0
  7 38  1  0
  8 39  1  0
  8 40  1  0
  9 41  1  0
 14 42  1  0
 14 43  1  0
 14 44  1  0
 16 45  1  0
 17 46  1  0
 18 47  1  0
 19 48  1  0
 21 49  1  0
 21 50  1  0
 22 51  1  0
 22 52  1  0
 24 53  1  0
 24 54  1  0
 25 55  1  0
 25 56  1  0
 25 57  1  0
 27 58  1  0
 27 59  1  0
 27 60  1  0
M  CHG  2  13   1  23   1
M  END
>  <UniqueID>  (17) 
17

>  <SMILES>  (17) 
CCOCCOCCNc1c2c([n+](C)c3ccccc13)CC[N+](CC)=C2C

>  <Energy>  (17) 
95.36404799951573

>  <Genealogy>  (17) 
CCOCCOCCNc1c2c([n+](C)c3ccccc13)CC[N+](CC)=C2C (3D coordinates assigned)
CCOCCOCCNc1c2c([n+](C)c3ccccc13)CC[N+](CC)=C2C (nonaromatic ring conformer: 95.36404799951573 kcal/mol)

>  <smiles>  (17) 
CCOCCOCCNc1c2c([n+](C)c3ccccc13)CC[N+](CC)=C2C

>  <score_type>  (17) 
oracle

>  <origin>  (17) 
adg

>  <m_score__min__energy>  (17) 
-4.4800000000000004

>  <m_primary>  (17) 
energy

$$$$
17:0
     RDKit          3D

 27 27  0  0  0  0  0  0  0  0999 V2000
   55.6910   30.0970   45.6270 H   0  0  0  0  0  0  0  0  0  0  0  0
   55.2210   29.4590   44.9970 O   0  0  0  0  0  0  0  0  0  0  0  0
   55.3370   29.6250   43.6360 N   0  0  0  0  0  0  0  0  0  0  0  0
   56.4610   29.4510   43.0140 C   0  0  0  0  0  0  0  0  0  0  0  0
   56.4646   29.4508   41.9140 H   0  0  0  0  0  0  0  0  0  0  0  0
   57.7370   29.2530   43.7310 C   0  0  0  0  0  0  0  0  0  0  0  0
   58.4550   30.2340   44.3300 N   0  0  0  0  0  0  0  0  0  0  0  0
   58.1160   31.6500   44.4970 C   0  0  0  0  0  0  0  0  0  0  0  0
   57.8602   32.0793   43.5171 H   0  0  0  0  0  0  0  0  0  0  0  0
   58.9818   32.1756   44.9261 H   0  0  0  0  0  0  0  0  0  0  0  0
   57.0130   31.7940   45.3710 O   0  0  0  0  0  0  0  0  0  0  0  0
   57.0130   33.0850   45.9450 C   0  0  0  0  0  0  0  0  0  0  0  0
   57.5070   33.0512   46.9273 H   0  0  0  0  0  0  0  0  0  0  0  0
   55.9775   33.4338   46.0717 H   0  0  0  0  0  0  0  0  0  0  0  0
   57.7650   34.0370   45.0300 C   0  0  0  0  0  0  0  0  0  0  0  0
   58.3335   34.7568   45.6372 H   0  0  0  0  0  0  0  0  0  0  0  0
   58.4577   33.4650   44.3952 H   0  0  0  0  0  0  0  0  0  0  0  0
   57.0481   34.5784   44.3952 H   0  0  0  0  0  0  0  0  0  0  0  0
   59.5120   29.6150   44.8950 C   0  0  0  0  0  0  0  0  0  0  0  0
   60.3154   30.1079   45.4622 H   0  0  0  0  0  0  0  0  0  0  0  0
   59.4190   28.2620   44.6440 C   0  0  0  0  0  0  0  0  0  0  0  0
   60.1304   27.4936   44.9810 H   0  0  0  0  0  0  0  0  0  0  0  0
   58.3070   28.0430   43.9150 N   0  0  0  0  0  0  0  0  0  0  0  0
   57.7950   26.7450   43.4860 C   0  0  0  0  0  0  0  0  0  0  0  0
   57.5546   26.1355   44.3695 H   0  0  0  0  0  0  0  0  0  0  0  0
   56.8868   26.8903   42.8826 H   0  0  0  0  0  0  0  0  0  0  0  0
   58.5578   26.2312   42.8826 H   0  0  0  0  0  0  0  0  0  0  0  0
  1  2  1  0
  2  3  1  0
  3  4  2  0
  4  5  1  0
  4  6  1  0
  6  7  1  0
  7  8  1  0
  8  9  1  0
  8 10  1  0
  8 11  1  0
 11 12  1  0
 12 13  1  0
 12 14  1  0
 12 15  1  0
 15 16  1  0
 15 17  1  0
 15 18  1  0
  7 19  1  0
 19 20  1  0
 19 21  2  0
 21 22  1  0
 21 23  1  0
 23 24  1  0
 24 25  1  0
 24 26  1  0
 24 27  1  0
 23  6  2  0
M  CHG  1  23   1
M  END
>  <UniqueID>  (18) 
18

>  <SMILES>  (18) 
CCOCn1cc[n+](C)c1/C=N\O

>  <Energy>  (18) 
58.77549915829018

>  <Genealogy>  (18) 
CCOCn1cc[n+](C)c1/C=N\O (cis-trans isomerization)
CCOCn1cc[n+](C)c1/C=N\O (3D coordinates assigned)
CCOCn1cc[n+](C)c1/C=N\O (optimized conformer: 58.77549915829018 kcal/mol)

>  <smiles>  (18) 
CCOCn1cc[n+](C)c1C=NO

>  <score_type>  (18) 
oracle

>  <origin>  (18) 
adg

>  <m_score__min__energy>  (18) 
-4.1100000000000003

>  <m_primary>  (18) 
energy

$$$$
18:0
     RDKit          3D

 74 76  0  0  0  0  0  0  0  0999 V2000
   60.3790   27.3650   52.8630 C   0  0  0  0  0  0  0  0  0  0  0  0
   59.1210   27.7890   53.6270 C   0  0  0  0  0  0  0  0  0  0  0  0
   58.4620   28.9710   53.0370 N   0  0  0  0  0  0  0  0  0  0  0  0
   57.4630   29.6240   53.9060 C   0  0  0  0  0  0  0  0  0  0  0  0
   56.3460   30.3530   53.1350 C   0  0  0  0  0  0  0  0  0  0  0  0
   56.6080   30.3710   51.6870 N   0  0  0  0  0  0  0  0  0  0  0  0
   57.4930   31.4700   51.2630 C   0  0  0  0  0  0  0  0  0  0  0  0
   58.7030   31.0050   50.4240 C   0  0  0  0  0  0  0  0  0  0  0  0
   58.9740   29.6270   50.6040 O   0  0  0  0  0  0  0  0  0  0  0  0
   59.8980   29.1680   49.6400 C   0  0  0  0  0  0  0  0  0  0  0  0
   61.0000   30.2150   49.4830 C   0  0  0  0  0  0  0  0  0  0  0  0
   61.3420   30.4370   48.0740 N   0  0  0  0  0  0  0  0  0  0  0  0
   60.3720   30.7870   47.0680 C   0  0  0  0  0  0  0  0  0  0  0  0
   60.1680   32.1460   46.7610 C   0  0  0  0  0  0  0  0  0  0  0  0
   60.9410   33.1510   47.4530 N   0  0  0  0  0  0  0  0  0  0  0  0
   62.2750   33.4980   46.9250 C   0  0  0  0  0  0  0  0  0  0  0  0
   63.2520   34.0530   47.9870 C   0  0  0  0  0  0  0  0  0  0  0  0
   63.1720   33.4090   49.3780 C   0  0  0  0  0  0  0  0  0  0  0  0
   62.0860   34.0140   50.2790 C   0  0  0  0  0  0  0  0  0  0  0  0
   60.6510   33.6010   49.9220 C   0  0  0  0  0  0  0  0  0  0  0  0
   60.2480   33.9550   48.4810 C   0  0  0  0  0  0  0  0  0  0  0  0
   59.2220   32.5060   45.8290 N   0  0  0  0  0  0  0  0  0  0  0  0
   59.1210   33.9060   45.3710 C   0  0  0  0  0  0  0  0  0  0  0  0
   58.3540   31.5540   45.3380 C   0  0  0  0  0  0  0  0  0  0  0  0
   57.2420   31.9070   44.5320 C   0  0  0  0  0  0  0  0  0  0  0  0
   56.3680   30.9360   44.0510 C   0  0  0  0  0  0  0  0  0  0  0  0
   56.5700   29.5970   44.3630 C   0  0  0  0  0  0  0  0  0  0  0  0
   57.6520   29.2190   45.1530 C   0  0  0  0  0  0  0  0  0  0  0  0
   58.5670   30.1830   45.6450 C   0  0  0  0  0  0  0  0  0  0  0  0
   59.6500   29.8200   46.4130 N   0  0  0  0  0  0  0  0  0  0  0  0
   60.0580   28.4050   46.5050 C   0  0  0  0  0  0  0  0  0  0  0  0
   61.1704   27.0983   53.5790 H   0  0  0  0  0  0  0  0  0  0  0  0
   60.1482   26.4950   52.2307 H   0  0  0  0  0  0  0  0  0  0  0  0
   60.7219   28.1972   52.2307 H   0  0  0  0  0  0  0  0  0  0  0  0
   58.4084   26.9510   53.6225 H   0  0  0  0  0  0  0  0  0  0  0  0
   59.4296   28.0582   54.6479 H   0  0  0  0  0  0  0  0  0  0  0  0
   59.1990   29.6660   52.7760 H   0  0  0  0  0  0  0  0  0  0  0  0
   57.9900   28.6830   52.1470 H   0  0  0  0  0  0  0  0  0  0  0  0
   57.0000   28.8540   54.5407 H   0  0  0  0  0  0  0  0  0  0  0  0
   57.9982   30.3872   54.4901 H   0  0  0  0  0  0  0  0  0  0  0  0
   55.3914   29.8381   53.3184 H   0  0  0  0  0  0  0  0  0  0  0  0
   56.3065   31.3935   53.4898 H   0  0  0  0  0  0  0  0  0  0  0  0
   57.0100   29.4500   51.3960 H   0  0  0  0  0  0  0  0  0  0  0  0
   56.9040   32.1772   50.6605 H   0  0  0  0  0  0  0  0  0  0  0  0
   57.8944   31.9303   52.1779 H   0  0  0  0  0  0  0  0  0  0  0  0
   58.4899   31.1893   49.3607 H   0  0  0  0  0  0  0  0  0  0  0  0
   59.5853   31.5715   50.7565 H   0  0  0  0  0  0  0  0  0  0  0  0
   60.3366   28.2152   49.9714 H   0  0  0  0  0  0  0  0  0  0  0  0
   59.3895   29.0106   48.6774 H   0  0  0  0  0  0  0  0  0  0  0  0
   60.6548   31.1638   49.9196 H   0  0  0  0  0  0  0  0  0  0  0  0
   61.8986   29.8466   49.9996 H   0  0  0  0  0  0  0  0  0  0  0  0
   62.3480   30.4210   47.8060 H   0  0  0  0  0  0  0  0  0  0  0  0
   62.7193   32.5918   46.4876 H   0  0  0  0  0  0  0  0  0  0  0  0
   62.1240   34.2982   46.1854 H   0  0  0  0  0  0  0  0  0  0  0  0
   64.2753   33.9116   47.6092 H   0  0  0  0  0  0  0  0  0  0  0  0
   62.9663   35.1054   48.1310 H   0  0  0  0  0  0  0  0  0  0  0  0
   62.9608   32.3368   49.2522 H   0  0  0  0  0  0  0  0  0  0  0  0
   64.1374   33.5926   49.8722 H   0  0  0  0  0  0  0  0  0  0  0  0
   62.2854   33.6994   51.3140 H   0  0  0  0  0  0  0  0  0  0  0  0
   62.1389   35.1038   50.1394 H   0  0  0  0  0  0  0  0  0  0  0  0
   60.5604   32.5123   50.0508 H   0  0  0  0  0  0  0  0  0  0  0  0
   59.9793   34.1592   50.5907 H   0  0  0  0  0  0  0  0  0  0  0  0
   59.1649   33.7948   48.3746 H   0  0  0  0  0  0  0  0  0  0  0  0
   60.5369   35.0035   48.3161 H   0  0  0  0  0  0  0  0  0  0  0  0
   59.0728   34.5745   46.2432 H   0  0  0  0  0  0  0  0  0  0  0  0
   60.0033   34.1579   44.7643 H   0  0  0  0  0  0  0  0  0  0  0  0
   58.2117   34.0286   44.7643 H   0  0  0  0  0  0  0  0  0  0  0  0
   57.0673   32.9641   44.2830 H   0  0  0  0  0  0  0  0  0  0  0  0
   55.5147   31.2296   43.4219 H   0  0  0  0  0  0  0  0  0  0  0  0
   55.8734   28.8342   43.9849 H   0  0  0  0  0  0  0  0  0  0  0  0
   57.7989   28.1570   45.3989 H   0  0  0  0  0  0  0  0  0  0  0  0
   60.1415   28.1155   47.5629 H   0  0  0  0  0  0  0  0  0  0  0  0
   59.3054   27.7735   46.0103 H   0  0  0  0  0  0  0  0  0  0  0  0
   61.0313   28.2711   46.0103 H   0  0  0  0  0  0  0  0  0  0  0  0
  1  2  1  0
  2  3  1  0
  3  4  1  0
  4  5  1  0
  5  6  1  0
  6  7  1  0
  7  8  1  0
  8  9  1  0
  9 10  1  0
 10 11  1  0
 11 12  1  0
 12 13  1  0
 13 14  2  0
 14 15  1  0
 15 16  1  0
 16 17  1  0
 17 18  1  0
 18 19  1  0
 19 20  1  0
 20 21  1  0
 14 22  1  0
 22 23  1  0
 22 24  2  0
 24 25  1  0
 25 26  2  0
 26 27  1  0
 27 28  2  0
 28 29  1  0
 29 30  2  0
 30 31  1  0
 30 13  1  0
 21 15  1  0
 29 24  1  0
  1 32  1  0
  1 33  1  0
  1 34  1  0
  2 35  1  0
  2 36  1  0
  3 37  1  0
  3 38  1  0
  4 39  1  0
  4 40  1  0
  5 41  1  0
  5 42  1  0
  6 43  1  0
  7 44  1  0
  7 45  1  0
  8 46  1  0
  8 47  1  0
 10 48  1  0
 10 49  1  0
 11 50  1  0
 11 51  1  0
 12 52  1  0
 16 53  1  0
 16 54  1  0
 17 55  1  0
 17 56  1  0
 18 57  1  0
 18 58  1  0
 19 59  1  0
 19 60  1  0
 20 61  1  0
 20 62  1  0
 21 63  1  0
 21 64  1  0
 23 65  1  0
 23 66  1  0
 23 67  1  0
 25 68  1  0
 26 69  1  0
 27 70  1  0
 28 71  1  0
 31 72  1  0
 31 73  1  0
 31 74  1  0
M  CHG  3   3   1  22   1  30   1
M  END
>  <UniqueID>  (19) 
19

>  <SMILES>  (19) 
CC[NH2+]CCNCCOCCNc1c(N2CCCCCC2)[n+](C)c2ccccc2[n+]1C

>  <Energy>  (19) 
104.7856653704735

>  <Genealogy>  (19) 
CC[NH2+]CCNCCOCCNc1c(N2CCCCCC2)[n+](C)c2ccccc2[n+]1C (protonated)
CC[NH2+]CCNCCOCCNc1c(N2CCCCCC2)[n+](C)c2ccccc2[n+]1C (3D coordinates assigned)
CC[NH2+]CCNCCOCCNc1c(N2CCCCCC2)[n+](C)c2ccccc2[n+]1C (nonaromatic ring conformer: 104.7856653704735 kcal/mol)

>  <smiles>  (19) 
CCNCCNCCOCCNc1c(N2CCCCCC2)[n+](C)c2ccccc2[n+]1C

>  <score_type>  (19) 
oracle

>  <origin>  (19) 
adg

>  <m_score__min__energy>  (19) 
-1.46

>  <m_primary>  (19) 
energy

$$$$
19:0
     RDKit          3D

 43 45  0  0  0  0  0  0  0  0999 V2000
   57.0320   32.6810   40.3660 C   0  0  0  0  0  0  0  0  0  0  0  0
   57.7180   32.3420   41.6880 C   0  0  0  0  0  0  0  0  0  0  0  0
   57.0220   31.1930   42.4240 C   0  0  0  0  0  0  0  0  0  0  0  0
   57.8890   30.6380   43.4630 N   0  0  0  0  0  0  0  0  0  0  0  0
   57.7420   30.9600   44.8550 C   0  0  0  0  0  0  0  0  0  0  0  0
   56.8500   31.7690   45.2300 O   0  0  0  0  0  0  0  0  0  0  0  0
   58.6780   30.4020   45.8540 C   0  0  0  0  0  0  0  0  0  0  0  0
   59.6910   31.2380   46.3440 C   0  0  0  0  0  0  0  0  0  0  0  0
   60.6450   30.7410   47.2460 C   0  0  0  0  0  0  0  0  0  0  0  0
   61.7410   31.5930   47.7750 C   0  0  0  0  0  0  0  0  0  0  0  0
   62.4190   31.2630   48.9650 C   0  0  0  0  0  0  0  0  0  0  0  0
   63.4420   32.0850   49.4490 C   0  0  0  0  0  0  0  0  0  0  0  0
   63.7950   33.2460   48.7580 C   0  0  0  0  0  0  0  0  0  0  0  0
   63.1230   33.5900   47.5840 C   0  0  0  0  0  0  0  0  0  0  0  0
   62.0990   32.7720   47.0950 C   0  0  0  0  0  0  0  0  0  0  0  0
   60.5550   29.4480   47.6570 N   0  0  0  0  0  0  0  0  0  0  0  0
   59.5800   28.6030   47.2290 C   0  0  0  0  0  0  0  0  0  0  0  0
   59.5400   27.2770   47.7080 C   0  0  0  0  0  0  0  0  0  0  0  0
   60.5790   26.7790   48.6750 C   0  0  0  0  0  0  0  0  0  0  0  0
   58.5060   26.4250   47.2920 C   0  0  0  0  0  0  0  0  0  0  0  0
   57.5230   26.8830   46.4170 C   0  0  0  0  0  0  0  0  0  0  0  0
   57.5600   28.1920   45.9340 C   0  0  0  0  0  0  0  0  0  0  0  0
   58.5990   29.0650   46.3150 C   0  0  0  0  0  0  0  0  0  0  0  0
   56.0626   33.1600   40.5682 H   0  0  0  0  0  0  0  0  0  0  0  0
   57.6676   33.3687   39.7889 H   0  0  0  0  0  0  0  0  0  0  0  0
   56.8718   31.7584   39.7889 H   0  0  0  0  0  0  0  0  0  0  0  0
   58.7590   32.0519   41.4826 H   0  0  0  0  0  0  0  0  0  0  0  0
   57.6698   33.2330   42.3313 H   0  0  0  0  0  0  0  0  0  0  0  0
   56.0987   31.5696   42.8885 H   0  0  0  0  0  0  0  0  0  0  0  0
   56.7907   30.3995   41.6982 H   0  0  0  0  0  0  0  0  0  0  0  0
   58.7170   30.0770   43.1610 H   0  0  0  0  0  0  0  0  0  0  0  0
   59.7386   32.2882   46.0202 H   0  0  0  0  0  0  0  0  0  0  0  0
   62.1420   30.3529   49.5172 H   0  0  0  0  0  0  0  0  0  0  0  0
   63.9696   31.8163   50.3760 H   0  0  0  0  0  0  0  0  0  0  0  0
   64.6022   33.8891   49.1387 H   0  0  0  0  0  0  0  0  0  0  0  0
   63.3993   34.5065   47.0420 H   0  0  0  0  0  0  0  0  0  0  0  0
   61.5698   33.0523   46.1723 H   0  0  0  0  0  0  0  0  0  0  0  0
   60.2310   26.9458   49.7051 H   0  0  0  0  0  0  0  0  0  0  0  0
   60.7447   25.7036   48.5135 H   0  0  0  0  0  0  0  0  0  0  0  0
   61.5211   27.3234   48.5135 H   0  0  0  0  0  0  0  0  0  0  0  0
   58.4710   25.3886   47.6590 H   0  0  0  0  0  0  0  0  0  0  0  0
   56.7123   26.2083   46.1048 H   0  0  0  0  0  0  0  0  0  0  0  0
   56.7729   28.5448   45.2513 H   0  0  0  0  0  0  0  0  0  0  0  0
  1  2  1  0
  2  3  1  0
  3  4  1  0
  4  5  1  0
  5  6  2  0
  5  7  1  0
  7  8  2  0
  8  9  1  0
  9 10  1  0
 10 11  2  0
 11 12  1  0
 12 13  2  0
 13 14  1  0
 14 15  2  0
  9 16  2  0
 16 17  1  0
 17 18  2  0
 18 19  1  0
 18 20  1  0
 20 21  2  0
 21 22  1  0
 22 23  2  0
 23  7  1  0
 15 10  1  0
 23 17  1  0
  1 24  1  0
  1 25  1  0
  1 26  1  0
  2 27  1  0
  2 28  1  0
  3 29  1  0
  3 30  1  0
  4 31  1  0
  8 32  1  0
 11 33  1  0
 12 34  1  0
 13 35  1  0
 14 36  1  0
 15 37  1  0
 19 38  1  0
 19 39  1  0
 19 40  1  0
 20 41  1  0
 21 42  1  0
 22 43  1  0
M  END
>  <UniqueID>  (20) 
20

>  <SMILES>  (20) 
CCCNC(=O)c1cc(-c2ccccc2)nc2c(C)cccc12

>  <Energy>  (20) 
53.28313692849249

>  <Genealogy>  (20) 
CCCNC(=O)c1cc(-c2ccccc2)nc2c(C)cccc12 (3D coordinates assigned)
CCCNC(=O)c1cc(-c2ccccc2)nc2c(C)cccc12 (optimized conformer: 53.28313692849249 kcal/mol)

>  <smiles>  (20) 
CCCNC(=O)c1cc(-c2ccccc2)nc2c(C)cccc12

>  <score_type>  (20) 
oracle

>  <origin>  (20) 
adg

>  <m_score__min__energy>  (20) 
-7.8200000000000003

>  <m_primary>  (20) 
energy

$$$$
20:0
     RDKit          3D

 46 47  0  0  0  0  0  0  0  0999 V2000
   57.7720   32.3550   41.1560 C   0  0  0  0  0  0  0  0  0  0  0  0
   58.1130   32.2560   42.6390 C   0  0  0  0  0  0  0  0  0  0  0  0
   57.2300   31.2930   43.3020 N   0  0  0  0  0  0  0  0  0  0  0  0
   56.4510   30.3900   42.6840 C   0  0  0  0  0  0  0  0  0  0  0  0
   55.8260   29.6300   43.6460 C   0  0  0  0  0  0  0  0  0  0  0  0
   56.2140   30.0420   44.8700 N   0  0  0  0  0  0  0  0  0  0  0  0
   57.0740   31.0540   44.6250 C   0  0  0  0  0  0  0  0  0  0  0  0
   57.7580   31.8090   45.7320 C   0  0  0  0  0  0  0  0  0  0  0  0
   59.0020   31.1120   46.1250 N   0  0  0  0  0  0  0  0  0  0  0  0
   58.7890   29.6500   46.2280 C   0  0  0  0  0  0  0  0  0  0  0  0
   59.8880   28.9050   45.4680 C   0  0  0  0  0  0  0  0  0  0  0  0
   59.4740   28.6490   44.1390 O   0  0  0  0  0  0  0  0  0  0  0  0
   58.5220   27.6080   44.1100 C   0  0  0  0  0  0  0  0  0  0  0  0
   59.5320   31.6630   47.3920 C   0  0  0  0  0  0  0  0  0  0  0  0
   60.8930   32.2930   47.1680 C   0  0  0  0  0  0  0  0  0  0  0  0
   62.0190   31.5770   47.6160 C   0  0  0  0  0  0  0  0  0  0  0  0
   63.3060   32.0810   47.4400 C   0  0  0  0  0  0  0  0  0  0  0  0
   63.4920   33.3140   46.8210 C   0  0  0  0  0  0  0  0  0  0  0  0
   62.3920   34.0510   46.3820 C   0  0  0  0  0  0  0  0  0  0  0  0
   61.0770   33.5650   46.5520 C   0  0  0  0  0  0  0  0  0  0  0  0
   59.9060   34.4100   46.0840 C   0  0  0  0  0  0  0  0  0  0  0  0
   60.2930   35.7340   45.9850 F   0  0  0  0  0  0  0  0  0  0  0  0
   59.4710   33.9630   44.8500 F   0  0  0  0  0  0  0  0  0  0  0  0
   58.8370   34.3430   46.9610 F   0  0  0  0  0  0  0  0  0  0  0  0
   56.7214   32.6600   41.0409 H   0  0  0  0  0  0  0  0  0  0  0  0
   58.4247   33.1007   40.6787 H   0  0  0  0  0  0  0  0  0  0  0  0
   57.9239   31.3757   40.6787 H   0  0  0  0  0  0  0  0  0  0  0  0
   59.1568   31.9270   42.7499 H   0  0  0  0  0  0  0  0  0  0  0  0
   57.9772   33.2438   43.1035 H   0  0  0  0  0  0  0  0  0  0  0  0
   56.3330   30.2774   41.5962 H   0  0  0  0  0  0  0  0  0  0  0  0
   55.1183   28.8117   43.4470 H   0  0  0  0  0  0  0  0  0  0  0  0
   58.0029   32.8234   45.3841 H   0  0  0  0  0  0  0  0  0  0  0  0
   57.0853   31.8652   46.6005 H   0  0  0  0  0  0  0  0  0  0  0  0
   58.8126   29.3524   47.2867 H   0  0  0  0  0  0  0  0  0  0  0  0
   57.8123   29.3962   45.7902 H   0  0  0  0  0  0  0  0  0  0  0  0
   60.8002   29.5196   45.4527 H   0  0  0  0  0  0  0  0  0  0  0  0
   60.0889   27.9484   45.9725 H   0  0  0  0  0  0  0  0  0  0  0  0
   58.2602   27.3217   45.1393 H   0  0  0  0  0  0  0  0  0  0  0  0
   57.6190   27.9515   43.5840 H   0  0  0  0  0  0  0  0  0  0  0  0
   58.9446   26.7392   43.5840 H   0  0  0  0  0  0  0  0  0  0  0  0
   58.8379   32.4264   47.7733 H   0  0  0  0  0  0  0  0  0  0  0  0
   59.6336   30.8455   48.1209 H   0  0  0  0  0  0  0  0  0  0  0  0
   61.8809   30.6052   48.1124 H   0  0  0  0  0  0  0  0  0  0  0  0
   64.1750   31.5047   47.7901 H   0  0  0  0  0  0  0  0  0  0  0  0
   64.5089   33.7081   46.6777 H   0  0  0  0  0  0  0  0  0  0  0  0
   62.5512   35.0250   45.8963 H   0  0  0  0  0  0  0  0  0  0  0  0
  1  2  1  0
  2  3  1  0
  3  4  1  0
  4  5  2  0
  5  6  1  0
  6  7  2  0
  7  8  1  0
  8  9  1  0
  9 10  1  0
 10 11  1  0
 11 12  1  0
 12 13  1  0
  9 14  1  0
 14 15  1  0
 15 16  2  0
 16 17  1  0
 17 18  2  0
 18 19  1  0
 19 20  2  0
 20 21  1  0
 21 22  1  0
 21 23  1  0
 21 24  1  0
  7  3  1  0
 20 15  1  0
  1 25  1  0
  1 26  1  0
  1 27  1  0
  2 28  1  0
  2 29  1  0
  4 30  1  0
  5 31  1  0
  8 32  1  0
  8 33  1  0
 10 34  1  0
 10 35  1  0
 11 36  1  0
 11 37  1  0
 13 38  1  0
 13 39  1  0
 13 40  1  0
 14 41  1  0
 14 42  1  0
 16 43  1  0
 17 44  1  0
 18 45  1  0
 19 46  1  0
M  END
>  <UniqueID>  (21) 
21

>  <SMILES>  (21) 
CCn1ccnc1CN(CCOC)Cc1ccccc1C(F)(F)F

>  <Energy>  (21) 
77.05334802487505

>  <Genealogy>  (21) 
CCn1ccnc1CN(CCOC)Cc1ccccc1C(F)(F)F (3D coordinates assigned)
CCn1ccnc1CN(CCOC)Cc1ccccc1C(F)(F)F (optimized conformer: 77.05334802487505 kcal/mol)

>  <smiles>  (21) 
CCn1ccnc1CN(CCOC)Cc1ccccc1C(F)(F)F

>  <score_type>  (21) 
oracle

>  <origin>  (21) 
adg

>  <m_score__min__energy>  (21) 
-6.1900000000000004

>  <m_primary>  (21) 
energy

$$$$
21:0
     RDKit          3D

 53 55  0  0  0  0  0  0  0  0999 V2000
   55.9050   30.0790   43.7540 C   0  0  0  0  0  0  0  0  0  0  0  0
   57.2140   30.2120   44.5250 C   0  0  0  0  0  0  0  0  0  0  0  0
   57.2290   31.4340   45.2480 O   0  0  0  0  0  0  0  0  0  0  0  0
   57.3950   32.5460   44.3830 C   0  0  0  0  0  0  0  0  0  0  0  0
   57.3300   33.8690   45.1580 C   0  0  0  0  0  0  0  0  0  0  0  0
   57.9150   33.7190   46.4370 O   0  0  0  0  0  0  0  0  0  0  0  0
   58.9680   34.6420   46.6260 C   0  0  0  0  0  0  0  0  0  0  0  0
   60.0860   33.9780   47.4310 C   0  0  0  0  0  0  0  0  0  0  0  0
   60.5110   32.6370   46.8100 C   0  0  0  0  0  0  0  0  0  0  0  0
   59.3670   31.7130   46.7210 N   0  0  0  0  0  0  0  0  0  0  0  0
   59.4760   30.6550   47.7130 C   0  0  0  0  0  0  0  0  0  0  0  0
   59.1440   30.8920   49.0720 C   0  0  0  0  0  0  0  0  0  0  0  0
   58.5240   32.0950   49.4900 C   0  0  0  0  0  0  0  0  0  0  0  0
   58.1880   32.3060   50.8250 C   0  0  0  0  0  0  0  0  0  0  0  0
   58.4410   31.3230   51.7710 C   0  0  0  0  0  0  0  0  0  0  0  0
   59.0450   30.1270   51.3910 C   0  0  0  0  0  0  0  0  0  0  0  0
   59.4310   29.8930   50.0460 C   0  0  0  0  0  0  0  0  0  0  0  0
   60.0550   28.7200   49.6740 N   0  0  0  0  0  0  0  0  0  0  0  0
   60.6440   27.8340   50.7040 C   0  0  0  0  0  0  0  0  0  0  0  0
   60.1420   28.3770   48.3400 C   0  0  0  0  0  0  0  0  0  0  0  0
   60.4760   27.0570   47.9380 C   0  0  0  0  0  0  0  0  0  0  0  0
   60.6050   26.7250   46.5930 C   0  0  0  0  0  0  0  0  0  0  0  0
   60.3890   27.6850   45.6130 C   0  0  0  0  0  0  0  0  0  0  0  0
   60.0220   28.9780   45.9720 C   0  0  0  0  0  0  0  0  0  0  0  0
   59.8820   29.3480   47.3330 C   0  0  0  0  0  0  0  0  0  0  0  0
   55.0686   29.9940   44.4634 H   0  0  0  0  0  0  0  0  0  0  0  0
   55.7603   30.9671   43.1212 H   0  0  0  0  0  0  0  0  0  0  0  0
   55.9419   29.1800   43.1212 H   0  0  0  0  0  0  0  0  0  0  0  0
   57.3098   29.3714   45.2280 H   0  0  0  0  0  0  0  0  0  0  0  0
   58.0542   30.2018   43.8151 H   0  0  0  0  0  0  0  0  0  0  0  0
   58.3729   32.4699   43.8850 H   0  0  0  0  0  0  0  0  0  0  0  0
   56.5804   32.5359   43.6438 H   0  0  0  0  0  0  0  0  0  0  0  0
   57.8745   34.6441   44.5988 H   0  0  0  0  0  0  0  0  0  0  0  0
   56.2764   34.1610   45.2789 H   0  0  0  0  0  0  0  0  0  0  0  0
   59.3584   34.9589   45.6477 H   0  0  0  0  0  0  0  0  0  0  0  0
   58.5935   35.5204   47.1720 H   0  0  0  0  0  0  0  0  0  0  0  0
   60.9556   34.6511   47.4566 H   0  0  0  0  0  0  0  0  0  0  0  0
   59.7100   33.7832   48.4462 H   0  0  0  0  0  0  0  0  0  0  0  0
   60.9077   32.8174   45.8000 H   0  0  0  0  0  0  0  0  0  0  0  0
   61.2815   32.1819   47.4497 H   0  0  0  0  0  0  0  0  0  0  0  0
   58.4660   32.2290   46.8390 H   0  0  0  0  0  0  0  0  0  0  0  0
   59.2960   31.3200   45.7560 H   0  0  0  0  0  0  0  0  0  0  0  0
   58.3041   32.8761   48.7474 H   0  0  0  0  0  0  0  0  0  0  0  0
   57.7210   33.2541   51.1301 H   0  0  0  0  0  0  0  0  0  0  0  0
   58.1641   31.4886   52.8226 H   0  0  0  0  0  0  0  0  0  0  0  0
   59.2261   29.3494   52.1477 H   0  0  0  0  0  0  0  0  0  0  0  0
   60.3905   28.2153   51.7042 H   0  0  0  0  0  0  0  0  0  0  0  0
   60.2416   26.8170   50.5865 H   0  0  0  0  0  0  0  0  0  0  0  0
   61.7375   27.8115   50.5865 H   0  0  0  0  0  0  0  0  0  0  0  0
   60.6356   26.2832   48.7033 H   0  0  0  0  0  0  0  0  0  0  0  0
   60.8788   25.6993   46.3051 H   0  0  0  0  0  0  0  0  0  0  0  0
   60.5083   27.4227   44.5514 H   0  0  0  0  0  0  0  0  0  0  0  0
   59.8374   29.7256   45.1865 H   0  0  0  0  0  0  0  0  0  0  0  0
  1  2  1  0
  2  3  1  0
  3  4  1  0
  4  5  1  0
  5  6  1  0
  6  7  1  0
  7  8  1  0
  8  9  1  0
  9 10  1  0
 10 11  1  0
 11 12  2  0
 12 13  1  0
 13 14  2  0
 14 15  1  0
 15 16  2  0
 16 17  1  0
 17 18  2  0
 18 19  1  0
 18 20  1  0
 20 21  2  0
 21 22  1  0
 22 23  2  0
 23 24  1  0
 24 25  2  0
 25 11  1  0
 17 12  1  0
 25 20  1  0
  1 26  1  0
  1 27  1  0
  1 28  1  0
  2 29  1  0
  2 30  1  0
  4 31  1  0
  4 32  1  0
  5 33  1  0
  5 34  1  0
  7 35  1  0
  7 36  1  0
  8 37  1  0
  8 38  1  0
  9 39  1  0
  9 40  1  0
 10 41  1  0
 10 42  1  0
 13 43  1  0
 14 44  1  0
 15 45  1  0
 16 46  1  0
 19 47  1  0
 19 48  1  0
 19 49  1  0
 21 50  1  0
 22 51  1  0
 23 52  1  0
 24 53  1  0
M  CHG  2  10   1  18   1
M  END
>  <UniqueID>  (22) 
22

>  <SMILES>  (22) 
CCOCCOCCC[NH2+]c1c2ccccc2[n+](C)c2ccccc12

>  <Energy>  (22) 
78.63351429419632

>  <Genealogy>  (22) 
CCOCCOCCC[NH2+]c1c2ccccc2[n+](C)c2ccccc12 (protonated)
CCOCCOCCC[NH2+]c1c2ccccc2[n+](C)c2ccccc12 (3D coordinates assigned)
CCOCCOCCC[NH2+]c1c2ccccc2[n+](C)c2ccccc12 (optimized conformer: 78.63351429419632 kcal/mol)

>  <smiles>  (22) 
CCOCCOCCCNc1c2ccccc2[n+](C)c2ccccc12

>  <score_type>  (22) 
oracle

>  <origin>  (22) 
adg

>  <m_score__min__energy>  (22) 
-3.29

>  <m_primary>  (22) 
energy

$$$$
22:0
     RDKit          3D

 32 31  0  0  0  0  0  0  0  0999 V2000
   57.7850   32.7670   46.0440 C   0  0  0  0  0  0  0  0  0  0  0  0
   58.2480   31.3380   45.7540 C   0  0  0  0  0  0  0  0  0  0  0  0
   58.2120   31.0260   44.3050 N   0  0  0  0  0  0  0  0  0  0  0  0
   57.5990   32.1450   43.5520 C   0  0  0  0  0  0  0  0  0  0  0  0
   57.7550   31.9730   42.0400 C   0  0  0  0  0  0  0  0  0  0  0  0
   57.5910   29.7080   44.0060 C   0  0  0  0  0  0  0  0  0  0  0  0
   56.2210   29.5290   44.6030 C   0  0  0  0  0  0  0  0  0  0  0  0
   55.3740   30.4590   44.5210 O   0  0  0  0  0  0  0  0  0  0  0  0
   55.8880   28.3010   45.2580 N   0  0  0  0  0  0  0  0  0  0  0  0
   56.8770   27.3980   45.8360 C   0  0  0  0  0  0  0  0  0  0  0  0
   56.2340   26.0680   46.2160 C   0  0  0  0  0  0  0  0  0  0  0  0
   54.8470   26.1380   45.9590 O   0  0  0  0  0  0  0  0  0  0  0  0
   54.3740   24.8600   45.5920 C   0  0  0  0  0  0  0  0  0  0  0  0
   57.7346   32.9225   47.1318 H   0  0  0  0  0  0  0  0  0  0  0  0
   58.4982   33.4798   45.6044 H   0  0  0  0  0  0  0  0  0  0  0  0
   56.7893   32.9262   45.6044 H   0  0  0  0  0  0  0  0  0  0  0  0
   59.2792   31.2181   46.1176 H   0  0  0  0  0  0  0  0  0  0  0  0
   57.5624   30.6478   46.2674 H   0  0  0  0  0  0  0  0  0  0  0  0
   56.5272   32.1915   43.7952 H   0  0  0  0  0  0  0  0  0  0  0  0
   58.1142   33.0723   43.8430 H   0  0  0  0  0  0  0  0  0  0  0  0
   58.4811   31.1725   41.8350 H   0  0  0  0  0  0  0  0  0  0  0  0
   56.7828   31.7080   41.5989 H   0  0  0  0  0  0  0  0  0  0  0  0
   58.1133   32.9148   41.5989 H   0  0  0  0  0  0  0  0  0  0  0  0
   57.5091   29.6036   42.9140 H   0  0  0  0  0  0  0  0  0  0  0  0
   58.2380   28.9410   44.4567 H   0  0  0  0  0  0  0  0  0  0  0  0
   57.6743   27.2167   45.1002 H   0  0  0  0  0  0  0  0  0  0  0  0
   57.2932   27.8619   46.7424 H   0  0  0  0  0  0  0  0  0  0  0  0
   56.6795   25.2589   45.6185 H   0  0  0  0  0  0  0  0  0  0  0  0
   56.4044   25.8643   47.2834 H   0  0  0  0  0  0  0  0  0  0  0  0
   54.1575   24.2750   46.4981 H   0  0  0  0  0  0  0  0  0  0  0  0
   53.4556   24.9662   44.9959 H   0  0  0  0  0  0  0  0  0  0  0  0
   55.1402   24.3427   44.9959 H   0  0  0  0  0  0  0  0  0  0  0  0
  1  2  1  0
  2  3  1  0
  3  4  1  0
  4  5  1  0
  3  6  1  0
  6  7  1  0
  7  8  2  0
  7  9  1  0
  9 10  1  0
 10 11  1  0
 11 12  1  0
 12 13  1  0
  1 14  1  0
  1 15  1  0
  1 16  1  0
  2 17  1  0
  2 18  1  0
  4 19  1  0
  4 20  1  0
  5 21  1  0
  5 22  1  0
  5 23  1  0
  6 24  1  0
  6 25  1  0
 10 26  1  0
 10 27  1  0
 11 28  1  0
 11 29  1  0
 13 30  1  0
 13 31  1  0
 13 32  1  0
M  CHG  1   9  -1
M  END
>  <UniqueID>  (23) 
23

>  <SMILES>  (23) 
CCN(CC)CC(=O)[N-]CCOC

>  <Energy>  (23) 
24.7084730301474

>  <Genealogy>  (23) 
CCN(CC)CC(=O)[N-]CCOC (protonated)
CCN(CC)CC(=O)[N-]CCOC (3D coordinates assigned)
CCN(CC)CC(=O)[N-]CCOC (optimized conformer: 24.7084730301474 kcal/mol)

>  <smiles>  (23) 
CCN(CC)CC(=O)NCCOC

>  <score_type>  (23) 
oracle

>  <origin>  (23) 
adg

>  <m_score__min__energy>  (23) 
-7.29

>  <m_primary>  (23) 
energy

$$$$
23:0
     RDKit          3D

 60 63  0  0  0  0  0  0  0  0999 V2000
   58.8660   27.8380   44.3350 C   0  0  0  0  0  0  0  0  0  0  0  0
   57.8240   27.7900   45.4640 C   0  0  2  0  0  0  0  0  0  0  0  0
   56.6450   28.7470   45.1630 C   0  0  0  0  0  0  0  0  0  0  0  0
   57.0440   29.9580   44.3480 C   0  0  0  0  0  0  0  0  0  0  0  0
   56.6430   30.0740   43.0060 C   0  0  0  0  0  0  0  0  0  0  0  0
   57.0060   31.1960   42.2570 C   0  0  0  0  0  0  0  0  0  0  0  0
   57.7710   32.2090   42.8390 C   0  0  0  0  0  0  0  0  0  0  0  0
   58.1780   32.1020   44.1710 C   0  0  0  0  0  0  0  0  0  0  0  0
   57.8170   30.9810   44.9240 C   0  0  0  0  0  0  0  0  0  0  0  0
   58.4470   28.1170   46.7640 N   0  0  0  0  0  0  0  0  0  0  0  0
   59.9020   28.3270   46.6720 C   0  0  0  0  0  0  0  0  0  0  0  0
   60.3040   29.4700   47.6090 C   0  0  0  0  0  0  0  0  0  0  0  0
   59.2450   29.7260   48.6970 C   0  0  0  0  0  0  0  0  0  0  0  0
   59.6360   30.8040   49.6390 N   0  0  0  0  0  0  0  0  0  0  0  0
   60.4790   31.8030   48.9840 C   0  0  0  0  0  0  0  0  0  0  0  0
   61.8730   31.8420   49.2620 C   0  0  0  0  0  0  0  0  0  0  0  0
   62.4410   31.0960   50.3260 C   0  0  0  0  0  0  0  0  0  0  0  0
   63.8020   31.1660   50.6100 C   0  0  0  0  0  0  0  0  0  0  0  0
   64.6300   31.9820   49.8560 C   0  0  0  0  0  0  0  0  0  0  0  0
   64.1050   32.7160   48.7950 C   0  0  0  0  0  0  0  0  0  0  0  0
   62.7310   32.6360   48.4540 C   0  0  0  0  0  0  0  0  0  0  0  0
   62.2250   33.3100   47.3630 N   0  0  0  0  0  0  0  0  0  0  0  0
   63.1470   33.8340   46.3290 C   0  0  0  0  0  0  0  0  0  0  0  0
   60.8630   33.4820   47.2280 C   0  0  0  0  0  0  0  0  0  0  0  0
   60.3370   34.4310   46.3120 C   0  0  0  0  0  0  0  0  0  0  0  0
   58.9670   34.5910   46.1470 C   0  0  0  0  0  0  0  0  0  0  0  0
   58.0830   33.8370   46.9020 C   0  0  0  0  0  0  0  0  0  0  0  0
   58.5620   32.9260   47.8380 C   0  0  0  0  0  0  0  0  0  0  0  0
   59.9560   32.7200   48.0240 C   0  0  0  0  0  0  0  0  0  0  0  0
   59.8755   27.8845   44.7695 H   0  0  0  0  0  0  0  0  0  0  0  0
   58.7754   26.9347   43.7138 H   0  0  0  0  0  0  0  0  0  0  0  0
   58.6928   28.7291   43.7138 H   0  0  0  0  0  0  0  0  0  0  0  0
   57.4267   26.7659   45.5222 H   0  0  0  0  0  0  0  0  0  0  0  0
   55.8776   28.1897   44.6058 H   0  0  0  0  0  0  0  0  0  0  0  0
   56.2726   29.1160   46.1300 H   0  0  0  0  0  0  0  0  0  0  0  0
   56.0409   29.2781   42.5435 H   0  0  0  0  0  0  0  0  0  0  0  0
   56.6888   31.2816   41.2072 H   0  0  0  0  0  0  0  0  0  0  0  0
   58.0535   33.0925   42.2477 H   0  0  0  0  0  0  0  0  0  0  0  0
   58.7825   32.8998   44.6273 H   0  0  0  0  0  0  0  0  0  0  0  0
   58.1394   30.8990   45.9725 H   0  0  0  0  0  0  0  0  0  0  0  0
   58.2800   27.3290   47.4290 H   0  0  0  0  0  0  0  0  0  0  0  0
   60.4264   27.4064   46.9679 H   0  0  0  0  0  0  0  0  0  0  0  0
   60.1747   28.5828   45.6375 H   0  0  0  0  0  0  0  0  0  0  0  0
   61.2566   29.2121   48.0948 H   0  0  0  0  0  0  0  0  0  0  0  0
   60.3986   30.3852   47.0061 H   0  0  0  0  0  0  0  0  0  0  0  0
   58.3015   30.0113   48.2087 H   0  0  0  0  0  0  0  0  0  0  0  0
   59.1392   28.7994   49.2802 H   0  0  0  0  0  0  0  0  0  0  0  0
   60.1510   30.4000   50.4540 H   0  0  0  0  0  0  0  0  0  0  0  0
   58.7950   31.2050   50.0890 H   0  0  0  0  0  0  0  0  0  0  0  0
   61.7943   30.4502   50.9381 H   0  0  0  0  0  0  0  0  0  0  0  0
   64.2213   30.5718   51.4353 H   0  0  0  0  0  0  0  0  0  0  0  0
   65.7015   32.0501   50.0952 H   0  0  0  0  0  0  0  0  0  0  0  0
   64.7688   33.3701   48.2106 H   0  0  0  0  0  0  0  0  0  0  0  0
   64.0047   34.3214   46.8156 H   0  0  0  0  0  0  0  0  0  0  0  0
   63.5043   33.0040   45.7017 H   0  0  0  0  0  0  0  0  0  0  0  0
   62.6167   34.5657   45.7017 H   0  0  0  0  0  0  0  0  0  0  0  0
   61.0276   35.0513   45.7218 H   0  0  0  0  0  0  0  0  0  0  0  0
   58.5832   35.3176   45.4157 H   0  0  0  0  0  0  0  0  0  0  0  0
   56.9990   33.9591   46.7608 H   0  0  0  0  0  0  0  0  0  0  0  0
   57.8470   32.3532   48.4468 H   0  0  0  0  0  0  0  0  0  0  0  0
  1  2  1  0
  2  3  1  0
  3  4  1  0
  4  5  2  0
  5  6  1  0
  6  7  2  0
  7  8  1  0
  8  9  2  0
  2 10  1  0
 10 11  1  0
 11 12  1  0
 12 13  1  0
 13 14  1  0
 14 15  1  0
 15 16  1  0
 16 17  2  0
 17 18  1  0
 18 19  2  0
 19 20  1  0
 20 21  2  0
 21 22  1  0
 22 23  1  0
 22 24  2  0
 24 25  1  0
 25 26  2  0
 26 27  1  0
 27 28  2  0
 28 29  1  0
  9  4  1  0
 29 15  2  0
 21 16  1  0
 29 24  1  0
  1 30  1  0
  1 31  1  0
  1 32  1  0
  2 33  1  1
  3 34  1  0
  3 35  1  0
  5 36  1  0
  6 37  1  0
  7 38  1  0
  8 39  1  0
  9 40  1  0
 10 41  1  0
 11 42  1  0
 11 43  1  0
 12 44  1  0
 12 45  1  0
 13 46  1  0
 13 47  1  0
 14 48  1  0
 14 49  1  0
 17 50  1  0
 18 51  1  0
 19 52  1  0
 20 53  1  0
 23 54  1  0
 23 55  1  0
 23 56  1  0
 25 57  1  0
 26 58  1  0
 27 59  1  0
 28 60  1  0
M  CHG  2  14   1  22   1
M  END
>  <UniqueID>  (24) 
24

>  <SMILES>  (24) 
C[C@H](Cc1ccccc1)NCCC[NH2+]c1c2ccccc2[n+](C)c2ccccc12

>  <Energy>  (24) 
93.39730313388421

>  <Genealogy>  (24) 
CC(Cc1ccccc1)NCCC[NH2+]c1c2ccccc2[n+](C)c2ccccc12 (protonated)
C[C@H](Cc1ccccc1)NCCC[NH2+]c1c2ccccc2[n+](C)c2ccccc12 (chirality)
C[C@H](Cc1ccccc1)NCCC[NH2+]c1c2ccccc2[n+](C)c2ccccc12 (3D coordinates assigned)
C[C@H](Cc1ccccc1)NCCC[NH2+]c1c2ccccc2[n+](C)c2ccccc12 (optimized conformer: 93.39730313388421 kcal/mol)

>  <smiles>  (24) 
CC(Cc1ccccc1)NCCCNc1c2ccccc2[n+](C)c2ccccc12

>  <score_type>  (24) 
oracle

>  <origin>  (24) 
adg

>  <m_score__min__energy>  (24) 
-6.0300000000000002

>  <m_primary>  (24) 
energy

$$$$
24:0
     RDKit          3D

 35 37  0  0  0  0  0  0  0  0999 V2000
   60.0144   36.3031   46.7989 H   0  0  0  0  0  0  0  0  0  0  0  0
   59.5600   35.3430   46.5130 C   0  0  0  0  0  0  0  0  0  0  0  0
   59.2650   34.3920   47.4930 C   0  0  0  0  0  0  0  0  0  0  0  0
   59.4983   34.5976   48.5481 H   0  0  0  0  0  0  0  0  0  0  0  0
   58.6720   33.1770   47.1300 C   0  0  0  0  0  0  0  0  0  0  0  0
   58.4163   32.4412   47.9066 H   0  0  0  0  0  0  0  0  0  0  0  0
   58.3990   32.8880   45.7730 C   0  0  0  0  0  0  0  0  0  0  0  0
   57.8560   31.5650   45.3850 C   0  0  0  0  0  0  0  0  0  0  0  0
   56.6760   31.5120   44.8300 N   0  0  0  0  0  0  0  0  0  0  0  0
   55.9580   30.3430   44.7610 O   0  0  0  0  0  0  0  0  0  0  0  0
   55.7200   29.7220   43.4970 C   0  0  0  0  0  0  0  0  0  0  0  0
   55.3929   30.4808   42.7709 H   0  0  0  0  0  0  0  0  0  0  0  0
   54.9364   28.9575   43.6046 H   0  0  0  0  0  0  0  0  0  0  0  0
   57.0060   29.0680   43.0050 C   0  0  0  0  0  0  0  0  0  0  0  0
   57.6137   28.7590   43.8682 H   0  0  0  0  0  0  0  0  0  0  0  0
   56.7590   28.1860   42.3959 H   0  0  0  0  0  0  0  0  0  0  0  0
   57.5733   29.7871   42.3959 H   0  0  0  0  0  0  0  0  0  0  0  0
   58.5520   30.3290   45.8340 C   0  0  0  0  0  0  0  0  0  0  0  0
   58.4090   29.8190   47.0500 O   0  0  0  0  0  0  0  0  0  0  0  0
   59.1240   28.7240   47.1080 C   0  0  0  0  0  0  0  0  0  0  0  0
   59.2850   27.8580   48.1890 C   0  0  0  0  0  0  0  0  0  0  0  0
   58.7859   28.0505   49.1502 H   0  0  0  0  0  0  0  0  0  0  0  0
   60.1080   26.7280   48.0100 C   0  0  0  0  0  0  0  0  0  0  0  0
   60.2563   26.0225   48.8408 H   0  0  0  0  0  0  0  0  0  0  0  0
   60.7440   26.4960   46.7690 C   0  0  0  0  0  0  0  0  0  0  0  0
   61.3727   25.6031   46.6365 H   0  0  0  0  0  0  0  0  0  0  0  0
   60.5790   27.3990   45.7010 C   0  0  0  0  0  0  0  0  0  0  0  0
   61.0831   27.2394   44.7364 H   0  0  0  0  0  0  0  0  0  0  0  0
   59.7530   28.5030   45.9110 C   0  0  0  0  0  0  0  0  0  0  0  0
   59.4060   29.5340   45.0720 C   0  0  0  0  0  0  0  0  0  0  0  0
   59.7293   29.6956   44.0331 H   0  0  0  0  0  0  0  0  0  0  0  0
   58.7000   33.8570   44.7990 C   0  0  0  0  0  0  0  0  0  0  0  0
   58.4797   33.6558   43.7402 H   0  0  0  0  0  0  0  0  0  0  0  0
   59.2790   35.0770   45.1710 C   0  0  0  0  0  0  0  0  0  0  0  0
   59.5134   35.8288   44.4029 H   0  0  0  0  0  0  0  0  0  0  0  0
  1  2  1  0
  2  3  2  0
  3  4  1  0
  3  5  1  0
  5  6  1  0
  5  7  2  0
  7  8  1  0
  8  9  2  0
  9 10  1  0
 10 11  1  0
 11 12  1  0
 11 13  1  0
 11 14  1  0
 14 15  1  0
 14 16  1  0
 14 17  1  0
  8 18  1  0
 18 19  1  0
 19 20  1  0
 20 21  2  0
 21 22  1  0
 21 23  1  0
 23 24  1  0
 23 25  2  0
 25 26  1  0
 25 27  1  0
 27 28  1  0
 27 29  2  0
 29 30  1  0
 30 31  1  0
  7 32  1  0
 32 33  1  0
 32 34  2  0
 34 35  1  0
 34  2  1  0
 30 18  2  0
 29 20  1  0
M  END
>  <UniqueID>  (25) 
25

>  <SMILES>  (25) 
CCO/N=C(/c1ccccc1)c1cc2ccccc2o1

>  <Energy>  (25) 
78.83245049191608

>  <Genealogy>  (25) 
CCO/N=C(/c1ccccc1)c1cc2ccccc2o1 (cis-trans isomerization)
CCO/N=C(/c1ccccc1)c1cc2ccccc2o1 (3D coordinates assigned)
CCO/N=C(/c1ccccc1)c1cc2ccccc2o1 (optimized conformer: 78.83245049191608 kcal/mol)

>  <smiles>  (25) 
CCON=C(c1ccccc1)c1cc2ccccc2o1

>  <score_type>  (25) 
oracle

>  <origin>  (25) 
adg

>  <m_score__min__energy>  (25) 
-7.5300000000000002

>  <m_primary>  (25) 
energy

$$$$
25:0
     RDKit          3D

 63 65  0  0  0  0  0  0  0  0999 V2000
   57.7580   31.1880   51.3460 C   0  0  0  0  0  0  0  0  0  0  0  0
   58.5720   30.8760   50.1000 C   0  0  0  0  0  0  0  0  0  0  0  0
   59.3770   31.9900   49.7770 O   0  0  0  0  0  0  0  0  0  0  0  0
   59.1950   33.0300   50.7220 C   0  0  0  0  0  0  0  0  0  0  0  0
   60.5340   33.6920   51.0270 C   0  0  0  0  0  0  0  0  0  0  0  0
   61.3280   33.6950   49.8610 O   0  0  0  0  0  0  0  0  0  0  0  0
   62.6040   34.2240   50.1560 C   0  0  0  0  0  0  0  0  0  0  0  0
   63.5670   33.0780   50.4330 C   0  0  0  0  0  0  0  0  0  0  0  0
   63.3020   32.0260   49.5280 O   0  0  0  0  0  0  0  0  0  0  0  0
   63.7640   32.3480   48.2300 C   0  0  0  0  0  0  0  0  0  0  0  0
   62.6270   32.2800   47.2010 C   0  0  0  0  0  0  0  0  0  0  0  0
   61.3720   31.8240   47.8060 N   0  0  0  0  0  0  0  0  0  0  0  0
   60.2110   31.5060   47.0170 C   0  0  0  0  0  0  0  0  0  0  0  0
   59.5460   32.5370   46.3310 C   0  0  0  0  0  0  0  0  0  0  0  0
   59.8860   33.8890   46.5570 C   0  0  0  0  0  0  0  0  0  0  0  0
   59.2900   34.9090   45.8210 C   0  0  0  0  0  0  0  0  0  0  0  0
   58.3550   34.6010   44.8430 C   0  0  0  0  0  0  0  0  0  0  0  0
   57.9820   33.2760   44.6190 C   0  0  0  0  0  0  0  0  0  0  0  0
   58.5360   32.2180   45.3870 C   0  0  0  0  0  0  0  0  0  0  0  0
   58.1370   30.9060   45.2140 N   0  0  0  0  0  0  0  0  0  0  0  0
   56.9220   30.6050   44.4230 C   0  0  0  0  0  0  0  0  0  0  0  0
   58.8370   29.8800   45.8230 C   0  0  0  0  0  0  0  0  0  0  0  0
   58.6130   28.5270   45.4720 C   0  0  0  0  0  0  0  0  0  0  0  0
   59.2330   27.4930   46.1630 C   0  0  0  0  0  0  0  0  0  0  0  0
   60.0680   27.7690   47.2350 C   0  0  0  0  0  0  0  0  0  0  0  0
   60.3500   29.0980   47.5970 C   0  0  0  0  0  0  0  0  0  0  0  0
   61.1250   29.3880   48.7360 O   0  0  0  0  0  0  0  0  0  0  0  0
   61.0450   28.7380   50.0050 C   0  0  0  0  0  0  0  0  0  0  0  0
   61.7590   29.5530   51.0780 C   0  0  0  0  0  0  0  0  0  0  0  0
   59.8150   30.1630   46.8180 C   0  0  0  0  0  0  0  0  0  0  0  0
   58.3552   30.9591   52.2410 H   0  0  0  0  0  0  0  0  0  0  0  0
   57.4864   32.2539   51.3492 H   0  0  0  0  0  0  0  0  0  0  0  0
   56.8435   30.5766   51.3492 H   0  0  0  0  0  0  0  0  0  0  0  0
   59.2128   30.0022   50.2891 H   0  0  0  0  0  0  0  0  0  0  0  0
   57.8937   30.6565   49.2623 H   0  0  0  0  0  0  0  0  0  0  0  0
   58.5025   33.7794   50.3112 H   0  0  0  0  0  0  0  0  0  0  0  0
   58.7789   32.6090   51.6492 H   0  0  0  0  0  0  0  0  0  0  0  0
   60.3652   34.7269   51.3594 H   0  0  0  0  0  0  0  0  0  0  0  0
   61.0489   33.1334   51.8225 H   0  0  0  0  0  0  0  0  0  0  0  0
   62.9665   34.8107   49.2990 H   0  0  0  0  0  0  0  0  0  0  0  0
   62.5395   34.8755   51.0400 H   0  0  0  0  0  0  0  0  0  0  0  0
   64.6021   33.4260   50.3012 H   0  0  0  0  0  0  0  0  0  0  0  0
   63.4346   32.7224   51.4655 H   0  0  0  0  0  0  0  0  0  0  0  0
   64.1783   33.3670   48.2395 H   0  0  0  0  0  0  0  0  0  0  0  0
   64.5351   31.6173   47.9445 H   0  0  0  0  0  0  0  0  0  0  0  0
   62.4730   33.2819   46.7738 H   0  0  0  0  0  0  0  0  0  0  0  0
   62.9134   31.5579   46.4221 H   0  0  0  0  0  0  0  0  0  0  0  0
   61.3040   31.7690   48.8470 H   0  0  0  0  0  0  0  0  0  0  0  0
   60.6322   34.1394   47.3254 H   0  0  0  0  0  0  0  0  0  0  0  0
   59.5598   35.9577   46.0143 H   0  0  0  0  0  0  0  0  0  0  0  0
   57.9061   35.4054   44.2418 H   0  0  0  0  0  0  0  0  0  0  0  0
   57.2462   33.0467   43.8341 H   0  0  0  0  0  0  0  0  0  0  0  0
   56.0834   30.3972   45.1038 H   0  0  0  0  0  0  0  0  0  0  0  0
   56.6740   31.4689   43.7888 H   0  0  0  0  0  0  0  0  0  0  0  0
   57.1060   29.7253   43.7888 H   0  0  0  0  0  0  0  0  0  0  0  0
   57.9364   28.2900   44.6377 H   0  0  0  0  0  0  0  0  0  0  0  0
   59.0605   26.4503   45.8580 H   0  0  0  0  0  0  0  0  0  0  0  0
   60.5134   26.9416   47.8068 H   0  0  0  0  0  0  0  0  0  0  0  0
   59.9874   28.6220   50.2845 H   0  0  0  0  0  0  0  0  0  0  0  0
   61.5313   27.7543   49.9281 H   0  0  0  0  0  0  0  0  0  0  0  0
   61.4498   29.2001   52.0729 H   0  0  0  0  0  0  0  0  0  0  0  0
   62.8467   29.4316   50.9676 H   0  0  0  0  0  0  0  0  0  0  0  0
   61.4956   30.6153   50.9676 H   0  0  0  0  0  0  0  0  0  0  0  0
  1  2  1  0
  2  3  1  0
  3  4  1  0
  4  5  1  0
  5  6  1  0
  6  7  1  0
  7  8  1  0
  8  9  1  0
  9 10  1  0
 10 11  1  0
 11 12  1  0
 12 13  1  0
 13 14  2  0
 14 15  1  0
 15 16  2  0
 16 17  1  0
 17 18  2  0
 18 19  1  0
 19 20  2  0
 20 21  1  0
 20 22  1  0
 22 23  2  0
 23 24  1  0
 24 25  2  0
 25 26  1  0
 26 27  1  0
 27 28  1  0
 28 29  1  0
 26 30  2  0
 30 13  1  0
 19 14  1  0
 30 22  1  0
  1 31  1  0
  1 32  1  0
  1 33  1  0
  2 34  1  0
  2 35  1  0
  4 36  1  0
  4 37  1  0
  5 38  1  0
  5 39  1  0
  7 40  1  0
  7 41  1  0
  8 42  1  0
  8 43  1  0
 10 44  1  0
 10 45  1  0
 11 46  1  0
 11 47  1  0
 12 48  1  0
 15 49  1  0
 16 50  1  0
 17 51  1  0
 18 52  1  0
 21 53  1  0
 21 54  1  0
 21 55  1  0
 23 56  1  0
 24 57  1  0
 25 58  1  0
 28 59  1  0
 28 60  1  0
 29 61  1  0
 29 62  1  0
 29 63  1  0
M  CHG  1  20   1
M  END
>  <UniqueID>  (26) 
26

>  <SMILES>  (26) 
CCOCCOCCOCCNc1c2ccccc2[n+](C)c2cccc(OCC)c12

>  <Energy>  (26) 
85.88185388614622

>  <Genealogy>  (26) 
CCOCCOCCOCCNc1c2ccccc2[n+](C)c2cccc(OCC)c12 (3D coordinates assigned)
CCOCCOCCOCCNc1c2ccccc2[n+](C)c2cccc(OCC)c12 (optimized conformer: 85.88185388614622 kcal/mol)

>  <smiles>  (26) 
CCOCCOCCOCCNc1c2ccccc2[n+](C)c2cccc(OCC)c12

>  <score_type>  (26) 
oracle

>  <origin>  (26) 
adg

>  <m_score__min__energy>  (26) 
-6.0099999999999998

>  <m_primary>  (26) 
energy

$$$$
26:0
     RDKit          3D

 73 76  0  0  0  0  0  0  0  0999 V2000
   57.8200   32.2600   51.2410 C   0  0  0  0  0  0  0  0  0  0  0  0
   58.5260   30.9090   51.2610 C   0  0  0  0  0  0  0  0  0  0  0  0
   59.6760   30.9300   50.4190 O   0  0  0  0  0  0  0  0  0  0  0  0
   60.2350   29.7810   49.8510 C   0  0  0  0  0  0  0  0  0  0  0  0
   61.1410   29.1400   50.4540 O   0  0  0  0  0  0  0  0  0  0  0  0
   59.7410   29.3010   48.5220 C   0  0  0  0  0  0  0  0  0  0  0  0
   58.6940   30.1850   48.0020 N   0  0  0  0  0  0  0  0  0  0  0  0
   58.5280   30.3470   46.5890 C   0  0  0  0  0  0  0  0  0  0  0  0
   58.3730   29.2080   45.7800 C   0  0  0  0  0  0  0  0  0  0  0  0
   58.6710   27.9190   46.2790 C   0  0  0  0  0  0  0  0  0  0  0  0
   58.5480   26.7960   45.4630 C   0  0  0  0  0  0  0  0  0  0  0  0
   58.1430   26.9370   44.1410 C   0  0  0  0  0  0  0  0  0  0  0  0
   57.8300   28.1990   43.6340 C   0  0  0  0  0  0  0  0  0  0  0  0
   57.9080   29.3550   44.4520 C   0  0  0  0  0  0  0  0  0  0  0  0
   57.5260   30.5990   43.9920 N   0  0  0  0  0  0  0  0  0  0  0  0
   56.7170   30.7080   42.7570 C   0  0  0  0  0  0  0  0  0  0  0  0
   57.8820   31.7370   44.6990 C   0  0  0  0  0  0  0  0  0  0  0  0
   57.7270   33.0250   44.1360 C   0  0  0  0  0  0  0  0  0  0  0  0
   58.0110   34.1670   44.8700 C   0  0  0  0  0  0  0  0  0  0  0  0
   58.5370   34.0660   46.1470 C   0  0  0  0  0  0  0  0  0  0  0  0
   58.8230   32.8100   46.7190 C   0  0  0  0  0  0  0  0  0  0  0  0
   59.5530   32.7380   47.9320 O   0  0  0  0  0  0  0  0  0  0  0  0
   60.4000   33.8040   48.3920 C   0  0  0  0  0  0  0  0  0  0  0  0
   61.8020   33.8390   47.7380 C   0  0  0  0  0  0  0  0  0  0  0  0
   62.7840   32.7870   48.1620 N   0  0  0  0  0  0  0  0  0  0  0  0
   62.8540   31.7030   47.1440 C   0  0  0  0  0  0  0  0  0  0  0  0
   64.1350   33.4010   48.3350 C   0  0  0  0  0  0  0  0  0  0  0  0
   64.9880   32.6800   49.3970 C   0  0  0  0  0  0  0  0  0  0  0  0
   64.3740   32.7640   50.7610 N   0  0  0  0  0  0  0  0  0  0  0  0
   64.7470   31.5510   51.5320 C   0  0  0  0  0  0  0  0  0  0  0  0
   64.9150   33.9470   51.4800 C   0  0  0  0  0  0  0  0  0  0  0  0
   62.8810   32.8770   50.6960 C   0  0  0  0  0  0  0  0  0  0  0  0
   62.3020   32.1720   49.4520 C   0  0  0  0  0  0  0  0  0  0  0  0
   58.4190   31.6320   46.0190 C   0  0  0  0  0  0  0  0  0  0  0  0
   57.6439   32.5970   52.2732 H   0  0  0  0  0  0  0  0  0  0  0  0
   58.4494   32.9949   50.7177 H   0  0  0  0  0  0  0  0  0  0  0  0
   56.8573   32.1629   50.7177 H   0  0  0  0  0  0  0  0  0  0  0  0
   58.8365   30.6788   52.2909 H   0  0  0  0  0  0  0  0  0  0  0  0
   57.8308   30.1407   50.8917 H   0  0  0  0  0  0  0  0  0  0  0  0
   60.5807   29.2808   47.8117 H   0  0  0  0  0  0  0  0  0  0  0  0
   59.3191   28.2929   48.6475 H   0  0  0  0  0  0  0  0  0  0  0  0
   58.3490   30.9560   48.6130 H   0  0  0  0  0  0  0  0  0  0  0  0
   59.0030   27.8015   47.3211 H   0  0  0  0  0  0  0  0  0  0  0  0
   58.7717   25.7971   45.8656 H   0  0  0  0  0  0  0  0  0  0  0  0
   58.0690   26.0515   43.4926 H   0  0  0  0  0  0  0  0  0  0  0  0
   57.5180   28.2987   42.5839 H   0  0  0  0  0  0  0  0  0  0  0  0
   55.6592   30.8505   43.0230 H   0  0  0  0  0  0  0  0  0  0  0  0
   57.0653   31.5673   42.1652 H   0  0  0  0  0  0  0  0  0  0  0  0
   56.8254   29.7871   42.1652 H   0  0  0  0  0  0  0  0  0  0  0  0
   57.3752   33.1228   43.0984 H   0  0  0  0  0  0  0  0  0  0  0  0
   57.8173   35.1587   44.4352 H   0  0  0  0  0  0  0  0  0  0  0  0
   58.7349   34.9811   46.7245 H   0  0  0  0  0  0  0  0  0  0  0  0
   59.8973   34.7587   48.1778 H   0  0  0  0  0  0  0  0  0  0  0  0
   60.5609   33.6334   49.4667 H   0  0  0  0  0  0  0  0  0  0  0  0
   61.6624   33.7423   46.6512 H   0  0  0  0  0  0  0  0  0  0  0  0
   62.2451   34.7898   48.0692 H   0  0  0  0  0  0  0  0  0  0  0  0
   62.9169   30.7283   47.6500 H   0  0  0  0  0  0  0  0  0  0  0  0
   61.9521   31.7320   46.5149 H   0  0  0  0  0  0  0  0  0  0  0  0
   63.7447   31.8477   46.5149 H   0  0  0  0  0  0  0  0  0  0  0  0
   64.6651   33.3607   47.3720 H   0  0  0  0  0  0  0  0  0  0  0  0
   63.9867   34.4360   48.6766 H   0  0  0  0  0  0  0  0  0  0  0  0
   65.0849   31.6210   49.1157 H   0  0  0  0  0  0  0  0  0  0  0  0
   65.9707   33.1728   49.4356 H   0  0  0  0  0  0  0  0  0  0  0  0
   64.6808   31.7662   52.6087 H   0  0  0  0  0  0  0  0  0  0  0  0
   64.0598   30.7301   51.2792 H   0  0  0  0  0  0  0  0  0  0  0  0
   65.7767   31.2581   51.2792 H   0  0  0  0  0  0  0  0  0  0  0  0
   64.8398   33.7826   52.5650 H   0  0  0  0  0  0  0  0  0  0  0  0
   65.9696   34.0934   51.2035 H   0  0  0  0  0  0  0  0  0  0  0  0
   64.3360   34.8405   51.2035 H   0  0  0  0  0  0  0  0  0  0  0  0
   62.4504   32.4169   51.5976 H   0  0  0  0  0  0  0  0  0  0  0  0
   62.6234   33.9445   50.6324 H   0  0  0  0  0  0  0  0  0  0  0  0
   62.6045   31.1146   49.4732 H   0  0  0  0  0  0  0  0  0  0  0  0
   61.2079   32.2808   49.4855 H   0  0  0  0  0  0  0  0  0  0  0  0
  1  2  1  0
  2  3  1  0
  3  4  1  0
  4  5  2  0
  4  6  1  0
  6  7  1  0
  7  8  1  0
  8  9  2  0
  9 10  1  0
 10 11  2  0
 11 12  1  0
 12 13  2  0
 13 14  1  0
 14 15  2  0
 15 16  1  0
 15 17  1  0
 17 18  2  0
 18 19  1  0
 19 20  2  0
 20 21  1  0
 21 22  1  0
 22 23  1  0
 23 24  1  0
 24 25  1  0
 25 26  1  0
 25 27  1  0
 27 28  1  0
 28 29  1  0
 29 30  1  0
 29 31  1  0
 29 32  1  0
 32 33  1  0
 21 34  2  0
 34  8  1  0
 14  9  1  0
 34 17  1  0
 33 25  1  0
  1 35  1  0
  1 36  1  0
  1 37  1  0
  2 38  1  0
  2 39  1  0
  6 40  1  0
  6 41  1  0
  7 42  1  0
 10 43  1  0
 11 44  1  0
 12 45  1  0
 13 46  1  0
 16 47  1  0
 16 48  1  0
 16 49  1  0
 18 50  1  0
 19 51  1  0
 20 52  1  0
 23 53  1  0
 23 54  1  0
 24 55  1  0
 24 56  1  0
 26 57  1  0
 26 58  1  0
 26 59  1  0
 27 60  1  0
 27 61  1  0
 28 62  1  0
 28 63  1  0
 30 64  1  0
 30 65  1  0
 30 66  1  0
 31 67  1  0
 31 68  1  0
 31 69  1  0
 32 70  1  0
 32 71  1  0
 33 72  1  0
 33 73  1  0
M  CHG  3  15   1  25   1  29   1
M  END
>  <UniqueID>  (27) 
27

>  <SMILES>  (27) 
CCOC(=O)CNc1c2ccccc2[n+](C)c2cccc(OCC[N+]3(C)CC[N+](C)(C)CC3)c12

>  <Energy>  (27) 
128.11961686209435

>  <Genealogy>  (27) 
CCOC(=O)CNc1c2ccccc2[n+](C)c2cccc(OCC[N+]3(C)CC[N+](C)(C)CC3)c12 (3D coordinates assigned)
CCOC(=O)CNc1c2ccccc2[n+](C)c2cccc(OCC[N+]3(C)CC[N+](C)(C)CC3)c12 (nonaromatic ring conformer: 128.11961686209435 kcal/mol)

>  <smiles>  (27) 
CCOC(=O)CNc1c2ccccc2[n+](C)c2cccc(OCC[N+]3(C)CC[N+](C)(C)CC3)c12

>  <score_type>  (27) 
oracle

>  <origin>  (27) 
adg

>  <m_score__min__energy>  (27) 
-3.7200000000000002

>  <m_primary>  (27) 
energy

$$$$
27:0
     RDKit          3D

 67 68  0  0  0  0  0  0  0  0999 V2000
   57.0620   28.3690   45.3680 C   0  0  0  0  0  0  0  0  0  0  0  0
   57.9720   29.5330   44.9940 C   0  0  0  0  0  0  0  0  0  0  0  0
   57.2120   30.7990   44.9070 N   0  0  0  0  0  0  0  0  0  0  0  0
   57.0690   31.2160   43.4920 C   0  0  0  0  0  0  0  0  0  0  0  0
   57.8790   31.8540   45.7020 C   0  0  0  0  0  0  0  0  0  0  0  0
   57.6110   33.2670   45.1510 C   0  0  0  0  0  0  0  0  0  0  0  0
   58.7990   33.9110   44.7160 O   0  0  0  0  0  0  0  0  0  0  0  0
   59.3350   34.7760   45.7070 C   0  0  0  0  0  0  0  0  0  0  0  0
   58.6670   34.5430   47.0640 C   0  0  0  0  0  0  0  0  0  0  0  0
   59.5620   34.8370   48.1310 O   0  0  0  0  0  0  0  0  0  0  0  0
   60.6510   34.0430   48.5060 C   0  0  0  0  0  0  0  0  0  0  0  0
   61.4060   34.4060   49.4510 O   0  0  0  0  0  0  0  0  0  0  0  0
   60.9470   32.8090   47.6900 C   0  0  1  0  0  0  0  0  0  0  0  0
   62.0440   33.1280   46.6730 C   0  0  0  0  0  0  0  0  0  0  0  0
   63.2090   33.8000   47.3720 C   0  0  0  0  0  0  0  0  0  0  0  0
   64.0940   32.8970   48.1080 N   0  0  0  0  0  0  0  0  0  0  0  0
   63.8360   32.1280   49.1420 C   0  0  0  0  0  0  0  0  0  0  0  0
   62.4860   31.4900   49.4050 C   0  0  0  0  0  0  0  0  0  0  0  0
   62.3810   30.6410   50.4470 C   0  0  0  0  0  0  0  0  0  0  0  0
   63.5200   30.2900   51.2940 C   0  0  0  0  0  0  0  0  0  0  0  0
   64.7210   30.8080   51.0770 C   0  0  0  0  0  0  0  0  0  0  0  0
   64.9330   31.7840   50.0440 N   0  0  0  0  0  0  0  0  0  0  0  0
   66.1550   32.6060   50.1420 C   0  0  0  0  0  0  0  0  0  0  0  0
   66.0060   33.6590   51.2510 C   0  0  0  0  0  0  0  0  0  0  0  0
   64.6130   34.3090   51.2470 C   0  0  0  0  0  0  0  0  0  0  0  0
   63.9490   34.1260   52.5570 N   0  0  0  0  0  0  0  0  0  0  0  0
   64.7730   33.2730   53.4300 C   0  0  0  0  0  0  0  0  0  0  0  0
   62.6160   33.5100   52.3950 C   0  0  0  0  0  0  0  0  0  0  0  0
   61.2920   31.5910   48.5080 C   0  0  0  0  0  0  0  0  0  0  0  0
   60.5470   30.5720   48.3770 O   0  0  0  0  0  0  0  0  0  0  0  0
   56.9998   28.2895   46.4634 H   0  0  0  0  0  0  0  0  0  0  0  0
   56.0571   28.5419   44.9553 H   0  0  0  0  0  0  0  0  0  0  0  0
   57.4723   27.4355   44.9553 H   0  0  0  0  0  0  0  0  0  0  0  0
   58.7553   29.6365   45.7594 H   0  0  0  0  0  0  0  0  0  0  0  0
   58.4169   29.3252   44.0097 H   0  0  0  0  0  0  0  0  0  0  0  0
   56.7124   32.2558   43.4504 H   0  0  0  0  0  0  0  0  0  0  0  0
   58.0438   31.1422   42.9877 H   0  0  0  0  0  0  0  0  0  0  0  0
   56.3446   30.5595   42.9877 H   0  0  0  0  0  0  0  0  0  0  0  0
   57.5090   31.8029   46.7366 H   0  0  0  0  0  0  0  0  0  0  0  0
   58.9632   31.6756   45.6506 H   0  0  0  0  0  0  0  0  0  0  0  0
   56.9190   33.1891   44.2995 H   0  0  0  0  0  0  0  0  0  0  0  0
   57.1811   33.8692   45.9650 H   0  0  0  0  0  0  0  0  0  0  0  0
   60.4147   34.5881   45.8015 H   0  0  0  0  0  0  0  0  0  0  0  0
   59.1479   35.8157   45.4003 H   0  0  0  0  0  0  0  0  0  0  0  0
   57.7835   35.1931   47.1462 H   0  0  0  0  0  0  0  0  0  0  0  0
   58.3750   33.4847   47.1334 H   0  0  0  0  0  0  0  0  0  0  0  0
   60.0162   32.5380   47.1703 H   0  0  0  0  0  0  0  0  0  0  0  0
   62.3886   32.1954   46.2023 H   0  0  0  0  0  0  0  0  0  0  0  0
   61.6421   33.8036   45.9035 H   0  0  0  0  0  0  0  0  0  0  0  0
   63.8091   34.3204   46.6110 H   0  0  0  0  0  0  0  0  0  0  0  0
   62.7695   34.4762   48.1200 H   0  0  0  0  0  0  0  0  0  0  0  0
   65.0850   33.0670   47.8480 H   0  0  0  0  0  0  0  0  0  0  0  0
   61.4002   30.1950   50.6686 H   0  0  0  0  0  0  0  0  0  0  0  0
   63.3780   29.5840   52.1255 H   0  0  0  0  0  0  0  0  0  0  0  0
   65.5694   30.4852   51.6982 H   0  0  0  0  0  0  0  0  0  0  0  0
   67.0116   31.9556   50.3728 H   0  0  0  0  0  0  0  0  0  0  0  0
   66.3171   33.1193   49.1827 H   0  0  0  0  0  0  0  0  0  0  0  0
   66.1684   33.1740   52.2249 H   0  0  0  0  0  0  0  0  0  0  0  0
   66.7494   34.4493   51.0701 H   0  0  0  0  0  0  0  0  0  0  0  0
   64.7166   35.3846   51.0413 H   0  0  0  0  0  0  0  0  0  0  0  0
   64.0004   33.8301   50.4689 H   0  0  0  0  0  0  0  0  0  0  0  0
   64.5510   33.5028   54.4826 H   0  0  0  0  0  0  0  0  0  0  0  0
   64.5458   32.2155   53.2298 H   0  0  0  0  0  0  0  0  0  0  0  0
   65.8377   33.4635   53.2298 H   0  0  0  0  0  0  0  0  0  0  0  0
   62.1819   33.3094   53.3856 H   0  0  0  0  0  0  0  0  0  0  0  0
   61.9600   34.1963   51.8394 H   0  0  0  0  0  0  0  0  0  0  0  0
   62.7135   32.5657   51.8394 H   0  0  0  0  0  0  0  0  0  0  0  0
  1  2  1  0
  2  3  1  0
  3  4  1  0
  3  5  1  0
  5  6  1  0
  6  7  1  0
  7  8  1  0
  8  9  1  0
  9 10  1  0
 10 11  1  0
 11 12  2  0
 11 13  1  0
 13 14  1  0
 14 15  1  0
 15 16  1  0
 16 17  2  0
 17 18  1  0
 18 19  2  0
 19 20  1  0
 20 21  2  0
 21 22  1  0
 22 23  1  0
 23 24  1  0
 24 25  1  0
 25 26  1  0
 26 27  1  0
 26 28  1  0
 18 29  1  0
 29 30  2  0
 29 13  1  0
 22 17  1  0
  1 31  1  0
  1 32  1  0
  1 33  1  0
  2 34  1  0
  2 35  1  0
  4 36  1  0
  4 37  1  0
  4 38  1  0
  5 39  1  0
  5 40  1  0
  6 41  1  0
  6 42  1  0
  8 43  1  0
  8 44  1  0
  9 45  1  0
  9 46  1  0
 13 47  1  6
 14 48  1  0
 14 49  1  0
 15 50  1  0
 15 51  1  0
 16 52  1  0
 19 53  1  0
 20 54  1  0
 21 55  1  0
 23 56  1  0
 23 57  1  0
 24 58  1  0
 24 59  1  0
 25 60  1  0
 25 61  1  0
 27 62  1  0
 27 63  1  0
 27 64  1  0
 28 65  1  0
 28 66  1  0
 28 67  1  0
M  CHG  1  16   1
M  END
>  <UniqueID>  (28) 
28

>  <SMILES>  (28) 
CCN(C)CCOCCOC(=O)[C@H]1CC[NH+]=C2C(=CC=CN2CCCN(C)C)C1=O

>  <Energy>  (28) 
88.28584413809531

>  <Genealogy>  (28) 
CCN(C)CCOCCOC(=O)C1CC[NH+]=C2C(=CC=CN2CCCN(C)C)C1=O (protonated)
CCN(C)CCOCCOC(=O)[C@H]1CC[NH+]=C2C(=CC=CN2CCCN(C)C)C1=O (chirality)
CCN(C)CCOCCOC(=O)[C@H]1CC[NH+]=C2C(=CC=CN2CCCN(C)C)C1=O (3D coordinates assigned)
CCN(C)CCOCCOC(=O)[C@H]1CC[NH+]=C2C(=CC=CN2CCCN(C)C)C1=O (nonaromatic ring conformer: 88.28584413809531 kcal/mol)

>  <smiles>  (28) 
CCN(C)CCOCCOC(=O)C1CCN=C2C(=CC=CN2CCCN(C)C)C1=O

>  <score_type>  (28) 
oracle

>  <origin>  (28) 
adg

>  <m_score__min__energy>  (28) 
-4.1299999999999999

>  <m_primary>  (28) 
energy

$$$$
28:0
     RDKit          3D

 48 51  0  0  0  0  0  0  0  0999 V2000
   62.9190   33.4800   46.7580 C   0  0  0  0  0  0  0  0  0  0  0  0
   63.4700   32.6120   47.8920 C   0  0  0  0  0  0  0  0  0  0  0  0
   62.4100   32.0320   48.7390 N   0  0  0  0  0  0  0  0  0  0  0  0
   61.4310   31.1770   48.0370 C   0  0  0  0  0  0  0  0  0  0  0  0
   60.2530   30.7070   48.9090 C   0  0  0  0  0  0  0  0  0  0  0  0
   58.9590   31.0240   48.2980 N   0  0  0  0  0  0  0  0  0  0  0  0
   58.8300   31.3060   46.8940 C   0  0  0  0  0  0  0  0  0  0  0  0
   58.9700   32.6220   46.3830 C   0  0  0  0  0  0  0  0  0  0  0  0
   59.3800   33.6840   47.2150 C   0  0  0  0  0  0  0  0  0  0  0  0
   59.5360   34.9710   46.7040 C   0  0  0  0  0  0  0  0  0  0  0  0
   59.2970   35.2240   45.3590 C   0  0  0  0  0  0  0  0  0  0  0  0
   58.8800   34.1970   44.5120 C   0  0  0  0  0  0  0  0  0  0  0  0
   58.6850   32.8820   44.9990 C   0  0  0  0  0  0  0  0  0  0  0  0
   58.2380   31.8640   44.1710 N   0  0  0  0  0  0  0  0  0  0  0  0
   57.8110   32.1260   42.7840 C   0  0  0  0  0  0  0  0  0  0  0  0
   58.2300   30.5850   44.6620 C   0  0  0  0  0  0  0  0  0  0  0  0
   58.0020   29.4530   43.9490 N   0  0  0  0  0  0  0  0  0  0  0  0
   58.1820   28.4450   44.8230 C   0  0  0  0  0  0  0  0  0  0  0  0
   58.1240   27.0810   44.5420 C   0  0  0  0  0  0  0  0  0  0  0  0
   58.4320   26.1780   45.5750 C   0  0  0  0  0  0  0  0  0  0  0  0
   58.3730   24.4520   45.2700 Cl  0  0  0  0  0  0  0  0  0  0  0  0
   58.8180   26.6550   46.8460 C   0  0  0  0  0  0  0  0  0  0  0  0
   58.8820   28.0350   47.1020 C   0  0  0  0  0  0  0  0  0  0  0  0
   58.5230   28.9130   46.0750 C   0  0  0  0  0  0  0  0  0  0  0  0
   58.5330   30.2960   45.9770 C   0  0  0  0  0  0  0  0  0  0  0  0
   62.3752   34.3366   47.1829 H   0  0  0  0  0  0  0  0  0  0  0  0
   63.7512   33.8449   46.1381 H   0  0  0  0  0  0  0  0  0  0  0  0
   62.2346   32.8822   46.1381 H   0  0  0  0  0  0  0  0  0  0  0  0
   64.0563   31.7915   47.4527 H   0  0  0  0  0  0  0  0  0  0  0  0
   64.0870   33.2591   48.5327 H   0  0  0  0  0  0  0  0  0  0  0  0
   62.8600   31.4830   49.5040 H   0  0  0  0  0  0  0  0  0  0  0  0
   61.8880   32.8130   49.1990 H   0  0  0  0  0  0  0  0  0  0  0  0
   61.0244   31.7461   47.1880 H   0  0  0  0  0  0  0  0  0  0  0  0
   61.9723   30.2707   47.7276 H   0  0  0  0  0  0  0  0  0  0  0  0
   60.3243   29.6179   49.0457 H   0  0  0  0  0  0  0  0  0  0  0  0
   60.3122   31.2328   49.8734 H   0  0  0  0  0  0  0  0  0  0  0  0
   58.1000   30.8500   48.8640 H   0  0  0  0  0  0  0  0  0  0  0  0
   59.5791   33.4943   48.2801 H   0  0  0  0  0  0  0  0  0  0  0  0
   59.8496   35.7899   47.3682 H   0  0  0  0  0  0  0  0  0  0  0  0
   59.4373   36.2394   44.9599 H   0  0  0  0  0  0  0  0  0  0  0  0
   58.6998   34.4124   43.4485 H   0  0  0  0  0  0  0  0  0  0  0  0
   56.8734   32.7013   42.7915 H   0  0  0  0  0  0  0  0  0  0  0  0
   58.5902   32.7016   42.2630 H   0  0  0  0  0  0  0  0  0  0  0  0
   57.6508   31.1706   42.2630 H   0  0  0  0  0  0  0  0  0  0  0  0
   57.8050   29.3470   42.9300 H   0  0  0  0  0  0  0  0  0  0  0  0
   57.8452   26.7212   43.5406 H   0  0  0  0  0  0  0  0  0  0  0  0
   59.0709   25.9402   47.6430 H   0  0  0  0  0  0  0  0  0  0  0  0
   59.2054   28.4139   48.0827 H   0  0  0  0  0  0  0  0  0  0  0  0
  1  2  1  0
  2  3  1  0
  3  4  1  0
  4  5  1  0
  5  6  1  0
  6  7  1  0
  7  8  2  0
  8  9  1  0
  9 10  2  0
 10 11  1  0
 11 12  2  0
 12 13  1  0
 13 14  2  0
 14 15  1  0
 14 16  1  0
 16 17  1  0
 17 18  1  0
 18 19  2  0
 19 20  1  0
 20 21  1  0
 20 22  2  0
 22 23  1  0
 23 24  2  0
 24 25  1  0
 25  7  1  0
 13  8  1  0
 25 16  2  0
 24 18  1  0
  1 26  1  0
  1 27  1  0
  1 28  1  0
  2 29  1  0
  2 30  1  0
  3 31  1  0
  3 32  1  0
  4 33  1  0
  4 34  1  0
  5 35  1  0
  5 36  1  0
  6 37  1  0
  9 38  1  0
 10 39  1  0
 11 40  1  0
 12 41  1  0
 15 42  1  0
 15 43  1  0
 15 44  1  0
 17 45  1  0
 19 46  1  0
 22 47  1  0
 23 48  1  0
M  CHG  2   3   1  14   1
M  END
>  <UniqueID>  (29) 
29

>  <SMILES>  (29) 
CC[NH2+]CCNc1c2ccccc2[n+](C)c2[nH]c3cc(Cl)ccc3c12

>  <Energy>  (29) 
107.35917557979894

>  <Genealogy>  (29) 
CC[NH2+]CCNc1c2ccccc2[n+](C)c2[nH]c3cc(Cl)ccc3c12 (protonated)
CC[NH2+]CCNc1c2ccccc2[n+](C)c2[nH]c3cc(Cl)ccc3c12 (3D coordinates assigned)
CC[NH2+]CCNc1c2ccccc2[n+](C)c2[nH]c3cc(Cl)ccc3c12 (optimized conformer: 107.35917557979894 kcal/mol)

>  <smiles>  (29) 
CCNCCNc1c2ccccc2[n+](C)c2[nH]c3cc(Cl)ccc3c12

>  <score_type>  (29) 
oracle

>  <origin>  (29) 
adg

>  <m_score__min__energy>  (29) 
-4.9500000000000002

>  <m_primary>  (29) 
energy

$$$$
29:0
     RDKit          3D

 47 48  0  0  0  0  0  0  0  0999 V2000
   59.0490   34.5590   45.6070 C   0  0  0  0  0  0  0  0  0  0  0  0
   57.8150   33.8710   46.1680 C   0  0  0  0  0  0  0  0  0  0  0  0
   57.0750   33.3000   45.1050 O   0  0  0  0  0  0  0  0  0  0  0  0
   57.3140   31.9500   45.0410 N   0  0  0  0  0  0  0  0  0  0  0  0
   57.2810   31.5320   43.6320 C   0  0  0  0  0  0  0  0  0  0  0  0
   56.9700   30.0350   43.4880 C   0  0  0  0  0  0  0  0  0  0  0  0
   56.4080   29.4590   44.7510 C   0  0  0  0  0  0  0  0  0  0  0  0
   55.1600   29.3280   44.8740 O   0  0  0  0  0  0  0  0  0  0  0  0
   57.3010   28.9780   45.7640 N   0  0  0  0  0  0  0  0  0  0  0  0
   58.5200   29.5990   46.1960 C   0  0  0  0  0  0  0  0  0  0  0  0
   59.7530   29.3370   45.5740 C   0  0  0  0  0  0  0  0  0  0  0  0
   60.9210   29.9470   46.0400 C   0  0  0  0  0  0  0  0  0  0  0  0
   60.8830   30.8160   47.1450 C   0  0  0  0  0  0  0  0  0  0  0  0
   62.1590   31.4720   47.6410 C   0  0  0  0  0  0  0  0  0  0  0  0
   62.3360   32.8930   47.0430 C   0  0  0  0  0  0  0  0  0  0  0  0
   63.2030   33.8190   47.9210 C   0  0  0  0  0  0  0  0  0  0  0  0
   64.2430   33.0340   48.7270 C   0  0  0  0  0  0  0  0  0  0  0  0
   63.5790   32.0220   49.6850 C   0  0  0  0  0  0  0  0  0  0  0  0
   62.2190   31.4970   49.1800 C   0  0  0  0  0  0  0  0  0  0  0  0
   59.6490   31.0560   47.7770 C   0  0  0  0  0  0  0  0  0  0  0  0
   58.4820   30.4450   47.3090 C   0  0  0  0  0  0  0  0  0  0  0  0
   59.6809   34.9113   46.4356 H   0  0  0  0  0  0  0  0  0  0  0  0
   59.6169   33.8473   44.9897 H   0  0  0  0  0  0  0  0  0  0  0  0
   58.7421   35.4162   44.9897 H   0  0  0  0  0  0  0  0  0  0  0  0
   58.1215   33.0805   46.8688 H   0  0  0  0  0  0  0  0  0  0  0  0
   57.1917   34.6061   46.6983 H   0  0  0  0  0  0  0  0  0  0  0  0
   58.2790   31.8020   45.4130 H   0  0  0  0  0  0  0  0  0  0  0  0
   56.6580   31.3680   45.6230 H   0  0  0  0  0  0  0  0  0  0  0  0
   56.5049   32.1089   43.1076 H   0  0  0  0  0  0  0  0  0  0  0  0
   58.2740   31.7182   43.1969 H   0  0  0  0  0  0  0  0  0  0  0  0
   56.2376   29.8999   42.6785 H   0  0  0  0  0  0  0  0  0  0  0  0
   57.9104   29.5109   43.2624 H   0  0  0  0  0  0  0  0  0  0  0  0
   59.7988   28.6490   44.7169 H   0  0  0  0  0  0  0  0  0  0  0  0
   61.8787   29.7455   45.5378 H   0  0  0  0  0  0  0  0  0  0  0  0
   63.0020   30.8592   47.2891 H   0  0  0  0  0  0  0  0  0  0  0  0
   62.8129   32.7999   46.0561 H   0  0  0  0  0  0  0  0  0  0  0  0
   61.3361   33.3468   46.9780 H   0  0  0  0  0  0  0  0  0  0  0  0
   63.7247   34.5379   47.2722 H   0  0  0  0  0  0  0  0  0  0  0  0
   62.5396   34.3342   48.6313 H   0  0  0  0  0  0  0  0  0  0  0  0
   64.8966   32.4889   48.0301 H   0  0  0  0  0  0  0  0  0  0  0  0
   64.8198   33.7498   49.3310 H   0  0  0  0  0  0  0  0  0  0  0  0
   64.2576   31.1655   49.8115 H   0  0  0  0  0  0  0  0  0  0  0  0
   63.3908   32.5488   50.6321 H   0  0  0  0  0  0  0  0  0  0  0  0
   62.0666   30.4761   49.5602 H   0  0  0  0  0  0  0  0  0  0  0  0
   61.4314   32.1727   49.5449 H   0  0  0  0  0  0  0  0  0  0  0  0
   59.6022   31.7293   48.6456 H   0  0  0  0  0  0  0  0  0  0  0  0
   57.5260   30.6311   47.8203 H   0  0  0  0  0  0  0  0  0  0  0  0
  1  2  1  0
  2  3  1  0
  3  4  1  0
  4  5  1  0
  5  6  1  0
  6  7  1  0
  7  8  2  0
  7  9  1  0
  9 10  1  0
 10 11  2  0
 11 12  1  0
 12 13  2  0
 13 14  1  0
 14 15  1  0
 15 16  1  0
 16 17  1  0
 17 18  1  0
 18 19  1  0
 13 20  1  0
 20 21  2  0
 21 10  1  0
 19 14  1  0
  1 22  1  0
  1 23  1  0
  1 24  1  0
  2 25  1  0
  2 26  1  0
  4 27  1  0
  4 28  1  0
  5 29  1  0
  5 30  1  0
  6 31  1  0
  6 32  1  0
 11 33  1  0
 12 34  1  0
 14 35  1  0
 15 36  1  0
 15 37  1  0
 16 38  1  0
 16 39  1  0
 17 40  1  0
 17 41  1  0
 18 42  1  0
 18 43  1  0
 19 44  1  0
 19 45  1  0
 20 46  1  0
 21 47  1  0
M  CHG  2   4   1   9  -1
M  END
>  <UniqueID>  (30) 
30

>  <SMILES>  (30) 
CCO[NH2+]CCC(=O)[N-]c1ccc(C2CCCCC2)cc1

>  <Energy>  (30) 
49.580781080860554

>  <Genealogy>  (30) 
CCO[NH2+]CCC(=O)[N-]c1ccc(C2CCCCC2)cc1 (protonated)
CCO[NH2+]CCC(=O)[N-]c1ccc(C2CCCCC2)cc1 (3D coordinates assigned)
CCO[NH2+]CCC(=O)[N-]c1ccc(C2CCCCC2)cc1 (nonaromatic ring conformer: 49.580781080860554 kcal/mol)

>  <smiles>  (30) 
CCONCCC(=O)Nc1ccc(C2CCCCC2)cc1

>  <score_type>  (30) 
oracle

>  <origin>  (30) 
adg

>  <m_score__min__energy>  (30) 
-7.6900000000000004

>  <m_primary>  (30) 
energy

$$$$
30:0
     RDKit          3D

 46 49  0  0  0  0  0  0  0  0999 V2000
   56.2780   29.7190   42.6280 C   0  0  0  0  0  0  0  0  0  0  0  0
   55.5290   30.0070   43.9250 C   0  0  0  0  0  0  0  0  0  0  0  0
   55.7730   28.9840   44.8730 O   0  0  0  0  0  0  0  0  0  0  0  0
   57.0030   28.3290   44.6210 C   0  0  0  0  0  0  0  0  0  0  0  0
   58.1590   29.1160   45.2370 C   0  0  0  0  0  0  0  0  0  0  0  0
   57.6440   30.1770   46.0970 N   0  0  0  0  0  0  0  0  0  0  0  0
   58.5390   31.0420   46.8120 C   0  0  0  0  0  0  0  0  0  0  0  0
   59.2460   30.5670   47.9130 C   0  0  0  0  0  0  0  0  0  0  0  0
   60.1060   31.3860   48.6240 C   0  0  0  0  0  0  0  0  0  0  0  0
   60.2190   32.7250   48.3500 N   0  0  0  0  0  0  0  0  0  0  0  0
   60.8710   33.6230   49.3170 C   0  0  0  0  0  0  0  0  0  0  0  0
   59.6410   33.2110   47.1870 C   0  0  0  0  0  0  0  0  0  0  0  0
   59.8970   34.5240   46.7240 C   0  0  0  0  0  0  0  0  0  0  0  0
   59.2730   35.0160   45.5770 C   0  0  0  0  0  0  0  0  0  0  0  0
   58.3880   34.2170   44.8600 C   0  0  0  0  0  0  0  0  0  0  0  0
   58.1380   32.9080   45.2660 C   0  0  0  0  0  0  0  0  0  0  0  0
   58.7690   32.3770   46.4090 C   0  0  0  0  0  0  0  0  0  0  0  0
   60.7570   30.5560   49.6660 C   0  0  0  0  0  0  0  0  0  0  0  0
   61.8310   30.8290   50.4610 N   0  0  0  0  0  0  0  0  0  0  0  0
   62.3300   29.8560   51.2810 C   0  0  0  0  0  0  0  0  0  0  0  0
   61.7840   28.5570   51.2690 C   0  0  0  0  0  0  0  0  0  0  0  0
   60.7360   28.2520   50.3910 C   0  0  0  0  0  0  0  0  0  0  0  0
   60.2410   29.2760   49.5920 C   0  0  0  0  0  0  0  0  0  0  0  0
   59.2870   29.2240   48.4950 C   0  0  0  0  0  0  0  0  0  0  0  0
   58.6730   28.2030   48.0900 O   0  0  0  0  0  0  0  0  0  0  0  0
   57.2812   29.3332   42.8619 H   0  0  0  0  0  0  0  0  0  0  0  0
   55.7241   28.9697   42.0434 H   0  0  0  0  0  0  0  0  0  0  0  0
   56.3688   30.6463   42.0434 H   0  0  0  0  0  0  0  0  0  0  0  0
   55.8698   30.9694   44.3344 H   0  0  0  0  0  0  0  0  0  0  0  0
   54.4504   30.0474   43.7130 H   0  0  0  0  0  0  0  0  0  0  0  0
   56.9745   27.3215   45.0615 H   0  0  0  0  0  0  0  0  0  0  0  0
   57.1558   28.2608   43.5338 H   0  0  0  0  0  0  0  0  0  0  0  0
   58.7845   28.4358   45.8338 H   0  0  0  0  0  0  0  0  0  0  0  0
   58.7572   29.5657   44.4308 H   0  0  0  0  0  0  0  0  0  0  0  0
   56.6530   30.1080   46.4170 H   0  0  0  0  0  0  0  0  0  0  0  0
   60.6331   33.2954   50.3398 H   0  0  0  0  0  0  0  0  0  0  0  0
   61.9603   33.5947   49.1669 H   0  0  0  0  0  0  0  0  0  0  0  0
   60.5068   34.6500   49.1669 H   0  0  0  0  0  0  0  0  0  0  0  0
   60.5985   35.1662   47.2768 H   0  0  0  0  0  0  0  0  0  0  0  0
   59.4820   36.0413   45.2378 H   0  0  0  0  0  0  0  0  0  0  0  0
   57.8839   34.6203   43.9694 H   0  0  0  0  0  0  0  0  0  0  0  0
   57.4412   32.2826   44.6887 H   0  0  0  0  0  0  0  0  0  0  0  0
   62.3190   31.7480   50.4340 H   0  0  0  0  0  0  0  0  0  0  0  0
   63.1659   30.0892   51.9569 H   0  0  0  0  0  0  0  0  0  0  0  0
   62.1791   27.7856   51.9464 H   0  0  0  0  0  0  0  0  0  0  0  0
   60.3186   27.2358   50.3357 H   0  0  0  0  0  0  0  0  0  0  0  0
  1  2  1  0
  2  3  1  0
  3  4  1  0
  4  5  1  0
  5  6  1  0
  6  7  1  0
  7  8  2  0
  8  9  1  0
  9 10  2  0
 10 11  1  0
 10 12  1  0
 12 13  2  0
 13 14  1  0
 14 15  2  0
 15 16  1  0
 16 17  2  0
  9 18  1  0
 18 19  2  0
 19 20  1  0
 20 21  2  0
 21 22  1  0
 22 23  2  0
 23 24  1  0
 24 25  2  0
 17  7  1  0
 23 18  1  0
 24  8  1  0
 17 12  1  0
  1 26  1  0
  1 27  1  0
  1 28  1  0
  2 29  1  0
  2 30  1  0
  4 31  1  0
  4 32  1  0
  5 33  1  0
  5 34  1  0
  6 35  1  0
 11 36  1  0
 11 37  1  0
 11 38  1  0
 13 39  1  0
 14 40  1  0
 15 41  1  0
 16 42  1  0
 19 43  1  0
 20 44  1  0
 21 45  1  0
 22 46  1  0
M  CHG  2  10   1  19   1
M  END
>  <UniqueID>  (31) 
31

>  <SMILES>  (31) 
CCOCCNc1c2c([n+](C)c3ccccc13)-c1[nH+]cccc1C2=O

>  <Energy>  (31) 
103.36982223556839

>  <Genealogy>  (31) 
CCOCCNc1c2c([n+](C)c3ccccc13)-c1[nH+]cccc1C2=O (protonated)
CCOCCNc1c2c([n+](C)c3ccccc13)-c1[nH+]cccc1C2=O (3D coordinates assigned)
CCOCCNc1c2c([n+](C)c3ccccc13)-c1[nH+]cccc1C2=O (nonaromatic ring conformer: 103.36982223556839 kcal/mol)

>  <smiles>  (31) 
CCOCCNc1c2c([n+](C)c3ccccc13)-c1ncccc1C2=O

>  <score_type>  (31) 
oracle

>  <origin>  (31) 
adg

>  <m_score__min__energy>  (31) 
-4.79

>  <m_primary>  (31) 
energy

$$$$
31:0
     RDKit          3D

 62 64  0  0  0  0  0  0  0  0999 V2000
   63.1220   33.8610   46.4150 C   0  0  0  0  0  0  0  0  0  0  0  0
   63.7370   33.2000   47.6500 C   0  0  0  0  0  0  0  0  0  0  0  0
   63.1820   31.9130   47.8600 O   0  0  0  0  0  0  0  0  0  0  0  0
   62.2290   31.9090   48.9110 C   0  0  0  0  0  0  0  0  0  0  0  0
   60.9520   31.1730   48.4590 C   0  0  0  0  0  0  0  0  0  0  0  0
   61.0770   30.5710   47.1150 N   0  0  0  0  0  0  0  0  0  0  0  0
   59.8100   30.5670   46.3890 C   0  0  0  0  0  0  0  0  0  0  0  0
   59.2200   31.7960   45.9640 C   0  0  0  0  0  0  0  0  0  0  0  0
   59.7660   33.0570   46.3220 C   0  0  0  0  0  0  0  0  0  0  0  0
   59.1160   34.2460   45.9820 C   0  0  0  0  0  0  0  0  0  0  0  0
   57.9170   34.2120   45.2860 C   0  0  0  0  0  0  0  0  0  0  0  0
   57.3880   32.9950   44.8710 C   0  0  0  0  0  0  0  0  0  0  0  0
   58.0480   31.7690   45.1560 C   0  0  0  0  0  0  0  0  0  0  0  0
   57.5740   30.5780   44.6540 N   0  0  0  0  0  0  0  0  0  0  0  0
   56.6530   30.5920   43.4960 C   0  0  0  0  0  0  0  0  0  0  0  0
   58.0170   29.3790   45.1830 C   0  0  0  0  0  0  0  0  0  0  0  0
   57.3580   28.1610   44.8700 C   0  0  0  0  0  0  0  0  0  0  0  0
   57.8130   26.9350   45.3530 C   0  0  0  0  0  0  0  0  0  0  0  0
   57.1360   25.7720   44.9450 O   0  0  0  0  0  0  0  0  0  0  0  0
   57.4020   25.0240   43.7560 C   0  0  0  0  0  0  0  0  0  0  0  0
   56.5620   23.7260   43.7150 C   0  0  0  0  0  0  0  0  0  0  0  0
   57.2250   22.5130   44.3010 N   0  0  0  0  0  0  0  0  0  0  0  0
   56.4620   21.9650   45.4510 C   0  0  0  0  0  0  0  0  0  0  0  0
   57.3970   21.4600   43.2670 C   0  0  0  0  0  0  0  0  0  0  0  0
   58.5690   22.9110   44.7900 C   0  0  0  0  0  0  0  0  0  0  0  0
   58.9110   26.9100   46.2170 C   0  0  0  0  0  0  0  0  0  0  0  0
   59.5710   28.0860   46.5550 C   0  0  0  0  0  0  0  0  0  0  0  0
   59.1430   29.3480   46.0580 C   0  0  0  0  0  0  0  0  0  0  0  0
   62.4043   34.6324   46.7311 H   0  0  0  0  0  0  0  0  0  0  0  0
   63.9173   34.3247   45.8130 H   0  0  0  0  0  0  0  0  0  0  0  0
   62.6022   33.1012   45.8130 H   0  0  0  0  0  0  0  0  0  0  0  0
   64.8233   33.1052   47.5052 H   0  0  0  0  0  0  0  0  0  0  0  0
   63.5214   33.8251   48.5291 H   0  0  0  0  0  0  0  0  0  0  0  0
   62.6542   31.3972   49.7869 H   0  0  0  0  0  0  0  0  0  0  0  0
   61.9751   32.9466   49.1734 H   0  0  0  0  0  0  0  0  0  0  0  0
   60.7338   30.3734   49.1822 H   0  0  0  0  0  0  0  0  0  0  0  0
   60.1429   31.9168   48.4122 H   0  0  0  0  0  0  0  0  0  0  0  0
   61.4460   29.6000   47.2070 H   0  0  0  0  0  0  0  0  0  0  0  0
   61.8520   31.0350   46.6060 H   0  0  0  0  0  0  0  0  0  0  0  0
   60.7156   33.0983   46.8757 H   0  0  0  0  0  0  0  0  0  0  0  0
   59.5568   35.2126   46.2674 H   0  0  0  0  0  0  0  0  0  0  0  0
   57.3844   35.1481   45.0622 H   0  0  0  0  0  0  0  0  0  0  0  0
   56.4410   32.9808   44.3116 H   0  0  0  0  0  0  0  0  0  0  0  0
   55.6132   30.6078   43.8546 H   0  0  0  0  0  0  0  0  0  0  0  0
   56.8442   31.4873   42.8862 H   0  0  0  0  0  0  0  0  0  0  0  0
   56.8169   29.6913   42.8862 H   0  0  0  0  0  0  0  0  0  0  0  0
   56.4643   28.1854   44.2291 H   0  0  0  0  0  0  0  0  0  0  0  0
   57.1528   25.6410   42.8801 H   0  0  0  0  0  0  0  0  0  0  0  0
   58.4675   24.7510   43.7461 H   0  0  0  0  0  0  0  0  0  0  0  0
   55.6306   23.9064   44.2718 H   0  0  0  0  0  0  0  0  0  0  0  0
   56.4028   23.5006   42.6502 H   0  0  0  0  0  0  0  0  0  0  0  0
   56.9260   22.2982   46.3911 H   0  0  0  0  0  0  0  0  0  0  0  0
   55.4235   22.3249   45.4069 H   0  0  0  0  0  0  0  0  0  0  0  0
   56.4714   20.8659   45.4069 H   0  0  0  0  0  0  0  0  0  0  0  0
   57.5558   20.4878   43.7566 H   0  0  0  0  0  0  0  0  0  0  0  0
   56.4949   21.4115   42.6394 H   0  0  0  0  0  0  0  0  0  0  0  0
   58.2677   21.7011   42.6394 H   0  0  0  0  0  0  0  0  0  0  0  0
   58.5734   22.9123   45.8900 H   0  0  0  0  0  0  0  0  0  0  0  0
   59.3198   22.1966   44.4212 H   0  0  0  0  0  0  0  0  0  0  0  0
   58.8097   23.9190   44.4212 H   0  0  0  0  0  0  0  0  0  0  0  0
   59.2560   25.9520   46.6331 H   0  0  0  0  0  0  0  0  0  0  0  0
   60.4443   28.0394   47.2222 H   0  0  0  0  0  0  0  0  0  0  0  0
  1  2  1  0
  2  3  1  0
  3  4  1  0
  4  5  1  0
  5  6  1  0
  6  7  1  0
  7  8  2  0
  8  9  1  0
  9 10  2  0
 10 11  1  0
 11 12  2  0
 12 13  1  0
 13 14  2  0
 14 15  1  0
 14 16  1  0
 16 17  2  0
 17 18  1  0
 18 19  1  0
 19 20  1  0
 20 21  1  0
 21 22  1  0
 22 23  1  0
 22 24  1  0
 22 25  1  0
 18 26  2  0
 26 27  1  0
 27 28  2  0
 28  7  1  0
 13  8  1  0
 28 16  1  0
  1 29  1  0
  1 30  1  0
  1 31  1  0
  2 32  1  0
  2 33  1  0
  4 34  1  0
  4 35  1  0
  5 36  1  0
  5 37  1  0
  6 38  1  0
  6 39  1  0
  9 40  1  0
 10 41  1  0
 11 42  1  0
 12 43  1  0
 15 44  1  0
 15 45  1  0
 15 46  1  0
 17 47  1  0
 20 48  1  0
 20 49  1  0
 21 50  1  0
 21 51  1  0
 23 52  1  0
 23 53  1  0
 23 54  1  0
 24 55  1  0
 24 56  1  0
 24 57  1  0
 25 58  1  0
 25 59  1  0
 25 60  1  0
 26 61  1  0
 27 62  1  0
M  CHG  3   6   1  14   1  22   1
M  END
>  <UniqueID>  (32) 
32

>  <SMILES>  (32) 
CCOCC[NH2+]c1c2ccccc2[n+](C)c2cc(OCC[N+](C)(C)C)ccc12

>  <Energy>  (32) 
101.55560752951727

>  <Genealogy>  (32) 
CCOCC[NH2+]c1c2ccccc2[n+](C)c2cc(OCC[N+](C)(C)C)ccc12 (protonated)
CCOCC[NH2+]c1c2ccccc2[n+](C)c2cc(OCC[N+](C)(C)C)ccc12 (3D coordinates assigned)
CCOCC[NH2+]c1c2ccccc2[n+](C)c2cc(OCC[N+](C)(C)C)ccc12 (optimized conformer: 101.55560752951727 kcal/mol)

>  <smiles>  (32) 
CCOCCNc1c2ccccc2[n+](C)c2cc(OCC[N+](C)(C)C)ccc12

>  <score_type>  (32) 
oracle

>  <origin>  (32) 
adg

>  <m_score__min__energy>  (32) 
-2.71

>  <m_primary>  (32) 
energy

$$$$
32:0
     RDKit          3D

 30 32  0  0  0  0  0  0  0  0999 V2000
   56.6410   30.3800   42.6750 C   0  0  0  0  0  0  0  0  0  0  0  0
   55.5270   29.7170   43.4800 C   0  0  0  0  0  0  0  0  0  0  0  0
   55.8340   29.7280   44.8740 O   0  0  0  0  0  0  0  0  0  0  0  0
   57.1120   29.5610   45.4420 C   0  0  0  0  0  0  0  0  0  0  0  0
   57.6220   28.2890   45.7510 C   0  0  0  0  0  0  0  0  0  0  0  0
   58.8880   28.1550   46.3140 C   0  0  0  0  0  0  0  0  0  0  0  0
   59.6660   29.2770   46.5850 C   0  0  0  0  0  0  0  0  0  0  0  0
   59.1910   30.5770   46.2950 C   0  0  0  0  0  0  0  0  0  0  0  0
   57.8950   30.7050   45.7180 C   0  0  0  0  0  0  0  0  0  0  0  0
   57.4020   31.9850   45.4220 C   0  0  0  0  0  0  0  0  0  0  0  0
   58.1460   33.0850   45.6810 N   0  0  0  0  0  0  0  0  0  0  0  0
   59.3830   33.0130   46.2290 C   0  0  0  0  0  0  0  0  0  0  0  0
   60.0890   34.1970   46.4650 C   0  0  0  0  0  0  0  0  0  0  0  0
   61.3640   34.1580   47.0270 C   0  0  0  0  0  0  0  0  0  0  0  0
   61.9420   32.9340   47.3580 C   0  0  0  0  0  0  0  0  0  0  0  0
   63.6900   32.8880   48.1280 Br  0  0  0  0  0  0  0  0  0  0  0  0
   61.2490   31.7400   47.1270 C   0  0  0  0  0  0  0  0  0  0  0  0
   59.9520   31.7550   46.5570 C   0  0  0  0  0  0  0  0  0  0  0  0
   57.3788   30.8191   43.3626 H   0  0  0  0  0  0  0  0  0  0  0  0
   57.1329   29.6276   42.0410 H   0  0  0  0  0  0  0  0  0  0  0  0
   56.2143   31.1712   42.0410 H   0  0  0  0  0  0  0  0  0  0  0  0
   54.5871   30.2636   43.3133 H   0  0  0  0  0  0  0  0  0  0  0  0
   55.4262   28.6728   43.1492 H   0  0  0  0  0  0  0  0  0  0  0  0
   57.0171   27.3932   45.5468 H   0  0  0  0  0  0  0  0  0  0  0  0
   59.2773   27.1529   46.5470 H   0  0  0  0  0  0  0  0  0  0  0  0
   60.6637   29.1507   47.0307 H   0  0  0  0  0  0  0  0  0  0  0  0
   56.4026   32.0950   44.9758 H   0  0  0  0  0  0  0  0  0  0  0  0
   59.6354   35.1649   46.2055 H   0  0  0  0  0  0  0  0  0  0  0  0
   61.9138   35.0932   47.2092 H   0  0  0  0  0  0  0  0  0  0  0  0
   61.7164   30.7798   47.3908 H   0  0  0  0  0  0  0  0  0  0  0  0
  1  2  1  0
  2  3  1  0
  3  4  1  0
  4  5  2  0
  5  6  1  0
  6  7  2  0
  7  8  1  0
  8  9  2  0
  9 10  1  0
 10 11  2  0
 11 12  1  0
 12 13  2  0
 13 14  1  0
 14 15  2  0
 15 16  1  0
 15 17  1  0
 17 18  2  0
  9  4  1  0
 18 12  1  0
 18  8  1  0
  1 19  1  0
  1 20  1  0
  1 21  1  0
  2 22  1  0
  2 23  1  0
  5 24  1  0
  6 25  1  0
  7 26  1  0
 10 27  1  0
 13 28  1  0
 14 29  1  0
 17 30  1  0
M  END
>  <UniqueID>  (33) 
33

>  <SMILES>  (33) 
CCOc1cccc2c1cnc1ccc(Br)cc12

>  <Energy>  (33) 
42.5004989885966

>  <Genealogy>  (33) 
CCOc1cccc2c1cnc1ccc(Br)cc12 (3D coordinates assigned)
CCOc1cccc2c1cnc1ccc(Br)cc12 (optimized conformer: 42.5004989885966 kcal/mol)

>  <smiles>  (33) 
CCOc1cccc2c1cnc1ccc(Br)cc12

>  <score_type>  (33) 
oracle

>  <origin>  (33) 
adg

>  <m_score__min__energy>  (33) 
-7.2199999999999998

>  <m_primary>  (33) 
energy

$$$$
33:0
     RDKit          3D

 51 53  0  0  0  0  0  0  0  0999 V2000
   55.5640   24.3400   46.6450 C   0  0  0  0  0  0  0  0  0  0  0  0
   55.0850   25.3480   45.6130 C   0  0  0  0  0  0  0  0  0  0  0  0
   55.4960   26.6570   46.0000 O   0  0  0  0  0  0  0  0  0  0  0  0
   56.8270   27.1080   45.9960 C   0  0  0  0  0  0  0  0  0  0  0  0
   57.9000   26.2700   46.3600 C   0  0  0  0  0  0  0  0  0  0  0  0
   59.2100   26.7560   46.3450 C   0  0  0  0  0  0  0  0  0  0  0  0
   59.4620   28.0760   45.9730 C   0  0  0  0  0  0  0  0  0  0  0  0
   58.4060   28.9160   45.6110 C   0  0  0  0  0  0  0  0  0  0  0  0
   57.0800   28.4360   45.6130 C   0  0  0  0  0  0  0  0  0  0  0  0
   55.9860   29.2430   45.2520 O   0  0  0  0  0  0  0  0  0  0  0  0
   55.7220   29.7490   43.9430 C   0  0  0  0  0  0  0  0  0  0  0  0
   56.7940   30.7570   43.5250 C   0  0  0  0  0  0  0  0  0  0  0  0
   57.3180   31.4430   44.7110 N   0  0  0  0  0  0  0  0  0  0  0  0
   57.3920   32.8900   44.4840 C   0  0  0  0  0  0  0  0  0  0  0  0
   57.0510   33.6560   45.7660 C   0  0  0  0  0  0  0  0  0  0  0  0
   57.4690   32.9290   46.9220 O   0  0  0  0  0  0  0  0  0  0  0  0
   58.7960   32.6390   47.2820 C   0  0  0  0  0  0  0  0  0  0  0  0
   59.0210   31.5510   48.1350 C   0  0  0  0  0  0  0  0  0  0  0  0
   60.3140   31.2170   48.5450 C   0  0  0  0  0  0  0  0  0  0  0  0
   61.4100   31.9690   48.1000 C   0  0  0  0  0  0  0  0  0  0  0  0
   62.7130   31.6490   48.5130 C   0  0  0  0  0  0  0  0  0  0  0  0
   63.7970   32.4090   48.0640 C   0  0  0  0  0  0  0  0  0  0  0  0
   63.5900   33.4900   47.2020 C   0  0  0  0  0  0  0  0  0  0  0  0
   62.2980   33.8180   46.7820 C   0  0  0  0  0  0  0  0  0  0  0  0
   61.2000   33.0630   47.2260 C   0  0  0  0  0  0  0  0  0  0  0  0
   59.8970   33.3860   46.8150 C   0  0  0  0  0  0  0  0  0  0  0  0
   55.3773   24.7328   47.6554 H   0  0  0  0  0  0  0  0  0  0  0  0
   55.0194   23.3934   46.5132 H   0  0  0  0  0  0  0  0  0  0  0  0
   56.6419   24.1644   46.5132 H   0  0  0  0  0  0  0  0  0  0  0  0
   55.5185   25.1027   44.6322 H   0  0  0  0  0  0  0  0  0  0  0  0
   53.9875   25.3127   45.5483 H   0  0  0  0  0  0  0  0  0  0  0  0
   57.7054   25.2289   46.6572 H   0  0  0  0  0  0  0  0  0  0  0  0
   60.0437   26.0962   46.6271 H   0  0  0  0  0  0  0  0  0  0  0  0
   60.4940   28.4566   45.9645 H   0  0  0  0  0  0  0  0  0  0  0  0
   58.6100   29.9578   45.3228 H   0  0  0  0  0  0  0  0  0  0  0  0
   55.7142   28.9132   43.2279 H   0  0  0  0  0  0  0  0  0  0  0  0
   54.7453   30.2550   43.9505 H   0  0  0  0  0  0  0  0  0  0  0  0
   57.6138   30.2288   43.0162 H   0  0  0  0  0  0  0  0  0  0  0  0
   56.3511   31.4972   42.8424 H   0  0  0  0  0  0  0  0  0  0  0  0
   56.6490   31.2770   45.5000 H   0  0  0  0  0  0  0  0  0  0  0  0
   58.4112   33.1541   44.1655 H   0  0  0  0  0  0  0  0  0  0  0  0
   56.6662   33.1638   43.7041 H   0  0  0  0  0  0  0  0  0  0  0  0
   57.5613   34.6303   45.7496 H   0  0  0  0  0  0  0  0  0  0  0  0
   55.9606   33.7933   45.8132 H   0  0  0  0  0  0  0  0  0  0  0  0
   58.1683   30.9517   48.4867 H   0  0  0  0  0  0  0  0  0  0  0  0
   60.4724   30.3619   49.2186 H   0  0  0  0  0  0  0  0  0  0  0  0
   62.8812   30.7991   49.1908 H   0  0  0  0  0  0  0  0  0  0  0  0
   64.8165   32.1555   48.3901 H   0  0  0  0  0  0  0  0  0  0  0  0
   64.4472   34.0846   46.8530 H   0  0  0  0  0  0  0  0  0  0  0  0
   62.1408   34.6688   46.1027 H   0  0  0  0  0  0  0  0  0  0  0  0
   59.7340   34.2267   46.1246 H   0  0  0  0  0  0  0  0  0  0  0  0
  1  2  1  0
  2  3  1  0
  3  4  1  0
  4  5  2  0
  5  6  1  0
  6  7  2  0
  7  8  1  0
  8  9  2  0
  9 10  1  0
 10 11  1  0
 11 12  1  0
 12 13  1  0
 13 14  1  0
 14 15  1  0
 15 16  1  0
 16 17  1  0
 17 18  2  0
 18 19  1  0
 19 20  2  0
 20 21  1  0
 21 22  2  0
 22 23  1  0
 23 24  2  0
 24 25  1  0
 25 26  2  0
  9  4  1  0
 26 17  1  0
 25 20  1  0
  1 27  1  0
  1 28  1  0
  1 29  1  0
  2 30  1  0
  2 31  1  0
  5 32  1  0
  6 33  1  0
  7 34  1  0
  8 35  1  0
 11 36  1  0
 11 37  1  0
 12 38  1  0
 12 39  1  0
 13 40  1  0
 14 41  1  0
 14 42  1  0
 15 43  1  0
 15 44  1  0
 18 45  1  0
 19 46  1  0
 21 47  1  0
 22 48  1  0
 23 49  1  0
 24 50  1  0
 26 51  1  0
M  END
>  <UniqueID>  (34) 
34

>  <SMILES>  (34) 
CCOc1ccccc1OCCNCCOc1ccc2ccccc2c1

>  <Energy>  (34) 
48.615033016990346

>  <Genealogy>  (34) 
CCOc1ccccc1OCCNCCOc1ccc2ccccc2c1 (3D coordinates assigned)
CCOc1ccccc1OCCNCCOc1ccc2ccccc2c1 (optimized conformer: 48.615033016990346 kcal/mol)

>  <smiles>  (34) 
CCOc1ccccc1OCCNCCOc1ccc2ccccc2c1

>  <score_type>  (34) 
oracle

>  <origin>  (34) 
adg

>  <m_score__min__energy>  (34) 
-9

>  <m_primary>  (34) 
energy

$$$$
