0:0
     RDKit          3D

 59 62  0  0  0  0  0  0  0  0999 V2000
   63.3350   33.8310   46.3940 C   0  0  0  0  0  0  0  0  0  0  0  0
   63.3440   32.7570   47.4790 C   0  0  0  0  0  0  0  0  0  0  0  0
   62.0500   32.7480   48.2020 N   0  0  0  0  0  0  0  0  0  0  0  0
   61.8550   34.0010   48.9660 C   0  0  0  0  0  0  0  0  0  0  0  0
   60.6620   33.8660   49.9080 C   0  0  0  0  0  0  0  0  0  0  0  0
   61.9420   31.5630   49.0850 C   0  0  0  0  0  0  0  0  0  0  0  0
   61.1270   30.4650   48.3970 C   0  0  0  0  0  0  0  0  0  0  0  0
   59.7400   30.8940   48.2180 N   0  0  0  0  0  0  0  0  0  0  0  0
   59.1320   30.9340   46.9140 C   0  0  0  0  0  0  0  0  0  0  0  0
   58.9890   32.1590   46.2380 C   0  0  0  0  0  0  0  0  0  0  0  0
   59.3840   33.3710   46.8450 C   0  0  0  0  0  0  0  0  0  0  0  0
   59.3050   34.5740   46.1480 C   0  0  0  0  0  0  0  0  0  0  0  0
   58.8360   34.5920   44.8410 C   0  0  0  0  0  0  0  0  0  0  0  0
   58.4040   33.4120   44.2350 C   0  0  0  0  0  0  0  0  0  0  0  0
   58.4260   32.1780   44.9340 C   0  0  0  0  0  0  0  0  0  0  0  0
   57.9270   31.0160   44.3760 N   0  0  0  0  0  0  0  0  0  0  0  0
   57.0840   31.0850   43.1600 C   0  0  0  0  0  0  0  0  0  0  0  0
   58.1800   29.7950   44.9730 C   0  0  0  0  0  0  0  0  0  0  0  0
   57.9170   28.5720   44.3040 C   0  0  0  0  0  0  0  0  0  0  0  0
   58.1200   27.3370   44.9330 C   0  0  0  0  0  0  0  0  0  0  0  0
   57.8390   26.1360   44.2590 C   0  0  0  0  0  0  0  0  0  0  0  0
   58.0410   24.8970   44.8970 C   0  0  0  0  0  0  0  0  0  0  0  0
   57.7740   23.6730   44.2650 O   0  0  0  0  0  0  0  0  0  0  0  0
   58.4960   22.4700   44.5050 C   0  0  0  0  0  0  0  0  0  0  0  0
   58.5260   24.8740   46.2090 C   0  0  0  0  0  0  0  0  0  0  0  0
   58.8120   26.0630   46.8840 C   0  0  0  0  0  0  0  0  0  0  0  0
   58.6120   27.2990   46.2520 C   0  0  0  0  0  0  0  0  0  0  0  0
   58.9190   28.4920   46.9110 C   0  0  0  0  0  0  0  0  0  0  0  0
   58.7390   29.7400   46.2780 C   0  0  0  0  0  0  0  0  0  0  0  0
   63.3267   34.8260   46.8630 H   0  0  0  0  0  0  0  0  0  0  0  0
   64.2340   33.7280   45.7686 H   0  0  0  0  0  0  0  0  0  0  0  0
   62.4378   33.7129   45.7686 H   0  0  0  0  0  0  0  0  0  0  0  0
   63.5076   31.7732   47.0149 H   0  0  0  0  0  0  0  0  0  0  0  0
   64.1521   32.9750   48.1927 H   0  0  0  0  0  0  0  0  0  0  0  0
   62.7601   34.2119   49.5545 H   0  0  0  0  0  0  0  0  0  0  0  0
   61.6637   34.8239   48.2615 H   0  0  0  0  0  0  0  0  0  0  0  0
   61.0115   33.9055   50.9503 H   0  0  0  0  0  0  0  0  0  0  0  0
   59.9563   34.6900   49.7264 H   0  0  0  0  0  0  0  0  0  0  0  0
   60.1583   32.9051   49.7264 H   0  0  0  0  0  0  0  0  0  0  0  0
   62.9498   31.1824   49.3075 H   0  0  0  0  0  0  0  0  0  0  0  0
   61.4369   31.8546   50.0176 H   0  0  0  0  0  0  0  0  0  0  0  0
   61.5690   30.2484   47.4133 H   0  0  0  0  0  0  0  0  0  0  0  0
   61.1425   29.5627   49.0260 H   0  0  0  0  0  0  0  0  0  0  0  0
   59.1200   30.9130   49.0600 H   0  0  0  0  0  0  0  0  0  0  0  0
   59.7581   33.3649   47.8794 H   0  0  0  0  0  0  0  0  0  0  0  0
   59.6145   35.5113   46.6334 H   0  0  0  0  0  0  0  0  0  0  0  0
   58.8051   35.5390   44.2822 H   0  0  0  0  0  0  0  0  0  0  0  0
   58.0401   33.4391   43.1973 H   0  0  0  0  0  0  0  0  0  0  0  0
   56.0268   31.1715   43.4512 H   0  0  0  0  0  0  0  0  0  0  0  0
   57.3729   31.9625   42.5629 H   0  0  0  0  0  0  0  0  0  0  0  0
   57.2263   30.1722   42.5629 H   0  0  0  0  0  0  0  0  0  0  0  0
   57.5456   28.5940   43.2688 H   0  0  0  0  0  0  0  0  0  0  0  0
   57.4591   26.1641   43.2271 H   0  0  0  0  0  0  0  0  0  0  0  0
   58.5920   22.3100   45.5891 H   0  0  0  0  0  0  0  0  0  0  0  0
   57.9569   21.6230   44.0557 H   0  0  0  0  0  0  0  0  0  0  0  0
   59.4971   22.5473   44.0557 H   0  0  0  0  0  0  0  0  0  0  0  0
   58.6837   23.9097   46.7142 H   0  0  0  0  0  0  0  0  0  0  0  0
   59.1953   26.0298   47.9145 H   0  0  0  0  0  0  0  0  0  0  0  0
   59.3072   28.4578   47.9397 H   0  0  0  0  0  0  0  0  0  0  0  0
  1  2  1  0
  2  3  1  0
  3  4  1  0
  4  5  1  0
  3  6  1  0
  6  7  1  0
  7  8  1  0
  8  9  1  0
  9 10  2  0
 10 11  1  0
 11 12  2  0
 12 13  1  0
 13 14  2  0
 14 15  1  0
 15 16  2  0
 16 17  1  0
 16 18  1  0
 18 19  2  0
 19 20  1  0
 20 21  2  0
 21 22  1  0
 22 23  1  0
 23 24  1  0
 22 25  2  0
 25 26  1  0
 26 27  2  0
 27 28  1  0
 28 29  2  0
 29  9  1  0
 15 10  1  0
 29 18  1  0
 27 20  1  0
  1 30  1  0
  1 31  1  0
  1 32  1  0
  2 33  1  0
  2 34  1  0
  4 35  1  0
  4 36  1  0
  5 37  1  0
  5 38  1  0
  5 39  1  0
  6 40  1  0
  6 41  1  0
  7 42  1  0
  7 43  1  0
  8 44  1  0
 11 45  1  0
 12 46  1  0
 13 47  1  0
 14 48  1  0
 17 49  1  0
 17 50  1  0
 17 51  1  0
 19 52  1  0
 21 53  1  0
 24 54  1  0
 24 55  1  0
 24 56  1  0
 25 57  1  0
 26 58  1  0
 28 59  1  0
M  CHG  1  16   1
M  END
>  <UniqueID>  (1) 
1

>  <SMILES>  (1) 
CCN(CC)CCNc1c2ccccc2[n+](C)c2cc3cc(OC)ccc3cc12

>  <Energy>  (1) 
87.92620889380404

>  <Genealogy>  (1) 
CCN(CC)CCNc1c2ccccc2[n+](C)c2cc3cc(OC)ccc3cc12 (3D coordinates assigned)
CCN(CC)CCNc1c2ccccc2[n+](C)c2cc3cc(OC)ccc3cc12 (optimized conformer: 87.92620889380404 kcal/mol)

>  <smiles>  (1) 
CCN(CC)CCNc1c2ccccc2[n+](C)c2cc3cc(OC)ccc3cc12

>  <score_type>  (1) 
oracle

>  <origin>  (1) 
adg

>  <m_score__min__energy>  (1) 
-6.4100000000000001

>  <m_primary>  (1) 
energy

$$$$
1:0
     RDKit          3D

 44 46  0  0  0  0  0  0  0  0999 V2000
   56.6410   30.3100   42.9250 C   0  0  0  0  0  0  0  0  0  0  0  0
   55.6160   30.3770   44.0530 C   0  0  0  0  0  0  0  0  0  0  0  0
   55.8280   29.2980   45.0320 N   0  0  0  0  0  0  0  0  0  0  0  0
   57.0770   28.5510   44.8050 C   0  0  0  0  0  0  0  0  0  0  0  0
   58.2740   29.1190   45.6040 C   0  0  0  0  0  0  0  0  0  0  0  0
   57.9810   30.4570   46.1210 N   0  0  0  0  0  0  0  0  0  0  0  0
   58.9970   31.2650   46.7420 C   0  0  0  0  0  0  0  0  0  0  0  0
   59.2070   32.5910   46.3270 C   0  0  0  0  0  0  0  0  0  0  0  0
   58.3130   33.2220   45.4360 C   0  0  0  0  0  0  0  0  0  0  0  0
   58.5120   34.5430   45.0450 C   0  0  0  0  0  0  0  0  0  0  0  0
   59.5890   35.2640   45.5490 C   0  0  0  0  0  0  0  0  0  0  0  0
   60.4800   34.6650   46.4390 C   0  0  0  0  0  0  0  0  0  0  0  0
   60.3240   33.3110   46.8310 C   0  0  0  0  0  0  0  0  0  0  0  0
   61.2110   32.6960   47.6940 N   0  0  0  0  0  0  0  0  0  0  0  0
   62.5200   33.3230   47.9800 C   0  0  0  0  0  0  0  0  0  0  0  0
   60.8800   31.4870   48.2770 C   0  0  0  0  0  0  0  0  0  0  0  0
   61.6130   30.9610   49.3710 C   0  0  0  0  0  0  0  0  0  0  0  0
   61.3010   29.7130   49.9160 C   0  0  0  0  0  0  0  0  0  0  0  0
   62.0500   29.2250   50.9860 O   0  0  0  0  0  0  0  0  0  0  0  0
   60.2460   28.9680   49.3920 C   0  0  0  0  0  0  0  0  0  0  0  0
   59.4850   29.4770   48.3430 C   0  0  0  0  0  0  0  0  0  0  0  0
   59.7770   30.7400   47.7860 C   0  0  0  0  0  0  0  0  0  0  0  0
   57.6525   30.2439   43.3522 H   0  0  0  0  0  0  0  0  0  0  0  0
   56.4462   29.4227   42.3048 H   0  0  0  0  0  0  0  0  0  0  0  0
   56.5633   31.2151   42.3048 H   0  0  0  0  0  0  0  0  0  0  0  0
   55.7074   31.3472   44.5633 H   0  0  0  0  0  0  0  0  0  0  0  0
   54.6124   30.2596   43.6182 H   0  0  0  0  0  0  0  0  0  0  0  0
   55.8490   29.7120   45.9940 H   0  0  0  0  0  0  0  0  0  0  0  0
   56.9194   27.5047   45.1058 H   0  0  0  0  0  0  0  0  0  0  0  0
   57.3232   28.6380   43.7365 H   0  0  0  0  0  0  0  0  0  0  0  0
   58.4920   28.4484   46.4482 H   0  0  0  0  0  0  0  0  0  0  0  0
   59.1400   29.1892   44.9294 H   0  0  0  0  0  0  0  0  0  0  0  0
   56.9990   30.8120   46.0900 H   0  0  0  0  0  0  0  0  0  0  0  0
   57.4492   32.6637   45.0461 H   0  0  0  0  0  0  0  0  0  0  0  0
   57.8167   35.0171   44.3366 H   0  0  0  0  0  0  0  0  0  0  0  0
   59.7386   36.3104   45.2446 H   0  0  0  0  0  0  0  0  0  0  0  0
   61.3175   35.2523   46.8436 H   0  0  0  0  0  0  0  0  0  0  0  0
   62.6636   33.3918   49.0684 H   0  0  0  0  0  0  0  0  0  0  0  0
   63.3229   32.7117   47.5421 H   0  0  0  0  0  0  0  0  0  0  0  0
   62.5469   34.3317   47.5421 H   0  0  0  0  0  0  0  0  0  0  0  0
   62.4414   31.5455   49.7978 H   0  0  0  0  0  0  0  0  0  0  0  0
   62.6750   29.8240   51.5120 H   0  0  0  0  0  0  0  0  0  0  0  0
   60.0142   27.9764   49.8078 H   0  0  0  0  0  0  0  0  0  0  0  0
   58.6464   28.8876   47.9439 H   0  0  0  0  0  0  0  0  0  0  0  0
  1  2  1  0
  2  3  1  0
  3  4  1  0
  4  5  1  0
  5  6  1  0
  6  7  1  0
  7  8  2  0
  8  9  1  0
  9 10  2  0
 10 11  1  0
 11 12  2  0
 12 13  1  0
 13 14  2  0
 14 15  1  0
 14 16  1  0
 16 17  2  0
 17 18  1  0
 18 19  1  0
 18 20  2  0
 20 21  1  0
 21 22  2  0
 22  7  1  0
 13  8  1  0
 22 16  1  0
  1 23  1  0
  1 24  1  0
  1 25  1  0
  2 26  1  0
  2 27  1  0
  3 28  1  0
  4 29  1  0
  4 30  1  0
  5 31  1  0
  5 32  1  0
  6 33  1  0
  9 34  1  0
 10 35  1  0
 11 36  1  0
 12 37  1  0
 15 38  1  0
 15 39  1  0
 15 40  1  0
 17 41  1  0
 19 42  1  0
 20 43  1  0
 21 44  1  0
M  CHG  1  14   1
M  END
>  <UniqueID>  (2) 
2

>  <SMILES>  (2) 
CCNCCNc1c2ccccc2[n+](C)c2cc(O)ccc12

>  <Energy>  (2) 
69.41907632394488

>  <Genealogy>  (2) 
CCNCCNc1c2ccccc2[n+](C)c2cc(O)ccc12 (3D coordinates assigned)
CCNCCNc1c2ccccc2[n+](C)c2cc(O)ccc12 (optimized conformer: 69.41907632394488 kcal/mol)

>  <smiles>  (2) 
CCNCCNc1c2ccccc2[n+](C)c2cc(O)ccc12

>  <score_type>  (2) 
oracle

>  <origin>  (2) 
adg

>  <m_score__min__energy>  (2) 
-5.3899999999999997

>  <m_primary>  (2) 
energy

$$$$
2:0
     RDKit          3D

 66 69  0  0  0  0  0  0  0  0999 V2000
   63.3860   31.7020   47.1400 C   0  0  0  0  0  0  0  0  0  0  0  0
   63.3840   33.1430   46.6470 C   0  0  0  0  0  0  0  0  0  0  0  0
   63.4350   34.0600   47.7930 N   0  0  0  0  0  0  0  0  0  0  0  0
   64.0590   33.4510   48.9810 C   0  0  0  0  0  0  0  0  0  0  0  0
   63.4390   33.9310   50.3070 C   0  0  0  0  0  0  0  0  0  0  0  0
   61.9900   33.7350   50.3360 N   0  0  0  0  0  0  0  0  0  0  0  0
   61.4260   32.4860   49.9060 C   0  0  0  0  0  0  0  0  0  0  0  0
   61.7410   31.2910   50.5770 C   0  0  0  0  0  0  0  0  0  0  0  0
   62.6560   31.2860   51.6520 C   0  0  0  0  0  0  0  0  0  0  0  0
   62.9850   30.0970   52.2990 C   0  0  0  0  0  0  0  0  0  0  0  0
   62.4200   28.8980   51.8840 C   0  0  0  0  0  0  0  0  0  0  0  0
   61.5160   28.8770   50.8220 C   0  0  0  0  0  0  0  0  0  0  0  0
   61.1480   30.0710   50.1510 C   0  0  0  0  0  0  0  0  0  0  0  0
   60.2480   30.0650   49.1010 N   0  0  0  0  0  0  0  0  0  0  0  0
   59.5630   28.8130   48.7150 C   0  0  0  0  0  0  0  0  0  0  0  0
   59.9980   31.2210   48.3950 C   0  0  0  0  0  0  0  0  0  0  0  0
   59.1840   31.1980   47.3000 N   0  0  0  0  0  0  0  0  0  0  0  0
   58.8780   32.3040   46.5700 C   0  0  0  0  0  0  0  0  0  0  0  0
   58.0400   32.2180   45.4340 C   0  0  0  0  0  0  0  0  0  0  0  0
   57.4300   30.9390   44.9970 C   0  0  0  0  0  0  0  0  0  0  0  0
   56.2720   30.9470   44.4980 O   0  0  0  0  0  0  0  0  0  0  0  0
   58.1170   29.6910   45.1780 N   0  0  0  0  0  0  0  0  0  0  0  0
   57.6100   28.4320   44.6360 C   0  0  0  0  0  0  0  0  0  0  0  0
   58.6700   27.3290   44.7470 C   0  0  0  0  0  0  0  0  0  0  0  0
   59.7720   27.7500   45.6390 N   0  0  0  0  0  0  0  0  0  0  0  0
   60.7950   28.4780   44.8710 C   0  0  0  0  0  0  0  0  0  0  0  0
   60.3920   26.5870   46.2990 C   0  0  0  0  0  0  0  0  0  0  0  0
   57.7950   33.3780   44.6770 C   0  0  0  0  0  0  0  0  0  0  0  0
   58.3440   34.6050   45.0550 C   0  0  0  0  0  0  0  0  0  0  0  0
   59.1550   34.6930   46.1860 C   0  0  0  0  0  0  0  0  0  0  0  0
   59.4320   33.5470   46.9420 C   0  0  0  0  0  0  0  0  0  0  0  0
   60.2720   33.6110   48.0580 C   0  0  0  0  0  0  0  0  0  0  0  0
   60.5740   32.4490   48.7910 C   0  0  0  0  0  0  0  0  0  0  0  0
   63.3860   31.6908   48.2399 H   0  0  0  0  0  0  0  0  0  0  0  0
   62.4886   31.1860   46.7681 H   0  0  0  0  0  0  0  0  0  0  0  0
   64.2849   31.1885   46.7681 H   0  0  0  0  0  0  0  0  0  0  0  0
   64.2616   33.3109   46.0054 H   0  0  0  0  0  0  0  0  0  0  0  0
   62.4645   33.3295   46.0727 H   0  0  0  0  0  0  0  0  0  0  0  0
   63.9560   34.9260   47.5220 H   0  0  0  0  0  0  0  0  0  0  0  0
   63.9425   32.3591   48.9159 H   0  0  0  0  0  0  0  0  0  0  0  0
   65.1162   33.7548   48.9862 H   0  0  0  0  0  0  0  0  0  0  0  0
   63.8906   33.3657   51.1355 H   0  0  0  0  0  0  0  0  0  0  0  0
   63.6385   35.0083   50.4055 H   0  0  0  0  0  0  0  0  0  0  0  0
   61.3800   34.3810   50.8860 H   0  0  0  0  0  0  0  0  0  0  0  0
   63.1137   32.2303   51.9820 H   0  0  0  0  0  0  0  0  0  0  0  0
   63.6937   30.1077   53.1402 H   0  0  0  0  0  0  0  0  0  0  0  0
   62.6866   27.9611   52.3950 H   0  0  0  0  0  0  0  0  0  0  0  0
   61.0816   27.9191   50.4998 H   0  0  0  0  0  0  0  0  0  0  0  0
   59.2631   28.2649   49.6204 H   0  0  0  0  0  0  0  0  0  0  0  0
   58.6702   29.0524   48.1187 H   0  0  0  0  0  0  0  0  0  0  0  0
   60.2460   28.1902   48.1187 H   0  0  0  0  0  0  0  0  0  0  0  0
   58.9560   29.6550   45.8000 H   0  0  0  0  0  0  0  0  0  0  0  0
   56.7147   28.1306   45.1995 H   0  0  0  0  0  0  0  0  0  0  0  0
   57.3611   28.5782   43.5746 H   0  0  0  0  0  0  0  0  0  0  0  0
   58.2035   26.4197   45.1540 H   0  0  0  0  0  0  0  0  0  0  0  0
   59.0813   27.1321   43.7460 H   0  0  0  0  0  0  0  0  0  0  0  0
   61.4907   28.9731   45.5644 H   0  0  0  0  0  0  0  0  0  0  0  0
   61.3501   27.7707   44.2373 H   0  0  0  0  0  0  0  0  0  0  0  0
   60.3086   29.2342   44.2373 H   0  0  0  0  0  0  0  0  0  0  0  0
   60.3278   26.7075   47.3905 H   0  0  0  0  0  0  0  0  0  0  0  0
   59.8629   25.6703   45.9995 H   0  0  0  0  0  0  0  0  0  0  0  0
   61.4480   26.5153   45.9995 H   0  0  0  0  0  0  0  0  0  0  0  0
   57.1643   33.3179   43.7778 H   0  0  0  0  0  0  0  0  0  0  0  0
   58.1360   35.5055   44.4584 H   0  0  0  0  0  0  0  0  0  0  0  0
   59.5777   35.6636   46.4847 H   0  0  0  0  0  0  0  0  0  0  0  0
   60.6997   34.5769   48.3649 H   0  0  0  0  0  0  0  0  0  0  0  0
  1  2  1  0
  2  3  1  0
  3  4  1  0
  4  5  1  0
  5  6  1  0
  6  7  1  0
  7  8  2  0
  8  9  1  0
  9 10  2  0
 10 11  1  0
 11 12  2  0
 12 13  1  0
 13 14  2  0
 14 15  1  0
 14 16  1  0
 16 17  2  0
 17 18  1  0
 18 19  2  0
 19 20  1  0
 20 21  2  0
 20 22  1  0
 22 23  1  0
 23 24  1  0
 24 25  1  0
 25 26  1  0
 25 27  1  0
 19 28  1  0
 28 29  2  0
 29 30  1  0
 30 31  2  0
 31 32  1  0
 32 33  2  0
 33  7  1  0
 13  8  1  0
 33 16  1  0
 31 18  1  0
  1 34  1  0
  1 35  1  0
  1 36  1  0
  2 37  1  0
  2 38  1  0
  3 39  1  0
  4 40  1  0
  4 41  1  0
  5 42  1  0
  5 43  1  0
  6 44  1  0
  9 45  1  0
 10 46  1  0
 11 47  1  0
 12 48  1  0
 15 49  1  0
 15 50  1  0
 15 51  1  0
 22 52  1  0
 23 53  1  0
 23 54  1  0
 24 55  1  0
 24 56  1  0
 26 57  1  0
 26 58  1  0
 26 59  1  0
 27 60  1  0
 27 61  1  0
 27 62  1  0
 28 63  1  0
 29 64  1  0
 30 65  1  0
 32 66  1  0
M  CHG  1  14   1
M  END
>  <UniqueID>  (3) 
3

>  <SMILES>  (3) 
CCNCCNc1c2ccccc2[n+](C)c2nc3c(C(=O)NCCN(C)C)cccc3cc12

>  <Energy>  (3) 
89.4413162326557

>  <Genealogy>  (3) 
CCNCCNc1c2ccccc2[n+](C)c2nc3c(C(=O)NCCN(C)C)cccc3cc12 (3D coordinates assigned)
CCNCCNc1c2ccccc2[n+](C)c2nc3c(C(=O)NCCN(C)C)cccc3cc12 (optimized conformer: 89.4413162326557 kcal/mol)

>  <smiles>  (3) 
CCNCCNc1c2ccccc2[n+](C)c2nc3c(C(=O)NCCN(C)C)cccc3cc12

>  <score_type>  (3) 
oracle

>  <origin>  (3) 
adg

>  <m_score__min__energy>  (3) 
-6.9500000000000002

>  <m_primary>  (3) 
energy

$$$$
3:0
     RDKit          3D

 60 63  0  0  0  0  0  0  0  0999 V2000
   62.9540   33.4320   47.6770 C   0  0  0  0  0  0  0  0  0  0  0  0
   62.1240   32.1630   47.5010 C   0  0  0  0  0  0  0  0  0  0  0  0
   61.2600   31.9130   48.6740 N   0  0  0  0  0  0  0  0  0  0  0  0
   60.7590   30.5330   48.6390 C   0  0  0  0  0  0  0  0  0  0  0  0
   59.9010   33.0190   48.7240 S   0  0  0  0  0  0  0  0  0  0  0  0
   58.7210   32.3390   49.3630 O   0  0  0  0  0  0  0  0  0  0  0  0
   60.2490   34.2100   49.5730 O   0  0  0  0  0  0  0  0  0  0  0  0
   59.4330   33.5640   47.1110 C   0  0  0  0  0  0  0  0  0  0  0  0
   59.6450   34.8950   46.7250 C   0  0  0  0  0  0  0  0  0  0  0  0
   59.2760   35.3240   45.4480 C   0  0  0  0  0  0  0  0  0  0  0  0
   58.6930   34.4270   44.5490 C   0  0  0  0  0  0  0  0  0  0  0  0
   58.4810   33.0900   44.9210 C   0  0  0  0  0  0  0  0  0  0  0  0
   57.8270   32.1380   43.9580 C   0  0  0  0  0  0  0  0  0  0  0  0
   58.0580   30.7580   44.3790 N   0  0  0  0  0  0  0  0  0  0  0  0
   56.9870   29.8860   44.7750 C   0  0  0  0  0  0  0  0  0  0  0  0
   55.8110   30.3340   44.8560 O   0  0  0  0  0  0  0  0  0  0  0  0
   57.2540   28.4650   45.0900 C   0  0  0  0  0  0  0  0  0  0  0  0
   58.5350   27.9160   44.9300 C   0  0  0  0  0  0  0  0  0  0  0  0
   58.7520   26.5730   45.2410 C   0  0  0  0  0  0  0  0  0  0  0  0
   57.6910   25.7740   45.6930 C   0  0  0  0  0  0  0  0  0  0  0  0
   57.9320   24.3370   46.0780 C   0  0  0  0  0  0  0  0  0  0  0  0
   59.2700   23.7560   45.6340 C   0  0  0  0  0  0  0  0  0  0  0  0
   57.9970   23.3600   44.9110 C   0  0  0  0  0  0  0  0  0  0  0  0
   56.4290   26.3650   45.8690 C   0  0  0  0  0  0  0  0  0  0  0  0
   55.3680   25.6030   46.3680 O   0  0  0  0  0  0  0  0  0  0  0  0
   54.5900   24.7270   45.5540 C   0  0  0  0  0  0  0  0  0  0  0  0
   54.7190   23.2560   45.9850 C   0  0  0  0  0  0  0  0  0  0  0  0
   53.6470   22.7070   46.9160 C   0  0  0  0  0  0  0  0  0  0  0  0
   55.0410   23.0080   47.4520 C   0  0  0  0  0  0  0  0  0  0  0  0
   56.2480   27.6780   45.5570 N   0  0  0  0  0  0  0  0  0  0  0  0
   58.8480   32.6660   46.2080 C   0  0  0  0  0  0  0  0  0  0  0  0
   63.0879   33.6367   48.7494 H   0  0  0  0  0  0  0  0  0  0  0  0
   63.9377   33.2952   47.2042 H   0  0  0  0  0  0  0  0  0  0  0  0
   62.4344   34.2785   47.2042 H   0  0  0  0  0  0  0  0  0  0  0  0
   61.4913   32.2709   46.6077 H   0  0  0  0  0  0  0  0  0  0  0  0
   62.8131   31.3125   47.3928 H   0  0  0  0  0  0  0  0  0  0  0  0
   60.6255   30.1652   49.6671 H   0  0  0  0  0  0  0  0  0  0  0  0
   59.7939   30.5065   48.1119 H   0  0  0  0  0  0  0  0  0  0  0  0
   61.4824   29.8936   48.1119 H   0  0  0  0  0  0  0  0  0  0  0  0
   60.1035   35.6039   47.4302 H   0  0  0  0  0  0  0  0  0  0  0  0
   59.4445   36.3693   45.1496 H   0  0  0  0  0  0  0  0  0  0  0  0
   58.3991   34.7698   43.5460 H   0  0  0  0  0  0  0  0  0  0  0  0
   56.7449   32.3338   43.9317 H   0  0  0  0  0  0  0  0  0  0  0  0
   58.2593   32.2856   42.9573 H   0  0  0  0  0  0  0  0  0  0  0  0
   59.0420   30.4080   44.3830 H   0  0  0  0  0  0  0  0  0  0  0  0
   59.3628   28.5399   44.5619 H   0  0  0  0  0  0  0  0  0  0  0  0
   59.7572   26.1399   45.1315 H   0  0  0  0  0  0  0  0  0  0  0  0
   57.3813   24.3869   47.0289 H   0  0  0  0  0  0  0  0  0  0  0  0
   60.0093   24.3985   45.1334 H   0  0  0  0  0  0  0  0  0  0  0  0
   60.0831   23.2081   46.1326 H   0  0  0  0  0  0  0  0  0  0  0  0
   57.8140   23.7153   43.8862 H   0  0  0  0  0  0  0  0  0  0  0  0
   57.5062   22.4058   44.6687 H   0  0  0  0  0  0  0  0  0  0  0  0
   53.5333   25.0244   45.6249 H   0  0  0  0  0  0  0  0  0  0  0  0
   54.9635   24.8080   44.5225 H   0  0  0  0  0  0  0  0  0  0  0  0
   55.1469   22.9349   45.0239 H   0  0  0  0  0  0  0  0  0  0  0  0
   52.7964   23.3399   47.2092 H   0  0  0  0  0  0  0  0  0  0  0  0
   52.9891   21.8254   46.9107 H   0  0  0  0  0  0  0  0  0  0  0  0
   55.1970   23.8582   48.1323 H   0  0  0  0  0  0  0  0  0  0  0  0
   55.8068   22.4338   47.9941 H   0  0  0  0  0  0  0  0  0  0  0  0
   58.6753   31.6223   46.5096 H   0  0  0  0  0  0  0  0  0  0  0  0
  1  2  1  0
  2  3  1  0
  3  4  1  0
  3  5  1  0
  5  6  2  0
  5  7  2  0
  5  8  1  0
  8  9  2  0
  9 10  1  0
 10 11  2  0
 11 12  1  0
 12 13  1  0
 13 14  1  0
 14 15  1  0
 15 16  2  0
 15 17  1  0
 17 18  2  0
 18 19  1  0
 19 20  2  0
 20 21  1  0
 21 22  1  0
 22 23  1  0
 20 24  1  0
 24 25  1  0
 25 26  1  0
 26 27  1  0
 27 28  1  0
 28 29  1  0
 24 30  2  0
 12 31  2  0
 31  8  1  0
 30 17  1  0
 23 21  1  0
 29 27  1  0
  1 32  1  0
  1 33  1  0
  1 34  1  0
  2 35  1  0
  2 36  1  0
  4 37  1  0
  4 38  1  0
  4 39  1  0
  9 40  1  0
 10 41  1  0
 11 42  1  0
 13 43  1  0
 13 44  1  0
 14 45  1  0
 18 46  1  0
 19 47  1  0
 21 48  1  0
 22 49  1  0
 22 50  1  0
 23 51  1  0
 23 52  1  0
 26 53  1  0
 26 54  1  0
 27 55  1  0
 28 56  1  0
 28 57  1  0
 29 58  1  0
 29 59  1  0
 31 60  1  0
M  END
>  <UniqueID>  (4) 
4

>  <SMILES>  (4) 
CCN(C)S(=O)(=O)c1cccc(CNC(=O)c2ccc(C3CC3)c(OCC3CC3)n2)c1

>  <Energy>  (4) 
582.5443099004349

>  <Genealogy>  (4) 
CCN(C)S(=O)(=O)c1cccc(CNC(=O)c2ccc(C3CC3)c(OCC3CC3)n2)c1 (3D coordinates assigned)
CCN(C)S(=O)(=O)c1cccc(CNC(=O)c2ccc(C3CC3)c(OCC3CC3)n2)c1 (nonaromatic ring conformer: 582.5443099004349 kcal/mol)

>  <smiles>  (4) 
CCN(C)S(=O)(=O)c1cccc(CNC(=O)c2ccc(C3CC3)c(OCC3CC3)n2)c1

>  <score_type>  (4) 
oracle

>  <origin>  (4) 
adg

>  <m_score__min__energy>  (4) 
-8.9399999999999995

>  <m_primary>  (4) 
energy

$$$$
4:0
     RDKit          3D

 36 37  0  0  0  0  0  0  0  0999 V2000
   57.4210   27.7240   46.2300 C   0  0  0  0  0  0  0  0  0  0  0  0
   57.0650   28.4510   44.9370 C   0  0  0  0  0  0  0  0  0  0  0  0
   55.8450   29.2520   45.1130 N   0  0  0  0  0  0  0  0  0  0  0  0
   55.4190   29.8650   43.8480 C   0  0  0  0  0  0  0  0  0  0  0  0
   56.6470   30.2020   42.9960 C   0  0  0  0  0  0  0  0  0  0  0  0
   57.3360   31.4870   43.4730 C   0  0  0  0  0  0  0  0  0  0  0  0
   57.2000   31.6550   44.8860 O   0  0  0  0  0  0  0  0  0  0  0  0
   58.0060   32.4710   45.7000 C   0  0  0  0  0  0  0  0  0  0  0  0
   57.7010   33.8270   45.9290 C   0  0  0  0  0  0  0  0  0  0  0  0
   58.5180   34.6120   46.7450 C   0  0  0  0  0  0  0  0  0  0  0  0
   59.6500   34.0640   47.3460 C   0  0  0  0  0  0  0  0  0  0  0  0
   59.9740   32.7170   47.1390 C   0  0  0  0  0  0  0  0  0  0  0  0
   61.1130   32.1630   47.7430 C   0  0  0  0  0  0  0  0  0  0  0  0
   61.4380   30.8200   47.5320 C   0  0  0  0  0  0  0  0  0  0  0  0
   60.6310   30.0230   46.7180 C   0  0  0  0  0  0  0  0  0  0  0  0
   59.4940   30.5620   46.1090 C   0  0  0  0  0  0  0  0  0  0  0  0
   59.1490   31.9110   46.3120 C   0  0  0  0  0  0  0  0  0  0  0  0
   57.1200   28.3387   47.0911 H   0  0  0  0  0  0  0  0  0  0  0  0
   56.8932   26.7595   46.2656 H   0  0  0  0  0  0  0  0  0  0  0  0
   58.5065   27.5495   46.2656 H   0  0  0  0  0  0  0  0  0  0  0  0
   57.8957   29.1147   44.6549 H   0  0  0  0  0  0  0  0  0  0  0  0
   56.8889   27.7053   44.1477 H   0  0  0  0  0  0  0  0  0  0  0  0
   56.0680   30.0280   45.7800 H   0  0  0  0  0  0  0  0  0  0  0  0
   54.7757   29.1612   43.2994 H   0  0  0  0  0  0  0  0  0  0  0  0
   54.8602   30.7881   44.0614 H   0  0  0  0  0  0  0  0  0  0  0  0
   57.3633   29.3695   43.0588 H   0  0  0  0  0  0  0  0  0  0  0  0
   56.3120   30.3580   41.9599 H   0  0  0  0  0  0  0  0  0  0  0  0
   58.4051   31.4357   43.2194 H   0  0  0  0  0  0  0  0  0  0  0  0
   56.8585   32.3430   42.9738 H   0  0  0  0  0  0  0  0  0  0  0  0
   56.8107   34.2717   45.4605 H   0  0  0  0  0  0  0  0  0  0  0  0
   58.2668   35.6694   46.9146 H   0  0  0  0  0  0  0  0  0  0  0  0
   60.2903   34.6907   47.9842 H   0  0  0  0  0  0  0  0  0  0  0  0
   61.7521   32.7875   48.3845 H   0  0  0  0  0  0  0  0  0  0  0  0
   62.3315   30.3902   48.0083 H   0  0  0  0  0  0  0  0  0  0  0  0
   60.8909   28.9666   46.5552 H   0  0  0  0  0  0  0  0  0  0  0  0
   58.8651   29.9276   45.4671 H   0  0  0  0  0  0  0  0  0  0  0  0
  1  2  1  0
  2  3  1  0
  3  4  1  0
  4  5  1  0
  5  6  1  0
  6  7  1  0
  7  8  1  0
  8  9  2  0
  9 10  1  0
 10 11  2  0
 11 12  1  0
 12 13  2  0
 13 14  1  0
 14 15  2  0
 15 16  1  0
 16 17  2  0
 17  8  1  0
 17 12  1  0
  1 18  1  0
  1 19  1  0
  1 20  1  0
  2 21  1  0
  2 22  1  0
  3 23  1  0
  4 24  1  0
  4 25  1  0
  5 26  1  0
  5 27  1  0
  6 28  1  0
  6 29  1  0
  9 30  1  0
 10 31  1  0
 11 32  1  0
 13 33  1  0
 14 34  1  0
 15 35  1  0
 16 36  1  0
M  END
>  <UniqueID>  (5) 
5

>  <SMILES>  (5) 
CCNCCCOc1cccc2ccccc12

>  <Energy>  (5) 
32.92023498645194

>  <Genealogy>  (5) 
CCNCCCOc1cccc2ccccc12 (3D coordinates assigned)
CCNCCCOc1cccc2ccccc12 (optimized conformer: 32.92023498645194 kcal/mol)

>  <smiles>  (5) 
CCNCCCOc1cccc2ccccc12

>  <score_type>  (5) 
oracle

>  <origin>  (5) 
adg

>  <m_score__min__energy>  (5) 
-6.5999999999999996

>  <m_primary>  (5) 
energy

$$$$
5:0
     RDKit          3D

 73 79  0  0  0  0  0  0  0  0999 V2000
   58.0680   26.7830   43.9790 C   0  0  0  0  0  0  0  0  0  0  0  0
   57.8890   28.2830   43.7490 C   0  0  0  0  0  0  0  0  0  0  0  0
   57.0280   28.8890   44.7900 N   0  0  0  0  0  0  0  0  0  0  0  0
   57.7920   29.2160   46.0230 C   0  0  0  0  0  0  0  0  0  0  0  0
   59.2760   29.3200   45.6950 C   0  0  0  0  0  0  0  0  0  0  0  0
   56.3140   30.0740   44.2590 C   0  0  0  0  0  0  0  0  0  0  0  0
   57.3180   31.1690   43.8620 C   0  0  0  0  0  0  0  0  0  0  0  0
   57.1550   32.4690   44.6690 C   0  0  0  0  0  0  0  0  0  0  0  0
   58.3850   33.3920   44.7020 C   0  0  0  0  0  0  0  0  0  0  0  0
   58.7770   33.7310   46.0750 N   0  0  0  0  0  0  0  0  0  0  0  0
   58.6850   32.8680   47.1990 C   0  0  0  0  0  0  0  0  0  0  0  0
   57.9060   31.8770   47.2340 O   0  0  0  0  0  0  0  0  0  0  0  0
   59.6280   33.3200   48.3140 C   0  0  2  0  0  0  0  0  0  0  0  0
   59.6470   34.7590   47.8420 C   0  0  0  0  0  0  0  0  0  0  0  0
   59.8150   34.6150   46.4830 C   0  0  0  0  0  0  0  0  0  0  0  0
   61.2380   34.1500   46.0010 C   0  0  0  0  0  0  0  0  0  0  0  0
   61.9660   33.6510   47.2530 C   0  0  2  0  0  0  0  0  0  0  0  0
   63.3050   33.2020   47.4720 O   0  0  0  0  0  0  0  0  0  0  0  0
   63.2790   32.9480   48.8590 C   0  0  0  0  0  0  0  0  0  0  0  0
   64.3180   33.0180   49.7840 C   0  0  0  0  0  0  0  0  0  0  0  0
   65.6420   33.0950   49.3690 O   0  0  0  0  0  0  0  0  0  0  0  0
   63.9800   33.0640   51.1580 C   0  0  0  0  0  0  0  0  0  0  0  0
   62.6190   33.1030   51.5670 C   0  0  0  0  0  0  0  0  0  0  0  0
   61.5910   33.0010   50.6090 C   0  0  0  0  0  0  0  0  0  0  0  0
   61.9740   32.8470   49.3020 C   0  0  0  0  0  0  0  0  0  0  0  0
   61.0710   32.7520   48.1460 C   0  0  1  0  0  0  0  0  0  0  0  0
   60.9500   31.2290   47.8860 C   0  0  0  0  0  0  0  0  0  0  0  0
   60.2210   30.5620   49.1030 C   0  0  0  0  0  0  0  0  0  0  0  0
   59.0390   31.3320   49.5980 N   0  0  0  0  0  0  0  0  0  0  0  0
   58.2840   30.6630   50.6750 C   0  0  0  0  0  0  0  0  0  0  0  0
   57.2660   31.6480   51.2650 C   0  0  0  0  0  0  0  0  0  0  0  0
   57.4110   31.9750   52.7450 C   0  0  0  0  0  0  0  0  0  0  0  0
   56.3150   31.0290   52.2810 C   0  0  0  0  0  0  0  0  0  0  0  0
   59.1620   32.8210   49.7110 C   0  0  1  0  0  0  0  0  0  0  0  0
   60.1250   33.2570   50.8840 C   0  0  0  0  0  0  0  0  0  0  0  0
   58.0925   26.5781   45.0595 H   0  0  0  0  0  0  0  0  0  0  0  0
   57.2284   26.2391   43.5216 H   0  0  0  0  0  0  0  0  0  0  0  0
   59.0120   26.4520   43.5216 H   0  0  0  0  0  0  0  0  0  0  0  0
   58.8755   28.7691   43.7725 H   0  0  0  0  0  0  0  0  0  0  0  0
   57.4059   28.4287   42.7715 H   0  0  0  0  0  0  0  0  0  0  0  0
   57.4389   30.1758   46.4282 H   0  0  0  0  0  0  0  0  0  0  0  0
   57.6384   28.4216   46.7682 H   0  0  0  0  0  0  0  0  0  0  0  0
   59.8559   29.3606   46.6288 H   0  0  0  0  0  0  0  0  0  0  0  0
   59.5846   28.4413   45.1097 H   0  0  0  0  0  0  0  0  0  0  0  0
   59.4590   30.2332   45.1097 H   0  0  0  0  0  0  0  0  0  0  0  0
   55.7299   29.7795   43.3747 H   0  0  0  0  0  0  0  0  0  0  0  0
   55.6452   30.4676   45.0386 H   0  0  0  0  0  0  0  0  0  0  0  0
   58.3357   30.7839   44.0230 H   0  0  0  0  0  0  0  0  0  0  0  0
   57.1290   31.4159   42.8068 H   0  0  0  0  0  0  0  0  0  0  0  0
   56.3191   33.0353   44.2324 H   0  0  0  0  0  0  0  0  0  0  0  0
   56.9865   32.1566   45.7101 H   0  0  0  0  0  0  0  0  0  0  0  0
   59.2253   32.8828   44.2075 H   0  0  0  0  0  0  0  0  0  0  0  0
   58.1254   34.3253   44.1809 H   0  0  0  0  0  0  0  0  0  0  0  0
   59.5512   35.6818   48.4329 H   0  0  0  0  0  0  0  0  0  0  0  0
   61.1456   33.3388   45.2638 H   0  0  0  0  0  0  0  0  0  0  0  0
   61.7870   34.9706   45.5160 H   0  0  0  0  0  0  0  0  0  0  0  0
   62.1823   34.7167   47.4190 H   0  0  0  0  0  0  0  0  0  0  0  0
   64.7774   33.0696   51.9157 H   0  0  0  0  0  0  0  0  0  0  0  0
   62.3683   33.2129   52.6324 H   0  0  0  0  0  0  0  0  0  0  0  0
   60.3693   31.0562   46.9679 H   0  0  0  0  0  0  0  0  0  0  0  0
   61.9518   30.7908   47.7661 H   0  0  0  0  0  0  0  0  0  0  0  0
   59.8793   29.5624   48.7964 H   0  0  0  0  0  0  0  0  0  0  0  0
   60.9467   30.5258   49.9288 H   0  0  0  0  0  0  0  0  0  0  0  0
   57.7558   29.7891   50.2659 H   0  0  0  0  0  0  0  0  0  0  0  0
   58.9776   30.3328   51.4623 H   0  0  0  0  0  0  0  0  0  0  0  0
   57.1683   32.2543   50.3524 H   0  0  0  0  0  0  0  0  0  0  0  0
   58.2692   31.5859   53.3125 H   0  0  0  0  0  0  0  0  0  0  0  0
   57.4389   32.9015   53.3374 H   0  0  0  0  0  0  0  0  0  0  0  0
   56.3805   29.9557   52.5127 H   0  0  0  0  0  0  0  0  0  0  0  0
   55.2221   30.9878   52.3986 H   0  0  0  0  0  0  0  0  0  0  0  0
   58.2001   33.2822   49.9795 H   0  0  0  0  0  0  0  0  0  0  0  0
   59.9897   34.3345   51.0593 H   0  0  0  0  0  0  0  0  0  0  0  0
   59.8555   32.6465   51.7584 H   0  0  0  0  0  0  0  0  0  0  0  0
  1  2  1  0
  2  3  1  0
  3  4  1  0
  4  5  1  0
  3  6  1  0
  6  7  1  0
  7  8  1  0
  8  9  1  0
  9 10  1  0
 10 11  1  0
 11 12  2  0
 13 11  1  6
 13 14  1  0
 14 15  2  0
 15 16  1  0
 16 17  1  0
 17 18  1  0
 18 19  1  0
 19 20  2  0
 20 21  1  0
 20 22  1  0
 22 23  2  0
 23 24  1  0
 24 25  2  0
 25 26  1  0
 26 27  1  6
 27 28  1  0
 28 29  1  0
 29 30  1  0
 30 31  1  0
 31 32  1  0
 32 33  1  0
 29 34  1  0
 34 35  1  0
 15 10  1  0
 26 17  1  0
 33 31  1  0
 26 13  1  0
 34 13  1  0
 25 19  1  0
 35 24  1  0
  1 36  1  0
  1 37  1  0
  1 38  1  0
  2 39  1  0
  2 40  1  0
  4 41  1  0
  4 42  1  0
  5 43  1  0
  5 44  1  0
  5 45  1  0
  6 46  1  0
  6 47  1  0
  7 48  1  0
  7 49  1  0
  8 50  1  0
  8 51  1  0
  9 52  1  0
  9 53  1  0
 14 54  1  0
 16 55  1  0
 16 56  1  0
 17 57  1  1
 22 58  1  0
 23 59  1  0
 27 60  1  0
 27 61  1  0
 28 62  1  0
 28 63  1  0
 30 64  1  0
 30 65  1  0
 31 66  1  0
 32 67  1  0
 32 68  1  0
 33 69  1  0
 33 70  1  0
 34 71  1  1
 35 72  1  0
 35 73  1  0
M  CHG  1  21  -1
M  END
>  <UniqueID>  (6) 
6

>  <SMILES>  (6) 
CCN(CC)CCCCN1C(=O)[C@]23C=C1C[C@@H]1Oc4c([O-])ccc5c4C12CCN(CC1CC1)C3C5

>  <Energy>  (6) 
545.7468634844889

>  <Genealogy>  (6) 
CCN(CC)CCCCN1C(=O)C23C=C1CC1Oc4c([O-])ccc5c4C12CCN(CC1CC1)C3C5 (protonated)
CCN(CC)CCCCN1C(=O)[C@]23C=C1C[C@@H]1Oc4c([O-])ccc5c4C12CCN(CC1CC1)C3C5 (chirality)
CCN(CC)CCCCN1C(=O)[C@]23C=C1C[C@@H]1Oc4c([O-])ccc5c4C12CCN(CC1CC1)C3C5 (3D coordinates assigned)
CCN(CC)CCCCN1C(=O)[C@]23C=C1C[C@@H]1Oc4c([O-])ccc5c4C12CCN(CC1CC1)C3C5 (nonaromatic ring conformer: 545.7468634844889 kcal/mol)

>  <smiles>  (6) 
CCN(CC)CCCCN1C(=O)C23C=C1CC1Oc4c(O)ccc5c4C12CCN(CC1CC1)C3C5

>  <score_type>  (6) 
oracle

>  <origin>  (6) 
adg

>  <m_score__min__energy>  (6) 
-9.5899999999999999

>  <m_primary>  (6) 
energy

$$$$
6:0
     RDKit          3D

 27 28  0  0  0  0  0  0  0  0999 V2000
   57.4230   25.4490   47.0720 C   0  0  0  0  0  0  0  0  0  0  0  0
   56.2580   26.1300   46.3600 C   0  0  0  0  0  0  0  0  0  0  0  0
   56.7370   26.9470   45.2440 N   0  0  0  0  0  0  0  0  0  0  0  0
   57.3530   28.2410   45.4000 C   0  0  0  0  0  0  0  0  0  0  0  0
   58.6890   28.3390   45.8320 C   0  0  0  0  0  0  0  0  0  0  0  0
   59.3210   29.5780   45.9330 C   0  0  0  0  0  0  0  0  0  0  0  0
   58.6300   30.7470   45.6010 C   0  0  0  0  0  0  0  0  0  0  0  0
   59.2510   32.0000   45.6910 C   0  0  0  0  0  0  0  0  0  0  0  0
   58.5380   33.1540   45.3610 C   0  0  0  0  0  0  0  0  0  0  0  0
   57.2110   33.0440   44.9450 C   0  0  0  0  0  0  0  0  0  0  0  0
   56.6200   31.8210   44.8620 N   0  0  0  0  0  0  0  0  0  0  0  0
   57.2860   30.6730   45.1710 C   0  0  0  0  0  0  0  0  0  0  0  0
   56.6390   29.4220   45.0780 C   0  0  0  0  0  0  0  0  0  0  0  0
   55.2530   29.3630   44.7000 N   0  0  0  0  0  0  0  0  0  0  0  0
   57.2852   25.5296   48.1603 H   0  0  0  0  0  0  0  0  0  0  0  0
   57.4586   24.3878   46.7845 H   0  0  0  0  0  0  0  0  0  0  0  0
   58.3651   25.9386   46.7845 H   0  0  0  0  0  0  0  0  0  0  0  0
   55.5713   25.3614   45.9756 H   0  0  0  0  0  0  0  0  0  0  0  0
   55.7392   26.7826   47.0776 H   0  0  0  0  0  0  0  0  0  0  0  0
   56.6200   26.5550   44.2830 H   0  0  0  0  0  0  0  0  0  0  0  0
   59.2425   27.4252   46.0937 H   0  0  0  0  0  0  0  0  0  0  0  0
   60.3651   29.6356   46.2745 H   0  0  0  0  0  0  0  0  0  0  0  0
   60.2978   32.0741   46.0209 H   0  0  0  0  0  0  0  0  0  0  0  0
   59.0183   34.1413   45.4284 H   0  0  0  0  0  0  0  0  0  0  0  0
   56.6411   33.9478   44.6835 H   0  0  0  0  0  0  0  0  0  0  0  0
   54.6540   30.2180   44.7030 H   0  0  0  0  0  0  0  0  0  0  0  0
   54.7750   28.4600   44.4930 H   0  0  0  0  0  0  0  0  0  0  0  0
  1  2  1  0
  2  3  1  0
  3  4  1  0
  4  5  2  0
  5  6  1  0
  6  7  2  0
  7  8  1  0
  8  9  2  0
  9 10  1  0
 10 11  2  0
 11 12  1  0
 12 13  2  0
 13 14  1  0
 13  4  1  0
 12  7  1  0
  1 15  1  0
  1 16  1  0
  1 17  1  0
  2 18  1  0
  2 19  1  0
  3 20  1  0
  5 21  1  0
  6 22  1  0
  8 23  1  0
  9 24  1  0
 10 25  1  0
 14 26  1  0
 14 27  1  0
M  END
>  <UniqueID>  (7) 
7

>  <SMILES>  (7) 
CCNc1ccc2cccnc2c1N

>  <Energy>  (7) 
31.193268710212678

>  <Genealogy>  (7) 
CCNc1ccc2cccnc2c1N (3D coordinates assigned)
CCNc1ccc2cccnc2c1N (optimized conformer: 31.193268710212678 kcal/mol)

>  <smiles>  (7) 
CCNc1ccc2cccnc2c1N

>  <score_type>  (7) 
oracle

>  <origin>  (7) 
adg

>  <m_score__min__energy>  (7) 
-6.0999999999999996

>  <m_primary>  (7) 
energy

$$$$
7:0
     RDKit          3D

 56 59  0  0  0  0  0  0  0  0999 V2000
   56.7590   30.7500   44.1830 C   0  0  0  0  0  0  0  0  0  0  0  0
   58.2780   30.6510   44.0820 C   0  0  0  0  0  0  0  0  0  0  0  0
   58.8150   29.9090   45.2240 N   0  0  0  0  0  0  0  0  0  0  0  0
   59.8190   30.3210   46.0330 C   0  0  0  0  0  0  0  0  0  0  0  0
   60.0390   29.3890   47.0420 C   0  0  0  0  0  0  0  0  0  0  0  0
   61.0910   29.4740   48.1120 C   0  0  0  0  0  0  0  0  0  0  0  0
   60.9480   30.7560   48.9430 C   0  0  0  0  0  0  0  0  0  0  0  0
   62.1560   31.6140   48.8580 N   0  0  0  0  0  0  0  0  0  0  0  0
   62.0210   32.9000   49.5790 C   0  0  0  0  0  0  0  0  0  0  0  0
   60.9700   33.8190   48.9320 C   0  0  0  0  0  0  0  0  0  0  0  0
   60.9410   33.6220   47.4790 N   0  0  0  0  0  0  0  0  0  0  0  0
   59.7110   33.7810   46.7470 C   0  0  0  0  0  0  0  0  0  0  0  0
   59.6450   34.7100   45.6940 C   0  0  0  0  0  0  0  0  0  0  0  0
   58.4720   34.8580   44.9530 C   0  0  0  0  0  0  0  0  0  0  0  0
   57.3540   34.0810   45.2530 C   0  0  0  0  0  0  0  0  0  0  0  0
   57.4030   33.1560   46.2990 C   0  0  0  0  0  0  0  0  0  0  0  0
   58.5790   33.0000   47.0590 C   0  0  0  0  0  0  0  0  0  0  0  0
   58.6520   32.0970   48.1330 O   0  0  0  0  0  0  0  0  0  0  0  0
   58.1400   32.3480   49.4360 C   0  0  0  0  0  0  0  0  0  0  0  0
   62.1520   33.1310   46.8190 C   0  0  0  0  0  0  0  0  0  0  0  0
   62.6210   31.8070   47.4590 C   0  0  0  0  0  0  0  0  0  0  0  0
   59.1170   28.3790   46.8310 C   0  0  0  0  0  0  0  0  0  0  0  0
   58.8600   27.2010   47.5350 C   0  0  0  0  0  0  0  0  0  0  0  0
   57.8220   26.3700   47.0750 C   0  0  0  0  0  0  0  0  0  0  0  0
   57.0670   26.7310   45.9400 C   0  0  0  0  0  0  0  0  0  0  0  0
   57.3460   27.9230   45.2470 C   0  0  0  0  0  0  0  0  0  0  0  0
   58.3850   28.7300   45.7200 C   0  0  0  0  0  0  0  0  0  0  0  0
   56.4624   30.7693   45.2421 H   0  0  0  0  0  0  0  0  0  0  0  0
   56.4181   31.6723   43.6899 H   0  0  0  0  0  0  0  0  0  0  0  0
   56.3012   29.8798   43.6899 H   0  0  0  0  0  0  0  0  0  0  0  0
   58.5467   30.1296   43.1515 H   0  0  0  0  0  0  0  0  0  0  0  0
   58.7038   31.6652   44.0816 H   0  0  0  0  0  0  0  0  0  0  0  0
   60.3807   31.2588   45.9101 H   0  0  0  0  0  0  0  0  0  0  0  0
   60.9940   28.6040   48.7781 H   0  0  0  0  0  0  0  0  0  0  0  0
   62.0772   29.4874   47.6250 H   0  0  0  0  0  0  0  0  0  0  0  0
   60.0824   31.3244   48.5721 H   0  0  0  0  0  0  0  0  0  0  0  0
   60.8129   30.4645   49.9950 H   0  0  0  0  0  0  0  0  0  0  0  0
   61.7215   32.6947   50.6173 H   0  0  0  0  0  0  0  0  0  0  0  0
   62.9922   33.4148   49.5380 H   0  0  0  0  0  0  0  0  0  0  0  0
   59.9792   33.5856   49.3489 H   0  0  0  0  0  0  0  0  0  0  0  0
   61.2334   34.8657   49.1442 H   0  0  0  0  0  0  0  0  0  0  0  0
   60.5246   35.3248   45.4524 H   0  0  0  0  0  0  0  0  0  0  0  0
   58.4293   35.5883   44.1315 H   0  0  0  0  0  0  0  0  0  0  0  0
   56.4315   34.1964   44.6650 H   0  0  0  0  0  0  0  0  0  0  0  0
   56.5177   32.5456   46.5306 H   0  0  0  0  0  0  0  0  0  0  0  0
   58.8611   31.9945   50.1877 H   0  0  0  0  0  0  0  0  0  0  0  0
   57.9768   33.4283   49.5640 H   0  0  0  0  0  0  0  0  0  0  0  0
   57.1861   31.8154   49.5640 H   0  0  0  0  0  0  0  0  0  0  0  0
   61.9395   32.9619   45.7531 H   0  0  0  0  0  0  0  0  0  0  0  0
   62.9477   33.8818   46.9340 H   0  0  0  0  0  0  0  0  0  0  0  0
   62.2399   30.9742   46.8498 H   0  0  0  0  0  0  0  0  0  0  0  0
   63.7200   31.8403   47.4905 H   0  0  0  0  0  0  0  0  0  0  0  0
   59.4512   26.9308   48.4224 H   0  0  0  0  0  0  0  0  0  0  0  0
   57.5979   25.4322   47.6044 H   0  0  0  0  0  0  0  0  0  0  0  0
   56.2540   26.0758   45.5940 H   0  0  0  0  0  0  0  0  0  0  0  0
   56.7640   28.2115   44.3593 H   0  0  0  0  0  0  0  0  0  0  0  0
  1  2  1  0
  2  3  1  0
  3  4  1  0
  4  5  2  0
  5  6  1  0
  6  7  1  0
  7  8  1  0
  8  9  1  0
  9 10  1  0
 10 11  1  0
 11 12  1  0
 12 13  2  0
 13 14  1  0
 14 15  2  0
 15 16  1  0
 16 17  2  0
 17 18  1  0
 18 19  1  0
 11 20  1  0
 20 21  1  0
  5 22  1  0
 22 23  2  0
 23 24  1  0
 24 25  2  0
 25 26  1  0
 26 27  2  0
 27  3  1  0
 21  8  1  0
 27 22  1  0
 17 12  1  0
  1 28  1  0
  1 29  1  0
  1 30  1  0
  2 31  1  0
  2 32  1  0
  4 33  1  0
  6 34  1  0
  6 35  1  0
  7 36  1  0
  7 37  1  0
  9 38  1  0
  9 39  1  0
 10 40  1  0
 10 41  1  0
 13 42  1  0
 14 43  1  0
 15 44  1  0
 16 45  1  0
 19 46  1  0
 19 47  1  0
 19 48  1  0
 20 49  1  0
 20 50  1  0
 21 51  1  0
 21 52  1  0
 23 53  1  0
 24 54  1  0
 25 55  1  0
 26 56  1  0
M  END
>  <UniqueID>  (8) 
8

>  <SMILES>  (8) 
CCn1cc(CCN2CCN(c3ccccc3OC)CC2)c2ccccc21

>  <Energy>  (8) 
100.36214179867282

>  <Genealogy>  (8) 
CCn1cc(CCN2CCN(c3ccccc3OC)CC2)c2ccccc21 (3D coordinates assigned)
CCn1cc(CCN2CCN(c3ccccc3OC)CC2)c2ccccc21 (nonaromatic ring conformer: 100.36214179867282 kcal/mol)

>  <smiles>  (8) 
CCn1cc(CCN2CCN(c3ccccc3OC)CC2)c2ccccc21

>  <score_type>  (8) 
oracle

>  <origin>  (8) 
adg

>  <m_score__min__energy>  (8) 
-8.1199999999999992

>  <m_primary>  (8) 
energy

$$$$
8:0
     RDKit          3D

 45 47  0  0  0  0  0  0  0  0999 V2000
   59.5930   35.2250   45.2400 C   0  0  0  0  0  0  0  0  0  0  0  0
   59.4750   35.0260   46.7480 C   0  0  0  0  0  0  0  0  0  0  0  0
   59.2090   33.6210   47.0730 N   0  0  0  0  0  0  0  0  0  0  0  0
   60.0160   32.7200   47.6860 C   0  0  0  0  0  0  0  0  0  0  0  0
   61.3810   32.9850   48.1810 C   0  0  0  0  0  0  0  0  0  0  0  0
   62.4800   32.4730   47.4720 C   0  0  0  0  0  0  0  0  0  0  0  0
   63.7820   32.7100   47.9230 C   0  0  0  0  0  0  0  0  0  0  0  0
   63.9950   33.4470   49.0890 C   0  0  0  0  0  0  0  0  0  0  0  0
   62.9070   33.9390   49.8140 C   0  0  0  0  0  0  0  0  0  0  0  0
   61.6020   33.7080   49.3680 C   0  0  0  0  0  0  0  0  0  0  0  0
   60.5620   34.1550   50.1120 F   0  0  0  0  0  0  0  0  0  0  0  0
   59.4700   31.4870   47.6930 N   0  0  0  0  0  0  0  0  0  0  0  0
   58.2970   31.5970   47.0910 N   0  0  0  0  0  0  0  0  0  0  0  0
   58.1470   32.8740   46.7010 C   0  0  0  0  0  0  0  0  0  0  0  0
   56.7550   33.4590   45.7240 S   0  0  0  0  0  0  0  0  0  0  0  0
   57.4510   32.9110   44.1260 C   0  0  0  0  0  0  0  0  0  0  0  0
   58.4880   31.8050   44.3330 C   0  0  0  0  0  0  0  0  0  0  0  0
   58.1520   30.6340   43.4940 N   0  0  0  0  0  0  0  0  0  0  0  0
   56.7240   30.6070   43.1240 C   0  0  0  0  0  0  0  0  0  0  0  0
   55.8200   30.2740   44.3340 C   0  0  0  0  0  0  0  0  0  0  0  0
   56.5310   29.7140   45.4250 O   0  0  0  0  0  0  0  0  0  0  0  0
   57.4240   28.7240   44.9650 C   0  0  0  0  0  0  0  0  0  0  0  0
   58.5560   29.3550   44.1290 C   0  0  0  0  0  0  0  0  0  0  0  0
   60.1442   36.1546   45.0348 H   0  0  0  0  0  0  0  0  0  0  0  0
   60.1325   34.3739   44.7989 H   0  0  0  0  0  0  0  0  0  0  0  0
   58.5874   35.2901   44.7989 H   0  0  0  0  0  0  0  0  0  0  0  0
   60.4165   35.3339   47.2263 H   0  0  0  0  0  0  0  0  0  0  0  0
   58.6376   35.6360   47.1177 H   0  0  0  0  0  0  0  0  0  0  0  0
   62.3157   31.8831   46.5582 H   0  0  0  0  0  0  0  0  0  0  0  0
   64.6394   32.3152   47.3583 H   0  0  0  0  0  0  0  0  0  0  0  0
   65.0203   33.6405   49.4373 H   0  0  0  0  0  0  0  0  0  0  0  0
   63.0774   34.5099   50.7387 H   0  0  0  0  0  0  0  0  0  0  0  0
   57.6350   30.8070   46.9300 H   0  0  0  0  0  0  0  0  0  0  0  0
   56.6381   32.5284   43.4913 H   0  0  0  0  0  0  0  0  0  0  0  0
   57.9432   33.7687   43.6442 H   0  0  0  0  0  0  0  0  0  0  0  0
   59.4828   32.1811   44.0522 H   0  0  0  0  0  0  0  0  0  0  0  0
   58.4885   31.5034   45.3909 H   0  0  0  0  0  0  0  0  0  0  0  0
   56.4403   31.5938   42.7293 H   0  0  0  0  0  0  0  0  0  0  0  0
   56.5831   29.8212   42.3672 H   0  0  0  0  0  0  0  0  0  0  0  0
   55.3336   31.2007   44.6725 H   0  0  0  0  0  0  0  0  0  0  0  0
   55.0898   29.5224   43.9994 H   0  0  0  0  0  0  0  0  0  0  0  0
   57.8613   28.2028   45.8293 H   0  0  0  0  0  0  0  0  0  0  0  0
   56.8700   28.0156   44.3315 H   0  0  0  0  0  0  0  0  0  0  0  0
   59.4163   29.5450   44.7876 H   0  0  0  0  0  0  0  0  0  0  0  0
   58.8090   28.6490   43.3243 H   0  0  0  0  0  0  0  0  0  0  0  0
  1  2  1  0
  2  3  1  0
  3  4  1  0
  4  5  1  0
  5  6  2  0
  6  7  1  0
  7  8  2  0
  8  9  1  0
  9 10  2  0
 10 11  1  0
  4 12  2  0
 12 13  1  0
 13 14  2  0
 14 15  1  0
 15 16  1  0
 16 17  1  0
 17 18  1  0
 18 19  1  0
 19 20  1  0
 20 21  1  0
 21 22  1  0
 22 23  1  0
 14  3  1  0
 23 18  1  0
 10  5  1  0
  1 24  1  0
  1 25  1  0
  1 26  1  0
  2 27  1  0
  2 28  1  0
  6 29  1  0
  7 30  1  0
  8 31  1  0
  9 32  1  0
 13 33  1  0
 16 34  1  0
 16 35  1  0
 17 36  1  0
 17 37  1  0
 19 38  1  0
 19 39  1  0
 20 40  1  0
 20 41  1  0
 22 42  1  0
 22 43  1  0
 23 44  1  0
 23 45  1  0
M  CHG  1  13   1
M  END
>  <UniqueID>  (9) 
9

>  <SMILES>  (9) 
CCn1c(-c2ccccc2F)n[nH+]c1SCCN1CCOCC1

>  <Energy>  (9) 
91.70533308791948

>  <Genealogy>  (9) 
CCn1c(-c2ccccc2F)n[nH+]c1SCCN1CCOCC1 (protonated)
CCn1c(-c2ccccc2F)n[nH+]c1SCCN1CCOCC1 (3D coordinates assigned)
CCn1c(-c2ccccc2F)n[nH+]c1SCCN1CCOCC1 (nonaromatic ring conformer: 91.70533308791948 kcal/mol)

>  <smiles>  (9) 
CCn1c(SCCN2CCOCC2)nnc1-c1ccccc1F

>  <score_type>  (9) 
oracle

>  <origin>  (9) 
adg

>  <m_score__min__energy>  (9) 
-6.1500000000000004

>  <m_primary>  (9) 
energy

$$$$
9:0
     RDKit          3D

 47 49  0  0  0  0  0  0  0  0999 V2000
   58.4970   34.1920   45.3850 C   0  0  0  0  0  0  0  0  0  0  0  0
   58.4740   33.6840   46.8260 C   0  0  0  0  0  0  0  0  0  0  0  0
   59.4680   32.5400   47.0590 C   0  0  0  0  0  0  0  0  0  0  0  0
   58.8690   31.2110   46.7160 C   0  0  0  0  0  0  0  0  0  0  0  0
   57.7890   31.0700   45.9020 N   0  0  0  0  0  0  0  0  0  0  0  0
   57.6100   29.7380   45.9160 C   0  0  0  0  0  0  0  0  0  0  0  0
   56.6450   28.9810   45.2540 C   0  0  0  0  0  0  0  0  0  0  0  0
   55.6590   29.5960   44.4140 N   0  0  0  0  0  0  0  0  0  0  0  0
   55.9080   29.8190   42.9900 C   0  0  0  0  0  0  0  0  0  0  0  0
   57.0030   30.8600   42.7830 C   0  0  0  0  0  0  0  0  0  0  0  0
   56.6730   27.6250   45.4300 N   0  0  0  0  0  0  0  0  0  0  0  0
   57.5990   26.9960   46.2280 C   0  0  0  0  0  0  0  0  0  0  0  0
   57.5650   25.5590   46.3580 N   0  0  0  0  0  0  0  0  0  0  0  0
   57.7550   24.6810   45.1940 C   0  0  0  0  0  0  0  0  0  0  0  0
   58.3530   23.3360   45.6320 C   0  0  0  0  0  0  0  0  0  0  0  0
   57.5740   22.6610   46.7010 N   0  0  0  0  0  0  0  0  0  0  0  0
   56.7600   21.5610   46.1590 C   0  0  0  0  0  0  0  0  0  0  0  0
   56.7350   23.5650   47.5240 C   0  0  0  0  0  0  0  0  0  0  0  0
   57.3630   24.9530   47.6780 C   0  0  0  0  0  0  0  0  0  0  0  0
   58.5820   27.7690   46.8940 C   0  0  0  0  0  0  0  0  0  0  0  0
   58.5400   29.1440   46.7040 C   0  0  0  0  0  0  0  0  0  0  0  0
   59.3200   30.0650   47.2010 O   0  0  0  0  0  0  0  0  0  0  0  0
   58.5468   35.2909   45.3844 H   0  0  0  0  0  0  0  0  0  0  0  0
   59.3776   33.7848   44.8667 H   0  0  0  0  0  0  0  0  0  0  0  0
   57.5832   33.8660   44.8667 H   0  0  0  0  0  0  0  0  0  0  0  0
   58.7298   34.5164   47.4980 H   0  0  0  0  0  0  0  0  0  0  0  0
   57.4644   33.2973   47.0290 H   0  0  0  0  0  0  0  0  0  0  0  0
   60.3555   32.7046   46.4303 H   0  0  0  0  0  0  0  0  0  0  0  0
   59.7383   32.5308   48.1252 H   0  0  0  0  0  0  0  0  0  0  0  0
   54.7480   29.8910   44.8350 H   0  0  0  0  0  0  0  0  0  0  0  0
   56.2203   28.8714   42.5268 H   0  0  0  0  0  0  0  0  0  0  0  0
   54.9815   30.1880   42.5259 H   0  0  0  0  0  0  0  0  0  0  0  0
   57.3683   31.2073   43.7607 H   0  0  0  0  0  0  0  0  0  0  0  0
   57.8341   30.4109   42.2195 H   0  0  0  0  0  0  0  0  0  0  0  0
   56.5964   31.7127   42.2195 H   0  0  0  0  0  0  0  0  0  0  0  0
   56.7831   24.5053   44.7096 H   0  0  0  0  0  0  0  0  0  0  0  0
   58.4456   25.1666   44.4888 H   0  0  0  0  0  0  0  0  0  0  0  0
   58.3919   22.6708   44.7568 H   0  0  0  0  0  0  0  0  0  0  0  0
   59.3520   23.5446   46.0425 H   0  0  0  0  0  0  0  0  0  0  0  0
   56.3300   20.9800   46.9882 H   0  0  0  0  0  0  0  0  0  0  0  0
   55.9488   21.9747   45.5419 H   0  0  0  0  0  0  0  0  0  0  0  0
   57.3928   20.9062   45.5419 H   0  0  0  0  0  0  0  0  0  0  0  0
   55.7517   23.6721   47.0428 H   0  0  0  0  0  0  0  0  0  0  0  0
   56.6428   23.1220   48.5266 H   0  0  0  0  0  0  0  0  0  0  0  0
   56.6945   25.5916   48.2740 H   0  0  0  0  0  0  0  0  0  0  0  0
   58.3346   24.8566   48.1846 H   0  0  0  0  0  0  0  0  0  0  0  0
   59.3448   27.3007   47.5334 H   0  0  0  0  0  0  0  0  0  0  0  0
  1  2  1  0
  2  3  1  0
  3  4  1  0
  4  5  2  0
  5  6  1  0
  6  7  2  0
  7  8  1  0
  8  9  1  0
  9 10  1  0
  7 11  1  0
 11 12  2  0
 12 13  1  0
 13 14  1  0
 14 15  1  0
 15 16  1  0
 16 17  1  0
 16 18  1  0
 18 19  1  0
 12 20  1  0
 20 21  2  0
 21 22  1  0
 22  4  1  0
 21  6  1  0
 19 13  1  0
  1 23  1  0
  1 24  1  0
  1 25  1  0
  2 26  1  0
  2 27  1  0
  3 28  1  0
  3 29  1  0
  8 30  1  0
  9 31  1  0
  9 32  1  0
 10 33  1  0
 10 34  1  0
 10 35  1  0
 14 36  1  0
 14 37  1  0
 15 38  1  0
 15 39  1  0
 17 40  1  0
 17 41  1  0
 17 42  1  0
 18 43  1  0
 18 44  1  0
 19 45  1  0
 19 46  1  0
 20 47  1  0
M  END
>  <UniqueID>  (10) 
10

>  <SMILES>  (10) 
CCCc1nc2c(NCC)nc(N3CCN(C)CC3)cc2o1

>  <Energy>  (10) 
83.13293911703545

>  <Genealogy>  (10) 
CCCc1nc2c(NCC)nc(N3CCN(C)CC3)cc2o1 (3D coordinates assigned)
CCCc1nc2c(NCC)nc(N3CCN(C)CC3)cc2o1 (nonaromatic ring conformer: 83.13293911703545 kcal/mol)

>  <smiles>  (10) 
CCCc1nc2c(NCC)nc(N3CCN(C)CC3)cc2o1

>  <score_type>  (10) 
oracle

>  <origin>  (10) 
adg

>  <m_score__min__energy>  (10) 
-6.4400000000000004

>  <m_primary>  (10) 
energy

$$$$
10:0
     RDKit          3D

 37 37  0  0  0  0  0  0  0  0999 V2000
   56.3160   29.7100   42.6890 C   0  0  0  0  0  0  0  0  0  0  0  0
   55.9230   30.1540   44.1060 C   0  0  0  0  0  0  0  0  0  0  0  0
   57.0220   30.7980   44.8610 N   0  0  0  0  0  0  0  0  0  0  0  0
   57.7660   29.8320   45.6900 C   0  0  0  0  0  0  0  0  0  0  0  0
   57.9160   31.6030   43.9970 C   0  0  0  0  0  0  0  0  0  0  0  0
   57.7790   33.1110   44.2960 C   0  0  0  0  0  0  0  0  0  0  0  0
   57.3310   33.4110   45.6700 N   0  0  0  0  0  0  0  0  0  0  0  0
   58.3300   34.0790   46.5180 C   0  0  0  0  0  0  0  0  0  0  0  0
   58.8560   33.1630   47.6320 C   0  0  0  0  0  0  0  0  0  0  0  0
   60.3450   32.9630   47.4900 C   0  0  0  0  0  0  0  0  0  0  0  0
   61.1230   34.0040   46.9520 C   0  0  0  0  0  0  0  0  0  0  0  0
   62.4990   33.8430   46.7760 C   0  0  0  0  0  0  0  0  0  0  0  0
   63.1130   32.6390   47.1240 C   0  0  0  0  0  0  0  0  0  0  0  0
   62.3510   31.5910   47.6440 C   0  0  0  0  0  0  0  0  0  0  0  0
   60.9700   31.7390   47.8240 C   0  0  0  0  0  0  0  0  0  0  0  0
   59.9880   30.2410   48.5140 Br  0  0  0  0  0  0  0  0  0  0  0  0
   57.0439   28.8876   42.7511 H   0  0  0  0  0  0  0  0  0  0  0  0
   55.4202   29.3669   42.1506 H   0  0  0  0  0  0  0  0  0  0  0  0
   56.7653   30.5575   42.1506 H   0  0  0  0  0  0  0  0  0  0  0  0
   55.0919   30.8702   44.0262 H   0  0  0  0  0  0  0  0  0  0  0  0
   55.6463   29.2446   44.6596 H   0  0  0  0  0  0  0  0  0  0  0  0
   57.5952   30.0537   46.7538 H   0  0  0  0  0  0  0  0  0  0  0  0
   57.4174   28.8127   45.4673 H   0  0  0  0  0  0  0  0  0  0  0  0
   58.8405   29.9088   45.4673 H   0  0  0  0  0  0  0  0  0  0  0  0
   58.9572   31.2960   44.1746 H   0  0  0  0  0  0  0  0  0  0  0  0
   57.6319   31.4305   42.9484 H   0  0  0  0  0  0  0  0  0  0  0  0
   58.7592   33.5852   44.1402 H   0  0  0  0  0  0  0  0  0  0  0  0
   57.0073   33.5020   43.6165 H   0  0  0  0  0  0  0  0  0  0  0  0
   57.0600   32.5120   46.1320 H   0  0  0  0  0  0  0  0  0  0  0  0
   59.1760   34.3916   45.8883 H   0  0  0  0  0  0  0  0  0  0  0  0
   57.8429   34.9424   46.9947 H   0  0  0  0  0  0  0  0  0  0  0  0
   58.6435   33.6218   48.6089 H   0  0  0  0  0  0  0  0  0  0  0  0
   58.3561   32.1861   47.5562 H   0  0  0  0  0  0  0  0  0  0  0  0
   60.6438   34.9524   46.6676 H   0  0  0  0  0  0  0  0  0  0  0  0
   63.0998   34.6664   46.3625 H   0  0  0  0  0  0  0  0  0  0  0  0
   64.1976   32.5157   46.9886 H   0  0  0  0  0  0  0  0  0  0  0  0
   62.8386   30.6427   47.9141 H   0  0  0  0  0  0  0  0  0  0  0  0
  1  2  1  0
  2  3  1  0
  3  4  1  0
  3  5  1  0
  5  6  1  0
  6  7  1  0
  7  8  1  0
  8  9  1  0
  9 10  1  0
 10 11  2  0
 11 12  1  0
 12 13  2  0
 13 14  1  0
 14 15  2  0
 15 16  1  0
 15 10  1  0
  1 17  1  0
  1 18  1  0
  1 19  1  0
  2 20  1  0
  2 21  1  0
  4 22  1  0
  4 23  1  0
  4 24  1  0
  5 25  1  0
  5 26  1  0
  6 27  1  0
  6 28  1  0
  7 29  1  0
  8 30  1  0
  8 31  1  0
  9 32  1  0
  9 33  1  0
 11 34  1  0
 12 35  1  0
 13 36  1  0
 14 37  1  0
M  END
>  <UniqueID>  (11) 
11

>  <SMILES>  (11) 
CCN(C)CCNCCc1ccccc1Br

>  <Energy>  (11) 
36.28551047553853

>  <Genealogy>  (11) 
CCN(C)CCNCCc1ccccc1Br (3D coordinates assigned)
CCN(C)CCNCCc1ccccc1Br (optimized conformer: 36.28551047553853 kcal/mol)

>  <smiles>  (11) 
CCN(C)CCNCCc1ccccc1Br

>  <score_type>  (11) 
oracle

>  <origin>  (11) 
adg

>  <m_score__min__energy>  (11) 
-5.9800000000000004

>  <m_primary>  (11) 
energy

$$$$
11:0
     RDKit          3D

 53 55  0  0  0  0  0  0  0  0999 V2000
   58.3230   31.8490   50.7400 C   0  0  0  0  0  0  0  0  0  0  0  0
   59.5540   31.0090   50.3860 C   0  0  0  0  0  0  0  0  0  0  0  0
   60.8140   31.7230   50.6550 N   0  0  0  0  0  0  0  0  0  0  0  0
   61.9530   30.8120   50.8500 C   0  0  0  0  0  0  0  0  0  0  0  0
   63.2720   31.5090   50.5100 C   0  0  0  0  0  0  0  0  0  0  0  0
   63.0740   32.4480   49.4670 O   0  0  0  0  0  0  0  0  0  0  0  0
   63.5980   31.9830   48.2350 C   0  0  0  0  0  0  0  0  0  0  0  0
   62.5240   31.2760   47.3950 C   0  0  0  0  0  0  0  0  0  0  0  0
   61.1570   31.4020   47.9490 N   0  0  0  0  0  0  0  0  0  0  0  0
   60.1320   31.3010   46.9180 C   0  0  0  0  0  0  0  0  0  0  0  0
   59.7820   30.0210   46.3820 C   0  0  0  0  0  0  0  0  0  0  0  0
   60.3930   28.8150   46.8260 C   0  0  0  0  0  0  0  0  0  0  0  0
   60.0640   27.5840   46.2690 C   0  0  0  0  0  0  0  0  0  0  0  0
   59.1360   27.5080   45.2450 C   0  0  0  0  0  0  0  0  0  0  0  0
   58.5130   28.6640   44.7880 C   0  0  0  0  0  0  0  0  0  0  0  0
   58.7960   29.9320   45.3610 C   0  0  0  0  0  0  0  0  0  0  0  0
   58.1530   31.0630   44.9170 N   0  0  0  0  0  0  0  0  0  0  0  0
   56.9250   30.9390   44.0960 C   0  0  0  0  0  0  0  0  0  0  0  0
   58.6280   32.3110   45.2530 C   0  0  0  0  0  0  0  0  0  0  0  0
   58.2370   33.4440   44.5010 C   0  0  0  0  0  0  0  0  0  0  0  0
   58.6130   34.7230   44.8730 C   0  0  0  0  0  0  0  0  0  0  0  0
   59.3540   34.9170   46.0230 C   0  0  0  0  0  0  0  0  0  0  0  0
   59.6270   36.1860   46.4190 F   0  0  0  0  0  0  0  0  0  0  0  0
   59.8000   33.8280   46.7830 C   0  0  0  0  0  0  0  0  0  0  0  0
   60.4060   34.1490   48.0380 N   0  0  0  0  0  0  0  0  0  0  0  0
   59.7790   33.9020   49.0900 O   0  0  0  0  0  0  0  0  0  0  0  0
   61.7790   34.2150   48.0960 O   0  0  0  0  0  0  0  0  0  0  0  0
   59.5300   32.4780   46.3500 C   0  0  0  0  0  0  0  0  0  0  0  0
   58.2263   31.9150   51.8338 H   0  0  0  0  0  0  0  0  0  0  0  0
   58.4356   32.8595   50.3202 H   0  0  0  0  0  0  0  0  0  0  0  0
   57.4231   31.3757   50.3202 H   0  0  0  0  0  0  0  0  0  0  0  0
   59.5360   30.0857   50.9837 H   0  0  0  0  0  0  0  0  0  0  0  0
   59.5141   30.7909   49.3086 H   0  0  0  0  0  0  0  0  0  0  0  0
   61.0270   32.3750   49.8640 H   0  0  0  0  0  0  0  0  0  0  0  0
   61.9780   30.4858   51.9002 H   0  0  0  0  0  0  0  0  0  0  0  0
   61.8299   29.9464   50.1825 H   0  0  0  0  0  0  0  0  0  0  0  0
   63.6479   32.0309   51.4024 H   0  0  0  0  0  0  0  0  0  0  0  0
   64.0022   30.7551   50.1808 H   0  0  0  0  0  0  0  0  0  0  0  0
   63.9886   32.8401   47.6669 H   0  0  0  0  0  0  0  0  0  0  0  0
   64.3970   31.2588   48.4522 H   0  0  0  0  0  0  0  0  0  0  0  0
   62.5308   31.7113   46.3848 H   0  0  0  0  0  0  0  0  0  0  0  0
   62.7721   30.2044   47.3918 H   0  0  0  0  0  0  0  0  0  0  0  0
   60.9920   30.6780   48.6770 H   0  0  0  0  0  0  0  0  0  0  0  0
   61.0580   32.2570   48.5320 H   0  0  0  0  0  0  0  0  0  0  0  0
   61.1435   28.8575   47.6290 H   0  0  0  0  0  0  0  0  0  0  0  0
   60.5430   26.6674   46.6436 H   0  0  0  0  0  0  0  0  0  0  0  0
   58.8918   26.5351   44.7936 H   0  0  0  0  0  0  0  0  0  0  0  0
   57.7858   28.5948   43.9655 H   0  0  0  0  0  0  0  0  0  0  0  0
   56.0498   30.8506   44.7564 H   0  0  0  0  0  0  0  0  0  0  0  0
   56.8168   31.8308   43.4612 H   0  0  0  0  0  0  0  0  0  0  0  0
   56.9972   30.0436   43.4612 H   0  0  0  0  0  0  0  0  0  0  0  0
   57.6205   33.3052   43.6007 H   0  0  0  0  0  0  0  0  0  0  0  0
   58.3222   35.5843   44.2537 H   0  0  0  0  0  0  0  0  0  0  0  0
  1  2  1  0
  2  3  1  0
  3  4  1  0
  4  5  1  0
  5  6  1  0
  6  7  1  0
  7  8  1  0
  8  9  1  0
  9 10  1  0
 10 11  2  0
 11 12  1  0
 12 13  2  0
 13 14  1  0
 14 15  2  0
 15 16  1  0
 16 17  2  0
 17 18  1  0
 17 19  1  0
 19 20  2  0
 20 21  1  0
 21 22  2  0
 22 23  1  0
 22 24  1  0
 24 25  1  0
 25 26  2  0
 25 27  1  0
 24 28  2  0
 28 10  1  0
 16 11  1  0
 28 19  1  0
  1 29  1  0
  1 30  1  0
  1 31  1  0
  2 32  1  0
  2 33  1  0
  3 34  1  0
  4 35  1  0
  4 36  1  0
  5 37  1  0
  5 38  1  0
  7 39  1  0
  7 40  1  0
  8 41  1  0
  8 42  1  0
  9 43  1  0
  9 44  1  0
 12 45  1  0
 13 46  1  0
 14 47  1  0
 15 48  1  0
 18 49  1  0
 18 50  1  0
 18 51  1  0
 20 52  1  0
 21 53  1  0
M  CHG  4   9   1  17   1  25   1  27  -1
M  END
>  <UniqueID>  (12) 
12

>  <SMILES>  (12) 
CCNCCOCC[NH2+]c1c2ccccc2[n+](C)c2ccc(F)c([N+](=O)[O-])c12

>  <Energy>  (12) 
104.13576265295355

>  <Genealogy>  (12) 
CCNCCOCC[NH2+]c1c2ccccc2[n+](C)c2ccc(F)c([N+](=O)[O-])c12 (protonated)
CCNCCOCC[NH2+]c1c2ccccc2[n+](C)c2ccc(F)c([N+](=O)[O-])c12 (3D coordinates assigned)
CCNCCOCC[NH2+]c1c2ccccc2[n+](C)c2ccc(F)c([N+](=O)[O-])c12 (optimized conformer: 104.13576265295355 kcal/mol)

>  <smiles>  (12) 
CCNCCOCCNc1c2ccccc2[n+](C)c2ccc(F)c([N+](=O)[O-])c12

>  <score_type>  (12) 
oracle

>  <origin>  (12) 
adg

>  <m_score__min__energy>  (12) 
-3.1000000000000001

>  <m_primary>  (12) 
energy

$$$$
12:0
     RDKit          3D

 56 57  0  0  0  0  0  0  0  0999 V2000
   56.3400   29.8650   43.0330 C   0  0  0  0  0  0  0  0  0  0  0  0
   56.6330   30.9080   44.1050 C   0  0  0  0  0  0  0  0  0  0  0  0
   57.9990   31.4570   43.9050 N   0  0  0  0  0  0  0  0  0  0  0  0
   58.0400   32.3310   42.7200 C   0  0  0  0  0  0  0  0  0  0  0  0
   58.5000   32.1860   45.0920 C   0  0  0  0  0  0  0  0  0  0  0  0
   58.0690   33.6620   45.0530 C   0  0  0  0  0  0  0  0  0  0  0  0
   59.2550   34.6210   45.2260 C   0  0  0  0  0  0  0  0  0  0  0  0
   59.8690   34.4840   46.5430 N   0  0  0  0  0  0  0  0  0  0  0  0
   60.9720   33.6070   46.7870 C   0  0  0  0  0  0  0  0  0  0  0  0
   61.0840   32.3080   47.2460 C   0  0  0  0  0  0  0  0  0  0  0  0
   60.1470   31.3180   47.6810 N   0  0  0  0  0  0  0  0  0  0  0  0
   60.3350   29.8910   47.3960 C   0  0  0  0  0  0  0  0  0  0  0  0
   60.9130   29.6890   45.9740 C   0  0  0  0  0  0  0  0  0  0  0  0
   60.4160   28.3790   45.3530 C   0  0  0  0  0  0  0  0  0  0  0  0
   58.9420   28.3960   45.1540 N   0  0  0  0  0  0  0  0  0  0  0  0
   58.3600   27.0660   44.8050 C   0  0  0  0  0  0  0  0  0  0  0  0
   58.0940   26.8880   43.2920 C   0  0  0  0  0  0  0  0  0  0  0  0
   57.0090   26.8780   45.5300 C   0  0  0  0  0  0  0  0  0  0  0  0
   58.2060   29.0560   46.2760 C   0  0  0  0  0  0  0  0  0  0  0  0
   59.0100   29.1190   47.5830 C   0  0  0  0  0  0  0  0  0  0  0  0
   62.4600   32.3870   47.1230 C   0  0  0  0  0  0  0  0  0  0  0  0
   63.4190   31.5980   47.3310 O   0  0  0  0  0  0  0  0  0  0  0  0
   62.3490   33.6940   46.6970 C   0  0  0  0  0  0  0  0  0  0  0  0
   63.1670   34.5890   46.3650 O   0  0  0  0  0  0  0  0  0  0  0  0
   56.0722   28.9118   43.5123 H   0  0  0  0  0  0  0  0  0  0  0  0
   55.5035   30.2081   42.4065 H   0  0  0  0  0  0  0  0  0  0  0  0
   57.2328   29.7223   42.4065 H   0  0  0  0  0  0  0  0  0  0  0  0
   55.8970   31.7225   44.0344 H   0  0  0  0  0  0  0  0  0  0  0  0
   56.5690   30.4395   45.0982 H   0  0  0  0  0  0  0  0  0  0  0  0
   58.0893   33.3819   43.0411 H   0  0  0  0  0  0  0  0  0  0  0  0
   58.9278   32.0898   42.1170 H   0  0  0  0  0  0  0  0  0  0  0  0
   57.1335   32.1740   42.1170 H   0  0  0  0  0  0  0  0  0  0  0  0
   58.0946   31.7165   46.0004 H   0  0  0  0  0  0  0  0  0  0  0  0
   59.5991   32.1411   45.0935 H   0  0  0  0  0  0  0  0  0  0  0  0
   57.5889   33.8646   44.0843 H   0  0  0  0  0  0  0  0  0  0  0  0
   57.3749   33.8316   45.8893 H   0  0  0  0  0  0  0  0  0  0  0  0
   60.0086   34.3993   44.4560 H   0  0  0  0  0  0  0  0  0  0  0  0
   58.8821   35.6510   45.1257 H   0  0  0  0  0  0  0  0  0  0  0  0
   59.5130   35.0680   47.3330 H   0  0  0  0  0  0  0  0  0  0  0  0
   59.3060   31.6500   48.2050 H   0  0  0  0  0  0  0  0  0  0  0  0
   61.0631   29.4840   48.1131 H   0  0  0  0  0  0  0  0  0  0  0  0
   60.5997   30.5293   45.3370 H   0  0  0  0  0  0  0  0  0  0  0  0
   62.0096   29.6448   46.0475 H   0  0  0  0  0  0  0  0  0  0  0  0
   60.9068   28.2362   44.3790 H   0  0  0  0  0  0  0  0  0  0  0  0
   60.6625   27.5557   46.0396 H   0  0  0  0  0  0  0  0  0  0  0  0
   59.1073   26.3220   45.1182 H   0  0  0  0  0  0  0  0  0  0  0  0
   57.1877   26.2815   43.1479 H   0  0  0  0  0  0  0  0  0  0  0  0
   57.9531   27.8744   42.8260 H   0  0  0  0  0  0  0  0  0  0  0  0
   58.9521   26.3815   42.8260 H   0  0  0  0  0  0  0  0  0  0  0  0
   57.1704   26.9005   46.6179 H   0  0  0  0  0  0  0  0  0  0  0  0
   56.3235   27.6894   45.2442 H   0  0  0  0  0  0  0  0  0  0  0  0
   56.5711   25.9103   45.2442 H   0  0  0  0  0  0  0  0  0  0  0  0
   57.9554   30.0829   45.9716 H   0  0  0  0  0  0  0  0  0  0  0  0
   57.3102   28.4498   46.4761 H   0  0  0  0  0  0  0  0  0  0  0  0
   58.4061   29.6260   48.3500 H   0  0  0  0  0  0  0  0  0  0  0  0
   59.2502   28.0905   47.8903 H   0  0  0  0  0  0  0  0  0  0  0  0
  1  2  1  0
  2  3  1  0
  3  4  1  0
  3  5  1  0
  5  6  1  0
  6  7  1  0
  7  8  1  0
  8  9  1  0
  9 10  2  0
 10 11  1  0
 11 12  1  0
 12 13  1  0
 13 14  1  0
 14 15  1  0
 15 16  1  0
 16 17  1  0
 16 18  1  0
 15 19  1  0
 19 20  1  0
 10 21  1  0
 21 22  2  0
 21 23  1  0
 23 24  2  0
 23  9  1  0
 20 12  1  0
  1 25  1  0
  1 26  1  0
  1 27  1  0
  2 28  1  0
  2 29  1  0
  4 30  1  0
  4 31  1  0
  4 32  1  0
  5 33  1  0
  5 34  1  0
  6 35  1  0
  6 36  1  0
  7 37  1  0
  7 38  1  0
  8 39  1  0
 11 40  1  0
 12 41  1  0
 13 42  1  0
 13 43  1  0
 14 44  1  0
 14 45  1  0
 16 46  1  0
 17 47  1  0
 17 48  1  0
 17 49  1  0
 18 50  1  0
 18 51  1  0
 18 52  1  0
 19 53  1  0
 19 54  1  0
 20 55  1  0
 20 56  1  0
M  END
>  <UniqueID>  (13) 
13

>  <SMILES>  (13) 
CCN(C)CCCNc1c(NC2CCN(C(C)C)CC2)c(=O)c1=O

>  <Energy>  (13) 
48.28551401122537

>  <Genealogy>  (13) 
CCN(C)CCCNc1c(NC2CCN(C(C)C)CC2)c(=O)c1=O (3D coordinates assigned)
CCN(C)CCCNc1c(NC2CCN(C(C)C)CC2)c(=O)c1=O (nonaromatic ring conformer: 48.28551401122537 kcal/mol)

>  <smiles>  (13) 
CCN(C)CCCNc1c(NC2CCN(C(C)C)CC2)c(=O)c1=O

>  <score_type>  (13) 
oracle

>  <origin>  (13) 
adg

>  <m_score__min__energy>  (13) 
-7.1500000000000004

>  <m_primary>  (13) 
energy

$$$$
13:0
     RDKit          3D

 55 57  0  0  0  0  0  0  0  0999 V2000
   57.3930   21.2610   43.4410 C   0  0  0  0  0  0  0  0  0  0  0  0
   56.3180   21.9850   42.6410 C   0  0  0  0  0  0  0  0  0  0  0  0
   56.4420   23.4360   42.8330 N   0  0  0  0  0  0  0  0  0  0  0  0
   57.3090   23.7640   43.9760 C   0  0  0  0  0  0  0  0  0  0  0  0
   57.4330   25.2550   44.1860 C   0  0  0  0  0  0  0  0  0  0  0  0
   57.1820   25.8130   45.4490 C   0  0  0  0  0  0  0  0  0  0  0  0
   57.2720   27.1930   45.6430 C   0  0  0  0  0  0  0  0  0  0  0  0
   57.6120   28.0430   44.5740 C   0  0  0  0  0  0  0  0  0  0  0  0
   57.7080   29.5110   44.7780 C   0  0  0  0  0  0  0  0  0  0  0  0
   58.0530   30.0390   46.0370 C   0  0  0  0  0  0  0  0  0  0  0  0
   58.1440   31.4200   46.2270 C   0  0  0  0  0  0  0  0  0  0  0  0
   57.8890   32.2970   45.1640 C   0  0  0  0  0  0  0  0  0  0  0  0
   58.0270   34.0390   45.3900 S   0  0  0  0  0  0  0  0  0  0  0  0
   56.8300   34.7330   44.8010 O   0  0  0  0  0  0  0  0  0  0  0  0
   59.2570   34.5300   44.6810 O   0  0  0  0  0  0  0  0  0  0  0  0
   58.1540   34.4200   47.0800 N   0  0  0  0  0  0  0  0  0  0  0  0
   59.2950   33.7190   47.6650 C   0  0  0  0  0  0  0  0  0  0  0  0
   60.6220   34.3320   47.1680 C   0  0  0  0  0  0  0  0  0  0  0  0
   61.5470   33.3850   46.4970 N   0  0  0  0  0  0  0  0  0  0  0  0
   61.5910   32.0530   47.1170 C   0  0  0  0  0  0  0  0  0  0  0  0
   62.9680   31.8630   47.7460 C   0  0  0  0  0  0  0  0  0  0  0  0
   63.7530   33.1210   47.4310 C   0  0  0  0  0  0  0  0  0  0  0  0
   62.9290   33.8620   46.3920 C   0  0  0  0  0  0  0  0  0  0  0  0
   57.5500   31.7800   43.9080 C   0  0  0  0  0  0  0  0  0  0  0  0
   57.4580   30.3990   43.7160 C   0  0  0  0  0  0  0  0  0  0  0  0
   57.8570   27.4800   43.3090 C   0  0  0  0  0  0  0  0  0  0  0  0
   57.7660   26.0980   43.1180 C   0  0  0  0  0  0  0  0  0  0  0  0
   57.2000   21.3910   44.5161 H   0  0  0  0  0  0  0  0  0  0  0  0
   57.3760   20.1896   43.1923 H   0  0  0  0  0  0  0  0  0  0  0  0
   58.3794   21.6795   43.1923 H   0  0  0  0  0  0  0  0  0  0  0  0
   56.4359   21.7472   41.5735 H   0  0  0  0  0  0  0  0  0  0  0  0
   55.3269   21.6578   42.9883 H   0  0  0  0  0  0  0  0  0  0  0  0
   56.8430   23.8620   41.9640 H   0  0  0  0  0  0  0  0  0  0  0  0
   56.8843   23.3120   44.8845 H   0  0  0  0  0  0  0  0  0  0  0  0
   58.3129   23.3671   43.7645 H   0  0  0  0  0  0  0  0  0  0  0  0
   56.9126   25.1591   46.2916 H   0  0  0  0  0  0  0  0  0  0  0  0
   57.0758   27.6186   46.6382 H   0  0  0  0  0  0  0  0  0  0  0  0
   58.2525   29.3584   46.8778 H   0  0  0  0  0  0  0  0  0  0  0  0
   58.4168   31.8205   47.2145 H   0  0  0  0  0  0  0  0  0  0  0  0
   59.2468   33.8013   48.7609 H   0  0  0  0  0  0  0  0  0  0  0  0
   59.2563   32.6626   47.3608 H   0  0  0  0  0  0  0  0  0  0  0  0
   60.3798   35.1333   46.4544 H   0  0  0  0  0  0  0  0  0  0  0  0
   61.1486   34.6858   48.0666 H   0  0  0  0  0  0  0  0  0  0  0  0
   60.8143   31.9777   47.8923 H   0  0  0  0  0  0  0  0  0  0  0  0
   61.4097   31.2761   46.3597 H   0  0  0  0  0  0  0  0  0  0  0  0
   62.8756   31.7335   48.8344 H   0  0  0  0  0  0  0  0  0  0  0  0
   63.4696   30.9675   47.3506 H   0  0  0  0  0  0  0  0  0  0  0  0
   63.8744   33.7353   48.3354 H   0  0  0  0  0  0  0  0  0  0  0  0
   64.7637   32.8907   47.0629 H   0  0  0  0  0  0  0  0  0  0  0  0
   62.9676   34.9442   46.5853 H   0  0  0  0  0  0  0  0  0  0  0  0
   63.3250   33.6771   45.3825 H   0  0  0  0  0  0  0  0  0  0  0  0
   57.3552   32.4638   43.0687 H   0  0  0  0  0  0  0  0  0  0  0  0
   57.1878   30.0029   42.7260 H   0  0  0  0  0  0  0  0  0  0  0  0
   58.1222   28.1317   42.4635 H   0  0  0  0  0  0  0  0  0  0  0  0
   57.9571   25.6700   42.1229 H   0  0  0  0  0  0  0  0  0  0  0  0
  1  2  1  0
  2  3  1  0
  3  4  1  0
  4  5  1  0
  5  6  2  0
  6  7  1  0
  7  8  2  0
  8  9  1  0
  9 10  2  0
 10 11  1  0
 11 12  2  0
 12 13  1  0
 13 14  2  0
 13 15  2  0
 13 16  1  0
 16 17  1  0
 17 18  1  0
 18 19  1  0
 19 20  1  0
 20 21  1  0
 21 22  1  0
 22 23  1  0
 12 24  1  0
 24 25  2  0
  8 26  1  0
 26 27  2  0
 27  5  1  0
 25  9  1  0
 23 19  1  0
  1 28  1  0
  1 29  1  0
  1 30  1  0
  2 31  1  0
  2 32  1  0
  3 33  1  0
  4 34  1  0
  4 35  1  0
  6 36  1  0
  7 37  1  0
 10 38  1  0
 11 39  1  0
 17 40  1  0
 17 41  1  0
 18 42  1  0
 18 43  1  0
 20 44  1  0
 20 45  1  0
 21 46  1  0
 21 47  1  0
 22 48  1  0
 22 49  1  0
 23 50  1  0
 23 51  1  0
 24 52  1  0
 25 53  1  0
 26 54  1  0
 27 55  1  0
M  CHG  1  16  -1
M  END
>  <UniqueID>  (14) 
14

>  <SMILES>  (14) 
CCNCc1ccc(-c2ccc(S(=O)(=O)[N-]CCN3CCCC3)cc2)cc1

>  <Energy>  (14) 
60.807522729382285

>  <Genealogy>  (14) 
CCNCc1ccc(-c2ccc(S(=O)(=O)[N-]CCN3CCCC3)cc2)cc1 (protonated)
CCNCc1ccc(-c2ccc(S(=O)(=O)[N-]CCN3CCCC3)cc2)cc1 (3D coordinates assigned)
CCNCc1ccc(-c2ccc(S(=O)(=O)[N-]CCN3CCCC3)cc2)cc1 (nonaromatic ring conformer: 60.807522729382285 kcal/mol)

>  <smiles>  (14) 
CCNCc1ccc(-c2ccc(S(=O)(=O)NCCN3CCCC3)cc2)cc1

>  <score_type>  (14) 
oracle

>  <origin>  (14) 
adg

>  <m_score__min__energy>  (14) 
-10.06

>  <m_primary>  (14) 
energy

$$$$
14:0
     RDKit          3D

 26 25  0  0  0  0  0  0  0  0999 V2000
   57.8170   33.4610   46.5730 C   0  0  0  0  0  0  0  0  0  0  0  0
   57.4290   33.6950   45.1140 C   0  0  0  0  0  0  0  0  0  0  0  0
   57.5680   32.4390   44.3320 N   0  0  0  0  0  0  0  0  0  0  0  0
   58.1420   32.6830   42.9850 C   0  0  0  0  0  0  0  0  0  0  0  0
   57.4020   31.9170   41.8900 C   0  0  0  0  0  0  0  0  0  0  0  0
   58.3820   31.4230   45.0570 C   0  0  0  0  0  0  0  0  0  0  0  0
   58.0740   29.9830   44.5940 C   0  0  1  0  0  0  0  0  0  0  0  0
   58.9370   28.9270   45.2890 C   0  0  0  0  0  0  0  0  0  0  0  0
   56.6460   29.6660   44.7570 C   0  0  0  0  0  0  0  0  0  0  0  0
   55.5220   29.4190   44.8840 N   0  0  0  0  0  0  0  0  0  0  0  0
   57.0620   33.9163   47.2308 H   0  0  0  0  0  0  0  0  0  0  0  0
   57.8703   32.3800   46.7694 H   0  0  0  0  0  0  0  0  0  0  0  0
   58.7980   33.9182   46.7694 H   0  0  0  0  0  0  0  0  0  0  0  0
   56.3846   34.0371   45.0673 H   0  0  0  0  0  0  0  0  0  0  0  0
   58.0965   34.4572   44.6856 H   0  0  0  0  0  0  0  0  0  0  0  0
   58.0827   33.7592   42.7652 H   0  0  0  0  0  0  0  0  0  0  0  0
   59.1841   32.3309   42.9953 H   0  0  0  0  0  0  0  0  0  0  0  0
   56.7078   31.1985   42.3503 H   0  0  0  0  0  0  0  0  0  0  0  0
   56.8367   32.6245   41.2656 H   0  0  0  0  0  0  0  0  0  0  0  0
   58.1286   31.3764   41.2656 H   0  0  0  0  0  0  0  0  0  0  0  0
   59.4473   31.6312   44.8787 H   0  0  0  0  0  0  0  0  0  0  0  0
   58.1311   31.4926   46.1257 H   0  0  0  0  0  0  0  0  0  0  0  0
   58.3298   29.9489   43.5247 H   0  0  0  0  0  0  0  0  0  0  0  0
   58.8457   29.0387   46.3795 H   0  0  0  0  0  0  0  0  0  0  0  0
   58.5973   27.9234   44.9935 H   0  0  0  0  0  0  0  0  0  0  0  0
   59.9882   29.0601   44.9935 H   0  0  0  0  0  0  0  0  0  0  0  0
  1  2  1  0
  2  3  1  0
  3  4  1  0
  4  5  1  0
  3  6  1  0
  6  7  1  0
  7  8  1  0
  7  9  1  0
  9 10  3  0
  1 11  1  0
  1 12  1  0
  1 13  1  0
  2 14  1  0
  2 15  1  0
  4 16  1  0
  4 17  1  0
  5 18  1  0
  5 19  1  0
  5 20  1  0
  6 21  1  0
  6 22  1  0
  7 23  1  6
  8 24  1  0
  8 25  1  0
  8 26  1  0
M  END
>  <UniqueID>  (15) 
15

>  <SMILES>  (15) 
CCN(CC)C[C@@H](C)C#N

>  <Energy>  (15) 
20.211530931115256

>  <Genealogy>  (15) 
CCN(CC)C[C@@H](C)C#N (chirality)
CCN(CC)C[C@@H](C)C#N (3D coordinates assigned)
CCN(CC)C[C@@H](C)C#N (optimized conformer: 20.211530931115256 kcal/mol)

>  <smiles>  (15) 
CCN(CC)CC(C)C#N

>  <score_type>  (15) 
oracle

>  <origin>  (15) 
adg

>  <m_score__min__energy>  (15) 
-4.1100000000000003

>  <m_primary>  (15) 
energy

$$$$
15:0
     RDKit          3D

 45 45  0  0  0  0  0  0  0  0999 V2000
   57.3450   33.6850   45.2160 C   0  0  0  0  0  0  0  0  0  0  0  0
   57.6070   32.3870   44.4700 C   0  0  0  0  0  0  0  0  0  0  0  0
   56.6860   31.4090   44.9040 O   0  0  0  0  0  0  0  0  0  0  0  0
   56.1420   30.7100   43.7990 C   0  0  0  0  0  0  0  0  0  0  0  0
   56.5420   29.2250   43.8420 C   0  0  0  0  0  0  0  0  0  0  0  0
   56.0880   28.5490   45.0750 N   0  0  0  0  0  0  0  0  0  0  0  0
   57.0280   27.5710   45.6680 C   0  0  1  0  0  0  0  0  0  0  0  0
   58.1200   28.2230   46.5500 C   0  0  0  0  0  0  0  0  0  0  0  0
   58.0880   29.6850   46.4590 N   0  0  0  0  0  0  0  0  0  0  0  0
   59.1860   30.5250   46.8720 C   0  0  0  0  0  0  0  0  0  0  0  0
   58.9650   31.7760   47.4840 C   0  0  0  0  0  0  0  0  0  0  0  0
   60.0460   32.5910   47.8670 C   0  0  0  0  0  0  0  0  0  0  0  0
   59.7970   33.9060   48.5640 C   0  0  0  0  0  0  0  0  0  0  0  0
   58.9090   34.6850   47.8420 F   0  0  0  0  0  0  0  0  0  0  0  0
   59.2620   33.6960   49.8230 F   0  0  0  0  0  0  0  0  0  0  0  0
   60.9930   34.5880   48.6900 F   0  0  0  0  0  0  0  0  0  0  0  0
   61.3560   32.1230   47.6760 C   0  0  0  0  0  0  0  0  0  0  0  0
   61.5820   30.8840   47.0740 C   0  0  0  0  0  0  0  0  0  0  0  0
   60.5070   30.0900   46.6710 C   0  0  0  0  0  0  0  0  0  0  0  0
   60.7570   28.8930   46.0830 F   0  0  0  0  0  0  0  0  0  0  0  0
   56.2790   26.4580   46.4310 C   0  0  0  0  0  0  0  0  0  0  0  0
   54.9460   26.3400   45.9670 O   0  0  0  0  0  0  0  0  0  0  0  0
   54.6580   25.0010   45.6300 C   0  0  0  0  0  0  0  0  0  0  0  0
   57.3825   33.4992   46.2995 H   0  0  0  0  0  0  0  0  0  0  0  0
   58.1118   34.4253   44.9442 H   0  0  0  0  0  0  0  0  0  0  0  0
   56.3510   34.0699   44.9442 H   0  0  0  0  0  0  0  0  0  0  0  0
   57.4860   32.5527   43.3893 H   0  0  0  0  0  0  0  0  0  0  0  0
   58.6327   32.0448   44.6721 H   0  0  0  0  0  0  0  0  0  0  0  0
   55.0452   30.7891   43.8266 H   0  0  0  0  0  0  0  0  0  0  0  0
   56.5345   31.1544   42.8725 H   0  0  0  0  0  0  0  0  0  0  0  0
   56.0955   28.7148   42.9758 H   0  0  0  0  0  0  0  0  0  0  0  0
   57.6407   29.1755   43.8205 H   0  0  0  0  0  0  0  0  0  0  0  0
   55.1440   28.1170   44.9570 H   0  0  0  0  0  0  0  0  0  0  0  0
   57.5574   27.1105   44.8208 H   0  0  0  0  0  0  0  0  0  0  0  0
   57.9565   27.9272   47.5968 H   0  0  0  0  0  0  0  0  0  0  0  0
   59.1013   27.8783   46.1919 H   0  0  0  0  0  0  0  0  0  0  0  0
   57.2240   30.1480   46.0980 H   0  0  0  0  0  0  0  0  0  0  0  0
   57.9354   32.1187   47.6641 H   0  0  0  0  0  0  0  0  0  0  0  0
   62.2089   32.7361   48.0026 H   0  0  0  0  0  0  0  0  0  0  0  0
   62.6121   30.5317   46.9165 H   0  0  0  0  0  0  0  0  0  0  0  0
   56.8004   25.5017   46.2774 H   0  0  0  0  0  0  0  0  0  0  0  0
   56.2588   26.7155   47.5003 H   0  0  0  0  0  0  0  0  0  0  0  0
   54.5310   24.4107   46.5495 H   0  0  0  0  0  0  0  0  0  0  0  0
   53.7311   24.9629   45.0389 H   0  0  0  0  0  0  0  0  0  0  0  0
   55.4872   24.5852   45.0389 H   0  0  0  0  0  0  0  0  0  0  0  0
  1  2  1  0
  2  3  1  0
  3  4  1  0
  4  5  1  0
  5  6  1  0
  6  7  1  0
  7  8  1  0
  8  9  1  0
  9 10  1  0
 10 11  2  0
 11 12  1  0
 12 13  1  0
 13 14  1  0
 13 15  1  0
 13 16  1  0
 12 17  2  0
 17 18  1  0
 18 19  2  0
 19 20  1  0
  7 21  1  0
 21 22  1  0
 22 23  1  0
 19 10  1  0
  1 24  1  0
  1 25  1  0
  1 26  1  0
  2 27  1  0
  2 28  1  0
  4 29  1  0
  4 30  1  0
  5 31  1  0
  5 32  1  0
  6 33  1  0
  7 34  1  6
  8 35  1  0
  8 36  1  0
  9 37  1  0
 11 38  1  0
 17 39  1  0
 18 40  1  0
 21 41  1  0
 21 42  1  0
 23 43  1  0
 23 44  1  0
 23 45  1  0
M  END
>  <UniqueID>  (16) 
16

>  <SMILES>  (16) 
CCOCCN[C@@H](CNc1cc(C(F)(F)F)ccc1F)COC

>  <Energy>  (16) 
45.977412121814396

>  <Genealogy>  (16) 
CCOCCN[C@@H](CNc1cc(C(F)(F)F)ccc1F)COC (chirality)
CCOCCN[C@@H](CNc1cc(C(F)(F)F)ccc1F)COC (3D coordinates assigned)
CCOCCN[C@@H](CNc1cc(C(F)(F)F)ccc1F)COC (optimized conformer: 45.977412121814396 kcal/mol)

>  <smiles>  (16) 
CCOCCNC(CNc1cc(C(F)(F)F)ccc1F)COC

>  <score_type>  (16) 
oracle

>  <origin>  (16) 
adg

>  <m_score__min__energy>  (16) 
-6.29

>  <m_primary>  (16) 
energy

$$$$
16:0
     RDKit          3D

 41 43  0  0  0  0  0  0  0  0999 V2000
   63.2969   33.4995   45.3896 H   0  0  0  0  0  0  0  0  0  0  0  0
   63.1260   33.4760   46.4760 C   0  0  0  0  0  0  0  0  0  0  0  0
   64.1240   33.0830   47.3120 N   0  0  0  0  0  0  0  0  0  0  0  0
   63.9500   33.0410   48.6590 C   0  0  0  0  0  0  0  0  0  0  0  0
   64.7767   32.7190   49.3093 H   0  0  0  0  0  0  0  0  0  0  0  0
   62.7230   33.4060   49.2200 C   0  0  0  0  0  0  0  0  0  0  0  0
   62.5800   33.3742   50.3102 H   0  0  0  0  0  0  0  0  0  0  0  0
   61.6760   33.8130   48.3810 C   0  0  0  0  0  0  0  0  0  0  0  0
   60.3450   34.2040   48.9700 C   0  0  0  0  0  0  0  0  0  0  0  0
   59.9025   35.0075   48.3629 H   0  0  0  0  0  0  0  0  0  0  0  0
   60.5009   34.5506   50.0023 H   0  0  0  0  0  0  0  0  0  0  0  0
   59.4360   33.0580   48.9880 N   0  0  0  0  0  0  0  0  0  0  0  0
   59.3930   32.1180   48.0880 C   0  0  0  0  0  0  0  0  0  0  0  0
   60.2270   30.6550   48.1650 S   0  0  0  0  0  0  0  0  0  0  0  0
   59.5800   30.0840   46.7230 C   0  0  0  0  0  0  0  0  0  0  0  0
   59.7921   29.1073   46.2635 H   0  0  0  0  0  0  0  0  0  0  0  0
   58.7280   31.0610   46.2090 C   0  0  0  0  0  0  0  0  0  0  0  0
   57.9770   30.8400   44.9580 C   0  0  0  0  0  0  0  0  0  0  0  0
   58.1370   31.7210   43.8780 C   0  0  0  0  0  0  0  0  0  0  0  0
   58.8321   32.5695   43.9609 H   0  0  0  0  0  0  0  0  0  0  0  0
   57.4160   31.5240   42.6970 C   0  0  0  0  0  0  0  0  0  0  0  0
   57.5516   32.2117   41.8492 H   0  0  0  0  0  0  0  0  0  0  0  0
   56.5220   30.4530   42.5920 C   0  0  0  0  0  0  0  0  0  0  0  0
   55.9577   30.2968   41.6608 H   0  0  0  0  0  0  0  0  0  0  0  0
   56.3460   29.5820   43.6700 C   0  0  0  0  0  0  0  0  0  0  0  0
   55.6401   28.7424   43.5881 H   0  0  0  0  0  0  0  0  0  0  0  0
   57.0660   29.7760   44.8530 C   0  0  0  0  0  0  0  0  0  0  0  0
   56.9186   29.0938   45.7033 H   0  0  0  0  0  0  0  0  0  0  0  0
   58.6290   32.1990   46.9690 N   0  0  0  0  0  0  0  0  0  0  0  0
   57.6850   33.2980   46.7140 C   0  0  0  0  0  0  0  0  0  0  0  0
   57.0578   33.4525   47.6044 H   0  0  0  0  0  0  0  0  0  0  0  0
   57.0540   33.0371   45.8516 H   0  0  0  0  0  0  0  0  0  0  0  0
   58.4490   34.5880   46.4030 C   0  0  0  0  0  0  0  0  0  0  0  0
   59.2322   34.7326   47.1618 H   0  0  0  0  0  0  0  0  0  0  0  0
   57.7362   35.4257   46.4155 H   0  0  0  0  0  0  0  0  0  0  0  0
   59.0980   34.5280   45.0240 C   0  0  0  0  0  0  0  0  0  0  0  0
   60.1877   34.4273   45.1357 H   0  0  0  0  0  0  0  0  0  0  0  0
   58.7045   33.6624   44.4709 H   0  0  0  0  0  0  0  0  0  0  0  0
   58.8699   35.4511   44.4709 H   0  0  0  0  0  0  0  0  0  0  0  0
   61.8840   33.8500   46.9950 C   0  0  0  0  0  0  0  0  0  0  0  0
   61.0757   34.1710   46.3215 H   0  0  0  0  0  0  0  0  0  0  0  0
  1  2  1  0
  2  3  2  0
  3  4  1  0
  4  5  1  0
  4  6  2  0
  6  7  1  0
  6  8  1  0
  8  9  1  0
  9 10  1  0
  9 11  1  0
  9 12  1  0
 12 13  2  0
 13 14  1  0
 14 15  1  0
 15 16  1  0
 15 17  2  0
 17 18  1  0
 18 19  2  0
 19 20  1  0
 19 21  1  0
 21 22  1  0
 21 23  2  0
 23 24  1  0
 23 25  1  0
 25 26  1  0
 25 27  2  0
 27 28  1  0
 17 29  1  0
 29 30  1  0
 30 31  1  0
 30 32  1  0
 30 33  1  0
 33 34  1  0
 33 35  1  0
 33 36  1  0
 36 37  1  0
 36 38  1  0
 36 39  1  0
  8 40  2  0
 40 41  1  0
 40  2  1  0
 29 13  1  0
 27 18  1  0
M  END
>  <UniqueID>  (17) 
17

>  <SMILES>  (17) 
CCCn1c(-c2ccccc2)cs/c1=N\Cc1ccncc1

>  <Energy>  (17) 
75.32519089701101

>  <Genealogy>  (17) 
CCCn1c(-c2ccccc2)cs/c1=N\Cc1ccncc1 (cis-trans isomerization)
CCCn1c(-c2ccccc2)cs/c1=N\Cc1ccncc1 (3D coordinates assigned)
CCCn1c(-c2ccccc2)cs/c1=N\Cc1ccncc1 (optimized conformer: 75.32519089701101 kcal/mol)

>  <smiles>  (17) 
CCCn1c(-c2ccccc2)csc1=NCc1ccncc1

>  <score_type>  (17) 
oracle

>  <origin>  (17) 
adg

>  <m_score__min__energy>  (17) 
-7.1699999999999999

>  <m_primary>  (17) 
energy

$$$$
17:0
     RDKit          3D

 50 50  0  0  0  0  0  0  0  0999 V2000
   57.5280   32.3030   41.1190 C   0  0  0  0  0  0  0  0  0  0  0  0
   58.1480   32.3990   42.5100 C   0  0  0  0  0  0  0  0  0  0  0  0
   57.3480   31.6590   43.4960 N   0  0  0  0  0  0  0  0  0  0  0  0
   56.7210   30.4480   42.9360 C   0  0  0  0  0  0  0  0  0  0  0  0
   56.3000   29.5100   44.0630 C   0  0  0  0  0  0  0  0  0  0  0  0
   56.9310   29.9000   45.2640 O   0  0  0  0  0  0  0  0  0  0  0  0
   58.0140   29.0340   45.5300 C   0  0  0  0  0  0  0  0  0  0  0  0
   58.5220   29.2480   46.9600 C   0  0  0  0  0  0  0  0  0  0  0  0
   59.3910   30.5160   47.1110 C   0  0  0  0  0  0  0  0  0  0  0  0
   58.5720   31.8060   47.2780 C   0  0  0  0  0  0  0  0  0  0  0  0
   58.2800   32.4190   45.9760 N   0  0  0  0  0  0  0  0  0  0  0  0
   58.0060   33.8600   46.1050 C   0  0  0  0  0  0  0  0  0  0  0  0
   59.2600   34.7020   45.8310 C   0  0  0  0  0  0  0  0  0  0  0  0
   60.3840   34.3520   46.7710 C   0  0  0  0  0  0  0  0  0  0  0  0
   61.5860   33.8270   46.2710 C   0  0  0  0  0  0  0  0  0  0  0  0
   62.6170   33.4720   47.1460 C   0  0  0  0  0  0  0  0  0  0  0  0
   62.4540   33.6230   48.5310 C   0  0  0  0  0  0  0  0  0  0  0  0
   63.5680   33.2620   49.4670 C   0  0  0  0  0  0  0  0  0  0  0  0
   61.2580   34.1600   49.0300 C   0  0  0  0  0  0  0  0  0  0  0  0
   60.2280   34.5180   48.1550 C   0  0  0  0  0  0  0  0  0  0  0  0
   56.4448   32.1353   41.2112 H   0  0  0  0  0  0  0  0  0  0  0  0
   57.7087   33.2398   40.5716 H   0  0  0  0  0  0  0  0  0  0  0  0
   57.9836   31.4647   40.5716 H   0  0  0  0  0  0  0  0  0  0  0  0
   59.1634   31.9769   42.4811 H   0  0  0  0  0  0  0  0  0  0  0  0
   58.1787   33.4576   42.8074 H   0  0  0  0  0  0  0  0  0  0  0  0
   57.9960   31.3660   44.2640 H   0  0  0  0  0  0  0  0  0  0  0  0
   55.8351   30.7341   42.3501 H   0  0  0  0  0  0  0  0  0  0  0  0
   57.4457   29.9324   42.2887 H   0  0  0  0  0  0  0  0  0  0  0  0
   55.2085   29.5578   44.1906 H   0  0  0  0  0  0  0  0  0  0  0  0
   56.5965   28.4809   43.8119 H   0  0  0  0  0  0  0  0  0  0  0  0
   57.6829   27.9915   45.4139 H   0  0  0  0  0  0  0  0  0  0  0  0
   58.8287   29.2495   44.8230 H   0  0  0  0  0  0  0  0  0  0  0  0
   57.6542   29.3365   47.6302 H   0  0  0  0  0  0  0  0  0  0  0  0
   59.1540   28.3849   47.2161 H   0  0  0  0  0  0  0  0  0  0  0  0
   60.0330   30.3945   47.9959 H   0  0  0  0  0  0  0  0  0  0  0  0
   59.9731   30.6209   46.1836 H   0  0  0  0  0  0  0  0  0  0  0  0
   57.6245   31.5672   47.7832 H   0  0  0  0  0  0  0  0  0  0  0  0
   59.1599   32.5182   47.8755 H   0  0  0  0  0  0  0  0  0  0  0  0
   57.4080   31.9720   45.6080 H   0  0  0  0  0  0  0  0  0  0  0  0
   57.2237   34.1403   45.3843 H   0  0  0  0  0  0  0  0  0  0  0  0
   57.6792   34.0564   47.1368 H   0  0  0  0  0  0  0  0  0  0  0  0
   59.5909   34.5223   44.7975 H   0  0  0  0  0  0  0  0  0  0  0  0
   59.0021   35.7602   45.9847 H   0  0  0  0  0  0  0  0  0  0  0  0
   61.7172   33.6944   45.1869 H   0  0  0  0  0  0  0  0  0  0  0  0
   63.5607   33.0723   46.7464 H   0  0  0  0  0  0  0  0  0  0  0  0
   63.2245   33.3733   50.5060 H   0  0  0  0  0  0  0  0  0  0  0  0
   63.8716   32.2195   49.2909 H   0  0  0  0  0  0  0  0  0  0  0  0
   64.4253   33.9283   49.2909 H   0  0  0  0  0  0  0  0  0  0  0  0
   61.1301   34.2999   50.1135 H   0  0  0  0  0  0  0  0  0  0  0  0
   59.2903   34.9321   48.5541 H   0  0  0  0  0  0  0  0  0  0  0  0
  1  2  1  0
  2  3  1  0
  3  4  1  0
  4  5  1  0
  5  6  1  0
  6  7  1  0
  7  8  1  0
  8  9  1  0
  9 10  1  0
 10 11  1  0
 11 12  1  0
 12 13  1  0
 13 14  1  0
 14 15  2  0
 15 16  1  0
 16 17  2  0
 17 18  1  0
 17 19  1  0
 19 20  2  0
 20 14  1  0
  1 21  1  0
  1 22  1  0
  1 23  1  0
  2 24  1  0
  2 25  1  0
  3 26  1  0
  4 27  1  0
  4 28  1  0
  5 29  1  0
  5 30  1  0
  7 31  1  0
  7 32  1  0
  8 33  1  0
  8 34  1  0
  9 35  1  0
  9 36  1  0
 10 37  1  0
 10 38  1  0
 11 39  1  0
 12 40  1  0
 12 41  1  0
 13 42  1  0
 13 43  1  0
 15 44  1  0
 16 45  1  0
 18 46  1  0
 18 47  1  0
 18 48  1  0
 19 49  1  0
 20 50  1  0
M  END
>  <UniqueID>  (18) 
18

>  <SMILES>  (18) 
CCNCCOCCCCNCCc1ccc(C)cc1

>  <Energy>  (18) 
32.10633184416022

>  <Genealogy>  (18) 
CCNCCOCCCCNCCc1ccc(C)cc1 (3D coordinates assigned)
CCNCCOCCCCNCCc1ccc(C)cc1 (optimized conformer: 32.10633184416022 kcal/mol)

>  <smiles>  (18) 
CCNCCOCCCCNCCc1ccc(C)cc1

>  <score_type>  (18) 
oracle

>  <origin>  (18) 
adg

>  <m_score__min__energy>  (18) 
-5.5899999999999999

>  <m_primary>  (18) 
energy

$$$$
18:0
     RDKit          3D

 41 42  0  0  0  0  0  0  0  0999 V2000
   60.0240   29.3220   45.1890 C   0  0  0  0  0  0  0  0  0  0  0  0
   59.6590   29.5900   46.6470 C   0  0  0  0  0  0  0  0  0  0  0  0
   58.2360   29.3100   46.8840 N   0  0  0  0  0  0  0  0  0  0  0  0
   57.7960   28.0910   46.1900 C   0  0  0  0  0  0  0  0  0  0  0  0
   56.6510   28.4200   45.2270 C   0  0  0  0  0  0  0  0  0  0  0  0
   56.3690   29.8210   45.2230 O   0  0  0  0  0  0  0  0  0  0  0  0
   56.8690   30.7420   44.2900 C   0  0  0  0  0  0  0  0  0  0  0  0
   56.8570   30.4890   42.9060 C   0  0  0  0  0  0  0  0  0  0  0  0
   57.3190   31.4540   42.0090 C   0  0  0  0  0  0  0  0  0  0  0  0
   57.8050   32.6720   42.4830 C   0  0  0  0  0  0  0  0  0  0  0  0
   57.8380   32.9290   43.8540 C   0  0  0  0  0  0  0  0  0  0  0  0
   57.3730   31.9620   44.7680 C   0  0  0  0  0  0  0  0  0  0  0  0
   57.3850   32.1760   46.1560 O   0  0  0  0  0  0  0  0  0  0  0  0
   57.6720   33.4200   46.7950 C   0  0  0  0  0  0  0  0  0  0  0  0
   59.1230   33.4730   47.1850 C   0  0  0  0  0  0  0  0  0  0  0  0
   60.0930   33.8020   46.2240 C   0  0  0  0  0  0  0  0  0  0  0  0
   61.4480   33.8130   46.5640 C   0  0  0  0  0  0  0  0  0  0  0  0
   61.8470   33.4840   47.8640 C   0  0  0  0  0  0  0  0  0  0  0  0
   63.7020   33.4720   48.3190 Br  0  0  0  0  0  0  0  0  0  0  0  0
   60.8880   33.1550   48.8250 C   0  0  0  0  0  0  0  0  0  0  0  0
   59.5300   33.1480   48.4900 C   0  0  0  0  0  0  0  0  0  0  0  0
   60.9100   28.6715   45.1464 H   0  0  0  0  0  0  0  0  0  0  0  0
   59.1809   28.8268   44.6850 H   0  0  0  0  0  0  0  0  0  0  0  0
   60.2441   30.2747   44.6850 H   0  0  0  0  0  0  0  0  0  0  0  0
   60.2676   28.9438   47.2966 H   0  0  0  0  0  0  0  0  0  0  0  0
   59.8544   30.6487   46.8726 H   0  0  0  0  0  0  0  0  0  0  0  0
   57.6780   30.1120   46.5040 H   0  0  0  0  0  0  0  0  0  0  0  0
   58.6394   27.6703   45.6228 H   0  0  0  0  0  0  0  0  0  0  0  0
   57.4440   27.3600   46.9328 H   0  0  0  0  0  0  0  0  0  0  0  0
   56.9349   28.1077   44.2112 H   0  0  0  0  0  0  0  0  0  0  0  0
   55.7501   27.8831   45.5588 H   0  0  0  0  0  0  0  0  0  0  0  0
   56.4818   29.5262   42.5288 H   0  0  0  0  0  0  0  0  0  0  0  0
   57.2996   31.2533   40.9276 H   0  0  0  0  0  0  0  0  0  0  0  0
   58.1635   33.4326   41.7738 H   0  0  0  0  0  0  0  0  0  0  0  0
   58.2281   33.8892   44.2227 H   0  0  0  0  0  0  0  0  0  0  0  0
   57.4502   34.2453   46.1024 H   0  0  0  0  0  0  0  0  0  0  0  0
   57.0509   33.5147   47.6979 H   0  0  0  0  0  0  0  0  0  0  0  0
   59.7842   34.0523   45.1983 H   0  0  0  0  0  0  0  0  0  0  0  0
   62.2019   34.0806   45.8089 H   0  0  0  0  0  0  0  0  0  0  0  0
   61.2017   32.9007   49.8482 H   0  0  0  0  0  0  0  0  0  0  0  0
   58.7788   32.8874   49.2501 H   0  0  0  0  0  0  0  0  0  0  0  0
  1  2  1  0
  2  3  1  0
  3  4  1  0
  4  5  1  0
  5  6  1  0
  6  7  1  0
  7  8  2  0
  8  9  1  0
  9 10  2  0
 10 11  1  0
 11 12  2  0
 12 13  1  0
 13 14  1  0
 14 15  1  0
 15 16  2  0
 16 17  1  0
 17 18  2  0
 18 19  1  0
 18 20  1  0
 20 21  2  0
 12  7  1  0
 21 15  1  0
  1 22  1  0
  1 23  1  0
  1 24  1  0
  2 25  1  0
  2 26  1  0
  3 27  1  0
  4 28  1  0
  4 29  1  0
  5 30  1  0
  5 31  1  0
  8 32  1  0
  9 33  1  0
 10 34  1  0
 11 35  1  0
 14 36  1  0
 14 37  1  0
 16 38  1  0
 17 39  1  0
 20 40  1  0
 21 41  1  0
M  END
>  <UniqueID>  (19) 
19

>  <SMILES>  (19) 
CCNCCOc1ccccc1OCc1ccc(Br)cc1

>  <Energy>  (19) 
33.701386000436116

>  <Genealogy>  (19) 
CCNCCOc1ccccc1OCc1ccc(Br)cc1 (3D coordinates assigned)
CCNCCOc1ccccc1OCc1ccc(Br)cc1 (optimized conformer: 33.701386000436116 kcal/mol)

>  <smiles>  (19) 
CCNCCOc1ccccc1OCc1ccc(Br)cc1

>  <score_type>  (19) 
oracle

>  <origin>  (19) 
adg

>  <m_score__min__energy>  (19) 
-6.4000000000000004

>  <m_primary>  (19) 
energy

$$$$
19:0
     RDKit          3D

 55 56  0  0  0  0  0  0  0  0999 V2000
   64.1450   33.0530   48.7360 C   0  0  0  0  0  0  0  0  0  0  0  0
   63.3770   33.7180   47.5980 C   0  0  0  0  0  0  0  0  0  0  0  0
   61.9790   33.2580   47.5870 N   0  0  0  0  0  0  0  0  0  0  0  0
   61.0250   33.7770   48.5680 C   0  0  0  0  0  0  0  0  0  0  0  0
   59.9440   34.5940   47.8680 C   0  0  0  0  0  0  0  0  0  0  0  0
   61.5740   32.3960   46.7360 N   0  0  0  0  0  0  0  0  0  0  0  0
   61.3770   31.0770   47.0800 O   0  0  0  0  0  0  0  0  0  0  0  0
   60.0680   30.5470   47.2130 C   0  0  0  0  0  0  0  0  0  0  0  0
   59.3130   30.6520   45.8790 C   0  0  0  0  0  0  0  0  0  0  0  0
   57.8570   31.1910   46.0370 C   0  0  1  0  0  0  0  0  0  0  0  0
   57.8320   32.7050   46.4040 C   0  0  0  0  0  0  0  0  0  0  0  0
   57.3910   33.5980   45.2280 C   0  0  0  0  0  0  0  0  0  0  0  0
   57.9700   33.0940   43.9000 C   0  0  0  0  0  0  0  0  0  0  0  0
   57.5530   31.6300   43.6180 C   0  0  0  0  0  0  0  0  0  0  0  0
   57.0170   30.9710   44.8280 N   0  0  0  0  0  0  0  0  0  0  0  0
   56.6030   29.5700   44.5790 C   0  0  0  0  0  0  0  0  0  0  0  0
   57.6470   28.8010   43.7520 C   0  0  0  0  0  0  0  0  0  0  0  0
   58.0580   27.5180   44.4280 C   0  0  0  0  0  0  0  0  0  0  0  0
   59.0500   27.5260   45.4260 C   0  0  0  0  0  0  0  0  0  0  0  0
   59.3900   26.3350   46.0700 C   0  0  0  0  0  0  0  0  0  0  0  0
   58.7410   25.1510   45.7210 C   0  0  0  0  0  0  0  0  0  0  0  0
   57.7550   25.1750   44.7270 C   0  0  0  0  0  0  0  0  0  0  0  0
   57.4310   26.3450   44.1060 N   0  0  0  0  0  0  0  0  0  0  0  0
   63.7447   33.3996   49.7002 H   0  0  0  0  0  0  0  0  0  0  0  0
   64.0341   31.9610   48.6642 H   0  0  0  0  0  0  0  0  0  0  0  0
   65.2100   33.3189   48.6642 H   0  0  0  0  0  0  0  0  0  0  0  0
   63.3987   34.8092   47.7348 H   0  0  0  0  0  0  0  0  0  0  0  0
   63.8497   33.4482   46.6421 H   0  0  0  0  0  0  0  0  0  0  0  0
   60.5574   32.9359   49.1007 H   0  0  0  0  0  0  0  0  0  0  0  0
   61.5582   34.4225   49.2814 H   0  0  0  0  0  0  0  0  0  0  0  0
   59.3044   35.0774   48.6211 H   0  0  0  0  0  0  0  0  0  0  0  0
   60.4155   35.3634   47.2390 H   0  0  0  0  0  0  0  0  0  0  0  0
   59.3324   33.9304   47.2390 H   0  0  0  0  0  0  0  0  0  0  0  0
   60.1328   29.4902   47.5112 H   0  0  0  0  0  0  0  0  0  0  0  0
   59.5250   31.1214   47.9780 H   0  0  0  0  0  0  0  0  0  0  0  0
   59.8676   31.3324   45.2161 H   0  0  0  0  0  0  0  0  0  0  0  0
   59.2420   29.6362   45.4629 H   0  0  0  0  0  0  0  0  0  0  0  0
   57.4268   30.6072   46.8641 H   0  0  0  0  0  0  0  0  0  0  0  0
   57.1315   32.8525   47.2391 H   0  0  0  0  0  0  0  0  0  0  0  0
   58.8574   32.9968   46.6747 H   0  0  0  0  0  0  0  0  0  0  0  0
   56.2928   33.5923   45.1656 H   0  0  0  0  0  0  0  0  0  0  0  0
   57.7646   34.6172   45.4059 H   0  0  0  0  0  0  0  0  0  0  0  0
   57.6024   33.7338   43.0842 H   0  0  0  0  0  0  0  0  0  0  0  0
   59.0674   33.1337   43.9649 H   0  0  0  0  0  0  0  0  0  0  0  0
   56.7790   31.6241   42.8364 H   0  0  0  0  0  0  0  0  0  0  0  0
   58.4459   31.0758   43.2929 H   0  0  0  0  0  0  0  0  0  0  0  0
   56.4702   29.0615   45.5453 H   0  0  0  0  0  0  0  0  0  0  0  0
   55.6630   29.5890   44.0080 H   0  0  0  0  0  0  0  0  0  0  0  0
   57.2176   28.5636   42.7675 H   0  0  0  0  0  0  0  0  0  0  0  0
   58.5393   29.4361   43.6498 H   0  0  0  0  0  0  0  0  0  0  0  0
   59.5545   28.4651   45.6971 H   0  0  0  0  0  0  0  0  0  0  0  0
   60.1664   26.3305   46.8493 H   0  0  0  0  0  0  0  0  0  0  0  0
   59.0013   24.2069   46.2220 H   0  0  0  0  0  0  0  0  0  0  0  0
   57.2391   24.2451   44.4456 H   0  0  0  0  0  0  0  0  0  0  0  0
   56.6870   26.3360   43.3700 H   0  0  0  0  0  0  0  0  0  0  0  0
  1  2  1  0
  2  3  1  0
  3  4  1  0
  4  5  1  0
  3  6  2  3
  6  7  1  0
  7  8  1  0
  8  9  1  0
  9 10  1  0
 10 11  1  0
 11 12  1  0
 12 13  1  0
 13 14  1  0
 14 15  1  0
 15 16  1  0
 16 17  1  0
 17 18  1  0
 18 19  2  0
 19 20  1  0
 20 21  2  0
 21 22  1  0
 22 23  2  0
 15 10  1  0
 23 18  1  0
  1 24  1  0
  1 25  1  0
  1 26  1  0
  2 27  1  0
  2 28  1  0
  4 29  1  0
  4 30  1  0
  5 31  1  0
  5 32  1  0
  5 33  1  0
  8 34  1  0
  8 35  1  0
  9 36  1  0
  9 37  1  0
 10 38  1  1
 11 39  1  0
 11 40  1  0
 12 41  1  0
 12 42  1  0
 13 43  1  0
 13 44  1  0
 14 45  1  0
 14 46  1  0
 16 47  1  0
 16 48  1  0
 17 49  1  0
 17 50  1  0
 19 51  1  0
 20 52  1  0
 21 53  1  0
 22 54  1  0
 23 55  1  0
M  CHG  2   3   1  23   1
M  END
>  <UniqueID>  (20) 
20

>  <SMILES>  (20) 
CC[N+](CC)=NOCC[C@H]1CCCCN1CCc1cccc[nH+]1

>  <Energy>  (20) 
47.16785409120753

>  <Genealogy>  (20) 
CC[N+](CC)=NOCCC1CCCCN1CCc1cccc[nH+]1 (protonated)
CC[N+](CC)=NOCC[C@H]1CCCCN1CCc1cccc[nH+]1 (chirality)
CC[N+](CC)=NOCC[C@H]1CCCCN1CCc1cccc[nH+]1 (3D coordinates assigned)
CC[N+](CC)=NOCC[C@H]1CCCCN1CCc1cccc[nH+]1 (nonaromatic ring conformer: 47.16785409120753 kcal/mol)

>  <smiles>  (20) 
CC[N+](CC)=NOCCC1CCCCN1CCc1ccccn1

>  <score_type>  (20) 
oracle

>  <origin>  (20) 
adg

>  <m_score__min__energy>  (20) 
-4.4199999999999999

>  <m_primary>  (20) 
energy

$$$$
20:0
     RDKit          3D

 40 41  0  0  0  0  0  0  0  0999 V2000
   63.2520   33.9020   46.3570 C   0  0  0  0  0  0  0  0  0  0  0  0
   63.7430   33.4720   47.7440 C   0  0  0  0  0  0  0  0  0  0  0  0
   63.6490   32.0160   47.9490 N   0  0  0  0  0  0  0  0  0  0  0  0
   63.3910   31.6560   49.3510 C   0  0  0  0  0  0  0  0  0  0  0  0
   61.9290   31.2140   49.5320 C   0  0  0  0  0  0  0  0  0  0  0  0
   61.1460   31.3650   48.2860 N   0  0  0  0  0  0  0  0  0  0  0  0
   59.9640   32.2350   48.4400 C   0  0  0  0  0  0  0  0  0  0  0  0
   59.5720   32.9160   47.1420 C   0  0  0  0  0  0  0  0  0  0  0  0
   59.8860   34.2740   46.9780 C   0  0  0  0  0  0  0  0  0  0  0  0
   59.4790   34.9430   45.8240 C   0  0  0  0  0  0  0  0  0  0  0  0
   59.7480   36.1630   45.6770 O   0  0  0  0  0  0  0  0  0  0  0  0
   58.8050   34.3020   44.8770 O   0  0  0  0  0  0  0  0  0  0  0  0
   58.4870   33.0150   44.9690 C   0  0  0  0  0  0  0  0  0  0  0  0
   57.7740   32.4130   43.9260 C   0  0  0  0  0  0  0  0  0  0  0  0
   57.4350   31.0550   43.9880 C   0  0  0  0  0  0  0  0  0  0  0  0
   56.6370   30.4250   42.8860 C   0  0  0  0  0  0  0  0  0  0  0  0
   57.7910   30.3060   45.1180 C   0  0  0  0  0  0  0  0  0  0  0  0
   58.5030   30.8970   46.1660 C   0  0  0  0  0  0  0  0  0  0  0  0
   58.8590   32.2600   46.1080 C   0  0  0  0  0  0  0  0  0  0  0  0
   62.4286   34.6231   46.4668 H   0  0  0  0  0  0  0  0  0  0  0  0
   64.0792   34.3714   45.8044 H   0  0  0  0  0  0  0  0  0  0  0  0
   62.8958   33.0201   45.8044 H   0  0  0  0  0  0  0  0  0  0  0  0
   64.7939   33.7770   47.8565 H   0  0  0  0  0  0  0  0  0  0  0  0
   63.0989   33.9573   48.4921 H   0  0  0  0  0  0  0  0  0  0  0  0
   64.5390   31.5620   47.6360 H   0  0  0  0  0  0  0  0  0  0  0  0
   64.0576   30.8306   49.6416 H   0  0  0  0  0  0  0  0  0  0  0  0
   63.5785   32.5352   49.9849 H   0  0  0  0  0  0  0  0  0  0  0  0
   61.9126   30.1569   49.8358 H   0  0  0  0  0  0  0  0  0  0  0  0
   61.4726   31.8559   50.2999 H   0  0  0  0  0  0  0  0  0  0  0  0
   60.8650   30.4330   47.9010 H   0  0  0  0  0  0  0  0  0  0  0  0
   61.7630   31.8110   47.5660 H   0  0  0  0  0  0  0  0  0  0  0  0
   59.1183   31.6232   48.7870 H   0  0  0  0  0  0  0  0  0  0  0  0
   60.2191   33.0207   49.1664 H   0  0  0  0  0  0  0  0  0  0  0  0
   60.4506   34.8083   47.7562 H   0  0  0  0  0  0  0  0  0  0  0  0
   57.4776   33.0104   43.0512 H   0  0  0  0  0  0  0  0  0  0  0  0
   55.8436   29.7986   43.3198 H   0  0  0  0  0  0  0  0  0  0  0  0
   56.1845   31.2120   42.2649 H   0  0  0  0  0  0  0  0  0  0  0  0
   57.2975   29.8022   42.2649 H   0  0  0  0  0  0  0  0  0  0  0  0
   57.5080   29.2449   45.1807 H   0  0  0  0  0  0  0  0  0  0  0  0
   58.7873   30.2947   47.0415 H   0  0  0  0  0  0  0  0  0  0  0  0
  1  2  1  0
  2  3  1  0
  3  4  1  0
  4  5  1  0
  5  6  1  0
  6  7  1  0
  7  8  1  0
  8  9  2  0
  9 10  1  0
 10 11  2  0
 10 12  1  0
 12 13  1  0
 13 14  2  0
 14 15  1  0
 15 16  1  0
 15 17  2  0
 17 18  1  0
 18 19  2  0
 19  8  1  0
 19 13  1  0
  1 20  1  0
  1 21  1  0
  1 22  1  0
  2 23  1  0
  2 24  1  0
  3 25  1  0
  4 26  1  0
  4 27  1  0
  5 28  1  0
  5 29  1  0
  6 30  1  0
  6 31  1  0
  7 32  1  0
  7 33  1  0
  9 34  1  0
 14 35  1  0
 16 36  1  0
 16 37  1  0
 16 38  1  0
 17 39  1  0
 18 40  1  0
M  CHG  1   6   1
M  END
>  <UniqueID>  (21) 
21

>  <SMILES>  (21) 
CCNCC[NH2+]Cc1cc(=O)oc2cc(C)ccc12

>  <Energy>  (21) 
42.51190527867648

>  <Genealogy>  (21) 
CCNCC[NH2+]Cc1cc(=O)oc2cc(C)ccc12 (protonated)
CCNCC[NH2+]Cc1cc(=O)oc2cc(C)ccc12 (3D coordinates assigned)
CCNCC[NH2+]Cc1cc(=O)oc2cc(C)ccc12 (optimized conformer: 42.51190527867648 kcal/mol)

>  <smiles>  (21) 
CCNCCNCc1cc(=O)oc2cc(C)ccc12

>  <score_type>  (21) 
oracle

>  <origin>  (21) 
adg

>  <m_score__min__energy>  (21) 
-5.0999999999999996

>  <m_primary>  (21) 
energy

$$$$
21:0
     RDKit          3D

 50 52  0  0  0  0  0  0  0  0999 V2000
   57.6137   34.5169   47.8542 H   0  0  0  0  0  0  0  0  0  0  0  0
   57.9790   33.8340   47.0730 C   0  0  0  0  0  0  0  0  0  0  0  0
   59.2590   33.4340   47.1560 C   0  0  0  0  0  0  0  0  0  0  0  0
   55.9507   33.6447   46.1542 H   0  0  0  0  0  0  0  0  0  0  0  0
   57.4530   32.8220   44.9170 C   0  0  0  0  0  0  0  0  0  0  0  0
   60.3820   33.8410   45.8110 S   0  0  0  0  0  0  0  0  0  0  0  0
   61.7040   33.5600   46.9720 C   0  0  0  0  0  0  0  0  0  0  0  0
   63.0480   33.8170   46.7050 C   0  0  0  0  0  0  0  0  0  0  0  0
   63.3494   34.2616   45.7450 H   0  0  0  0  0  0  0  0  0  0  0  0
   64.0090   33.5030   47.6720 C   0  0  0  0  0  0  0  0  0  0  0  0
   65.0709   33.7139   47.4772 H   0  0  0  0  0  0  0  0  0  0  0  0
   63.6230   32.9180   48.8940 C   0  0  0  0  0  0  0  0  0  0  0  0
   64.6510   32.6180   49.9440 C   0  0  0  0  0  0  0  0  0  0  0  0
   64.2053   32.7481   50.9412 H   0  0  0  0  0  0  0  0  0  0  0  0
   64.9992   31.5808   49.8304 H   0  0  0  0  0  0  0  0  0  0  0  0
   65.5024   33.3051   49.8304 H   0  0  0  0  0  0  0  0  0  0  0  0
   62.2590   32.6830   49.1530 C   0  0  0  0  0  0  0  0  0  0  0  0
   61.9449   32.2438   50.1114 H   0  0  0  0  0  0  0  0  0  0  0  0
   61.3030   33.0130   48.1800 C   0  0  0  0  0  0  0  0  0  0  0  0
   59.8860   32.8540   48.3180 N   0  0  0  0  0  0  0  0  0  0  0  0
   59.2940   31.7370   49.0760 C   0  0  0  0  0  0  0  0  0  0  0  0
   58.2385   31.6298   48.7853 H   0  0  0  0  0  0  0  0  0  0  0  0
   59.3890   31.9643   50.1481 H   0  0  0  0  0  0  0  0  0  0  0  0
   60.0190   30.4150   48.8050 C   0  0  0  0  0  0  0  0  0  0  0  0
   60.2807   29.9377   49.7609 H   0  0  0  0  0  0  0  0  0  0  0  0
   59.3609   29.7471   48.2298 H   0  0  0  0  0  0  0  0  0  0  0  0
   60.9359   30.6109   48.2298 H   0  0  0  0  0  0  0  0  0  0  0  0
   57.0230   33.4360   46.0250 C   0  0  0  0  0  0  0  0  0  0  0  0
   57.8508   33.4384   44.0974 H   0  0  0  0  0  0  0  0  0  0  0  0
   57.4190   31.3570   44.7420 C   0  0  0  0  0  0  0  0  0  0  0  0
   57.5460   30.5350   45.7630 O   0  0  0  0  0  0  0  0  0  0  0  0
   57.4960   29.3090   45.2920 C   0  0  0  0  0  0  0  0  0  0  0  0
   57.5970   28.1370   46.1220 N   0  0  0  0  0  0  0  0  0  0  0  0
   56.6810   27.0040   45.9720 C   0  0  0  0  0  0  0  0  0  0  0  0
   56.3849   26.6378   46.9661 H   0  0  0  0  0  0  0  0  0  0  0  0
   55.7866   27.3263   45.4186 H   0  0  0  0  0  0  0  0  0  0  0  0
   57.1835   26.1970   45.4186 H   0  0  0  0  0  0  0  0  0  0  0  0
   58.6010   28.1190   47.1850 C   0  0  0  0  0  0  0  0  0  0  0  0
   58.0990   28.1280   48.1637 H   0  0  0  0  0  0  0  0  0  0  0  0
   59.2135   27.2097   47.0955 H   0  0  0  0  0  0  0  0  0  0  0  0
   59.2457   29.0057   47.0955 H   0  0  0  0  0  0  0  0  0  0  0  0
   57.3340   29.3830   43.9190 C   0  0  0  0  0  0  0  0  0  0  0  0
   57.3810   28.2990   42.9850 N   0  0  0  0  0  0  0  0  0  0  0  0
   57.9980   28.3320   42.1470 H   0  0  0  0  0  0  0  0  0  0  0  0
   56.7270   27.4920   43.0690 H   0  0  0  0  0  0  0  0  0  0  0  0
   57.2540   30.6860   43.5730 N   0  0  0  0  0  0  0  0  0  0  0  0
   57.0530   31.2250   42.2280 C   0  0  0  0  0  0  0  0  0  0  0  0
   56.6694   32.2535   42.2987 H   0  0  0  0  0  0  0  0  0  0  0  0
   58.0107   31.2272   41.6870 H   0  0  0  0  0  0  0  0  0  0  0  0
   56.3277   30.5996   41.6870 H   0  0  0  0  0  0  0  0  0  0  0  0
  1  2  1  0
  2  3  1  0
  3  4  1  0
  3  5  2  0
  5  6  1  0
  6  7  1  0
  7  8  2  0
  8  9  1  0
  8 10  1  0
 10 11  1  0
 10 12  2  0
 12 13  1  0
 13 14  1  0
 13 15  1  0
 13 16  1  0
 12 17  1  0
 17 18  1  0
 17 19  2  0
 19 20  1  0
 20 21  1  0
 21 22  1  0
 21 23  1  0
 21 24  1  0
 24 25  1  0
 24 26  1  0
 24 27  1  0
  2 28  2  0
 28 29  1  0
 28 30  1  0
 30 31  1  0
 31 32  1  0
 32 33  1  0
 33 34  1  0
 34 35  1  0
 34 36  1  0
 34 37  1  0
 33 38  1  0
 38 39  1  0
 38 40  1  0
 38 41  1  0
 32 42  2  0
 42 43  1  0
 43 44  1  0
 43 45  1  0
 42 46  1  0
 46 47  1  0
 47 48  1  0
 47 49  1  0
 47 50  1  0
 20  5  1  0
 46 30  2  0
 19  7  1  0
M  CHG  1  46   1
M  END
>  <UniqueID>  (22) 
22

>  <SMILES>  (22) 
CCN1/C(=C\C=C\c2oc(N(C)C)c(N)[n+]2C)Sc2ccc(C)cc21

>  <Energy>  (22) 
113.71247284002204

>  <Genealogy>  (22) 
CCN1/C(=C\C=C\c2oc(N(C)C)c(N)[n+]2C)Sc2ccc(C)cc21 (cis-trans isomerization)
CCN1/C(=C\C=C\c2oc(N(C)C)c(N)[n+]2C)Sc2ccc(C)cc21 (3D coordinates assigned)
CCN1/C(=C\C=C\c2oc(N(C)C)c(N)[n+]2C)Sc2ccc(C)cc21 (nonaromatic ring conformer: 113.71247284002204 kcal/mol)

>  <smiles>  (22) 
CCN1C(=CC=Cc2oc(N(C)C)c(N)[n+]2C)Sc2ccc(C)cc21

>  <score_type>  (22) 
oracle

>  <origin>  (22) 
adg

>  <m_score__min__energy>  (22) 
-6.6200000000000001

>  <m_primary>  (22) 
energy

$$$$
22:0
     RDKit          3D

 51 53  0  0  0  0  0  0  0  0999 V2000
   58.9500   31.4030   49.4640 C   0  0  0  0  0  0  0  0  0  0  0  0
   60.3340   31.8830   49.8970 C   0  0  0  0  0  0  0  0  0  0  0  0
   61.1560   32.2550   48.7240 N   0  0  0  0  0  0  0  0  0  0  0  0
   62.5960   31.9750   48.9240 C   0  0  0  0  0  0  0  0  0  0  0  0
   63.4140   31.9890   47.6240 C   0  0  0  0  0  0  0  0  0  0  0  0
   60.8960   33.6280   48.2290 C   0  0  0  0  0  0  0  0  0  0  0  0
   60.5700   33.5750   46.7360 C   0  0  0  0  0  0  0  0  0  0  0  0
   60.3490   32.1940   46.3030 N   0  0  0  0  0  0  0  0  0  0  0  0
   59.1490   31.7640   45.6330 C   0  0  0  0  0  0  0  0  0  0  0  0
   58.4450   32.6990   44.8570 C   0  0  0  0  0  0  0  0  0  0  0  0
   57.2200   32.3740   44.2910 C   0  0  0  0  0  0  0  0  0  0  0  0
   56.6650   31.1180   44.5010 C   0  0  0  0  0  0  0  0  0  0  0  0
   57.3440   30.1490   45.2630 C   0  0  0  0  0  0  0  0  0  0  0  0
   56.7610   28.8830   45.4600 C   0  0  0  0  0  0  0  0  0  0  0  0
   55.5140   28.6200   44.8940 O   0  0  0  0  0  0  0  0  0  0  0  0
   57.4220   27.8960   46.2260 C   0  0  0  0  0  0  0  0  0  0  0  0
   56.8240   26.6290   46.4790 C   0  0  0  0  0  0  0  0  0  0  0  0
   55.5530   26.3330   45.9540 O   0  0  0  0  0  0  0  0  0  0  0  0
   55.1050   25.0350   45.5750 C   0  0  0  0  0  0  0  0  0  0  0  0
   57.5110   25.6820   47.2610 C   0  0  0  0  0  0  0  0  0  0  0  0
   58.7550   25.9790   47.7980 C   0  0  0  0  0  0  0  0  0  0  0  0
   59.3510   27.2110   47.5560 C   0  0  0  0  0  0  0  0  0  0  0  0
   58.7150   28.1790   46.7520 C   0  0  0  0  0  0  0  0  0  0  0  0
   59.3350   29.4270   46.4820 C   0  0  0  0  0  0  0  0  0  0  0  0
   60.6790   29.6460   46.8120 O   0  0  0  0  0  0  0  0  0  0  0  0
   58.6170   30.4530   45.8160 C   0  0  0  0  0  0  0  0  0  0  0  0
   58.3400   31.1915   50.3546 H   0  0  0  0  0  0  0  0  0  0  0  0
   58.4624   32.1845   48.8628 H   0  0  0  0  0  0  0  0  0  0  0  0
   59.0510   30.4874   48.8628 H   0  0  0  0  0  0  0  0  0  0  0  0
   60.2224   32.7603   50.5511 H   0  0  0  0  0  0  0  0  0  0  0  0
   60.8374   31.0649   50.4331 H   0  0  0  0  0  0  0  0  0  0  0  0
   63.0073   32.7379   49.6014 H   0  0  0  0  0  0  0  0  0  0  0  0
   62.6713   30.9596   49.3403 H   0  0  0  0  0  0  0  0  0  0  0  0
   64.4869   32.0074   47.8661 H   0  0  0  0  0  0  0  0  0  0  0  0
   63.1858   31.0868   47.0375 H   0  0  0  0  0  0  0  0  0  0  0  0
   63.1551   32.8828   47.0375 H   0  0  0  0  0  0  0  0  0  0  0  0
   60.0450   34.0604   48.7756 H   0  0  0  0  0  0  0  0  0  0  0  0
   61.7877   34.2519   48.3890 H   0  0  0  0  0  0  0  0  0  0  0  0
   59.6607   34.1635   46.5439 H   0  0  0  0  0  0  0  0  0  0  0  0
   61.4194   33.9902   46.1737 H   0  0  0  0  0  0  0  0  0  0  0  0
   61.0900   31.4870   46.5120 H   0  0  0  0  0  0  0  0  0  0  0  0
   58.8694   33.7009   44.6958 H   0  0  0  0  0  0  0  0  0  0  0  0
   56.6873   33.1130   43.6745 H   0  0  0  0  0  0  0  0  0  0  0  0
   55.6833   30.8780   44.0666 H   0  0  0  0  0  0  0  0  0  0  0  0
   54.8997   24.4401   46.4772 H   0  0  0  0  0  0  0  0  0  0  0  0
   54.1857   25.1243   44.9776 H   0  0  0  0  0  0  0  0  0  0  0  0
   55.8837   24.5383   44.9776 H   0  0  0  0  0  0  0  0  0  0  0  0
   57.0575   24.6975   47.4481 H   0  0  0  0  0  0  0  0  0  0  0  0
   59.2734   25.2342   48.4197 H   0  0  0  0  0  0  0  0  0  0  0  0
   60.3332   27.4341   47.9982 H   0  0  0  0  0  0  0  0  0  0  0  0
   61.0020   30.3290   47.4810 H   0  0  0  0  0  0  0  0  0  0  0  0
  1  2  1  0
  2  3  1  0
  3  4  1  0
  4  5  1  0
  3  6  1  0
  6  7  1  0
  7  8  1  0
  8  9  1  0
  9 10  2  0
 10 11  1  0
 11 12  2  0
 12 13  1  0
 13 14  2  0
 14 15  1  0
 14 16  1  0
 16 17  2  0
 17 18  1  0
 18 19  1  0
 17 20  1  0
 20 21  2  0
 21 22  1  0
 22 23  2  0
 23 24  1  0
 24 25  1  0
 24 26  2  0
 26  9  1  0
 26 13  1  0
 23 16  1  0
  1 27  1  0
  1 28  1  0
  1 29  1  0
  2 30  1  0
  2 31  1  0
  4 32  1  0
  4 33  1  0
  5 34  1  0
  5 35  1  0
  5 36  1  0
  6 37  1  0
  6 38  1  0
  7 39  1  0
  7 40  1  0
  8 41  1  0
 10 42  1  0
 11 43  1  0
 12 44  1  0
 19 45  1  0
 19 46  1  0
 19 47  1  0
 20 48  1  0
 21 49  1  0
 22 50  1  0
 25 51  1  0
M  CHG  1  15  -1
M  END
>  <UniqueID>  (23) 
23

>  <SMILES>  (23) 
CCN(CC)CCNc1cccc2c([O-])c3c(OC)cccc3c(O)c12

>  <Energy>  (23) 
74.5377359942642

>  <Genealogy>  (23) 
CCN(CC)CCNc1cccc2c([O-])c3c(OC)cccc3c(O)c12 (protonated)
CCN(CC)CCNc1cccc2c([O-])c3c(OC)cccc3c(O)c12 (3D coordinates assigned)
CCN(CC)CCNc1cccc2c([O-])c3c(OC)cccc3c(O)c12 (optimized conformer: 74.5377359942642 kcal/mol)

>  <smiles>  (23) 
CCN(CC)CCNc1cccc2c(O)c3c(OC)cccc3c(O)c12

>  <score_type>  (23) 
oracle

>  <origin>  (23) 
adg

>  <m_score__min__energy>  (23) 
-9.5199999999999996

>  <m_primary>  (23) 
energy

$$$$
23:0
     RDKit          3D

 51 53  0  0  0  0  0  0  0  0999 V2000
   62.5130   33.4730   46.7630 C   0  0  0  0  0  0  0  0  0  0  0  0
   61.3320   32.5080   46.7490 C   0  0  0  0  0  0  0  0  0  0  0  0
   60.5480   32.6440   47.9840 N   0  0  0  0  0  0  0  0  0  0  0  0
   60.9280   31.8640   49.1690 C   0  0  0  0  0  0  0  0  0  0  0  0
   60.1800   30.5350   49.1920 C   0  0  0  0  0  0  0  0  0  0  0  0
   59.5650   33.6890   48.1160 C   0  0  0  0  0  0  0  0  0  0  0  0
   59.5750   34.4220   49.1430 O   0  0  0  0  0  0  0  0  0  0  0  0
   58.5310   33.9300   47.0380 C   0  0  1  0  0  0  0  0  0  0  0  0
   59.1680   34.6070   45.7970 C   0  0  0  0  0  0  0  0  0  0  0  0
   58.4000   34.2640   44.5190 C   0  0  0  0  0  0  0  0  0  0  0  0
   58.4770   32.7550   44.2570 C   0  0  0  0  0  0  0  0  0  0  0  0
   58.3100   31.9810   45.4970 N   0  0  0  0  0  0  0  0  0  0  0  0
   58.2950   30.5470   45.4140 C   0  0  0  0  0  0  0  0  0  0  0  0
   59.2200   29.8360   46.1120 N   0  0  0  0  0  0  0  0  0  0  0  0
   59.2500   28.4810   46.0760 C   0  0  0  0  0  0  0  0  0  0  0  0
   60.2100   27.7730   46.8070 C   0  0  0  0  0  0  0  0  0  0  0  0
   60.2260   26.3750   46.7670 C   0  0  0  0  0  0  0  0  0  0  0  0
   59.2830   25.6820   45.9980 C   0  0  0  0  0  0  0  0  0  0  0  0
   58.3210   26.3860   45.2650 C   0  0  0  0  0  0  0  0  0  0  0  0
   58.2990   27.7880   45.2990 C   0  0  0  0  0  0  0  0  0  0  0  0
   57.3760   28.4960   44.5890 N   0  0  0  0  0  0  0  0  0  0  0  0
   57.3600   29.8610   44.6090 C   0  0  0  0  0  0  0  0  0  0  0  0
   56.3320   30.5950   43.7910 C   0  0  0  0  0  0  0  0  0  0  0  0
   57.7720   32.6230   46.7010 C   0  0  0  0  0  0  0  0  0  0  0  0
   62.7895   33.6990   47.8034 H   0  0  0  0  0  0  0  0  0  0  0  0
   63.3689   33.0125   46.2478 H   0  0  0  0  0  0  0  0  0  0  0  0
   62.2323   34.4035   46.2478 H   0  0  0  0  0  0  0  0  0  0  0  0
   60.6897   32.7330   45.8848 H   0  0  0  0  0  0  0  0  0  0  0  0
   61.7121   31.4782   46.6779 H   0  0  0  0  0  0  0  0  0  0  0  0
   62.0105   31.6704   49.1438 H   0  0  0  0  0  0  0  0  0  0  0  0
   60.6676   32.4361   50.0717 H   0  0  0  0  0  0  0  0  0  0  0  0
   60.0079   30.2291   50.2345 H   0  0  0  0  0  0  0  0  0  0  0  0
   59.2137   30.6492   48.6790 H   0  0  0  0  0  0  0  0  0  0  0  0
   60.7790   29.7682   48.6790 H   0  0  0  0  0  0  0  0  0  0  0  0
   57.7783   34.6361   47.4187 H   0  0  0  0  0  0  0  0  0  0  0  0
   59.1574   35.6977   45.9392 H   0  0  0  0  0  0  0  0  0  0  0  0
   60.1987   34.2375   45.6916 H   0  0  0  0  0  0  0  0  0  0  0  0
   57.3473   34.5615   44.6344 H   0  0  0  0  0  0  0  0  0  0  0  0
   58.8464   34.8036   43.6707 H   0  0  0  0  0  0  0  0  0  0  0  0
   57.6816   32.4742   43.5510 H   0  0  0  0  0  0  0  0  0  0  0  0
   59.4696   32.5282   43.8408 H   0  0  0  0  0  0  0  0  0  0  0  0
   60.9513   28.3151   47.4125 H   0  0  0  0  0  0  0  0  0  0  0  0
   60.9814   25.8184   47.3411 H   0  0  0  0  0  0  0  0  0  0  0  0
   59.2984   24.5825   45.9700 H   0  0  0  0  0  0  0  0  0  0  0  0
   57.5814   25.8393   44.6616 H   0  0  0  0  0  0  0  0  0  0  0  0
   56.6710   27.9840   44.0100 H   0  0  0  0  0  0  0  0  0  0  0  0
   55.6227   31.1014   44.4622 H   0  0  0  0  0  0  0  0  0  0  0  0
   56.8328   31.3410   43.1564 H   0  0  0  0  0  0  0  0  0  0  0  0
   55.7890   29.8791   43.1564 H   0  0  0  0  0  0  0  0  0  0  0  0
   56.7105   32.8592   46.5355 H   0  0  0  0  0  0  0  0  0  0  0  0
   57.8930   31.9277   47.5448 H   0  0  0  0  0  0  0  0  0  0  0  0
  1  2  1  0
  2  3  1  0
  3  4  1  0
  4  5  1  0
  3  6  1  0
  6  7  2  0
  6  8  1  0
  8  9  1  0
  9 10  1  0
 10 11  1  0
 11 12  1  0
 12 13  1  0
 13 14  2  0
 14 15  1  0
 15 16  2  0
 16 17  1  0
 17 18  2  0
 18 19  1  0
 19 20  2  0
 20 21  1  0
 21 22  2  0
 22 23  1  0
 12 24  1  0
 24  8  1  0
 22 13  1  0
 20 15  1  0
  1 25  1  0
  1 26  1  0
  1 27  1  0
  2 28  1  0
  2 29  1  0
  4 30  1  0
  4 31  1  0
  5 32  1  0
  5 33  1  0
  5 34  1  0
  8 35  1  1
  9 36  1  0
  9 37  1  0
 10 38  1  0
 10 39  1  0
 11 40  1  0
 11 41  1  0
 16 42  1  0
 17 43  1  0
 18 44  1  0
 19 45  1  0
 21 46  1  0
 23 47  1  0
 23 48  1  0
 23 49  1  0
 24 50  1  0
 24 51  1  0
M  CHG  1  21   1
M  END
>  <UniqueID>  (24) 
24

>  <SMILES>  (24) 
CCN(CC)C(=O)[C@H]1CCCN(c2nc3ccccc3[nH+]c2C)C1

>  <Energy>  (24) 
57.40156564889007

>  <Genealogy>  (24) 
CCN(CC)C(=O)C1CCCN(c2nc3ccccc3[nH+]c2C)C1 (protonated)
CCN(CC)C(=O)[C@H]1CCCN(c2nc3ccccc3[nH+]c2C)C1 (chirality)
CCN(CC)C(=O)[C@H]1CCCN(c2nc3ccccc3[nH+]c2C)C1 (3D coordinates assigned)
CCN(CC)C(=O)[C@H]1CCCN(c2nc3ccccc3[nH+]c2C)C1 (nonaromatic ring conformer: 57.40156564889007 kcal/mol)

>  <smiles>  (24) 
CCN(CC)C(=O)C1CCCN(c2nc3ccccc3nc2C)C1

>  <score_type>  (24) 
oracle

>  <origin>  (24) 
adg

>  <m_score__min__energy>  (24) 
-6.7400000000000002

>  <m_primary>  (24) 
energy

$$$$
