0:0
     RDKit          3D

 26 28  0  0  0  0  0  0  0  0999 V2000
   59.5060   31.3340   47.4180 H   0  0  0  0  0  0  0  0  0  0  0  0
   59.4720   30.8190   46.5110 N   0  0  0  0  0  0  0  0  0  0  0  0
   57.4610   33.1420   46.4640 C   0  0  0  0  0  0  0  0  0  0  0  0
   58.5660   31.0560   45.6160 C   0  0  0  0  0  0  0  0  0  0  0  0
   57.5750   32.1250   45.5970 C   0  0  0  0  0  0  0  0  0  0  0  0
   56.5199   33.7114   46.4557 H   0  0  0  0  0  0  0  0  0  0  0  0
   58.4990   33.5580   47.4290 C   0  0  0  0  0  0  0  0  0  0  0  0
   58.6960   32.9200   48.5610 O   0  0  0  0  0  0  0  0  0  0  0  0
   59.6650   33.5090   49.2220 C   0  0  0  0  0  0  0  0  0  0  0  0
   60.0489   33.1898   50.2022 H   0  0  0  0  0  0  0  0  0  0  0  0
   60.1280   34.5880   48.5010 C   0  0  0  0  0  0  0  0  0  0  0  0
   60.9334   35.2792   48.7900 H   0  0  0  0  0  0  0  0  0  0  0  0
   59.3790   34.6270   47.3450 C   0  0  0  0  0  0  0  0  0  0  0  0
   59.4618   35.3554   46.5249 H   0  0  0  0  0  0  0  0  0  0  0  0
   56.7160   31.8730   44.4830 N   0  0  0  0  0  0  0  0  0  0  0  0
   57.2230   30.8560   43.8530 C   0  0  0  0  0  0  0  0  0  0  0  0
   56.2770   29.7270   42.8560 S   0  0  0  0  0  0  0  0  0  0  0  0
   57.2330   28.4330   43.6220 N   0  0  0  0  0  0  0  0  0  0  0  0
   56.9980   27.4230   43.5100 H   0  0  0  0  0  0  0  0  0  0  0  0
   58.2020   28.8470   44.3800 C   0  0  0  0  0  0  0  0  0  0  0  0
   59.2500   27.7090   45.2900 S   0  0  0  0  0  0  0  0  0  0  0  0
   60.7860   28.5880   44.8630 C   0  0  0  0  0  0  0  0  0  0  0  0
   61.3065   28.8859   45.7852 H   0  0  0  0  0  0  0  0  0  0  0  0
   61.4359   27.9251   44.2729 H   0  0  0  0  0  0  0  0  0  0  0  0
   60.5437   29.4842   44.2729 H   0  0  0  0  0  0  0  0  0  0  0  0
   58.3440   30.2580   44.4690 N   0  0  0  0  0  0  0  0  0  0  0  0
  1  2  1  0
  2  3  2  0
  3  4  1  0
  4  5  2  0
  5  6  1  0
  5  7  1  0
  7  8  1  0
  8  9  1  0
  9 10  1  0
  9 11  2  0
 11 12  1  0
 11 13  1  0
 13 14  1  0
  4 15  1  0
 15 16  2  0
 16 17  1  0
 17 18  1  0
 18 19  1  0
 18 20  2  0
 20 21  1  0
 21 22  1  0
 22 23  1  0
 22 24  1  0
 22 25  1  0
 20 26  1  0
 26  3  1  0
 13  7  2  0
 26 16  1  0
M  CHG  1  18   1
M  END
>  <UniqueID>  (1) 
1

>  <SMILES>  (1) 
[H]/N=C1C(=C\c2ccco2)\N=C2S[NH+]=C(SC)N2\1

>  <Energy>  (1) 
113.14926144651972

>  <Genealogy>  (1) 
CSC1=[NH+]SC2=NC(=Cc3ccco3)C(=N)N21 (protonated)
[H]/N=C1C(=C\c2ccco2)\N=C2S[NH+]=C(SC)N2\1 (cis-trans isomerization)
[H]/N=C1C(=C\c2ccco2)\N=C2S[NH+]=C(SC)N2\1 (3D coordinates assigned)
[H]/N=C1C(=C\c2ccco2)\N=C2S[NH+]=C(SC)N2\1 (nonaromatic ring conformer: 113.14926144651972 kcal/mol)

>  <smiles>  (1) 
CSC1=NSC2=NC(=Cc3ccco3)C(=N)N12

>  <score_type>  (1) 
oracle

>  <origin>  (1) 
adg

>  <m_score__min__energy>  (1) 
-4.5999999999999996

>  <m_primary>  (1) 
energy

$$$$
1:0
     RDKit          3D

 19 20  0  0  1  0  0  0  0  0999 V2000
   56.4520   30.9100   44.1660 C   0  0  0  0  0  0  0  0  0  0  0  0
   57.5620   30.2290   44.6240 C   0  0  0  0  0  0  0  0  0  0  0  0
   57.0920   28.9750   44.9940 C   0  0  0  0  0  0  0  0  0  0  0  0
   57.8000   28.0120   45.4790 N   0  0  0  0  0  0  0  0  0  0  0  0
   57.2440   26.7450   45.8120 C   0  0  0  0  0  0  0  0  0  0  0  0
   56.0570   26.3700   45.9970 N   0  0  0  0  0  0  0  0  0  0  0  0
   55.7900   25.0290   46.3230 C   0  0  0  0  0  0  0  0  0  0  0  0
   56.8730   24.1050   45.8130 C   0  0  0  0  0  0  0  0  0  0  0  0
   58.2850   25.2750   46.0400 S   0  0  0  0  0  0  0  0  0  0  0  0
   55.7660   28.9320   44.7610 N   0  0  0  0  0  0  0  0  0  0  0  0
   55.3780   30.1020   44.2600 N   0  0  0  0  0  0  0  0  0  0  0  0
   56.4455   31.9425   43.7867 H   0  0  0  0  0  0  0  0  0  0  0  0
   58.5960   30.5994   44.6833 H   0  0  0  0  0  0  0  0  0  0  0  0
   55.7257   24.9337   47.4170 H   0  0  0  0  0  0  0  0  0  0  0  0
   54.8409   24.7419   45.8467 H   0  0  0  0  0  0  0  0  0  0  0  0
   56.9753   23.1970   46.4254 H   0  0  0  0  0  0  0  0  0  0  0  0
   56.7331   23.6895   44.8041 H   0  0  0  0  0  0  0  0  0  0  0  0
   55.1450   28.1010   44.9480 H   0  0  0  0  0  0  0  0  0  0  0  0
   54.3790   30.3200   43.9930 H   0  0  0  0  0  0  0  0  0  0  0  0
  1  2  2  0
  2  3  1  0
  3  4  2  0
  4  5  1  0
  5  6  2  0
  6  7  1  0
  7  8  1  0
  8  9  1  0
  3 10  1  0
 10 11  1  0
 11  1  1  0
  9  5  1  0
  1 12  1  0
  2 13  1  0
  7 14  1  0
  7 15  1  0
  8 16  1  0
  8 17  1  0
 10 18  1  0
 11 19  1  0
M  END
>  <smiles>  (2) 
c1cc(=NC2=NCCS2)[nH][nH]1

>  <score_type>  (2) 
oracle

>  <origin>  (2) 
adg

>  <m_score__min__energy>  (2) 
-5.6299999999999999

>  <m_primary>  (2) 
energy

$$$$
2:0
     RDKit          3D

 17 17  0  0  0  0  0  0  0  0999 V2000
   56.9350   27.3680   46.1490 C   0  0  0  0  0  0  0  0  0  0  0  0
   56.1400   28.1890   45.2410 N   0  0  0  0  0  0  0  0  0  0  0  0
   56.6510   29.3570   44.5710 C   0  0  0  0  0  0  0  0  0  0  0  0
   56.2240   29.7140   43.2760 C   0  0  0  0  0  0  0  0  0  0  0  0
   56.7400   30.8550   42.6540 C   0  0  0  0  0  0  0  0  0  0  0  0
   57.6830   31.6490   43.3130 C   0  0  0  0  0  0  0  0  0  0  0  0
   58.1110   31.3030   44.5960 C   0  0  0  0  0  0  0  0  0  0  0  0
   57.5980   30.1630   45.2230 C   0  0  0  0  0  0  0  0  0  0  0  0
   56.6859   27.6252   47.1891 H   0  0  0  0  0  0  0  0  0  0  0  0
   56.7139   26.3052   45.9711 H   0  0  0  0  0  0  0  0  0  0  0  0
   58.0043   27.5548   45.9711 H   0  0  0  0  0  0  0  0  0  0  0  0
   55.1480   27.9040   45.0750 H   0  0  0  0  0  0  0  0  0  0  0  0
   55.4822   29.0927   42.7528 H   0  0  0  0  0  0  0  0  0  0  0  0
   56.4029   31.1286   41.6433 H   0  0  0  0  0  0  0  0  0  0  0  0
   58.0876   32.5458   42.8210 H   0  0  0  0  0  0  0  0  0  0  0  0
   58.8529   31.9280   45.1146 H   0  0  0  0  0  0  0  0  0  0  0  0
   57.9388   29.8959   46.2342 H   0  0  0  0  0  0  0  0  0  0  0  0
  1  2  1  0
  2  3  1  0
  3  4  2  0
  4  5  1  0
  5  6  2  0
  6  7  1  0
  7  8  2  0
  8  3  1  0
  1  9  1  0
  1 10  1  0
  1 11  1  0
  2 12  1  0
  4 13  1  0
  5 14  1  0
  6 15  1  0
  7 16  1  0
  8 17  1  0
M  END
>  <UniqueID>  (3) 
2

>  <SMILES>  (3) 
CNc1ccccc1

>  <Energy>  (3) 
13.860236683741494

>  <Genealogy>  (3) 
CNc1ccccc1 (3D coordinates assigned)
CNc1ccccc1 (optimized conformer: 13.860236683741494 kcal/mol)

>  <smiles>  (3) 
CNc1ccccc1

>  <score_type>  (3) 
oracle

>  <origin>  (3) 
adg

>  <m_score__min__energy>  (3) 
-4.1299999999999999

>  <m_primary>  (3) 
energy

$$$$
3:0
     RDKit          3D

 54 57  0  0  0  0  0  0  0  0999 V2000
   57.3020   21.6530   43.8430 C   0  0  0  0  0  0  0  0  0  0  0  0
   56.2510   22.6010   44.2480 N   0  0  0  0  0  0  0  0  0  0  0  0
   56.1790   23.7470   43.3300 C   0  0  0  0  0  0  0  0  0  0  0  0
   56.3260   23.0030   45.6730 C   0  0  0  0  0  0  0  0  0  0  0  0
   56.2570   24.5000   45.9200 C   0  0  0  0  0  0  0  0  0  0  0  0
   55.1390   25.0490   46.1120 O   0  0  0  0  0  0  0  0  0  0  0  0
   57.4080   25.3420   45.7570 N   0  0  0  0  0  0  0  0  0  0  0  0
   57.4060   26.6830   45.2510 C   0  0  0  0  0  0  0  0  0  0  0  0
   56.4000   27.5910   45.6130 C   0  0  0  0  0  0  0  0  0  0  0  0
   56.4130   28.8950   45.1090 C   0  0  0  0  0  0  0  0  0  0  0  0
   57.4290   29.3030   44.2300 C   0  0  0  0  0  0  0  0  0  0  0  0
   57.4420   30.7030   43.6790 C   0  0  0  0  0  0  0  0  0  0  0  0
   57.9070   31.6750   44.7280 C   0  0  0  0  0  0  0  0  0  0  0  0
   57.4410   32.9990   44.7260 C   0  0  0  0  0  0  0  0  0  0  0  0
   57.8520   33.8930   45.7180 C   0  0  0  0  0  0  0  0  0  0  0  0
   58.7440   33.4820   46.7200 C   0  0  0  0  0  0  0  0  0  0  0  0
   59.1380   34.4140   47.7380 N   0  0  0  0  0  0  0  0  0  0  0  0
   60.2280   34.1930   48.6470 C   0  0  0  0  0  0  0  0  0  0  0  0
   61.4810   33.8970   48.3240 C   0  0  0  0  0  0  0  0  0  0  0  0
   62.0840   33.8380   47.0630 C   0  0  0  0  0  0  0  0  0  0  0  0
   63.4430   33.4840   46.9930 C   0  0  0  0  0  0  0  0  0  0  0  0
   64.1690   33.1920   48.1670 C   0  0  0  0  0  0  0  0  0  0  0  0
   63.5440   33.2530   49.4250 C   0  0  0  0  0  0  0  0  0  0  0  0
   62.1950   33.6090   49.4810 C   0  0  0  0  0  0  0  0  0  0  0  0
   61.4860   33.6730   50.5670 N   0  0  0  0  0  0  0  0  0  0  0  0
   60.1890   34.0280   50.0950 C   0  0  0  0  0  0  0  0  0  0  0  0
   59.1670   34.0880   50.8280 O   0  0  0  0  0  0  0  0  0  0  0  0
   59.1780   32.1460   46.7460 C   0  0  0  0  0  0  0  0  0  0  0  0
   58.7660   31.2500   45.7540 C   0  0  0  0  0  0  0  0  0  0  0  0
   58.4050   28.3770   43.8280 C   0  0  0  0  0  0  0  0  0  0  0  0
   58.3860   27.0710   44.3290 C   0  0  0  0  0  0  0  0  0  0  0  0
   57.7756   21.2258   44.7392 H   0  0  0  0  0  0  0  0  0  0  0  0
   56.8563   20.8455   43.2436 H   0  0  0  0  0  0  0  0  0  0  0  0
   58.0594   22.1794   43.2436 H   0  0  0  0  0  0  0  0  0  0  0  0
   56.1204   24.6792   43.9111 H   0  0  0  0  0  0  0  0  0  0  0  0
   57.0777   23.7660   42.6960 H   0  0  0  0  0  0  0  0  0  0  0  0
   55.2850   23.6533   42.6960 H   0  0  0  0  0  0  0  0  0  0  0  0
   55.4881   22.5298   46.2060 H   0  0  0  0  0  0  0  0  0  0  0  0
   57.3123   22.6761   46.0341 H   0  0  0  0  0  0  0  0  0  0  0  0
   55.5976   27.2758   46.2962 H   0  0  0  0  0  0  0  0  0  0  0  0
   55.6245   29.6038   45.4021 H   0  0  0  0  0  0  0  0  0  0  0  0
   58.1236   30.7468   42.8167 H   0  0  0  0  0  0  0  0  0  0  0  0
   56.4220   30.9738   43.3688 H   0  0  0  0  0  0  0  0  0  0  0  0
   56.7488   33.3344   43.9396 H   0  0  0  0  0  0  0  0  0  0  0  0
   57.4737   34.9259   45.7134 H   0  0  0  0  0  0  0  0  0  0  0  0
   58.6150   35.3190   47.7970 H   0  0  0  0  0  0  0  0  0  0  0  0
   61.5108   34.0624   46.1514 H   0  0  0  0  0  0  0  0  0  0  0  0
   63.9442   33.4343   46.0151 H   0  0  0  0  0  0  0  0  0  0  0  0
   65.2312   32.9147   48.0976 H   0  0  0  0  0  0  0  0  0  0  0  0
   64.1047   33.0256   50.3436 H   0  0  0  0  0  0  0  0  0  0  0  0
   59.8451   31.8029   47.5505 H   0  0  0  0  0  0  0  0  0  0  0  0
   59.1166   30.2076   45.7779 H   0  0  0  0  0  0  0  0  0  0  0  0
   59.1874   28.6796   43.1165 H   0  0  0  0  0  0  0  0  0  0  0  0
   59.1439   26.3460   43.9974 H   0  0  0  0  0  0  0  0  0  0  0  0
  1  2  1  0
  2  3  1  0
  2  4  1  0
  4  5  1  0
  5  6  2  0
  5  7  1  0
  7  8  1  0
  8  9  2  0
  9 10  1  0
 10 11  2  0
 11 12  1  0
 12 13  1  0
 13 14  2  0
 14 15  1  0
 15 16  2  0
 16 17  1  0
 17 18  1  0
 18 19  2  0
 19 20  1  0
 20 21  2  0
 21 22  1  0
 22 23  2  0
 23 24  1  0
 24 25  2  0
 25 26  1  0
 26 27  2  0
 16 28  1  0
 28 29  2  0
 11 30  1  0
 30 31  2  0
 31  8  1  0
 29 13  1  0
 26 18  1  0
 24 19  1  0
  1 32  1  0
  1 33  1  0
  1 34  1  0
  3 35  1  0
  3 36  1  0
  3 37  1  0
  4 38  1  0
  4 39  1  0
  9 40  1  0
 10 41  1  0
 12 42  1  0
 12 43  1  0
 14 44  1  0
 15 45  1  0
 17 46  1  0
 20 47  1  0
 21 48  1  0
 22 49  1  0
 23 50  1  0
 28 51  1  0
 29 52  1  0
 30 53  1  0
 31 54  1  0
M  CHG  1   7  -1
M  END
>  <UniqueID>  (4) 
3

>  <SMILES>  (4) 
CN(C)CC(=O)[N-]c1ccc(Cc2ccc(NC3=c4ccccc4=NC3=O)cc2)cc1

>  <Energy>  (4) 
105.23202536246409

>  <Genealogy>  (4) 
CN(C)CC(=O)[N-]c1ccc(Cc2ccc(NC3=c4ccccc4=NC3=O)cc2)cc1 (protonated)
CN(C)CC(=O)[N-]c1ccc(Cc2ccc(NC3=c4ccccc4=NC3=O)cc2)cc1 (3D coordinates assigned)
CN(C)CC(=O)[N-]c1ccc(Cc2ccc(NC3=c4ccccc4=NC3=O)cc2)cc1 (nonaromatic ring conformer: 105.23202536246409 kcal/mol)

>  <smiles>  (4) 
CN(C)CC(=O)Nc1ccc(Cc2ccc(NC3=c4ccccc4=NC3=O)cc2)cc1

>  <score_type>  (4) 
oracle

>  <origin>  (4) 
adg

>  <m_score__min__energy>  (4) 
-11.029999999999999

>  <m_primary>  (4) 
energy

$$$$
4:0
     RDKit          3D

 23 24  0  0  0  0  0  0  0  0999 V2000
   58.2120   33.7830   45.4950 C   0  0  0  0  0  0  0  0  0  0  0  0
   57.7340   32.6250   44.6860 C   0  0  0  0  0  0  0  0  0  0  0  0
   58.1130   32.3390   43.3890 C   0  0  0  0  0  0  0  0  0  0  0  0
   57.4130   31.2040   43.0380 C   0  0  0  0  0  0  0  0  0  0  0  0
   56.6550   30.8690   44.1470 C   0  0  0  0  0  0  0  0  0  0  0  0
   55.7160   29.7400   44.2590 C   0  0  0  0  0  0  0  0  0  0  0  0
   54.7700   29.6490   43.4330 O   0  0  0  0  0  0  0  0  0  0  0  0
   55.8780   28.7130   45.2420 N   0  0  0  0  0  0  0  0  0  0  0  0
   57.1030   28.0250   45.5180 C   0  0  0  0  0  0  0  0  0  0  0  0
   58.6380   28.7180   45.5660 S   0  0  0  0  0  0  0  0  0  0  0  0
   59.4430   27.3210   46.0520 C   0  0  0  0  0  0  0  0  0  0  0  0
   58.5100   26.3000   46.2000 C   0  0  0  0  0  0  0  0  0  0  0  0
   57.1980   26.6980   45.9110 C   0  0  0  0  0  0  0  0  0  0  0  0
   56.0670   25.8150   46.0170 C   0  0  0  0  0  0  0  0  0  0  0  0
   55.1590   25.1050   46.1020 N   0  0  0  0  0  0  0  0  0  0  0  0
   56.8620   31.7400   45.1080 O   0  0  0  0  0  0  0  0  0  0  0  0
   58.1149   33.5477   46.5651 H   0  0  0  0  0  0  0  0  0  0  0  0
   59.2671   33.9851   45.2583 H   0  0  0  0  0  0  0  0  0  0  0  0
   57.6067   34.6704   45.2583 H   0  0  0  0  0  0  0  0  0  0  0  0
   58.8250   32.8999   42.7658 H   0  0  0  0  0  0  0  0  0  0  0  0
   57.4494   30.6738   42.0749 H   0  0  0  0  0  0  0  0  0  0  0  0
   60.5258   27.2309   46.2237 H   0  0  0  0  0  0  0  0  0  0  0  0
   58.7762   25.2797   46.5133 H   0  0  0  0  0  0  0  0  0  0  0  0
  1  2  1  0
  2  3  2  0
  3  4  1  0
  4  5  2  0
  5  6  1  0
  6  7  2  0
  6  8  1  0
  8  9  1  0
  9 10  1  0
 10 11  1  0
 11 12  2  0
 12 13  1  0
 13 14  1  0
 14 15  3  0
  5 16  1  0
 16  2  1  0
 13  9  2  0
  1 17  1  0
  1 18  1  0
  1 19  1  0
  3 20  1  0
  4 21  1  0
 11 22  1  0
 12 23  1  0
M  CHG  1   8  -1
M  END
>  <UniqueID>  (5) 
4

>  <SMILES>  (5) 
Cc1ccc(C(=O)[N-]c2sccc2C#N)o1

>  <Energy>  (5) 
78.13353820311333

>  <Genealogy>  (5) 
Cc1ccc(C(=O)[N-]c2sccc2C#N)o1 (protonated)
Cc1ccc(C(=O)[N-]c2sccc2C#N)o1 (3D coordinates assigned)
Cc1ccc(C(=O)[N-]c2sccc2C#N)o1 (optimized conformer: 78.13353820311333 kcal/mol)

>  <smiles>  (5) 
Cc1ccc(C(=O)Nc2sccc2C#N)o1

>  <score_type>  (5) 
oracle

>  <origin>  (5) 
adg

>  <m_score__min__energy>  (5) 
-8.6500000000000004

>  <m_primary>  (5) 
energy

$$$$
5:0
     RDKit          3D

 38 40  0  0  0  0  0  0  0  0999 V2000
   58.8890   34.8240   44.8610 C   0  0  0  0  0  0  0  0  0  0  0  0
   57.7440   34.2200   45.6690 C   0  0  0  0  0  0  0  0  0  0  0  0
   58.0580   32.8420   46.0700 N   0  0  0  0  0  0  0  0  0  0  0  0
   58.5820   32.4120   47.2530 C   0  0  0  0  0  0  0  0  0  0  0  0
   58.9070   33.2810   48.4410 C   0  0  0  0  0  0  0  0  0  0  0  0
   59.7230   34.4330   48.0380 N   0  0  0  0  0  0  0  0  0  0  0  0
   61.1160   34.0640   48.0020 C   0  0  0  0  0  0  0  0  0  0  0  0
   61.8310   33.8680   49.1980 C   0  0  0  0  0  0  0  0  0  0  0  0
   63.1740   33.4800   49.1620 C   0  0  0  0  0  0  0  0  0  0  0  0
   63.8110   33.2760   47.9350 C   0  0  0  0  0  0  0  0  0  0  0  0
   63.1070   33.4570   46.7420 C   0  0  0  0  0  0  0  0  0  0  0  0
   61.7640   33.8440   46.7730 C   0  0  0  0  0  0  0  0  0  0  0  0
   58.7940   31.0360   47.2280 C   0  0  0  0  0  0  0  0  0  0  0  0
   58.3630   30.6250   45.9880 C   0  0  0  0  0  0  0  0  0  0  0  0
   58.3300   29.3510   45.4240 C   0  0  0  0  0  0  0  0  0  0  0  0
   57.8200   29.2220   44.1210 C   0  0  0  0  0  0  0  0  0  0  0  0
   57.3570   30.3570   43.4200 C   0  0  0  0  0  0  0  0  0  0  0  0
   57.4010   31.6300   44.0140 C   0  0  0  0  0  0  0  0  0  0  0  0
   57.9210   31.7340   45.3100 C   0  0  0  0  0  0  0  0  0  0  0  0
   59.6498   35.2253   45.5466 H   0  0  0  0  0  0  0  0  0  0  0  0
   59.3403   34.0466   44.2270 H   0  0  0  0  0  0  0  0  0  0  0  0
   58.5022   35.6354   44.2270 H   0  0  0  0  0  0  0  0  0  0  0  0
   57.5782   34.8288   46.5700 H   0  0  0  0  0  0  0  0  0  0  0  0
   56.8394   34.2075   45.0433 H   0  0  0  0  0  0  0  0  0  0  0  0
   57.9702   33.6424   48.8902 H   0  0  0  0  0  0  0  0  0  0  0  0
   59.4760   32.6839   49.1688 H   0  0  0  0  0  0  0  0  0  0  0  0
   59.4210   34.7680   47.0930 H   0  0  0  0  0  0  0  0  0  0  0  0
   59.5900   35.2180   48.7170 H   0  0  0  0  0  0  0  0  0  0  0  0
   61.3311   34.0207   50.1659 H   0  0  0  0  0  0  0  0  0  0  0  0
   63.7295   33.3352   50.1003 H   0  0  0  0  0  0  0  0  0  0  0  0
   64.8680   32.9725   47.9085 H   0  0  0  0  0  0  0  0  0  0  0  0
   63.6099   33.2948   45.7772 H   0  0  0  0  0  0  0  0  0  0  0  0
   61.2111   33.9772   45.8314 H   0  0  0  0  0  0  0  0  0  0  0  0
   59.2160   30.4111   48.0288 H   0  0  0  0  0  0  0  0  0  0  0  0
   58.6917   28.4742   45.9812 H   0  0  0  0  0  0  0  0  0  0  0  0
   57.7812   28.2314   43.6444 H   0  0  0  0  0  0  0  0  0  0  0  0
   56.9587   30.2439   42.4009 H   0  0  0  0  0  0  0  0  0  0  0  0
   57.0377   32.5184   43.4767 H   0  0  0  0  0  0  0  0  0  0  0  0
  1  2  1  0
  2  3  1  0
  3  4  1  0
  4  5  1  0
  5  6  1  0
  6  7  1  0
  7  8  2  0
  8  9  1  0
  9 10  2  0
 10 11  1  0
 11 12  2  0
  4 13  2  0
 13 14  1  0
 14 15  2  0
 15 16  1  0
 16 17  2  0
 17 18  1  0
 18 19  2  0
 19  3  1  0
 12  7  1  0
 19 14  1  0
  1 20  1  0
  1 21  1  0
  1 22  1  0
  2 23  1  0
  2 24  1  0
  5 25  1  0
  5 26  1  0
  6 27  1  0
  6 28  1  0
  8 29  1  0
  9 30  1  0
 10 31  1  0
 11 32  1  0
 12 33  1  0
 13 34  1  0
 15 35  1  0
 16 36  1  0
 17 37  1  0
 18 38  1  0
M  CHG  1   6   1
M  END
>  <UniqueID>  (6) 
5

>  <SMILES>  (6) 
CCn1c(C[NH2+]c2ccccc2)cc2ccccc21

>  <Energy>  (6) 
70.93687701823478

>  <Genealogy>  (6) 
CCn1c(C[NH2+]c2ccccc2)cc2ccccc21 (protonated)
CCn1c(C[NH2+]c2ccccc2)cc2ccccc21 (3D coordinates assigned)
CCn1c(C[NH2+]c2ccccc2)cc2ccccc21 (optimized conformer: 70.93687701823478 kcal/mol)

>  <smiles>  (6) 
CCn1c(CNc2ccccc2)cc2ccccc21

>  <score_type>  (6) 
oracle

>  <origin>  (6) 
adg

>  <m_score__min__energy>  (6) 
-5.6699999999999999

>  <m_primary>  (6) 
energy

$$$$
6:0
     RDKit          3D

 34 35  0  0  0  0  0  0  0  0999 V2000
   58.0540   27.0570   42.7230 C   0  0  0  0  0  0  0  0  0  0  0  0
   57.8780   28.0380   43.8760 C   0  0  0  0  0  0  0  0  0  0  0  0
   56.9940   29.0960   43.5080 O   0  0  0  0  0  0  0  0  0  0  0  0
   56.2240   29.8110   44.4310 C   0  0  0  0  0  0  0  0  0  0  0  0
   55.1450   29.3340   44.8770 O   0  0  0  0  0  0  0  0  0  0  0  0
   56.6850   31.0900   44.8740 N   0  0  0  0  0  0  0  0  0  0  0  0
   57.7740   31.8230   44.2360 C   0  0  0  0  0  0  0  0  0  0  0  0
   58.5460   32.6300   45.2560 C   0  0  0  0  0  0  0  0  0  0  0  0
   58.4970   34.0350   45.1910 C   0  0  0  0  0  0  0  0  0  0  0  0
   59.1580   34.8140   46.1430 C   0  0  0  0  0  0  0  0  0  0  0  0
   59.8710   34.2050   47.1740 C   0  0  0  0  0  0  0  0  0  0  0  0
   59.9320   32.8120   47.2550 C   0  0  0  0  0  0  0  0  0  0  0  0
   59.2850   32.0130   46.2990 C   0  0  0  0  0  0  0  0  0  0  0  0
   59.3780   30.5440   46.4270 C   0  0  0  0  0  0  0  0  0  0  0  0
   58.5520   29.8590   47.3280 C   0  0  0  0  0  0  0  0  0  0  0  0
   58.6490   28.4710   47.4460 C   0  0  0  0  0  0  0  0  0  0  0  0
   59.5810   27.7830   46.6670 C   0  0  0  0  0  0  0  0  0  0  0  0
   60.3860   28.4620   45.8070 N   0  0  0  0  0  0  0  0  0  0  0  0
   60.3070   29.8130   45.6720 C   0  0  0  0  0  0  0  0  0  0  0  0
   58.2349   26.0487   43.1238 H   0  0  0  0  0  0  0  0  0  0  0  0
   57.1430   27.0485   42.1065 H   0  0  0  0  0  0  0  0  0  0  0  0
   58.9111   27.3657   42.1065 H   0  0  0  0  0  0  0  0  0  0  0  0
   57.4615   27.5048   44.7433 H   0  0  0  0  0  0  0  0  0  0  0  0
   58.8588   28.4681   44.1271 H   0  0  0  0  0  0  0  0  0  0  0  0
   58.4549   31.1080   43.7511 H   0  0  0  0  0  0  0  0  0  0  0  0
   57.3480   32.5106   43.4906 H   0  0  0  0  0  0  0  0  0  0  0  0
   57.9330   34.5239   44.3830 H   0  0  0  0  0  0  0  0  0  0  0  0
   59.1158   35.9113   46.0790 H   0  0  0  0  0  0  0  0  0  0  0  0
   60.3863   34.8221   47.9248 H   0  0  0  0  0  0  0  0  0  0  0  0
   60.4915   32.3371   48.0744 H   0  0  0  0  0  0  0  0  0  0  0  0
   57.8276   30.4143   47.9420 H   0  0  0  0  0  0  0  0  0  0  0  0
   57.9981   27.9256   48.1452 H   0  0  0  0  0  0  0  0  0  0  0  0
   59.6643   26.6892   46.7491 H   0  0  0  0  0  0  0  0  0  0  0  0
   60.9735   30.3339   44.9688 H   0  0  0  0  0  0  0  0  0  0  0  0
  1  2  1  0
  2  3  1  0
  3  4  1  0
  4  5  2  0
  4  6  1  0
  6  7  1  0
  7  8  1  0
  8  9  2  0
  9 10  1  0
 10 11  2  0
 11 12  1  0
 12 13  2  0
 13 14  1  0
 14 15  2  0
 15 16  1  0
 16 17  2  0
 17 18  1  0
 18 19  2  0
 13  8  1  0
 19 14  1  0
  1 20  1  0
  1 21  1  0
  1 22  1  0
  2 23  1  0
  2 24  1  0
  7 25  1  0
  7 26  1  0
  9 27  1  0
 10 28  1  0
 11 29  1  0
 12 30  1  0
 15 31  1  0
 16 32  1  0
 17 33  1  0
 19 34  1  0
M  CHG  1   6  -1
M  END
>  <UniqueID>  (7) 
6

>  <SMILES>  (7) 
CCOC(=O)[N-]Cc1ccccc1-c1cccnc1

>  <Energy>  (7) 
36.76794077194938

>  <Genealogy>  (7) 
CCOC(=O)[N-]Cc1ccccc1-c1cccnc1 (protonated)
CCOC(=O)[N-]Cc1ccccc1-c1cccnc1 (3D coordinates assigned)
CCOC(=O)[N-]Cc1ccccc1-c1cccnc1 (optimized conformer: 36.76794077194938 kcal/mol)

>  <smiles>  (7) 
CCOC(=O)NCc1ccccc1-c1cccnc1

>  <score_type>  (7) 
oracle

>  <origin>  (7) 
adg

>  <m_score__min__energy>  (7) 
-8.0999999999999996

>  <m_primary>  (7) 
energy

$$$$
7:0
     RDKit          3D

 23 24  0  0  0  0  0  0  0  0999 V2000
   59.7140   34.5047   45.7571 H   0  0  0  0  0  0  0  0  0  0  0  0
   58.9090   33.7750   45.5850 C   0  0  0  0  0  0  0  0  0  0  0  0
   59.0140   32.4000   45.6530 C   0  0  0  0  0  0  0  0  0  0  0  0
   59.9168   31.8173   45.8883 H   0  0  0  0  0  0  0  0  0  0  0  0
   57.7570   31.9030   45.3660 C   0  0  0  0  0  0  0  0  0  0  0  0
   57.3940   30.4800   45.3220 C   0  0  0  0  0  0  0  0  0  0  0  0
   56.1440   30.0350   45.0570 N   0  0  0  0  0  0  0  0  0  0  0  0
   56.0470   28.7060   45.0690 N   0  0  0  0  0  0  0  0  0  0  0  0
   55.1470   28.2110   44.8840 H   0  0  0  0  0  0  0  0  0  0  0  0
   57.2120   28.0810   45.3400 C   0  0  0  0  0  0  0  0  0  0  0  0
   57.3150   26.7870   45.4030 N   0  0  0  0  0  0  0  0  0  0  0  0
   57.7580   25.9240   44.3090 C   0  0  0  0  0  0  0  0  0  0  0  0
   56.9658   25.1960   44.0802 H   0  0  0  0  0  0  0  0  0  0  0  0
   58.6767   25.4044   44.6189 H   0  0  0  0  0  0  0  0  0  0  0  0
   58.0580   26.7460   43.0600 C   0  0  0  0  0  0  0  0  0  0  0  0
   58.4213   27.7415   43.3548 H   0  0  0  0  0  0  0  0  0  0  0  0
   58.8282   26.2368   42.4622 H   0  0  0  0  0  0  0  0  0  0  0  0
   57.1408   26.8526   42.4622 H   0  0  0  0  0  0  0  0  0  0  0  0
   58.4580   29.1950   45.5900 S   0  0  0  0  0  0  0  0  0  0  0  0
   56.8990   32.9130   45.1260 N   0  0  0  0  0  0  0  0  0  0  0  0
   55.8870   32.8370   44.8840 H   0  0  0  0  0  0  0  0  0  0  0  0
   57.5970   34.0560   45.2590 C   0  0  0  0  0  0  0  0  0  0  0  0
   57.1828   35.0665   45.1272 H   0  0  0  0  0  0  0  0  0  0  0  0
  1  2  1  0
  2  3  1  0
  3  4  1  0
  3  5  2  0
  5  6  1  0
  6  7  2  0
  7  8  1  0
  8  9  1  0
  8 10  1  0
 10 11  2  0
 11 12  1  0
 12 13  1  0
 12 14  1  0
 12 15  1  0
 15 16  1  0
 15 17  1  0
 15 18  1  0
 10 19  1  0
  5 20  1  0
 20 21  1  0
 20 22  1  0
 22 23  1  0
 22  2  2  0
 19  6  1  0
M  END
>  <UniqueID>  (8) 
7

>  <SMILES>  (8) 
CC/N=c1/[nH]nc(-c2ccc[nH]2)s1

>  <Energy>  (8) 
78.73454234776426

>  <Genealogy>  (8) 
CC/N=c1/[nH]nc(-c2ccc[nH]2)s1 (cis-trans isomerization)
CC/N=c1/[nH]nc(-c2ccc[nH]2)s1 (3D coordinates assigned)
CC/N=c1/[nH]nc(-c2ccc[nH]2)s1 (optimized conformer: 78.73454234776426 kcal/mol)

>  <smiles>  (8) 
CCN=c1[nH]nc(-c2ccc[nH]2)s1

>  <score_type>  (8) 
oracle

>  <origin>  (8) 
adg

>  <m_score__min__energy>  (8) 
-5.4699999999999998

>  <m_primary>  (8) 
energy

$$$$
8:0
     RDKit          3D

 58 62  0  0  0  0  0  0  0  0999 V2000
   64.0570   34.1760   51.3120 C   0  0  0  0  0  0  0  0  0  0  0  0
   64.1010   33.6960   49.9730 O   0  0  0  0  0  0  0  0  0  0  0  0
   62.9880   33.7200   49.1290 C   0  0  0  0  0  0  0  0  0  0  0  0
   63.1390   33.3710   47.7900 C   0  0  0  0  0  0  0  0  0  0  0  0
   62.0220   33.3490   46.9510 C   0  0  0  0  0  0  0  0  0  0  0  0
   60.7610   33.6960   47.4550 C   0  0  0  0  0  0  0  0  0  0  0  0
   59.5520   33.5820   46.6090 C   0  0  0  0  0  0  0  0  0  0  0  0
   58.6340   32.5380   46.5920 C   0  0  0  0  0  0  0  0  0  0  0  0
   58.7050   31.2580   47.3270 C   0  0  0  0  0  0  0  0  0  0  0  0
   58.6220   30.0270   46.6660 C   0  0  0  0  0  0  0  0  0  0  0  0
   58.8230   28.8420   47.3950 C   0  0  0  0  0  0  0  0  0  0  0  0
   58.9010   27.5490   46.7450 N   0  0  0  0  0  0  0  0  0  0  0  0
   60.0800   26.6870   46.9540 C   0  0  0  0  0  0  0  0  0  0  0  0
   60.0840   25.4640   46.0390 C   0  0  0  0  0  0  0  0  0  0  0  0
   58.8070   24.8720   45.9950 O   0  0  0  0  0  0  0  0  0  0  0  0
   57.9190   25.7350   45.3150 C   0  0  1  0  0  0  0  0  0  0  0  0
   56.6160   25.0120   45.0960 C   0  0  0  0  0  0  0  0  0  0  0  0
   56.5070   24.0020   44.1270 C   0  0  0  0  0  0  0  0  0  0  0  0
   55.2750   23.3770   43.9270 C   0  0  0  0  0  0  0  0  0  0  0  0
   54.1650   23.7710   44.6770 C   0  0  0  0  0  0  0  0  0  0  0  0
   54.3050   24.7910   45.6200 C   0  0  0  0  0  0  0  0  0  0  0  0
   55.5120   25.3850   45.8050 N   0  0  0  0  0  0  0  0  0  0  0  0
   57.6730   27.0200   46.1290 C   0  0  0  0  0  0  0  0  0  0  0  0
   59.0070   28.9320   48.7430 N   0  0  0  0  0  0  0  0  0  0  0  0
   59.0220   30.1270   49.3830 C   0  0  0  0  0  0  0  0  0  0  0  0
   59.1890   30.1830   50.8660 C   0  0  0  0  0  0  0  0  0  0  0  0
   58.8760   31.2780   48.6740 N   0  0  0  0  0  0  0  0  0  0  0  0
   57.5840   32.8780   45.8140 N   0  0  0  0  0  0  0  0  0  0  0  0
   57.8850   34.1120   45.3570 C   0  0  0  0  0  0  0  0  0  0  0  0
   59.0700   34.5630   45.8200 N   0  0  0  0  0  0  0  0  0  0  0  0
   59.6430   35.8870   45.5860 C   0  0  0  0  0  0  0  0  0  0  0  0
   60.6550   34.0800   48.8020 C   0  0  0  0  0  0  0  0  0  0  0  0
   61.7570   34.0710   49.5960 N   0  0  0  0  0  0  0  0  0  0  0  0
   64.1347   33.3280   52.0083 H   0  0  0  0  0  0  0  0  0  0  0  0
   64.8955   34.8675   51.4814 H   0  0  0  0  0  0  0  0  0  0  0  0
   63.1067   34.7035   51.4814 H   0  0  0  0  0  0  0  0  0  0  0  0
   64.1327   33.1138   47.3944 H   0  0  0  0  0  0  0  0  0  0  0  0
   62.1322   33.0595   45.8955 H   0  0  0  0  0  0  0  0  0  0  0  0
   58.4021   29.9873   45.5889 H   0  0  0  0  0  0  0  0  0  0  0  0
   60.9871   27.2772   46.7570 H   0  0  0  0  0  0  0  0  0  0  0  0
   60.0482   26.3256   47.9925 H   0  0  0  0  0  0  0  0  0  0  0  0
   60.3740   25.7732   45.0240 H   0  0  0  0  0  0  0  0  0  0  0  0
   60.8014   24.7292   46.4333 H   0  0  0  0  0  0  0  0  0  0  0  0
   58.3615   26.0220   44.3497 H   0  0  0  0  0  0  0  0  0  0  0  0
   57.3833   23.7062   43.5316 H   0  0  0  0  0  0  0  0  0  0  0  0
   55.1787   22.5755   43.1798 H   0  0  0  0  0  0  0  0  0  0  0  0
   53.1907   23.2830   44.5265 H   0  0  0  0  0  0  0  0  0  0  0  0
   53.4369   25.1137   46.2135 H   0  0  0  0  0  0  0  0  0  0  0  0
   57.2578   27.7867   45.4584 H   0  0  0  0  0  0  0  0  0  0  0  0
   56.9763   26.7686   46.9423 H   0  0  0  0  0  0  0  0  0  0  0  0
   58.2536   29.8693   51.3524 H   0  0  0  0  0  0  0  0  0  0  0  0
   60.0038   29.5089   51.1690 H   0  0  0  0  0  0  0  0  0  0  0  0
   59.4327   31.2120   51.1690 H   0  0  0  0  0  0  0  0  0  0  0  0
   57.2354   34.6873   44.6810 H   0  0  0  0  0  0  0  0  0  0  0  0
   59.8527   36.3715   46.5510 H   0  0  0  0  0  0  0  0  0  0  0  0
   60.5780   35.7862   45.0154 H   0  0  0  0  0  0  0  0  0  0  0  0
   58.9295   36.4997   45.0154 H   0  0  0  0  0  0  0  0  0  0  0  0
   59.6819   34.3872   49.2128 H   0  0  0  0  0  0  0  0  0  0  0  0
  1  2  1  0
  2  3  1  0
  3  4  2  0
  4  5  1  0
  5  6  2  0
  6  7  1  0
  7  8  2  0
  8  9  1  0
  9 10  2  0
 10 11  1  0
 11 12  1  0
 12 13  1  0
 13 14  1  0
 14 15  1  0
 15 16  1  0
 16 17  1  0
 17 18  2  0
 18 19  1  0
 19 20  2  0
 20 21  1  0
 21 22  2  0
 16 23  1  0
 11 24  2  0
 24 25  1  0
 25 26  1  0
 25 27  2  0
  8 28  1  0
 28 29  2  0
 29 30  1  0
 30 31  1  0
  6 32  1  0
 32 33  2  0
 33  3  1  0
 30  7  1  0
 27  9  1  0
 23 12  1  0
 22 17  1  0
  1 34  1  0
  1 35  1  0
  1 36  1  0
  4 37  1  0
  5 38  1  0
 10 39  1  0
 13 40  1  0
 13 41  1  0
 14 42  1  0
 14 43  1  0
 16 44  1  6
 18 45  1  0
 19 46  1  0
 20 47  1  0
 21 48  1  0
 23 49  1  0
 23 50  1  0
 26 51  1  0
 26 52  1  0
 26 53  1  0
 29 54  1  0
 31 55  1  0
 31 56  1  0
 31 57  1  0
 32 58  1  0
M  END
>  <UniqueID>  (9) 
8

>  <SMILES>  (9) 
COc1ccc(-c2c(-c3cc(N4CCO[C@@H](c5ccccn5)C4)nc(C)n3)ncn2C)cn1

>  <Energy>  (9) 
104.24970879504504

>  <Genealogy>  (9) 
COc1ccc(-c2c(-c3cc(N4CCO[C@@H](c5ccccn5)C4)nc(C)n3)ncn2C)cn1 (chirality)
COc1ccc(-c2c(-c3cc(N4CCO[C@@H](c5ccccn5)C4)nc(C)n3)ncn2C)cn1 (3D coordinates assigned)
COc1ccc(-c2c(-c3cc(N4CCO[C@@H](c5ccccn5)C4)nc(C)n3)ncn2C)cn1 (nonaromatic ring conformer: 104.24970879504504 kcal/mol)

>  <smiles>  (9) 
COc1ccc(-c2c(-c3cc(N4CCOC(c5ccccn5)C4)nc(C)n3)ncn2C)cn1

>  <score_type>  (9) 
oracle

>  <origin>  (9) 
adg

>  <m_score__min__energy>  (9) 
-8.2799999999999994

>  <m_primary>  (9) 
energy

$$$$
9:0
     RDKit          3D

 48 52  0  0  0  0  0  0  0  0999 V2000
   55.2970   29.9930   43.4800 O   0  0  0  0  0  0  0  0  0  0  0  0
   56.0160   29.7460   44.4840 C   0  0  0  0  0  0  0  0  0  0  0  0
   55.7560   28.5550   45.2380 N   0  0  0  0  0  0  0  0  0  0  0  0
   56.7040   27.5190   45.5380 C   0  0  0  0  0  0  0  0  0  0  0  0
   56.3110   26.4620   46.3700 C   0  0  0  0  0  0  0  0  0  0  0  0
   57.2070   25.4300   46.6700 C   0  0  0  0  0  0  0  0  0  0  0  0
   58.4930   25.4400   46.1270 C   0  0  0  0  0  0  0  0  0  0  0  0
   58.8860   26.4780   45.2770 C   0  0  0  0  0  0  0  0  0  0  0  0
   57.9930   27.5110   44.9750 C   0  0  0  0  0  0  0  0  0  0  0  0
   57.0660   30.7130   44.8790 C   0  0  0  0  0  0  0  0  0  0  0  0
   57.2110   31.9460   44.1890 C   0  0  0  0  0  0  0  0  0  0  0  0
   58.2140   32.8600   44.5520 C   0  0  0  0  0  0  0  0  0  0  0  0
   59.0580   32.5200   45.6070 C   0  0  0  0  0  0  0  0  0  0  0  0
   60.0880   33.2380   46.0820 N   0  0  0  0  0  0  0  0  0  0  0  0
   60.6250   32.5080   47.0890 C   0  0  0  0  0  0  0  0  0  0  0  0
   61.7660   32.9810   47.9040 C   0  0  0  0  0  0  0  0  0  0  0  0
   63.0840   32.6160   47.5850 C   0  0  0  0  0  0  0  0  0  0  0  0
   64.1380   33.0730   48.3780 C   0  0  0  0  0  0  0  0  0  0  0  0
   63.8880   33.8560   49.4600 N   0  0  0  0  0  0  0  0  0  0  0  0
   62.6220   34.2150   49.8020 C   0  0  0  0  0  0  0  0  0  0  0  0
   61.5390   33.7790   49.0340 C   0  0  0  0  0  0  0  0  0  0  0  0
   59.9220   31.3050   47.2440 C   0  0  0  0  0  0  0  0  0  0  0  0
   60.2310   30.1850   48.1600 C   0  0  0  0  0  0  0  0  0  0  0  0
   60.1710   28.8580   47.7020 C   0  0  0  0  0  0  0  0  0  0  0  0
   60.4570   27.8000   48.5710 C   0  0  0  0  0  0  0  0  0  0  0  0
   60.8030   28.0600   49.9000 C   0  0  0  0  0  0  0  0  0  0  0  0
   60.8650   29.3770   50.3620 C   0  0  0  0  0  0  0  0  0  0  0  0
   60.5810   30.4380   49.4960 C   0  0  0  0  0  0  0  0  0  0  0  0
   58.9250   31.3360   46.2840 C   0  0  0  0  0  0  0  0  0  0  0  0
   57.9540   30.3980   45.9330 C   0  0  0  0  0  0  0  0  0  0  0  0
   55.2941   26.4436   46.7889 H   0  0  0  0  0  0  0  0  0  0  0  0
   56.8977   24.6098   47.3345 H   0  0  0  0  0  0  0  0  0  0  0  0
   59.1977   24.6305   46.3681 H   0  0  0  0  0  0  0  0  0  0  0  0
   59.8979   26.4822   44.8456 H   0  0  0  0  0  0  0  0  0  0  0  0
   58.2995   28.3196   44.2952 H   0  0  0  0  0  0  0  0  0  0  0  0
   56.5295   32.1881   43.3602 H   0  0  0  0  0  0  0  0  0  0  0  0
   58.3296   33.8154   44.0193 H   0  0  0  0  0  0  0  0  0  0  0  0
   60.3970   34.1800   45.7510 H   0  0  0  0  0  0  0  0  0  0  0  0
   63.2847   31.9735   46.7150 H   0  0  0  0  0  0  0  0  0  0  0  0
   65.1731   32.7987   48.1264 H   0  0  0  0  0  0  0  0  0  0  0  0
   62.4501   34.8493   50.6841 H   0  0  0  0  0  0  0  0  0  0  0  0
   60.5134   34.0606   49.3148 H   0  0  0  0  0  0  0  0  0  0  0  0
   59.8982   28.6506   46.6567 H   0  0  0  0  0  0  0  0  0  0  0  0
   60.4096   26.7626   48.2082 H   0  0  0  0  0  0  0  0  0  0  0  0
   61.0267   27.2270   50.5827 H   0  0  0  0  0  0  0  0  0  0  0  0
   61.1375   29.5798   51.4082 H   0  0  0  0  0  0  0  0  0  0  0  0
   60.6320   31.4738   49.8627 H   0  0  0  0  0  0  0  0  0  0  0  0
   57.8810   29.4370   46.4632 H   0  0  0  0  0  0  0  0  0  0  0  0
  1  2  2  0
  2  3  1  0
  3  4  1  0
  4  5  2  0
  5  6  1  0
  6  7  2  0
  7  8  1  0
  8  9  2  0
  2 10  1  0
 10 11  2  0
 11 12  1  0
 12 13  2  0
 13 14  1  0
 14 15  1  0
 15 16  1  0
 16 17  2  0
 17 18  1  0
 18 19  2  0
 19 20  1  0
 20 21  2  0
 15 22  2  0
 22 23  1  0
 23 24  2  0
 24 25  1  0
 25 26  2  0
 26 27  1  0
 27 28  2  0
 22 29  1  0
 29 30  2  0
  9  4  1  0
 30 10  1  0
 29 13  1  0
 21 16  1  0
 28 23  1  0
  5 31  1  0
  6 32  1  0
  7 33  1  0
  8 34  1  0
  9 35  1  0
 11 36  1  0
 12 37  1  0
 14 38  1  0
 17 39  1  0
 18 40  1  0
 20 41  1  0
 21 42  1  0
 24 43  1  0
 25 44  1  0
 26 45  1  0
 27 46  1  0
 28 47  1  0
 30 48  1  0
M  CHG  1   3  -1
M  END
>  <UniqueID>  (10) 
9

>  <SMILES>  (10) 
O=C([N-]c1ccccc1)c1ccc2[nH]c(-c3ccncc3)c(-c3ccccc3)c2c1

>  <Energy>  (10) 
104.30117745660428

>  <Genealogy>  (10) 
O=C([N-]c1ccccc1)c1ccc2[nH]c(-c3ccncc3)c(-c3ccccc3)c2c1 (protonated)
O=C([N-]c1ccccc1)c1ccc2[nH]c(-c3ccncc3)c(-c3ccccc3)c2c1 (3D coordinates assigned)
O=C([N-]c1ccccc1)c1ccc2[nH]c(-c3ccncc3)c(-c3ccccc3)c2c1 (optimized conformer: 104.30117745660428 kcal/mol)

>  <smiles>  (10) 
O=C(Nc1ccccc1)c1ccc2[nH]c(-c3ccncc3)c(-c3ccccc3)c2c1

>  <score_type>  (10) 
oracle

>  <origin>  (10) 
adg

>  <m_score__min__energy>  (10) 
-11.02

>  <m_primary>  (10) 
energy

$$$$
10:0
     RDKit          3D

 33 35  0  0  0  0  0  0  0  0999 V2000
   55.8810   30.8250   52.0100 C   0  0  0  0  0  0  0  0  0  0  0  0
   57.5420   31.4650   52.3530 S   0  0  0  0  0  0  0  0  0  0  0  0
   58.3630   31.9960   50.8630 C   0  0  0  0  0  0  0  0  0  0  0  0
   59.7160   32.1050   50.7130 N   0  0  0  0  0  0  0  0  0  0  0  0
   59.9830   32.5310   49.4650 C   0  0  0  0  0  0  0  0  0  0  0  0
   61.3190   32.7720   48.9110 C   0  0  0  0  0  0  0  0  0  0  0  0
   61.6520   31.9960   47.8000 C   0  0  0  0  0  0  0  0  0  0  0  0
   62.8960   32.1360   47.1840 C   0  0  0  0  0  0  0  0  0  0  0  0
   63.7720   33.0680   47.7170 C   0  0  0  0  0  0  0  0  0  0  0  0
   63.4220   33.8340   48.8240 C   0  0  0  0  0  0  0  0  0  0  0  0
   62.1910   33.6980   49.4390 C   0  0  0  0  0  0  0  0  0  0  0  0
   58.7530   32.6770   48.8600 C   0  0  0  0  0  0  0  0  0  0  0  0
   58.5740   33.1290   47.4770 C   0  0  0  0  0  0  0  0  0  0  0  0
   59.1580   34.3560   47.1570 C   0  0  0  0  0  0  0  0  0  0  0  0
   59.0610   34.8890   45.8950 C   0  0  0  0  0  0  0  0  0  0  0  0
   58.3610   34.1590   44.9540 C   0  0  0  0  0  0  0  0  0  0  0  0
   57.7840   32.9470   45.2700 C   0  0  0  0  0  0  0  0  0  0  0  0
   57.8800   32.4100   46.5370 C   0  0  0  0  0  0  0  0  0  0  0  0
   57.7600   32.3520   49.7080 N   0  0  0  0  0  0  0  0  0  0  0  0
   55.3619   30.6250   52.9590 H   0  0  0  0  0  0  0  0  0  0  0  0
   55.3137   31.5689   51.4314 H   0  0  0  0  0  0  0  0  0  0  0  0
   55.9595   29.8927   51.4314 H   0  0  0  0  0  0  0  0  0  0  0  0
   60.9275   31.2677   47.4066 H   0  0  0  0  0  0  0  0  0  0  0  0
   63.1710   31.5295   46.3084 H   0  0  0  0  0  0  0  0  0  0  0  0
   64.7616   33.2045   47.2566 H   0  0  0  0  0  0  0  0  0  0  0  0
   64.1418   34.5656   49.2198 H   0  0  0  0  0  0  0  0  0  0  0  0
   61.9191   34.3052   50.3150 H   0  0  0  0  0  0  0  0  0  0  0  0
   59.7082   34.9083   47.9331 H   0  0  0  0  0  0  0  0  0  0  0  0
   59.5212   35.8561   45.6441 H   0  0  0  0  0  0  0  0  0  0  0  0
   58.2618   34.5526   43.9316 H   0  0  0  0  0  0  0  0  0  0  0  0
   57.2341   32.3953   44.4933 H   0  0  0  0  0  0  0  0  0  0  0  0
   57.4180   31.4428   46.7841 H   0  0  0  0  0  0  0  0  0  0  0  0
   56.7230   32.3540   49.5610 H   0  0  0  0  0  0  0  0  0  0  0  0
  1  2  1  0
  2  3  1  0
  3  4  2  0
  4  5  1  0
  5  6  1  0
  6  7  2  0
  7  8  1  0
  8  9  2  0
  9 10  1  0
 10 11  2  0
  5 12  2  0
 12 13  1  0
 13 14  2  0
 14 15  1  0
 15 16  2  0
 16 17  1  0
 17 18  2  0
 12 19  1  0
 19  3  1  0
 11  6  1  0
 18 13  1  0
  1 20  1  0
  1 21  1  0
  1 22  1  0
  7 23  1  0
  8 24  1  0
  9 25  1  0
 10 26  1  0
 11 27  1  0
 14 28  1  0
 15 29  1  0
 16 30  1  0
 17 31  1  0
 18 32  1  0
 19 33  1  0
M  END
>  <smiles>  (11) 
CSc1nc(-c2ccccc2)c(-c2ccccc2)[nH]1

>  <score_type>  (11) 
oracle

>  <origin>  (11) 
adg

>  <m_score__min__energy>  (11) 
-6.6799999999999997

>  <m_primary>  (11) 
energy

$$$$
11:0
     RDKit          3D

 27 28  0  0  0  0  0  0  0  0999 V2000
   56.7090   26.3970   46.0240 C   0  0  0  0  0  0  0  0  0  0  0  0
   55.9500   27.5320   45.6230 O   0  0  0  0  0  0  0  0  0  0  0  0
   56.4980   28.6840   45.0380 C   0  0  0  0  0  0  0  0  0  0  0  0
   55.6250   29.6310   44.4890 C   0  0  0  0  0  0  0  0  0  0  0  0
   56.1220   30.7960   43.8950 C   0  0  0  0  0  0  0  0  0  0  0  0
   57.5010   31.0240   43.8490 C   0  0  0  0  0  0  0  0  0  0  0  0
   58.1380   32.5200   43.0930 S   0  0  0  0  0  0  0  0  0  0  0  0
   58.4160   33.3140   44.6770 C   0  0  0  0  0  0  0  0  0  0  0  0
   57.6670   32.9280   45.7960 C   0  0  0  0  0  0  0  0  0  0  0  0
   57.8800   33.5500   47.0310 C   0  0  0  0  0  0  0  0  0  0  0  0
   58.8460   34.5550   47.1490 C   0  0  0  0  0  0  0  0  0  0  0  0
   59.5980   34.9380   46.0350 C   0  0  0  0  0  0  0  0  0  0  0  0
   59.3850   34.3170   44.8000 C   0  0  0  0  0  0  0  0  0  0  0  0
   58.3830   30.0820   44.3890 C   0  0  0  0  0  0  0  0  0  0  0  0
   57.8870   28.9170   44.9840 C   0  0  0  0  0  0  0  0  0  0  0  0
   56.7421   26.3475   47.1224 H   0  0  0  0  0  0  0  0  0  0  0  0
   56.2392   25.4838   45.6298 H   0  0  0  0  0  0  0  0  0  0  0  0
   57.7324   26.4824   45.6298 H   0  0  0  0  0  0  0  0  0  0  0  0
   54.5394   29.4575   44.5250 H   0  0  0  0  0  0  0  0  0  0  0  0
   55.4281   31.5327   43.4641 H   0  0  0  0  0  0  0  0  0  0  0  0
   56.9104   32.1349   45.7036 H   0  0  0  0  0  0  0  0  0  0  0  0
   57.2885   33.2491   47.9083 H   0  0  0  0  0  0  0  0  0  0  0  0
   59.0139   35.0444   48.1197 H   0  0  0  0  0  0  0  0  0  0  0  0
   60.3576   35.7280   46.1295 H   0  0  0  0  0  0  0  0  0  0  0  0
   59.9794   34.6170   43.9244 H   0  0  0  0  0  0  0  0  0  0  0  0
   59.4680   30.2575   44.3457 H   0  0  0  0  0  0  0  0  0  0  0  0
   58.5834   28.1804   45.4111 H   0  0  0  0  0  0  0  0  0  0  0  0
  1  2  1  0
  2  3  1  0
  3  4  2  0
  4  5  1  0
  5  6  2  0
  6  7  1  0
  7  8  1  0
  8  9  2  0
  9 10  1  0
 10 11  2  0
 11 12  1  0
 12 13  2  0
  6 14  1  0
 14 15  2  0
 15  3  1  0
 13  8  1  0
  1 16  1  0
  1 17  1  0
  1 18  1  0
  4 19  1  0
  5 20  1  0
  9 21  1  0
 10 22  1  0
 11 23  1  0
 12 24  1  0
 13 25  1  0
 14 26  1  0
 15 27  1  0
M  END
>  <UniqueID>  (12) 
10

>  <SMILES>  (12) 
COc1ccc(Sc2ccccc2)cc1

>  <Energy>  (12) 
22.26472553779

>  <Genealogy>  (12) 
COc1ccc(Sc2ccccc2)cc1 (3D coordinates assigned)
COc1ccc(Sc2ccccc2)cc1 (optimized conformer: 22.26472553779 kcal/mol)

>  <smiles>  (12) 
COc1ccc(Sc2ccccc2)cc1

>  <score_type>  (12) 
oracle

>  <origin>  (12) 
adg

>  <m_score__min__energy>  (12) 
-6.5199999999999996

>  <m_primary>  (12) 
energy

$$$$
12:0
     RDKit          3D

 38 41  0  0  0  0  0  0  0  0999 V2000
   59.7860   34.1000   44.7910 O   0  0  0  0  0  0  0  0  0  0  0  0
   59.7310   34.6010   46.2080 S   0  0  0  0  0  0  0  0  0  0  0  0
   59.7280   36.1040   46.1770 O   0  0  0  0  0  0  0  0  0  0  0  0
   61.1610   34.0690   47.0890 C   0  0  0  0  0  0  0  0  0  0  0  0
   62.2310   33.4900   46.3910 C   0  0  0  0  0  0  0  0  0  0  0  0
   63.3790   33.0810   47.0780 C   0  0  0  0  0  0  0  0  0  0  0  0
   63.4650   33.2530   48.4620 C   0  0  0  0  0  0  0  0  0  0  0  0
   62.4030   33.8340   49.1620 C   0  0  0  0  0  0  0  0  0  0  0  0
   61.2530   34.2430   48.4790 C   0  0  0  0  0  0  0  0  0  0  0  0
   58.2750   34.0390   47.0020 N   0  0  0  0  0  0  0  0  0  0  0  0
   58.5480   32.9980   48.0250 C   0  0  0  0  0  0  0  0  0  0  0  0
   59.0530   31.6640   47.4290 C   0  0  0  0  0  0  0  0  0  0  0  0
   58.2640   31.3260   46.2080 C   0  0  0  0  0  0  0  0  0  0  0  0
   57.4870   32.2340   45.5210 C   0  0  0  0  0  0  0  0  0  0  0  0
   56.9440   31.6800   44.4140 N   0  0  0  0  0  0  0  0  0  0  0  0
   57.4120   30.4170   44.3880 C   0  0  0  0  0  0  0  0  0  0  0  0
   57.1600   29.4410   43.4250 C   0  0  0  0  0  0  0  0  0  0  0  0
   57.7710   28.1840   43.5860 C   0  0  0  0  0  0  0  0  0  0  0  0
   58.6140   27.9320   44.6920 C   0  0  0  0  0  0  0  0  0  0  0  0
   58.8540   28.9340   45.6500 C   0  0  0  0  0  0  0  0  0  0  0  0
   58.2300   30.1670   45.4660 C   0  0  0  0  0  0  0  0  0  0  0  0
   57.2460   33.6270   46.0190 C   0  0  0  0  0  0  0  0  0  0  0  0
   62.1673   33.3572   45.3009 H   0  0  0  0  0  0  0  0  0  0  0  0
   64.2147   32.6236   46.5281 H   0  0  0  0  0  0  0  0  0  0  0  0
   64.3683   32.9313   49.0010 H   0  0  0  0  0  0  0  0  0  0  0  0
   62.4721   33.9696   50.2514 H   0  0  0  0  0  0  0  0  0  0  0  0
   60.4197   34.7015   49.0316 H   0  0  0  0  0  0  0  0  0  0  0  0
   59.3125   33.3817   48.7166 H   0  0  0  0  0  0  0  0  0  0  0  0
   57.5952   32.7853   48.5320 H   0  0  0  0  0  0  0  0  0  0  0  0
   60.1155   31.7622   47.1618 H   0  0  0  0  0  0  0  0  0  0  0  0
   58.9310   30.8637   48.1738 H   0  0  0  0  0  0  0  0  0  0  0  0
   56.3060   32.1370   43.7250 H   0  0  0  0  0  0  0  0  0  0  0  0
   56.5041   29.6472   42.5663 H   0  0  0  0  0  0  0  0  0  0  0  0
   57.5912   27.3910   42.8452 H   0  0  0  0  0  0  0  0  0  0  0  0
   59.0861   26.9449   44.8047 H   0  0  0  0  0  0  0  0  0  0  0  0
   59.5106   28.7511   46.5134 H   0  0  0  0  0  0  0  0  0  0  0  0
   57.2693   34.3205   45.1655 H   0  0  0  0  0  0  0  0  0  0  0  0
   56.2652   33.6503   46.5165 H   0  0  0  0  0  0  0  0  0  0  0  0
  1  2  2  0
  2  3  2  0
  2  4  1  0
  4  5  2  0
  5  6  1  0
  6  7  2  0
  7  8  1  0
  8  9  2  0
  2 10  1  0
 10 11  1  0
 11 12  1  0
 12 13  1  0
 13 14  2  0
 14 15  1  0
 15 16  1  0
 16 17  2  0
 17 18  1  0
 18 19  2  0
 19 20  1  0
 20 21  2  0
 14 22  1  0
  9  4  1  0
 22 10  1  0
 21 13  1  0
 21 16  1  0
  5 23  1  0
  6 24  1  0
  7 25  1  0
  8 26  1  0
  9 27  1  0
 11 28  1  0
 11 29  1  0
 12 30  1  0
 12 31  1  0
 15 32  1  0
 17 33  1  0
 18 34  1  0
 19 35  1  0
 20 36  1  0
 22 37  1  0
 22 38  1  0
M  END
>  <UniqueID>  (13) 
11

>  <SMILES>  (13) 
O=S(=O)(c1ccccc1)N1CCc2c([nH]c3ccccc23)C1

>  <Energy>  (13) 
80.42933576869235

>  <Genealogy>  (13) 
O=S(=O)(c1ccccc1)N1CCc2c([nH]c3ccccc23)C1 (3D coordinates assigned)
O=S(=O)(c1ccccc1)N1CCc2c([nH]c3ccccc23)C1 (nonaromatic ring conformer: 80.42933576869235 kcal/mol)

>  <smiles>  (13) 
O=S(=O)(c1ccccc1)N1CCc2c([nH]c3ccccc23)C1

>  <score_type>  (13) 
oracle

>  <origin>  (13) 
adg

>  <m_score__min__energy>  (13) 
-8.25

>  <m_primary>  (13) 
energy

$$$$
13:0
     RDKit          3D

 44 46  0  0  0  0  0  0  0  0999 V2000
   54.9560   26.3450   46.0020 N   0  0  0  0  0  0  0  0  0  0  0  0
   56.1910   25.8370   46.4970 C   0  0  0  0  0  0  0  0  0  0  0  0
   56.1490   25.1120   47.5280 O   0  0  0  0  0  0  0  0  0  0  0  0
   57.4980   25.9790   45.6790 C   0  0  0  0  0  0  0  0  0  0  0  0
   58.7080   26.3650   46.5960 C   0  0  0  0  0  0  0  0  0  0  0  0
   60.0360   26.0530   46.2110 C   0  0  0  0  0  0  0  0  0  0  0  0
   61.1280   26.4140   47.0050 C   0  0  0  0  0  0  0  0  0  0  0  0
   60.9340   27.1260   48.1850 C   0  0  0  0  0  0  0  0  0  0  0  0
   59.6470   27.5010   48.5620 C   0  0  0  0  0  0  0  0  0  0  0  0
   58.5500   27.1440   47.7730 C   0  0  0  0  0  0  0  0  0  0  0  0
   57.7990   24.5560   45.0990 C   0  0  0  0  0  0  0  0  0  0  0  0
   58.6770   23.6420   45.7370 C   0  0  0  0  0  0  0  0  0  0  0  0
   58.8990   22.3640   45.2160 C   0  0  0  0  0  0  0  0  0  0  0  0
   58.2270   21.9450   44.0720 C   0  0  0  0  0  0  0  0  0  0  0  0
   57.3070   22.7930   43.4610 C   0  0  0  0  0  0  0  0  0  0  0  0
   57.0790   24.0710   43.9750 C   0  0  0  0  0  0  0  0  0  0  0  0
   57.3510   27.0290   44.5820 N   0  0  0  0  0  0  0  0  0  0  0  0
   58.5480   27.2110   43.7040 C   0  0  0  0  0  0  0  0  0  0  0  0
   59.5770   28.2230   44.2370 C   0  0  0  0  0  0  0  0  0  0  0  0
   58.9450   29.5550   44.6750 C   0  0  0  0  0  0  0  0  0  0  0  0
   57.4370   29.5900   44.4440 C   0  0  0  0  0  0  0  0  0  0  0  0
   56.7470   28.3380   45.0140 C   0  0  0  0  0  0  0  0  0  0  0  0
   54.8650   26.6760   45.0160 H   0  0  0  0  0  0  0  0  0  0  0  0
   60.2108   25.5154   45.2674 H   0  0  0  0  0  0  0  0  0  0  0  0
   62.1458   26.1340   46.6958 H   0  0  0  0  0  0  0  0  0  0  0  0
   61.7940   27.3915   48.8174 H   0  0  0  0  0  0  0  0  0  0  0  0
   59.4932   28.0804   49.4843 H   0  0  0  0  0  0  0  0  0  0  0  0
   57.5433   27.4732   48.0698 H   0  0  0  0  0  0  0  0  0  0  0  0
   59.1932   23.9451   46.6599 H   0  0  0  0  0  0  0  0  0  0  0  0
   59.6086   21.6861   45.7130 H   0  0  0  0  0  0  0  0  0  0  0  0
   58.4218   20.9473   43.6517 H   0  0  0  0  0  0  0  0  0  0  0  0
   56.7577   22.4548   42.5700 H   0  0  0  0  0  0  0  0  0  0  0  0
   56.3256   24.7160   43.4992 H   0  0  0  0  0  0  0  0  0  0  0  0
   56.6540   26.6200   43.9160 H   0  0  0  0  0  0  0  0  0  0  0  0
   59.0472   26.2368   43.5960 H   0  0  0  0  0  0  0  0  0  0  0  0
   58.1792   27.6111   42.7480 H   0  0  0  0  0  0  0  0  0  0  0  0
   60.0895   27.7777   45.1025 H   0  0  0  0  0  0  0  0  0  0  0  0
   60.2730   28.4458   43.4148 H   0  0  0  0  0  0  0  0  0  0  0  0
   59.1412   29.7029   45.7472 H   0  0  0  0  0  0  0  0  0  0  0  0
   59.3949   30.3542   44.0676 H   0  0  0  0  0  0  0  0  0  0  0  0
   57.0212   30.4818   44.9358 H   0  0  0  0  0  0  0  0  0  0  0  0
   57.2558   29.6188   43.3594 H   0  0  0  0  0  0  0  0  0  0  0  0
   56.7957   28.3910   46.1116 H   0  0  0  0  0  0  0  0  0  0  0  0
   55.7191   28.3473   44.6225 H   0  0  0  0  0  0  0  0  0  0  0  0
  1  2  1  0
  2  3  2  0
  2  4  1  0
  4  5  1  0
  5  6  2  0
  6  7  1  0
  7  8  2  0
  8  9  1  0
  9 10  2  0
  4 11  1  0
 11 12  2  0
 12 13  1  0
 13 14  2  0
 14 15  1  0
 15 16  2  0
  4 17  1  0
 17 18  1  0
 18 19  1  0
 19 20  1  0
 20 21  1  0
 21 22  1  0
 10  5  1  0
 16 11  1  0
 22 17  1  0
  1 23  1  0
  6 24  1  0
  7 25  1  0
  8 26  1  0
  9 27  1  0
 10 28  1  0
 12 29  1  0
 13 30  1  0
 14 31  1  0
 15 32  1  0
 16 33  1  0
 17 34  1  0
 18 35  1  0
 18 36  1  0
 19 37  1  0
 19 38  1  0
 20 39  1  0
 20 40  1  0
 21 41  1  0
 21 42  1  0
 22 43  1  0
 22 44  1  0
M  CHG  2   1  -1  17   1
M  END
>  <UniqueID>  (14) 
12

>  <SMILES>  (14) 
[NH-]C(=O)C(c1ccccc1)(c1ccccc1)[NH+]1CCCCC1

>  <Energy>  (14) 
88.24211438434457

>  <Genealogy>  (14) 
[NH-]C(=O)C(c1ccccc1)(c1ccccc1)[NH+]1CCCCC1 (protonated)
[NH-]C(=O)C(c1ccccc1)(c1ccccc1)[NH+]1CCCCC1 (3D coordinates assigned)
[NH-]C(=O)C(c1ccccc1)(c1ccccc1)[NH+]1CCCCC1 (nonaromatic ring conformer: 88.24211438434457 kcal/mol)

>  <smiles>  (14) 
NC(=O)C(c1ccccc1)(c1ccccc1)N1CCCCC1

>  <score_type>  (14) 
oracle

>  <origin>  (14) 
adg

>  <m_score__min__energy>  (14) 
-8.6099999999999994

>  <m_primary>  (14) 
energy

$$$$
14:0
     RDKit          3D

 39 42  0  0  0  0  0  0  0  0999 V2000
   55.1770   29.7200   43.7600 C   0  0  0  0  0  0  0  0  0  0  0  0
   55.6870   28.9210   44.8230 O   0  0  0  0  0  0  0  0  0  0  0  0
   57.0460   28.8160   45.1530 C   0  0  0  0  0  0  0  0  0  0  0  0
   57.8630   28.0080   44.3550 C   0  0  0  0  0  0  0  0  0  0  0  0
   59.2240   27.8740   44.6420 C   0  0  0  0  0  0  0  0  0  0  0  0
   59.7820   28.5490   45.7290 C   0  0  0  0  0  0  0  0  0  0  0  0
   58.9790   29.3650   46.5430 C   0  0  0  0  0  0  0  0  0  0  0  0
   59.5790   30.1140   47.7030 C   0  0  0  0  0  0  0  0  0  0  0  0
   60.0560   31.4320   47.2670 N   0  0  0  0  0  0  0  0  0  0  0  0
   61.3210   31.9140   47.3590 C   0  0  0  0  0  0  0  0  0  0  0  0
   62.4360   31.2980   47.9390 C   0  0  0  0  0  0  0  0  0  0  0  0
   63.6630   31.9860   47.9110 C   0  0  0  0  0  0  0  0  0  0  0  0
   63.7580   33.2620   47.3120 C   0  0  0  0  0  0  0  0  0  0  0  0
   62.6280   33.8640   46.7330 C   0  0  0  0  0  0  0  0  0  0  0  0
   61.4250   33.1610   46.7760 C   0  0  0  0  0  0  0  0  0  0  0  0
   60.1740   33.4690   46.2950 C   0  0  0  0  0  0  0  0  0  0  0  0
   59.7000   34.5850   45.6070 C   0  0  0  0  0  0  0  0  0  0  0  0
   58.3470   34.5960   45.2300 C   0  0  0  0  0  0  0  0  0  0  0  0
   57.5080   33.5040   45.5430 C   0  0  0  0  0  0  0  0  0  0  0  0
   58.0100   32.3890   46.2370 C   0  0  0  0  0  0  0  0  0  0  0  0
   59.3600   32.3950   46.6060 C   0  0  0  0  0  0  0  0  0  0  0  0
   57.6110   29.4930   46.2510 C   0  0  0  0  0  0  0  0  0  0  0  0
   54.6292   30.5782   44.1766 H   0  0  0  0  0  0  0  0  0  0  0  0
   56.0110   30.0827   43.1412 H   0  0  0  0  0  0  0  0  0  0  0  0
   54.4969   29.1162   43.1412 H   0  0  0  0  0  0  0  0  0  0  0  0
   57.4310   27.4744   43.4956 H   0  0  0  0  0  0  0  0  0  0  0  0
   59.8575   27.2347   44.0095 H   0  0  0  0  0  0  0  0  0  0  0  0
   60.8544   28.4415   45.9490 H   0  0  0  0  0  0  0  0  0  0  0  0
   58.8158   30.2446   48.4843 H   0  0  0  0  0  0  0  0  0  0  0  0
   60.4291   29.5389   48.0987 H   0  0  0  0  0  0  0  0  0  0  0  0
   62.3553   30.3042   48.4035 H   0  0  0  0  0  0  0  0  0  0  0  0
   64.5561   31.5264   48.3594 H   0  0  0  0  0  0  0  0  0  0  0  0
   64.7239   33.7882   47.2988 H   0  0  0  0  0  0  0  0  0  0  0  0
   62.6906   34.8561   46.2619 H   0  0  0  0  0  0  0  0  0  0  0  0
   60.3636   35.4289   45.3673 H   0  0  0  0  0  0  0  0  0  0  0  0
   57.9381   35.4610   44.6873 H   0  0  0  0  0  0  0  0  0  0  0  0
   56.4506   33.5260   45.2407 H   0  0  0  0  0  0  0  0  0  0  0  0
   57.3602   31.5362   46.4829 H   0  0  0  0  0  0  0  0  0  0  0  0
   56.9753   30.1278   46.8857 H   0  0  0  0  0  0  0  0  0  0  0  0
  1  2  1  0
  2  3  1  0
  3  4  2  0
  4  5  1  0
  5  6  2  0
  6  7  1  0
  7  8  1  0
  8  9  1  0
  9 10  1  0
 10 11  2  0
 11 12  1  0
 12 13  2  0
 13 14  1  0
 14 15  2  0
 15 16  1  0
 16 17  2  0
 17 18  1  0
 18 19  2  0
 19 20  1  0
 20 21  2  0
  7 22  2  0
 22  3  1  0
 21  9  1  0
 15 10  1  0
 21 16  1  0
  1 23  1  0
  1 24  1  0
  1 25  1  0
  4 26  1  0
  5 27  1  0
  6 28  1  0
  8 29  1  0
  8 30  1  0
 11 31  1  0
 12 32  1  0
 13 33  1  0
 14 34  1  0
 17 35  1  0
 18 36  1  0
 19 37  1  0
 20 38  1  0
 22 39  1  0
M  END
>  <UniqueID>  (15) 
13

>  <SMILES>  (15) 
COc1cccc(Cn2c3ccccc3c3ccccc32)c1

>  <Energy>  (15) 
83.14015987467586

>  <Genealogy>  (15) 
COc1cccc(Cn2c3ccccc3c3ccccc32)c1 (3D coordinates assigned)
COc1cccc(Cn2c3ccccc3c3ccccc32)c1 (optimized conformer: 83.14015987467586 kcal/mol)

>  <smiles>  (15) 
COc1cccc(Cn2c3ccccc3c3ccccc32)c1

>  <score_type>  (15) 
oracle

>  <origin>  (15) 
adg

>  <m_score__min__energy>  (15) 
-8.2400000000000002

>  <m_primary>  (15) 
energy

$$$$
15:0
     RDKit          3D

 27 27  0  0  0  0  0  0  0  0999 V2000
   58.4970   27.4840   43.9960 C   0  0  0  0  0  0  0  0  0  0  0  0
   57.5280   28.1390   43.1180 N   0  0  0  0  0  0  0  0  0  0  0  0
   56.9840   29.3000   43.7680 C   0  0  0  0  0  0  0  0  0  0  0  0
   55.7370   29.3900   43.9390 O   0  0  0  0  0  0  0  0  0  0  0  0
   57.8580   30.3610   44.1890 N   0  0  0  0  0  0  0  0  0  0  0  0
   57.4040   31.5880   44.7870 C   0  0  0  0  0  0  0  0  0  0  0  0
   56.1710   31.8360   44.8710 O   0  0  0  0  0  0  0  0  0  0  0  0
   58.3860   32.5650   45.3220 C   0  0  0  0  0  0  0  0  0  0  0  0
   58.3520   33.8880   44.8450 C   0  0  0  0  0  0  0  0  0  0  0  0
   59.2730   34.8320   45.2970 C   0  0  0  0  0  0  0  0  0  0  0  0
   60.2460   34.4720   46.2290 C   0  0  0  0  0  0  0  0  0  0  0  0
   60.2950   33.1660   46.7180 C   0  0  0  0  0  0  0  0  0  0  0  0
   59.3650   32.2030   46.2860 C   0  0  0  0  0  0  0  0  0  0  0  0
   59.4430   30.8130   46.8620 C   0  0  0  0  0  0  0  0  0  0  0  0
   58.2241   27.6685   45.0455 H   0  0  0  0  0  0  0  0  0  0  0  0
   58.4949   26.4013   43.8014 H   0  0  0  0  0  0  0  0  0  0  0  0
   59.5008   27.8895   43.8014 H   0  0  0  0  0  0  0  0  0  0  0  0
   56.7560   27.4720   42.8890 H   0  0  0  0  0  0  0  0  0  0  0  0
   58.0020   28.4230   42.2290 H   0  0  0  0  0  0  0  0  0  0  0  0
   58.8820   30.2410   44.0180 H   0  0  0  0  0  0  0  0  0  0  0  0
   57.5904   34.1809   44.1073 H   0  0  0  0  0  0  0  0  0  0  0  0
   59.2321   35.8636   44.9175 H   0  0  0  0  0  0  0  0  0  0  0  0
   60.9750   35.2178   46.5787 H   0  0  0  0  0  0  0  0  0  0  0  0
   61.0685   32.8867   47.4485 H   0  0  0  0  0  0  0  0  0  0  0  0
   59.4398   30.8706   47.9605 H   0  0  0  0  0  0  0  0  0  0  0  0
   58.5764   30.2265   46.5230 H   0  0  0  0  0  0  0  0  0  0  0  0
   60.3698   30.3271   46.5230 H   0  0  0  0  0  0  0  0  0  0  0  0
  1  2  1  0
  2  3  1  0
  3  4  2  0
  3  5  1  0
  5  6  1  0
  6  7  2  0
  6  8  1  0
  8  9  2  0
  9 10  1  0
 10 11  2  0
 11 12  1  0
 12 13  2  0
 13 14  1  0
 13  8  1  0
  1 15  1  0
  1 16  1  0
  1 17  1  0
  2 18  1  0
  2 19  1  0
  5 20  1  0
  9 21  1  0
 10 22  1  0
 11 23  1  0
 12 24  1  0
 14 25  1  0
 14 26  1  0
 14 27  1  0
M  CHG  1   2   1
M  END
>  <UniqueID>  (16) 
14

>  <SMILES>  (16) 
C[NH2+]C(=O)NC(=O)c1ccccc1C

>  <Energy>  (16) 
28.80277886112528

>  <Genealogy>  (16) 
C[NH2+]C(=O)NC(=O)c1ccccc1C (protonated)
C[NH2+]C(=O)NC(=O)c1ccccc1C (3D coordinates assigned)
C[NH2+]C(=O)NC(=O)c1ccccc1C (optimized conformer: 28.80277886112528 kcal/mol)

>  <smiles>  (16) 
CNC(=O)NC(=O)c1ccccc1C

>  <score_type>  (16) 
oracle

>  <origin>  (16) 
adg

>  <m_score__min__energy>  (16) 
-5.3099999999999996

>  <m_primary>  (16) 
energy

$$$$
16:0
     RDKit          3D

 38 39  0  0  0  0  0  0  0  0999 V2000
   58.3433   30.8310   43.9734 H   0  0  0  0  0  0  0  0  0  0  0  0
   57.7320   30.7920   44.8870 C   0  0  0  0  0  0  0  0  0  0  0  0
   56.4010   30.3800   44.7990 O   0  0  0  0  0  0  0  0  0  0  0  0
   55.8920   29.7600   43.6280 C   0  0  0  0  0  0  0  0  0  0  0  0
   55.2176   28.9386   43.9116 H   0  0  0  0  0  0  0  0  0  0  0  0
   55.3378   30.5004   43.0324 H   0  0  0  0  0  0  0  0  0  0  0  0
   56.7261   29.3606   43.0324 H   0  0  0  0  0  0  0  0  0  0  0  0
   58.2810   31.1400   46.0540 C   0  0  0  0  0  0  0  0  0  0  0  0
   58.3874   30.3662   46.8285 H   0  0  0  0  0  0  0  0  0  0  0  0
   58.7540   32.5070   46.3640 C   0  0  0  0  0  0  0  0  0  0  0  0
   59.0980   33.4200   45.3520 C   0  0  0  0  0  0  0  0  0  0  0  0
   59.0089   33.1266   44.2956 H   0  0  0  0  0  0  0  0  0  0  0  0
   59.5520   34.6970   45.6830 C   0  0  0  0  0  0  0  0  0  0  0  0
   59.8210   35.4067   44.8868 H   0  0  0  0  0  0  0  0  0  0  0  0
   59.6660   35.0770   47.0220 C   0  0  0  0  0  0  0  0  0  0  0  0
   60.0394   36.0803   47.2747 H   0  0  0  0  0  0  0  0  0  0  0  0
   59.3080   34.1890   48.0470 C   0  0  0  0  0  0  0  0  0  0  0  0
   59.5090   34.5780   49.4180 N   0  0  0  0  0  0  0  0  0  0  0  0
   59.6000   35.5940   49.6470 H   0  0  0  0  0  0  0  0  0  0  0  0
   59.8020   33.6430   50.4610 C   0  0  0  0  0  0  0  0  0  0  0  0
   58.5910   32.7440   51.0990 S   0  0  0  0  0  0  0  0  0  0  0  0
   61.1340   33.5160   50.9770 N   0  0  0  0  0  0  0  0  0  0  0  0
   61.3030   32.8880   51.7960 H   0  0  0  0  0  0  0  0  0  0  0  0
   62.2840   34.1840   50.3680 C   0  0  0  0  0  0  0  0  0  0  0  0
   62.0137   35.2240   50.1326 H   0  0  0  0  0  0  0  0  0  0  0  0
   63.1235   34.1574   51.0783 H   0  0  0  0  0  0  0  0  0  0  0  0
   62.7020   33.4830   49.1000 C   0  0  0  0  0  0  0  0  0  0  0  0
   63.3970   34.1760   48.0960 C   0  0  0  0  0  0  0  0  0  0  0  0
   63.6663   35.2332   48.2369 H   0  0  0  0  0  0  0  0  0  0  0  0
   63.7440   33.5120   46.9160 C   0  0  0  0  0  0  0  0  0  0  0  0
   64.2804   34.0508   46.1210 H   0  0  0  0  0  0  0  0  0  0  0  0
   63.4210   32.2040   46.7480 N   0  0  0  0  0  0  0  0  0  0  0  0
   62.7620   31.5030   47.7100 C   0  0  0  0  0  0  0  0  0  0  0  0
   62.5170   30.4432   47.5465 H   0  0  0  0  0  0  0  0  0  0  0  0
   62.3960   32.1270   48.9050 C   0  0  0  0  0  0  0  0  0  0  0  0
   61.8715   31.5596   49.6879 H   0  0  0  0  0  0  0  0  0  0  0  0
   58.8290   32.9090   47.7050 C   0  0  0  0  0  0  0  0  0  0  0  0
   58.5103   32.2174   48.4988 H   0  0  0  0  0  0  0  0  0  0  0  0
  1  2  1  0
  2  3  1  0
  3  4  1  0
  4  5  1  0
  4  6  1  0
  4  7  1  0
  2  8  2  0
  8  9  1  0
  8 10  1  0
 10 11  2  0
 11 12  1  0
 11 13  1  0
 13 14  1  0
 13 15  2  0
 15 16  1  0
 15 17  1  0
 17 18  1  0
 18 19  1  0
 18 20  1  0
 20 21  2  0
 20 22  1  0
 22 23  1  0
 22 24  1  0
 24 25  1  0
 24 26  1  0
 24 27  1  0
 27 28  2  0
 28 29  1  0
 28 30  1  0
 30 31  1  0
 30 32  2  0
 32 33  1  0
 33 34  1  0
 33 35  2  0
 35 36  1  0
 17 37  2  0
 37 38  1  0
 37 10  1  0
 35 27  1  0
M  END
>  <UniqueID>  (17) 
15

>  <SMILES>  (17) 
CO/C=C\c1cccc(NC(=S)NCc2ccncc2)c1

>  <Energy>  (17) 
39.387614926294596

>  <Genealogy>  (17) 
CO/C=C\c1cccc(NC(=S)NCc2ccncc2)c1 (cis-trans isomerization)
CO/C=C\c1cccc(NC(=S)NCc2ccncc2)c1 (3D coordinates assigned)
CO/C=C\c1cccc(NC(=S)NCc2ccncc2)c1 (optimized conformer: 39.387614926294596 kcal/mol)

>  <smiles>  (17) 
COC=Cc1cccc(NC(=S)NCc2ccncc2)c1

>  <score_type>  (17) 
oracle

>  <origin>  (17) 
adg

>  <m_score__min__energy>  (17) 
-6.9299999999999997

>  <m_primary>  (17) 
energy

$$$$
17:0
     RDKit          3D

 37 38  0  0  0  0  0  0  0  0999 V2000
   56.5810   26.2950   46.0040 C   0  0  0  0  0  0  0  0  0  0  0  0
   55.8900   27.4750   45.6090 O   0  0  0  0  0  0  0  0  0  0  0  0
   56.5140   28.6950   45.3100 C   0  0  0  0  0  0  0  0  0  0  0  0
   57.7390   28.9830   45.9220 C   0  0  0  0  0  0  0  0  0  0  0  0
   58.3980   30.1890   45.6640 C   0  0  0  0  0  0  0  0  0  0  0  0
   57.8320   31.1310   44.7860 C   0  0  0  0  0  0  0  0  0  0  0  0
   58.4650   32.3870   44.5010 N   0  0  0  0  0  0  0  0  0  0  0  0
   58.8300   33.6090   45.6760 S   0  0  0  0  0  0  0  0  0  0  0  0
   57.7610   33.6150   46.7310 O   0  0  0  0  0  0  0  0  0  0  0  0
   58.8570   34.9510   44.9990 O   0  0  0  0  0  0  0  0  0  0  0  0
   60.3790   33.2570   46.4370 C   0  0  0  0  0  0  0  0  0  0  0  0
   61.4410   34.1680   46.3490 C   0  0  0  0  0  0  0  0  0  0  0  0
   62.6740   33.8670   46.9350 C   0  0  0  0  0  0  0  0  0  0  0  0
   62.8610   32.6490   47.6130 C   0  0  0  0  0  0  0  0  0  0  0  0
   64.1130   32.3260   48.2410 N   0  0  0  0  0  0  0  0  0  0  0  0
   64.5390   32.8670   49.5020 C   0  0  0  0  0  0  0  0  0  0  0  0
   65.7710   32.3350   50.1590 C   0  0  0  0  0  0  0  0  0  0  0  0
   63.9290   33.8390   50.0240 O   0  0  0  0  0  0  0  0  0  0  0  0
   61.7850   31.7560   47.7220 C   0  0  0  0  0  0  0  0  0  0  0  0
   60.5540   32.0540   47.1300 C   0  0  0  0  0  0  0  0  0  0  0  0
   56.6120   30.8400   44.1660 C   0  0  0  0  0  0  0  0  0  0  0  0
   55.9540   29.6330   44.4220 C   0  0  0  0  0  0  0  0  0  0  0  0
   56.6136   26.2394   47.1021 H   0  0  0  0  0  0  0  0  0  0  0  0
   56.0567   25.4130   45.6076 H   0  0  0  0  0  0  0  0  0  0  0  0
   57.6068   26.3207   45.6076 H   0  0  0  0  0  0  0  0  0  0  0  0
   58.1878   28.2538   46.6126 H   0  0  0  0  0  0  0  0  0  0  0  0
   59.3620   30.4017   46.1492 H   0  0  0  0  0  0  0  0  0  0  0  0
   61.3038   35.1214   45.8178 H   0  0  0  0  0  0  0  0  0  0  0  0
   63.5028   34.5869   46.8654 H   0  0  0  0  0  0  0  0  0  0  0  0
   64.7930   31.7360   47.7100 H   0  0  0  0  0  0  0  0  0  0  0  0
   65.6547   32.3852   51.2517 H   0  0  0  0  0  0  0  0  0  0  0  0
   65.9266   31.2895   49.8545 H   0  0  0  0  0  0  0  0  0  0  0  0
   66.6387   32.9386   49.8545 H   0  0  0  0  0  0  0  0  0  0  0  0
   61.9105   30.8147   48.2771 H   0  0  0  0  0  0  0  0  0  0  0  0
   59.7205   31.3406   47.2092 H   0  0  0  0  0  0  0  0  0  0  0  0
   56.1665   31.5671   43.4711 H   0  0  0  0  0  0  0  0  0  0  0  0
   54.9956   29.4157   43.9279 H   0  0  0  0  0  0  0  0  0  0  0  0
  1  2  1  0
  2  3  1  0
  3  4  2  0
  4  5  1  0
  5  6  2  0
  6  7  1  0
  7  8  1  0
  8  9  2  0
  8 10  2  0
  8 11  1  0
 11 12  2  0
 12 13  1  0
 13 14  2  0
 14 15  1  0
 15 16  1  0
 16 17  1  0
 16 18  2  0
 14 19  1  0
 19 20  2  0
  6 21  1  0
 21 22  2  0
 22  3  1  0
 20 11  1  0
  1 23  1  0
  1 24  1  0
  1 25  1  0
  4 26  1  0
  5 27  1  0
 12 28  1  0
 13 29  1  0
 15 30  1  0
 17 31  1  0
 17 32  1  0
 17 33  1  0
 19 34  1  0
 20 35  1  0
 21 36  1  0
 22 37  1  0
M  CHG  1   7  -1
M  END
>  <UniqueID>  (18) 
16

>  <SMILES>  (18) 
COc1ccc([N-]S(=O)(=O)c2ccc(NC(C)=O)cc2)cc1

>  <Energy>  (18) 
41.21882716683948

>  <Genealogy>  (18) 
COc1ccc([N-]S(=O)(=O)c2ccc(NC(C)=O)cc2)cc1 (protonated)
COc1ccc([N-]S(=O)(=O)c2ccc(NC(C)=O)cc2)cc1 (3D coordinates assigned)
COc1ccc([N-]S(=O)(=O)c2ccc(NC(C)=O)cc2)cc1 (optimized conformer: 41.21882716683948 kcal/mol)

>  <smiles>  (18) 
COc1ccc(NS(=O)(=O)c2ccc(NC(C)=O)cc2)cc1

>  <score_type>  (18) 
oracle

>  <origin>  (18) 
adg

>  <m_score__min__energy>  (18) 
-8.3200000000000003

>  <m_primary>  (18) 
energy

$$$$
18:0
     RDKit          3D

 26 27  0  0  0  0  0  0  0  0999 V2000
   56.6650   20.8840   42.7580 N   0  0  0  0  0  0  0  0  0  0  0  0
   56.6250   21.9290   43.5210 C   0  0  0  0  0  0  0  0  0  0  0  0
   56.6100   21.7700   44.9110 C   0  0  0  0  0  0  0  0  0  0  0  0
   56.5650   22.8980   45.7310 C   0  0  0  0  0  0  0  0  0  0  0  0
   56.5430   24.1750   45.1600 C   0  0  0  0  0  0  0  0  0  0  0  0
   56.4630   25.6060   46.1790 S   0  0  0  0  0  0  0  0  0  0  0  0
   56.5740   25.2110   47.6260 O   0  0  0  0  0  0  0  0  0  0  0  0
   55.1440   26.3010   45.9860 O   0  0  0  0  0  0  0  0  0  0  0  0
   57.7800   26.6910   45.7510 C   0  0  0  0  0  0  0  0  0  0  0  0
   59.0490   26.5180   46.3230 C   0  0  0  0  0  0  0  0  0  0  0  0
   60.0910   27.3920   45.9980 C   0  0  0  0  0  0  0  0  0  0  0  0
   59.8680   28.4440   45.1050 C   0  0  0  0  0  0  0  0  0  0  0  0
   58.6030   28.6260   44.5410 C   0  0  0  0  0  0  0  0  0  0  0  0
   57.5590   27.7540   44.8640 C   0  0  0  0  0  0  0  0  0  0  0  0
   56.5510   24.2960   43.7660 C   0  0  0  0  0  0  0  0  0  0  0  0
   56.5930   23.1840   42.9800 N   0  0  0  0  0  0  0  0  0  0  0  0
   57.0940   19.9840   43.0720 H   0  0  0  0  0  0  0  0  0  0  0  0
   56.6335   20.7634   45.3540 H   0  0  0  0  0  0  0  0  0  0  0  0
   56.5468   22.7834   46.8249 H   0  0  0  0  0  0  0  0  0  0  0  0
   59.2249   25.6929   47.0289 H   0  0  0  0  0  0  0  0  0  0  0  0
   61.0862   27.2517   46.4451 H   0  0  0  0  0  0  0  0  0  0  0  0
   60.6890   29.1289   44.8463 H   0  0  0  0  0  0  0  0  0  0  0  0
   58.4280   29.4568   43.8416 H   0  0  0  0  0  0  0  0  0  0  0  0
   56.5628   27.9021   44.4216 H   0  0  0  0  0  0  0  0  0  0  0  0
   56.5233   25.2933   43.3027 H   0  0  0  0  0  0  0  0  0  0  0  0
   56.6000   23.3080   41.9430 H   0  0  0  0  0  0  0  0  0  0  0  0
  1  2  2  3
  2  3  1  0
  3  4  2  0
  4  5  1  0
  5  6  1  0
  6  7  2  0
  6  8  2  0
  6  9  1  0
  9 10  2  0
 10 11  1  0
 11 12  2  0
 12 13  1  0
 13 14  2  0
  5 15  2  0
 15 16  1  0
 16  2  1  0
 14  9  1  0
  1 17  1  0
  3 18  1  0
  4 19  1  0
 10 20  1  0
 11 21  1  0
 12 22  1  0
 13 23  1  0
 14 24  1  0
 15 25  1  0
 16 26  1  0
M  END
>  <UniqueID>  (19) 
17

>  <SMILES>  (19) 
N=c1ccc(S(=O)(=O)c2ccccc2)c[nH]1

>  <Energy>  (19) 
29.052224918451063

>  <Genealogy>  (19) 
N=c1ccc(S(=O)(=O)c2ccccc2)c[nH]1 (3D coordinates assigned)
N=c1ccc(S(=O)(=O)c2ccccc2)c[nH]1 (optimized conformer: 29.052224918451063 kcal/mol)

>  <smiles>  (19) 
N=c1ccc(S(=O)(=O)c2ccccc2)c[nH]1

>  <score_type>  (19) 
oracle

>  <origin>  (19) 
adg

>  <m_score__min__energy>  (19) 
-6.7699999999999996

>  <m_primary>  (19) 
energy

$$$$
19:0
     RDKit          3D

 71 71  0  0  0  0  0  0  0  0999 V2000
   55.5800   29.6750   44.5000 C   0  0  0  0  0  0  0  0  0  0  0  0
   56.4920   29.9470   43.3080 C   0  0  0  0  0  0  0  0  0  0  0  0
   57.7780   30.6640   43.7440 C   0  0  0  0  0  0  0  0  0  0  0  0
   57.9740   32.0200   43.0410 C   0  0  0  0  0  0  0  0  0  0  0  0
   58.1530   33.2210   43.9890 C   0  0  0  0  0  0  0  0  0  0  0  0
   57.8380   32.8760   45.4550 C   0  0  0  0  0  0  0  0  0  0  0  0
   57.7890   34.1200   46.3560 C   0  0  0  0  0  0  0  0  0  0  0  0
   59.1690   34.7770   46.5290 C   0  0  0  0  0  0  0  0  0  0  0  0
   60.3280   33.7680   46.4490 C   0  0  0  0  0  0  0  0  0  0  0  0
   61.2340   33.7530   47.7030 C   0  0  0  0  0  0  0  0  0  0  0  0
   60.5080   34.0980   49.0210 C   0  0  0  0  0  0  0  0  0  0  0  0
   59.5050   33.0390   49.5160 C   0  0  0  0  0  0  0  0  0  0  0  0
   60.1600   31.6880   49.8560 C   0  0  0  0  0  0  0  0  0  0  0  0
   59.9350   30.6330   48.7580 C   0  0  0  0  0  0  0  0  0  0  0  0
   61.1540   30.4660   47.8350 C   0  0  0  0  0  0  0  0  0  0  0  0
   60.7590   30.4780   46.3520 C   0  0  0  0  0  0  0  0  0  0  0  0
   60.6210   29.1220   45.8110 N   0  0  0  0  0  0  0  0  0  0  0  0
   59.4260   28.3320   45.9660 C   0  0  0  0  0  0  0  0  0  0  0  0
   58.9250   27.9870   47.2340 C   0  0  0  0  0  0  0  0  0  0  0  0
   57.7720   27.2060   47.3520 C   0  0  0  0  0  0  0  0  0  0  0  0
   57.1010   26.7430   46.2060 C   0  0  0  0  0  0  0  0  0  0  0  0
   55.8860   25.9070   46.3290 C   0  0  0  0  0  0  0  0  0  0  0  0
   54.7740   26.3390   45.9180 O   0  0  0  0  0  0  0  0  0  0  0  0
   55.9640   24.6060   46.9210 N   0  0  0  0  0  0  0  0  0  0  0  0
   57.1860   23.8150   46.9220 C   0  0  0  0  0  0  0  0  0  0  0  0
   57.5840   23.4770   45.4930 C   0  0  0  0  0  0  0  0  0  0  0  0
   57.6030   27.0890   44.9390 C   0  0  0  0  0  0  0  0  0  0  0  0
   58.7520   27.8760   44.8230 C   0  0  0  0  0  0  0  0  0  0  0  0
   56.1374   29.8413   45.4336 H   0  0  0  0  0  0  0  0  0  0  0  0
   54.7157   30.3545   44.4630 H   0  0  0  0  0  0  0  0  0  0  0  0
   55.2291   28.6331   44.4630 H   0  0  0  0  0  0  0  0  0  0  0  0
   56.7577   28.9906   42.8341 H   0  0  0  0  0  0  0  0  0  0  0  0
   55.9551   30.5953   42.5998 H   0  0  0  0  0  0  0  0  0  0  0  0
   57.7343   30.8343   44.8299 H   0  0  0  0  0  0  0  0  0  0  0  0
   58.6259   30.0212   43.4651 H   0  0  0  0  0  0  0  0  0  0  0  0
   58.8692   31.9495   42.4057 H   0  0  0  0  0  0  0  0  0  0  0  0
   57.0514   32.2097   42.4728 H   0  0  0  0  0  0  0  0  0  0  0  0
   59.1954   33.5665   43.9255 H   0  0  0  0  0  0  0  0  0  0  0  0
   57.4445   34.0008   43.6728 H   0  0  0  0  0  0  0  0  0  0  0  0
   56.8612   32.3719   45.4965 H   0  0  0  0  0  0  0  0  0  0  0  0
   58.6448   32.2268   45.8259 H   0  0  0  0  0  0  0  0  0  0  0  0
   57.1028   34.8535   45.9075 H   0  0  0  0  0  0  0  0  0  0  0  0
   57.4447   33.7991   47.3502 H   0  0  0  0  0  0  0  0  0  0  0  0
   59.3020   35.5276   45.7360 H   0  0  0  0  0  0  0  0  0  0  0  0
   59.1951   35.2302   47.5310 H   0  0  0  0  0  0  0  0  0  0  0  0
   59.9029   32.7621   46.3168 H   0  0  0  0  0  0  0  0  0  0  0  0
   60.9599   34.0742   45.6023 H   0  0  0  0  0  0  0  0  0  0  0  0
   61.6667   32.7466   47.8023 H   0  0  0  0  0  0  0  0  0  0  0  0
   61.9932   34.5342   47.5500 H   0  0  0  0  0  0  0  0  0  0  0  0
   61.2696   34.2364   49.8025 H   0  0  0  0  0  0  0  0  0  0  0  0
   59.9181   35.0035   48.8157 H   0  0  0  0  0  0  0  0  0  0  0  0
   59.0096   33.4235   50.4197 H   0  0  0  0  0  0  0  0  0  0  0  0
   58.7935   32.8578   48.6969 H   0  0  0  0  0  0  0  0  0  0  0  0
   61.2419   31.8418   49.9815 H   0  0  0  0  0  0  0  0  0  0  0  0
   59.6957   31.3138   50.7803 H   0  0  0  0  0  0  0  0  0  0  0  0
   59.7219   29.6662   49.2375 H   0  0  0  0  0  0  0  0  0  0  0  0
   59.0933   30.9743   48.1375 H   0  0  0  0  0  0  0  0  0  0  0  0
   61.8566   31.2915   48.0219 H   0  0  0  0  0  0  0  0  0  0  0  0
   61.6159   29.4923   48.0554 H   0  0  0  0  0  0  0  0  0  0  0  0
   59.7985   31.0032   46.2442 H   0  0  0  0  0  0  0  0  0  0  0  0
   61.5558   30.9888   45.7915 H   0  0  0  0  0  0  0  0  0  0  0  0
   61.4300   28.6920   45.3060 H   0  0  0  0  0  0  0  0  0  0  0  0
   59.4443   28.3343   48.1394 H   0  0  0  0  0  0  0  0  0  0  0  0
   57.3859   26.9512   48.3500 H   0  0  0  0  0  0  0  0  0  0  0  0
   57.9929   24.3906   47.3991 H   0  0  0  0  0  0  0  0  0  0  0  0
   57.0142   22.8831   47.4806 H   0  0  0  0  0  0  0  0  0  0  0  0
   58.4224   22.7650   45.5045 H   0  0  0  0  0  0  0  0  0  0  0  0
   56.7273   23.0262   44.9706 H   0  0  0  0  0  0  0  0  0  0  0  0
   57.8901   24.3954   44.9706 H   0  0  0  0  0  0  0  0  0  0  0  0
   57.0878   26.7378   44.0328 H   0  0  0  0  0  0  0  0  0  0  0  0
   59.1319   28.1407   43.8252 H   0  0  0  0  0  0  0  0  0  0  0  0
  1  2  1  0
  2  3  1  0
  3  4  1  0
  4  5  1  0
  5  6  1  0
  6  7  1  0
  7  8  1  0
  8  9  1  0
  9 10  1  0
 10 11  1  0
 11 12  1  0
 12 13  1  0
 13 14  1  0
 14 15  1  0
 15 16  1  0
 16 17  1  0
 17 18  1  0
 18 19  2  0
 19 20  1  0
 20 21  2  0
 21 22  1  0
 22 23  2  0
 22 24  1  0
 24 25  1  0
 25 26  1  0
 21 27  1  0
 27 28  2  0
 28 18  1  0
  1 29  1  0
  1 30  1  0
  1 31  1  0
  2 32  1  0
  2 33  1  0
  3 34  1  0
  3 35  1  0
  4 36  1  0
  4 37  1  0
  5 38  1  0
  5 39  1  0
  6 40  1  0
  6 41  1  0
  7 42  1  0
  7 43  1  0
  8 44  1  0
  8 45  1  0
  9 46  1  0
  9 47  1  0
 10 48  1  0
 10 49  1  0
 11 50  1  0
 11 51  1  0
 12 52  1  0
 12 53  1  0
 13 54  1  0
 13 55  1  0
 14 56  1  0
 14 57  1  0
 15 58  1  0
 15 59  1  0
 16 60  1  0
 16 61  1  0
 17 62  1  0
 19 63  1  0
 20 64  1  0
 25 65  1  0
 25 66  1  0
 26 67  1  0
 26 68  1  0
 26 69  1  0
 27 70  1  0
 28 71  1  0
M  CHG  1  24  -1
M  END
>  <UniqueID>  (20) 
18

>  <SMILES>  (20) 
CCCCCCCCCCCCCCCCNc1ccc(C(=O)[N-]CC)cc1

>  <Energy>  (20) 
41.61439198229708

>  <Genealogy>  (20) 
CCCCCCCCCCCCCCCCNc1ccc(C(=O)[N-]CC)cc1 (protonated)
CCCCCCCCCCCCCCCCNc1ccc(C(=O)[N-]CC)cc1 (3D coordinates assigned)
CCCCCCCCCCCCCCCCNc1ccc(C(=O)[N-]CC)cc1 (optimized conformer: 41.61439198229708 kcal/mol)

>  <smiles>  (20) 
CCCCCCCCCCCCCCCCNc1ccc(C(=O)NCC)cc1

>  <score_type>  (20) 
oracle

>  <origin>  (20) 
adg

>  <m_score__min__energy>  (20) 
-9.4700000000000006

>  <m_primary>  (20) 
energy

$$$$
20:0
     RDKit          3D

 28 30  0  0  0  0  0  0  0  0999 V2000
   64.1470   33.1320   48.2430 C   0  0  0  0  0  0  0  0  0  0  0  0
   63.5520   33.1280   46.9600 C   0  0  0  0  0  0  0  0  0  0  0  0
   62.1860   33.4310   46.8040 C   0  0  0  0  0  0  0  0  0  0  0  0
   61.4600   33.7470   47.9530 C   0  0  0  0  0  0  0  0  0  0  0  0
   62.0320   33.7290   49.1960 C   0  0  0  0  0  0  0  0  0  0  0  0
   63.3790   33.4300   49.3840 C   0  0  0  0  0  0  0  0  0  0  0  0
   61.1020   34.0080   50.1280 N   0  0  0  0  0  0  0  0  0  0  0  0
   59.9590   34.1920   49.4240 C   0  0  0  0  0  0  0  0  0  0  0  0
   60.1550   34.0390   48.0920 N   0  0  0  0  0  0  0  0  0  0  0  0
   59.1960   34.2080   47.0760 N   0  0  0  0  0  0  0  0  0  0  0  0
   58.0450   33.3350   46.9370 C   0  0  0  0  0  0  0  0  0  0  0  0
   57.3640   33.7660   45.6460 C   0  0  0  0  0  0  0  0  0  0  0  0
   58.4050   34.5730   44.8710 C   0  0  0  0  0  0  0  0  0  0  0  0
   59.4440   35.0140   45.8940 C   0  0  0  0  0  0  0  0  0  0  0  0
   65.2171   32.9007   48.3498 H   0  0  0  0  0  0  0  0  0  0  0  0
   64.1615   32.8862   46.0768 H   0  0  0  0  0  0  0  0  0  0  0  0
   61.7087   33.4191   45.8130 H   0  0  0  0  0  0  0  0  0  0  0  0
   63.8268   33.4269   50.3887 H   0  0  0  0  0  0  0  0  0  0  0  0
   61.2300   34.0680   51.1620 H   0  0  0  0  0  0  0  0  0  0  0  0
   58.9880   34.4364   49.8794 H   0  0  0  0  0  0  0  0  0  0  0  0
   58.3645   32.2845   46.8714 H   0  0  0  0  0  0  0  0  0  0  0  0
   57.3683   33.4098   47.8010 H   0  0  0  0  0  0  0  0  0  0  0  0
   57.0531   32.8851   45.0652 H   0  0  0  0  0  0  0  0  0  0  0  0
   56.4600   34.3601   45.8457 H   0  0  0  0  0  0  0  0  0  0  0  0
   58.8732   33.9481   44.0962 H   0  0  0  0  0  0  0  0  0  0  0  0
   57.9488   35.4358   44.3636 H   0  0  0  0  0  0  0  0  0  0  0  0
   60.4596   34.8329   45.5121 H   0  0  0  0  0  0  0  0  0  0  0  0
   59.3690   36.0895   46.1121 H   0  0  0  0  0  0  0  0  0  0  0  0
  1  2  2  0
  2  3  1  0
  3  4  2  0
  4  5  1  0
  5  6  2  0
  5  7  1  0
  7  8  2  0
  8  9  1  0
  9 10  1  0
 10 11  1  0
 11 12  1  0
 12 13  1  0
 13 14  1  0
  6  1  1  0
 14 10  1  0
  9  4  1  0
  1 15  1  0
  2 16  1  0
  3 17  1  0
  6 18  1  0
  7 19  1  0
  8 20  1  0
 11 21  1  0
 11 22  1  0
 12 23  1  0
 12 24  1  0
 13 25  1  0
 13 26  1  0
 14 27  1  0
 14 28  1  0
M  CHG  1   7   1
M  END
>  <UniqueID>  (21) 
19

>  <SMILES>  (21) 
c1ccc2c(c1)[nH+]cn2N1CCCC1

>  <Energy>  (21) 
73.94200080919762

>  <Genealogy>  (21) 
c1ccc2c(c1)[nH+]cn2N1CCCC1 (protonated)
c1ccc2c(c1)[nH+]cn2N1CCCC1 (3D coordinates assigned)
c1ccc2c(c1)[nH+]cn2N1CCCC1 (nonaromatic ring conformer: 73.94200080919762 kcal/mol)

>  <smiles>  (21) 
c1ccc2c(c1)ncn2N1CCCC1

>  <score_type>  (21) 
oracle

>  <origin>  (21) 
adg

>  <m_score__min__energy>  (21) 
-4.4000000000000004

>  <m_primary>  (21) 
energy

$$$$
21:0
     RDKit          3D

 23 24  0  0  0  0  0  0  0  0999 V2000
   52.9523   30.3757   55.6029 H   0  0  0  0  0  0  0  0  0  0  0  0
   52.9000   30.4980   54.5110 C   0  0  0  0  0  0  0  0  0  0  0  0
   53.8810   29.8790   53.6840 C   0  0  0  0  0  0  0  0  0  0  0  0
   54.9270   29.1090   54.2110 O   0  0  0  0  0  0  0  0  0  0  0  0
   56.0990   28.7450   53.4890 C   0  0  0  0  0  0  0  0  0  0  0  0
   56.9030   28.4953   54.1969 H   0  0  0  0  0  0  0  0  0  0  0  0
   55.8833   27.8715   52.8561 H   0  0  0  0  0  0  0  0  0  0  0  0
   56.4161   29.5870   52.8561 H   0  0  0  0  0  0  0  0  0  0  0  0
   53.8110   30.0380   52.2850 C   0  0  0  0  0  0  0  0  0  0  0  0
   54.5564   29.5712   51.6243 H   0  0  0  0  0  0  0  0  0  0  0  0
   52.7710   30.8030   51.7640 C   0  0  0  0  0  0  0  0  0  0  0  0
   51.8350   31.3940   52.5600 C   0  0  0  0  0  0  0  0  0  0  0  0
   50.9430   32.0740   51.8150 N   0  0  0  0  0  0  0  0  0  0  0  0
   51.3970   31.8570   50.5500 C   0  0  0  0  0  0  0  0  0  0  0  0
   50.8210   32.3410   49.4910 N   0  0  0  0  0  0  0  0  0  0  0  0
   50.6390   31.5840   48.2590 C   0  0  0  0  0  0  0  0  0  0  0  0
   50.3883   30.5411   48.5031 H   0  0  0  0  0  0  0  0  0  0  0  0
   49.8224   32.0297   47.6720 H   0  0  0  0  0  0  0  0  0  0  0  0
   51.5689   31.6098   47.6720 H   0  0  0  0  0  0  0  0  0  0  0  0
   52.5090   31.0870   50.4830 N   0  0  0  0  0  0  0  0  0  0  0  0
   53.0370   30.7850   49.6330 H   0  0  0  0  0  0  0  0  0  0  0  0
   51.8640   31.2650   53.9440 C   0  0  0  0  0  0  0  0  0  0  0  0
   51.1026   31.7463   54.5754 H   0  0  0  0  0  0  0  0  0  0  0  0
  1  2  1  0
  2  3  2  0
  3  4  1  0
  4  5  1  0
  5  6  1  0
  5  7  1  0
  5  8  1  0
  3  9  1  0
  9 10  1  0
  9 11  2  0
 11 12  1  0
 12 13  1  0
 13 14  1  0
 14 15  2  0
 15 16  1  0
 16 17  1  0
 16 18  1  0
 16 19  1  0
 14 20  1  0
 20 21  1  0
 12 22  2  0
 22 23  1  0
 22  2  1  0
 20 11  1  0
M  CHG  1  13  -1
M  END
>  <UniqueID>  (22) 
20

>  <SMILES>  (22) 
C/N=c1\[n-]c2ccc(OC)cc2[nH]1

>  <Energy>  (22) 
57.80453491675908

>  <Genealogy>  (22) 
CN=c1[n-]c2ccc(OC)cc2[nH]1 (protonated)
C/N=c1\[n-]c2ccc(OC)cc2[nH]1 (cis-trans isomerization)
C/N=c1\[n-]c2ccc(OC)cc2[nH]1 (3D coordinates assigned)
C/N=c1\[n-]c2ccc(OC)cc2[nH]1 (optimized conformer: 57.80453491675908 kcal/mol)

>  <smiles>  (22) 
CN=c1[nH]c2ccc(OC)cc2[nH]1

>  <score_type>  (22) 
oracle

>  <origin>  (22) 
adg

>  <m_score__min__energy>  (22) 
-7

>  <m_primary>  (22) 
energy

$$$$
22:0
     RDKit          3D

 57 60  0  0  0  0  0  0  0  0999 V2000
   57.8040   31.5560   43.2540 C   0  0  0  0  0  0  0  0  0  0  0  0
   57.0440   30.5610   44.1290 C   0  0  0  0  0  0  0  0  0  0  0  0
   57.2590   29.0880   43.7220 C   0  0  0  0  0  0  0  0  0  0  0  0
   58.2140   28.2560   44.6230 C   0  0  1  0  0  0  0  0  0  0  0  0
   57.6050   26.8830   44.9170 C   0  0  0  0  0  0  0  0  0  0  0  0
   57.7600   25.7930   44.0310 C   0  0  0  0  0  0  0  0  0  0  0  0
   57.1870   24.5510   44.3230 C   0  0  0  0  0  0  0  0  0  0  0  0
   56.4490   24.3750   45.4940 C   0  0  0  0  0  0  0  0  0  0  0  0
   56.2790   25.4420   46.3760 C   0  0  0  0  0  0  0  0  0  0  0  0
   56.8490   26.6860   46.0920 C   0  0  0  0  0  0  0  0  0  0  0  0
   59.5330   28.1230   43.9900 N   0  0  0  0  0  0  0  0  0  0  0  0
   60.5050   28.6050   44.9090 C   0  0  0  0  0  0  0  0  0  0  0  0
   61.7380   28.6110   44.6580 O   0  0  0  0  0  0  0  0  0  0  0  0
   59.9490   29.0920   46.1190 N   0  0  0  0  0  0  0  0  0  0  0  0
   60.6710   29.7670   47.2080 C   0  0  0  0  0  0  0  0  0  0  0  0
   59.8470   29.7770   48.5220 C   0  0  0  0  0  0  0  0  0  0  0  0
   59.2380   31.1540   48.8330 C   0  0  0  0  0  0  0  0  0  0  0  0
   60.2520   32.2370   48.8620 N   0  0  0  0  0  0  0  0  0  0  0  0
   59.6620   33.5950   48.7610 C   0  0  0  0  0  0  0  0  0  0  0  0
   59.0800   33.9110   47.3950 C   0  0  0  0  0  0  0  0  0  0  0  0
   57.7970   33.4570   47.0370 C   0  0  0  0  0  0  0  0  0  0  0  0
   57.2490   33.7890   45.7950 C   0  0  0  0  0  0  0  0  0  0  0  0
   57.9840   34.5560   44.8880 C   0  0  0  0  0  0  0  0  0  0  0  0
   59.2730   34.9790   45.2160 C   0  0  0  0  0  0  0  0  0  0  0  0
   59.8240   34.6500   46.4570 C   0  0  0  0  0  0  0  0  0  0  0  0
   61.4420   32.0250   48.0060 C   0  0  0  0  0  0  0  0  0  0  0  0
   61.1190   31.1730   46.7750 C   0  0  0  0  0  0  0  0  0  0  0  0
   58.5440   28.9490   45.9240 C   0  0  0  0  0  0  0  0  0  0  0  0
   57.6840   29.3820   46.7340 O   0  0  0  0  0  0  0  0  0  0  0  0
   58.3470   32.2670   43.8940 H   0  0  0  0  0  0  0  0  0  0  0  0
   58.5199   31.0136   42.6189 H   0  0  0  0  0  0  0  0  0  0  0  0
   57.0924   32.1040   42.6189 H   0  0  0  0  0  0  0  0  0  0  0  0
   57.3790   30.6865   45.1692 H   0  0  0  0  0  0  0  0  0  0  0  0
   55.9724   30.7761   44.0048 H   0  0  0  0  0  0  0  0  0  0  0  0
   56.2770   28.5923   43.7272 H   0  0  0  0  0  0  0  0  0  0  0  0
   57.7447   29.1245   42.7357 H   0  0  0  0  0  0  0  0  0  0  0  0
   58.3366   25.9226   43.1032 H   0  0  0  0  0  0  0  0  0  0  0  0
   57.3187   23.7096   43.6268 H   0  0  0  0  0  0  0  0  0  0  0  0
   56.0019   23.3960   45.7213 H   0  0  0  0  0  0  0  0  0  0  0  0
   55.6947   25.3040   47.2977 H   0  0  0  0  0  0  0  0  0  0  0  0
   56.7066   27.5217   46.7929 H   0  0  0  0  0  0  0  0  0  0  0  0
   61.5825   29.1912   47.4261 H   0  0  0  0  0  0  0  0  0  0  0  0
   59.0314   29.0445   48.4310 H   0  0  0  0  0  0  0  0  0  0  0  0
   60.5323   29.5246   49.3446 H   0  0  0  0  0  0  0  0  0  0  0  0
   58.4921   31.3913   48.0601 H   0  0  0  0  0  0  0  0  0  0  0  0
   58.7844   31.0976   49.8335 H   0  0  0  0  0  0  0  0  0  0  0  0
   58.8592   33.6806   49.5081 H   0  0  0  0  0  0  0  0  0  0  0  0
   60.4778   34.3121   48.9349 H   0  0  0  0  0  0  0  0  0  0  0  0
   57.2214   32.8365   47.7396 H   0  0  0  0  0  0  0  0  0  0  0  0
   56.2377   33.4459   45.5314 H   0  0  0  0  0  0  0  0  0  0  0  0
   57.5470   34.8266   43.9155 H   0  0  0  0  0  0  0  0  0  0  0  0
   59.8560   35.5724   44.4963 H   0  0  0  0  0  0  0  0  0  0  0  0
   60.8470   34.9711   46.7025 H   0  0  0  0  0  0  0  0  0  0  0  0
   61.8180   33.0033   47.6720 H   0  0  0  0  0  0  0  0  0  0  0  0
   62.1973   31.4902   48.6006 H   0  0  0  0  0  0  0  0  0  0  0  0
   60.3109   31.6522   46.2028 H   0  0  0  0  0  0  0  0  0  0  0  0
   62.0202   31.0871   46.1501 H   0  0  0  0  0  0  0  0  0  0  0  0
  1  2  1  0
  2  3  1  0
  4  3  1  6
  4  5  1  0
  5  6  2  0
  6  7  1  0
  7  8  2  0
  8  9  1  0
  9 10  2  0
  4 11  1  0
 11 12  1  0
 12 13  2  0
 12 14  1  0
 14 15  1  0
 15 16  1  0
 16 17  1  0
 17 18  1  0
 18 19  1  0
 19 20  1  0
 20 21  2  0
 21 22  1  0
 22 23  2  0
 23 24  1  0
 24 25  2  0
 18 26  1  0
 26 27  1  0
 14 28  1  0
 28 29  2  0
 28  4  1  0
 10  5  1  0
 27 15  1  0
 25 20  1  0
  1 30  1  0
  1 31  1  0
  1 32  1  0
  2 33  1  0
  2 34  1  0
  3 35  1  0
  3 36  1  0
  6 37  1  0
  7 38  1  0
  8 39  1  0
  9 40  1  0
 10 41  1  0
 15 42  1  0
 16 43  1  0
 16 44  1  0
 17 45  1  0
 17 46  1  0
 19 47  1  0
 19 48  1  0
 21 49  1  0
 22 50  1  0
 23 51  1  0
 24 52  1  0
 25 53  1  0
 26 54  1  0
 26 55  1  0
 27 56  1  0
 27 57  1  0
M  CHG  1  11  -1
M  END
>  <UniqueID>  (23) 
21

>  <SMILES>  (23) 
CCC[C@@]1(c2ccccc2)[N-]C(=O)N(C2CCN(Cc3ccccc3)CC2)C1=O

>  <Energy>  (23) 
89.473008925268

>  <Genealogy>  (23) 
CCCC1(c2ccccc2)[N-]C(=O)N(C2CCN(Cc3ccccc3)CC2)C1=O (protonated)
CCC[C@@]1(c2ccccc2)[N-]C(=O)N(C2CCN(Cc3ccccc3)CC2)C1=O (chirality)
CCC[C@@]1(c2ccccc2)[N-]C(=O)N(C2CCN(Cc3ccccc3)CC2)C1=O (3D coordinates assigned)
CCC[C@@]1(c2ccccc2)[N-]C(=O)N(C2CCN(Cc3ccccc3)CC2)C1=O (nonaromatic ring conformer: 89.473008925268 kcal/mol)

>  <smiles>  (23) 
CCCC1(c2ccccc2)NC(=O)N(C2CCN(Cc3ccccc3)CC2)C1=O

>  <score_type>  (23) 
oracle

>  <origin>  (23) 
adg

>  <m_score__min__energy>  (23) 
-10.289999999999999

>  <m_primary>  (23) 
energy

$$$$
23:0
     RDKit          3D

 52 55  0  0  0  0  0  0  0  0999 V2000
   56.1460   29.9990   43.3590 C   0  0  0  0  0  0  0  0  0  0  0  0
   57.0750   31.0210   42.7650 C   0  0  0  0  0  0  0  0  0  0  0  0
   56.6880   31.6670   41.8000 O   0  0  0  0  0  0  0  0  0  0  0  0
   58.4100   31.2160   43.3110 N   0  0  2  0  0  0  0  0  0  0  0  0
   58.8810   30.0730   44.1400 C   0  0  0  0  0  0  0  0  0  0  0  0
   58.5150   30.2180   45.6400 C   0  0  1  0  0  0  0  0  0  0  0  0
   59.7100   30.6800   46.4590 C   0  0  0  0  0  0  0  0  0  0  0  0
   59.8790   31.9620   46.8440 C   0  0  0  0  0  0  0  0  0  0  0  0
   61.0570   32.3140   47.6760 C   0  0  0  0  0  0  0  0  0  0  0  0
   62.2340   32.7870   47.0750 C   0  0  0  0  0  0  0  0  0  0  0  0
   63.3420   33.1250   47.8540 C   0  0  0  0  0  0  0  0  0  0  0  0
   63.3000   33.0020   49.2560 C   0  0  0  0  0  0  0  0  0  0  0  0
   64.4920   33.3620   50.0740 C   0  0  0  0  0  0  0  0  0  0  0  0
   64.4670   34.1350   51.1510 C   0  0  0  0  0  0  0  0  0  0  0  0
   65.8110   34.3290   51.7470 C   0  0  0  0  0  0  0  0  0  0  0  0
   66.7250   33.4160   50.9310 C   0  0  0  0  0  0  0  0  0  0  0  0
   65.8820   32.9240   49.7530 C   0  0  0  0  0  0  0  0  0  0  0  0
   62.1210   32.5110   49.8530 C   0  0  0  0  0  0  0  0  0  0  0  0
   61.0140   32.1740   49.0710 C   0  0  0  0  0  0  0  0  0  0  0  0
   58.7850   32.9920   46.5710 C   0  0  1  0  0  0  0  0  0  0  0  0
   59.3060   34.4340   46.3410 C   0  0  0  0  0  0  0  0  0  0  0  0
   59.2870   35.1870   47.5230 O   0  0  0  0  0  0  0  0  0  0  0  0
   57.8400   32.4990   45.4370 C   0  0  1  0  0  0  0  0  0  0  0  0
   58.5140   32.5110   44.0230 C   0  0  0  0  0  0  0  0  0  0  0  0
   57.3850   31.1430   45.7740 N   0  0  0  0  0  0  0  0  0  0  0  0
   56.1950   30.0530   44.4566 H   0  0  0  0  0  0  0  0  0  0  0  0
   55.1170   30.2023   43.0275 H   0  0  0  0  0  0  0  0  0  0  0  0
   56.4462   28.9940   43.0275 H   0  0  0  0  0  0  0  0  0  0  0  0
   59.0650   31.2700   42.4930 H   0  0  0  0  0  0  0  0  0  0  0  0
   58.4232   29.1496   43.7556 H   0  0  0  0  0  0  0  0  0  0  0  0
   59.9786   30.0481   44.0711 H   0  0  0  0  0  0  0  0  0  0  0  0
   58.2210   29.2342   46.0345 H   0  0  0  0  0  0  0  0  0  0  0  0
   60.4683   29.9381   46.7497 H   0  0  0  0  0  0  0  0  0  0  0  0
   62.2837   32.8922   45.9812 H   0  0  0  0  0  0  0  0  0  0  0  0
   64.2579   33.4914   47.3672 H   0  0  0  0  0  0  0  0  0  0  0  0
   63.5489   34.5837   51.5582 H   0  0  0  0  0  0  0  0  0  0  0  0
   66.1286   35.3783   51.6573 H   0  0  0  0  0  0  0  0  0  0  0  0
   65.8314   34.0909   52.8207 H   0  0  0  0  0  0  0  0  0  0  0  0
   67.5998   33.9755   50.5683 H   0  0  0  0  0  0  0  0  0  0  0  0
   67.1029   32.5781   51.5352 H   0  0  0  0  0  0  0  0  0  0  0  0
   66.2253   33.3803   48.8128 H   0  0  0  0  0  0  0  0  0  0  0  0
   65.9543   31.8351   49.6151 H   0  0  0  0  0  0  0  0  0  0  0  0
   62.0725   32.3922   50.9455 H   0  0  0  0  0  0  0  0  0  0  0  0
   60.1006   31.7956   49.5532 H   0  0  0  0  0  0  0  0  0  0  0  0
   58.1952   33.0730   47.4960 H   0  0  0  0  0  0  0  0  0  0  0  0
   60.3391   34.3842   45.9667 H   0  0  0  0  0  0  0  0  0  0  0  0
   58.6454   34.9248   45.6112 H   0  0  0  0  0  0  0  0  0  0  0  0
   59.1410   36.1300   47.2480 H   0  0  0  0  0  0  0  0  0  0  0  0
   56.9917   33.1963   45.3725 H   0  0  0  0  0  0  0  0  0  0  0  0
   58.0277   33.2853   43.4114 H   0  0  0  0  0  0  0  0  0  0  0  0
   59.5845   32.7131   44.1751 H   0  0  0  0  0  0  0  0  0  0  0  0
   57.0210   31.1140   46.7570 H   0  0  0  0  0  0  0  0  0  0  0  0
  1  2  1  0
  2  3  2  0
  2  4  1  0
  4  5  1  0
  5  6  1  0
  6  7  1  0
  7  8  2  0
  8  9  1  0
  9 10  2  0
 10 11  1  0
 11 12  2  0
 12 13  1  0
 13 14  2  0
 14 15  1  0
 15 16  1  0
 16 17  1  0
 12 18  1  0
 18 19  2  0
  8 20  1  0
 20 21  1  0
 21 22  1  0
 20 23  1  0
 23 24  1  0
 23 25  1  0
 24  4  1  0
 25  6  1  0
 19  9  1  0
 17 13  1  0
  1 26  1  0
  1 27  1  0
  1 28  1  0
  4 29  1  6
  5 30  1  0
  5 31  1  0
  6 32  1  1
  7 33  1  0
 10 34  1  0
 11 35  1  0
 14 36  1  0
 15 37  1  0
 15 38  1  0
 16 39  1  0
 16 40  1  0
 17 41  1  0
 17 42  1  0
 18 43  1  0
 19 44  1  0
 20 45  1  1
 21 46  1  0
 21 47  1  0
 22 48  1  0
 23 49  1  6
 24 50  1  0
 24 51  1  0
 25 52  1  0
M  CHG  1   4   1
M  END
>  <UniqueID>  (24) 
22

>  <SMILES>  (24) 
CC(=O)[N@H+]1CC2N[C@H](C=C(c3ccc(C4=CCCC4)cc3)C2CO)C1

>  <Energy>  (24) 
84.32375455182017

>  <Genealogy>  (24) 
CC(=O)[NH+]1CC2C=C(c3ccc(C4=CCCC4)cc3)C(CO)C(C1)N2 (protonated)
CC(=O)[N@H+]1CC2N[C@H](C=C(c3ccc(C4=CCCC4)cc3)C2CO)C1 (chirality)
CC(=O)[N@H+]1CC2N[C@H](C=C(c3ccc(C4=CCCC4)cc3)C2CO)C1 (3D coordinates assigned)
CC(=O)[N@H+]1CC2N[C@H](C=C(c3ccc(C4=CCCC4)cc3)C2CO)C1 (nonaromatic ring conformer: 84.32375455182017 kcal/mol)

>  <smiles>  (24) 
CC(=O)N1CC2C=C(c3ccc(C4=CCCC4)cc3)C(CO)C(C1)N2

>  <score_type>  (24) 
oracle

>  <origin>  (24) 
adg

>  <m_score__min__energy>  (24) 
-7.0300000000000002

>  <m_primary>  (24) 
energy

$$$$
24:0
     RDKit          3D

 27 28  0  0  0  0  0  0  0  0999 V2000
   57.5570   33.1790   45.8100 C   0  0  0  0  0  0  0  0  0  0  0  0
   57.9860   32.7200   44.4200 C   0  0  0  0  0  0  0  0  0  0  0  0
   58.2150   31.2770   44.4020 N   0  0  0  0  0  0  0  0  0  0  0  0
   57.1550   30.3170   44.5330 C   0  0  0  0  0  0  0  0  0  0  0  0
   55.8360   30.4850   44.1460 C   0  0  0  0  0  0  0  0  0  0  0  0
   55.1390   29.4320   44.5130 O   0  0  0  0  0  0  0  0  0  0  0  0
   55.9420   28.5920   45.1250 C   0  0  0  0  0  0  0  0  0  0  0  0
   55.5310   27.3630   45.6250 O   0  0  0  0  0  0  0  0  0  0  0  0
   57.2320   29.0900   45.1740 C   0  0  0  0  0  0  0  0  0  0  0  0
   58.4220   28.4300   45.7500 C   0  0  0  0  0  0  0  0  0  0  0  0
   58.3410   27.7790   46.9940 C   0  0  0  0  0  0  0  0  0  0  0  0
   59.4640   27.1460   47.5340 C   0  0  0  0  0  0  0  0  0  0  0  0
   60.6750   27.1510   46.8370 C   0  0  0  0  0  0  0  0  0  0  0  0
   60.7630   27.7880   45.5970 C   0  0  0  0  0  0  0  0  0  0  0  0
   59.6430   28.4230   45.0520 C   0  0  0  0  0  0  0  0  0  0  0  0
   58.0992   32.5989   46.5713 H   0  0  0  0  0  0  0  0  0  0  0  0
   57.7874   34.2478   45.9305 H   0  0  0  0  0  0  0  0  0  0  0  0
   56.4751   33.0213   45.9305 H   0  0  0  0  0  0  0  0  0  0  0  0
   57.1954   32.9695   43.6970 H   0  0  0  0  0  0  0  0  0  0  0  0
   58.9225   33.2307   44.1516 H   0  0  0  0  0  0  0  0  0  0  0  0
   59.2010   30.9400   44.3510 H   0  0  0  0  0  0  0  0  0  0  0  0
   55.4347   31.3610   43.6154 H   0  0  0  0  0  0  0  0  0  0  0  0
   57.3889   27.7680   47.5448 H   0  0  0  0  0  0  0  0  0  0  0  0
   59.3943   26.6428   48.5097 H   0  0  0  0  0  0  0  0  0  0  0  0
   61.5582   26.6538   47.2644 H   0  0  0  0  0  0  0  0  0  0  0  0
   61.7161   27.7900   45.0478 H   0  0  0  0  0  0  0  0  0  0  0  0
   59.7171   28.9193   44.0731 H   0  0  0  0  0  0  0  0  0  0  0  0
  1  2  1  0
  2  3  1  0
  3  4  1  0
  4  5  2  0
  5  6  1  0
  6  7  1  0
  7  8  1  0
  7  9  2  0
  9 10  1  0
 10 11  2  0
 11 12  1  0
 12 13  2  0
 13 14  1  0
 14 15  2  0
  9  4  1  0
 15 10  1  0
  1 16  1  0
  1 17  1  0
  1 18  1  0
  2 19  1  0
  2 20  1  0
  3 21  1  0
  5 22  1  0
 11 23  1  0
 12 24  1  0
 13 25  1  0
 14 26  1  0
 15 27  1  0
M  CHG  1   8  -1
M  END
>  <UniqueID>  (25) 
23

>  <SMILES>  (25) 
CCNc1coc([O-])c1-c1ccccc1

>  <Energy>  (25) 
56.52323732627705

>  <Genealogy>  (25) 
CCNc1coc([O-])c1-c1ccccc1 (protonated)
CCNc1coc([O-])c1-c1ccccc1 (3D coordinates assigned)
CCNc1coc([O-])c1-c1ccccc1 (optimized conformer: 56.52323732627705 kcal/mol)

>  <smiles>  (25) 
CCNc1coc(O)c1-c1ccccc1

>  <score_type>  (25) 
oracle

>  <origin>  (25) 
adg

>  <m_score__min__energy>  (25) 
-7.8499999999999996

>  <m_primary>  (25) 
energy

$$$$
25:0
     RDKit          3D

 39 41  0  0  0  0  0  0  0  0999 V2000
   57.4923   33.4759   47.8591 H   0  0  0  0  0  0  0  0  0  0  0  0
   58.5640   33.4950   47.6120 C   0  0  0  0  0  0  0  0  0  0  0  0
   58.9710   33.4440   46.2730 C   0  0  0  0  0  0  0  0  0  0  0  0
   57.7660   33.3660   44.9920 S   0  0  0  0  0  0  0  0  0  0  0  0
   56.9000   34.5880   45.0970 O   0  0  0  0  0  0  0  0  0  0  0  0
   58.4120   33.3590   43.6360 O   0  0  0  0  0  0  0  0  0  0  0  0
   56.7510   31.9680   45.1710 N   0  0  0  0  0  0  0  0  0  0  0  0
   56.7470   30.8490   44.5030 C   0  0  0  0  0  0  0  0  0  0  0  0
   55.7010   30.4800   43.7990 O   0  0  0  0  0  0  0  0  0  0  0  0
   55.9170   29.3390   43.2180 N   0  0  0  0  0  0  0  0  0  0  0  0
   55.2340   28.8470   42.5990 H   0  0  0  0  0  0  0  0  0  0  0  0
   57.1560   28.9290   43.5410 C   0  0  0  0  0  0  0  0  0  0  0  0
   57.7790   27.6680   43.0310 C   0  0  0  0  0  0  0  0  0  0  0  0
   58.0883   27.0420   43.8810 H   0  0  0  0  0  0  0  0  0  0  0  0
   57.0482   27.1196   42.4185 H   0  0  0  0  0  0  0  0  0  0  0  0
   58.6586   27.9153   42.4185 H   0  0  0  0  0  0  0  0  0  0  0  0
   57.7400   29.8680   44.3820 C   0  0  0  0  0  0  0  0  0  0  0  0
   59.1520   29.8250   44.8860 C   0  0  0  0  0  0  0  0  0  0  0  0
   59.1488   29.8251   45.9860 H   0  0  0  0  0  0  0  0  0  0  0  0
   59.6440   28.9115   44.5208 H   0  0  0  0  0  0  0  0  0  0  0  0
   59.6987   30.7069   44.5208 H   0  0  0  0  0  0  0  0  0  0  0  0
   60.3380   33.4550   45.9590 C   0  0  0  0  0  0  0  0  0  0  0  0
   60.6596   33.4031   44.9083 H   0  0  0  0  0  0  0  0  0  0  0  0
   61.2960   33.5320   46.9800 C   0  0  0  0  0  0  0  0  0  0  0  0
   62.6650   33.5530   46.6750 C   0  0  0  0  0  0  0  0  0  0  0  0
   62.9934   33.5071   45.6262 H   0  0  0  0  0  0  0  0  0  0  0  0
   63.6130   33.6320   47.6980 C   0  0  0  0  0  0  0  0  0  0  0  0
   64.6845   33.6474   47.4499 H   0  0  0  0  0  0  0  0  0  0  0  0
   63.2060   33.6920   49.0450 C   0  0  0  0  0  0  0  0  0  0  0  0
   64.1230   33.7720   50.1050 O   0  0  0  0  0  0  0  0  0  0  0  0
   65.3120   32.9940   50.1990 C   0  0  0  0  0  0  0  0  0  0  0  0
   65.5609   32.8312   51.2580 H   0  0  0  0  0  0  0  0  0  0  0  0
   65.1550   32.0234   49.7058 H   0  0  0  0  0  0  0  0  0  0  0  0
   66.1386   33.5265   49.7058 H   0  0  0  0  0  0  0  0  0  0  0  0
   61.8400   33.6700   49.3510 C   0  0  0  0  0  0  0  0  0  0  0  0
   61.5161   33.7150   50.4013 H   0  0  0  0  0  0  0  0  0  0  0  0
   60.8800   33.5910   48.3300 C   0  0  0  0  0  0  0  0  0  0  0  0
   59.5120   33.5700   48.6360 C   0  0  0  0  0  0  0  0  0  0  0  0
   59.1839   33.6127   49.6851 H   0  0  0  0  0  0  0  0  0  0  0  0
  1  2  1  0
  2  3  2  0
  3  4  1  0
  4  5  2  0
  4  6  2  0
  4  7  1  0
  7  8  2  0
  8  9  1  0
  9 10  1  0
 10 11  1  0
 10 12  1  0
 12 13  1  0
 13 14  1  0
 13 15  1  0
 13 16  1  0
 12 17  2  0
 17 18  1  0
 18 19  1  0
 18 20  1  0
 18 21  1  0
  3 22  1  0
 22 23  1  0
 22 24  2  0
 24 25  1  0
 25 26  1  0
 25 27  2  0
 27 28  1  0
 27 29  1  0
 29 30  1  0
 30 31  1  0
 31 32  1  0
 31 33  1  0
 31 34  1  0
 29 35  2  0
 35 36  1  0
 35 37  1  0
 37 38  2  0
 38 39  1  0
 38  2  1  0
 17  8  1  0
 37 24  1  0
M  END
>  <UniqueID>  (26) 
24

>  <SMILES>  (26) 
COc1ccc2cc(S(=O)(=O)/N=c3/o[nH]c(C)c3C)ccc2c1

>  <Energy>  (26) 
83.23646701241438

>  <Genealogy>  (26) 
COc1ccc2cc(S(=O)(=O)/N=c3/o[nH]c(C)c3C)ccc2c1 (cis-trans isomerization)
COc1ccc2cc(S(=O)(=O)/N=c3/o[nH]c(C)c3C)ccc2c1 (3D coordinates assigned)
COc1ccc2cc(S(=O)(=O)/N=c3/o[nH]c(C)c3C)ccc2c1 (optimized conformer: 83.23646701241438 kcal/mol)

>  <smiles>  (26) 
COc1ccc2cc(S(=O)(=O)N=c3o[nH]c(C)c3C)ccc2c1

>  <score_type>  (26) 
oracle

>  <origin>  (26) 
adg

>  <m_score__min__energy>  (26) 
-9.1300000000000008

>  <m_primary>  (26) 
energy

$$$$
26:0
     RDKit          3D

 54 57  0  0  0  0  0  0  0  0999 V2000
   57.9380   30.5180   45.8360 F   0  0  0  0  0  0  0  0  0  0  0  0
   58.8710   30.1560   46.7530 C   0  0  0  0  0  0  0  0  0  0  0  0
   59.0910   28.8020   47.0560 C   0  0  0  0  0  0  0  0  0  0  0  0
   58.3950   27.7500   46.3600 N   0  0  0  0  0  0  0  0  0  0  0  0
   57.8970   27.9480   44.9920 C   0  0  0  0  0  0  0  0  0  0  0  0
   58.1730   26.7210   44.1020 C   0  0  0  0  0  0  0  0  0  0  0  0
   58.1500   25.3520   44.8460 C   0  0  0  0  0  0  0  0  0  0  0  0
   57.5670   24.2160   43.9450 C   0  0  0  0  0  0  0  0  0  0  0  0
   56.0240   24.3160   43.8020 C   0  0  0  0  0  0  0  0  0  0  0  0
   55.3570   22.9660   43.4680 C   0  0  0  0  0  0  0  0  0  0  0  0
   56.2650   22.0850   42.7270 N   0  0  0  0  0  0  0  0  0  0  0  0
   57.4310   21.6960   43.5390 C   0  0  0  0  0  0  0  0  0  0  0  0
   57.9340   22.8140   44.4800 C   0  0  0  0  0  0  0  0  0  0  0  0
   57.3930   25.4830   46.1860 C   0  0  0  0  0  0  0  0  0  0  0  0
   58.0940   26.5080   47.0830 C   0  0  0  0  0  0  0  0  0  0  0  0
   59.9560   28.4790   48.0540 N   0  0  0  0  0  0  0  0  0  0  0  0
   60.6280   29.4340   48.7460 C   0  0  0  0  0  0  0  0  0  0  0  0
   60.4430   30.7470   48.4520 N   0  0  0  0  0  0  0  0  0  0  0  0
   59.5760   31.1330   47.4740 C   0  0  0  0  0  0  0  0  0  0  0  0
   59.3910   32.5330   47.1970 N   0  0  0  0  0  0  0  0  0  0  0  0
   60.4930   33.4750   47.4100 C   0  0  0  0  0  0  0  0  0  0  0  0
   60.4090   34.6020   46.3770 C   0  0  0  0  0  0  0  0  0  0  0  0
   59.1210   35.1900   46.3760 O   0  0  0  0  0  0  0  0  0  0  0  0
   58.1590   34.2410   45.9510 C   0  0  0  0  0  0  0  0  0  0  0  0
   58.0570   33.0850   46.9530 C   0  0  0  0  0  0  0  0  0  0  0  0
   56.8119   28.1242   45.0297 H   0  0  0  0  0  0  0  0  0  0  0  0
   58.4218   28.8117   44.5577 H   0  0  0  0  0  0  0  0  0  0  0  0
   57.4084   26.6932   43.3117 H   0  0  0  0  0  0  0  0  0  0  0  0
   59.1952   26.8445   43.7149 H   0  0  0  0  0  0  0  0  0  0  0  0
   59.1866   25.0631   45.0738 H   0  0  0  0  0  0  0  0  0  0  0  0
   58.0239   24.3546   42.9540 H   0  0  0  0  0  0  0  0  0  0  0  0
   55.6081   24.6865   44.7506 H   0  0  0  0  0  0  0  0  0  0  0  0
   55.8164   24.9995   42.9655 H   0  0  0  0  0  0  0  0  0  0  0  0
   55.0646   22.4705   44.4055 H   0  0  0  0  0  0  0  0  0  0  0  0
   54.4775   23.1631   42.8374 H   0  0  0  0  0  0  0  0  0  0  0  0
   56.5940   22.5860   41.8670 H   0  0  0  0  0  0  0  0  0  0  0  0
   57.1528   20.8257   44.1515 H   0  0  0  0  0  0  0  0  0  0  0  0
   58.2497   21.4725   42.8392 H   0  0  0  0  0  0  0  0  0  0  0  0
   57.4763   22.6791   45.4711 H   0  0  0  0  0  0  0  0  0  0  0  0
   59.0302   22.7451   44.5407 H   0  0  0  0  0  0  0  0  0  0  0  0
   56.3619   25.8132   45.9916 H   0  0  0  0  0  0  0  0  0  0  0  0
   57.3816   24.5065   46.6924 H   0  0  0  0  0  0  0  0  0  0  0  0
   57.4392   26.7420   47.9354 H   0  0  0  0  0  0  0  0  0  0  0  0
   59.0447   26.0713   47.4228 H   0  0  0  0  0  0  0  0  0  0  0  0
   61.3241   29.1438   49.5468 H   0  0  0  0  0  0  0  0  0  0  0  0
   60.9850   31.4640   48.9850 H   0  0  0  0  0  0  0  0  0  0  0  0
   60.4218   33.8996   48.4223 H   0  0  0  0  0  0  0  0  0  0  0  0
   61.4521   32.9478   47.2998 H   0  0  0  0  0  0  0  0  0  0  0  0
   61.1562   35.3714   46.6215 H   0  0  0  0  0  0  0  0  0  0  0  0
   60.6043   34.1807   45.3798 H   0  0  0  0  0  0  0  0  0  0  0  0
   57.1789   34.7334   45.8671 H   0  0  0  0  0  0  0  0  0  0  0  0
   58.4684   33.8369   44.9759 H   0  0  0  0  0  0  0  0  0  0  0  0
   57.6346   33.4554   47.8987 H   0  0  0  0  0  0  0  0  0  0  0  0
   57.4043   32.3002   46.5430 H   0  0  0  0  0  0  0  0  0  0  0  0
  1  2  1  0
  2  3  2  0
  3  4  1  0
  4  5  1  0
  5  6  1  0
  6  7  1  0
  7  8  1  0
  8  9  1  0
  9 10  1  0
 10 11  1  0
 11 12  1  0
 12 13  1  0
  7 14  1  0
 14 15  1  0
  3 16  1  0
 16 17  2  0
 17 18  1  0
 18 19  2  0
 19 20  1  0
 20 21  1  0
 21 22  1  0
 22 23  1  0
 23 24  1  0
 24 25  1  0
 19  2  1  0
 25 20  1  0
 15  4  1  0
 13  8  1  0
  5 26  1  0
  5 27  1  0
  6 28  1  0
  6 29  1  0
  7 30  1  0
  8 31  1  0
  9 32  1  0
  9 33  1  0
 10 34  1  0
 10 35  1  0
 11 36  1  0
 12 37  1  0
 12 38  1  0
 13 39  1  0
 13 40  1  0
 14 41  1  0
 14 42  1  0
 15 43  1  0
 15 44  1  0
 17 45  1  0
 18 46  1  0
 21 47  1  0
 21 48  1  0
 22 49  1  0
 22 50  1  0
 24 51  1  0
 24 52  1  0
 25 53  1  0
 25 54  1  0
M  CHG  1  18   1
M  END
>  <UniqueID>  (27) 
25

>  <SMILES>  (27) 
Fc1c(N2CCC(C3CCNCC3)CC2)nc[nH+]c1N1CCOCC1

>  <Energy>  (27) 
73.22267495931455

>  <Genealogy>  (27) 
Fc1c(N2CCC(C3CCNCC3)CC2)nc[nH+]c1N1CCOCC1 (protonated)
Fc1c(N2CCC(C3CCNCC3)CC2)nc[nH+]c1N1CCOCC1 (3D coordinates assigned)
Fc1c(N2CCC(C3CCNCC3)CC2)nc[nH+]c1N1CCOCC1 (nonaromatic ring conformer: 73.22267495931455 kcal/mol)

>  <smiles>  (27) 
Fc1c(N2CCOCC2)ncnc1N1CCC(C2CCNCC2)CC1

>  <score_type>  (27) 
oracle

>  <origin>  (27) 
adg

>  <m_score__min__energy>  (27) 
-6.0899999999999999

>  <m_primary>  (27) 
energy

$$$$
27:0
     RDKit          3D

 39 40  0  0  0  0  0  0  0  0999 V2000
   56.2150   26.3250   46.0430 C   0  0  0  0  0  0  0  0  0  0  0  0
   57.6690   26.5110   45.6180 C   0  0  0  0  0  0  0  0  0  0  0  0
   57.7570   26.6560   44.1530 N   0  0  0  0  0  0  0  0  0  0  0  0
   58.6630   27.7400   43.7410 C   0  0  0  0  0  0  0  0  0  0  0  0
   58.2510   29.0480   44.3570 C   0  0  0  0  0  0  0  0  0  0  0  0
   57.1430   29.8210   44.0440 C   0  0  0  0  0  0  0  0  0  0  0  0
   56.1360   29.5490   42.9740 C   0  0  0  0  0  0  0  0  0  0  0  0
   57.0250   30.8230   44.9370 N   0  0  0  0  0  0  0  0  0  0  0  0
   58.0370   30.7310   45.7860 N   0  0  0  0  0  0  0  0  0  0  0  0
   58.1470   31.5670   46.9810 C   0  0  0  0  0  0  0  0  0  0  0  0
   58.6390   32.9400   46.6050 C   0  0  0  0  0  0  0  0  0  0  0  0
   58.4380   33.4420   45.3090 C   0  0  0  0  0  0  0  0  0  0  0  0
   58.9360   34.7010   44.9580 C   0  0  0  0  0  0  0  0  0  0  0  0
   59.6370   35.4650   45.8950 C   0  0  0  0  0  0  0  0  0  0  0  0
   59.8390   34.9720   47.1860 C   0  0  0  0  0  0  0  0  0  0  0  0
   59.3430   33.7140   47.5430 C   0  0  0  0  0  0  0  0  0  0  0  0
   58.8120   29.6710   45.4590 C   0  0  0  0  0  0  0  0  0  0  0  0
   59.9560   29.1510   46.2790 C   0  0  0  0  0  0  0  0  0  0  0  0
   56.1521   26.3170   47.1412 H   0  0  0  0  0  0  0  0  0  0  0  0
   55.6085   27.1529   45.6471 H   0  0  0  0  0  0  0  0  0  0  0  0
   55.8364   25.3711   45.6471 H   0  0  0  0  0  0  0  0  0  0  0  0
   58.0750   27.4139   46.0975 H   0  0  0  0  0  0  0  0  0  0  0  0
   58.2488   25.6287   45.9268 H   0  0  0  0  0  0  0  0  0  0  0  0
   56.8040   26.9020   43.7940 H   0  0  0  0  0  0  0  0  0  0  0  0
   59.6860   27.4964   44.0639 H   0  0  0  0  0  0  0  0  0  0  0  0
   58.6182   27.8380   42.6463 H   0  0  0  0  0  0  0  0  0  0  0  0
   55.1720   29.2886   43.4354 H   0  0  0  0  0  0  0  0  0  0  0  0
   56.0132   30.4462   42.3495 H   0  0  0  0  0  0  0  0  0  0  0  0
   56.4816   28.7120   42.3495 H   0  0  0  0  0  0  0  0  0  0  0  0
   57.1597   31.6518   47.4585 H   0  0  0  0  0  0  0  0  0  0  0  0
   58.8607   31.1063   47.6798 H   0  0  0  0  0  0  0  0  0  0  0  0
   57.8876   32.8436   44.5681 H   0  0  0  0  0  0  0  0  0  0  0  0
   58.7755   35.0908   43.9420 H   0  0  0  0  0  0  0  0  0  0  0  0
   60.0294   36.4540   45.6159 H   0  0  0  0  0  0  0  0  0  0  0  0
   60.3894   35.5744   47.9236 H   0  0  0  0  0  0  0  0  0  0  0  0
   59.5044   33.3294   48.5609 H   0  0  0  0  0  0  0  0  0  0  0  0
   59.7196   29.2585   47.3479 H   0  0  0  0  0  0  0  0  0  0  0  0
   60.1219   28.0890   46.0451 H   0  0  0  0  0  0  0  0  0  0  0  0
   60.8652   29.7243   46.0451 H   0  0  0  0  0  0  0  0  0  0  0  0
  1  2  1  0
  2  3  1  0
  3  4  1  0
  4  5  1  0
  5  6  1  0
  6  7  1  0
  6  8  2  0
  8  9  1  0
  9 10  1  0
 10 11  1  0
 11 12  2  0
 12 13  1  0
 13 14  2  0
 14 15  1  0
 15 16  2  0
  9 17  1  0
 17 18  1  0
 17  5  2  0
 16 11  1  0
  1 19  1  0
  1 20  1  0
  1 21  1  0
  2 22  1  0
  2 23  1  0
  3 24  1  0
  4 25  1  0
  4 26  1  0
  7 27  1  0
  7 28  1  0
  7 29  1  0
 10 30  1  0
 10 31  1  0
 12 32  1  0
 13 33  1  0
 14 34  1  0
 15 35  1  0
 16 36  1  0
 18 37  1  0
 18 38  1  0
 18 39  1  0
M  END
>  <UniqueID>  (28) 
26

>  <SMILES>  (28) 
CCNCc1c(C)nn(Cc2ccccc2)c1C

>  <Energy>  (28) 
60.99033858791977

>  <Genealogy>  (28) 
CCNCc1c(C)nn(Cc2ccccc2)c1C (3D coordinates assigned)
CCNCc1c(C)nn(Cc2ccccc2)c1C (optimized conformer: 60.99033858791977 kcal/mol)

>  <smiles>  (28) 
CCNCc1c(C)nn(Cc2ccccc2)c1C

>  <score_type>  (28) 
oracle

>  <origin>  (28) 
adg

>  <m_score__min__energy>  (28) 
-7.0599999999999996

>  <m_primary>  (28) 
energy

$$$$
28:0
     RDKit          3D

 43 46  0  0  0  0  0  0  0  0999 V2000
   57.9890   32.5490   43.1370 O   0  0  0  0  0  0  0  0  0  0  0  0
   57.5960   32.5910   44.5870 S   0  0  0  0  0  0  0  0  0  0  0  0
   56.6940   33.7730   44.8050 O   0  0  0  0  0  0  0  0  0  0  0  0
   56.7390   31.1390   44.9960 N   0  0  0  0  0  0  0  0  0  0  0  0
   57.3220   29.8320   45.0940 C   0  0  0  0  0  0  0  0  0  0  0  0
   57.7320   29.1070   43.9610 C   0  0  0  0  0  0  0  0  0  0  0  0
   58.2990   27.8380   44.1040 C   0  0  0  0  0  0  0  0  0  0  0  0
   58.4690   27.2750   45.3810 C   0  0  0  0  0  0  0  0  0  0  0  0
   59.0120   25.9950   45.5630 O   0  0  0  0  0  0  0  0  0  0  0  0
   58.4850   24.8080   45.0340 C   0  0  0  0  0  0  0  0  0  0  0  0
   57.3820   24.8850   44.1760 C   0  0  0  0  0  0  0  0  0  0  0  0
   56.8220   23.7230   43.6360 C   0  0  0  0  0  0  0  0  0  0  0  0
   57.3540   22.4720   43.9670 C   0  0  0  0  0  0  0  0  0  0  0  0
   56.6490   21.0130   43.2920 Cl  0  0  0  0  0  0  0  0  0  0  0  0
   58.4410   22.3840   44.8410 C   0  0  0  0  0  0  0  0  0  0  0  0
   59.0050   23.5460   45.3770 C   0  0  0  0  0  0  0  0  0  0  0  0
   58.0380   27.9880   46.5050 C   0  0  0  0  0  0  0  0  0  0  0  0
   57.4750   29.2610   46.3620 C   0  0  0  0  0  0  0  0  0  0  0  0
   59.0110   32.7610   45.6220 C   0  0  0  0  0  0  0  0  0  0  0  0
   59.5700   31.6260   46.2200 C   0  0  0  0  0  0  0  0  0  0  0  0
   60.6960   31.7420   47.0400 C   0  0  0  0  0  0  0  0  0  0  0  0
   61.2820   33.0020   47.2750 C   0  0  0  0  0  0  0  0  0  0  0  0
   62.4420   33.1430   48.1210 N   0  0  0  0  0  0  0  0  0  0  0  0
   63.7270   32.8680   47.8220 C   0  0  0  0  0  0  0  0  0  0  0  0
   64.5350   33.0990   48.8740 N   0  0  0  0  0  0  0  0  0  0  0  0
   63.6700   33.5280   49.8180 C   0  0  0  0  0  0  0  0  0  0  0  0
   62.3990   33.5550   49.3760 N   0  0  0  0  0  0  0  0  0  0  0  0
   60.7170   34.1360   46.6630 C   0  0  0  0  0  0  0  0  0  0  0  0
   59.5880   34.0170   45.8480 C   0  0  0  0  0  0  0  0  0  0  0  0
   57.6058   29.5407   42.9580 H   0  0  0  0  0  0  0  0  0  0  0  0
   58.6142   27.2762   43.2123 H   0  0  0  0  0  0  0  0  0  0  0  0
   56.9527   25.8661   43.9247 H   0  0  0  0  0  0  0  0  0  0  0  0
   55.9638   23.7924   42.9514 H   0  0  0  0  0  0  0  0  0  0  0  0
   58.8534   21.3997   45.1076 H   0  0  0  0  0  0  0  0  0  0  0  0
   59.8573   23.4734   46.0685 H   0  0  0  0  0  0  0  0  0  0  0  0
   58.1423   27.5454   47.5066 H   0  0  0  0  0  0  0  0  0  0  0  0
   57.1501   29.8172   47.2537 H   0  0  0  0  0  0  0  0  0  0  0  0
   59.1209   30.6374   46.0438 H   0  0  0  0  0  0  0  0  0  0  0  0
   61.1278   30.8436   47.5052 H   0  0  0  0  0  0  0  0  0  0  0  0
   64.0716   32.5017   46.8437 H   0  0  0  0  0  0  0  0  0  0  0  0
   63.9705   33.8224   50.8344 H   0  0  0  0  0  0  0  0  0  0  0  0
   61.1682   35.1256   46.8276 H   0  0  0  0  0  0  0  0  0  0  0  0
   59.1511   34.9128   45.3825 H   0  0  0  0  0  0  0  0  0  0  0  0
  1  2  2  0
  2  3  2  0
  2  4  1  0
  4  5  1  0
  5  6  2  0
  6  7  1  0
  7  8  2  0
  8  9  1  0
  9 10  1  0
 10 11  2  0
 11 12  1  0
 12 13  2  0
 13 14  1  0
 13 15  1  0
 15 16  2  0
  8 17  1  0
 17 18  2  0
  2 19  1  0
 19 20  2  0
 20 21  1  0
 21 22  2  0
 22 23  1  0
 23 24  1  0
 24 25  2  0
 25 26  1  0
 26 27  2  0
 22 28  1  0
 28 29  2  0
 18  5  1  0
 29 19  1  0
 16 10  1  0
 27 23  1  0
  6 30  1  0
  7 31  1  0
 11 32  1  0
 12 33  1  0
 15 34  1  0
 16 35  1  0
 17 36  1  0
 18 37  1  0
 20 38  1  0
 21 39  1  0
 24 40  1  0
 26 41  1  0
 28 42  1  0
 29 43  1  0
M  CHG  1   4  -1
M  END
>  <UniqueID>  (29) 
27

>  <SMILES>  (29) 
O=S(=O)([N-]c1ccc(Oc2ccc(Cl)cc2)cc1)c1ccc(-n2cncn2)cc1

>  <Energy>  (29) 
92.52056015615327

>  <Genealogy>  (29) 
O=S(=O)([N-]c1ccc(Oc2ccc(Cl)cc2)cc1)c1ccc(-n2cncn2)cc1 (protonated)
O=S(=O)([N-]c1ccc(Oc2ccc(Cl)cc2)cc1)c1ccc(-n2cncn2)cc1 (3D coordinates assigned)
O=S(=O)([N-]c1ccc(Oc2ccc(Cl)cc2)cc1)c1ccc(-n2cncn2)cc1 (optimized conformer: 92.52056015615327 kcal/mol)

>  <smiles>  (29) 
O=S(=O)(Nc1ccc(Oc2ccc(Cl)cc2)cc1)c1ccc(-n2cncn2)cc1

>  <score_type>  (29) 
oracle

>  <origin>  (29) 
adg

>  <m_score__min__energy>  (29) 
-9.2599999999999998

>  <m_primary>  (29) 
energy

$$$$
29:0
     RDKit          3D

 43 44  0  0  0  0  0  0  0  0999 V2000
   63.5450   33.1250   47.0500 C   0  0  0  0  0  0  0  0  0  0  0  0
   62.9630   32.4580   48.2940 C   0  0  0  0  0  0  0  0  0  0  0  0
   62.4480   33.4620   49.2400 N   0  0  0  0  0  0  0  0  0  0  0  0
   63.3850   34.2020   50.0940 C   0  0  0  0  0  0  0  0  0  0  0  0
   64.6360   33.3760   50.3710 C   0  0  0  0  0  0  0  0  0  0  0  0
   61.0300   33.6280   49.4380 C   0  0  0  0  0  0  0  0  0  0  0  0
   60.5760   33.7140   50.6120 O   0  0  0  0  0  0  0  0  0  0  0  0
   60.0950   33.7060   48.2960 C   0  0  0  0  0  0  0  0  0  0  0  0
   60.3510   34.5590   47.2120 C   0  0  0  0  0  0  0  0  0  0  0  0
   59.4480   34.6340   46.1520 C   0  0  0  0  0  0  0  0  0  0  0  0
   58.2780   33.8700   46.1930 C   0  0  0  0  0  0  0  0  0  0  0  0
   57.0910   33.9610   44.8520 S   0  0  0  0  0  0  0  0  0  0  0  0
   57.7640   32.5210   43.9440 C   0  0  0  0  0  0  0  0  0  0  0  0
   57.1990   31.2290   44.4690 C   0  0  0  0  0  0  0  0  0  0  0  0
   55.9450   31.0990   44.4990 O   0  0  0  0  0  0  0  0  0  0  0  0
   58.0610   30.1050   44.9270 C   0  0  0  0  0  0  0  0  0  0  0  0
   59.1810   30.3690   45.7400 C   0  0  0  0  0  0  0  0  0  0  0  0
   59.9960   29.3260   46.1880 C   0  0  0  0  0  0  0  0  0  0  0  0
   59.7120   28.0070   45.8270 C   0  0  0  0  0  0  0  0  0  0  0  0
   60.7410   26.7020   46.3870 Cl  0  0  0  0  0  0  0  0  0  0  0  0
   58.6060   27.7300   45.0200 C   0  0  0  0  0  0  0  0  0  0  0  0
   57.7830   28.7690   44.5730 C   0  0  0  0  0  0  0  0  0  0  0  0
   58.0370   33.0560   47.2550 N   0  0  0  0  0  0  0  0  0  0  0  0
   58.9050   32.9620   48.2970 C   0  0  0  0  0  0  0  0  0  0  0  0
   64.2403   33.9219   47.3525 H   0  0  0  0  0  0  0  0  0  0  0  0
   64.0837   32.3763   46.4506 H   0  0  0  0  0  0  0  0  0  0  0  0
   62.7303   33.5573   46.4506 H   0  0  0  0  0  0  0  0  0  0  0  0
   62.1407   31.7920   47.9935 H   0  0  0  0  0  0  0  0  0  0  0  0
   63.7609   31.8861   48.7904 H   0  0  0  0  0  0  0  0  0  0  0  0
   63.6740   35.1349   49.5878 H   0  0  0  0  0  0  0  0  0  0  0  0
   62.8898   34.4222   51.0512 H   0  0  0  0  0  0  0  0  0  0  0  0
   64.7796   33.2812   51.4574 H   0  0  0  0  0  0  0  0  0  0  0  0
   64.5206   32.3759   49.9277 H   0  0  0  0  0  0  0  0  0  0  0  0
   65.5104   33.8749   49.9277 H   0  0  0  0  0  0  0  0  0  0  0  0
   61.2657   35.1698   47.1982 H   0  0  0  0  0  0  0  0  0  0  0  0
   59.6543   35.2880   45.2919 H   0  0  0  0  0  0  0  0  0  0  0  0
   57.5071   32.6175   42.8788 H   0  0  0  0  0  0  0  0  0  0  0  0
   58.8552   32.5035   44.0819 H   0  0  0  0  0  0  0  0  0  0  0  0
   59.4160   31.4052   46.0246 H   0  0  0  0  0  0  0  0  0  0  0  0
   60.8642   29.5445   46.8271 H   0  0  0  0  0  0  0  0  0  0  0  0
   58.3815   26.6915   44.7351 H   0  0  0  0  0  0  0  0  0  0  0  0
   56.9122   28.5419   43.9404 H   0  0  0  0  0  0  0  0  0  0  0  0
   58.6737   32.3000   49.1445 H   0  0  0  0  0  0  0  0  0  0  0  0
  1  2  1  0
  2  3  1  0
  3  4  1  0
  4  5  1  0
  3  6  1  0
  6  7  2  0
  6  8  1  0
  8  9  2  0
  9 10  1  0
 10 11  2  0
 11 12  1  0
 12 13  1  0
 13 14  1  0
 14 15  2  0
 14 16  1  0
 16 17  2  0
 17 18  1  0
 18 19  2  0
 19 20  1  0
 19 21  1  0
 21 22  2  0
 11 23  1  0
 23 24  2  0
 24  8  1  0
 22 16  1  0
  1 25  1  0
  1 26  1  0
  1 27  1  0
  2 28  1  0
  2 29  1  0
  4 30  1  0
  4 31  1  0
  5 32  1  0
  5 33  1  0
  5 34  1  0
  9 35  1  0
 10 36  1  0
 13 37  1  0
 13 38  1  0
 17 39  1  0
 18 40  1  0
 21 41  1  0
 22 42  1  0
 24 43  1  0
M  END
>  <UniqueID>  (30) 
28

>  <SMILES>  (30) 
CCN(CC)C(=O)c1ccc(SCC(=O)c2ccc(Cl)cc2)nc1

>  <Energy>  (30) 
39.26471138934004

>  <Genealogy>  (30) 
CCN(CC)C(=O)c1ccc(SCC(=O)c2ccc(Cl)cc2)nc1 (3D coordinates assigned)
CCN(CC)C(=O)c1ccc(SCC(=O)c2ccc(Cl)cc2)nc1 (optimized conformer: 39.26471138934004 kcal/mol)

>  <smiles>  (30) 
CCN(CC)C(=O)c1ccc(SCC(=O)c2ccc(Cl)cc2)nc1

>  <score_type>  (30) 
oracle

>  <origin>  (30) 
adg

>  <m_score__min__energy>  (30) 
-8.4000000000000004

>  <m_primary>  (30) 
energy

$$$$
30:0
     RDKit          3D

 37 39  0  0  0  0  0  0  0  0999 V2000
   60.0740   29.8150   45.0470 O   0  0  0  0  0  0  0  0  0  0  0  0
   58.8320   29.8950   45.2500 C   0  0  0  0  0  0  0  0  0  0  0  0
   58.2020   31.1810   45.3700 N   0  0  0  0  0  0  0  0  0  0  0  0
   58.9160   32.4000   45.6400 C   0  0  0  0  0  0  0  0  0  0  0  0
   58.5010   33.6270   45.0920 C   0  0  0  0  0  0  0  0  0  0  0  0
   59.2340   34.7900   45.3360 C   0  0  0  0  0  0  0  0  0  0  0  0
   60.3870   34.7440   46.1230 C   0  0  0  0  0  0  0  0  0  0  0  0
   60.8150   33.5280   46.6850 C   0  0  0  0  0  0  0  0  0  0  0  0
   62.0920   33.4640   47.4840 C   0  0  0  0  0  0  0  0  0  0  0  0
   63.1640   33.9130   46.7310 F   0  0  0  0  0  0  0  0  0  0  0  0
   62.3260   32.1570   47.8660 F   0  0  0  0  0  0  0  0  0  0  0  0
   61.9990   34.2560   48.6160 F   0  0  0  0  0  0  0  0  0  0  0  0
   60.0880   32.3560   46.4110 C   0  0  0  0  0  0  0  0  0  0  0  0
   58.0350   28.6560   45.3180 C   0  0  0  0  0  0  0  0  0  0  0  0
   56.7070   28.5670   45.7020 C   0  0  0  0  0  0  0  0  0  0  0  0
   56.3820   27.2320   45.6020 C   0  0  0  0  0  0  0  0  0  0  0  0
   55.1430   26.6980   45.9380 O   0  0  0  0  0  0  0  0  0  0  0  0
   57.4350   26.5050   45.1700 N   0  0  0  0  0  0  0  0  0  0  0  0
   57.4850   25.0840   44.9400 C   0  0  0  0  0  0  0  0  0  0  0  0
   58.3780   24.2790   45.6700 C   0  0  0  0  0  0  0  0  0  0  0  0
   58.4340   22.9000   45.4440 C   0  0  0  0  0  0  0  0  0  0  0  0
   57.6050   22.3120   44.4850 C   0  0  0  0  0  0  0  0  0  0  0  0
   56.7210   23.1030   43.7480 C   0  0  0  0  0  0  0  0  0  0  0  0
   56.6620   24.4830   43.9700 C   0  0  0  0  0  0  0  0  0  0  0  0
   58.4530   27.3740   44.9980 C   0  0  0  0  0  0  0  0  0  0  0  0
   57.1830   31.2540   45.1490 H   0  0  0  0  0  0  0  0  0  0  0  0
   57.5956   33.6706   44.4689 H   0  0  0  0  0  0  0  0  0  0  0  0
   58.9020   35.7467   44.9065 H   0  0  0  0  0  0  0  0  0  0  0  0
   60.9631   35.6634   46.3041 H   0  0  0  0  0  0  0  0  0  0  0  0
   60.4423   31.3924   46.8059 H   0  0  0  0  0  0  0  0  0  0  0  0
   56.0498   29.3898   46.0201 H   0  0  0  0  0  0  0  0  0  0  0  0
   59.0362   24.7368   46.4231 H   0  0  0  0  0  0  0  0  0  0  0  0
   59.1321   22.2769   46.0224 H   0  0  0  0  0  0  0  0  0  0  0  0
   57.6487   21.2268   44.3107 H   0  0  0  0  0  0  0  0  0  0  0  0
   56.0700   22.6402   42.9917 H   0  0  0  0  0  0  0  0  0  0  0  0
   55.9679   25.1020   43.3826 H   0  0  0  0  0  0  0  0  0  0  0  0
   59.4631   27.1051   44.6552 H   0  0  0  0  0  0  0  0  0  0  0  0
  1  2  2  0
  2  3  1  0
  3  4  1  0
  4  5  2  0
  5  6  1  0
  6  7  2  0
  7  8  1  0
  8  9  1  0
  9 10  1  0
  9 11  1  0
  9 12  1  0
  8 13  2  0
  2 14  1  0
 14 15  1  0
 15 16  2  0
 16 17  1  0
 16 18  1  0
 18 19  1  0
 19 20  2  0
 20 21  1  0
 21 22  2  0
 22 23  1  0
 23 24  2  0
 18 25  1  0
 13  4  1  0
 25 14  2  0
 24 19  1  0
  3 26  1  0
  5 27  1  0
  6 28  1  0
  7 29  1  0
 13 30  1  0
 15 31  1  0
 20 32  1  0
 21 33  1  0
 22 34  1  0
 23 35  1  0
 24 36  1  0
 25 37  1  0
M  CHG  1  17  -1
M  END
>  <UniqueID>  (31) 
29

>  <SMILES>  (31) 
O=C(Nc1cccc(C(F)(F)F)c1)c1cc([O-])n(-c2ccccc2)c1

>  <Energy>  (31) 
75.44655582275011

>  <Genealogy>  (31) 
O=C(Nc1cccc(C(F)(F)F)c1)c1cc([O-])n(-c2ccccc2)c1 (protonated)
O=C(Nc1cccc(C(F)(F)F)c1)c1cc([O-])n(-c2ccccc2)c1 (3D coordinates assigned)
O=C(Nc1cccc(C(F)(F)F)c1)c1cc([O-])n(-c2ccccc2)c1 (optimized conformer: 75.44655582275011 kcal/mol)

>  <smiles>  (31) 
O=C(Nc1cccc(C(F)(F)F)c1)c1cc(O)n(-c2ccccc2)c1

>  <score_type>  (31) 
oracle

>  <origin>  (31) 
adg

>  <m_score__min__energy>  (31) 
-9.9900000000000002

>  <m_primary>  (31) 
energy

$$$$
31:0
     RDKit          3D

 61 62  0  0  0  0  0  0  0  0999 V2000
   60.7440   30.1080   48.4440 C   0  0  0  0  0  0  0  0  0  0  0  0
   61.1630   30.5480   47.0450 C   0  0  0  0  0  0  0  0  0  0  0  0
   60.1260   30.1280   45.9980 C   0  0  0  0  0  0  0  0  0  0  0  0
   60.5810   28.8640   45.2510 C   0  0  0  0  0  0  0  0  0  0  0  0
   59.8910   27.5920   45.7670 C   0  0  0  0  0  0  0  0  0  0  0  0
   58.5110   27.3650   45.1310 C   0  0  0  0  0  0  0  0  0  0  0  0
   57.4470   28.2480   45.7970 C   0  0  0  0  0  0  0  0  0  0  0  0
   56.6760   29.1130   44.7870 C   0  0  0  0  0  0  0  0  0  0  0  0
   57.5970   29.7650   43.7410 C   0  0  0  0  0  0  0  0  0  0  0  0
   57.0490   31.1050   43.2020 C   0  0  0  0  0  0  0  0  0  0  0  0
   57.9730   32.3150   43.4520 C   0  0  0  0  0  0  0  0  0  0  0  0
   57.3800   33.3990   44.3670 C   0  0  0  0  0  0  0  0  0  0  0  0
   58.2040   33.6170   45.6120 C   0  0  0  0  0  0  0  0  0  0  0  0
   59.1460   34.6570   45.6720 C   0  0  0  0  0  0  0  0  0  0  0  0
   59.9190   34.8440   46.8210 C   0  0  0  0  0  0  0  0  0  0  0  0
   59.7700   33.9880   47.9230 C   0  0  0  0  0  0  0  0  0  0  0  0
   60.5790   34.2090   49.1730 C   0  0  0  0  0  0  0  0  0  0  0  0
   62.0000   33.7650   48.9600 C   0  0  0  0  0  0  0  0  0  0  0  0
   62.8840   33.6730   50.0440 C   0  0  0  0  0  0  0  0  0  0  0  0
   64.2100   33.2900   49.8210 C   0  0  0  0  0  0  0  0  0  0  0  0
   64.6400   33.0170   48.5590 N   0  0  0  0  0  0  0  0  0  0  0  0
   63.8050   33.1120   47.4890 C   0  0  0  0  0  0  0  0  0  0  0  0
   62.4720   33.4910   47.6680 C   0  0  0  0  0  0  0  0  0  0  0  0
   58.8170   32.9580   47.8710 C   0  0  0  0  0  0  0  0  0  0  0  0
   58.0420   32.7740   46.7230 C   0  0  0  0  0  0  0  0  0  0  0  0
   61.2993   30.6911   49.1934 H   0  0  0  0  0  0  0  0  0  0  0  0
   59.6649   30.2772   48.5738 H   0  0  0  0  0  0  0  0  0  0  0  0
   60.9657   29.0384   48.5738 H   0  0  0  0  0  0  0  0  0  0  0  0
   61.2657   31.6431   47.0290 H   0  0  0  0  0  0  0  0  0  0  0  0
   62.1204   30.0649   46.8002 H   0  0  0  0  0  0  0  0  0  0  0  0
   59.1690   29.9243   46.5006 H   0  0  0  0  0  0  0  0  0  0  0  0
   60.0116   30.9444   45.2697 H   0  0  0  0  0  0  0  0  0  0  0  0
   60.3473   28.9829   44.1827 H   0  0  0  0  0  0  0  0  0  0  0  0
   61.6618   28.7484   45.4196 H   0  0  0  0  0  0  0  0  0  0  0  0
   60.5307   26.7271   45.5373 H   0  0  0  0  0  0  0  0  0  0  0  0
   59.7414   27.7119   46.8502 H   0  0  0  0  0  0  0  0  0  0  0  0
   58.5636   27.6107   44.0601 H   0  0  0  0  0  0  0  0  0  0  0  0
   58.2295   26.3109   45.2709 H   0  0  0  0  0  0  0  0  0  0  0  0
   56.7312   27.5997   46.3236 H   0  0  0  0  0  0  0  0  0  0  0  0
   57.9656   28.9281   46.4888 H   0  0  0  0  0  0  0  0  0  0  0  0
   55.9447   28.4780   44.2654 H   0  0  0  0  0  0  0  0  0  0  0  0
   56.1845   29.9216   45.3480 H   0  0  0  0  0  0  0  0  0  0  0  0
   58.5777   29.9488   44.2041 H   0  0  0  0  0  0  0  0  0  0  0  0
   57.6670   29.0729   42.8889 H   0  0  0  0  0  0  0  0  0  0  0  0
   56.8990   31.0044   42.1169 H   0  0  0  0  0  0  0  0  0  0  0  0
   56.1140   31.3048   43.7460 H   0  0  0  0  0  0  0  0  0  0  0  0
   58.9013   31.9474   43.9136 H   0  0  0  0  0  0  0  0  0  0  0  0
   58.1345   32.7896   42.4729 H   0  0  0  0  0  0  0  0  0  0  0  0
   57.3295   34.3445   43.8072 H   0  0  0  0  0  0  0  0  0  0  0  0
   56.3813   33.0619   44.6815 H   0  0  0  0  0  0  0  0  0  0  0  0
   59.2760   35.3279   44.8100 H   0  0  0  0  0  0  0  0  0  0  0  0
   60.6482   35.6666   46.8619 H   0  0  0  0  0  0  0  0  0  0  0  0
   60.5675   35.2789   49.4284 H   0  0  0  0  0  0  0  0  0  0  0  0
   60.1394   33.6214   49.9924 H   0  0  0  0  0  0  0  0  0  0  0  0
   62.5369   33.9005   51.0627 H   0  0  0  0  0  0  0  0  0  0  0  0
   64.9075   33.2091   50.6677 H   0  0  0  0  0  0  0  0  0  0  0  0
   65.6330   32.7330   48.4080 H   0  0  0  0  0  0  0  0  0  0  0  0
   64.1806   32.8896   46.4793 H   0  0  0  0  0  0  0  0  0  0  0  0
   61.7982   33.5738   46.8025 H   0  0  0  0  0  0  0  0  0  0  0  0
   58.6801   32.2937   48.7370 H   0  0  0  0  0  0  0  0  0  0  0  0
   57.2997   31.9629   46.6894 H   0  0  0  0  0  0  0  0  0  0  0  0
  1  2  1  0
  2  3  1  0
  3  4  1  0
  4  5  1  0
  5  6  1  0
  6  7  1  0
  7  8  1  0
  8  9  1  0
  9 10  1  0
 10 11  1  0
 11 12  1  0
 12 13  1  0
 13 14  2  0
 14 15  1  0
 15 16  2  0
 16 17  1  0
 17 18  1  0
 18 19  2  0
 19 20  1  0
 20 21  2  0
 21 22  1  0
 22 23  2  0
 16 24  1  0
 24 25  2  0
 25 13  1  0
 23 18  1  0
  1 26  1  0
  1 27  1  0
  1 28  1  0
  2 29  1  0
  2 30  1  0
  3 31  1  0
  3 32  1  0
  4 33  1  0
  4 34  1  0
  5 35  1  0
  5 36  1  0
  6 37  1  0
  6 38  1  0
  7 39  1  0
  7 40  1  0
  8 41  1  0
  8 42  1  0
  9 43  1  0
  9 44  1  0
 10 45  1  0
 10 46  1  0
 11 47  1  0
 11 48  1  0
 12 49  1  0
 12 50  1  0
 14 51  1  0
 15 52  1  0
 17 53  1  0
 17 54  1  0
 19 55  1  0
 20 56  1  0
 21 57  1  0
 22 58  1  0
 23 59  1  0
 24 60  1  0
 25 61  1  0
M  CHG  1  21   1
M  END
>  <UniqueID>  (32) 
30

>  <SMILES>  (32) 
CCCCCCCCCCCCc1ccc(Cc2cc[nH+]cc2)cc1

>  <Energy>  (32) 
40.66563319225631

>  <Genealogy>  (32) 
CCCCCCCCCCCCc1ccc(Cc2cc[nH+]cc2)cc1 (protonated)
CCCCCCCCCCCCc1ccc(Cc2cc[nH+]cc2)cc1 (3D coordinates assigned)
CCCCCCCCCCCCc1ccc(Cc2cc[nH+]cc2)cc1 (optimized conformer: 40.66563319225631 kcal/mol)

>  <smiles>  (32) 
CCCCCCCCCCCCc1ccc(Cc2ccncc2)cc1

>  <score_type>  (32) 
oracle

>  <origin>  (32) 
adg

>  <m_score__min__energy>  (32) 
-6.54

>  <m_primary>  (32) 
energy

$$$$
32:0
     RDKit          3D

 38 40  0  0  0  0  0  0  0  0999 V2000
   57.7240   32.1810   41.8610 Br  0  0  0  0  0  0  0  0  0  0  0  0
   57.7540   31.4290   43.6170 C   0  0  0  0  0  0  0  0  0  0  0  0
   57.3960   30.1060   43.7500 C   0  0  0  0  0  0  0  0  0  0  0  0
   57.3940   29.5000   44.9830 C   0  0  0  0  0  0  0  0  0  0  0  0
   57.0240   28.1360   45.1160 N   0  0  0  0  0  0  0  0  0  0  0  0
   57.6580   27.3270   46.1530 C   0  0  0  0  0  0  0  0  0  0  0  0
   56.8910   26.0650   46.3030 C   0  0  0  0  0  0  0  0  0  0  0  0
   57.4830   24.9130   46.8280 C   0  0  0  0  0  0  0  0  0  0  0  0
   56.5240   23.9670   46.8250 N   0  0  0  0  0  0  0  0  0  0  0  0
   55.3700   24.4840   46.3210 C   0  0  0  0  0  0  0  0  0  0  0  0
   55.6150   25.7870   46.0020 N   0  0  0  0  0  0  0  0  0  0  0  0
   57.7540   30.2350   46.0730 C   0  0  0  0  0  0  0  0  0  0  0  0
   58.1110   31.5570   45.9280 C   0  0  0  0  0  0  0  0  0  0  0  0
   58.1290   32.2140   44.7130 C   0  0  0  0  0  0  0  0  0  0  0  0
   58.4610   33.4890   44.4810 O   0  0  0  0  0  0  0  0  0  0  0  0
   59.4370   34.3650   44.8340 C   0  0  0  0  0  0  0  0  0  0  0  0
   60.0290   34.2380   46.1760 C   0  0  0  0  0  0  0  0  0  0  0  0
   59.2200   34.5950   47.2630 C   0  0  0  0  0  0  0  0  0  0  0  0
   59.6880   34.5270   48.5620 C   0  0  0  0  0  0  0  0  0  0  0  0
   60.9880   34.0960   48.8180 C   0  0  0  0  0  0  0  0  0  0  0  0
   61.7960   33.7410   47.7570 C   0  0  0  0  0  0  0  0  0  0  0  0
   61.2910   33.8230   46.4680 C   0  0  0  0  0  0  0  0  0  0  0  0
   57.1085   29.5280   42.8593 H   0  0  0  0  0  0  0  0  0  0  0  0
   56.3090   27.7270   44.4830 H   0  0  0  0  0  0  0  0  0  0  0  0
   58.6943   27.0988   45.8633 H   0  0  0  0  0  0  0  0  0  0  0  0
   57.6676   27.8768   47.1057 H   0  0  0  0  0  0  0  0  0  0  0  0
   58.5213   24.8014   47.1735 H   0  0  0  0  0  0  0  0  0  0  0  0
   56.6560   22.9960   47.1570 H   0  0  0  0  0  0  0  0  0  0  0  0
   54.4168   23.9498   46.1945 H   0  0  0  0  0  0  0  0  0  0  0  0
   57.7594   29.7712   47.0704 H   0  0  0  0  0  0  0  0  0  0  0  0
   58.3973   32.1203   46.8284 H   0  0  0  0  0  0  0  0  0  0  0  0
   60.2534   34.2559   44.1049 H   0  0  0  0  0  0  0  0  0  0  0  0
   58.9352   35.3438   44.8472 H   0  0  0  0  0  0  0  0  0  0  0  0
   58.1907   34.9366   47.0788 H   0  0  0  0  0  0  0  0  0  0  0  0
   59.0316   34.8142   49.3966 H   0  0  0  0  0  0  0  0  0  0  0  0
   61.3646   34.0395   49.8500 H   0  0  0  0  0  0  0  0  0  0  0  0
   62.8264   33.3977   47.9313 H   0  0  0  0  0  0  0  0  0  0  0  0
   61.9485   33.5361   45.6342 H   0  0  0  0  0  0  0  0  0  0  0  0
  1  2  1  0
  2  3  2  0
  3  4  1  0
  4  5  1  0
  5  6  1  0
  6  7  1  0
  7  8  2  0
  8  9  1  0
  9 10  1  0
 10 11  2  0
  4 12  2  0
 12 13  1  0
 13 14  2  0
 14 15  1  0
 15 16  1  0
 16 17  1  0
 17 18  2  0
 18 19  1  0
 19 20  2  0
 20 21  1  0
 21 22  2  0
 14  2  1  0
 22 17  1  0
 11  7  1  0
  3 23  1  0
  5 24  1  0
  6 25  1  0
  6 26  1  0
  8 27  1  0
  9 28  1  0
 10 29  1  0
 12 30  1  0
 13 31  1  0
 16 32  1  0
 16 33  1  0
 18 34  1  0
 19 35  1  0
 20 36  1  0
 21 37  1  0
 22 38  1  0
M  END
>  <smiles>  (33) 
Brc1cc(NCc2c[nH]cn2)ccc1OCc1ccccc1

>  <score_type>  (33) 
oracle

>  <origin>  (33) 
adg

>  <m_score__min__energy>  (33) 
-7.5

>  <m_primary>  (33) 
energy

$$$$
33:0
     RDKit          3D

 28 31  0  0  0  0  0  0  0  0999 V2000
   58.7790   23.5740   45.6090 C   0  0  0  0  0  0  0  0  0  0  0  0
   58.6860   22.3120   44.9910 C   0  0  0  0  0  0  0  0  0  0  0  0
   57.6550   22.1260   44.0780 C   0  0  0  0  0  0  0  0  0  0  0  0
   57.3390   21.0490   43.3520 N   0  0  0  0  0  0  0  0  0  0  0  0
   56.2930   21.3950   42.6470 O   0  0  0  0  0  0  0  0  0  0  0  0
   55.9000   22.6280   42.8590 N   0  0  0  0  0  0  0  0  0  0  0  0
   56.7660   23.1020   43.7730 C   0  0  0  0  0  0  0  0  0  0  0  0
   56.8200   24.3620   44.3560 C   0  0  0  0  0  0  0  0  0  0  0  0
   57.8470   24.6060   45.3040 C   0  0  0  0  0  0  0  0  0  0  0  0
   57.9810   25.9600   45.9650 C   0  0  1  0  0  0  0  0  0  0  0  0
   59.2710   26.7000   45.5350 C   0  0  0  0  0  0  0  0  0  0  0  0
   58.7720   27.8580   44.8140 N   0  0  0  0  0  0  0  0  0  0  0  0
   59.2950   29.2080   44.8920 C   0  0  0  0  0  0  0  0  0  0  0  0
   58.1780   30.1590   44.4210 C   0  0  0  0  0  0  0  0  0  0  0  0
   56.5340   29.3440   44.5700 S   0  0  0  0  0  0  0  0  0  0  0  0
   57.3800   27.8220   44.8780 C   0  0  0  0  0  0  0  0  0  0  0  0
   56.8910   26.8440   45.5550 N   0  0  0  0  0  0  0  0  0  0  0  0
   59.5818   23.7647   46.3364 H   0  0  0  0  0  0  0  0  0  0  0  0
   59.3996   21.5072   45.2213 H   0  0  0  0  0  0  0  0  0  0  0  0
   57.8120   20.1180   43.3340 H   0  0  0  0  0  0  0  0  0  0  0  0
   56.0919   25.1431   44.0918 H   0  0  0  0  0  0  0  0  0  0  0  0
   57.9819   25.7563   47.0460 H   0  0  0  0  0  0  0  0  0  0  0  0
   59.8597   27.0064   46.4122 H   0  0  0  0  0  0  0  0  0  0  0  0
   59.9427   26.0742   44.9290 H   0  0  0  0  0  0  0  0  0  0  0  0
   59.5775   29.4431   45.9288 H   0  0  0  0  0  0  0  0  0  0  0  0
   60.1904   29.3162   44.2622 H   0  0  0  0  0  0  0  0  0  0  0  0
   58.1897   31.0670   45.0417 H   0  0  0  0  0  0  0  0  0  0  0  0
   58.3525   30.4190   43.3665 H   0  0  0  0  0  0  0  0  0  0  0  0
  1  2  2  0
  2  3  1  0
  3  4  2  0
  4  5  1  0
  5  6  1  0
  6  7  2  0
  7  8  1  0
  8  9  2  0
  9 10  1  0
 10 11  1  0
 11 12  1  0
 12 13  1  0
 13 14  1  0
 14 15  1  0
 15 16  1  0
 16 17  2  0
  9  1  1  0
 17 10  1  0
  7  3  1  0
 16 12  1  0
  1 18  1  0
  2 19  1  0
  4 20  1  0
  8 21  1  0
 10 22  1  1
 11 23  1  0
 11 24  1  0
 13 25  1  0
 13 26  1  0
 14 27  1  0
 14 28  1  0
M  CHG  1   4   1
M  END
>  <UniqueID>  (34) 
31

>  <SMILES>  (34) 
c1cc2[nH+]onc2cc1[C@H]1CN2CCSC2=N1

>  <Energy>  (34) 
101.75439601770537

>  <Genealogy>  (34) 
c1cc2[nH+]onc2cc1C1CN2CCSC2=N1 (protonated)
c1cc2[nH+]onc2cc1[C@H]1CN2CCSC2=N1 (chirality)
c1cc2[nH+]onc2cc1[C@H]1CN2CCSC2=N1 (3D coordinates assigned)
c1cc2[nH+]onc2cc1[C@H]1CN2CCSC2=N1 (nonaromatic ring conformer: 101.75439601770537 kcal/mol)

>  <smiles>  (34) 
c1cc2nonc2cc1C1CN2CCSC2=N1

>  <score_type>  (34) 
oracle

>  <origin>  (34) 
adg

>  <m_score__min__energy>  (34) 
-6.5199999999999996

>  <m_primary>  (34) 
energy

$$$$
34:0
     RDKit          3D

 33 36  0  0  0  0  0  0  0  0999 V2000
   55.6260   28.8190   45.0490 O   0  0  0  0  0  0  0  0  0  0  0  0
   56.2020   29.8040   44.2530 C   0  0  0  0  0  0  0  0  0  0  0  0
   55.9620   29.9350   42.9620 O   0  0  0  0  0  0  0  0  0  0  0  0
   56.6640   30.9520   42.5030 C   0  0  0  0  0  0  0  0  0  0  0  0
   57.3820   31.4860   43.5490 C   0  0  0  0  0  0  0  0  0  0  0  0
   57.0940   30.7740   44.6700 C   0  0  0  0  0  0  0  0  0  0  0  0
   57.7540   31.0120   46.0000 C   0  0  1  0  0  0  0  0  0  0  0  0
   58.7010   29.8660   46.2990 C   0  0  0  0  0  0  0  0  0  0  0  0
   58.5290   29.0900   47.4580 C   0  0  0  0  0  0  0  0  0  0  0  0
   59.3940   28.0260   47.7320 C   0  0  0  0  0  0  0  0  0  0  0  0
   60.4350   27.7230   46.8520 C   0  0  0  0  0  0  0  0  0  0  0  0
   61.2710   26.6900   47.1220 F   0  0  0  0  0  0  0  0  0  0  0  0
   60.6120   28.4830   45.6920 C   0  0  0  0  0  0  0  0  0  0  0  0
   61.6200   28.1890   44.8330 F   0  0  0  0  0  0  0  0  0  0  0  0
   59.7500   29.5490   45.4140 C   0  0  0  0  0  0  0  0  0  0  0  0
   58.5090   32.3510   46.0190 C   0  0  0  0  0  0  0  0  0  0  0  0
   58.9860   32.8830   47.2410 C   0  0  0  0  0  0  0  0  0  0  0  0
   58.6670   32.0990   48.7860 Cl  0  0  0  0  0  0  0  0  0  0  0  0
   59.7280   34.0680   47.2520 C   0  0  0  0  0  0  0  0  0  0  0  0
   60.0060   34.7410   46.0630 C   0  0  0  0  0  0  0  0  0  0  0  0
   59.5330   34.2450   44.8500 C   0  0  0  0  0  0  0  0  0  0  0  0
   58.7820   33.0630   44.8100 C   0  0  0  0  0  0  0  0  0  0  0  0
   58.2600   32.6040   43.5510 N   0  0  0  0  0  0  0  0  0  0  0  0
   54.7300   28.9640   45.4950 H   0  0  0  0  0  0  0  0  0  0  0  0
   56.6742   31.3118   41.4636 H   0  0  0  0  0  0  0  0  0  0  0  0
   56.9760   31.0614   46.7760 H   0  0  0  0  0  0  0  0  0  0  0  0
   57.7090   29.3210   48.1538 H   0  0  0  0  0  0  0  0  0  0  0  0
   59.2540   27.4260   48.6433 H   0  0  0  0  0  0  0  0  0  0  0  0
   59.8921   30.1430   44.4992 H   0  0  0  0  0  0  0  0  0  0  0  0
   60.0955   34.4727   48.2066 H   0  0  0  0  0  0  0  0  0  0  0  0
   60.6005   35.6663   46.0827 H   0  0  0  0  0  0  0  0  0  0  0  0
   59.7508   34.7854   43.9170 H   0  0  0  0  0  0  0  0  0  0  0  0
   58.4600   33.1150   42.6610 H   0  0  0  0  0  0  0  0  0  0  0  0
  1  2  1  0
  2  3  1  0
  3  4  1  0
  4  5  2  0
  5  6  1  0
  6  7  1  0
  7  8  1  0
  8  9  2  0
  9 10  1  0
 10 11  2  0
 11 12  1  0
 11 13  1  0
 13 14  1  0
 13 15  2  0
  7 16  1  0
 16 17  2  0
 17 18  1  0
 17 19  1  0
 19 20  2  0
 20 21  1  0
 21 22  2  0
 22 23  1  0
  6  2  2  0
 15  8  1  0
 22 16  1  0
 23  5  1  0
  1 24  1  0
  4 25  1  0
  7 26  1  1
  9 27  1  0
 10 28  1  0
 15 29  1  0
 19 30  1  0
 20 31  1  0
 21 32  1  0
 23 33  1  0
M  END
>  <UniqueID>  (35) 
32

>  <SMILES>  (35) 
Oc1occ2c1[C@@H](c1ccc(F)c(F)c1)c1c(Cl)cccc1N2

>  <Energy>  (35) 
72.29919161629043

>  <Genealogy>  (35) 
Oc1occ2c1[C@@H](c1ccc(F)c(F)c1)c1c(Cl)cccc1N2 (chirality)
Oc1occ2c1[C@@H](c1ccc(F)c(F)c1)c1c(Cl)cccc1N2 (3D coordinates assigned)
Oc1occ2c1[C@@H](c1ccc(F)c(F)c1)c1c(Cl)cccc1N2 (nonaromatic ring conformer: 72.29919161629043 kcal/mol)

>  <smiles>  (35) 
Oc1occ2c1C(c1ccc(F)c(F)c1)c1c(Cl)cccc1N2

>  <score_type>  (35) 
oracle

>  <origin>  (35) 
adg

>  <m_score__min__energy>  (35) 
-8.1799999999999997

>  <m_primary>  (35) 
energy

$$$$
35:0
     RDKit          3D

 35 39  0  0  0  0  0  0  0  0999 V2000
   58.1150   28.2370   47.6860 O   0  0  0  0  0  0  0  0  0  0  0  0
   58.0080   27.6780   46.5610 C   0  0  0  0  0  0  0  0  0  0  0  0
   58.0130   28.4240   45.3560 C   0  0  0  0  0  0  0  0  0  0  0  0
   58.1790   29.9000   45.3400 C   0  0  0  0  0  0  0  0  0  0  0  0
   58.9490   30.6450   46.2440 C   0  0  0  0  0  0  0  0  0  0  0  0
   58.8940   32.0210   45.9950 C   0  0  0  0  0  0  0  0  0  0  0  0
   59.5580   33.0160   46.7170 C   0  0  0  0  0  0  0  0  0  0  0  0
   59.3940   34.3580   46.3310 C   0  0  0  0  0  0  0  0  0  0  0  0
   60.0280   35.3390   47.0180 F   0  0  0  0  0  0  0  0  0  0  0  0
   58.5750   34.6880   45.2320 C   0  0  0  0  0  0  0  0  0  0  0  0
   57.9140   33.6810   44.5130 C   0  0  0  0  0  0  0  0  0  0  0  0
   58.0930   32.3600   44.9170 C   0  0  0  0  0  0  0  0  0  0  0  0
   57.4370   30.9690   44.2500 S   0  0  0  0  0  0  0  0  0  0  0  0
   57.8500   27.7100   44.1430 C   0  0  0  0  0  0  0  0  0  0  0  0
   57.7050   26.3540   44.1410 N   0  0  0  0  0  0  0  0  0  0  0  0
   57.7250   25.6890   45.3190 C   0  0  0  0  0  0  0  0  0  0  0  0
   57.5720   24.3370   45.5530 C   0  0  0  0  0  0  0  0  0  0  0  0
   57.3760   23.2300   44.5850 C   0  0  0  0  0  0  0  0  0  0  0  0
   58.3770   22.2690   44.3820 C   0  0  0  0  0  0  0  0  0  0  0  0
   58.1860   21.2610   43.4920 N   0  0  0  0  0  0  0  0  0  0  0  0
   57.0350   21.1660   42.7790 C   0  0  0  0  0  0  0  0  0  0  0  0
   56.0530   22.0880   42.9480 N   0  0  0  0  0  0  0  0  0  0  0  0
   56.1980   23.1110   43.8300 C   0  0  0  0  0  0  0  0  0  0  0  0
   57.6280   24.2470   46.9460 C   0  0  0  0  0  0  0  0  0  0  0  0
   57.8070   25.4760   47.4870 N   0  0  0  0  0  0  0  0  0  0  0  0
   57.8620   26.3320   46.4810 N   0  0  0  0  0  0  0  0  0  0  0  0
   59.5334   30.1964   47.0609 H   0  0  0  0  0  0  0  0  0  0  0  0
   60.1979   32.7540   47.5725 H   0  0  0  0  0  0  0  0  0  0  0  0
   58.4536   35.7407   44.9367 H   0  0  0  0  0  0  0  0  0  0  0  0
   57.2723   33.9276   43.6543 H   0  0  0  0  0  0  0  0  0  0  0  0
   57.8403   28.2575   43.1890 H   0  0  0  0  0  0  0  0  0  0  0  0
   59.3197   22.3318   44.9453 H   0  0  0  0  0  0  0  0  0  0  0  0
   56.8978   20.3415   42.0639 H   0  0  0  0  0  0  0  0  0  0  0  0
   55.3907   23.8479   43.9531 H   0  0  0  0  0  0  0  0  0  0  0  0
   57.5395   23.3131   47.5205 H   0  0  0  0  0  0  0  0  0  0  0  0
  1  2  2  0
  2  3  1  0
  3  4  1  0
  4  5  2  0
  5  6  1  0
  6  7  2  0
  7  8  1  0
  8  9  1  0
  8 10  2  0
 10 11  1  0
 11 12  2  0
 12 13  1  0
  3 14  2  0
 14 15  1  0
 15 16  1  0
 16 17  2  0
 17 18  1  0
 18 19  2  0
 19 20  1  0
 20 21  2  0
 21 22  1  0
 22 23  2  0
 17 24  1  0
 24 25  2  0
 25 26  1  0
 26  2  1  0
 13  4  1  0
 26 16  1  0
 12  6  1  0
 23 18  1  0
  5 27  1  0
  7 28  1  0
 10 29  1  0
 11 30  1  0
 14 31  1  0
 19 32  1  0
 21 33  1  0
 23 34  1  0
 24 35  1  0
M  CHG  1  15  -1
M  END
>  <UniqueID>  (36) 
33

>  <SMILES>  (36) 
O=c1c(-c2cc3cc(F)ccc3s2)c[n-]c2c(-c3cncnc3)cnn12

>  <Energy>  (36) 
119.86801013201769

>  <Genealogy>  (36) 
O=c1c(-c2cc3cc(F)ccc3s2)c[n-]c2c(-c3cncnc3)cnn12 (protonated)
O=c1c(-c2cc3cc(F)ccc3s2)c[n-]c2c(-c3cncnc3)cnn12 (3D coordinates assigned)
O=c1c(-c2cc3cc(F)ccc3s2)c[n-]c2c(-c3cncnc3)cnn12 (optimized conformer: 119.86801013201769 kcal/mol)

>  <smiles>  (36) 
O=c1c(-c2cc3cc(F)ccc3s2)c[nH]c2c(-c3cncnc3)cnn12

>  <score_type>  (36) 
oracle

>  <origin>  (36) 
adg

>  <m_score__min__energy>  (36) 
-9.1300000000000008

>  <m_primary>  (36) 
energy

$$$$
36:0
     RDKit          3D

 42 45  0  0  0  0  0  0  0  0999 V2000
   56.3770   30.0530   42.7620 C   0  0  0  0  0  0  0  0  0  0  0  0
   57.0580   31.0760   42.1000 C   0  0  0  0  0  0  0  0  0  0  0  0
   57.7080   32.0740   42.8330 C   0  0  0  0  0  0  0  0  0  0  0  0
   57.6810   32.0620   44.2410 C   0  0  0  0  0  0  0  0  0  0  0  0
   58.3580   33.0980   44.9840 N   0  0  0  0  0  0  0  0  0  0  0  0
   58.7650   33.0450   46.2710 C   0  0  0  0  0  0  0  0  0  0  0  0
   59.3500   34.2520   46.5840 C   0  0  0  0  0  0  0  0  0  0  0  0
   59.9020   34.6800   47.9110 C   0  0  0  0  0  0  0  0  0  0  0  0
   61.3150   34.2660   48.0510 N   0  0  0  0  0  0  0  0  0  0  0  0
   61.7820   33.5480   46.8460 C   0  0  0  0  0  0  0  0  0  0  0  0
   63.2840   33.7630   46.6900 C   0  0  0  0  0  0  0  0  0  0  0  0
   64.0570   32.9580   47.6360 N   0  0  0  0  0  0  0  0  0  0  0  0
   64.0990   33.2540   49.0360 C   0  0  0  0  0  0  0  0  0  0  0  0
   65.3190   33.3880   49.6260 N   0  0  0  0  0  0  0  0  0  0  0  0
   65.4630   33.6580   50.9490 C   0  0  0  0  0  0  0  0  0  0  0  0
   64.3380   33.8110   51.7540 C   0  0  0  0  0  0  0  0  0  0  0  0
   63.0720   33.7030   51.1830 C   0  0  0  0  0  0  0  0  0  0  0  0
   62.9220   33.4280   49.8130 C   0  0  0  0  0  0  0  0  0  0  0  0
   61.5040   33.4350   49.2620 C   0  0  0  0  0  0  0  0  0  0  0  0
   59.2620   35.0120   45.4360 C   0  0  0  0  0  0  0  0  0  0  0  0
   58.6550   34.2870   44.4780 N   0  0  0  0  0  0  0  0  0  0  0  0
   56.9940   31.0190   44.8960 C   0  0  0  0  0  0  0  0  0  0  0  0
   56.3470   30.0240   44.1570 C   0  0  0  0  0  0  0  0  0  0  0  0
   55.8641   29.2699   42.1843 H   0  0  0  0  0  0  0  0  0  0  0  0
   57.0834   31.0972   41.0005 H   0  0  0  0  0  0  0  0  0  0  0  0
   58.2452   32.8756   42.3050 H   0  0  0  0  0  0  0  0  0  0  0  0
   58.6494   32.1876   46.9504 H   0  0  0  0  0  0  0  0  0  0  0  0
   59.8375   35.7751   47.9920 H   0  0  0  0  0  0  0  0  0  0  0  0
   59.3140   34.2014   48.7081 H   0  0  0  0  0  0  0  0  0  0  0  0
   61.5725   32.4734   46.9528 H   0  0  0  0  0  0  0  0  0  0  0  0
   61.2577   33.9319   45.9584 H   0  0  0  0  0  0  0  0  0  0  0  0
   63.5774   33.4864   45.6666 H   0  0  0  0  0  0  0  0  0  0  0  0
   63.4972   34.8227   46.8941 H   0  0  0  0  0  0  0  0  0  0  0  0
   64.2420   31.9690   47.3560 H   0  0  0  0  0  0  0  0  0  0  0  0
   66.4685   33.7558   51.3843 H   0  0  0  0  0  0  0  0  0  0  0  0
   64.4474   34.0150   52.8294 H   0  0  0  0  0  0  0  0  0  0  0  0
   62.1791   33.8345   51.8119 H   0  0  0  0  0  0  0  0  0  0  0  0
   61.2278   32.3996   49.0136 H   0  0  0  0  0  0  0  0  0  0  0  0
   60.8689   33.8765   50.0441 H   0  0  0  0  0  0  0  0  0  0  0  0
   59.6283   36.0429   45.3221 H   0  0  0  0  0  0  0  0  0  0  0  0
   56.9670   30.9881   45.9952 H   0  0  0  0  0  0  0  0  0  0  0  0
   55.8124   29.2154   44.6770 H   0  0  0  0  0  0  0  0  0  0  0  0
  1  2  2  0
  2  3  1  0
  3  4  2  0
  4  5  1  0
  5  6  1  0
  6  7  2  0
  7  8  1  0
  8  9  1  0
  9 10  1  0
 10 11  1  0
 11 12  1  0
 12 13  1  0
 13 14  2  0
 14 15  1  0
 15 16  2  0
 16 17  1  0
 17 18  2  0
 18 19  1  0
  7 20  1  0
 20 21  2  0
  4 22  1  0
 22 23  2  0
 23  1  1  0
 21  5  1  0
 19  9  1  0
 18 13  1  0
  1 24  1  0
  2 25  1  0
  3 26  1  0
  6 27  1  0
  8 28  1  0
  8 29  1  0
 10 30  1  0
 10 31  1  0
 11 32  1  0
 11 33  1  0
 12 34  1  0
 15 35  1  0
 16 36  1  0
 17 37  1  0
 19 38  1  0
 19 39  1  0
 20 40  1  0
 22 41  1  0
 23 42  1  0
M  END
>  <UniqueID>  (37) 
34

>  <SMILES>  (37) 
c1ccc(-n2cc(CN3CCNc4ncccc4C3)cn2)cc1

>  <Energy>  (37) 
92.93327230044397

>  <Genealogy>  (37) 
c1ccc(-n2cc(CN3CCNc4ncccc4C3)cn2)cc1 (3D coordinates assigned)
c1ccc(-n2cc(CN3CCNc4ncccc4C3)cn2)cc1 (nonaromatic ring conformer: 92.93327230044397 kcal/mol)

>  <smiles>  (37) 
c1ccc(-n2cc(CN3CCNc4ncccc4C3)cn2)cc1

>  <score_type>  (37) 
oracle

>  <origin>  (37) 
adg

>  <m_score__min__energy>  (37) 
-6.0599999999999996

>  <m_primary>  (37) 
energy

$$$$
37:0
     RDKit          3D

 34 37  0  0  0  0  0  0  0  0999 V2000
   56.4525   30.6549   52.8849 H   0  0  0  0  0  0  0  0  0  0  0  0
   57.1130   30.7460   52.0100 C   0  0  0  0  0  0  0  0  0  0  0  0
   57.8280   29.7210   51.4980 N   0  0  0  0  0  0  0  0  0  0  0  0
   58.4700   30.3000   50.4650 C   0  0  0  0  0  0  0  0  0  0  0  0
   59.1626   29.7739   49.7916 H   0  0  0  0  0  0  0  0  0  0  0  0
   58.1550   31.6070   50.3620 N   0  0  0  0  0  0  0  0  0  0  0  0
   58.6210   32.5620   49.3860 C   0  0  0  0  0  0  0  0  0  0  0  0
   59.5780   33.5240   49.7520 C   0  0  0  0  0  0  0  0  0  0  0  0
   59.9643   33.5413   50.7818 H   0  0  0  0  0  0  0  0  0  0  0  0
   60.0440   34.4570   48.8260 C   0  0  0  0  0  0  0  0  0  0  0  0
   60.7903   35.2055   49.1308 H   0  0  0  0  0  0  0  0  0  0  0  0
   59.5670   34.4450   47.5130 C   0  0  0  0  0  0  0  0  0  0  0  0
   60.0290   35.3610   46.6230 N   0  0  0  0  0  0  0  0  0  0  0  0
   59.5930   35.3950   45.3390 C   0  0  0  0  0  0  0  0  0  0  0  0
   59.9854   36.1551   44.6474 H   0  0  0  0  0  0  0  0  0  0  0  0
   58.6500   34.4710   44.8920 C   0  0  0  0  0  0  0  0  0  0  0  0
   58.2928   34.5096   43.8523 H   0  0  0  0  0  0  0  0  0  0  0  0
   58.1530   33.4860   45.7720 C   0  0  0  0  0  0  0  0  0  0  0  0
   57.2610   32.6080   45.3930 N   0  0  0  0  0  0  0  0  0  0  0  0
   57.4840   31.2670   44.9300 C   0  0  0  0  0  0  0  0  0  0  0  0
   56.5540   30.6830   44.0620 C   0  0  0  0  0  0  0  0  0  0  0  0
   55.6904   31.2670   43.7113 H   0  0  0  0  0  0  0  0  0  0  0  0
   56.7180   29.3610   43.6390 C   0  0  0  0  0  0  0  0  0  0  0  0
   55.9945   28.9143   42.9412 H   0  0  0  0  0  0  0  0  0  0  0  0
   57.8000   28.6050   44.1010 C   0  0  0  0  0  0  0  0  0  0  0  0
   57.9500   27.3220   43.6870 F   0  0  0  0  0  0  0  0  0  0  0  0
   58.7150   29.1710   44.9980 C   0  0  0  0  0  0  0  0  0  0  0  0
   60.0620   28.2250   45.6070 Cl  0  0  0  0  0  0  0  0  0  0  0  0
   58.5500   30.4950   45.4220 C   0  0  0  0  0  0  0  0  0  0  0  0
   59.2570   30.9322   46.1424 H   0  0  0  0  0  0  0  0  0  0  0  0
   58.6090   33.4830   47.1130 C   0  0  0  0  0  0  0  0  0  0  0  0
   58.1460   32.5460   48.0600 C   0  0  0  0  0  0  0  0  0  0  0  0
   57.4036   31.7922   47.7589 H   0  0  0  0  0  0  0  0  0  0  0  0
   57.3000   31.8910   51.3290 N   0  0  0  0  0  0  0  0  0  0  0  0
  1  2  1  0
  2  3  1  0
  3  4  2  0
  4  5  1  0
  4  6  1  0
  6  7  1  0
  7  8  2  0
  8  9  1  0
  8 10  1  0
 10 11  1  0
 10 12  2  0
 12 13  1  0
 13 14  1  0
 14 15  1  0
 14 16  2  0
 16 17  1  0
 16 18  1  0
 18 19  2  0
 19 20  1  0
 20 21  2  0
 21 22  1  0
 21 23  1  0
 23 24  1  0
 23 25  2  0
 25 26  1  0
 25 27  1  0
 27 28  1  0
 27 29  2  0
 29 30  1  0
 18 31  1  0
 31 32  2  0
 32 33  1  0
  6 34  1  0
 34  2  2  0
 32  7  1  0
 31 12  1  0
 29 20  1  0
M  CHG  1  13  -1
M  END
>  <UniqueID>  (38) 
35

>  <SMILES>  (38) 
Fc1ccc(/N=c2\cc[n-]c3ccc(-n4cncn4)cc23)cc1Cl

>  <Energy>  (38) 
89.05419102804129

>  <Genealogy>  (38) 
Fc1ccc(N=c2cc[n-]c3ccc(-n4cncn4)cc23)cc1Cl (protonated)
Fc1ccc(/N=c2\cc[n-]c3ccc(-n4cncn4)cc23)cc1Cl (cis-trans isomerization)
Fc1ccc(/N=c2\cc[n-]c3ccc(-n4cncn4)cc23)cc1Cl (3D coordinates assigned)
Fc1ccc(/N=c2\cc[n-]c3ccc(-n4cncn4)cc23)cc1Cl (optimized conformer: 89.05419102804129 kcal/mol)

>  <smiles>  (38) 
Fc1ccc(N=c2cc[nH]c3ccc(-n4cncn4)cc23)cc1Cl

>  <score_type>  (38) 
oracle

>  <origin>  (38) 
adg

>  <m_score__min__energy>  (38) 
-8.4399999999999995

>  <m_primary>  (38) 
energy

$$$$
38:0
     RDKit          3D

 38 40  0  0  1  0  0  0  0  0999 V2000
   60.6520   33.9030   46.3670 C   0  0  0  0  0  0  0  0  0  0  0  0
   59.4700   34.7760   45.9860 C   0  0  0  0  0  0  0  0  0  0  0  0
   58.1600   34.1270   46.3550 C   0  0  0  0  0  0  0  0  0  0  0  0
   57.3920   33.7800   45.0940 C   0  0  0  0  0  0  0  0  0  0  0  0
   58.0790   32.8530   44.2400 N   0  0  0  0  0  0  0  0  0  0  0  0
   57.6320   31.6670   44.0390 C   0  0  0  0  0  0  0  0  0  0  0  0
   57.0120   31.3050   42.9050 N   0  0  0  0  0  0  0  0  0  0  0  0
   56.5370   30.0700   42.6740 C   0  0  0  0  0  0  0  0  0  0  0  0
   56.6920   29.1430   43.6350 N   0  0  0  0  0  0  0  0  0  0  0  0
   57.3050   29.4250   44.8060 C   0  0  0  0  0  0  0  0  0  0  0  0
   57.7900   30.6980   45.0320 C   0  0  0  0  0  0  0  0  0  0  0  0
   58.3370   30.6800   46.2570 N   0  0  0  0  0  0  0  0  0  0  0  0
   58.1940   29.4250   46.7780 C   0  0  0  0  0  0  0  0  0  0  0  0
   57.5590   28.6380   45.8920 N   0  0  0  0  0  0  0  0  0  0  0  0
   57.1830   27.2610   45.9760 C   0  0  2  0  0  0  0  0  0  0  0  0
   57.7860   26.3800   44.9120 C   0  0  0  0  0  0  0  0  0  0  0  0
   56.8100   25.2100   44.9230 C   0  0  0  0  0  0  0  0  0  0  0  0
   55.8230   25.6130   45.9940 C   0  0  0  0  0  0  0  0  0  0  0  0
   55.8250   27.0140   45.8810 O   0  0  0  0  0  0  0  0  0  0  0  0
   60.7281   33.8468   47.4629 H   0  0  0  0  0  0  0  0  0  0  0  0
   60.5086   32.8924   45.9571 H   0  0  0  0  0  0  0  0  0  0  0  0
   61.5758   34.3373   45.9571 H   0  0  0  0  0  0  0  0  0  0  0  0
   59.5525   35.7384   46.5123 H   0  0  0  0  0  0  0  0  0  0  0  0
   59.4870   34.9222   44.8959 H   0  0  0  0  0  0  0  0  0  0  0  0
   58.3549   33.2093   46.9293 H   0  0  0  0  0  0  0  0  0  0  0  0
   57.5659   34.8235   46.9649 H   0  0  0  0  0  0  0  0  0  0  0  0
   56.4282   33.3366   45.3846 H   0  0  0  0  0  0  0  0  0  0  0  0
   57.2683   34.7129   44.5244 H   0  0  0  0  0  0  0  0  0  0  0  0
   56.8910   32.0240   42.1590 H   0  0  0  0  0  0  0  0  0  0  0  0
   56.0358   29.8244   41.7261 H   0  0  0  0  0  0  0  0  0  0  0  0
   58.5449   29.1070   47.7709 H   0  0  0  0  0  0  0  0  0  0  0  0
   57.5662   27.0204   46.9786 H   0  0  0  0  0  0  0  0  0  0  0  0
   57.8049   26.8822   43.9335 H   0  0  0  0  0  0  0  0  0  0  0  0
   58.8344   26.1002   45.0927 H   0  0  0  0  0  0  0  0  0  0  0  0
   56.3137   25.0979   43.9477 H   0  0  0  0  0  0  0  0  0  0  0  0
   57.2922   24.2402   45.1155 H   0  0  0  0  0  0  0  0  0  0  0  0
   54.8244   25.1973   45.7941 H   0  0  0  0  0  0  0  0  0  0  0  0
   56.0850   25.2487   46.9983 H   0  0  0  0  0  0  0  0  0  0  0  0
  1  2  1  0
  2  3  1  0
  3  4  1  0
  4  5  1  0
  5  6  2  0
  6  7  1  0
  7  8  1  0
  8  9  2  0
  9 10  1  0
 10 11  2  0
 11 12  1  0
 12 13  2  0
 13 14  1  0
 14 15  1  0
 15 16  1  0
 16 17  1  0
 17 18  1  0
 18 19  1  0
 11  6  1  0
 19 15  1  0
 14 10  1  0
  1 20  1  0
  1 21  1  0
  1 22  1  0
  2 23  1  0
  2 24  1  0
  3 25  1  0
  3 26  1  0
  4 27  1  0
  4 28  1  0
  7 29  1  0
  8 30  1  0
 13 31  1  0
 15 32  1  1
 16 33  1  0
 16 34  1  0
 17 35  1  0
 17 36  1  0
 18 37  1  0
 18 38  1  0
M  END
>  <smiles>  (39) 
CCCCN=c1[nH]cnc2c1ncn2C1CCCO1

>  <score_type>  (39) 
oracle

>  <origin>  (39) 
adg

>  <m_score__min__energy>  (39) 
-6.3700000000000001

>  <m_primary>  (39) 
energy

$$$$
39:0
     RDKit          3D

 46 50  0  0  0  0  0  0  0  0999 V2000
   65.3960   31.8570   50.3320 O   0  0  0  0  0  0  0  0  0  0  0  0
   64.9020   33.0030   50.1510 C   0  0  0  0  0  0  0  0  0  0  0  0
   65.3290   34.1100   50.9620 N   0  0  0  0  0  0  0  0  0  0  0  0
   66.5560   34.1250   51.7120 C   0  0  0  0  0  0  0  0  0  0  0  0
   67.7680   33.6830   51.1560 C   0  0  0  0  0  0  0  0  0  0  0  0
   68.9430   33.7370   51.9100 C   0  0  0  0  0  0  0  0  0  0  0  0
   68.9010   34.2450   53.2080 C   0  0  0  0  0  0  0  0  0  0  0  0
   67.7260   34.6890   53.7270 N   0  0  0  0  0  0  0  0  0  0  0  0
   66.5680   34.6470   53.0140 C   0  0  0  0  0  0  0  0  0  0  0  0
   63.8530   33.1750   49.1300 C   0  0  0  0  0  0  0  0  0  0  0  0
   62.4810   33.3710   49.3860 C   0  0  0  0  0  0  0  0  0  0  0  0
   61.8040   33.5110   48.1830 C   0  0  0  0  0  0  0  0  0  0  0  0
   62.5460   33.4360   47.0880 C   0  0  0  0  0  0  0  0  0  0  0  0
   61.8290   33.5720   45.9630 N   0  0  0  0  0  0  0  0  0  0  0  0
   60.5710   33.7400   46.4780 C   0  0  0  0  0  0  0  0  0  0  0  0
   60.5250   33.7020   47.8430 N   0  0  0  0  0  0  0  0  0  0  0  0
   59.3600   33.7870   48.7230 C   0  0  0  0  0  0  0  0  0  0  0  0
   58.3010   32.7680   48.2910 C   0  0  0  0  0  0  0  0  0  0  0  0
   57.4620   33.2510   47.1000 C   0  0  0  0  0  0  0  0  0  0  0  0
   58.1780   33.2320   45.8110 N   0  0  0  0  0  0  0  0  0  0  0  0
   57.8060   32.2670   44.8020 C   0  0  0  0  0  0  0  0  0  0  0  0
   57.5100   30.9420   45.1690 C   0  0  0  0  0  0  0  0  0  0  0  0
   57.1500   30.0000   44.2000 C   0  0  0  0  0  0  0  0  0  0  0  0
   57.0790   30.3720   42.8560 C   0  0  0  0  0  0  0  0  0  0  0  0
   57.3670   31.6850   42.4780 C   0  0  0  0  0  0  0  0  0  0  0  0
   57.7280   32.6300   43.4430 C   0  0  0  0  0  0  0  0  0  0  0  0
   59.3970   33.9720   45.6200 C   0  0  0  0  0  0  0  0  0  0  0  0
   59.4310   34.9010   44.7690 O   0  0  0  0  0  0  0  0  0  0  0  0
   64.1610   33.1890   47.4360 S   0  0  0  0  0  0  0  0  0  0  0  0
   64.6660   34.9060   51.0980 H   0  0  0  0  0  0  0  0  0  0  0  0
   67.7919   33.2945   50.1272 H   0  0  0  0  0  0  0  0  0  0  0  0
   69.8928   33.3820   51.4835 H   0  0  0  0  0  0  0  0  0  0  0  0
   69.8193   34.2864   53.8121 H   0  0  0  0  0  0  0  0  0  0  0  0
   65.6363   35.0243   53.4608 H   0  0  0  0  0  0  0  0  0  0  0  0
   62.0191   33.4073   50.3837 H   0  0  0  0  0  0  0  0  0  0  0  0
   59.6687   33.5752   49.7573 H   0  0  0  0  0  0  0  0  0  0  0  0
   58.9336   34.7991   48.6605 H   0  0  0  0  0  0  0  0  0  0  0  0
   58.8073   31.8333   48.0082 H   0  0  0  0  0  0  0  0  0  0  0  0
   57.6171   32.6208   49.1399 H   0  0  0  0  0  0  0  0  0  0  0  0
   56.5786   32.6013   47.0139 H   0  0  0  0  0  0  0  0  0  0  0  0
   57.2003   34.3002   47.3016 H   0  0  0  0  0  0  0  0  0  0  0  0
   57.5620   30.6442   46.2266 H   0  0  0  0  0  0  0  0  0  0  0  0
   56.9227   28.9655   44.4968 H   0  0  0  0  0  0  0  0  0  0  0  0
   56.7960   29.6303   42.0946 H   0  0  0  0  0  0  0  0  0  0  0  0
   57.3097   31.9764   41.4188 H   0  0  0  0  0  0  0  0  0  0  0  0
   57.9525   33.6632   43.1393 H   0  0  0  0  0  0  0  0  0  0  0  0
  1  2  2  0
  2  3  1  0
  3  4  1  0
  4  5  2  0
  5  6  1  0
  6  7  2  0
  7  8  1  0
  8  9  2  0
  2 10  1  0
 10 11  2  0
 11 12  1  0
 12 13  2  0
 13 14  1  0
 14 15  2  0
 15 16  1  0
 16 17  1  0
 17 18  1  0
 18 19  1  0
 19 20  1  0
 20 21  1  0
 21 22  2  0
 22 23  1  0
 23 24  2  0
 24 25  1  0
 25 26  2  0
 20 27  1  0
 27 28  2  0
 13 29  1  0
  9  4  1  0
 29 10  1  0
 16 12  1  0
 26 21  1  0
 27 15  1  0
  3 30  1  0
  5 31  1  0
  6 32  1  0
  7 33  1  0
  9 34  1  0
 11 35  1  0
 17 36  1  0
 17 37  1  0
 18 38  1  0
 18 39  1  0
 19 40  1  0
 19 41  1  0
 22 42  1  0
 23 43  1  0
 24 44  1  0
 25 45  1  0
 26 46  1  0
M  END
>  <UniqueID>  (40) 
36

>  <SMILES>  (40) 
O=C(Nc1cccnc1)c1cc2c(nc3n2CCCN(c2ccccc2)C3=O)s1

>  <Energy>  (40) 
148.27763247450056

>  <Genealogy>  (40) 
O=C(Nc1cccnc1)c1cc2c(nc3n2CCCN(c2ccccc2)C3=O)s1 (3D coordinates assigned)
O=C(Nc1cccnc1)c1cc2c(nc3n2CCCN(c2ccccc2)C3=O)s1 (nonaromatic ring conformer: 148.27763247450056 kcal/mol)

>  <smiles>  (40) 
O=C(Nc1cccnc1)c1cc2c(nc3n2CCCN(c2ccccc2)C3=O)s1

>  <score_type>  (40) 
oracle

>  <origin>  (40) 
adg

>  <m_score__min__energy>  (40) 
-6.7599999999999998

>  <m_primary>  (40) 
energy

$$$$
40:0
     RDKit          3D

 42 45  0  0  0  0  0  0  0  0999 V2000
   64.0735   30.9020   47.6587 H   0  0  0  0  0  0  0  0  0  0  0  0
   63.2630   31.6170   47.4540 C   0  0  0  0  0  0  0  0  0  0  0  0
   63.5670   32.9300   47.0840 C   0  0  0  0  0  0  0  0  0  0  0  0
   64.6165   33.2497   47.0042 H   0  0  0  0  0  0  0  0  0  0  0  0
   62.5370   33.8380   46.8150 C   0  0  0  0  0  0  0  0  0  0  0  0
   62.7793   34.8717   46.5272 H   0  0  0  0  0  0  0  0  0  0  0  0
   61.1950   33.4350   46.9110 C   0  0  0  0  0  0  0  0  0  0  0  0
   60.0880   34.4230   46.6670 C   0  0  0  0  0  0  0  0  0  0  0  0
   60.4818   35.2805   46.1017 H   0  0  0  0  0  0  0  0  0  0  0  0
   59.6891   34.7674   47.6325 H   0  0  0  0  0  0  0  0  0  0  0  0
   58.9930   33.7730   45.8840 C   0  0  0  0  0  0  0  0  0  0  0  0
   57.7920   32.7810   46.5320 S   0  0  0  0  0  0  0  0  0  0  0  0
   57.1900   32.3740   45.0190 C   0  0  0  0  0  0  0  0  0  0  0  0
   56.2000   31.5500   44.8420 N   0  0  0  0  0  0  0  0  0  0  0  0
   56.3280   30.1620   44.5030 C   0  0  0  0  0  0  0  0  0  0  0  0
   55.4270   29.3590   44.8640 O   0  0  0  0  0  0  0  0  0  0  0  0
   57.5530   29.6320   43.7980 C   0  0  0  0  0  0  0  0  0  0  0  0
   57.2534   28.8155   43.1246 H   0  0  0  0  0  0  0  0  0  0  0  0
   58.0108   30.4564   43.2316 H   0  0  0  0  0  0  0  0  0  0  0  0
   58.5660   29.1110   44.7780 C   0  0  0  0  0  0  0  0  0  0  0  0
   59.8690   29.5740   44.9320 C   0  0  0  0  0  0  0  0  0  0  0  0
   60.2946   30.4371   44.3991 H   0  0  0  0  0  0  0  0  0  0  0  0
   60.5390   28.8150   45.8280 N   0  0  0  0  0  0  0  0  0  0  0  0
   61.5310   28.9320   46.1270 H   0  0  0  0  0  0  0  0  0  0  0  0
   59.6710   27.8760   46.2420 C   0  0  0  0  0  0  0  0  0  0  0  0
   59.9120   26.8520   47.1570 C   0  0  0  0  0  0  0  0  0  0  0  0
   60.8939   26.7435   47.6408 H   0  0  0  0  0  0  0  0  0  0  0  0
   58.8620   25.9630   47.4420 C   0  0  0  0  0  0  0  0  0  0  0  0
   59.0179   25.1458   48.1617 H   0  0  0  0  0  0  0  0  0  0  0  0
   57.6070   26.1120   46.8100 C   0  0  0  0  0  0  0  0  0  0  0  0
   56.7939   25.4066   47.0363 H   0  0  0  0  0  0  0  0  0  0  0  0
   57.3910   27.1570   45.8930 C   0  0  0  0  0  0  0  0  0  0  0  0
   56.4156   27.2879   45.4017 H   0  0  0  0  0  0  0  0  0  0  0  0
   58.4540   28.0230   45.6260 C   0  0  0  0  0  0  0  0  0  0  0  0
   57.8730   32.9890   44.0230 N   0  0  0  0  0  0  0  0  0  0  0  0
   57.6530   32.9130   43.0070 H   0  0  0  0  0  0  0  0  0  0  0  0
   58.8870   33.7590   44.4970 C   0  0  0  0  0  0  0  0  0  0  0  0
   59.5659   34.3229   43.8404 H   0  0  0  0  0  0  0  0  0  0  0  0
   60.9000   32.1180   47.3020 C   0  0  0  0  0  0  0  0  0  0  0  0
   59.8522   31.7986   47.4023 H   0  0  0  0  0  0  0  0  0  0  0  0
   61.9310   31.2120   47.5640 C   0  0  0  0  0  0  0  0  0  0  0  0
   61.6933   30.1788   47.8572 H   0  0  0  0  0  0  0  0  0  0  0  0
  1  2  1  0
  2  3  2  0
  3  4  1  0
  3  5  1  0
  5  6  1  0
  5  7  2  0
  7  8  1  0
  8  9  1  0
  8 10  1  0
  8 11  1  0
 11 12  1  0
 12 13  1  0
 13 14  2  0
 14 15  1  0
 15 16  2  0
 15 17  1  0
 17 18  1  0
 17 19  1  0
 17 20  1  0
 20 21  2  0
 21 22  1  0
 21 23  1  0
 23 24  1  0
 23 25  1  0
 25 26  2  0
 26 27  1  0
 26 28  1  0
 28 29  1  0
 28 30  2  0
 30 31  1  0
 30 32  1  0
 32 33  1  0
 32 34  2  0
 13 35  1  0
 35 36  1  0
 35 37  1  0
 37 38  1  0
  7 39  1  0
 39 40  1  0
 39 41  2  0
 41 42  1  0
 41  2  1  0
 37 11  2  0
 34 20  1  0
 34 25  1  0
M  END
>  <UniqueID>  (41) 
37

>  <SMILES>  (41) 
O=C(Cc1c[nH]c2ccccc12)/N=c1\[nH]cc(Cc2ccccc2)s1

>  <Energy>  (41) 
109.39507243446617

>  <Genealogy>  (41) 
O=C(Cc1c[nH]c2ccccc12)/N=c1\[nH]cc(Cc2ccccc2)s1 (cis-trans isomerization)
O=C(Cc1c[nH]c2ccccc12)/N=c1\[nH]cc(Cc2ccccc2)s1 (3D coordinates assigned)
O=C(Cc1c[nH]c2ccccc12)/N=c1\[nH]cc(Cc2ccccc2)s1 (optimized conformer: 109.39507243446617 kcal/mol)

>  <smiles>  (41) 
O=C(Cc1c[nH]c2ccccc12)N=c1[nH]cc(Cc2ccccc2)s1

>  <score_type>  (41) 
oracle

>  <origin>  (41) 
adg

>  <m_score__min__energy>  (41) 
-9

>  <m_primary>  (41) 
energy

$$$$
41:0
     RDKit          3D

 26 28  0  0  0  0  0  0  0  0999 V2000
   55.8760   30.0860   45.6260 H   0  0  0  0  0  0  0  0  0  0  0  0
   56.6990   30.4310   45.0830 N   0  0  0  0  0  0  0  0  0  0  0  0
   57.7690   30.9000   45.6430 C   0  0  0  0  0  0  0  0  0  0  0  0
   58.5860   30.0610   46.4130 C   0  0  0  0  0  0  0  0  0  0  0  0
   58.3195   29.0018   46.5440 H   0  0  0  0  0  0  0  0  0  0  0  0
   59.7470   30.5750   47.0180 C   0  0  0  0  0  0  0  0  0  0  0  0
   60.3854   29.9081   47.6161 H   0  0  0  0  0  0  0  0  0  0  0  0
   60.0970   31.8940   46.8750 N   0  0  0  0  0  0  0  0  0  0  0  0
   61.2810   32.3750   47.5350 C   0  0  0  0  0  0  0  0  0  0  0  0
   62.5460   31.9030   47.1500 C   0  0  0  0  0  0  0  0  0  0  0  0
   62.6332   31.1716   46.3331 H   0  0  0  0  0  0  0  0  0  0  0  0
   63.6950   32.3600   47.8020 C   0  0  0  0  0  0  0  0  0  0  0  0
   64.6844   31.9911   47.4938 H   0  0  0  0  0  0  0  0  0  0  0  0
   63.5890   33.2850   48.8450 C   0  0  0  0  0  0  0  0  0  0  0  0
   64.7050   33.7260   49.4770 F   0  0  0  0  0  0  0  0  0  0  0  0
   62.3320   33.7510   49.2400 C   0  0  0  0  0  0  0  0  0  0  0  0
   62.2485   34.4763   50.0628 H   0  0  0  0  0  0  0  0  0  0  0  0
   61.1800   33.2960   48.5900 C   0  0  0  0  0  0  0  0  0  0  0  0
   60.1917   33.6609   48.9064 H   0  0  0  0  0  0  0  0  0  0  0  0
   59.3070   32.7190   46.1150 C   0  0  0  0  0  0  0  0  0  0  0  0
   59.5520   34.0760   45.8380 C   0  0  0  0  0  0  0  0  0  0  0  0
   60.4226   34.6271   46.2232 H   0  0  0  0  0  0  0  0  0  0  0  0
   58.5770   34.6490   45.0250 C   0  0  0  0  0  0  0  0  0  0  0  0
   58.5607   35.6960   44.6881 H   0  0  0  0  0  0  0  0  0  0  0  0
   57.4240   33.4770   44.6400 S   0  0  0  0  0  0  0  0  0  0  0  0
   58.1570   32.2360   45.5080 C   0  0  0  0  0  0  0  0  0  0  0  0
  1  2  1  0
  2  3  2  0
  3  4  1  0
  4  5  1  0
  4  6  2  0
  6  7  1  0
  6  8  1  0
  8  9  1  0
  9 10  2  0
 10 11  1  0
 10 12  1  0
 12 13  1  0
 12 14  2  0
 14 15  1  0
 14 16  1  0
 16 17  1  0
 16 18  2  0
 18 19  1  0
  8 20  1  0
 20 21  1  0
 21 22  1  0
 21 23  2  0
 23 24  1  0
 23 25  1  0
 25 26  1  0
 26  3  1  0
 18  9  1  0
 26 20  2  0
M  END
>  <UniqueID>  (42) 
38

>  <SMILES>  (42) 
[H]/N=c1/ccn(-c2ccc(F)cc2)c2ccsc12

>  <Energy>  (42) 
69.79895458146976

>  <Genealogy>  (42) 
[H]/N=c1/ccn(-c2ccc(F)cc2)c2ccsc12 (cis-trans isomerization)
[H]/N=c1/ccn(-c2ccc(F)cc2)c2ccsc12 (3D coordinates assigned)
[H]/N=c1/ccn(-c2ccc(F)cc2)c2ccsc12 (optimized conformer: 69.79895458146976 kcal/mol)

>  <smiles>  (42) 
N=c1ccn(-c2ccc(F)cc2)c2ccsc12

>  <score_type>  (42) 
oracle

>  <origin>  (42) 
adg

>  <m_score__min__energy>  (42) 
-6.2300000000000004

>  <m_primary>  (42) 
energy

$$$$
42:0
     RDKit          3D

 28 28  0  0  0  0  0  0  0  0999 V2000
   59.2750   34.9550   47.4820 C   0  0  0  0  0  0  0  0  0  0  0  0
   60.2970   34.4250   46.4770 C   0  0  0  0  0  0  0  0  0  0  0  0
   60.3440   32.9550   46.4980 N   0  0  0  0  0  0  0  0  0  0  0  0
   61.4850   32.2870   47.1480 C   0  0  0  0  0  0  0  0  0  0  0  0
   62.7290   33.1700   47.1040 C   0  0  0  0  0  0  0  0  0  0  0  0
   59.2860   32.1830   45.8840 C   0  0  0  0  0  0  0  0  0  0  0  0
   58.4000   32.7840   44.9730 C   0  0  0  0  0  0  0  0  0  0  0  0
   57.3700   32.0440   44.3870 C   0  0  0  0  0  0  0  0  0  0  0  0
   57.2040   30.6830   44.6950 C   0  0  0  0  0  0  0  0  0  0  0  0
   56.1440   29.9170   44.0920 N   0  0  0  0  0  0  0  0  0  0  0  0
   56.0970   29.7590   42.8540 O   0  0  0  0  0  0  0  0  0  0  0  0
   55.1650   29.3460   44.8720 O   0  0  0  0  0  0  0  0  0  0  0  0
   58.0900   30.0800   45.6010 C   0  0  0  0  0  0  0  0  0  0  0  0
   59.1200   30.8210   46.1900 C   0  0  0  0  0  0  0  0  0  0  0  0
   59.6352   34.7682   48.5044 H   0  0  0  0  0  0  0  0  0  0  0  0
   59.1405   36.0365   47.3325 H   0  0  0  0  0  0  0  0  0  0  0  0
   58.3136   34.4419   47.3325 H   0  0  0  0  0  0  0  0  0  0  0  0
   60.0170   34.7615   45.4679 H   0  0  0  0  0  0  0  0  0  0  0  0
   61.2900   34.8112   46.7505 H   0  0  0  0  0  0  0  0  0  0  0  0
   61.2294   32.0765   48.1970 H   0  0  0  0  0  0  0  0  0  0  0  0
   61.6983   31.3516   46.6099 H   0  0  0  0  0  0  0  0  0  0  0  0
   63.0523   33.3994   48.1301 H   0  0  0  0  0  0  0  0  0  0  0  0
   63.5355   32.6411   46.5751 H   0  0  0  0  0  0  0  0  0  0  0  0
   62.4958   34.1059   46.5751 H   0  0  0  0  0  0  0  0  0  0  0  0
   58.5189   33.8476   44.7190 H   0  0  0  0  0  0  0  0  0  0  0  0
   56.6834   32.5307   43.6787 H   0  0  0  0  0  0  0  0  0  0  0  0
   57.9735   29.0150   45.8503 H   0  0  0  0  0  0  0  0  0  0  0  0
   59.8059   30.3338   46.8986 H   0  0  0  0  0  0  0  0  0  0  0  0
  1  2  1  0
  2  3  1  0
  3  4  1  0
  4  5  1  0
  3  6  1  0
  6  7  2  0
  7  8  1  0
  8  9  2  0
  9 10  1  0
 10 11  2  0
 10 12  1  0
  9 13  1  0
 13 14  2  0
 14  6  1  0
  1 15  1  0
  1 16  1  0
  1 17  1  0
  2 18  1  0
  2 19  1  0
  4 20  1  0
  4 21  1  0
  5 22  1  0
  5 23  1  0
  5 24  1  0
  7 25  1  0
  8 26  1  0
 13 27  1  0
 14 28  1  0
M  CHG  2  10   1  12  -1
M  END
>  <UniqueID>  (43) 
39

>  <SMILES>  (43) 
CCN(CC)c1ccc([N+](=O)[O-])cc1

>  <Energy>  (43) 
24.66888929851892

>  <Genealogy>  (43) 
CCN(CC)c1ccc([N+](=O)[O-])cc1 (3D coordinates assigned)
CCN(CC)c1ccc([N+](=O)[O-])cc1 (optimized conformer: 24.66888929851892 kcal/mol)

>  <smiles>  (43) 
CCN(CC)c1ccc([N+](=O)[O-])cc1

>  <score_type>  (43) 
oracle

>  <origin>  (43) 
adg

>  <m_score__min__energy>  (43) 
-5.3399999999999999

>  <m_primary>  (43) 
energy

$$$$
43:0
     RDKit          3D

 31 33  0  0  0  0  0  0  0  0999 V2000
   59.8000   34.8530   49.3640 O   0  0  0  0  0  0  0  0  0  0  0  0
   60.3980   34.2240   48.4500 C   0  0  0  0  0  0  0  0  0  0  0  0
   61.8170   33.8510   48.6480 C   0  0  0  0  0  0  0  0  0  0  0  0
   62.3940   33.8450   49.9310 C   0  0  0  0  0  0  0  0  0  0  0  0
   63.7310   33.4720   50.1030 C   0  0  0  0  0  0  0  0  0  0  0  0
   64.5000   33.0930   49.0000 C   0  0  0  0  0  0  0  0  0  0  0  0
   63.9320   33.0770   47.7240 C   0  0  0  0  0  0  0  0  0  0  0  0
   62.5950   33.4480   47.5480 C   0  0  0  0  0  0  0  0  0  0  0  0
   59.6520   33.8650   47.2280 C   0  0  0  0  0  0  0  0  0  0  0  0
   59.0780   34.7670   46.3380 C   0  0  0  0  0  0  0  0  0  0  0  0
   58.3760   34.1560   45.2910 C   0  0  0  0  0  0  0  0  0  0  0  0
   58.3750   32.7610   45.3530 C   0  0  0  0  0  0  0  0  0  0  0  0
   57.7210   31.8260   44.4000 C   0  0  0  0  0  0  0  0  0  0  0  0
   57.1300   30.6340   44.8680 C   0  0  0  0  0  0  0  0  0  0  0  0
   56.5120   29.7510   43.9790 C   0  0  0  0  0  0  0  0  0  0  0  0
   56.4740   30.0410   42.6140 C   0  0  0  0  0  0  0  0  0  0  0  0
   57.0520   31.2180   42.1360 C   0  0  0  0  0  0  0  0  0  0  0  0
   57.6720   32.1070   43.0200 C   0  0  0  0  0  0  0  0  0  0  0  0
   59.2560   32.3100   46.7190 S   0  0  0  0  0  0  0  0  0  0  0  0
   61.7904   34.1352   50.8036 H   0  0  0  0  0  0  0  0  0  0  0  0
   64.1776   33.4771   51.1082 H   0  0  0  0  0  0  0  0  0  0  0  0
   65.5534   32.8070   49.1364 H   0  0  0  0  0  0  0  0  0  0  0  0
   64.5366   32.7724   46.8570 H   0  0  0  0  0  0  0  0  0  0  0  0
   62.1491   33.4244   46.5427 H   0  0  0  0  0  0  0  0  0  0  0  0
   59.1670   35.8580   46.4463 H   0  0  0  0  0  0  0  0  0  0  0  0
   57.8723   34.7226   44.4940 H   0  0  0  0  0  0  0  0  0  0  0  0
   57.1559   30.3976   45.9420 H   0  0  0  0  0  0  0  0  0  0  0  0
   56.0540   28.8245   44.3558 H   0  0  0  0  0  0  0  0  0  0  0  0
   55.9891   29.3427   41.9160 H   0  0  0  0  0  0  0  0  0  0  0  0
   57.0198   31.4472   41.0606 H   0  0  0  0  0  0  0  0  0  0  0  0
   58.1248   33.0326   42.6351 H   0  0  0  0  0  0  0  0  0  0  0  0
  1  2  2  0
  2  3  1  0
  3  4  2  0
  4  5  1  0
  5  6  2  0
  6  7  1  0
  7  8  2  0
  2  9  1  0
  9 10  2  0
 10 11  1  0
 11 12  2  0
 12 13  1  0
 13 14  2  0
 14 15  1  0
 15 16  2  0
 16 17  1  0
 17 18  2  0
 12 19  1  0
  8  3  1  0
 19  9  1  0
 18 13  1  0
  4 20  1  0
  5 21  1  0
  6 22  1  0
  7 23  1  0
  8 24  1  0
 10 25  1  0
 11 26  1  0
 14 27  1  0
 15 28  1  0
 16 29  1  0
 17 30  1  0
 18 31  1  0
M  END
>  <UniqueID>  (44) 
40

>  <SMILES>  (44) 
O=C(c1ccccc1)c1ccc(-c2ccccc2)s1

>  <Energy>  (44) 
66.86524768808768

>  <Genealogy>  (44) 
O=C(c1ccccc1)c1ccc(-c2ccccc2)s1 (3D coordinates assigned)
O=C(c1ccccc1)c1ccc(-c2ccccc2)s1 (optimized conformer: 66.86524768808768 kcal/mol)

>  <smiles>  (44) 
O=C(c1ccccc1)c1ccc(-c2ccccc2)s1

>  <score_type>  (44) 
oracle

>  <origin>  (44) 
adg

>  <m_score__min__energy>  (44) 
-7.6500000000000004

>  <m_primary>  (44) 
energy

$$$$
44:0
     RDKit          3D

 53 56  0  0  0  0  0  0  0  0999 V2000
   58.4840   28.5540   47.1010 C   0  0  0  0  0  0  0  0  0  0  0  0
   58.2120   27.5900   45.9790 C   0  0  0  0  0  0  0  0  0  0  0  0
   58.0880   26.2190   46.2510 C   0  0  0  0  0  0  0  0  0  0  0  0
   57.8770   25.2960   45.2140 C   0  0  0  0  0  0  0  0  0  0  0  0
   57.7810   23.8890   45.5000 N   0  0  0  0  0  0  0  0  0  0  0  0
   58.8080   22.9820   44.9490 C   0  0  0  0  0  0  0  0  0  0  0  0
   58.5180   21.4980   45.2090 C   0  0  0  0  0  0  0  0  0  0  0  0
   56.8290   21.1130   44.7930 S   0  0  0  0  0  0  0  0  0  0  0  0
   56.6550   20.9500   43.1290 O   0  0  0  0  0  0  0  0  0  0  0  0
   55.7940   22.4290   45.3990 C   0  0  0  0  0  0  0  0  0  0  0  0
   56.6250   23.3800   46.2580 C   0  0  0  0  0  0  0  0  0  0  0  0
   57.7700   25.7620   43.8960 C   0  0  0  0  0  0  0  0  0  0  0  0
   57.9090   27.1210   43.6140 C   0  0  0  0  0  0  0  0  0  0  0  0
   58.1630   28.0410   44.6450 C   0  0  0  0  0  0  0  0  0  0  0  0
   58.3810   29.4310   44.3520 N   0  0  0  0  0  0  0  0  0  0  0  0
   57.5100   30.5080   44.7270 C   0  0  0  0  0  0  0  0  0  0  0  0
   56.2680   30.3630   44.5730 O   0  0  0  0  0  0  0  0  0  0  0  0
   58.0300   31.7620   45.3250 C   0  0  0  0  0  0  0  0  0  0  0  0
   57.2530   32.9290   45.2960 C   0  0  0  0  0  0  0  0  0  0  0  0
   57.7710   34.1120   45.8200 C   0  0  0  0  0  0  0  0  0  0  0  0
   59.0550   34.1300   46.3610 C   0  0  0  0  0  0  0  0  0  0  0  0
   59.8120   32.9480   46.3940 C   0  0  0  0  0  0  0  0  0  0  0  0
   61.1960   32.9520   46.9290 C   0  0  0  0  0  0  0  0  0  0  0  0
   61.5720   32.0780   47.9660 C   0  0  0  0  0  0  0  0  0  0  0  0
   62.8780   32.0930   48.4650 C   0  0  0  0  0  0  0  0  0  0  0  0
   63.8200   32.9790   47.9370 C   0  0  0  0  0  0  0  0  0  0  0  0
   63.4590   33.8510   46.9080 C   0  0  0  0  0  0  0  0  0  0  0  0
   62.1550   33.8380   46.4040 C   0  0  0  0  0  0  0  0  0  0  0  0
   59.2700   31.7940   45.9010 N   0  0  0  0  0  0  0  0  0  0  0  0
   58.3402   28.0444   48.0652 H   0  0  0  0  0  0  0  0  0  0  0  0
   59.5198   28.9174   47.0292 H   0  0  0  0  0  0  0  0  0  0  0  0
   57.7910   29.4052   47.0292 H   0  0  0  0  0  0  0  0  0  0  0  0
   58.1569   25.8629   47.2895 H   0  0  0  0  0  0  0  0  0  0  0  0
   58.8650   23.1402   43.8619 H   0  0  0  0  0  0  0  0  0  0  0  0
   59.7548   23.2199   45.4558 H   0  0  0  0  0  0  0  0  0  0  0  0
   59.1919   20.8838   44.5936 H   0  0  0  0  0  0  0  0  0  0  0  0
   58.6803   21.2843   46.2758 H   0  0  0  0  0  0  0  0  0  0  0  0
   57.0620   20.0740   42.9130 H   0  0  0  0  0  0  0  0  0  0  0  0
   55.3684   22.9814   44.5483 H   0  0  0  0  0  0  0  0  0  0  0  0
   54.9809   22.0043   46.0061 H   0  0  0  0  0  0  0  0  0  0  0  0
   55.9966   24.2270   46.5706 H   0  0  0  0  0  0  0  0  0  0  0  0
   56.9922   22.8325   47.1386 H   0  0  0  0  0  0  0  0  0  0  0  0
   57.5752   25.0514   43.0792 H   0  0  0  0  0  0  0  0  0  0  0  0
   57.8191   27.4751   42.5764 H   0  0  0  0  0  0  0  0  0  0  0  0
   56.2420   32.9109   44.8628 H   0  0  0  0  0  0  0  0  0  0  0  0
   57.1666   35.0310   45.8065 H   0  0  0  0  0  0  0  0  0  0  0  0
   59.4735   35.0657   46.7603 H   0  0  0  0  0  0  0  0  0  0  0  0
   60.8340   31.3789   48.3864 H   0  0  0  0  0  0  0  0  0  0  0  0
   63.1642   31.4058   49.2749 H   0  0  0  0  0  0  0  0  0  0  0  0
   64.8466   32.9897   48.3320 H   0  0  0  0  0  0  0  0  0  0  0  0
   64.2013   34.5489   46.4935 H   0  0  0  0  0  0  0  0  0  0  0  0
   61.8767   34.5252   45.5914 H   0  0  0  0  0  0  0  0  0  0  0  0
   59.8110   30.9060   45.9910 H   0  0  0  0  0  0  0  0  0  0  0  0
  1  2  1  0
  2  3  2  0
  3  4  1  0
  4  5  1  0
  5  6  1  0
  6  7  1  0
  7  8  1  0
  8  9  1  0
  8 10  1  0
 10 11  1  0
  4 12  2  0
 12 13  1  0
 13 14  2  0
 14 15  1  0
 15 16  1  0
 16 17  2  0
 16 18  1  0
 18 19  2  0
 19 20  1  0
 20 21  2  0
 21 22  1  0
 22 23  1  0
 23 24  2  0
 24 25  1  0
 25 26  2  0
 26 27  1  0
 27 28  2  0
 22 29  2  0
 14  2  1  0
 29 18  1  0
 11  5  1  0
 28 23  1  0
  1 30  1  0
  1 31  1  0
  1 32  1  0
  3 33  1  0
  6 34  1  0
  6 35  1  0
  7 36  1  0
  7 37  1  0
  9 38  1  0
 10 39  1  0
 10 40  1  0
 11 41  1  0
 11 42  1  0
 12 43  1  0
 13 44  1  0
 19 45  1  0
 20 46  1  0
 21 47  1  0
 24 48  1  0
 25 49  1  0
 26 50  1  0
 27 51  1  0
 28 52  1  0
 29 53  1  0
M  CHG  3   8   1  15  -1  29   1
M  END
>  <UniqueID>  (45) 
41

>  <SMILES>  (45) 
Cc1cc(N2CC[S+](O)CC2)ccc1[N-]C(=O)c1cccc(-c2ccccc2)[nH+]1

>  <Energy>  (45) 
66.2389306216452

>  <Genealogy>  (45) 
Cc1cc(N2CC[S+](O)CC2)ccc1[N-]C(=O)c1cccc(-c2ccccc2)[nH+]1 (protonated)
Cc1cc(N2CC[S+](O)CC2)ccc1[N-]C(=O)c1cccc(-c2ccccc2)[nH+]1 (3D coordinates assigned)
Cc1cc(N2CC[S+](O)CC2)ccc1[N-]C(=O)c1cccc(-c2ccccc2)[nH+]1 (nonaromatic ring conformer: 66.2389306216452 kcal/mol)

>  <smiles>  (45) 
Cc1cc(N2CC[S+]([O-])CC2)ccc1NC(=O)c1cccc(-c2ccccc2)n1

>  <score_type>  (45) 
oracle

>  <origin>  (45) 
adg

>  <m_score__min__energy>  (45) 
-7.8200000000000003

>  <m_primary>  (45) 
energy

$$$$
45:0
     RDKit          3D

 42 43  0  0  0  0  0  0  0  0999 V2000
   56.9938   34.4772   44.0033 H   0  0  0  0  0  0  0  0  0  0  0  0
   57.8000   33.9130   44.4950 C   0  0  0  0  0  0  0  0  0  0  0  0
   58.3890   34.5020   45.7130 C   0  0  0  0  0  0  0  0  0  0  0  0
   59.4260   35.2170   45.6560 O   0  0  0  0  0  0  0  0  0  0  0  0
   57.8110   34.1980   46.9490 O   0  0  0  0  0  0  0  0  0  0  0  0
   57.7630   32.8740   47.4700 C   0  0  0  0  0  0  0  0  0  0  0  0
   57.4871   32.1732   46.6683 H   0  0  0  0  0  0  0  0  0  0  0  0
   57.0139   32.8206   48.2738 H   0  0  0  0  0  0  0  0  0  0  0  0
   59.1070   32.5090   48.0120 C   0  0  0  0  0  0  0  0  0  0  0  0
   59.2710   31.3900   48.5670 O   0  0  0  0  0  0  0  0  0  0  0  0
   60.2070   33.4190   47.8660 N   0  0  0  0  0  0  0  0  0  0  0  0
   60.0240   34.3510   47.4290 H   0  0  0  0  0  0  0  0  0  0  0  0
   61.5590   33.0910   48.3330 C   0  0  0  0  0  0  0  0  0  0  0  0
   61.5415   32.0956   48.8009 H   0  0  0  0  0  0  0  0  0  0  0  0
   62.5430   33.0490   47.1360 C   0  0  0  0  0  0  0  0  0  0  0  0
   62.5210   32.0380   46.7031 H   0  0  0  0  0  0  0  0  0  0  0  0
   62.2141   33.8176   46.4211 H   0  0  0  0  0  0  0  0  0  0  0  0
   63.9990   33.3830   47.5210 C   0  0  0  0  0  0  0  0  0  0  0  0
   64.6792   32.8382   46.8498 H   0  0  0  0  0  0  0  0  0  0  0  0
   64.1383   34.4700   47.4257 H   0  0  0  0  0  0  0  0  0  0  0  0
   64.3070   32.9870   48.9680 C   0  0  0  0  0  0  0  0  0  0  0  0
   64.1442   31.9053   49.0842 H   0  0  0  0  0  0  0  0  0  0  0  0
   65.3528   33.2528   49.1817 H   0  0  0  0  0  0  0  0  0  0  0  0
   63.4060   33.7380   49.9670 C   0  0  0  0  0  0  0  0  0  0  0  0
   63.2564   33.0988   50.8496 H   0  0  0  0  0  0  0  0  0  0  0  0
   63.9148   34.6808   50.2163 H   0  0  0  0  0  0  0  0  0  0  0  0
   62.0230   34.1070   49.3910 C   0  0  0  0  0  0  0  0  0  0  0  0
   61.2895   34.1287   50.2105 H   0  0  0  0  0  0  0  0  0  0  0  0
   62.1037   35.0923   48.9087 H   0  0  0  0  0  0  0  0  0  0  0  0
   58.1630   32.7480   43.9350 C   0  0  0  0  0  0  0  0  0  0  0  0
   58.7258   32.7965   42.9911 H   0  0  0  0  0  0  0  0  0  0  0  0
   57.8700   31.4060   44.4800 C   0  0  0  0  0  0  0  0  0  0  0  0
   58.8590   30.6520   45.1350 C   0  0  0  0  0  0  0  0  0  0  0  0
   59.8630   31.0762   45.2837 H   0  0  0  0  0  0  0  0  0  0  0  0
   58.5710   29.3650   45.5980 C   0  0  0  0  0  0  0  0  0  0  0  0
   59.3437   28.7851   46.1240 H   0  0  0  0  0  0  0  0  0  0  0  0
   57.3040   28.8140   45.3940 C   0  0  0  0  0  0  0  0  0  0  0  0
   57.0770   27.8042   45.7665 H   0  0  0  0  0  0  0  0  0  0  0  0
   56.3250   29.5450   44.7170 C   0  0  0  0  0  0  0  0  0  0  0  0
   55.0990   29.0040   44.5060 F   0  0  0  0  0  0  0  0  0  0  0  0
   56.6080   30.8340   44.2510 C   0  0  0  0  0  0  0  0  0  0  0  0
   55.8400   31.4005   43.7040 H   0  0  0  0  0  0  0  0  0  0  0  0
  1  2  1  0
  2  3  1  0
  3  4  2  0
  3  5  1  0
  5  6  1  0
  6  7  1  0
  6  8  1  0
  6  9  1  0
  9 10  2  0
  9 11  1  0
 11 12  1  0
 11 13  1  0
 13 14  1  0
 13 15  1  0
 15 16  1  0
 15 17  1  0
 15 18  1  0
 18 19  1  0
 18 20  1  0
 18 21  1  0
 21 22  1  0
 21 23  1  0
 21 24  1  0
 24 25  1  0
 24 26  1  0
 24 27  1  0
 27 28  1  0
 27 29  1  0
  2 30  2  0
 30 31  1  0
 30 32  1  0
 32 33  2  0
 33 34  1  0
 33 35  1  0
 35 36  1  0
 35 37  2  0
 37 38  1  0
 37 39  1  0
 39 40  1  0
 39 41  2  0
 41 42  1  0
 27 13  1  0
 41 32  1  0
M  END
>  <UniqueID>  (46) 
42

>  <SMILES>  (46) 
O=C(COC(=O)/C=C\c1cccc(F)c1)NC1CCCCC1

>  <Energy>  (46) 
44.72201351171885

>  <Genealogy>  (46) 
O=C(COC(=O)/C=C\c1cccc(F)c1)NC1CCCCC1 (cis-trans isomerization)
O=C(COC(=O)/C=C\c1cccc(F)c1)NC1CCCCC1 (3D coordinates assigned)
O=C(COC(=O)/C=C\c1cccc(F)c1)NC1CCCCC1 (nonaromatic ring conformer: 44.72201351171885 kcal/mol)

>  <smiles>  (46) 
O=C(COC(=O)C=Cc1cccc(F)c1)NC1CCCCC1

>  <score_type>  (46) 
oracle

>  <origin>  (46) 
adg

>  <m_score__min__energy>  (46) 
-8.1199999999999992

>  <m_primary>  (46) 
energy

$$$$
46:0
     RDKit          3D

 45 47  0  0  0  0  0  0  0  0999 V2000
   60.1224   29.8166   49.8149 H   0  0  0  0  0  0  0  0  0  0  0  0
   60.5620   30.1920   48.8790 C   0  0  0  0  0  0  0  0  0  0  0  0
   61.6190   31.0120   48.9750 C   0  0  0  0  0  0  0  0  0  0  0  0
   62.1360   31.6700   50.5450 S   0  0  0  0  0  0  0  0  0  0  0  0
   63.6730   32.1070   49.7230 C   0  0  0  0  0  0  0  0  0  0  0  0
   64.9210   31.7900   50.3730 S   0  0  0  0  0  0  0  0  0  0  0  0
   63.6040   32.2900   48.2860 N   0  0  2  0  0  0  0  0  0  0  0  0
   64.4900   31.9910   47.8090 H   0  0  0  0  0  0  0  0  0  0  0  0
   63.2780   33.7040   47.9480 C   0  0  0  0  0  0  0  0  0  0  0  0
   64.1436   34.3067   48.2603 H   0  0  0  0  0  0  0  0  0  0  0  0
   62.0210   34.1930   48.6970 C   0  0  0  0  0  0  0  0  0  0  0  0
   62.1915   34.1267   49.7817 H   0  0  0  0  0  0  0  0  0  0  0  0
   61.8133   35.2375   48.4217 H   0  0  0  0  0  0  0  0  0  0  0  0
   61.1620   33.5635   48.4217 H   0  0  0  0  0  0  0  0  0  0  0  0
   63.0440   33.8760   46.4330 C   0  0  0  0  0  0  0  0  0  0  0  0
   62.1677   34.5201   46.2681 H   0  0  0  0  0  0  0  0  0  0  0  0
   63.9307   34.3389   45.9753 H   0  0  0  0  0  0  0  0  0  0  0  0
   62.8668   32.8916   45.9753 H   0  0  0  0  0  0  0  0  0  0  0  0
   62.5420   31.4020   47.9010 C   0  0  0  0  0  0  0  0  0  0  0  0
   62.4990   30.9020   46.7440 O   0  0  0  0  0  0  0  0  0  0  0  0
   59.9450   29.7560   47.6120 C   0  0  0  0  0  0  0  0  0  0  0  0
   60.5220   28.7350   46.8400 C   0  0  0  0  0  0  0  0  0  0  0  0
   61.4276   28.2224   47.1966 H   0  0  0  0  0  0  0  0  0  0  0  0
   59.9490   28.3690   45.6210 C   0  0  0  0  0  0  0  0  0  0  0  0
   60.3959   27.5579   45.0273 H   0  0  0  0  0  0  0  0  0  0  0  0
   58.8110   29.0280   45.1520 C   0  0  0  0  0  0  0  0  0  0  0  0
   58.3614   28.7309   44.1931 H   0  0  0  0  0  0  0  0  0  0  0  0
   58.2370   30.0720   45.9030 C   0  0  0  0  0  0  0  0  0  0  0  0
   57.0960   30.7730   45.4780 O   0  0  0  0  0  0  0  0  0  0  0  0
   57.1070   31.9730   44.7020 C   0  0  0  0  0  0  0  0  0  0  0  0
   57.5377   31.7586   43.7128 H   0  0  0  0  0  0  0  0  0  0  0  0
   56.0736   32.3358   44.5998 H   0  0  0  0  0  0  0  0  0  0  0  0
   57.9280   33.0400   45.3770 C   0  0  0  0  0  0  0  0  0  0  0  0
   58.8520   33.8020   44.6430 C   0  0  0  0  0  0  0  0  0  0  0  0
   58.9740   33.6254   43.5641 H   0  0  0  0  0  0  0  0  0  0  0  0
   59.6170   34.7840   45.2790 C   0  0  0  0  0  0  0  0  0  0  0  0
   60.3342   35.3829   44.6986 H   0  0  0  0  0  0  0  0  0  0  0  0
   59.4720   35.0060   46.6510 C   0  0  0  0  0  0  0  0  0  0  0  0
   60.0722   35.7819   47.1487 H   0  0  0  0  0  0  0  0  0  0  0  0
   58.5650   34.2430   47.3910 C   0  0  0  0  0  0  0  0  0  0  0  0
   58.4543   34.4157   48.4717 H   0  0  0  0  0  0  0  0  0  0  0  0
   57.7980   33.2600   46.7580 C   0  0  0  0  0  0  0  0  0  0  0  0
   57.0896   32.6563   47.3443 H   0  0  0  0  0  0  0  0  0  0  0  0
   58.8200   30.4370   47.1230 C   0  0  0  0  0  0  0  0  0  0  0  0
   58.3912   31.2667   47.7042 H   0  0  0  0  0  0  0  0  0  0  0  0
  1  2  1  0
  2  3  2  0
  3  4  1  0
  4  5  1  0
  5  6  2  0
  5  7  1  0
  7  8  1  6
  7  9  1  0
  9 10  1  0
  9 11  1  0
 11 12  1  0
 11 13  1  0
 11 14  1  0
  9 15  1  0
 15 16  1  0
 15 17  1  0
 15 18  1  0
  7 19  1  0
 19 20  2  0
  2 21  1  0
 21 22  2  0
 22 23  1  0
 22 24  1  0
 24 25  1  0
 24 26  2  0
 26 27  1  0
 26 28  1  0
 28 29  1  0
 29 30  1  0
 30 31  1  0
 30 32  1  0
 30 33  1  0
 33 34  2  0
 34 35  1  0
 34 36  1  0
 36 37  1  0
 36 38  2  0
 38 39  1  0
 38 40  1  0
 40 41  1  0
 40 42  2  0
 42 43  1  0
 28 44  2  0
 44 45  1  0
 19  3  1  0
 44 21  1  0
 42 33  1  0
M  CHG  1   7   1
M  END
>  <UniqueID>  (47) 
43

>  <SMILES>  (47) 
CC(C)[N@@H+]1C(=O)/C(=C\c2cccc(OCc3ccccc3)c2)SC1=S

>  <Energy>  (47) 
71.53688869362595

>  <Genealogy>  (47) 
CC(C)[NH+]1C(=O)C(=Cc2cccc(OCc3ccccc3)c2)SC1=S (protonated)
CC(C)[N@@H+]1C(=O)C(=Cc2cccc(OCc3ccccc3)c2)SC1=S (chirality)
CC(C)[N@@H+]1C(=O)/C(=C\c2cccc(OCc3ccccc3)c2)SC1=S (cis-trans isomerization)
CC(C)[N@@H+]1C(=O)/C(=C\c2cccc(OCc3ccccc3)c2)SC1=S (3D coordinates assigned)
CC(C)[N@@H+]1C(=O)/C(=C\c2cccc(OCc3ccccc3)c2)SC1=S (nonaromatic ring conformer: 71.53688869362595 kcal/mol)

>  <smiles>  (47) 
CC(C)N1C(=O)C(=Cc2cccc(OCc3ccccc3)c2)SC1=S

>  <score_type>  (47) 
oracle

>  <origin>  (47) 
adg

>  <m_score__min__energy>  (47) 
-7.4299999999999997

>  <m_primary>  (47) 
energy

$$$$
