0:0
     RDKit          3D

 41 43  0  0  0  0  0  0  0  0999 V2000
   55.8990   29.7110   42.9860 C   0  0  0  0  0  0  0  0  0  0  0  0
   55.8990   29.3180   44.3540 O   0  0  0  0  0  0  0  0  0  0  0  0
   56.9810   29.4970   45.2300 C   0  0  0  0  0  0  0  0  0  0  0  0
   57.4590   28.4650   46.0600 C   0  0  0  0  0  0  0  0  0  0  0  0
   58.5390   28.6930   46.9170 C   0  0  0  0  0  0  0  0  0  0  0  0
   59.1610   29.9510   46.9580 C   0  0  0  0  0  0  0  0  0  0  0  0
   60.2870   30.1940   47.8810 C   0  0  0  0  0  0  0  0  0  0  0  0
   61.3920   30.8940   47.5460 N   0  0  0  0  0  0  0  0  0  0  0  0
   62.1110   30.8950   48.6850 C   0  0  0  0  0  0  0  0  0  0  0  0
   63.4080   31.6310   48.8580 C   0  0  0  0  0  0  0  0  0  0  0  0
   63.7780   32.3920   47.6470 N   0  0  0  0  0  0  0  0  0  0  0  0
   63.3360   33.7990   47.6770 C   0  0  0  0  0  0  0  0  0  0  0  0
   61.8340   33.9430   47.5880 C   0  0  0  0  0  0  0  0  0  0  0  0
   61.0670   34.1160   48.7540 C   0  0  0  0  0  0  0  0  0  0  0  0
   59.6810   34.2860   48.6680 C   0  0  0  0  0  0  0  0  0  0  0  0
   59.0500   34.2770   47.4200 C   0  0  0  0  0  0  0  0  0  0  0  0
   59.8030   34.0860   46.2590 C   0  0  0  0  0  0  0  0  0  0  0  0
   61.1880   33.9120   46.3410 C   0  0  0  0  0  0  0  0  0  0  0  0
   61.4330   30.1970   49.6580 C   0  0  0  0  0  0  0  0  0  0  0  0
   60.3120   29.7770   49.1300 O   0  0  0  0  0  0  0  0  0  0  0  0
   58.6830   30.9780   46.1280 C   0  0  0  0  0  0  0  0  0  0  0  0
   57.6020   30.7500   45.2720 C   0  0  0  0  0  0  0  0  0  0  0  0
   56.9361   29.8122   42.6336 H   0  0  0  0  0  0  0  0  0  0  0  0
   55.3805   28.9490   42.3856 H   0  0  0  0  0  0  0  0  0  0  0  0
   55.3805   30.6755   42.8816 H   0  0  0  0  0  0  0  0  0  0  0  0
   56.9802   27.4750   46.0337 H   0  0  0  0  0  0  0  0  0  0  0  0
   58.9042   27.8816   47.5637 H   0  0  0  0  0  0  0  0  0  0  0  0
   63.3096   32.3308   49.7010 H   0  0  0  0  0  0  0  0  0  0  0  0
   64.1974   30.8887   49.0473 H   0  0  0  0  0  0  0  0  0  0  0  0
   63.3040   31.9370   46.8320 H   0  0  0  0  0  0  0  0  0  0  0  0
   64.8070   32.3320   47.4660 H   0  0  0  0  0  0  0  0  0  0  0  0
   63.6776   34.2547   48.6181 H   0  0  0  0  0  0  0  0  0  0  0  0
   63.7695   34.3012   46.7995 H   0  0  0  0  0  0  0  0  0  0  0  0
   61.5589   34.1177   49.7379 H   0  0  0  0  0  0  0  0  0  0  0  0
   59.0869   34.4269   49.5830 H   0  0  0  0  0  0  0  0  0  0  0  0
   57.9614   34.4202   47.3526 H   0  0  0  0  0  0  0  0  0  0  0  0
   59.3053   34.0724   45.2781 H   0  0  0  0  0  0  0  0  0  0  0  0
   61.7745   33.7501   45.4246 H   0  0  0  0  0  0  0  0  0  0  0  0
   61.7714   30.0239   50.6902 H   0  0  0  0  0  0  0  0  0  0  0  0
   59.1623   31.9678   46.1517 H   0  0  0  0  0  0  0  0  0  0  0  0
   57.2366   31.5621   44.6262 H   0  0  0  0  0  0  0  0  0  0  0  0
  1  2  1  0
  2  3  1  0
  3  4  2  0
  4  5  1  0
  5  6  2  0
  6  7  1  0
  7  8  2  0
  8  9  1  0
  9 10  1  0
 10 11  1  0
 11 12  1  0
 12 13  1  0
 13 14  2  0
 14 15  1  0
 15 16  2  0
 16 17  1  0
 17 18  2  0
  9 19  2  0
 19 20  1  0
  6 21  1  0
 21 22  2  0
 22  3  1  0
 20  7  1  0
 18 13  1  0
  1 23  1  0
  1 24  1  0
  1 25  1  0
  4 26  1  0
  5 27  1  0
 10 28  1  0
 10 29  1  0
 11 30  1  0
 11 31  1  0
 12 32  1  0
 12 33  1  0
 14 34  1  0
 15 35  1  0
 16 36  1  0
 17 37  1  0
 18 38  1  0
 19 39  1  0
 21 40  1  0
 22 41  1  0
M  CHG  1  11   1
M  END
>  <UniqueID>  (1) 
1

>  <SMILES>  (1) 
COc1ccc(-c2nc(C[NH2+]Cc3ccccc3)co2)cc1

>  <Energy>  (1) 
69.55064862658674

>  <Genealogy>  (1) 
COc1ccc(-c2nc(C[NH2+]Cc3ccccc3)co2)cc1 (protonated)
COc1ccc(-c2nc(C[NH2+]Cc3ccccc3)co2)cc1 (3D coordinates assigned)
COc1ccc(-c2nc(C[NH2+]Cc3ccccc3)co2)cc1 (optimized conformer: 69.55064862658674 kcal/mol)

>  <smiles>  (1) 
COc1ccc(-c2nc(CNCc3ccccc3)co2)cc1

>  <score_type>  (1) 
oracle

>  <origin>  (1) 
adg

>  <m_score__min__energy>  (1) 
-4.9699999999999998

>  <m_primary>  (1) 
energy

$$$$
1:0
     RDKit          3D

 51 53  0  0  0  0  0  0  0  0999 V2000
   55.7270   25.5600   45.6210 C   0  0  0  0  0  0  0  0  0  0  0  0
   55.9270   26.9700   45.6340 O   0  0  0  0  0  0  0  0  0  0  0  0
   57.0760   27.6080   46.1280 C   0  0  0  0  0  0  0  0  0  0  0  0
   58.0050   26.9390   46.9470 C   0  0  0  0  0  0  0  0  0  0  0  0
   59.1640   27.5860   47.3990 C   0  0  0  0  0  0  0  0  0  0  0  0
   60.0860   26.8730   48.2320 N   0  0  0  0  0  0  0  0  0  0  0  0
   59.4020   28.9210   47.0220 C   0  0  0  0  0  0  0  0  0  0  0  0
   60.8400   29.7910   47.5450 Cl  0  0  0  0  0  0  0  0  0  0  0  0
   58.4800   29.5910   46.2120 C   0  0  0  0  0  0  0  0  0  0  0  0
   57.3090   28.9530   45.7810 C   0  0  0  0  0  0  0  0  0  0  0  0
   56.3490   29.6980   44.9460 C   0  0  0  0  0  0  0  0  0  0  0  0
   55.1610   29.2900   44.8660 O   0  0  0  0  0  0  0  0  0  0  0  0
   56.7320   30.8680   44.2100 N   0  0  0  0  0  0  0  0  0  0  0  0
   57.5420   31.9690   44.7360 C   0  0  0  0  0  0  0  0  0  0  0  0
   58.2300   32.7190   43.5880 C   0  0  0  0  0  0  0  0  0  0  0  0
   59.1040   33.8700   44.1270 C   0  0  0  0  0  0  0  0  0  0  0  0
   58.5420   34.5490   45.3240 N   0  0  0  0  0  0  0  0  0  0  0  0
   59.2520   34.2070   46.5780 C   0  0  0  0  0  0  0  0  0  0  0  0
   60.4460   33.2890   46.2910 C   0  0  0  0  0  0  0  0  0  0  0  0
   61.4950   33.4140   47.3590 C   0  0  0  0  0  0  0  0  0  0  0  0
   62.8120   32.9900   47.1230 C   0  0  0  0  0  0  0  0  0  0  0  0
   63.7730   33.1570   48.1220 C   0  0  0  0  0  0  0  0  0  0  0  0
   63.4190   33.7460   49.3370 C   0  0  0  0  0  0  0  0  0  0  0  0
   62.1010   34.1660   49.5330 C   0  0  0  0  0  0  0  0  0  0  0  0
   61.1780   33.9960   48.5490 N   0  0  0  0  0  0  0  0  0  0  0  0
   57.0780   34.3970   45.4430 C   0  0  0  0  0  0  0  0  0  0  0  0
   56.6480   32.9200   45.5570 C   0  0  0  0  0  0  0  0  0  0  0  0
   55.6742   25.1876   46.6547 H   0  0  0  0  0  0  0  0  0  0  0  0
   54.7869   25.3278   45.0991 H   0  0  0  0  0  0  0  0  0  0  0  0
   56.5654   25.0755   45.0991 H   0  0  0  0  0  0  0  0  0  0  0  0
   57.8192   25.8942   47.2364 H   0  0  0  0  0  0  0  0  0  0  0  0
   60.0440   26.9670   49.2720 H   0  0  0  0  0  0  0  0  0  0  0  0
   60.8200   26.2460   47.8350 H   0  0  0  0  0  0  0  0  0  0  0  0
   58.6759   30.6303   45.9097 H   0  0  0  0  0  0  0  0  0  0  0  0
   58.3251   31.5641   45.3939 H   0  0  0  0  0  0  0  0  0  0  0  0
   58.8650   32.0164   43.0285 H   0  0  0  0  0  0  0  0  0  0  0  0
   57.4557   33.1436   42.9322 H   0  0  0  0  0  0  0  0  0  0  0  0
   60.0895   33.4601   44.3931 H   0  0  0  0  0  0  0  0  0  0  0  0
   59.1597   34.6262   43.3301 H   0  0  0  0  0  0  0  0  0  0  0  0
   59.6130   35.1315   47.0523 H   0  0  0  0  0  0  0  0  0  0  0  0
   58.5548   33.6819   47.2475 H   0  0  0  0  0  0  0  0  0  0  0  0
   60.0962   32.2468   46.2515 H   0  0  0  0  0  0  0  0  0  0  0  0
   60.8904   33.5851   45.3293 H   0  0  0  0  0  0  0  0  0  0  0  0
   63.0842   32.5310   46.1611 H   0  0  0  0  0  0  0  0  0  0  0  0
   64.8077   32.8248   47.9518 H   0  0  0  0  0  0  0  0  0  0  0  0
   64.1689   33.8779   50.1308 H   0  0  0  0  0  0  0  0  0  0  0  0
   61.8096   34.6348   50.4845 H   0  0  0  0  0  0  0  0  0  0  0  0
   56.7388   34.9341   46.3411 H   0  0  0  0  0  0  0  0  0  0  0  0
   56.6225   34.8097   44.5308 H   0  0  0  0  0  0  0  0  0  0  0  0
   56.6961   32.6212   46.6145 H   0  0  0  0  0  0  0  0  0  0  0  0
   55.6270   32.8418   45.1552 H   0  0  0  0  0  0  0  0  0  0  0  0
  1  2  1  0
  2  3  1  0
  3  4  2  0
  4  5  1  0
  5  6  1  0
  5  7  2  0
  7  8  1  0
  7  9  1  0
  9 10  2  0
 10 11  1  0
 11 12  2  0
 11 13  1  0
 13 14  1  0
 14 15  1  0
 15 16  1  0
 16 17  1  0
 17 18  1  0
 18 19  1  0
 19 20  1  0
 20 21  2  0
 21 22  1  0
 22 23  2  0
 23 24  1  0
 24 25  2  0
 17 26  1  0
 26 27  1  0
 10  3  1  0
 27 14  1  0
 25 20  1  0
  1 28  1  0
  1 29  1  0
  1 30  1  0
  4 31  1  0
  6 32  1  0
  6 33  1  0
  9 34  1  0
 14 35  1  0
 15 36  1  0
 15 37  1  0
 16 38  1  0
 16 39  1  0
 18 40  1  0
 18 41  1  0
 19 42  1  0
 19 43  1  0
 21 44  1  0
 22 45  1  0
 23 46  1  0
 24 47  1  0
 26 48  1  0
 26 49  1  0
 27 50  1  0
 27 51  1  0
M  CHG  1  13  -1
M  END
>  <UniqueID>  (2) 
2

>  <SMILES>  (2) 
COc1cc(N)c(Cl)cc1C(=O)[N-]C1CCN(CCc2ccccn2)CC1

>  <Energy>  (2) 
63.13704296966762

>  <Genealogy>  (2) 
COc1cc(N)c(Cl)cc1C(=O)[N-]C1CCN(CCc2ccccn2)CC1 (protonated)
COc1cc(N)c(Cl)cc1C(=O)[N-]C1CCN(CCc2ccccn2)CC1 (3D coordinates assigned)
COc1cc(N)c(Cl)cc1C(=O)[N-]C1CCN(CCc2ccccn2)CC1 (nonaromatic ring conformer: 63.13704296966762 kcal/mol)

>  <smiles>  (2) 
COc1cc(N)c(Cl)cc1C(=O)NC1CCN(CCc2ccccn2)CC1

>  <score_type>  (2) 
oracle

>  <origin>  (2) 
adg

>  <m_score__min__energy>  (2) 
-10.52

>  <m_primary>  (2) 
energy

$$$$
2:0
     RDKit          3D

 38 40  0  0  0  0  0  0  0  0999 V2000
   65.4860   32.3920   50.1330 C   0  0  0  0  0  0  0  0  0  0  0  0
   64.8310   33.3880   49.3540 O   0  0  0  0  0  0  0  0  0  0  0  0
   63.6110   33.1980   48.6890 C   0  0  0  0  0  0  0  0  0  0  0  0
   63.4940   32.1140   47.8120 C   0  0  0  0  0  0  0  0  0  0  0  0
   62.2990   31.8800   47.1250 C   0  0  0  0  0  0  0  0  0  0  0  0
   61.1900   32.7250   47.3090 C   0  0  0  0  0  0  0  0  0  0  0  0
   59.9310   32.4620   46.5670 C   0  0  0  0  0  0  0  0  0  0  0  0
   59.0160   33.4860   46.2730 C   0  0  0  0  0  0  0  0  0  0  0  0
   57.8480   33.1660   45.5740 C   0  0  0  0  0  0  0  0  0  0  0  0
   56.8480   34.2270   45.2450 C   0  0  0  0  0  0  0  0  0  0  0  0
   57.6180   31.8800   45.2020 N   0  0  0  0  0  0  0  0  0  0  0  0
   58.5020   30.8910   45.4970 C   0  0  0  0  0  0  0  0  0  0  0  0
   58.2340   29.5390   45.0970 N   0  0  0  0  0  0  0  0  0  0  0  0
   57.9390   28.5100   45.9170 C   0  0  0  0  0  0  0  0  0  0  0  0
   57.7540   27.3840   45.1390 C   0  0  0  0  0  0  0  0  0  0  0  0
   57.4970   25.9940   45.6170 C   0  0  0  0  0  0  0  0  0  0  0  0
   57.9730   27.7900   43.8360 C   0  0  0  0  0  0  0  0  0  0  0  0
   58.2540   29.1060   43.8460 N   0  0  0  0  0  0  0  0  0  0  0  0
   59.6420   31.1900   46.1750 N   0  0  0  0  0  0  0  0  0  0  0  0
   61.3140   33.8220   48.1840 C   0  0  0  0  0  0  0  0  0  0  0  0
   62.5100   34.0550   48.8680 C   0  0  0  0  0  0  0  0  0  0  0  0
   65.3429   32.6096   51.2017 H   0  0  0  0  0  0  0  0  0  0  0  0
   65.0601   31.4050   49.8995 H   0  0  0  0  0  0  0  0  0  0  0  0
   66.5609   32.3920   49.8995 H   0  0  0  0  0  0  0  0  0  0  0  0
   64.3500   31.4398   47.6617 H   0  0  0  0  0  0  0  0  0  0  0  0
   62.2256   31.0271   46.4342 H   0  0  0  0  0  0  0  0  0  0  0  0
   59.2146   34.5214   46.5870 H   0  0  0  0  0  0  0  0  0  0  0  0
   56.4461   34.6534   46.1759 H   0  0  0  0  0  0  0  0  0  0  0  0
   57.3346   35.0202   44.6585 H   0  0  0  0  0  0  0  0  0  0  0  0
   56.0274   33.7882   44.6585 H   0  0  0  0  0  0  0  0  0  0  0  0
   57.8596   28.5588   47.0130 H   0  0  0  0  0  0  0  0  0  0  0  0
   57.4943   25.9791   46.7169 H   0  0  0  0  0  0  0  0  0  0  0  0
   56.5205   25.6524   45.2432 H   0  0  0  0  0  0  0  0  0  0  0  0
   58.2868   25.3258   45.2432 H   0  0  0  0  0  0  0  0  0  0  0  0
   57.9257   27.1478   42.9442 H   0  0  0  0  0  0  0  0  0  0  0  0
   58.4660   29.6920   43.0070 H   0  0  0  0  0  0  0  0  0  0  0  0
   60.4614   34.5015   48.3302 H   0  0  0  0  0  0  0  0  0  0  0  0
   62.5910   34.9138   49.5506 H   0  0  0  0  0  0  0  0  0  0  0  0
  1  2  1  0
  2  3  1  0
  3  4  2  0
  4  5  1  0
  5  6  2  0
  6  7  1  0
  7  8  2  0
  8  9  1  0
  9 10  1  0
  9 11  2  0
 11 12  1  0
 12 13  1  0
 13 14  1  0
 14 15  2  0
 15 16  1  0
 15 17  1  0
 17 18  2  0
 12 19  2  0
  6 20  1  0
 20 21  2  0
 21  3  1  0
 19  7  1  0
 18 13  1  0
  1 22  1  0
  1 23  1  0
  1 24  1  0
  4 25  1  0
  5 26  1  0
  8 27  1  0
 10 28  1  0
 10 29  1  0
 10 30  1  0
 14 31  1  0
 16 32  1  0
 16 33  1  0
 16 34  1  0
 17 35  1  0
 18 36  1  0
 20 37  1  0
 21 38  1  0
M  CHG  1  18   1
M  END
>  <UniqueID>  (3) 
3

>  <SMILES>  (3) 
COc1ccc(-c2cc(C)nc(-n3cc(C)c[nH+]3)n2)cc1

>  <Energy>  (3) 
72.2655452278501

>  <Genealogy>  (3) 
COc1ccc(-c2cc(C)nc(-n3cc(C)c[nH+]3)n2)cc1 (protonated)
COc1ccc(-c2cc(C)nc(-n3cc(C)c[nH+]3)n2)cc1 (3D coordinates assigned)
COc1ccc(-c2cc(C)nc(-n3cc(C)c[nH+]3)n2)cc1 (optimized conformer: 72.2655452278501 kcal/mol)

>  <smiles>  (3) 
COc1ccc(-c2cc(C)nc(-n3cc(C)cn3)n2)cc1

>  <score_type>  (3) 
oracle

>  <origin>  (3) 
adg

>  <m_score__min__energy>  (3) 
-5.75

>  <m_primary>  (3) 
energy

$$$$
3:0
     RDKit          3D

 41 44  0  0  0  0  0  0  0  0999 V2000
   56.4551   30.0561   44.6461 H   0  0  0  0  0  0  0  0  0  0  0  0
   56.7960   29.0970   45.0630 C   0  0  0  0  0  0  0  0  0  0  0  0
   55.8990   28.1030   45.2950 N   0  0  0  0  0  0  0  0  0  0  0  0
   56.2580   26.9020   45.8240 C   0  0  0  0  0  0  0  0  0  0  0  0
   55.3310   26.0010   46.0000 N   0  0  0  0  0  0  0  0  0  0  0  0
   55.4310   24.5870   45.7710 C   0  0  0  0  0  0  0  0  0  0  0  0
   55.8710   24.1270   44.5230 C   0  0  0  0  0  0  0  0  0  0  0  0
   56.1753   24.8478   43.7498 H   0  0  0  0  0  0  0  0  0  0  0  0
   55.9250   22.7550   44.2560 C   0  0  0  0  0  0  0  0  0  0  0  0
   56.2906   22.3989   43.2815 H   0  0  0  0  0  0  0  0  0  0  0  0
   55.5150   21.8360   45.2260 C   0  0  0  0  0  0  0  0  0  0  0  0
   55.5652   20.7570   45.0180 H   0  0  0  0  0  0  0  0  0  0  0  0
   55.0410   22.2890   46.4610 C   0  0  0  0  0  0  0  0  0  0  0  0
   54.7103   21.5662   47.2214 H   0  0  0  0  0  0  0  0  0  0  0  0
   54.9870   23.6590   46.7300 C   0  0  0  0  0  0  0  0  0  0  0  0
   54.5958   24.0130   47.6952 H   0  0  0  0  0  0  0  0  0  0  0  0
   57.6150   26.6670   46.1210 C   0  0  0  0  0  0  0  0  0  0  0  0
   57.9325   25.6963   46.5296 H   0  0  0  0  0  0  0  0  0  0  0  0
   58.5540   27.6750   45.8930 C   0  0  0  0  0  0  0  0  0  0  0  0
   59.6123   27.5027   46.1385 H   0  0  0  0  0  0  0  0  0  0  0  0
   58.1550   28.9050   45.3530 C   0  0  0  0  0  0  0  0  0  0  0  0
   59.1390   29.9860   45.1100 C   0  0  0  0  0  0  0  0  0  0  0  0
   60.3470   29.6950   44.8980 O   0  0  0  0  0  0  0  0  0  0  0  0
   58.7390   31.3660   45.0990 N   0  0  0  0  0  0  0  0  0  0  0  0
   57.9850   32.0010   44.1630 C   0  0  0  0  0  0  0  0  0  0  0  0
   57.4390   31.3640   42.9210 C   0  0  0  0  0  0  0  0  0  0  0  0
   56.7461   30.5557   43.1977 H   0  0  0  0  0  0  0  0  0  0  0  0
   56.9031   32.1189   42.3269 H   0  0  0  0  0  0  0  0  0  0  0  0
   58.2670   30.9499   42.3269 H   0  0  0  0  0  0  0  0  0  0  0  0
   57.7880   33.3350   44.5090 C   0  0  0  0  0  0  0  0  0  0  0  0
   57.2348   34.0979   43.9416 H   0  0  0  0  0  0  0  0  0  0  0  0
   58.4350   33.4940   45.7150 C   0  0  0  0  0  0  0  0  0  0  0  0
   58.5650   34.6190   46.5260 C   0  0  0  0  0  0  0  0  0  0  0  0
   58.1069   35.5785   46.2440 H   0  0  0  0  0  0  0  0  0  0  0  0
   59.3010   34.4880   47.7170 C   0  0  0  0  0  0  0  0  0  0  0  0
   59.4225   35.3556   48.3822 H   0  0  0  0  0  0  0  0  0  0  0  0
   59.8850   33.2510   48.0650 C   0  0  0  0  0  0  0  0  0  0  0  0
   60.4593   33.1619   48.9990 H   0  0  0  0  0  0  0  0  0  0  0  0
   59.7380   32.1310   47.2260 C   0  0  0  0  0  0  0  0  0  0  0  0
   60.1931   31.1639   47.4860 H   0  0  0  0  0  0  0  0  0  0  0  0
   58.9950   32.2860   46.0510 C   0  0  0  0  0  0  0  0  0  0  0  0
  1  2  1  0
  2  3  1  0
  3  4  1  0
  4  5  2  0
  5  6  1  0
  6  7  2  0
  7  8  1  0
  7  9  1  0
  9 10  1  0
  9 11  2  0
 11 12  1  0
 11 13  1  0
 13 14  1  0
 13 15  2  0
 15 16  1  0
  4 17  1  0
 17 18  1  0
 17 19  2  0
 19 20  1  0
 19 21  1  0
 21 22  1  0
 22 23  2  0
 22 24  1  0
 24 25  1  0
 25 26  1  0
 26 27  1  0
 26 28  1  0
 26 29  1  0
 25 30  2  0
 30 31  1  0
 30 32  1  0
 32 33  2  0
 33 34  1  0
 33 35  1  0
 35 36  1  0
 35 37  2  0
 37 38  1  0
 37 39  1  0
 39 40  1  0
 39 41  2  0
 21  2  2  0
 41 24  1  0
 15  6  1  0
 41 32  1  0
M  CHG  1   3  -1
M  END
>  <UniqueID>  (4) 
4

>  <SMILES>  (4) 
Cc1cc2ccccc2n1C(=O)c1cc/c(=N\c2ccccc2)[n-]c1

>  <Energy>  (4) 
95.56815420460774

>  <Genealogy>  (4) 
Cc1cc2ccccc2n1C(=O)c1ccc(=Nc2ccccc2)[n-]c1 (protonated)
Cc1cc2ccccc2n1C(=O)c1cc/c(=N\c2ccccc2)[n-]c1 (cis-trans isomerization)
Cc1cc2ccccc2n1C(=O)c1cc/c(=N\c2ccccc2)[n-]c1 (3D coordinates assigned)
Cc1cc2ccccc2n1C(=O)c1cc/c(=N\c2ccccc2)[n-]c1 (optimized conformer: 95.56815420460774 kcal/mol)

>  <smiles>  (4) 
Cc1cc2ccccc2n1C(=O)c1ccc(=Nc2ccccc2)[nH]c1

>  <score_type>  (4) 
oracle

>  <origin>  (4) 
adg

>  <m_score__min__energy>  (4) 
-10.289999999999999

>  <m_primary>  (4) 
energy

$$$$
4:0
     RDKit          3D

 56 59  0  0  0  0  0  0  0  0999 V2000
   55.8940   34.5680   46.3060 H   0  0  0  0  0  0  0  0  0  0  0  0
   56.4380   33.9950   45.6230 N   0  0  0  0  0  0  0  0  0  0  0  0
   57.5290   33.3750   45.9540 C   0  0  0  0  0  0  0  0  0  0  0  0
   57.6690   31.9640   45.6560 N   0  0  0  0  0  0  0  0  0  0  0  0
   56.8520   31.3370   44.5980 C   0  0  0  0  0  0  0  0  0  0  0  0
   56.4582   30.3791   44.9686 H   0  0  0  0  0  0  0  0  0  0  0  0
   56.0292   32.0204   44.3413 H   0  0  0  0  0  0  0  0  0  0  0  0
   57.6850   31.0810   43.3340 C   0  0  0  0  0  0  0  0  0  0  0  0
   58.6018   30.5432   43.6172 H   0  0  0  0  0  0  0  0  0  0  0  0
   57.0708   30.4887   42.6398 H   0  0  0  0  0  0  0  0  0  0  0  0
   58.0740   32.3760   42.6260 C   0  0  0  0  0  0  0  0  0  0  0  0
   58.3058   33.1478   43.3747 H   0  0  0  0  0  0  0  0  0  0  0  0
   58.9584   32.1983   41.9965 H   0  0  0  0  0  0  0  0  0  0  0  0
   57.2381   32.7151   41.9965 H   0  0  0  0  0  0  0  0  0  0  0  0
   58.7570   31.2380   46.2610 C   0  0  0  0  0  0  0  0  0  0  0  0
   58.6020   29.9570   46.6560 C   0  0  0  0  0  0  0  0  0  0  0  0
   57.6256   29.4781   46.4910 H   0  0  0  0  0  0  0  0  0  0  0  0
   59.6980   29.1390   47.3150 C   0  0  0  0  0  0  0  0  0  0  0  0
   59.5480   27.6700   46.8730 C   0  0  0  0  0  0  0  0  0  0  0  0
   59.4821   27.0247   47.7614 H   0  0  0  0  0  0  0  0  0  0  0  0
   58.6339   27.5597   46.2711 H   0  0  0  0  0  0  0  0  0  0  0  0
   60.4209   27.3772   46.2711 H   0  0  0  0  0  0  0  0  0  0  0  0
   59.5430   29.2140   48.8470 C   0  0  0  0  0  0  0  0  0  0  0  0
   60.4338   28.7830   49.3272 H   0  0  0  0  0  0  0  0  0  0  0  0
   59.4335   30.2648   49.1535 H   0  0  0  0  0  0  0  0  0  0  0  0
   58.6511   28.6478   49.1535 H   0  0  0  0  0  0  0  0  0  0  0  0
   61.0940   29.6490   46.8930 C   0  0  0  0  0  0  0  0  0  0  0  0
   61.2887   29.3435   45.8544 H   0  0  0  0  0  0  0  0  0  0  0  0
   61.8430   29.2153   47.5719 H   0  0  0  0  0  0  0  0  0  0  0  0
   61.1770   31.1440   46.9870 C   0  0  0  0  0  0  0  0  0  0  0  0
   62.2230   31.6660   47.3430 O   0  0  0  0  0  0  0  0  0  0  0  0
   60.0410   31.9950   46.4590 C   0  0  2  0  0  0  0  0  0  0  0  0
   60.4087   32.3076   45.4705 H   0  0  0  0  0  0  0  0  0  0  0  0
   59.7700   33.2800   47.2840 C   0  0  2  0  0  0  0  0  0  0  0  0
   60.6855   33.8841   47.2001 H   0  0  0  0  0  0  0  0  0  0  0  0
   59.6550   33.0570   48.8070 C   0  0  0  0  0  0  0  0  0  0  0  0
   58.4950   32.4010   49.2730 C   0  0  0  0  0  0  0  0  0  0  0  0
   57.7449   32.0542   48.5470 H   0  0  0  0  0  0  0  0  0  0  0  0
   58.2790   32.1830   50.6330 C   0  0  0  0  0  0  0  0  0  0  0  0
   57.1170   31.5410   51.0890 C   0  0  0  0  0  0  0  0  0  0  0  0
   56.3597   31.1987   50.3684 H   0  0  0  0  0  0  0  0  0  0  0  0
   56.9210   31.3360   52.4590 C   0  0  0  0  0  0  0  0  0  0  0  0
   55.3370   30.4630   53.0760 Br  0  0  0  0  0  0  0  0  0  0  0  0
   57.8820   31.7700   53.3770 C   0  0  0  0  0  0  0  0  0  0  0  0
   57.7257   31.6080   54.4537 H   0  0  0  0  0  0  0  0  0  0  0  0
   59.0420   32.4100   52.9280 C   0  0  0  0  0  0  0  0  0  0  0  0
   59.7959   32.7506   53.6530 H   0  0  0  0  0  0  0  0  0  0  0  0
   59.2470   32.6190   51.5550 C   0  0  0  0  0  0  0  0  0  0  0  0
   60.3710   33.2420   51.1090 N   0  0  0  0  0  0  0  0  0  0  0  0
   61.0840   33.5620   51.8050 H   0  0  0  0  0  0  0  0  0  0  0  0
   60.6050   33.4720   49.7860 C   0  0  0  0  0  0  0  0  0  0  0  0
   62.1050   34.3030   49.4060 Cl  0  0  0  0  0  0  0  0  0  0  0  0
   58.6300   34.1550   46.6620 C   0  0  1  0  0  0  0  0  0  0  0  0
   58.1707   34.6574   47.5261 H   0  0  0  0  0  0  0  0  0  0  0  0
   59.1920   35.1110   45.6890 C   0  0  0  0  0  0  0  0  0  0  0  0
   59.6330   35.8610   44.9260 N   0  0  0  0  0  0  0  0  0  0  0  0
  1  2  1  0
  2  3  2  0
  3  4  1  0
  4  5  1  0
  5  6  1  0
  5  7  1  0
  5  8  1  0
  8  9  1  0
  8 10  1  0
  8 11  1  0
 11 12  1  0
 11 13  1  0
 11 14  1  0
  4 15  1  0
 15 16  2  0
 16 17  1  0
 16 18  1  0
 18 19  1  0
 19 20  1  0
 19 21  1  0
 19 22  1  0
 18 23  1  0
 23 24  1  0
 23 25  1  0
 23 26  1  0
 18 27  1  0
 27 28  1  0
 27 29  1  0
 27 30  1  0
 30 31  2  0
 30 32  1  0
 32 33  1  6
 32 34  1  0
 34 35  1  1
 34 36  1  0
 36 37  2  0
 37 38  1  0
 37 39  1  0
 39 40  2  0
 40 41  1  0
 40 42  1  0
 42 43  1  0
 42 44  2  0
 44 45  1  0
 44 46  1  0
 46 47  1  0
 46 48  2  0
 48 49  1  0
 49 50  1  0
 49 51  2  0
 51 52  1  0
 34 53  1  0
 53 54  1  1
 53 55  1  0
 55 56  3  0
 53  3  1  0
 32 15  1  0
 51 36  1  0
 48 39  1  0
M  CHG  1  49   1
M  END
>  <UniqueID>  (5) 
5

>  <SMILES>  (5) 
[H]/N=C1\[C@H](C#N)[C@@H](c2cc3cc(Br)ccc3[nH+]c2Cl)C2C(=O)CC(C)(C)C=C2N1CCC

>  <Energy>  (5) 
73.60538888382989

>  <Genealogy>  (5) 
CCCN1C(=N)C(C#N)C(c2cc3cc(Br)ccc3[nH+]c2Cl)C2C(=O)CC(C)(C)C=C21 (protonated)
CCCN1C(=N)[C@H](C#N)[C@@H](c2cc3cc(Br)ccc3[nH+]c2Cl)C2C(=O)CC(C)(C)C=C21 (chirality)
[H]/N=C1\[C@H](C#N)[C@@H](c2cc3cc(Br)ccc3[nH+]c2Cl)C2C(=O)CC(C)(C)C=C2N1CCC (cis-trans isomerization)
[H]/N=C1\[C@H](C#N)[C@@H](c2cc3cc(Br)ccc3[nH+]c2Cl)C2C(=O)CC(C)(C)C=C2N1CCC (3D coordinates assigned)
[H]/N=C1\[C@H](C#N)[C@@H](c2cc3cc(Br)ccc3[nH+]c2Cl)C2C(=O)CC(C)(C)C=C2N1CCC (nonaromatic ring conformer: 73.60538888382989 kcal/mol)

>  <smiles>  (5) 
CCCN1C(=N)C(C#N)C(c2cc3cc(Br)ccc3nc2Cl)C2C(=O)CC(C)(C)C=C21

>  <score_type>  (5) 
oracle

>  <origin>  (5) 
adg

>  <m_score__min__energy>  (5) 
-7.6900000000000004

>  <m_primary>  (5) 
energy

$$$$
5:0
     RDKit          3D

 68 70  0  0  0  0  0  0  0  0999 V2000
   54.5330   22.6780   46.0920 C   0  0  0  0  0  0  0  0  0  0  0  0
   54.6740   23.0040   44.9400 C   0  0  0  0  0  0  0  0  0  0  0  0
   54.8440   23.4030   43.5380 C   0  0  0  0  0  0  0  0  0  0  0  0
   55.8590   22.5610   42.8910 N   0  0  0  0  0  0  0  0  0  0  0  0
   57.1180   22.5030   43.6550 C   0  0  0  0  0  0  0  0  0  0  0  0
   57.5260   23.8600   44.1850 C   0  0  0  0  0  0  0  0  0  0  0  0
   58.0550   23.9780   45.4780 C   0  0  0  0  0  0  0  0  0  0  0  0
   58.4500   25.2250   45.9700 C   0  0  0  0  0  0  0  0  0  0  0  0
   58.3210   26.3790   45.1770 C   0  0  0  0  0  0  0  0  0  0  0  0
   58.7350   27.7060   45.7030 C   0  0  0  0  0  0  0  0  0  0  0  0
   58.2010   28.1980   46.9080 C   0  0  0  0  0  0  0  0  0  0  0  0
   58.5990   29.4460   47.4020 C   0  0  0  0  0  0  0  0  0  0  0  0
   59.5440   30.2160   46.7090 C   0  0  0  0  0  0  0  0  0  0  0  0
   59.9660   31.5650   47.2450 C   0  0  0  0  0  0  0  0  0  0  0  0
   59.5380   32.6730   46.3560 N   0  0  1  0  0  0  0  0  0  0  0  0
   58.0680   32.6700   46.1620 C   0  0  0  0  0  0  0  0  0  0  0  0
   57.6790   32.1450   44.7960 C   0  0  0  0  0  0  0  0  0  0  0  0
   58.0950   32.8220   43.6350 C   0  0  0  0  0  0  0  0  0  0  0  0
   57.7610   32.3250   42.3720 C   0  0  0  0  0  0  0  0  0  0  0  0
   57.0220   31.1440   42.2550 C   0  0  0  0  0  0  0  0  0  0  0  0
   56.6170   30.4570   43.4010 C   0  0  0  0  0  0  0  0  0  0  0  0
   56.9360   30.9600   44.6680 C   0  0  0  0  0  0  0  0  0  0  0  0
   59.9510   33.9530   46.9120 C   0  0  0  0  0  0  0  0  0  0  0  0
   59.8270   34.9750   46.2500 O   0  0  0  0  0  0  0  0  0  0  0  0
   60.4760   34.0540   48.3280 C   0  0  0  0  0  0  0  0  0  0  0  0
   62.0070   34.1680   48.3850 C   0  0  0  0  0  0  0  0  0  0  0  0
   62.6710   33.8060   47.0490 C   0  0  0  0  0  0  0  0  0  0  0  0
   63.3770   32.4470   47.1370 C   0  0  0  0  0  0  0  0  0  0  0  0
   63.7150   32.0910   48.5830 C   0  0  0  0  0  0  0  0  0  0  0  0
   60.0700   29.7340   45.5010 C   0  0  0  0  0  0  0  0  0  0  0  0
   59.6730   28.4890   45.0050 C   0  0  0  0  0  0  0  0  0  0  0  0
   57.7840   26.2560   43.8830 C   0  0  0  0  0  0  0  0  0  0  0  0
   57.3910   25.0090   43.3900 C   0  0  0  0  0  0  0  0  0  0  0  0
   54.4043   22.3805   47.1432 H   0  0  0  0  0  0  0  0  0  0  0  0
   53.8863   23.2891   43.0090 H   0  0  0  0  0  0  0  0  0  0  0  0
   55.1710   24.4526   43.5004 H   0  0  0  0  0  0  0  0  0  0  0  0
   56.0520   22.9440   41.9360 H   0  0  0  0  0  0  0  0  0  0  0  0
   56.9863   21.8158   44.5038 H   0  0  0  0  0  0  0  0  0  0  0  0
   57.9098   22.1527   42.9765 H   0  0  0  0  0  0  0  0  0  0  0  0
   58.1598   23.0833   46.1093 H   0  0  0  0  0  0  0  0  0  0  0  0
   58.8651   25.3044   46.9856 H   0  0  0  0  0  0  0  0  0  0  0  0
   57.4663   27.5984   47.4654 H   0  0  0  0  0  0  0  0  0  0  0  0
   58.1675   29.8251   48.3401 H   0  0  0  0  0  0  0  0  0  0  0  0
   59.5140   31.7105   48.2372 H   0  0  0  0  0  0  0  0  0  0  0  0
   61.0644   31.5799   47.3031 H   0  0  0  0  0  0  0  0  0  0  0  0
   59.9880   32.5370   45.4210 H   0  0  0  0  0  0  0  0  0  0  0  0
   57.6091   32.0322   46.9318 H   0  0  0  0  0  0  0  0  0  0  0  0
   57.7118   33.7076   46.2421 H   0  0  0  0  0  0  0  0  0  0  0  0
   58.6854   33.7461   43.7215 H   0  0  0  0  0  0  0  0  0  0  0  0
   58.0803   32.8643   41.4680 H   0  0  0  0  0  0  0  0  0  0  0  0
   56.7596   30.7559   41.2597 H   0  0  0  0  0  0  0  0  0  0  0  0
   56.0473   29.5206   43.3084 H   0  0  0  0  0  0  0  0  0  0  0  0
   56.6027   30.4238   45.5688 H   0  0  0  0  0  0  0  0  0  0  0  0
   60.0387   34.9446   48.8029 H   0  0  0  0  0  0  0  0  0  0  0  0
   60.1913   33.1314   48.8549 H   0  0  0  0  0  0  0  0  0  0  0  0
   62.2748   35.2031   48.6435 H   0  0  0  0  0  0  0  0  0  0  0  0
   62.3683   33.4570   49.1426 H   0  0  0  0  0  0  0  0  0  0  0  0
   61.9008   33.7613   46.2649 H   0  0  0  0  0  0  0  0  0  0  0  0
   63.4199   34.5754   46.8098 H   0  0  0  0  0  0  0  0  0  0  0  0
   62.7157   31.6720   46.7222 H   0  0  0  0  0  0  0  0  0  0  0  0
   64.3148   32.5048   46.5649 H   0  0  0  0  0  0  0  0  0  0  0  0
   63.1200   32.7177   49.2636 H   0  0  0  0  0  0  0  0  0  0  0  0
   63.4829   31.0310   48.7635 H   0  0  0  0  0  0  0  0  0  0  0  0
   64.7856   32.2678   48.7635 H   0  0  0  0  0  0  0  0  0  0  0  0
   60.7986   30.3390   44.9413 H   0  0  0  0  0  0  0  0  0  0  0  0
   60.0976   28.1179   44.0605 H   0  0  0  0  0  0  0  0  0  0  0  0
   57.6722   27.1505   43.2526 H   0  0  0  0  0  0  0  0  0  0  0  0
   56.9743   24.9274   42.3752 H   0  0  0  0  0  0  0  0  0  0  0  0
  1  2  3  0
  2  3  1  0
  3  4  1  0
  4  5  1  0
  5  6  1  0
  6  7  2  0
  7  8  1  0
  8  9  2  0
  9 10  1  0
 10 11  2  0
 11 12  1  0
 12 13  2  0
 13 14  1  0
 14 15  1  0
 15 16  1  0
 16 17  1  0
 17 18  2  0
 18 19  1  0
 19 20  2  0
 20 21  1  0
 21 22  2  0
 15 23  1  0
 23 24  2  0
 23 25  1  0
 25 26  1  0
 26 27  1  0
 27 28  1  0
 28 29  1  0
 13 30  1  0
 30 31  2  0
  9 32  1  0
 32 33  2  0
 33  6  1  0
 31 10  1  0
 22 17  1  0
  1 34  1  0
  3 35  1  0
  3 36  1  0
  4 37  1  0
  5 38  1  0
  5 39  1  0
  7 40  1  0
  8 41  1  0
 11 42  1  0
 12 43  1  0
 14 44  1  0
 14 45  1  0
 15 46  1  6
 16 47  1  0
 16 48  1  0
 18 49  1  0
 19 50  1  0
 20 51  1  0
 21 52  1  0
 22 53  1  0
 25 54  1  0
 25 55  1  0
 26 56  1  0
 26 57  1  0
 27 58  1  0
 27 59  1  0
 28 60  1  0
 28 61  1  0
 29 62  1  0
 29 63  1  0
 29 64  1  0
 30 65  1  0
 31 66  1  0
 32 67  1  0
 33 68  1  0
M  CHG  1  15   1
M  END
>  <UniqueID>  (6) 
6

>  <SMILES>  (6) 
C#CCNCc1ccc(-c2ccc(C[N@@H+](Cc3ccccc3)C(=O)CCCCC)cc2)cc1

>  <Energy>  (6) 
64.12894584489018

>  <Genealogy>  (6) 
C#CCNCc1ccc(-c2ccc(C[NH+](Cc3ccccc3)C(=O)CCCCC)cc2)cc1 (protonated)
C#CCNCc1ccc(-c2ccc(C[N@@H+](Cc3ccccc3)C(=O)CCCCC)cc2)cc1 (chirality)
C#CCNCc1ccc(-c2ccc(C[N@@H+](Cc3ccccc3)C(=O)CCCCC)cc2)cc1 (3D coordinates assigned)
C#CCNCc1ccc(-c2ccc(C[N@@H+](Cc3ccccc3)C(=O)CCCCC)cc2)cc1 (optimized conformer: 64.12894584489018 kcal/mol)

>  <smiles>  (6) 
C#CCNCc1ccc(-c2ccc(CN(Cc3ccccc3)C(=O)CCCCC)cc2)cc1

>  <score_type>  (6) 
oracle

>  <origin>  (6) 
adg

>  <m_score__min__energy>  (6) 
-7.5300000000000002

>  <m_primary>  (6) 
energy

$$$$
6:0
     RDKit          3D

 31 31  0  0  0  0  0  0  0  0999 V2000
   59.2700   34.9480   47.3560 C   0  0  0  0  0  0  0  0  0  0  0  0
   58.8650   33.5770   46.9600 N   0  0  0  0  0  0  0  0  0  0  0  0
   58.4520   32.8460   48.1840 C   0  0  0  0  0  0  0  0  0  0  0  0
   60.0230   32.8700   46.3640 C   0  0  0  0  0  0  0  0  0  0  0  0
   57.6940   33.6070   46.0270 C   0  0  0  0  0  0  0  0  0  0  0  0
   57.7610   32.6330   44.8330 C   0  0  0  0  0  0  0  0  0  0  0  0
   57.2330   31.3600   45.2000 O   0  0  0  0  0  0  0  0  0  0  0  0
   57.7500   30.1310   44.7660 C   0  0  0  0  0  0  0  0  0  0  0  0
   59.0560   29.7070   45.0700 C   0  0  0  0  0  0  0  0  0  0  0  0
   59.5100   28.4690   44.6090 C   0  0  0  0  0  0  0  0  0  0  0  0
   58.6580   27.6670   43.8490 C   0  0  0  0  0  0  0  0  0  0  0  0
   57.3960   28.0890   43.5620 N   0  0  0  0  0  0  0  0  0  0  0  0
   56.9330   29.2920   44.0010 C   0  0  0  0  0  0  0  0  0  0  0  0
   59.2917   35.0214   48.4533 H   0  0  0  0  0  0  0  0  0  0  0  0
   60.2707   35.1652   46.9542 H   0  0  0  0  0  0  0  0  0  0  0  0
   58.5480   35.6741   46.9542 H   0  0  0  0  0  0  0  0  0  0  0  0
   58.7707   33.4100   49.0730 H   0  0  0  0  0  0  0  0  0  0  0  0
   57.3577   32.7349   48.1930 H   0  0  0  0  0  0  0  0  0  0  0  0
   58.9216   31.8513   48.1930 H   0  0  0  0  0  0  0  0  0  0  0  0
   60.6655   32.4777   47.1660 H   0  0  0  0  0  0  0  0  0  0  0  0
   59.6635   32.0372   45.7418 H   0  0  0  0  0  0  0  0  0  0  0  0
   60.5995   33.5703   45.7418 H   0  0  0  0  0  0  0  0  0  0  0  0
   56.7925   33.3655   46.6092 H   0  0  0  0  0  0  0  0  0  0  0  0
   57.6872   34.6160   45.5890 H   0  0  0  0  0  0  0  0  0  0  0  0
   57.1733   33.0421   43.9980 H   0  0  0  0  0  0  0  0  0  0  0  0
   58.8116   32.5101   44.5311 H   0  0  0  0  0  0  0  0  0  0  0  0
   59.7185   30.3488   45.6694 H   0  0  0  0  0  0  0  0  0  0  0  0
   60.5298   28.1295   44.8430 H   0  0  0  0  0  0  0  0  0  0  0  0
   59.0070   26.6910   43.4807 H   0  0  0  0  0  0  0  0  0  0  0  0
   56.7700   27.4780   42.9920 H   0  0  0  0  0  0  0  0  0  0  0  0
   55.9087   29.6064   43.7521 H   0  0  0  0  0  0  0  0  0  0  0  0
  1  2  1  0
  2  3  1  0
  2  4  1  0
  2  5  1  0
  5  6  1  0
  6  7  1  0
  7  8  1  0
  8  9  2  0
  9 10  1  0
 10 11  2  0
 11 12  1  0
 12 13  2  0
 13  8  1  0
  1 14  1  0
  1 15  1  0
  1 16  1  0
  3 17  1  0
  3 18  1  0
  3 19  1  0
  4 20  1  0
  4 21  1  0
  4 22  1  0
  5 23  1  0
  5 24  1  0
  6 25  1  0
  6 26  1  0
  9 27  1  0
 10 28  1  0
 11 29  1  0
 12 30  1  0
 13 31  1  0
M  CHG  2   2   1  12   1
M  END
>  <UniqueID>  (7) 
7

>  <SMILES>  (7) 
C[N+](C)(C)CCOc1ccc[nH+]c1

>  <Energy>  (7) 
34.180186348019866

>  <Genealogy>  (7) 
C[N+](C)(C)CCOc1ccc[nH+]c1 (protonated)
C[N+](C)(C)CCOc1ccc[nH+]c1 (3D coordinates assigned)
C[N+](C)(C)CCOc1ccc[nH+]c1 (optimized conformer: 34.180186348019866 kcal/mol)

>  <smiles>  (7) 
C[N+](C)(C)CCOc1cccnc1

>  <score_type>  (7) 
oracle

>  <origin>  (7) 
adg

>  <m_score__min__energy>  (7) 
-1.9299999999999999

>  <m_primary>  (7) 
energy

$$$$
7:0
     RDKit          3D

 41 44  0  0  0  0  0  0  0  0999 V2000
   56.0590   22.2060   42.2430 N   0  0  0  0  0  0  0  0  0  0  0  0
   56.6590   21.0560   42.9210 C   0  0  0  0  0  0  0  0  0  0  0  0
   56.6970   21.2340   44.4470 C   0  0  0  0  0  0  0  0  0  0  0  0
   57.0100   22.6560   44.8400 C   0  0  0  0  0  0  0  0  0  0  0  0
   58.3230   23.0300   45.1640 C   0  0  0  0  0  0  0  0  0  0  0  0
   58.6150   24.3540   45.5050 C   0  0  0  0  0  0  0  0  0  0  0  0
   57.6030   25.3310   45.5260 C   0  0  0  0  0  0  0  0  0  0  0  0
   57.9250   26.7360   45.8870 C   0  0  0  0  0  0  0  0  0  0  0  0
   58.3310   27.2080   47.1370 C   0  0  0  0  0  0  0  0  0  0  0  0
   58.5670   28.5890   47.1720 C   0  0  0  0  0  0  0  0  0  0  0  0
   58.3510   29.2220   45.9520 C   0  0  0  0  0  0  0  0  0  0  0  0
   58.5220   30.6650   45.6900 C   0  0  0  0  0  0  0  0  0  0  0  0
   58.0830   31.2520   44.4910 C   0  0  0  0  0  0  0  0  0  0  0  0
   58.2580   32.5850   44.2890 N   0  0  0  0  0  0  0  0  0  0  0  0
   58.8530   33.3660   45.2270 C   0  0  0  0  0  0  0  0  0  0  0  0
   59.0290   34.7380   45.0080 C   0  0  0  0  0  0  0  0  0  0  0  0
   59.6430   35.5250   45.9880 C   0  0  0  0  0  0  0  0  0  0  0  0
   60.0820   34.9460   47.1840 C   0  0  0  0  0  0  0  0  0  0  0  0
   59.9090   33.5760   47.4080 C   0  0  0  0  0  0  0  0  0  0  0  0
   59.2940   32.7840   46.4310 C   0  0  0  0  0  0  0  0  0  0  0  0
   59.1180   31.4520   46.6290 N   0  0  0  0  0  0  0  0  0  0  0  0
   57.8700   28.0550   44.8370 S   0  0  0  0  0  0  0  0  0  0  0  0
   56.2900   24.9500   45.1900 C   0  0  0  0  0  0  0  0  0  0  0  0
   56.0000   23.6250   44.8480 C   0  0  0  0  0  0  0  0  0  0  0  0
   56.8180   22.8560   41.9360 H   0  0  0  0  0  0  0  0  0  0  0  0
   55.5510   21.8760   41.3920 H   0  0  0  0  0  0  0  0  0  0  0  0
   56.0692   20.1582   42.6840 H   0  0  0  0  0  0  0  0  0  0  0  0
   57.6961   20.9599   42.5672 H   0  0  0  0  0  0  0  0  0  0  0  0
   55.7162   20.9582   44.8617 H   0  0  0  0  0  0  0  0  0  0  0  0
   57.4924   20.5873   44.8458 H   0  0  0  0  0  0  0  0  0  0  0  0
   59.1260   22.2783   45.1496 H   0  0  0  0  0  0  0  0  0  0  0  0
   59.6476   24.6350   45.7597 H   0  0  0  0  0  0  0  0  0  0  0  0
   58.4543   26.5555   48.0140 H   0  0  0  0  0  0  0  0  0  0  0  0
   58.8921   29.1218   48.0778 H   0  0  0  0  0  0  0  0  0  0  0  0
   57.5997   30.6353   43.7189 H   0  0  0  0  0  0  0  0  0  0  0  0
   58.6855   35.1953   44.0684 H   0  0  0  0  0  0  0  0  0  0  0  0
   59.7813   36.6029   45.8179 H   0  0  0  0  0  0  0  0  0  0  0  0
   60.5647   35.5702   47.9505 H   0  0  0  0  0  0  0  0  0  0  0  0
   60.2550   33.1226   48.3486 H   0  0  0  0  0  0  0  0  0  0  0  0
   55.4857   25.7003   45.1965 H   0  0  0  0  0  0  0  0  0  0  0  0
   54.9704   23.3424   44.5833 H   0  0  0  0  0  0  0  0  0  0  0  0
  1  2  1  0
  2  3  1  0
  3  4  1  0
  4  5  2  0
  5  6  1  0
  6  7  2  0
  7  8  1  0
  8  9  2  0
  9 10  1  0
 10 11  2  0
 11 12  1  0
 12 13  2  0
 13 14  1  0
 14 15  2  0
 15 16  1  0
 16 17  2  0
 17 18  1  0
 18 19  2  0
 19 20  1  0
 20 21  2  0
 11 22  1  0
  7 23  1  0
 23 24  2  0
 24  4  1  0
 22  8  1  0
 21 12  1  0
 20 15  1  0
  1 25  1  0
  1 26  1  0
  2 27  1  0
  2 28  1  0
  3 29  1  0
  3 30  1  0
  5 31  1  0
  6 32  1  0
  9 33  1  0
 10 34  1  0
 13 35  1  0
 16 36  1  0
 17 37  1  0
 18 38  1  0
 19 39  1  0
 23 40  1  0
 24 41  1  0
M  END
>  <UniqueID>  (8) 
8

>  <SMILES>  (8) 
NCCc1ccc(-c2ccc(-c3cnc4ccccc4n3)s2)cc1

>  <Energy>  (8) 
75.40724481197881

>  <Genealogy>  (8) 
NCCc1ccc(-c2ccc(-c3cnc4ccccc4n3)s2)cc1 (3D coordinates assigned)
NCCc1ccc(-c2ccc(-c3cnc4ccccc4n3)s2)cc1 (optimized conformer: 75.40724481197881 kcal/mol)

>  <smiles>  (8) 
NCCc1ccc(-c2ccc(-c3cnc4ccccc4n3)s2)cc1

>  <score_type>  (8) 
oracle

>  <origin>  (8) 
adg

>  <m_score__min__energy>  (8) 
-8.2300000000000004

>  <m_primary>  (8) 
energy

$$$$
8:0
     RDKit          3D

 38 40  0  0  0  0  0  0  0  0999 V2000
   61.6440   30.9280   46.9460 C   0  0  0  0  0  0  0  0  0  0  0  0
   61.0860   32.2680   47.1380 N   0  0  0  0  0  0  0  0  0  0  0  0
   59.8400   32.6960   46.8180 C   0  0  0  0  0  0  0  0  0  0  0  0
   58.8440   31.9460   46.0270 C   0  0  0  0  0  0  0  0  0  0  0  0
   58.5660   30.6020   46.3190 C   0  0  0  0  0  0  0  0  0  0  0  0
   57.6450   29.8870   45.5480 C   0  0  0  0  0  0  0  0  0  0  0  0
   56.9960   30.5000   44.4610 C   0  0  0  0  0  0  0  0  0  0  0  0
   56.0460   29.7670   43.6640 N   0  0  0  0  0  0  0  0  0  0  0  0
   54.9880   29.3390   44.1680 O   0  0  0  0  0  0  0  0  0  0  0  0
   56.2900   29.5280   42.3300 O   0  0  0  0  0  0  0  0  0  0  0  0
   57.2930   31.8400   44.1590 C   0  0  0  0  0  0  0  0  0  0  0  0
   58.2150   32.5540   44.9310 C   0  0  0  0  0  0  0  0  0  0  0  0
   59.6250   33.9620   47.3320 C   0  0  0  0  0  0  0  0  0  0  0  0
   60.7820   34.3250   47.9860 C   0  0  0  0  0  0  0  0  0  0  0  0
   61.6530   33.2640   47.8540 C   0  0  0  0  0  0  0  0  0  0  0  0
   63.2660   33.2370   48.5550 S   0  0  0  0  0  0  0  0  0  0  0  0
   64.5200   33.4700   47.4600 O   0  0  0  0  0  0  0  0  0  0  0  0
   63.5790   32.0270   49.7870 C   0  0  0  0  0  0  0  0  0  0  0  0
   62.5580   31.1720   50.2210 C   0  0  0  0  0  0  0  0  0  0  0  0
   62.8190   30.2080   51.2010 C   0  0  0  0  0  0  0  0  0  0  0  0
   64.1030   30.0930   51.7440 C   0  0  0  0  0  0  0  0  0  0  0  0
   65.1270   30.9390   51.3050 C   0  0  0  0  0  0  0  0  0  0  0  0
   64.8670   31.9020   50.3250 C   0  0  0  0  0  0  0  0  0  0  0  0
   61.8360   30.4669   47.9261 H   0  0  0  0  0  0  0  0  0  0  0  0
   60.9285   30.3099   46.3838 H   0  0  0  0  0  0  0  0  0  0  0  0
   62.5867   31.0005   46.3838 H   0  0  0  0  0  0  0  0  0  0  0  0
   59.0758   30.1082   47.1594 H   0  0  0  0  0  0  0  0  0  0  0  0
   57.4262   28.8372   45.7931 H   0  0  0  0  0  0  0  0  0  0  0  0
   56.7965   32.3310   43.3090 H   0  0  0  0  0  0  0  0  0  0  0  0
   58.4482   33.5986   44.6770 H   0  0  0  0  0  0  0  0  0  0  0  0
   58.7082   34.5624   47.2370 H   0  0  0  0  0  0  0  0  0  0  0  0
   60.9731   35.2733   48.5097 H   0  0  0  0  0  0  0  0  0  0  0  0
   64.7440   32.5640   47.1310 H   0  0  0  0  0  0  0  0  0  0  0  0
   61.5493   31.2585   49.7907 H   0  0  0  0  0  0  0  0  0  0  0  0
   62.0147   29.5408   51.5443 H   0  0  0  0  0  0  0  0  0  0  0  0
   64.3076   29.3371   52.5165 H   0  0  0  0  0  0  0  0  0  0  0  0
   66.1370   30.8467   51.7308 H   0  0  0  0  0  0  0  0  0  0  0  0
   65.6745   32.5623   49.9759 H   0  0  0  0  0  0  0  0  0  0  0  0
  1  2  1  0
  2  3  1  0
  3  4  1  0
  4  5  2  0
  5  6  1  0
  6  7  2  0
  7  8  1  0
  8  9  2  0
  8 10  1  0
  7 11  1  0
 11 12  2  0
  3 13  2  0
 13 14  1  0
 14 15  2  0
 15 16  1  0
 16 17  1  6
 16 18  1  0
 18 19  2  0
 19 20  1  0
 20 21  2  0
 21 22  1  0
 22 23  2  0
 15  2  1  0
 23 18  1  0
 12  4  1  0
  1 24  1  0
  1 25  1  0
  1 26  1  0
  5 27  1  0
  6 28  1  0
 11 29  1  0
 12 30  1  0
 13 31  1  0
 14 32  1  0
 17 33  1  0
 19 34  1  0
 20 35  1  0
 21 36  1  0
 22 37  1  0
 23 38  1  0
M  CHG  3   8   1  10  -1  16   1
M  END
>  <UniqueID>  (9) 
9

>  <SMILES>  (9) 
Cn1c(-c2ccc([N+](=O)[O-])cc2)ccc1[S@+](O)c1ccccc1

>  <Energy>  (9) 
72.612581115121

>  <Genealogy>  (9) 
Cn1c(-c2ccc([N+](=O)[O-])cc2)ccc1[S+](O)c1ccccc1 (protonated)
Cn1c(-c2ccc([N+](=O)[O-])cc2)ccc1[S@+](O)c1ccccc1 (chirality)
Cn1c(-c2ccc([N+](=O)[O-])cc2)ccc1[S@+](O)c1ccccc1 (3D coordinates assigned)
Cn1c(-c2ccc([N+](=O)[O-])cc2)ccc1[S@+](O)c1ccccc1 (optimized conformer: 72.612581115121 kcal/mol)

>  <smiles>  (9) 
Cn1c(-c2ccc([N+](=O)[O-])cc2)ccc1[S+]([O-])c1ccccc1

>  <score_type>  (9) 
oracle

>  <origin>  (9) 
adg

>  <m_score__min__energy>  (9) 
-6.4500000000000002

>  <m_primary>  (9) 
energy

$$$$
9:0
     RDKit          3D

 31 32  0  0  0  0  0  0  0  0999 V2000
   57.5790   26.4010   46.7380 C   0  0  0  0  0  0  0  0  0  0  0  0
   56.7420   27.1490   45.7040 C   0  0  0  0  0  0  0  0  0  0  0  0
   57.5900   28.0380   44.8970 N   0  0  0  0  0  0  0  0  0  0  0  0
   58.6610   27.4850   44.0570 C   0  0  0  0  0  0  0  0  0  0  0  0
   58.1150   27.0710   42.6950 C   0  0  0  0  0  0  0  0  0  0  0  0
   57.4250   29.4660   44.9870 C   0  0  0  0  0  0  0  0  0  0  0  0
   58.3940   30.3150   45.3820 N   0  0  0  0  0  0  0  0  0  0  0  0
   57.7560   31.5020   45.2920 C   0  0  0  0  0  0  0  0  0  0  0  0
   58.3850   32.7990   45.6230 C   0  0  0  0  0  0  0  0  0  0  0  0
   58.6660   33.7330   44.6100 C   0  0  0  0  0  0  0  0  0  0  0  0
   59.2610   34.9590   44.9250 C   0  0  0  0  0  0  0  0  0  0  0  0
   59.5810   35.2640   46.2490 C   0  0  0  0  0  0  0  0  0  0  0  0
   59.3060   34.3430   47.2640 C   0  0  0  0  0  0  0  0  0  0  0  0
   59.6160   34.6410   48.5500 F   0  0  0  0  0  0  0  0  0  0  0  0
   58.7110   33.1160   46.9550 C   0  0  0  0  0  0  0  0  0  0  0  0
   56.4830   31.3710   44.8670 N   0  0  0  0  0  0  0  0  0  0  0  0
   56.3170   30.0960   44.6890 O   0  0  0  0  0  0  0  0  0  0  0  0
   57.2562   26.6895   47.7492 H   0  0  0  0  0  0  0  0  0  0  0  0
   57.4436   25.3175   46.6050 H   0  0  0  0  0  0  0  0  0  0  0  0
   58.6405   26.6569   46.6050 H   0  0  0  0  0  0  0  0  0  0  0  0
   56.2492   26.4211   45.0427 H   0  0  0  0  0  0  0  0  0  0  0  0
   55.9899   27.7564   46.2288 H   0  0  0  0  0  0  0  0  0  0  0  0
   59.4411   28.2478   43.9171 H   0  0  0  0  0  0  0  0  0  0  0  0
   59.0806   26.5986   44.5552 H   0  0  0  0  0  0  0  0  0  0  0  0
   57.2455   26.4117   42.8335 H   0  0  0  0  0  0  0  0  0  0  0  0
   57.8102   27.9670   42.1344 H   0  0  0  0  0  0  0  0  0  0  0  0
   58.8955   26.5356   42.1344 H   0  0  0  0  0  0  0  0  0  0  0  0
   58.4166   33.4983   43.5647 H   0  0  0  0  0  0  0  0  0  0  0  0
   59.4773   35.6848   44.1272 H   0  0  0  0  0  0  0  0  0  0  0  0
   60.0494   36.2288   46.4936 H   0  0  0  0  0  0  0  0  0  0  0  0
   58.4965   32.3946   47.7572 H   0  0  0  0  0  0  0  0  0  0  0  0
  1  2  1  0
  2  3  1  0
  3  4  1  0
  4  5  1  0
  3  6  1  0
  6  7  2  0
  7  8  1  0
  8  9  1  0
  9 10  2  0
 10 11  1  0
 11 12  2  0
 12 13  1  0
 13 14  1  0
 13 15  2  0
  8 16  2  0
 16 17  1  0
 17  6  1  0
 15  9  1  0
  1 18  1  0
  1 19  1  0
  1 20  1  0
  2 21  1  0
  2 22  1  0
  4 23  1  0
  4 24  1  0
  5 25  1  0
  5 26  1  0
  5 27  1  0
 10 28  1  0
 11 29  1  0
 12 30  1  0
 15 31  1  0
M  END
>  <UniqueID>  (10) 
10

>  <SMILES>  (10) 
CCN(CC)c1nc(-c2cccc(F)c2)no1

>  <Energy>  (10) 
56.7549986121787

>  <Genealogy>  (10) 
CCN(CC)c1nc(-c2cccc(F)c2)no1 (3D coordinates assigned)
CCN(CC)c1nc(-c2cccc(F)c2)no1 (optimized conformer: 56.7549986121787 kcal/mol)

>  <smiles>  (10) 
CCN(CC)c1nc(-c2cccc(F)c2)no1

>  <score_type>  (10) 
oracle

>  <origin>  (10) 
adg

>  <m_score__min__energy>  (10) 
-6.4000000000000004

>  <m_primary>  (10) 
energy

$$$$
10:0
     RDKit          3D

 37 38  0  0  0  0  0  0  0  0999 V2000
   56.9650   30.8380   43.5540 C   0  0  0  0  0  0  0  0  0  0  0  0
   57.3850   30.7080   44.9090 O   0  0  0  0  0  0  0  0  0  0  0  0
   57.6610   29.4880   45.5460 C   0  0  0  0  0  0  0  0  0  0  0  0
   56.7680   28.3990   45.4840 C   0  0  0  0  0  0  0  0  0  0  0  0
   57.0740   27.1940   46.1270 C   0  0  0  0  0  0  0  0  0  0  0  0
   56.1580   26.0860   46.0580 C   0  0  0  0  0  0  0  0  0  0  0  0
   55.4220   25.1950   46.0010 N   0  0  0  0  0  0  0  0  0  0  0  0
   58.2670   27.0700   46.8420 C   0  0  0  0  0  0  0  0  0  0  0  0
   59.1570   28.1440   46.9120 C   0  0  0  0  0  0  0  0  0  0  0  0
   58.8700   29.3530   46.2570 C   0  0  0  0  0  0  0  0  0  0  0  0
   59.7840   30.4650   46.3250 N   0  0  0  0  0  0  0  0  0  0  0  0
   60.7470   30.6680   47.4070 C   0  0  0  0  0  0  0  0  0  0  0  0
   61.5740   31.9120   47.1760 C   0  0  0  0  0  0  0  0  0  0  0  0
   62.9630   31.8520   47.3880 C   0  0  0  0  0  0  0  0  0  0  0  0
   63.7630   32.9710   47.1690 C   0  0  0  0  0  0  0  0  0  0  0  0
   63.1720   34.1580   46.7450 C   0  0  0  0  0  0  0  0  0  0  0  0
   61.8300   34.2160   46.5510 N   0  0  0  0  0  0  0  0  0  0  0  0
   61.0170   33.1440   46.7480 C   0  0  0  0  0  0  0  0  0  0  0  0
   59.2930   33.3900   46.4770 S   0  0  0  0  0  0  0  0  0  0  0  0
   58.1920   32.9870   47.8150 C   0  0  0  0  0  0  0  0  0  0  0  0
   58.7380   32.9540   44.9520 O   0  0  0  0  0  0  0  0  0  0  0  0
   55.9145   31.1631   43.5253 H   0  0  0  0  0  0  0  0  0  0  0  0
   57.5936   31.5836   43.0452 H   0  0  0  0  0  0  0  0  0  0  0  0
   57.0625   29.8676   43.0452 H   0  0  0  0  0  0  0  0  0  0  0  0
   55.8247   28.4969   44.9267 H   0  0  0  0  0  0  0  0  0  0  0  0
   58.5062   26.1247   47.3510 H   0  0  0  0  0  0  0  0  0  0  0  0
   60.0905   28.0423   47.4848 H   0  0  0  0  0  0  0  0  0  0  0  0
   59.7830   31.1590   45.5450 H   0  0  0  0  0  0  0  0  0  0  0  0
   60.2027   30.7703   48.3574 H   0  0  0  0  0  0  0  0  0  0  0  0
   61.4232   29.8010   47.4389 H   0  0  0  0  0  0  0  0  0  0  0  0
   63.4219   30.9126   47.7300 H   0  0  0  0  0  0  0  0  0  0  0  0
   64.8499   32.9174   47.3293 H   0  0  0  0  0  0  0  0  0  0  0  0
   63.7926   35.0487   46.5673 H   0  0  0  0  0  0  0  0  0  0  0  0
   58.6976   33.1720   48.7743 H   0  0  0  0  0  0  0  0  0  0  0  0
   57.2901   33.6133   47.7490 H   0  0  0  0  0  0  0  0  0  0  0  0
   57.9076   31.9265   47.7490 H   0  0  0  0  0  0  0  0  0  0  0  0
   58.2680   32.0950   45.0850 H   0  0  0  0  0  0  0  0  0  0  0  0
  1  2  1  0
  2  3  1  0
  3  4  2  0
  4  5  1  0
  5  6  1  0
  6  7  3  0
  5  8  2  0
  8  9  1  0
  9 10  2  0
 10 11  1  0
 11 12  1  0
 12 13  1  0
 13 14  2  0
 14 15  1  0
 15 16  2  0
 16 17  1  0
 17 18  2  0
 18 19  1  0
 19 20  1  0
 19 21  1  6
 10  3  1  0
 18 13  1  0
  1 22  1  0
  1 23  1  0
  1 24  1  0
  4 25  1  0
  8 26  1  0
  9 27  1  0
 11 28  1  0
 12 29  1  0
 12 30  1  0
 14 31  1  0
 15 32  1  0
 16 33  1  0
 20 34  1  0
 20 35  1  0
 20 36  1  0
 21 37  1  0
M  CHG  1  19   1
M  END
>  <UniqueID>  (11) 
11

>  <SMILES>  (11) 
COc1cc(C#N)ccc1NCc1cccnc1[S@+](C)O

>  <Energy>  (11) 
36.59522612666752

>  <Genealogy>  (11) 
COc1cc(C#N)ccc1NCc1cccnc1[S+](C)O (protonated)
COc1cc(C#N)ccc1NCc1cccnc1[S@+](C)O (chirality)
COc1cc(C#N)ccc1NCc1cccnc1[S@+](C)O (3D coordinates assigned)
COc1cc(C#N)ccc1NCc1cccnc1[S@+](C)O (optimized conformer: 36.59522612666752 kcal/mol)

>  <smiles>  (11) 
COc1cc(C#N)ccc1NCc1cccnc1[S+](C)[O-]

>  <score_type>  (11) 
oracle

>  <origin>  (11) 
adg

>  <m_score__min__energy>  (11) 
-4.2699999999999996

>  <m_primary>  (11) 
energy

$$$$
11:0
     RDKit          3D

 40 42  0  0  0  0  0  0  0  0999 V2000
   58.4362   34.4673   44.5711 H   0  0  0  0  0  0  0  0  0  0  0  0
   58.5200   33.9120   45.5170 C   0  0  0  0  0  0  0  0  0  0  0  0
   59.1340   34.5110   46.6200 C   0  0  0  0  0  0  0  0  0  0  0  0
   59.5187   35.5385   46.5404 H   0  0  0  0  0  0  0  0  0  0  0  0
   59.2630   33.8090   47.8300 C   0  0  0  0  0  0  0  0  0  0  0  0
   59.8640   34.4390   48.9800 N   0  0  0  0  0  0  0  0  0  0  0  0
   59.6480   33.8830   49.8400 H   0  0  0  0  0  0  0  0  0  0  0  0
   59.4620   35.3980   49.1060 H   0  0  0  0  0  0  0  0  0  0  0  0
   61.3200   34.5290   48.7980 C   0  0  0  0  0  0  0  0  0  0  0  0
   61.7881   34.7852   49.7599 H   0  0  0  0  0  0  0  0  0  0  0  0
   61.5334   35.3052   48.0484 H   0  0  0  0  0  0  0  0  0  0  0  0
   61.8900   33.2010   48.3020 C   0  0  0  0  0  0  0  0  0  0  0  0
   62.1596   32.5729   49.1639 H   0  0  0  0  0  0  0  0  0  0  0  0
   61.1351   32.6827   47.6925 H   0  0  0  0  0  0  0  0  0  0  0  0
   62.7857   33.3912   47.6925 H   0  0  0  0  0  0  0  0  0  0  0  0
   58.7550   32.5020   47.9200 C   0  0  0  0  0  0  0  0  0  0  0  0
   58.8405   31.9462   48.8654 H   0  0  0  0  0  0  0  0  0  0  0  0
   58.1420   31.9040   46.8160 C   0  0  0  0  0  0  0  0  0  0  0  0
   57.7606   30.8752   46.8943 H   0  0  0  0  0  0  0  0  0  0  0  0
   58.0090   32.6070   45.6060 C   0  0  0  0  0  0  0  0  0  0  0  0
   57.3600   31.9770   44.4300 C   0  0  0  0  0  0  0  0  0  0  0  0
   57.6180   32.4100   43.2760 O   0  0  0  0  0  0  0  0  0  0  0  0
   56.4950   30.8400   44.5600 N   0  0  0  0  0  0  0  0  0  0  0  0
   56.8760   29.6240   44.8190 C   0  0  0  0  0  0  0  0  0  0  0  0
   56.0160   28.6910   45.2920 N   0  0  0  0  0  0  0  0  0  0  0  0
   56.6530   27.5140   45.5150 C   0  0  0  0  0  0  0  0  0  0  0  0
   56.0320   26.3620   45.9970 C   0  0  0  0  0  0  0  0  0  0  0  0
   54.9557   26.3590   46.2242 H   0  0  0  0  0  0  0  0  0  0  0  0
   56.8070   25.2050   46.1870 C   0  0  0  0  0  0  0  0  0  0  0  0
   56.3300   24.2889   46.5654 H   0  0  0  0  0  0  0  0  0  0  0  0
   58.1890   25.2020   45.8990 C   0  0  0  0  0  0  0  0  0  0  0  0
   58.9080   24.0160   46.1090 O   0  0  0  0  0  0  0  0  0  0  0  0
   58.8600   22.8860   45.2440 C   0  0  0  0  0  0  0  0  0  0  0  0
   58.8209   21.9656   45.8450 H   0  0  0  0  0  0  0  0  0  0  0  0
   57.9637   22.9479   44.6094 H   0  0  0  0  0  0  0  0  0  0  0  0
   59.7583   22.8716   44.6094 H   0  0  0  0  0  0  0  0  0  0  0  0
   58.8020   26.3800   45.4120 C   0  0  0  0  0  0  0  0  0  0  0  0
   59.8772   26.4023   45.1806 H   0  0  0  0  0  0  0  0  0  0  0  0
   58.0090   27.5110   45.2330 C   0  0  0  0  0  0  0  0  0  0  0  0
   58.4650   29.0280   44.6800 S   0  0  0  0  0  0  0  0  0  0  0  0
  1  2  1  0
  2  3  2  0
  3  4  1  0
  3  5  1  0
  5  6  1  0
  6  7  1  0
  6  8  1  0
  6  9  1  0
  9 10  1  0
  9 11  1  0
  9 12  1  0
 12 13  1  0
 12 14  1  0
 12 15  1  0
  5 16  2  0
 16 17  1  0
 16 18  1  0
 18 19  1  0
 18 20  2  0
 20 21  1  0
 21 22  2  0
 21 23  1  0
 23 24  2  0
 24 25  1  0
 25 26  1  0
 26 27  2  0
 27 28  1  0
 27 29  1  0
 29 30  1  0
 29 31  2  0
 31 32  1  0
 32 33  1  0
 33 34  1  0
 33 35  1  0
 33 36  1  0
 31 37  1  0
 37 38  1  0
 37 39  2  0
 39 40  1  0
 20  2  1  0
 40 24  1  0
 39 26  1  0
M  CHG  2   6   1  25  -1
M  END
>  <UniqueID>  (12) 
12

>  <SMILES>  (12) 
CC[NH2+]c1ccc(C(=O)/N=c2/[n-]c3ccc(OC)cc3s2)cc1

>  <Energy>  (12) 
82.42933993230729

>  <Genealogy>  (12) 
CC[NH2+]c1ccc(C(=O)N=c2[n-]c3ccc(OC)cc3s2)cc1 (protonated)
CC[NH2+]c1ccc(C(=O)/N=c2/[n-]c3ccc(OC)cc3s2)cc1 (cis-trans isomerization)
CC[NH2+]c1ccc(C(=O)/N=c2/[n-]c3ccc(OC)cc3s2)cc1 (3D coordinates assigned)
CC[NH2+]c1ccc(C(=O)/N=c2/[n-]c3ccc(OC)cc3s2)cc1 (optimized conformer: 82.42933993230729 kcal/mol)

>  <smiles>  (12) 
CCNc1ccc(C(=O)N=c2[nH]c3ccc(OC)cc3s2)cc1

>  <score_type>  (12) 
oracle

>  <origin>  (12) 
adg

>  <m_score__min__energy>  (12) 
-7.7699999999999996

>  <m_primary>  (12) 
energy

$$$$
12:0
     RDKit          3D

 49 51  0  0  0  0  0  0  0  0999 V2000
   64.8610   32.7590   50.2610 C   0  0  0  0  0  0  0  0  0  0  0  0
   63.5770   32.3780   49.5080 C   0  0  0  0  0  0  0  0  0  0  0  0
   63.6650   32.5260   48.0280 N   0  0  0  0  0  0  0  0  0  0  0  0
   62.8360   33.6460   47.5050 C   0  0  0  0  0  0  0  0  0  0  0  0
   63.3030   34.1440   46.1330 C   0  0  0  0  0  0  0  0  0  0  0  0
   63.3290   31.2490   47.3320 C   0  0  0  0  0  0  0  0  0  0  0  0
   61.8270   31.0970   47.0150 C   0  0  0  0  0  0  0  0  0  0  0  0
   60.9570   30.9130   48.2330 C   0  0  0  0  0  0  0  0  0  0  0  0
   61.3590   30.1370   49.1430 O   0  0  0  0  0  0  0  0  0  0  0  0
   59.7220   31.6400   48.4130 N   0  0  0  0  0  0  0  0  0  0  0  0
   59.1360   31.7490   49.7110 C   0  0  0  0  0  0  0  0  0  0  0  0
   58.5790   30.6140   50.3190 C   0  0  0  0  0  0  0  0  0  0  0  0
   58.0260   30.6980   51.5970 C   0  0  0  0  0  0  0  0  0  0  0  0
   58.0330   31.9150   52.2800 C   0  0  0  0  0  0  0  0  0  0  0  0
   58.5880   33.0510   51.6850 C   0  0  0  0  0  0  0  0  0  0  0  0
   59.1280   32.9870   50.3890 C   0  0  0  0  0  0  0  0  0  0  0  0
   59.7590   34.2070   49.8250 C   0  0  0  0  0  0  0  0  0  0  0  0
   59.7820   34.5640   48.5310 C   0  0  0  0  0  0  0  0  0  0  0  0
   59.1590   33.8190   47.4120 C   0  0  0  0  0  0  0  0  0  0  0  0
   58.6260   34.5490   46.3360 C   0  0  0  0  0  0  0  0  0  0  0  0
   58.0220   33.8910   45.2620 C   0  0  0  0  0  0  0  0  0  0  0  0
   57.9480   32.4980   45.2480 C   0  0  0  0  0  0  0  0  0  0  0  0
   58.4960   31.7600   46.2970 C   0  0  0  0  0  0  0  0  0  0  0  0
   59.1330   32.4120   47.3630 C   0  0  0  0  0  0  0  0  0  0  0  0
   64.6802   32.7053   51.3447 H   0  0  0  0  0  0  0  0  0  0  0  0
   65.6665   32.0612   49.9887 H   0  0  0  0  0  0  0  0  0  0  0  0
   65.1555   33.7833   49.9887 H   0  0  0  0  0  0  0  0  0  0  0  0
   63.3435   31.3274   49.7355 H   0  0  0  0  0  0  0  0  0  0  0  0
   62.7956   33.0739   49.8474 H   0  0  0  0  0  0  0  0  0  0  0  0
   64.6670   32.7570   47.8310 H   0  0  0  0  0  0  0  0  0  0  0  0
   61.7952   33.3010   47.4175 H   0  0  0  0  0  0  0  0  0  0  0  0
   62.9316   34.4846   48.2104 H   0  0  0  0  0  0  0  0  0  0  0  0
   64.0499   34.9404   46.2668 H   0  0  0  0  0  0  0  0  0  0  0  0
   63.7523   33.3101   45.5737 H   0  0  0  0  0  0  0  0  0  0  0  0
   62.4420   34.5389   45.5737 H   0  0  0  0  0  0  0  0  0  0  0  0
   63.8900   31.2098   46.3866 H   0  0  0  0  0  0  0  0  0  0  0  0
   63.6003   30.4287   48.0128 H   0  0  0  0  0  0  0  0  0  0  0  0
   61.4925   32.0008   46.4847 H   0  0  0  0  0  0  0  0  0  0  0  0
   61.7211   30.1854   46.4085 H   0  0  0  0  0  0  0  0  0  0  0  0
   58.5783   29.6523   49.7850 H   0  0  0  0  0  0  0  0  0  0  0  0
   57.5849   29.8060   52.0658 H   0  0  0  0  0  0  0  0  0  0  0  0
   57.6005   31.9801   53.2893 H   0  0  0  0  0  0  0  0  0  0  0  0
   58.6024   34.0032   52.2355 H   0  0  0  0  0  0  0  0  0  0  0  0
   60.2556   34.8836   50.5360 H   0  0  0  0  0  0  0  0  0  0  0  0
   60.3117   35.4944   48.2785 H   0  0  0  0  0  0  0  0  0  0  0  0
   58.6849   35.6474   46.3395 H   0  0  0  0  0  0  0  0  0  0  0  0
   57.6043   34.4718   44.4264 H   0  0  0  0  0  0  0  0  0  0  0  0
   57.4575   31.9817   44.4097 H   0  0  0  0  0  0  0  0  0  0  0  0
   58.4283   30.6621   46.2882 H   0  0  0  0  0  0  0  0  0  0  0  0
  1  2  1  0
  2  3  1  0
  3  4  1  0
  4  5  1  0
  3  6  1  0
  6  7  1  0
  7  8  1  0
  8  9  2  0
  8 10  1  0
 10 11  1  0
 11 12  2  0
 12 13  1  0
 13 14  2  0
 14 15  1  0
 15 16  2  0
 16 17  1  0
 17 18  2  0
 18 19  1  0
 19 20  2  0
 20 21  1  0
 21 22  2  0
 22 23  1  0
 23 24  2  0
 24 10  1  0
 16 11  1  0
 24 19  1  0
  1 25  1  0
  1 26  1  0
  1 27  1  0
  2 28  1  0
  2 29  1  0
  3 30  1  0
  4 31  1  0
  4 32  1  0
  5 33  1  0
  5 34  1  0
  5 35  1  0
  6 36  1  0
  6 37  1  0
  7 38  1  0
  7 39  1  0
 12 40  1  0
 13 41  1  0
 14 42  1  0
 15 43  1  0
 17 44  1  0
 18 45  1  0
 20 46  1  0
 21 47  1  0
 22 48  1  0
 23 49  1  0
M  CHG  1   3   1
M  END
>  <UniqueID>  (13) 
13

>  <SMILES>  (13) 
CC[NH+](CC)CCC(=O)N1c2ccccc2C=Cc2ccccc21

>  <Energy>  (13) 
77.50449284610262

>  <Genealogy>  (13) 
CC[NH+](CC)CCC(=O)N1c2ccccc2C=Cc2ccccc21 (protonated)
CC[NH+](CC)CCC(=O)N1c2ccccc2C=Cc2ccccc21 (3D coordinates assigned)
CC[NH+](CC)CCC(=O)N1c2ccccc2C=Cc2ccccc21 (nonaromatic ring conformer: 77.50449284610262 kcal/mol)

>  <smiles>  (13) 
CCN(CC)CCC(=O)N1c2ccccc2C=Cc2ccccc21

>  <score_type>  (13) 
oracle

>  <origin>  (13) 
adg

>  <m_score__min__energy>  (13) 
-4.71

>  <m_primary>  (13) 
energy

$$$$
13:0
     RDKit          3D

 50 53  0  0  0  0  0  0  0  0999 V2000
   53.7310   30.1020   51.6280 C   0  0  0  0  0  0  0  0  0  0  0  0
   54.6980   31.1140   52.2360 C   0  0  0  0  0  0  0  0  0  0  0  0
   55.9880   30.4800   52.5550 N   0  0  0  0  0  0  0  0  0  0  0  0
   56.0210   29.3330   53.4690 C   0  0  0  0  0  0  0  0  0  0  0  0
   57.2260   30.9780   51.9950 C   0  0  0  0  0  0  0  0  0  0  0  0
   57.5240   32.3540   52.0100 C   0  0  0  0  0  0  0  0  0  0  0  0
   58.7200   32.8300   51.4670 C   0  0  0  0  0  0  0  0  0  0  0  0
   59.6380   31.9430   50.8860 C   0  0  0  0  0  0  0  0  0  0  0  0
   60.8760   32.4240   50.3330 N   0  0  0  0  0  0  0  0  0  0  0  0
   62.0380   32.3410   50.9550 N   0  0  0  0  0  0  0  0  0  0  0  0
   62.9390   33.0020   50.2010 C   0  0  0  0  0  0  0  0  0  0  0  0
   64.3740   33.1750   50.5390 C   0  0  0  0  0  0  0  0  0  0  0  0
   65.3660   32.3450   49.9820 C   0  0  0  0  0  0  0  0  0  0  0  0
   66.7120   32.5270   50.3150 C   0  0  0  0  0  0  0  0  0  0  0  0
   67.0850   33.5370   51.2040 C   0  0  0  0  0  0  0  0  0  0  0  0
   66.1120   34.3700   51.7620 C   0  0  0  0  0  0  0  0  0  0  0  0
   66.6240   35.7530   52.9760 Br  0  0  0  0  0  0  0  0  0  0  0  0
   64.7650   34.1920   51.4320 C   0  0  0  0  0  0  0  0  0  0  0  0
   62.3720   33.5130   49.0850 N   0  0  0  0  0  0  0  0  0  0  0  0
   61.0830   33.1290   49.1960 C   0  0  0  0  0  0  0  0  0  0  0  0
   60.0760   33.4070   48.1490 C   0  0  0  0  0  0  0  0  0  0  0  0
   59.0460   32.4910   47.8710 C   0  0  0  0  0  0  0  0  0  0  0  0
   58.1110   32.7640   46.8690 C   0  0  0  0  0  0  0  0  0  0  0  0
   58.2030   33.9440   46.1250 C   0  0  0  0  0  0  0  0  0  0  0  0
   57.0290   34.2830   44.8670 Cl  0  0  0  0  0  0  0  0  0  0  0  0
   59.2380   34.8490   46.3810 C   0  0  0  0  0  0  0  0  0  0  0  0
   60.1740   34.5800   47.3830 C   0  0  0  0  0  0  0  0  0  0  0  0
   59.3560   30.5720   50.8820 C   0  0  0  0  0  0  0  0  0  0  0  0
   58.1590   30.0930   51.4240 C   0  0  0  0  0  0  0  0  0  0  0  0
   53.2132   29.5601   52.4331 H   0  0  0  0  0  0  0  0  0  0  0  0
   52.9920   30.6287   51.0063 H   0  0  0  0  0  0  0  0  0  0  0  0
   54.2907   29.3877   51.0063 H   0  0  0  0  0  0  0  0  0  0  0  0
   54.8653   31.9296   51.5171 H   0  0  0  0  0  0  0  0  0  0  0  0
   54.2590   31.5060   53.1653 H   0  0  0  0  0  0  0  0  0  0  0  0
   56.0107   29.6922   54.5086 H   0  0  0  0  0  0  0  0  0  0  0  0
   55.1408   28.6975   53.2919 H   0  0  0  0  0  0  0  0  0  0  0  0
   56.9363   28.7492   53.2919 H   0  0  0  0  0  0  0  0  0  0  0  0
   56.8079   33.0614   52.4537 H   0  0  0  0  0  0  0  0  0  0  0  0
   58.9430   33.9068   51.4953 H   0  0  0  0  0  0  0  0  0  0  0  0
   62.1840   31.8840   51.8830 H   0  0  0  0  0  0  0  0  0  0  0  0
   65.0801   31.5479   49.2800 H   0  0  0  0  0  0  0  0  0  0  0  0
   67.4791   31.8726   49.8753 H   0  0  0  0  0  0  0  0  0  0  0  0
   68.1444   33.6768   51.4649 H   0  0  0  0  0  0  0  0  0  0  0  0
   64.0038   34.8520   51.8736 H   0  0  0  0  0  0  0  0  0  0  0  0
   58.9759   31.5552   48.4449 H   0  0  0  0  0  0  0  0  0  0  0  0
   57.3006   32.0487   46.6652 H   0  0  0  0  0  0  0  0  0  0  0  0
   59.3154   35.7749   45.7921 H   0  0  0  0  0  0  0  0  0  0  0  0
   60.9919   35.2907   47.5728 H   0  0  0  0  0  0  0  0  0  0  0  0
   60.0808   29.8665   50.4496 H   0  0  0  0  0  0  0  0  0  0  0  0
   57.9449   29.0142   51.4037 H   0  0  0  0  0  0  0  0  0  0  0  0
  1  2  1  0
  2  3  1  0
  3  4  1  0
  3  5  1  0
  5  6  2  0
  6  7  1  0
  7  8  2  0
  8  9  1  0
  9 10  1  0
 10 11  2  0
 11 12  1  0
 12 13  2  0
 13 14  1  0
 14 15  2  0
 15 16  1  0
 16 17  1  0
 16 18  2  0
 11 19  1  0
 19 20  2  0
 20 21  1  0
 21 22  2  0
 22 23  1  0
 23 24  2  0
 24 25  1  0
 24 26  1  0
 26 27  2  0
  8 28  1  0
 28 29  2  0
 29  5  1  0
 20  9  1  0
 27 21  1  0
 18 12  1  0
  1 30  1  0
  1 31  1  0
  1 32  1  0
  2 33  1  0
  2 34  1  0
  4 35  1  0
  4 36  1  0
  4 37  1  0
  6 38  1  0
  7 39  1  0
 10 40  1  0
 13 41  1  0
 14 42  1  0
 15 43  1  0
 18 44  1  0
 22 45  1  0
 23 46  1  0
 26 47  1  0
 27 48  1  0
 28 49  1  0
 29 50  1  0
M  CHG  1  10   1
M  END
>  <UniqueID>  (14) 
14

>  <SMILES>  (14) 
CCN(C)c1ccc(-n2[nH+]c(-c3cccc(Br)c3)nc2-c2ccc(Cl)cc2)cc1

>  <Energy>  (14) 
98.1007294919483

>  <Genealogy>  (14) 
CCN(C)c1ccc(-n2[nH+]c(-c3cccc(Br)c3)nc2-c2ccc(Cl)cc2)cc1 (protonated)
CCN(C)c1ccc(-n2[nH+]c(-c3cccc(Br)c3)nc2-c2ccc(Cl)cc2)cc1 (3D coordinates assigned)
CCN(C)c1ccc(-n2[nH+]c(-c3cccc(Br)c3)nc2-c2ccc(Cl)cc2)cc1 (optimized conformer: 98.1007294919483 kcal/mol)

>  <smiles>  (14) 
CCN(C)c1ccc(-n2nc(-c3cccc(Br)c3)nc2-c2ccc(Cl)cc2)cc1

>  <score_type>  (14) 
oracle

>  <origin>  (14) 
adg

>  <m_score__min__energy>  (14) 
-6.7000000000000002

>  <m_primary>  (14) 
energy

$$$$
14:0
     RDKit          3D

 51 54  0  0  0  0  0  0  0  0999 V2000
   57.9438   35.0772   46.8878 H   0  0  0  0  0  0  0  0  0  0  0  0
   58.5530   34.5840   46.1160 C   0  0  0  0  0  0  0  0  0  0  0  0
   57.9160   33.9090   45.1490 C   0  0  0  0  0  0  0  0  0  0  0  0
   57.4476   34.4957   44.3450 H   0  0  0  0  0  0  0  0  0  0  0  0
   57.7940   32.4380   45.0790 C   0  0  0  0  0  0  0  0  0  0  0  0
   57.3980   31.7850   43.8810 C   0  0  0  0  0  0  0  0  0  0  0  0
   57.1447   32.3822   42.9926 H   0  0  0  0  0  0  0  0  0  0  0  0
   57.3270   30.3820   43.8210 C   0  0  0  0  0  0  0  0  0  0  0  0
   57.0077   29.8681   42.9023 H   0  0  0  0  0  0  0  0  0  0  0  0
   57.6740   29.6650   44.9620 C   0  0  0  0  0  0  0  0  0  0  0  0
   58.0780   30.2810   46.1020 C   0  0  0  0  0  0  0  0  0  0  0  0
   58.1620   31.6670   46.2030 C   0  0  0  0  0  0  0  0  0  0  0  0
   58.5050   32.1473   47.1313 H   0  0  0  0  0  0  0  0  0  0  0  0
   58.3670   29.3290   47.0610 O   0  0  0  0  0  0  0  0  0  0  0  0
   58.1290   28.0360   46.4880 C   0  0  0  0  0  0  0  0  0  0  0  0
   59.0536   27.4401   46.4818 H   0  0  0  0  0  0  0  0  0  0  0  0
   57.3867   27.4612   47.0612 H   0  0  0  0  0  0  0  0  0  0  0  0
   57.6890   28.2970   45.1480 O   0  0  0  0  0  0  0  0  0  0  0  0
   60.0220   34.7070   46.2100 C   0  0  0  0  0  0  0  0  0  0  0  0
   60.4875   35.7030   46.1735 H   0  0  0  0  0  0  0  0  0  0  0  0
   60.7930   33.6210   46.3390 C   0  0  0  0  0  0  0  0  0  0  0  0
   60.6179   32.7678   45.6671 H   0  0  0  0  0  0  0  0  0  0  0  0
   61.8740   33.5190   47.3500 C   0  0  0  0  0  0  0  0  0  0  0  0
   63.1750   33.1120   47.0960 C   0  0  0  0  0  0  0  0  0  0  0  0
   63.5888   32.8113   46.1222 H   0  0  0  0  0  0  0  0  0  0  0  0
   63.8500   33.1560   48.2950 C   0  0  0  0  0  0  0  0  0  0  0  0
   64.9075   32.9048   48.4642 H   0  0  0  0  0  0  0  0  0  0  0  0
   62.9400   33.5770   49.2430 C   0  0  0  0  0  0  0  0  0  0  0  0
   63.2780   33.8260   50.6820 C   0  0  0  0  0  0  0  0  0  0  0  0
   62.5591   33.2964   51.3244 H   0  0  0  0  0  0  0  0  0  0  0  0
   64.2942   33.4590   50.8888 H   0  0  0  0  0  0  0  0  0  0  0  0
   63.2288   34.9053   50.8888 H   0  0  0  0  0  0  0  0  0  0  0  0
   61.7300   33.7980   48.6730 N   0  0  0  0  0  0  0  0  0  0  0  0
   60.5430   34.3350   49.3520 C   0  0  0  0  0  0  0  0  0  0  0  0
   59.9344   34.8955   48.6271 H   0  0  0  0  0  0  0  0  0  0  0  0
   60.8698   34.9976   50.1670 H   0  0  0  0  0  0  0  0  0  0  0  0
   59.7160   33.2190   49.9350 C   0  0  0  0  0  0  0  0  0  0  0  0
   59.0500   33.3910   51.1590 C   0  0  0  0  0  0  0  0  0  0  0  0
   59.1456   34.3417   51.7040 H   0  0  0  0  0  0  0  0  0  0  0  0
   58.2660   32.3620   51.6900 C   0  0  0  0  0  0  0  0  0  0  0  0
   57.7481   32.5072   52.6495 H   0  0  0  0  0  0  0  0  0  0  0  0
   58.1370   31.1420   51.0020 C   0  0  0  0  0  0  0  0  0  0  0  0
   57.3620   30.0800   51.4920 O   0  0  0  0  0  0  0  0  0  0  0  0
   56.4570   30.1820   52.5860 C   0  0  0  0  0  0  0  0  0  0  0  0
   57.0159   30.1190   53.5313 H   0  0  0  0  0  0  0  0  0  0  0  0
   55.9285   31.1454   52.5360 H   0  0  0  0  0  0  0  0  0  0  0  0
   55.7273   29.3604   52.5360 H   0  0  0  0  0  0  0  0  0  0  0  0
   58.8040   30.9720   49.7840 C   0  0  0  0  0  0  0  0  0  0  0  0
   58.7107   30.0206   49.2398 H   0  0  0  0  0  0  0  0  0  0  0  0
   59.5880   32.0000   49.2520 C   0  0  0  0  0  0  0  0  0  0  0  0
   60.1070   31.8525   48.2934 H   0  0  0  0  0  0  0  0  0  0  0  0
  1  2  1  0
  2  3  2  0
  3  4  1  0
  3  5  1  0
  5  6  2  0
  6  7  1  0
  6  8  1  0
  8  9  1  0
  8 10  2  0
 10 11  1  0
 11 12  2  0
 12 13  1  0
 11 14  1  0
 14 15  1  0
 15 16  1  0
 15 17  1  0
 15 18  1  0
  2 19  1  0
 19 20  1  0
 19 21  2  0
 21 22  1  0
 21 23  1  0
 23 24  2  0
 24 25  1  0
 24 26  1  0
 26 27  1  0
 26 28  2  0
 28 29  1  0
 29 30  1  0
 29 31  1  0
 29 32  1  0
 28 33  1  0
 33 34  1  0
 34 35  1  0
 34 36  1  0
 34 37  1  0
 37 38  2  0
 38 39  1  0
 38 40  1  0
 40 41  1  0
 40 42  2  0
 42 43  1  0
 43 44  1  0
 44 45  1  0
 44 46  1  0
 44 47  1  0
 42 48  1  0
 48 49  1  0
 48 50  2  0
 50 51  1  0
 12  5  1  0
 33 23  1  0
 50 37  1  0
 18 10  1  0
M  END
>  <UniqueID>  (15) 
15

>  <SMILES>  (15) 
COc1ccc(Cn2c(C)ccc2/C=C/C=C\c2ccc3c(c2)OCO3)cc1

>  <Energy>  (15) 
111.4941210084758

>  <Genealogy>  (15) 
COc1ccc(Cn2c(C)ccc2/C=C/C=C\c2ccc3c(c2)OCO3)cc1 (cis-trans isomerization)
COc1ccc(Cn2c(C)ccc2/C=C/C=C\c2ccc3c(c2)OCO3)cc1 (3D coordinates assigned)
COc1ccc(Cn2c(C)ccc2/C=C/C=C\c2ccc3c(c2)OCO3)cc1 (nonaromatic ring conformer: 111.4941210084758 kcal/mol)

>  <smiles>  (15) 
COc1ccc(Cn2c(C)ccc2C=CC=Cc2ccc3c(c2)OCO3)cc1

>  <score_type>  (15) 
oracle

>  <origin>  (15) 
adg

>  <m_score__min__energy>  (15) 
-8.4499999999999993

>  <m_primary>  (15) 
energy

$$$$
15:0
     RDKit          3D

 29 29  0  0  0  0  0  0  0  0999 V2000
   59.2690   34.8620   45.6250 C   0  0  0  0  0  0  0  0  0  0  0  0
   59.0240   33.7480   46.0130 C   0  0  0  0  0  0  0  0  0  0  0  0
   58.7270   32.3860   46.4870 C   0  0  0  0  0  0  0  0  0  0  0  0
   57.5280   31.8310   45.8420 N   0  0  0  0  0  0  0  0  0  0  0  0
   57.3430   32.3680   44.4860 C   0  0  0  0  0  0  0  0  0  0  0  0
   57.6700   31.2910   43.4510 C   0  0  0  0  0  0  0  0  0  0  0  0
   57.0460   29.6950   43.9540 S   0  0  0  0  0  0  0  0  0  0  0  0
   56.5500   28.9380   42.7540 O   0  0  0  0  0  0  0  0  0  0  0  0
   55.8840   29.9050   44.8840 O   0  0  0  0  0  0  0  0  0  0  0  0
   58.3070   28.7790   44.8000 C   0  0  0  0  0  0  0  0  0  0  0  0
   59.6410   29.1920   44.6520 C   0  0  0  0  0  0  0  0  0  0  0  0
   60.6740   28.4980   45.2850 C   0  0  0  0  0  0  0  0  0  0  0  0
   60.3900   27.3800   46.0680 C   0  0  0  0  0  0  0  0  0  0  0  0
   59.0700   26.9500   46.2190 C   0  0  0  0  0  0  0  0  0  0  0  0
   58.0230   27.6380   45.5880 C   0  0  0  0  0  0  0  0  0  0  0  0
   56.6810   27.1380   45.7560 C   0  0  0  0  0  0  0  0  0  0  0  0
   55.6050   26.7340   45.8930 N   0  0  0  0  0  0  0  0  0  0  0  0
   59.4927   35.8791   45.2708 H   0  0  0  0  0  0  0  0  0  0  0  0
   59.5853   31.7359   46.2618 H   0  0  0  0  0  0  0  0  0  0  0  0
   58.5403   32.4348   47.5699 H   0  0  0  0  0  0  0  0  0  0  0  0
   57.6200   30.7890   45.7860 H   0  0  0  0  0  0  0  0  0  0  0  0
   56.2986   32.6896   44.3603 H   0  0  0  0  0  0  0  0  0  0  0  0
   58.0160   33.2259   44.3411 H   0  0  0  0  0  0  0  0  0  0  0  0
   57.2126   31.5676   42.4896 H   0  0  0  0  0  0  0  0  0  0  0  0
   58.7637   31.2216   43.3566 H   0  0  0  0  0  0  0  0  0  0  0  0
   59.8742   30.0701   44.0318 H   0  0  0  0  0  0  0  0  0  0  0  0
   61.7145   28.8342   45.1656 H   0  0  0  0  0  0  0  0  0  0  0  0
   61.2059   26.8365   46.5670 H   0  0  0  0  0  0  0  0  0  0  0  0
   58.8500   26.0666   46.8364 H   0  0  0  0  0  0  0  0  0  0  0  0
  1  2  3  0
  2  3  1  0
  3  4  1  0
  4  5  1  0
  5  6  1  0
  6  7  1  0
  7  8  2  0
  7  9  2  0
  7 10  1  0
 10 11  2  0
 11 12  1  0
 12 13  2  0
 13 14  1  0
 14 15  2  0
 15 16  1  0
 16 17  3  0
 15 10  1  0
  1 18  1  0
  3 19  1  0
  3 20  1  0
  4 21  1  0
  5 22  1  0
  5 23  1  0
  6 24  1  0
  6 25  1  0
 11 26  1  0
 12 27  1  0
 13 28  1  0
 14 29  1  0
M  END
>  <UniqueID>  (16) 
16

>  <SMILES>  (16) 
C#CCNCCS(=O)(=O)c1ccccc1C#N

>  <Energy>  (16) 
20.83964112458103

>  <Genealogy>  (16) 
C#CCNCCS(=O)(=O)c1ccccc1C#N (3D coordinates assigned)
C#CCNCCS(=O)(=O)c1ccccc1C#N (optimized conformer: 20.83964112458103 kcal/mol)

>  <smiles>  (16) 
C#CCNCCS(=O)(=O)c1ccccc1C#N

>  <score_type>  (16) 
oracle

>  <origin>  (16) 
adg

>  <m_score__min__energy>  (16) 
-6.5300000000000002

>  <m_primary>  (16) 
energy

$$$$
16:0
     RDKit          3D

 50 52  0  0  0  0  0  0  0  0999 V2000
   56.6530   22.1490   42.7020 C   0  0  0  0  0  0  0  0  0  0  0  0
   57.7340   21.1370   43.1090 C   0  0  0  0  0  0  0  0  0  0  0  0
   58.2940   21.3360   44.4670 N   0  0  1  0  0  0  0  0  0  0  0  0
   59.4930   22.1890   44.4720 C   0  0  0  0  0  0  0  0  0  0  0  0
   57.1150   21.9310   45.6150 S   0  0  0  0  0  0  0  0  0  0  0  0
   55.7510   21.4330   45.2270 O   0  0  0  0  0  0  0  0  0  0  0  0
   57.4250   21.4210   46.9970 O   0  0  0  0  0  0  0  0  0  0  0  0
   57.0820   23.6940   45.6150 C   0  0  0  0  0  0  0  0  0  0  0  0
   56.6150   24.3740   46.7470 C   0  0  0  0  0  0  0  0  0  0  0  0
   56.5550   25.7700   46.7590 C   0  0  0  0  0  0  0  0  0  0  0  0
   56.9620   26.5020   45.6350 C   0  0  0  0  0  0  0  0  0  0  0  0
   56.8980   27.9040   45.6330 C   0  0  0  0  0  0  0  0  0  0  0  0
   57.2960   28.6270   44.5020 C   0  0  0  0  0  0  0  0  0  0  0  0
   57.1510   30.3830   44.4990 S   0  0  0  0  0  0  0  0  0  0  0  0
   57.8230   30.9240   43.2680 O   0  0  0  0  0  0  0  0  0  0  0  0
   55.7030   30.7870   44.4670 O   0  0  0  0  0  0  0  0  0  0  0  0
   57.9120   31.0610   45.9080 N   0  0  0  0  0  0  0  0  0  0  0  0
   57.6810   32.5080   45.9870 C   0  0  0  0  0  0  0  0  0  0  0  0
   58.2290   33.0930   47.2930 C   0  0  0  0  0  0  0  0  0  0  0  0
   58.9500   34.3890   46.9300 C   0  0  0  0  0  0  0  0  0  0  0  0
   58.7600   34.5920   45.4340 C   0  0  0  0  0  0  0  0  0  0  0  0
   58.4400   33.2180   44.8760 C   0  0  0  0  0  0  0  0  0  0  0  0
   57.7600   27.9480   43.3680 C   0  0  0  0  0  0  0  0  0  0  0  0
   57.8310   26.5530   43.3600 C   0  0  0  0  0  0  0  0  0  0  0  0
   57.4330   25.8210   44.4880 C   0  0  0  0  0  0  0  0  0  0  0  0
   57.4900   24.4190   44.4870 C   0  0  0  0  0  0  0  0  0  0  0  0
   56.1942   22.5785   43.6048 H   0  0  0  0  0  0  0  0  0  0  0  0
   57.1090   22.9524   42.1048 H   0  0  0  0  0  0  0  0  0  0  0  0
   55.8814   21.6410   42.1048 H   0  0  0  0  0  0  0  0  0  0  0  0
   57.2936   20.1300   43.0649 H   0  0  0  0  0  0  0  0  0  0  0  0
   58.5689   21.2775   42.4068 H   0  0  0  0  0  0  0  0  0  0  0  0
   58.5880   20.3920   44.8130 H   0  0  0  0  0  0  0  0  0  0  0  0
   59.7889   22.3995   45.5103 H   0  0  0  0  0  0  0  0  0  0  0  0
   60.3139   21.6707   43.9547 H   0  0  0  0  0  0  0  0  0  0  0  0
   59.2726   23.1344   43.9547 H   0  0  0  0  0  0  0  0  0  0  0  0
   56.2935   23.8055   47.6321 H   0  0  0  0  0  0  0  0  0  0  0  0
   56.1875   26.2958   47.6526 H   0  0  0  0  0  0  0  0  0  0  0  0
   56.5337   28.4370   46.5236 H   0  0  0  0  0  0  0  0  0  0  0  0
   56.5934   32.6556   45.9139 H   0  0  0  0  0  0  0  0  0  0  0  0
   57.4037   33.3016   47.9897 H   0  0  0  0  0  0  0  0  0  0  0  0
   58.9134   32.3860   47.7846 H   0  0  0  0  0  0  0  0  0  0  0  0
   58.5148   35.2330   47.4852 H   0  0  0  0  0  0  0  0  0  0  0  0
   60.0177   34.3332   47.1889 H   0  0  0  0  0  0  0  0  0  0  0  0
   57.9295   35.2875   45.2428 H   0  0  0  0  0  0  0  0  0  0  0  0
   59.6553   35.0250   44.9639 H   0  0  0  0  0  0  0  0  0  0  0  0
   57.8156   33.3028   43.9744 H   0  0  0  0  0  0  0  0  0  0  0  0
   59.3474   32.6707   44.5807 H   0  0  0  0  0  0  0  0  0  0  0  0
   58.0702   28.5165   42.4789 H   0  0  0  0  0  0  0  0  0  0  0  0
   58.1999   26.0274   42.4669 H   0  0  0  0  0  0  0  0  0  0  0  0
   57.8565   23.8865   43.5970 H   0  0  0  0  0  0  0  0  0  0  0  0
  1  2  1  0
  2  3  1  0
  3  4  1  0
  3  5  1  0
  5  6  2  0
  5  7  2  0
  5  8  1  0
  8  9  2  0
  9 10  1  0
 10 11  2  0
 11 12  1  0
 12 13  2  0
 13 14  1  0
 14 15  2  0
 14 16  2  0
 14 17  1  0
 17 18  1  0
 18 19  1  0
 19 20  1  0
 20 21  1  0
 21 22  1  0
 13 23  1  0
 23 24  2  0
 24 25  1  0
 25 26  2  0
 26  8  1  0
 25 11  1  0
 22 18  1  0
  1 27  1  0
  1 28  1  0
  1 29  1  0
  2 30  1  0
  2 31  1  0
  3 32  1  1
  4 33  1  0
  4 34  1  0
  4 35  1  0
  9 36  1  0
 10 37  1  0
 12 38  1  0
 18 39  1  0
 19 40  1  0
 19 41  1  0
 20 42  1  0
 20 43  1  0
 21 44  1  0
 21 45  1  0
 22 46  1  0
 22 47  1  0
 23 48  1  0
 24 49  1  0
 26 50  1  0
M  CHG  2   3   1  17  -1
M  END
>  <UniqueID>  (17) 
17

>  <SMILES>  (17) 
CC[N@@H+](C)S(=O)(=O)c1ccc2cc(S(=O)(=O)[N-]C3CCCC3)ccc2c1

>  <Energy>  (17) 
51.316595696906404

>  <Genealogy>  (17) 
CC[NH+](C)S(=O)(=O)c1ccc2cc(S(=O)(=O)[N-]C3CCCC3)ccc2c1 (protonated)
CC[N@@H+](C)S(=O)(=O)c1ccc2cc(S(=O)(=O)[N-]C3CCCC3)ccc2c1 (chirality)
CC[N@@H+](C)S(=O)(=O)c1ccc2cc(S(=O)(=O)[N-]C3CCCC3)ccc2c1 (3D coordinates assigned)
CC[N@@H+](C)S(=O)(=O)c1ccc2cc(S(=O)(=O)[N-]C3CCCC3)ccc2c1 (nonaromatic ring conformer: 51.316595696906404 kcal/mol)

>  <smiles>  (17) 
CCN(C)S(=O)(=O)c1ccc2cc(S(=O)(=O)NC3CCCC3)ccc2c1

>  <score_type>  (17) 
oracle

>  <origin>  (17) 
adg

>  <m_score__min__energy>  (17) 
-9.6699999999999999

>  <m_primary>  (17) 
energy

$$$$
17:0
     RDKit          3D

 45 46  0  0  0  0  0  0  0  0999 V2000
   59.2710   34.9360   46.0680 C   0  0  0  0  0  0  0  0  0  0  0  0
   60.6190   34.2210   46.0320 C   0  0  0  0  0  0  0  0  0  0  0  0
   60.9010   33.5490   47.3190 N   0  0  0  0  0  0  0  0  0  0  0  0
   62.2720   33.8150   47.8090 C   0  0  0  0  0  0  0  0  0  0  0  0
   63.3660   33.5060   46.7750 C   0  0  0  0  0  0  0  0  0  0  0  0
   59.8630   33.7880   48.3540 C   0  0  0  0  0  0  0  0  0  0  0  0
   59.1210   32.4830   48.6720 C   0  0  0  0  0  0  0  0  0  0  0  0
   59.8210   31.3150   48.1150 N   0  0  0  0  0  0  0  0  0  0  0  0
   59.0520   30.7480   47.0330 C   0  0  0  0  0  0  0  0  0  0  0  0
   58.7710   31.5240   45.8950 C   0  0  0  0  0  0  0  0  0  0  0  0
   58.0510   30.9840   44.8220 C   0  0  0  0  0  0  0  0  0  0  0  0
   57.7630   31.7640   43.6900 C   0  0  0  0  0  0  0  0  0  0  0  0
   57.0430   31.2160   42.6250 C   0  0  0  0  0  0  0  0  0  0  0  0
   56.6070   29.8890   42.6790 C   0  0  0  0  0  0  0  0  0  0  0  0
   56.8890   29.1030   43.8000 C   0  0  0  0  0  0  0  0  0  0  0  0
   57.6100   29.6420   44.8770 C   0  0  0  0  0  0  0  0  0  0  0  0
   57.9030   28.8600   46.0030 C   0  0  0  0  0  0  0  0  0  0  0  0
   58.6280   29.4010   47.0820 C   0  0  0  0  0  0  0  0  0  0  0  0
   58.9510   28.6350   48.2150 O   0  0  0  0  0  0  0  0  0  0  0  0
   59.9590   27.6300   48.2540 C   0  0  0  0  0  0  0  0  0  0  0  0
   58.9688   35.0963   47.1135 H   0  0  0  0  0  0  0  0  0  0  0  0
   59.3572   35.9069   45.5582 H   0  0  0  0  0  0  0  0  0  0  0  0
   58.5155   34.3201   45.5582 H   0  0  0  0  0  0  0  0  0  0  0  0
   60.6051   33.4687   45.2296 H   0  0  0  0  0  0  0  0  0  0  0  0
   61.4054   34.9680   45.8488 H   0  0  0  0  0  0  0  0  0  0  0  0
   62.3431   34.8779   48.0833 H   0  0  0  0  0  0  0  0  0  0  0  0
   62.4424   33.1488   48.6676 H   0  0  0  0  0  0  0  0  0  0  0  0
   64.2986   33.2426   47.2955 H   0  0  0  0  0  0  0  0  0  0  0  0
   63.0471   32.6628   46.1447 H   0  0  0  0  0  0  0  0  0  0  0  0
   63.5354   34.3914   46.1447 H   0  0  0  0  0  0  0  0  0  0  0  0
   60.3426   34.1655   49.2691 H   0  0  0  0  0  0  0  0  0  0  0  0
   59.1421   34.5275   47.9752 H   0  0  0  0  0  0  0  0  0  0  0  0
   59.0493   32.3696   49.7638 H   0  0  0  0  0  0  0  0  0  0  0  0
   58.1208   32.5351   48.2171 H   0  0  0  0  0  0  0  0  0  0  0  0
   59.9610   30.6000   48.8680 H   0  0  0  0  0  0  0  0  0  0  0  0
   60.7680   31.5910   47.7650 H   0  0  0  0  0  0  0  0  0  0  0  0
   59.1202   32.5660   45.8468 H   0  0  0  0  0  0  0  0  0  0  0  0
   58.1049   32.8084   43.6417 H   0  0  0  0  0  0  0  0  0  0  0  0
   56.8186   31.8311   41.7411 H   0  0  0  0  0  0  0  0  0  0  0  0
   56.0409   29.4625   41.8378 H   0  0  0  0  0  0  0  0  0  0  0  0
   56.5449   28.0589   43.8383 H   0  0  0  0  0  0  0  0  0  0  0  0
   57.5635   27.8145   46.0439 H   0  0  0  0  0  0  0  0  0  0  0  0
   60.1984   27.3913   49.3007 H   0  0  0  0  0  0  0  0  0  0  0  0
   59.5945   26.7252   47.7457 H   0  0  0  0  0  0  0  0  0  0  0  0
   60.8628   27.9972   47.7457 H   0  0  0  0  0  0  0  0  0  0  0  0
  1  2  1  0
  2  3  1  0
  3  4  1  0
  4  5  1  0
  3  6  1  0
  6  7  1  0
  7  8  1  0
  8  9  1  0
  9 10  2  0
 10 11  1  0
 11 12  2  0
 12 13  1  0
 13 14  2  0
 14 15  1  0
 15 16  2  0
 16 17  1  0
 17 18  2  0
 18 19  1  0
 19 20  1  0
 18  9  1  0
 16 11  1  0
  1 21  1  0
  1 22  1  0
  1 23  1  0
  2 24  1  0
  2 25  1  0
  4 26  1  0
  4 27  1  0
  5 28  1  0
  5 29  1  0
  5 30  1  0
  6 31  1  0
  6 32  1  0
  7 33  1  0
  7 34  1  0
  8 35  1  0
  8 36  1  0
 10 37  1  0
 12 38  1  0
 13 39  1  0
 14 40  1  0
 15 41  1  0
 17 42  1  0
 20 43  1  0
 20 44  1  0
 20 45  1  0
M  CHG  1   8   1
M  END
>  <UniqueID>  (18) 
18

>  <SMILES>  (18) 
CCN(CC)CC[NH2+]c1cc2ccccc2cc1OC

>  <Energy>  (18) 
47.209231297811854

>  <Genealogy>  (18) 
CCN(CC)CC[NH2+]c1cc2ccccc2cc1OC (protonated)
CCN(CC)CC[NH2+]c1cc2ccccc2cc1OC (3D coordinates assigned)
CCN(CC)CC[NH2+]c1cc2ccccc2cc1OC (optimized conformer: 47.209231297811854 kcal/mol)

>  <smiles>  (18) 
CCN(CC)CCNc1cc2ccccc2cc1OC

>  <score_type>  (18) 
oracle

>  <origin>  (18) 
adg

>  <m_score__min__energy>  (18) 
-4.7699999999999996

>  <m_primary>  (18) 
energy

$$$$
18:0
     RDKit          3D

 42 45  0  0  0  0  0  0  0  0999 V2000
   56.5310   30.4290   43.6200 C   0  0  0  0  0  0  0  0  0  0  0  0
   56.5940   31.1030   44.8710 O   0  0  0  0  0  0  0  0  0  0  0  0
   57.4240   32.2030   45.1420 C   0  0  0  0  0  0  0  0  0  0  0  0
   57.0400   33.5220   44.8250 C   0  0  0  0  0  0  0  0  0  0  0  0
   57.8960   34.5920   45.0980 C   0  0  0  0  0  0  0  0  0  0  0  0
   59.1440   34.3610   45.6790 C   0  0  0  0  0  0  0  0  0  0  0  0
   59.9720   35.4010   45.9420 F   0  0  0  0  0  0  0  0  0  0  0  0
   59.5370   33.0590   45.9950 C   0  0  0  0  0  0  0  0  0  0  0  0
   58.6770   31.9800   45.7440 C   0  0  0  0  0  0  0  0  0  0  0  0
   59.0980   30.6230   46.1300 C   0  0  0  0  0  0  0  0  0  0  0  0
   59.0050   29.5730   45.2760 N   0  0  0  0  0  0  0  0  0  0  0  0
   59.4820   28.5470   46.0020 C   0  0  0  0  0  0  0  0  0  0  0  0
   59.6070   27.2180   45.6040 C   0  0  0  0  0  0  0  0  0  0  0  0
   60.1360   26.3040   46.5330 C   0  0  0  0  0  0  0  0  0  0  0  0
   60.5230   26.7350   47.8200 C   0  0  0  0  0  0  0  0  0  0  0  0
   60.3840   28.0850   48.1920 C   0  0  0  0  0  0  0  0  0  0  0  0
   59.8560   28.9700   47.2460 C   0  0  0  0  0  0  0  0  0  0  0  0
   59.6370   30.2960   47.3410 N   0  0  0  0  0  0  0  0  0  0  0  0
   59.9200   31.1770   48.4860 C   0  0  0  0  0  0  0  0  0  0  0  0
   61.1940   31.9640   48.2770 C   0  0  0  0  0  0  0  0  0  0  0  0
   62.2960   31.3460   47.6570 C   0  0  0  0  0  0  0  0  0  0  0  0
   63.4990   32.0360   47.4970 C   0  0  0  0  0  0  0  0  0  0  0  0
   63.6140   33.3540   47.9370 C   0  0  0  0  0  0  0  0  0  0  0  0
   62.5220   33.9900   48.5310 C   0  0  0  0  0  0  0  0  0  0  0  0
   61.3100   33.3080   48.7000 C   0  0  0  0  0  0  0  0  0  0  0  0
   59.9640   34.1700   49.4360 Cl  0  0  0  0  0  0  0  0  0  0  0  0
   56.4299   29.3471   43.7911 H   0  0  0  0  0  0  0  0  0  0  0  0
   55.6630   30.7929   43.0507 H   0  0  0  0  0  0  0  0  0  0  0  0
   57.4514   30.6257   43.0507 H   0  0  0  0  0  0  0  0  0  0  0  0
   56.0609   33.7098   44.3601 H   0  0  0  0  0  0  0  0  0  0  0  0
   57.5857   35.6189   44.8545 H   0  0  0  0  0  0  0  0  0  0  0  0
   60.5254   32.8788   46.4428 H   0  0  0  0  0  0  0  0  0  0  0  0
   59.3025   26.8944   44.5977 H   0  0  0  0  0  0  0  0  0  0  0  0
   60.2489   25.2458   46.2545 H   0  0  0  0  0  0  0  0  0  0  0  0
   60.9362   26.0106   48.5373 H   0  0  0  0  0  0  0  0  0  0  0  0
   60.6805   28.4326   49.1927 H   0  0  0  0  0  0  0  0  0  0  0  0
   59.0827   31.8791   48.6125 H   0  0  0  0  0  0  0  0  0  0  0  0
   60.0439   30.5505   49.3816 H   0  0  0  0  0  0  0  0  0  0  0  0
   62.2087   30.3108   47.2955 H   0  0  0  0  0  0  0  0  0  0  0  0
   64.3580   31.5388   47.0228 H   0  0  0  0  0  0  0  0  0  0  0  0
   64.5653   33.8930   47.8162 H   0  0  0  0  0  0  0  0  0  0  0  0
   62.6140   35.0330   48.8683 H   0  0  0  0  0  0  0  0  0  0  0  0
  1  2  1  0
  2  3  1  0
  3  4  2  0
  4  5  1  0
  5  6  2  0
  6  7  1  0
  6  8  1  0
  8  9  2  0
  9 10  1  0
 10 11  2  0
 11 12  1  0
 12 13  2  0
 13 14  1  0
 14 15  2  0
 15 16  1  0
 16 17  2  0
 17 18  1  0
 18 19  1  0
 19 20  1  0
 20 21  2  0
 21 22  1  0
 22 23  2  0
 23 24  1  0
 24 25  2  0
 25 26  1  0
  9  3  1  0
 18 10  1  0
 25 20  1  0
 17 12  1  0
  1 27  1  0
  1 28  1  0
  1 29  1  0
  4 30  1  0
  5 31  1  0
  8 32  1  0
 13 33  1  0
 14 34  1  0
 15 35  1  0
 16 36  1  0
 19 37  1  0
 19 38  1  0
 21 39  1  0
 22 40  1  0
 23 41  1  0
 24 42  1  0
M  END
>  <UniqueID>  (19) 
19

>  <SMILES>  (19) 
COc1ccc(F)cc1-c1nc2ccccc2n1Cc1ccccc1Cl

>  <Energy>  (19) 
88.60252572555761

>  <Genealogy>  (19) 
COc1ccc(F)cc1-c1nc2ccccc2n1Cc1ccccc1Cl (3D coordinates assigned)
COc1ccc(F)cc1-c1nc2ccccc2n1Cc1ccccc1Cl (optimized conformer: 88.60252572555761 kcal/mol)

>  <smiles>  (19) 
COc1ccc(F)cc1-c1nc2ccccc2n1Cc1ccccc1Cl

>  <score_type>  (19) 
oracle

>  <origin>  (19) 
adg

>  <m_score__min__energy>  (19) 
-8.1999999999999993

>  <m_primary>  (19) 
energy

$$$$
19:0
     RDKit          3D

 62 64  0  0  0  0  0  0  0  0999 V2000
   60.5176   30.8704   45.3710 H   0  0  0  0  0  0  0  0  0  0  0  0
   60.6270   30.1920   46.2300 C   0  0  0  0  0  0  0  0  0  0  0  0
   61.0410   30.7590   47.5310 C   0  0  0  0  0  0  0  0  0  0  0  0
   62.2590   31.0210   47.7040 O   0  0  0  0  0  0  0  0  0  0  0  0
   60.0890   31.0230   48.6420 C   0  0  0  0  0  0  0  0  0  0  0  0
   60.1370   30.2010   49.7890 C   0  0  0  0  0  0  0  0  0  0  0  0
   61.0720   29.1520   49.8330 O   0  0  0  0  0  0  0  0  0  0  0  0
   61.8790   28.8330   50.9580 C   0  0  0  0  0  0  0  0  0  0  0  0
   61.3236   29.0526   51.8817 H   0  0  0  0  0  0  0  0  0  0  0  0
   62.1389   27.7645   50.9316 H   0  0  0  0  0  0  0  0  0  0  0  0
   62.7993   29.4350   50.9316 H   0  0  0  0  0  0  0  0  0  0  0  0
   59.2620   30.4550   50.8650 C   0  0  0  0  0  0  0  0  0  0  0  0
   59.2998   29.8159   51.7595 H   0  0  0  0  0  0  0  0  0  0  0  0
   58.3420   31.5160   50.8070 C   0  0  0  0  0  0  0  0  0  0  0  0
   57.4610   31.8070   51.8620 O   0  0  0  0  0  0  0  0  0  0  0  0
   57.7350   32.7220   52.9150 C   0  0  0  0  0  0  0  0  0  0  0  0
   57.5853   32.2221   53.8834 H   0  0  0  0  0  0  0  0  0  0  0  0
   58.7762   33.0683   52.8382 H   0  0  0  0  0  0  0  0  0  0  0  0
   57.0555   33.5836   52.8382 H   0  0  0  0  0  0  0  0  0  0  0  0
   58.2890   32.3150   49.6630 C   0  0  0  0  0  0  0  0  0  0  0  0
   57.5660   33.1426   49.6144 H   0  0  0  0  0  0  0  0  0  0  0  0
   59.1420   32.0800   48.5750 C   0  0  0  0  0  0  0  0  0  0  0  0
   59.0050   32.9400   47.3730 C   0  0  0  0  0  0  0  0  0  0  0  0
   58.1000   32.5820   46.3600 C   0  0  0  0  0  0  0  0  0  0  0  0
   57.4780   31.6820   46.4749 H   0  0  0  0  0  0  0  0  0  0  0  0
   57.9860   33.3620   45.2090 C   0  0  0  0  0  0  0  0  0  0  0  0
   57.2793   33.0723   44.4174 H   0  0  0  0  0  0  0  0  0  0  0  0
   58.7660   34.5080   45.0600 C   0  0  0  0  0  0  0  0  0  0  0  0
   58.6758   35.1179   44.1490 H   0  0  0  0  0  0  0  0  0  0  0  0
   59.6610   34.8840   46.0630 C   0  0  0  0  0  0  0  0  0  0  0  0
   60.2659   35.7948   45.9429 H   0  0  0  0  0  0  0  0  0  0  0  0
   59.7940   34.1030   47.2290 C   0  0  0  0  0  0  0  0  0  0  0  0
   60.7090   34.4380   48.2410 O   0  0  0  0  0  0  0  0  0  0  0  0
   62.0320   33.9260   48.3300 C   0  0  0  0  0  0  0  0  0  0  0  0
   62.3127   33.8174   49.3880 H   0  0  0  0  0  0  0  0  0  0  0  0
   62.0794   32.9446   47.8354 H   0  0  0  0  0  0  0  0  0  0  0  0
   62.7277   34.6198   47.8354 H   0  0  0  0  0  0  0  0  0  0  0  0
   60.3790   28.8860   46.0520 C   0  0  0  0  0  0  0  0  0  0  0  0
   61.2386   28.2184   45.8929 H   0  0  0  0  0  0  0  0  0  0  0  0
   59.0180   28.2770   46.0550 C   0  0  0  0  0  0  0  0  0  0  0  0
   57.9130   28.9180   45.4540 C   0  0  0  0  0  0  0  0  0  0  0  0
   58.0508   29.8996   44.9770 H   0  0  0  0  0  0  0  0  0  0  0  0
   56.6400   28.3230   45.4550 C   0  0  0  0  0  0  0  0  0  0  0  0
   55.5170   28.9590   44.8990 O   0  0  0  0  0  0  0  0  0  0  0  0
   55.5450   29.7930   43.7430 C   0  0  0  0  0  0  0  0  0  0  0  0
   55.5804   30.8479   44.0527 H   0  0  0  0  0  0  0  0  0  0  0  0
   56.4357   29.5571   43.1422 H   0  0  0  0  0  0  0  0  0  0  0  0
   54.6405   29.6174   43.1422 H   0  0  0  0  0  0  0  0  0  0  0  0
   56.4680   27.0550   46.0210 C   0  0  0  0  0  0  0  0  0  0  0  0
   55.1840   26.4840   45.9960 O   0  0  0  0  0  0  0  0  0  0  0  0
   54.9090   25.1350   45.6350 C   0  0  0  0  0  0  0  0  0  0  0  0
   54.7856   24.5297   46.5452 H   0  0  0  0  0  0  0  0  0  0  0  0
   53.9844   25.0957   45.0404 H   0  0  0  0  0  0  0  0  0  0  0  0
   55.7445   24.7369   45.0404 H   0  0  0  0  0  0  0  0  0  0  0  0
   57.5680   26.3920   46.5910 C   0  0  0  0  0  0  0  0  0  0  0  0
   57.4332   25.3884   47.0206 H   0  0  0  0  0  0  0  0  0  0  0  0
   58.8420   26.9950   46.6200 C   0  0  0  0  0  0  0  0  0  0  0  0
   59.9490   26.3480   47.2020 O   0  0  0  0  0  0  0  0  0  0  0  0
   60.5450   26.7130   48.4440 C   0  0  0  0  0  0  0  0  0  0  0  0
   59.9276   26.3349   49.2721 H   0  0  0  0  0  0  0  0  0  0  0  0
   61.5528   26.2770   48.5093 H   0  0  0  0  0  0  0  0  0  0  0  0
   60.6147   27.8089   48.5093 H   0  0  0  0  0  0  0  0  0  0  0  0
  1  2  1  0
  2  3  1  0
  3  4  2  0
  3  5  1  0
  5  6  2  0
  6  7  1  0
  7  8  1  0
  8  9  1  0
  8 10  1  0
  8 11  1  0
  6 12  1  0
 12 13  1  0
 12 14  2  0
 14 15  1  0
 15 16  1  0
 16 17  1  0
 16 18  1  0
 16 19  1  0
 14 20  1  0
 20 21  1  0
 20 22  2  0
 22 23  1  0
 23 24  2  0
 24 25  1  0
 24 26  1  0
 26 27  1  0
 26 28  2  0
 28 29  1  0
 28 30  1  0
 30 31  1  0
 30 32  2  0
 32 33  1  0
 33 34  1  0
 34 35  1  0
 34 36  1  0
 34 37  1  0
  2 38  2  0
 38 39  1  0
 38 40  1  0
 40 41  2  0
 41 42  1  0
 41 43  1  0
 43 44  1  0
 44 45  1  0
 45 46  1  0
 45 47  1  0
 45 48  1  0
 43 49  2  0
 49 50  1  0
 50 51  1  0
 51 52  1  0
 51 53  1  0
 51 54  1  0
 49 55  1  0
 55 56  1  0
 55 57  2  0
 57 58  1  0
 58 59  1  0
 59 60  1  0
 59 61  1  0
 59 62  1  0
 22  5  1  0
 32 23  1  0
 57 40  1  0
M  END
>  <UniqueID>  (20) 
20

>  <SMILES>  (20) 
COc1cc(OC)c(C(=O)/C=C/c2cc(OC)c(OC)cc2OC)c(-c2ccccc2OC)c1

>  <Energy>  (20) 
74.67535473470956

>  <Genealogy>  (20) 
COc1cc(OC)c(C(=O)/C=C/c2cc(OC)c(OC)cc2OC)c(-c2ccccc2OC)c1 (cis-trans isomerization)
COc1cc(OC)c(C(=O)/C=C/c2cc(OC)c(OC)cc2OC)c(-c2ccccc2OC)c1 (3D coordinates assigned)
COc1cc(OC)c(C(=O)/C=C/c2cc(OC)c(OC)cc2OC)c(-c2ccccc2OC)c1 (optimized conformer: 74.67535473470956 kcal/mol)

>  <smiles>  (20) 
COc1cc(OC)c(C(=O)C=Cc2cc(OC)c(OC)cc2OC)c(-c2ccccc2OC)c1

>  <score_type>  (20) 
oracle

>  <origin>  (20) 
adg

>  <m_score__min__energy>  (20) 
-8.4399999999999995

>  <m_primary>  (20) 
energy

$$$$
20:0
     RDKit          3D

 50 52  0  0  0  0  0  0  0  0999 V2000
   56.5860   29.6470   42.9520 C   0  0  0  0  0  0  0  0  0  0  0  0
   56.0940   30.4780   44.1250 C   0  0  0  0  0  0  0  0  0  0  0  0
   56.9190   30.2290   45.2430 O   0  0  0  0  0  0  0  0  0  0  0  0
   58.1420   29.6720   44.8150 C   0  0  0  0  0  0  0  0  0  0  0  0
   59.3020   30.4460   45.4420 C   0  0  0  0  0  0  0  0  0  0  0  0
   58.9720   30.8680   46.8210 N   0  0  0  0  0  0  0  0  0  0  0  0
   58.4380   32.1130   47.0720 C   0  0  0  0  0  0  0  0  0  0  0  0
   57.9870   33.2510   45.7400 S   0  0  0  0  0  0  0  0  0  0  0  0
   59.5460   34.2050   45.8200 C   0  0  0  0  0  0  0  0  0  0  0  0
   60.0190   34.3630   47.2410 C   0  0  0  0  0  0  0  0  0  0  0  0
   59.2660   34.9770   48.0450 O   0  0  0  0  0  0  0  0  0  0  0  0
   61.3000   33.8610   47.6970 N   0  0  0  0  0  0  0  0  0  0  0  0
   62.2910   33.3230   46.7500 C   0  0  0  0  0  0  0  0  0  0  0  0
   63.2720   32.3930   47.4690 C   0  0  0  0  0  0  0  0  0  0  0  0
   63.8260   33.0260   48.6040 O   0  0  0  0  0  0  0  0  0  0  0  0
   62.8090   33.2520   49.5590 C   0  0  0  0  0  0  0  0  0  0  0  0
   61.7780   34.2550   49.0310 C   0  0  0  0  0  0  0  0  0  0  0  0
   58.2320   32.5270   48.3530 N   0  0  0  0  0  0  0  0  0  0  0  0
   58.5210   31.7310   49.4130 C   0  0  0  0  0  0  0  0  0  0  0  0
   58.2860   32.1760   50.7250 C   0  0  0  0  0  0  0  0  0  0  0  0
   58.5770   31.3480   51.8120 C   0  0  0  0  0  0  0  0  0  0  0  0
   59.1040   30.0720   51.5990 C   0  0  0  0  0  0  0  0  0  0  0  0
   59.3480   29.6220   50.2990 C   0  0  0  0  0  0  0  0  0  0  0  0
   59.0530   30.4470   49.1960 C   0  0  0  0  0  0  0  0  0  0  0  0
   59.2740   30.0330   47.8720 C   0  0  0  0  0  0  0  0  0  0  0  0
   59.7600   28.8860   47.6540 O   0  0  0  0  0  0  0  0  0  0  0  0
   57.1126   28.7575   43.3281 H   0  0  0  0  0  0  0  0  0  0  0  0
   55.7279   29.3334   42.3393 H   0  0  0  0  0  0  0  0  0  0  0  0
   57.2736   30.2485   42.3393 H   0  0  0  0  0  0  0  0  0  0  0  0
   56.1382   31.5458   43.8647 H   0  0  0  0  0  0  0  0  0  0  0  0
   55.0547   30.2069   44.3624 H   0  0  0  0  0  0  0  0  0  0  0  0
   58.1937   28.6182   45.1261 H   0  0  0  0  0  0  0  0  0  0  0  0
   58.2096   29.7346   43.7189 H   0  0  0  0  0  0  0  0  0  0  0  0
   60.1933   29.8017   45.4662 H   0  0  0  0  0  0  0  0  0  0  0  0
   59.4929   31.3441   44.8362 H   0  0  0  0  0  0  0  0  0  0  0  0
   60.3189   33.6775   45.2417 H   0  0  0  0  0  0  0  0  0  0  0  0
   59.3622   35.2058   45.4021 H   0  0  0  0  0  0  0  0  0  0  0  0
   61.7697   32.7595   45.9621 H   0  0  0  0  0  0  0  0  0  0  0  0
   62.8528   34.1601   46.3100 H   0  0  0  0  0  0  0  0  0  0  0  0
   62.7398   31.4844   47.7871 H   0  0  0  0  0  0  0  0  0  0  0  0
   64.0870   32.1377   46.7758 H   0  0  0  0  0  0  0  0  0  0  0  0
   62.3048   32.2998   49.7807 H   0  0  0  0  0  0  0  0  0  0  0  0
   63.2670   33.6647   50.4700 H   0  0  0  0  0  0  0  0  0  0  0  0
   60.9240   34.2923   49.7234 H   0  0  0  0  0  0  0  0  0  0  0  0
   62.2546   35.2436   48.9564 H   0  0  0  0  0  0  0  0  0  0  0  0
   57.8340   33.4810   48.5150 H   0  0  0  0  0  0  0  0  0  0  0  0
   57.8713   33.1802   50.8969 H   0  0  0  0  0  0  0  0  0  0  0  0
   58.3909   31.7013   52.8369 H   0  0  0  0  0  0  0  0  0  0  0  0
   59.3273   29.4202   52.4565 H   0  0  0  0  0  0  0  0  0  0  0  0
   59.7719   28.6201   50.1363 H   0  0  0  0  0  0  0  0  0  0  0  0
  1  2  1  0
  2  3  1  0
  3  4  1  0
  4  5  1  0
  5  6  1  0
  6  7  1  0
  7  8  1  0
  8  9  1  0
  9 10  1  0
 10 11  2  0
 10 12  1  0
 12 13  1  0
 13 14  1  0
 14 15  1  0
 15 16  1  0
 16 17  1  0
  7 18  2  0
 18 19  1  0
 19 20  2  0
 20 21  1  0
 21 22  2  0
 22 23  1  0
 23 24  2  0
 24 25  1  0
 25 26  2  0
 25  6  1  0
 17 12  1  0
 24 19  1  0
  1 27  1  0
  1 28  1  0
  1 29  1  0
  2 30  1  0
  2 31  1  0
  4 32  1  0
  4 33  1  0
  5 34  1  0
  5 35  1  0
  9 36  1  0
  9 37  1  0
 13 38  1  0
 13 39  1  0
 14 40  1  0
 14 41  1  0
 16 42  1  0
 16 43  1  0
 17 44  1  0
 17 45  1  0
 18 46  1  0
 20 47  1  0
 21 48  1  0
 22 49  1  0
 23 50  1  0
M  CHG  1  18   1
M  END
>  <UniqueID>  (21) 
21

>  <SMILES>  (21) 
CCOCCn1c(SCC(=O)N2CCOCC2)[nH+]c2ccccc2c1=O

>  <Energy>  (21) 
52.05886006737468

>  <Genealogy>  (21) 
CCOCCn1c(SCC(=O)N2CCOCC2)[nH+]c2ccccc2c1=O (protonated)
CCOCCn1c(SCC(=O)N2CCOCC2)[nH+]c2ccccc2c1=O (3D coordinates assigned)
CCOCCn1c(SCC(=O)N2CCOCC2)[nH+]c2ccccc2c1=O (nonaromatic ring conformer: 52.05886006737468 kcal/mol)

>  <smiles>  (21) 
CCOCCn1c(SCC(=O)N2CCOCC2)nc2ccccc2c1=O

>  <score_type>  (21) 
oracle

>  <origin>  (21) 
adg

>  <m_score__min__energy>  (21) 
-5.8499999999999996

>  <m_primary>  (21) 
energy

$$$$
21:0
     RDKit          3D

 36 38  0  0  0  0  0  0  0  0999 V2000
   59.5880   35.4020   45.9830 O   0  0  0  0  0  0  0  0  0  0  0  0
   59.0920   34.2730   45.7250 C   0  0  0  0  0  0  0  0  0  0  0  0
   57.8490   34.1940   44.8850 C   0  0  0  0  0  0  0  0  0  0  0  0
   57.1400   32.9910   45.1240 O   0  0  0  0  0  0  0  0  0  0  0  0
   57.4000   32.0170   44.1290 C   0  0  0  0  0  0  0  0  0  0  0  0
   56.8920   30.6720   44.5510 C   0  0  0  0  0  0  0  0  0  0  0  0
   57.6630   29.6260   45.0110 C   0  0  0  0  0  0  0  0  0  0  0  0
   56.7500   28.6120   45.2090 C   0  0  0  0  0  0  0  0  0  0  0  0
   57.0640   27.2310   45.5950 C   0  0  0  0  0  0  0  0  0  0  0  0
   58.3400   26.6990   45.7410 C   0  0  0  0  0  0  0  0  0  0  0  0
   58.3360   25.3710   46.1840 C   0  0  0  0  0  0  0  0  0  0  0  0
   57.0640   24.8540   46.3910 C   0  0  0  0  0  0  0  0  0  0  0  0
   55.9410   26.0520   46.0240 S   0  0  0  0  0  0  0  0  0  0  0  0
   55.5120   29.0440   44.9010 N   0  0  0  0  0  0  0  0  0  0  0  0
   55.5990   30.3040   44.5010 N   0  0  0  0  0  0  0  0  0  0  0  0
   59.6410   33.0810   46.3100 N   0  0  0  0  0  0  0  0  0  0  0  0
   60.9910   32.9420   46.7940 C   0  0  0  0  0  0  0  0  0  0  0  0
   61.3140   31.8440   47.6090 C   0  0  0  0  0  0  0  0  0  0  0  0
   62.6270   31.6420   48.0450 C   0  0  0  0  0  0  0  0  0  0  0  0
   63.6340   32.5320   47.6650 C   0  0  0  0  0  0  0  0  0  0  0  0
   63.3310   33.6210   46.8470 C   0  0  0  0  0  0  0  0  0  0  0  0
   62.0190   33.8250   46.4070 C   0  0  0  0  0  0  0  0  0  0  0  0
   57.1984   35.0472   45.1273 H   0  0  0  0  0  0  0  0  0  0  0  0
   58.1446   34.2174   43.8257 H   0  0  0  0  0  0  0  0  0  0  0  0
   56.9002   32.3139   43.1952 H   0  0  0  0  0  0  0  0  0  0  0  0
   58.4876   31.9503   43.9785 H   0  0  0  0  0  0  0  0  0  0  0  0
   58.7497   29.6052   45.1801 H   0  0  0  0  0  0  0  0  0  0  0  0
   59.2597   27.2643   45.5298 H   0  0  0  0  0  0  0  0  0  0  0  0
   59.2553   24.7909   46.3525 H   0  0  0  0  0  0  0  0  0  0  0  0
   56.8306   23.8359   46.7358 H   0  0  0  0  0  0  0  0  0  0  0  0
   59.0130   32.2480   46.3750 H   0  0  0  0  0  0  0  0  0  0  0  0
   60.5262   31.1364   47.9069 H   0  0  0  0  0  0  0  0  0  0  0  0
   62.8669   30.7819   48.6874 H   0  0  0  0  0  0  0  0  0  0  0  0
   64.6663   32.3744   48.0107 H   0  0  0  0  0  0  0  0  0  0  0  0
   64.1254   34.3204   46.5476 H   0  0  0  0  0  0  0  0  0  0  0  0
   61.7881   34.6801   45.7547 H   0  0  0  0  0  0  0  0  0  0  0  0
  1  2  2  0
  2  3  1  0
  3  4  1  0
  4  5  1  0
  5  6  1  0
  6  7  1  0
  7  8  2  0
  8  9  1  0
  9 10  2  0
 10 11  1  0
 11 12  2  0
 12 13  1  0
  8 14  1  0
 14 15  1  0
  2 16  1  0
 16 17  1  0
 17 18  2  0
 18 19  1  0
 19 20  2  0
 20 21  1  0
 21 22  2  0
 15  6  2  0
 22 17  1  0
 13  9  1  0
  3 23  1  0
  3 24  1  0
  5 25  1  0
  5 26  1  0
  7 27  1  0
 10 28  1  0
 11 29  1  0
 12 30  1  0
 16 31  1  0
 18 32  1  0
 19 33  1  0
 20 34  1  0
 21 35  1  0
 22 36  1  0
M  CHG  1  14  -1
M  END
>  <UniqueID>  (22) 
22

>  <SMILES>  (22) 
O=C(COCc1cc(-c2cccs2)[n-]n1)Nc1ccccc1

>  <Energy>  (22) 
92.9238145679464

>  <Genealogy>  (22) 
O=C(COCc1cc(-c2cccs2)[n-]n1)Nc1ccccc1 (protonated)
O=C(COCc1cc(-c2cccs2)[n-]n1)Nc1ccccc1 (3D coordinates assigned)
O=C(COCc1cc(-c2cccs2)[n-]n1)Nc1ccccc1 (optimized conformer: 92.9238145679464 kcal/mol)

>  <smiles>  (22) 
O=C(COCc1cc(-c2cccs2)[nH]n1)Nc1ccccc1

>  <score_type>  (22) 
oracle

>  <origin>  (22) 
adg

>  <m_score__min__energy>  (22) 
-10.33

>  <m_primary>  (22) 
energy

$$$$
22:0
     RDKit          3D

 41 42  0  0  0  0  0  0  0  0999 V2000
   59.9680   34.6070   48.6220 C   0  0  0  0  0  0  0  0  0  0  0  0
   59.0480   34.8260   47.5570 O   0  0  0  0  0  0  0  0  0  0  0  0
   58.7530   33.8870   46.5550 C   0  0  0  0  0  0  0  0  0  0  0  0
   58.7370   34.2310   45.1910 C   0  0  0  0  0  0  0  0  0  0  0  0
   58.4410   33.2700   44.2240 C   0  0  0  0  0  0  0  0  0  0  0  0
   58.1530   31.9490   44.5930 C   0  0  0  0  0  0  0  0  0  0  0  0
   57.8500   30.9840   43.5670 N   0  0  0  0  0  0  0  0  0  0  0  0
   56.4940   30.5030   43.2900 C   0  0  0  0  0  0  0  0  0  0  0  0
   56.0160   29.6120   44.3920 C   0  0  0  0  0  0  0  0  0  0  0  0
   54.7890   29.3390   44.4850 O   0  0  0  0  0  0  0  0  0  0  0  0
   56.9430   29.1710   45.3910 N   0  0  0  0  0  0  0  0  0  0  0  0
   57.2820   27.8090   45.7040 C   0  0  0  0  0  0  0  0  0  0  0  0
   56.2810   26.8530   45.9560 C   0  0  0  0  0  0  0  0  0  0  0  0
   56.6210   25.5300   46.2400 C   0  0  0  0  0  0  0  0  0  0  0  0
   57.9600   25.1420   46.2610 C   0  0  0  0  0  0  0  0  0  0  0  0
   58.9640   26.0720   45.9890 C   0  0  0  0  0  0  0  0  0  0  0  0
   58.6400   27.4130   45.7010 C   0  0  0  0  0  0  0  0  0  0  0  0
   59.7280   28.4220   45.4030 C   0  0  0  0  0  0  0  0  0  0  0  0
   59.8000   29.4060   46.3750 F   0  0  0  0  0  0  0  0  0  0  0  0
   60.9520   27.7790   45.3430 F   0  0  0  0  0  0  0  0  0  0  0  0
   59.4760   29.0290   44.1860 F   0  0  0  0  0  0  0  0  0  0  0  0
   58.1660   31.6040   45.9570 C   0  0  0  0  0  0  0  0  0  0  0  0
   58.4660   32.5680   46.9400 C   0  0  0  0  0  0  0  0  0  0  0  0
   58.4860   32.2560   48.3090 O   0  0  0  0  0  0  0  0  0  0  0  0
   58.9020   31.0050   48.8480 C   0  0  0  0  0  0  0  0  0  0  0  0
   59.4504   34.7302   49.5848 H   0  0  0  0  0  0  0  0  0  0  0  0
   60.3741   33.5871   48.5519 H   0  0  0  0  0  0  0  0  0  0  0  0
   60.7900   35.3346   48.5519 H   0  0  0  0  0  0  0  0  0  0  0  0
   58.9592   35.2640   44.8851 H   0  0  0  0  0  0  0  0  0  0  0  0
   58.4336   33.5520   43.1608 H   0  0  0  0  0  0  0  0  0  0  0  0
   58.6410   30.6100   42.9940 H   0  0  0  0  0  0  0  0  0  0  0  0
   55.8158   31.3646   43.2018 H   0  0  0  0  0  0  0  0  0  0  0  0
   56.5059   29.9303   42.3509 H   0  0  0  0  0  0  0  0  0  0  0  0
   55.2224   27.1508   45.9289 H   0  0  0  0  0  0  0  0  0  0  0  0
   55.8319   24.7923   46.4475 H   0  0  0  0  0  0  0  0  0  0  0  0
   58.2256   24.1000   46.4926 H   0  0  0  0  0  0  0  0  0  0  0  0
   60.0175   25.7558   45.9994 H   0  0  0  0  0  0  0  0  0  0  0  0
   57.9396   30.5708   46.2592 H   0  0  0  0  0  0  0  0  0  0  0  0
   58.8853   31.0554   49.9467 H   0  0  0  0  0  0  0  0  0  0  0  0
   58.2188   30.2133   48.5068 H   0  0  0  0  0  0  0  0  0  0  0  0
   59.9233   30.7801   48.5068 H   0  0  0  0  0  0  0  0  0  0  0  0
  1  2  1  0
  2  3  1  0
  3  4  2  0
  4  5  1  0
  5  6  2  0
  6  7  1  0
  7  8  1  0
  8  9  1  0
  9 10  2  0
  9 11  1  0
 11 12  1  0
 12 13  2  0
 13 14  1  0
 14 15  2  0
 15 16  1  0
 16 17  2  0
 17 18  1  0
 18 19  1  0
 18 20  1  0
 18 21  1  0
  6 22  1  0
 22 23  2  0
 23 24  1  0
 24 25  1  0
 23  3  1  0
 17 12  1  0
  1 26  1  0
  1 27  1  0
  1 28  1  0
  4 29  1  0
  5 30  1  0
  7 31  1  0
  8 32  1  0
  8 33  1  0
 13 34  1  0
 14 35  1  0
 15 36  1  0
 16 37  1  0
 22 38  1  0
 25 39  1  0
 25 40  1  0
 25 41  1  0
M  CHG  1  11  -1
M  END
>  <UniqueID>  (23) 
23

>  <SMILES>  (23) 
COc1ccc(NCC(=O)[N-]c2ccccc2C(F)(F)F)cc1OC

>  <Energy>  (23) 
44.045920835404125

>  <Genealogy>  (23) 
COc1ccc(NCC(=O)[N-]c2ccccc2C(F)(F)F)cc1OC (protonated)
COc1ccc(NCC(=O)[N-]c2ccccc2C(F)(F)F)cc1OC (3D coordinates assigned)
COc1ccc(NCC(=O)[N-]c2ccccc2C(F)(F)F)cc1OC (optimized conformer: 44.045920835404125 kcal/mol)

>  <smiles>  (23) 
COc1ccc(NCC(=O)Nc2ccccc2C(F)(F)F)cc1OC

>  <score_type>  (23) 
oracle

>  <origin>  (23) 
adg

>  <m_score__min__energy>  (23) 
-8.2799999999999994

>  <m_primary>  (23) 
energy

$$$$
23:0
     RDKit          3D

 62 64  0  0  0  0  0  0  0  0999 V2000
   62.9990   33.8190   46.8180 C   0  0  0  0  0  0  0  0  0  0  0  0
   62.3950   33.9010   48.2110 C   0  0  0  0  0  0  0  0  0  0  0  0
   61.0550   34.3730   48.1170 O   0  0  0  0  0  0  0  0  0  0  0  0
   60.2480   34.2660   46.9730 C   0  0  0  0  0  0  0  0  0  0  0  0
   59.9970   35.3650   46.1290 C   0  0  0  0  0  0  0  0  0  0  0  0
   59.1870   35.2150   45.0010 C   0  0  0  0  0  0  0  0  0  0  0  0
   58.6250   33.9730   44.7010 C   0  0  0  0  0  0  0  0  0  0  0  0
   58.8650   32.8740   45.5290 C   0  0  0  0  0  0  0  0  0  0  0  0
   58.0980   31.1810   45.0650 Br  0  0  0  0  0  0  0  0  0  0  0  0
   59.6750   33.0180   46.6700 C   0  0  0  0  0  0  0  0  0  0  0  0
   59.9290   31.8930   47.5210 N   0  0  0  0  0  0  0  0  0  0  0  0
   58.8380   31.3250   48.3140 C   0  0  0  0  0  0  0  0  0  0  0  0
   59.3740   30.8020   49.6590 C   0  0  0  0  0  0  0  0  0  0  0  0
   60.6970   30.1010   49.5790 N   0  0  0  0  0  0  0  0  0  0  0  0
   61.7570   30.8160   50.3460 C   0  0  0  0  0  0  0  0  0  0  0  0
   62.7700   29.8820   51.0590 C   0  0  1  0  0  0  0  0  0  0  0  0
   63.9530   30.5590   51.4100 O   0  0  0  0  0  0  0  0  0  0  0  0
   62.1570   29.1390   52.2670 C   0  0  0  0  0  0  0  0  0  0  0  0
   60.9600   28.4860   51.8870 O   0  0  0  0  0  0  0  0  0  0  0  0
   61.1670   27.1010   51.6740 C   0  0  0  0  0  0  0  0  0  0  0  0
   61.0820   26.7660   50.1810 C   0  0  0  0  0  0  0  0  0  0  0  0
   59.9900   27.4490   49.5630 O   0  0  0  0  0  0  0  0  0  0  0  0
   59.6200   27.3480   48.2120 C   0  0  0  0  0  0  0  0  0  0  0  0
   58.4080   27.9310   47.8150 C   0  0  0  0  0  0  0  0  0  0  0  0
   57.9870   27.8590   46.4840 C   0  0  0  0  0  0  0  0  0  0  0  0
   58.7760   27.2040   45.5340 C   0  0  0  0  0  0  0  0  0  0  0  0
   58.1980   27.1000   43.7170 Br  0  0  0  0  0  0  0  0  0  0  0  0
   59.9900   26.6240   45.9160 C   0  0  0  0  0  0  0  0  0  0  0  0
   60.4150   26.6960   47.2480 C   0  0  0  0  0  0  0  0  0  0  0  0
   61.1350   29.8480   48.1830 C   0  0  0  0  0  0  0  0  0  0  0  0
   61.1720   31.1400   47.3550 C   0  0  0  0  0  0  0  0  0  0  0  0
   64.0861   33.6714   46.8978 H   0  0  0  0  0  0  0  0  0  0  0  0
   62.5531   32.9732   46.2742 H   0  0  0  0  0  0  0  0  0  0  0  0
   62.7947   34.7531   46.2742 H   0  0  0  0  0  0  0  0  0  0  0  0
   62.4012   32.9029   48.6733 H   0  0  0  0  0  0  0  0  0  0  0  0
   62.9865   34.5931   48.8284 H   0  0  0  0  0  0  0  0  0  0  0  0
   60.4404   36.3451   46.3589 H   0  0  0  0  0  0  0  0  0  0  0  0
   58.9915   36.0779   44.3474 H   0  0  0  0  0  0  0  0  0  0  0  0
   57.9909   33.8593   43.8094 H   0  0  0  0  0  0  0  0  0  0  0  0
   58.0824   32.1022   48.5015 H   0  0  0  0  0  0  0  0  0  0  0  0
   58.3877   30.4895   47.7580 H   0  0  0  0  0  0  0  0  0  0  0  0
   59.4812   31.6584   50.3409 H   0  0  0  0  0  0  0  0  0  0  0  0
   58.6483   30.0544   50.0118 H   0  0  0  0  0  0  0  0  0  0  0  0
   60.5730   29.1510   49.9990 H   0  0  0  0  0  0  0  0  0  0  0  0
   62.3134   31.4584   49.6476 H   0  0  0  0  0  0  0  0  0  0  0  0
   61.2445   31.3854   51.1353 H   0  0  0  0  0  0  0  0  0  0  0  0
   63.0388   29.1084   50.3246 H   0  0  0  0  0  0  0  0  0  0  0  0
   63.8760   30.8360   52.3600 H   0  0  0  0  0  0  0  0  0  0  0  0
   62.8757   28.3928   52.6367 H   0  0  0  0  0  0  0  0  0  0  0  0
   61.9305   29.8688   53.0582 H   0  0  0  0  0  0  0  0  0  0  0  0
   62.1620   26.8221   52.0510 H   0  0  0  0  0  0  0  0  0  0  0  0
   60.3864   26.5396   52.2083 H   0  0  0  0  0  0  0  0  0  0  0  0
   62.0190   27.0687   49.6908 H   0  0  0  0  0  0  0  0  0  0  0  0
   60.9227   25.6829   50.0740 H   0  0  0  0  0  0  0  0  0  0  0  0
   57.7833   28.4494   48.5573 H   0  0  0  0  0  0  0  0  0  0  0  0
   57.0336   28.3183   46.1838 H   0  0  0  0  0  0  0  0  0  0  0  0
   60.6121   26.1102   45.1684 H   0  0  0  0  0  0  0  0  0  0  0  0
   61.3726   26.2422   47.5432 H   0  0  0  0  0  0  0  0  0  0  0  0
   62.1426   29.4070   48.2002 H   0  0  0  0  0  0  0  0  0  0  0  0
   60.4119   29.1630   47.7162 H   0  0  0  0  0  0  0  0  0  0  0  0
   62.0174   31.7595   47.6890 H   0  0  0  0  0  0  0  0  0  0  0  0
   61.2889   30.8778   46.2931 H   0  0  0  0  0  0  0  0  0  0  0  0
  1  2  1  0
  2  3  1  0
  3  4  1  0
  4  5  2  0
  5  6  1  0
  6  7  2  0
  7  8  1  0
  8  9  1  0
  8 10  2  0
 10 11  1  0
 11 12  1  0
 12 13  1  0
 13 14  1  0
 14 15  1  0
 15 16  1  0
 16 17  1  0
 16 18  1  0
 18 19  1  0
 19 20  1  0
 20 21  1  0
 21 22  1  0
 22 23  1  0
 23 24  2  0
 24 25  1  0
 25 26  2  0
 26 27  1  0
 26 28  1  0
 28 29  2  0
 14 30  1  0
 30 31  1  0
 10  4  1  0
 31 11  1  0
 29 23  1  0
  1 32  1  0
  1 33  1  0
  1 34  1  0
  2 35  1  0
  2 36  1  0
  5 37  1  0
  6 38  1  0
  7 39  1  0
 12 40  1  0
 12 41  1  0
 13 42  1  0
 13 43  1  0
 14 44  1  0
 15 45  1  0
 15 46  1  0
 16 47  1  6
 17 48  1  0
 18 49  1  0
 18 50  1  0
 20 51  1  0
 20 52  1  0
 21 53  1  0
 21 54  1  0
 24 55  1  0
 25 56  1  0
 28 57  1  0
 29 58  1  0
 30 59  1  0
 30 60  1  0
 31 61  1  0
 31 62  1  0
M  CHG  1  14   1
M  END
>  <UniqueID>  (24) 
24

>  <SMILES>  (24) 
CCOc1cccc(Br)c1N1CC[NH+](C[C@@H](O)COCCOc2ccc(Br)cc2)CC1

>  <Energy>  (24) 
77.36532158822037

>  <Genealogy>  (24) 
CCOc1cccc(Br)c1N1CC[NH+](CC(O)COCCOc2ccc(Br)cc2)CC1 (protonated)
CCOc1cccc(Br)c1N1CC[NH+](C[C@@H](O)COCCOc2ccc(Br)cc2)CC1 (chirality)
CCOc1cccc(Br)c1N1CC[NH+](C[C@@H](O)COCCOc2ccc(Br)cc2)CC1 (3D coordinates assigned)
CCOc1cccc(Br)c1N1CC[NH+](C[C@@H](O)COCCOc2ccc(Br)cc2)CC1 (nonaromatic ring conformer: 77.36532158822037 kcal/mol)

>  <smiles>  (24) 
CCOc1cccc(Br)c1N1CCN(CC(O)COCCOc2ccc(Br)cc2)CC1

>  <score_type>  (24) 
oracle

>  <origin>  (24) 
adg

>  <m_score__min__energy>  (24) 
-5.7400000000000002

>  <m_primary>  (24) 
energy

$$$$
24:0
     RDKit          3D

 41 42  0  0  0  0  0  0  0  0999 V2000
   62.9700   33.1760   47.1240 C   0  0  0  0  0  0  0  0  0  0  0  0
   61.7570   32.2550   47.1510 C   0  0  0  0  0  0  0  0  0  0  0  0
   60.5240   32.9980   46.7410 C   0  0  0  0  0  0  0  0  0  0  0  0
   60.2470   34.3230   47.0180 C   0  0  0  0  0  0  0  0  0  0  0  0
   59.0320   34.5840   46.4230 C   0  0  0  0  0  0  0  0  0  0  0  0
   58.6470   33.4010   45.8220 C   0  0  0  0  0  0  0  0  0  0  0  0
   57.4010   33.1960   45.0190 C   0  0  0  0  0  0  0  0  0  0  0  0
   57.5720   32.0760   44.0810 N   0  0  0  0  0  0  0  0  0  0  0  0
   58.1300   32.3340   42.7480 C   0  0  0  0  0  0  0  0  0  0  0  0
   57.2780   30.7110   44.4560 C   0  0  0  0  0  0  0  0  0  0  0  0
   56.1140   30.4080   44.8290 O   0  0  0  0  0  0  0  0  0  0  0  0
   58.3310   29.6280   44.4550 C   0  0  0  0  0  0  0  0  0  0  0  0
   59.3730   29.8780   45.4840 N   0  0  0  0  0  0  0  0  0  0  0  0
   60.5730   29.0640   45.2380 C   0  0  0  0  0  0  0  0  0  0  0  0
   60.3990   27.7560   45.9910 C   0  0  0  0  0  0  0  0  0  0  0  0
   59.3800   28.0540   47.0760 C   0  0  0  0  0  0  0  0  0  0  0  0
   58.9230   29.4870   46.8310 C   0  0  0  0  0  0  0  0  0  0  0  0
   59.5580   32.4750   46.0200 O   0  0  0  0  0  0  0  0  0  0  0  0
   63.2766   33.4088   48.1544 H   0  0  0  0  0  0  0  0  0  0  0  0
   63.7978   32.6768   46.5990 H   0  0  0  0  0  0  0  0  0  0  0  0
   62.7115   34.1075   46.5990 H   0  0  0  0  0  0  0  0  0  0  0  0
   61.9227   31.4180   46.4567 H   0  0  0  0  0  0  0  0  0  0  0  0
   61.6203   31.8775   48.1751 H   0  0  0  0  0  0  0  0  0  0  0  0
   60.8681   35.0245   47.5944 H   0  0  0  0  0  0  0  0  0  0  0  0
   58.4824   35.5368   46.4259 H   0  0  0  0  0  0  0  0  0  0  0  0
   56.5646   32.9749   45.6984 H   0  0  0  0  0  0  0  0  0  0  0  0
   57.1919   34.1115   44.4461 H   0  0  0  0  0  0  0  0  0  0  0  0
   59.1242   32.7937   42.8494 H   0  0  0  0  0  0  0  0  0  0  0  0
   58.2189   31.3856   42.1979 H   0  0  0  0  0  0  0  0  0  0  0  0
   57.4650   33.0161   42.1979 H   0  0  0  0  0  0  0  0  0  0  0  0
   57.8491   28.6612   44.6624 H   0  0  0  0  0  0  0  0  0  0  0  0
   58.8166   29.6209   43.4680 H   0  0  0  0  0  0  0  0  0  0  0  0
   59.6390   30.8920   45.4820 H   0  0  0  0  0  0  0  0  0  0  0  0
   60.6786   28.8663   44.1611 H   0  0  0  0  0  0  0  0  0  0  0  0
   61.4759   29.5911   45.5800 H   0  0  0  0  0  0  0  0  0  0  0  0
   60.0268   26.9698   45.3177 H   0  0  0  0  0  0  0  0  0  0  0  0
   61.3495   27.3922   46.4084 H   0  0  0  0  0  0  0  0  0  0  0  0
   58.5281   27.3620   47.0025 H   0  0  0  0  0  0  0  0  0  0  0  0
   59.8099   27.9314   48.0811 H   0  0  0  0  0  0  0  0  0  0  0  0
   57.8262   29.5456   46.8910 H   0  0  0  0  0  0  0  0  0  0  0  0
   59.3478   30.1612   47.5893 H   0  0  0  0  0  0  0  0  0  0  0  0
  1  2  1  0
  2  3  1  0
  3  4  2  0
  4  5  1  0
  5  6  2  0
  6  7  1  0
  7  8  1  0
  8  9  1  0
  8 10  1  0
 10 11  2  0
 10 12  1  0
 12 13  1  0
 13 14  1  0
 14 15  1  0
 15 16  1  0
 16 17  1  0
  6 18  1  0
 18  3  1  0
 17 13  1  0
  1 19  1  0
  1 20  1  0
  1 21  1  0
  2 22  1  0
  2 23  1  0
  4 24  1  0
  5 25  1  0
  7 26  1  0
  7 27  1  0
  9 28  1  0
  9 29  1  0
  9 30  1  0
 12 31  1  0
 12 32  1  0
 13 33  1  0
 14 34  1  0
 14 35  1  0
 15 36  1  0
 15 37  1  0
 16 38  1  0
 16 39  1  0
 17 40  1  0
 17 41  1  0
M  CHG  1  13   1
M  END
>  <UniqueID>  (25) 
25

>  <SMILES>  (25) 
CCc1ccc(CN(C)C(=O)C[NH+]2CCCC2)o1

>  <Energy>  (25) 
62.25895046819396

>  <Genealogy>  (25) 
CCc1ccc(CN(C)C(=O)C[NH+]2CCCC2)o1 (protonated)
CCc1ccc(CN(C)C(=O)C[NH+]2CCCC2)o1 (3D coordinates assigned)
CCc1ccc(CN(C)C(=O)C[NH+]2CCCC2)o1 (nonaromatic ring conformer: 62.25895046819396 kcal/mol)

>  <smiles>  (25) 
CCc1ccc(CN(C)C(=O)CN2CCCC2)o1

>  <score_type>  (25) 
oracle

>  <origin>  (25) 
adg

>  <m_score__min__energy>  (25) 
-4.79

>  <m_primary>  (25) 
energy

$$$$
25:0
     RDKit          3D

 30 31  0  0  0  0  0  0  0  0999 V2000
   54.0270   24.7620   45.4150 C   0  0  0  0  0  0  0  0  0  0  0  0
   54.6620   26.0100   45.6690 O   0  0  0  0  0  0  0  0  0  0  0  0
   55.9580   26.1060   46.1850 C   0  0  0  0  0  0  0  0  0  0  0  0
   56.3260   25.3450   47.1210 O   0  0  0  0  0  0  0  0  0  0  0  0
   56.8810   27.1080   45.6220 C   0  0  0  0  0  0  0  0  0  0  0  0
   56.3730   28.5900   45.0060 S   0  0  0  0  0  0  0  0  0  0  0  0
   57.8960   29.1480   44.5830 C   0  0  0  0  0  0  0  0  0  0  0  0
   58.1440   30.4530   44.0420 N   0  0  0  0  0  0  0  0  0  0  0  0
   57.8920   31.6640   44.7780 C   0  0  0  0  0  0  0  0  0  0  0  0
   57.7850   31.6180   46.0330 O   0  0  0  0  0  0  0  0  0  0  0  0
   57.7770   33.0130   44.1100 C   0  0  0  0  0  0  0  0  0  0  0  0
   57.3600   34.1640   45.0120 C   0  0  0  0  0  0  0  0  0  0  0  0
   58.7920   34.0810   44.4990 C   0  0  0  0  0  0  0  0  0  0  0  0
   58.8490   28.1980   44.9500 C   0  0  0  0  0  0  0  0  0  0  0  0
   60.2720   28.4240   44.8490 C   0  0  0  0  0  0  0  0  0  0  0  0
   61.4110   28.6040   44.7650 N   0  0  0  0  0  0  0  0  0  0  0  0
   58.2810   27.0370   45.5230 C   0  0  0  0  0  0  0  0  0  0  0  0
   59.0900   25.8640   46.0110 C   0  0  0  0  0  0  0  0  0  0  0  0
   53.7795   24.2755   46.3700 H   0  0  0  0  0  0  0  0  0  0  0  0
   53.1049   24.9302   44.8393 H   0  0  0  0  0  0  0  0  0  0  0  0
   54.7058   24.1156   44.8393 H   0  0  0  0  0  0  0  0  0  0  0  0
   58.6800   30.4980   43.1490 H   0  0  0  0  0  0  0  0  0  0  0  0
   57.4302   32.5949   43.1535 H   0  0  0  0  0  0  0  0  0  0  0  0
   56.6839   34.9438   44.6313 H   0  0  0  0  0  0  0  0  0  0  0  0
   56.8934   34.2438   46.0049 H   0  0  0  0  0  0  0  0  0  0  0  0
   59.1499   34.8000   43.7473 H   0  0  0  0  0  0  0  0  0  0  0  0
   59.7875   34.0754   44.9668 H   0  0  0  0  0  0  0  0  0  0  0  0
   59.0962   25.8551   47.1109 H   0  0  0  0  0  0  0  0  0  0  0  0
   58.6430   24.9302   45.6392 H   0  0  0  0  0  0  0  0  0  0  0  0
   60.1217   25.9501   45.6392 H   0  0  0  0  0  0  0  0  0  0  0  0
  1  2  1  0
  2  3  1  0
  3  4  2  0
  3  5  1  0
  5  6  1  0
  6  7  1  0
  7  8  1  0
  8  9  1  0
  9 10  2  0
  9 11  1  0
 11 12  1  0
 12 13  1  0
  7 14  2  0
 14 15  1  0
 15 16  3  0
 14 17  1  0
 17 18  1  0
 17  5  2  0
 13 11  1  0
  1 19  1  0
  1 20  1  0
  1 21  1  0
  8 22  1  0
 11 23  1  0
 12 24  1  0
 12 25  1  0
 13 26  1  0
 13 27  1  0
 18 28  1  0
 18 29  1  0
 18 30  1  0
M  END
>  <UniqueID>  (26) 
26

>  <SMILES>  (26) 
COC(=O)c1sc(NC(=O)C2CC2)c(C#N)c1C

>  <Energy>  (26) 
323.44966595205153

>  <Genealogy>  (26) 
COC(=O)c1sc(NC(=O)C2CC2)c(C#N)c1C (3D coordinates assigned)
COC(=O)c1sc(NC(=O)C2CC2)c(C#N)c1C (nonaromatic ring conformer: 323.44966595205153 kcal/mol)

>  <smiles>  (26) 
COC(=O)c1sc(NC(=O)C2CC2)c(C#N)c1C

>  <score_type>  (26) 
oracle

>  <origin>  (26) 
adg

>  <m_score__min__energy>  (26) 
-6.5999999999999996

>  <m_primary>  (26) 
energy

$$$$
26:0
     RDKit          3D

 49 51  0  0  0  0  0  0  0  0999 V2000
   58.0220   32.3440   41.1230 C   0  0  0  0  0  0  0  0  0  0  0  0
   56.9850   31.8170   41.9460 O   0  0  0  0  0  0  0  0  0  0  0  0
   57.1980   30.9590   43.0350 C   0  0  0  0  0  0  0  0  0  0  0  0
   56.1620   30.1010   43.4170 C   0  0  0  0  0  0  0  0  0  0  0  0
   56.3240   29.2270   44.4960 C   0  0  0  0  0  0  0  0  0  0  0  0
   57.5360   29.1910   45.2040 C   0  0  0  0  0  0  0  0  0  0  0  0
   57.7170   28.2410   46.3610 C   0  0  0  0  0  0  0  0  0  0  0  0
   59.0510   27.4750   46.2980 C   0  0  0  0  0  0  0  0  0  0  0  0
   59.9760   27.7280   47.5020 C   0  0  0  0  0  0  0  0  0  0  0  0
   60.1440   29.1960   47.8050 C   0  0  0  0  0  0  0  0  0  0  0  0
   60.9530   30.0010   46.9890 C   0  0  0  0  0  0  0  0  0  0  0  0
   61.1320   31.3550   47.2850 C   0  0  0  0  0  0  0  0  0  0  0  0
   60.4970   31.9280   48.4040 C   0  0  0  0  0  0  0  0  0  0  0  0
   60.6600   33.2770   48.7590 O   0  0  0  0  0  0  0  0  0  0  0  0
   59.6750   34.2960   48.5950 C   0  0  0  0  0  0  0  0  0  0  0  0
   58.9950   34.1730   47.2560 C   0  0  0  0  0  0  0  0  0  0  0  0
   57.7800   33.4780   47.1450 C   0  0  0  0  0  0  0  0  0  0  0  0
   57.1460   33.3610   45.9050 C   0  0  0  0  0  0  0  0  0  0  0  0
   57.7240   33.9290   44.7660 C   0  0  0  0  0  0  0  0  0  0  0  0
   58.9390   34.6120   44.8660 C   0  0  0  0  0  0  0  0  0  0  0  0
   59.5760   34.7310   46.1050 C   0  0  0  0  0  0  0  0  0  0  0  0
   59.6700   31.1270   49.2000 C   0  0  0  0  0  0  0  0  0  0  0  0
   59.4910   29.7730   48.9050 C   0  0  0  0  0  0  0  0  0  0  0  0
   58.5740   30.0600   44.8290 C   0  0  0  0  0  0  0  0  0  0  0  0
   58.4100   30.9350   43.7520 C   0  0  0  0  0  0  0  0  0  0  0  0
   58.8228   32.7510   41.7578 H   0  0  0  0  0  0  0  0  0  0  0  0
   58.4288   31.5432   40.4879 H   0  0  0  0  0  0  0  0  0  0  0  0
   57.6149   33.1446   40.4879 H   0  0  0  0  0  0  0  0  0  0  0  0
   55.2114   30.1139   42.8637 H   0  0  0  0  0  0  0  0  0  0  0  0
   55.4976   28.5640   44.7919 H   0  0  0  0  0  0  0  0  0  0  0  0
   57.6860   28.8172   47.2975 H   0  0  0  0  0  0  0  0  0  0  0  0
   56.9057   27.4998   46.3122 H   0  0  0  0  0  0  0  0  0  0  0  0
   58.8298   26.3985   46.2520 H   0  0  0  0  0  0  0  0  0  0  0  0
   59.5837   27.8366   45.4061 H   0  0  0  0  0  0  0  0  0  0  0  0
   59.5477   27.2325   48.3858 H   0  0  0  0  0  0  0  0  0  0  0  0
   60.9678   27.3236   47.2514 H   0  0  0  0  0  0  0  0  0  0  0  0
   61.4497   29.5635   46.1104 H   0  0  0  0  0  0  0  0  0  0  0  0
   61.7719   31.9762   46.6410 H   0  0  0  0  0  0  0  0  0  0  0  0
   58.9224   34.2015   49.3916 H   0  0  0  0  0  0  0  0  0  0  0  0
   60.1701   35.2768   48.6500 H   0  0  0  0  0  0  0  0  0  0  0  0
   57.3253   33.0238   48.0377 H   0  0  0  0  0  0  0  0  0  0  0  0
   56.1909   32.8212   45.8252 H   0  0  0  0  0  0  0  0  0  0  0  0
   57.2225   33.8383   43.7912 H   0  0  0  0  0  0  0  0  0  0  0  0
   59.3948   35.0565   43.9690 H   0  0  0  0  0  0  0  0  0  0  0  0
   60.5357   35.2635   46.1788 H   0  0  0  0  0  0  0  0  0  0  0  0
   59.1557   31.5679   50.0667 H   0  0  0  0  0  0  0  0  0  0  0  0
   58.8354   29.1567   49.5377 H   0  0  0  0  0  0  0  0  0  0  0  0
   59.5221   30.0516   45.3868 H   0  0  0  0  0  0  0  0  0  0  0  0
   59.2308   31.6078   43.4630 H   0  0  0  0  0  0  0  0  0  0  0  0
  1  2  1  0
  2  3  1  0
  3  4  2  0
  4  5  1  0
  5  6  2  0
  6  7  1  0
  7  8  1  0
  8  9  1  0
  9 10  1  0
 10 11  2  0
 11 12  1  0
 12 13  2  0
 13 14  1  0
 14 15  1  0
 15 16  1  0
 16 17  2  0
 17 18  1  0
 18 19  2  0
 19 20  1  0
 20 21  2  0
 13 22  1  0
 22 23  2  0
  6 24  1  0
 24 25  2  0
 25  3  1  0
 23 10  1  0
 21 16  1  0
  1 26  1  0
  1 27  1  0
  1 28  1  0
  4 29  1  0
  5 30  1  0
  7 31  1  0
  7 32  1  0
  8 33  1  0
  8 34  1  0
  9 35  1  0
  9 36  1  0
 11 37  1  0
 12 38  1  0
 15 39  1  0
 15 40  1  0
 17 41  1  0
 18 42  1  0
 19 43  1  0
 20 44  1  0
 21 45  1  0
 22 46  1  0
 23 47  1  0
 24 48  1  0
 25 49  1  0
M  END
>  <UniqueID>  (27) 
27

>  <SMILES>  (27) 
COc1ccc(CCCc2ccc(OCc3ccccc3)cc2)cc1

>  <Energy>  (27) 
45.512247857695115

>  <Genealogy>  (27) 
COc1ccc(CCCc2ccc(OCc3ccccc3)cc2)cc1 (3D coordinates assigned)
COc1ccc(CCCc2ccc(OCc3ccccc3)cc2)cc1 (optimized conformer: 45.512247857695115 kcal/mol)

>  <smiles>  (27) 
COc1ccc(CCCc2ccc(OCc3ccccc3)cc2)cc1

>  <score_type>  (27) 
oracle

>  <origin>  (27) 
adg

>  <m_score__min__energy>  (27) 
-7.8399999999999999

>  <m_primary>  (27) 
energy

$$$$
27:0
     RDKit          3D

 47 49  0  0  0  0  0  0  0  0999 V2000
   57.8640   32.2510   41.9780 C   0  0  0  0  0  0  0  0  0  0  0  0
   57.7590   32.1730   43.1770 C   0  0  0  0  0  0  0  0  0  0  0  0
   57.6300   32.0780   44.6490 C   0  0  2  0  0  0  0  0  0  0  0  0
   56.7000   31.0540   45.0050 O   0  0  0  0  0  0  0  0  0  0  0  0
   56.7120   29.9340   44.1360 C   0  0  0  0  0  0  0  0  0  0  0  0
   57.5430   28.8530   44.7620 C   0  0  0  0  0  0  0  0  0  0  0  0
   58.9320   28.8140   44.5540 C   0  0  0  0  0  0  0  0  0  0  0  0
   59.7100   27.8290   45.1710 C   0  0  0  0  0  0  0  0  0  0  0  0
   59.1080   26.8860   46.0100 C   0  0  0  0  0  0  0  0  0  0  0  0
   57.7290   26.9300   46.2360 C   0  0  0  0  0  0  0  0  0  0  0  0
   56.9490   27.9130   45.6210 C   0  0  0  0  0  0  0  0  0  0  0  0
   57.0530   33.4150   45.1520 C   0  0  0  0  0  0  0  0  0  0  0  0
   57.0130   33.4630   46.6900 C   0  0  0  0  0  0  0  0  0  0  0  0
   58.3420   33.2380   47.3080 N   0  0  2  0  0  0  0  0  0  0  0  0
   59.2310   34.4190   47.1440 C   0  0  0  0  0  0  0  0  0  0  0  0
   60.6710   34.0980   47.4740 C   0  0  0  0  0  0  0  0  0  0  0  0
   61.5880   33.8060   46.4510 C   0  0  0  0  0  0  0  0  0  0  0  0
   62.9150   33.4940   46.7640 C   0  0  0  0  0  0  0  0  0  0  0  0
   63.3350   33.4710   48.0970 C   0  0  0  0  0  0  0  0  0  0  0  0
   62.4280   33.7590   49.1200 C   0  0  0  0  0  0  0  0  0  0  0  0
   61.1000   34.0710   48.8120 C   0  0  0  0  0  0  0  0  0  0  0  0
   58.9460   31.9690   46.8300 C   0  0  0  0  0  0  0  0  0  0  0  0
   59.0270   31.8850   45.2950 C   0  0  0  0  0  0  0  0  0  0  0  0
   57.9598   32.3221   40.8845 H   0  0  0  0  0  0  0  0  0  0  0  0
   55.6847   29.5712   43.9845 H   0  0  0  0  0  0  0  0  0  0  0  0
   57.1362   30.2182   43.1617 H   0  0  0  0  0  0  0  0  0  0  0  0
   59.4096   29.5613   43.9032 H   0  0  0  0  0  0  0  0  0  0  0  0
   60.7955   27.7961   44.9963 H   0  0  0  0  0  0  0  0  0  0  0  0
   59.7197   26.1093   46.4923 H   0  0  0  0  0  0  0  0  0  0  0  0
   57.2573   26.1897   46.8989 H   0  0  0  0  0  0  0  0  0  0  0  0
   55.8660   27.9510   45.8101 H   0  0  0  0  0  0  0  0  0  0  0  0
   56.0309   33.5332   44.7630 H   0  0  0  0  0  0  0  0  0  0  0  0
   57.7013   34.2291   44.7958 H   0  0  0  0  0  0  0  0  0  0  0  0
   56.3230   32.6847   47.0478 H   0  0  0  0  0  0  0  0  0  0  0  0
   56.6794   34.4701   46.9808 H   0  0  0  0  0  0  0  0  0  0  0  0
   58.1670   33.1230   48.3350 H   0  0  0  0  0  0  0  0  0  0  0  0
   59.1746   34.7631   46.1007 H   0  0  0  0  0  0  0  0  0  0  0  0
   58.8898   35.1987   47.8409 H   0  0  0  0  0  0  0  0  0  0  0  0
   61.2616   33.8227   45.4007 H   0  0  0  0  0  0  0  0  0  0  0  0
   63.6297   33.2662   45.9594 H   0  0  0  0  0  0  0  0  0  0  0  0
   64.3794   33.2262   48.3406 H   0  0  0  0  0  0  0  0  0  0  0  0
   62.7589   33.7403   50.1689 H   0  0  0  0  0  0  0  0  0  0  0  0
   60.3885   34.2961   49.6201 H   0  0  0  0  0  0  0  0  0  0  0  0
   58.3356   31.1301   47.1957 H   0  0  0  0  0  0  0  0  0  0  0  0
   59.9745   31.9264   47.2177 H   0  0  0  0  0  0  0  0  0  0  0  0
   59.4212   30.8984   45.0098 H   0  0  0  0  0  0  0  0  0  0  0  0
   59.6906   32.6857   44.9365 H   0  0  0  0  0  0  0  0  0  0  0  0
  1  2  3  0
  3  2  1  6
  3  4  1  0
  4  5  1  0
  5  6  1  0
  6  7  2  0
  7  8  1  0
  8  9  2  0
  9 10  1  0
 10 11  2  0
  3 12  1  0
 12 13  1  0
 13 14  1  0
 14 15  1  0
 15 16  1  0
 16 17  2  0
 17 18  1  0
 18 19  2  0
 19 20  1  0
 20 21  2  0
 14 22  1  0
 22 23  1  0
 23  3  1  0
 11  6  1  0
 21 16  1  0
  1 24  1  0
  5 25  1  0
  5 26  1  0
  7 27  1  0
  8 28  1  0
  9 29  1  0
 10 30  1  0
 11 31  1  0
 12 32  1  0
 12 33  1  0
 13 34  1  0
 13 35  1  0
 14 36  1  1
 15 37  1  0
 15 38  1  0
 17 39  1  0
 18 40  1  0
 19 41  1  0
 20 42  1  0
 21 43  1  0
 22 44  1  0
 22 45  1  0
 23 46  1  0
 23 47  1  0
M  CHG  1  14   1
M  END
>  <UniqueID>  (28) 
28

>  <SMILES>  (28) 
C#CC1(OCc2ccccc2)CC[NH+](Cc2ccccc2)CC1

>  <Energy>  (28) 
55.48202761259852

>  <Genealogy>  (28) 
C#CC1(OCc2ccccc2)CC[NH+](Cc2ccccc2)CC1 (protonated)
C#CC1(OCc2ccccc2)CC[NH+](Cc2ccccc2)CC1 (3D coordinates assigned)
C#CC1(OCc2ccccc2)CC[NH+](Cc2ccccc2)CC1 (nonaromatic ring conformer: 55.48202761259852 kcal/mol)

>  <smiles>  (28) 
C#CC1(OCc2ccccc2)CCN(Cc2ccccc2)CC1

>  <score_type>  (28) 
oracle

>  <origin>  (28) 
adg

>  <m_score__min__energy>  (28) 
-6.9100000000000001

>  <m_primary>  (28) 
energy

$$$$
28:0
     RDKit          3D

 42 45  0  0  0  0  0  0  0  0999 V2000
   58.7240   29.4820   43.7460 F   0  0  0  0  0  0  0  0  0  0  0  0
   57.8650   28.4940   44.2000 C   0  0  0  0  0  0  0  0  0  0  0  0
   56.6350   29.0710   44.4560 F   0  0  0  0  0  0  0  0  0  0  0  0
   57.7370   27.5590   43.1900 F   0  0  0  0  0  0  0  0  0  0  0  0
   58.3930   27.8410   45.4660 C   0  0  0  0  0  0  0  0  0  0  0  0
   58.3230   26.4390   45.5900 C   0  0  0  0  0  0  0  0  0  0  0  0
   58.7540   25.7990   46.7520 C   0  0  0  0  0  0  0  0  0  0  0  0
   59.2710   26.5430   47.8090 C   0  0  0  0  0  0  0  0  0  0  0  0
   59.3800   27.9280   47.7000 C   0  0  0  0  0  0  0  0  0  0  0  0
   58.9700   28.5950   46.5300 C   0  0  0  0  0  0  0  0  0  0  0  0
   59.1710   30.0620   46.4660 C   0  0  0  0  0  0  0  0  0  0  0  0
   60.2580   30.6220   47.0600 N   0  0  0  0  0  0  0  0  0  0  0  0
   60.5020   31.9580   46.9980 C   0  0  0  0  0  0  0  0  0  0  0  0
   61.6750   32.4850   47.6340 N   0  0  0  0  0  0  0  0  0  0  0  0
   62.9930   32.1060   47.1190 C   0  0  0  0  0  0  0  0  0  0  0  0
   64.0300   33.1460   47.5550 C   0  0  0  0  0  0  0  0  0  0  0  0
   63.9820   33.3450   48.9560 O   0  0  0  0  0  0  0  0  0  0  0  0
   62.7340   33.9060   49.3200 C   0  0  0  0  0  0  0  0  0  0  0  0
   61.5910   32.9290   49.0240 C   0  0  0  0  0  0  0  0  0  0  0  0
   59.6020   32.7930   46.3090 C   0  0  0  0  0  0  0  0  0  0  0  0
   59.7560   34.1900   46.2460 C   0  0  0  0  0  0  0  0  0  0  0  0
   58.8300   34.9660   45.5420 C   0  0  0  0  0  0  0  0  0  0  0  0
   57.7430   34.3600   44.9070 C   0  0  0  0  0  0  0  0  0  0  0  0
   57.5700   32.9760   44.9770 C   0  0  0  0  0  0  0  0  0  0  0  0
   58.4910   32.1900   45.6810 C   0  0  0  0  0  0  0  0  0  0  0  0
   58.3090   30.8480   45.7680 N   0  0  0  0  0  0  0  0  0  0  0  0
   57.9226   25.8406   44.7583 H   0  0  0  0  0  0  0  0  0  0  0  0
   58.6852   24.7042   46.8334 H   0  0  0  0  0  0  0  0  0  0  0  0
   59.5937   26.0372   48.7310 H   0  0  0  0  0  0  0  0  0  0  0  0
   59.7918   28.5077   48.5392 H   0  0  0  0  0  0  0  0  0  0  0  0
   63.2728   31.1197   47.5178 H   0  0  0  0  0  0  0  0  0  0  0  0
   62.9583   32.0609   46.0205 H   0  0  0  0  0  0  0  0  0  0  0  0
   65.0338   32.7943   47.2746 H   0  0  0  0  0  0  0  0  0  0  0  0
   63.8057   34.0997   47.0548 H   0  0  0  0  0  0  0  0  0  0  0  0
   62.7421   34.1363   50.3956 H   0  0  0  0  0  0  0  0  0  0  0  0
   62.5750   34.8228   48.7333 H   0  0  0  0  0  0  0  0  0  0  0  0
   61.6707   32.0587   49.6920 H   0  0  0  0  0  0  0  0  0  0  0  0
   60.6271   33.4325   49.1897 H   0  0  0  0  0  0  0  0  0  0  0  0
   60.6058   34.6724   46.7511 H   0  0  0  0  0  0  0  0  0  0  0  0
   58.9578   36.0572   45.4880 H   0  0  0  0  0  0  0  0  0  0  0  0
   57.0210   34.9751   44.3500 H   0  0  0  0  0  0  0  0  0  0  0  0
   56.7105   32.5032   44.4793 H   0  0  0  0  0  0  0  0  0  0  0  0
  1  2  1  0
  2  3  1  0
  2  4  1  0
  2  5  1  0
  5  6  2  0
  6  7  1  0
  7  8  2  0
  8  9  1  0
  9 10  2  0
 10 11  1  0
 11 12  2  0
 12 13  1  0
 13 14  1  0
 14 15  1  0
 15 16  1  0
 16 17  1  0
 17 18  1  0
 18 19  1  0
 13 20  2  0
 20 21  1  0
 21 22  2  0
 22 23  1  0
 23 24  2  0
 24 25  1  0
 25 26  2  0
 10  5  1  0
 26 11  1  0
 19 14  1  0
 25 20  1  0
  6 27  1  0
  7 28  1  0
  8 29  1  0
  9 30  1  0
 15 31  1  0
 15 32  1  0
 16 33  1  0
 16 34  1  0
 18 35  1  0
 18 36  1  0
 19 37  1  0
 19 38  1  0
 21 39  1  0
 22 40  1  0
 23 41  1  0
 24 42  1  0
M  END
>  <UniqueID>  (29) 
29

>  <SMILES>  (29) 
FC(F)(F)c1ccccc1-c1nc(N2CCOCC2)c2ccccc2n1

>  <Energy>  (29) 
63.10230179873368

>  <Genealogy>  (29) 
FC(F)(F)c1ccccc1-c1nc(N2CCOCC2)c2ccccc2n1 (3D coordinates assigned)
FC(F)(F)c1ccccc1-c1nc(N2CCOCC2)c2ccccc2n1 (nonaromatic ring conformer: 63.10230179873368 kcal/mol)

>  <smiles>  (29) 
FC(F)(F)c1ccccc1-c1nc(N2CCOCC2)c2ccccc2n1

>  <score_type>  (29) 
oracle

>  <origin>  (29) 
adg

>  <m_score__min__energy>  (29) 
-7.0499999999999998

>  <m_primary>  (29) 
energy

$$$$
29:0
     RDKit          3D

 38 40  0  0  0  0  0  0  0  0999 V2000
   65.6100   32.2830   50.3050 C   0  0  0  0  0  0  0  0  0  0  0  0
   65.2440   33.3050   49.3840 O   0  0  0  0  0  0  0  0  0  0  0  0
   63.9570   33.4670   48.8510 C   0  0  0  0  0  0  0  0  0  0  0  0
   63.7700   33.2360   47.4840 C   0  0  0  0  0  0  0  0  0  0  0  0
   62.5070   33.3830   46.9040 C   0  0  0  0  0  0  0  0  0  0  0  0
   61.4000   33.7640   47.6860 C   0  0  0  0  0  0  0  0  0  0  0  0
   60.0590   33.9200   47.0700 C   0  0  0  0  0  0  0  0  0  0  0  0
   59.4740   33.0790   46.1350 C   0  0  0  0  0  0  0  0  0  0  0  0
   58.2460   33.6590   45.8870 C   0  0  0  0  0  0  0  0  0  0  0  0
   57.2070   33.1670   44.9210 C   0  0  0  0  0  0  0  0  0  0  0  0
   56.7710   31.7970   45.2320 N   0  0  0  0  0  0  0  0  0  0  0  0
   57.3940   30.8110   44.3360 C   0  0  0  0  0  0  0  0  0  0  0  0
   56.6270   29.4900   44.3180 C   0  0  0  0  0  0  0  0  0  0  0  0
   56.2690   29.7150   42.8550 C   0  0  0  0  0  0  0  0  0  0  0  0
   57.0240   31.0370   42.8710 C   0  0  0  0  0  0  0  0  0  0  0  0
   58.1290   34.7440   46.6150 O   0  0  0  0  0  0  0  0  0  0  0  0
   59.1970   34.9250   47.3330 N   0  0  0  0  0  0  0  0  0  0  0  0
   61.5910   33.9970   49.0590 C   0  0  0  0  0  0  0  0  0  0  0  0
   62.8550   33.8500   49.6370 C   0  0  0  0  0  0  0  0  0  0  0  0
   65.4781   32.6514   51.3330 H   0  0  0  0  0  0  0  0  0  0  0  0
   64.9718   31.4011   50.1468 H   0  0  0  0  0  0  0  0  0  0  0  0
   66.6629   32.0068   50.1468 H   0  0  0  0  0  0  0  0  0  0  0  0
   64.6248   32.9360   46.8600 H   0  0  0  0  0  0  0  0  0  0  0  0
   62.3767   33.1994   45.8273 H   0  0  0  0  0  0  0  0  0  0  0  0
   59.8917   32.1622   45.6934 H   0  0  0  0  0  0  0  0  0  0  0  0
   56.3351   33.8361   44.9659 H   0  0  0  0  0  0  0  0  0  0  0  0
   57.6529   33.1619   43.9155 H   0  0  0  0  0  0  0  0  0  0  0  0
   57.0450   31.5720   46.2180 H   0  0  0  0  0  0  0  0  0  0  0  0
   58.4441   30.8527   44.6610 H   0  0  0  0  0  0  0  0  0  0  0  0
   57.2547   28.6042   44.4953 H   0  0  0  0  0  0  0  0  0  0  0  0
   55.8384   29.2949   45.0596 H   0  0  0  0  0  0  0  0  0  0  0  0
   56.6911   28.9655   42.1694 H   0  0  0  0  0  0  0  0  0  0  0  0
   55.2195   29.6781   42.5275 H   0  0  0  0  0  0  0  0  0  0  0  0
   57.8872   31.0690   42.1900 H   0  0  0  0  0  0  0  0  0  0  0  0
   56.5240   31.9665   42.5610 H   0  0  0  0  0  0  0  0  0  0  0  0
   59.3240   35.7140   48.0020 H   0  0  0  0  0  0  0  0  0  0  0  0
   60.7376   34.2979   49.6844 H   0  0  0  0  0  0  0  0  0  0  0  0
   62.9889   34.0349   50.7130 H   0  0  0  0  0  0  0  0  0  0  0  0
  1  2  1  0
  2  3  1  0
  3  4  2  0
  4  5  1  0
  5  6  2  0
  6  7  1  0
  7  8  1  0
  8  9  2  0
  9 10  1  0
 10 11  1  0
 11 12  1  0
 12 13  1  0
 13 14  1  0
 14 15  1  0
  9 16  1  0
 16 17  1  0
  6 18  1  0
 18 19  2  0
 19  3  1  0
 17  7  2  0
 15 12  1  0
  1 20  1  0
  1 21  1  0
  1 22  1  0
  4 23  1  0
  5 24  1  0
  8 25  1  0
 10 26  1  0
 10 27  1  0
 11 28  1  0
 12 29  1  0
 13 30  1  0
 13 31  1  0
 14 32  1  0
 14 33  1  0
 15 34  1  0
 15 35  1  0
 17 36  1  0
 18 37  1  0
 19 38  1  0
M  CHG  1  17   1
M  END
>  <UniqueID>  (30) 
30

>  <SMILES>  (30) 
COc1ccc(-c2cc(CNC3CCC3)o[nH+]2)cc1

>  <Energy>  (30) 
129.87888306675265

>  <Genealogy>  (30) 
COc1ccc(-c2cc(CNC3CCC3)o[nH+]2)cc1 (protonated)
COc1ccc(-c2cc(CNC3CCC3)o[nH+]2)cc1 (3D coordinates assigned)
COc1ccc(-c2cc(CNC3CCC3)o[nH+]2)cc1 (nonaromatic ring conformer: 129.87888306675265 kcal/mol)

>  <smiles>  (30) 
COc1ccc(-c2cc(CNC3CCC3)on2)cc1

>  <score_type>  (30) 
oracle

>  <origin>  (30) 
adg

>  <m_score__min__energy>  (30) 
-5.8099999999999996

>  <m_primary>  (30) 
energy

$$$$
30:0
     RDKit          3D

 49 51  0  0  0  0  0  0  0  0999 V2000
   57.5180   29.2550   44.9560 C   0  0  0  0  0  0  0  0  0  0  0  0
   57.0800   30.4350   45.5890 O   0  0  0  0  0  0  0  0  0  0  0  0
   57.1770   31.5160   44.6860 C   0  0  0  0  0  0  0  0  0  0  0  0
   58.5000   32.2660   44.9110 C   0  0  0  0  0  0  0  0  0  0  0  0
   58.7330   32.8470   46.3400 C   0  0  2  0  0  0  0  0  0  0  0  0
   59.8110   33.9490   46.4190 C   0  0  0  0  0  0  0  0  0  0  0  0
   59.8200   34.6260   47.7900 C   0  0  0  0  0  0  0  0  0  0  0  0
   59.5040   33.6960   48.9340 C   0  0  0  0  0  0  0  0  0  0  0  0
   59.6240   34.1950   50.2420 C   0  0  0  0  0  0  0  0  0  0  0  0
   59.2040   33.4340   51.3340 C   0  0  0  0  0  0  0  0  0  0  0  0
   58.6390   32.1770   51.1330 C   0  0  0  0  0  0  0  0  0  0  0  0
   58.5090   31.6680   49.8400 C   0  0  0  0  0  0  0  0  0  0  0  0
   58.9510   32.4080   48.7230 C   0  0  0  0  0  0  0  0  0  0  0  0
   58.8860   31.8080   47.4010 N   0  0  2  0  0  0  0  0  0  0  0  0
   60.2380   30.6910   47.2170 S   0  0  0  0  0  0  0  0  0  0  0  0
   60.5090   30.4580   45.7560 O   0  0  0  0  0  0  0  0  0  0  0  0
   59.9290   29.3590   47.8370 O   0  0  0  0  0  0  0  0  0  0  0  0
   61.7310   31.3480   47.8960 C   0  0  0  0  0  0  0  0  0  0  0  0
   62.0550   31.1010   49.2360 C   0  0  0  0  0  0  0  0  0  0  0  0
   63.2290   31.6230   49.7850 C   0  0  0  0  0  0  0  0  0  0  0  0
   64.0840   32.4160   49.0120 C   0  0  0  0  0  0  0  0  0  0  0  0
   65.2540   32.9130   49.6070 O   0  0  0  0  0  0  0  0  0  0  0  0
   66.2760   32.0990   50.1710 C   0  0  0  0  0  0  0  0  0  0  0  0
   63.7430   32.6900   47.6730 C   0  0  0  0  0  0  0  0  0  0  0  0
   62.5680   32.1670   47.1250 C   0  0  0  0  0  0  0  0  0  0  0  0
   57.7941   28.5111   45.7178 H   0  0  0  0  0  0  0  0  0  0  0  0
   56.7089   28.8538   44.3280 H   0  0  0  0  0  0  0  0  0  0  0  0
   58.3929   29.4789   44.3280 H   0  0  0  0  0  0  0  0  0  0  0  0
   57.1445   31.1344   43.6548 H   0  0  0  0  0  0  0  0  0  0  0  0
   56.3361   32.2052   44.8531 H   0  0  0  0  0  0  0  0  0  0  0  0
   59.3218   31.5672   44.6956 H   0  0  0  0  0  0  0  0  0  0  0  0
   58.4583   33.1393   44.2435 H   0  0  0  0  0  0  0  0  0  0  0  0
   57.7870   33.3617   46.5637 H   0  0  0  0  0  0  0  0  0  0  0  0
   60.7975   33.4979   46.2365 H   0  0  0  0  0  0  0  0  0  0  0  0
   59.5825   34.7108   45.6591 H   0  0  0  0  0  0  0  0  0  0  0  0
   60.8192   35.0543   47.9580 H   0  0  0  0  0  0  0  0  0  0  0  0
   59.0294   35.3907   47.7731 H   0  0  0  0  0  0  0  0  0  0  0  0
   60.0528   35.1945   50.4068 H   0  0  0  0  0  0  0  0  0  0  0  0
   59.3194   33.8275   52.3547 H   0  0  0  0  0  0  0  0  0  0  0  0
   58.2950   31.5850   51.9939 H   0  0  0  0  0  0  0  0  0  0  0  0
   58.0560   30.6769   49.6898 H   0  0  0  0  0  0  0  0  0  0  0  0
   58.0150   31.2280   47.3700 H   0  0  0  0  0  0  0  0  0  0  0  0
   61.3822   30.4933   49.8590 H   0  0  0  0  0  0  0  0  0  0  0  0
   63.4831   31.4087   50.8336 H   0  0  0  0  0  0  0  0  0  0  0  0
   66.2178   32.1453   51.2685 H   0  0  0  0  0  0  0  0  0  0  0  0
   66.1405   31.0587   49.8402 H   0  0  0  0  0  0  0  0  0  0  0  0
   67.2596   32.4638   49.8402 H   0  0  0  0  0  0  0  0  0  0  0  0
   64.4034   33.3175   47.0565 H   0  0  0  0  0  0  0  0  0  0  0  0
   62.2989   32.3991   46.0840 H   0  0  0  0  0  0  0  0  0  0  0  0
  1  2  1  0
  2  3  1  0
  3  4  1  0
  4  5  1  0
  5  6  1  0
  6  7  1  0
  7  8  1  0
  8  9  2  0
  9 10  1  0
 10 11  2  0
 11 12  1  0
 12 13  2  0
 13 14  1  0
 14 15  1  0
 15 16  2  0
 15 17  2  0
 15 18  1  0
 18 19  2  0
 19 20  1  0
 20 21  2  0
 21 22  1  0
 22 23  1  0
 21 24  1  0
 24 25  2  0
 14  5  1  0
 25 18  1  0
 13  8  1  0
  1 26  1  0
  1 27  1  0
  1 28  1  0
  3 29  1  0
  3 30  1  0
  4 31  1  0
  4 32  1  0
  5 33  1  1
  6 34  1  0
  6 35  1  0
  7 36  1  0
  7 37  1  0
  9 38  1  0
 10 39  1  0
 11 40  1  0
 12 41  1  0
 14 42  1  1
 19 43  1  0
 20 44  1  0
 23 45  1  0
 23 46  1  0
 23 47  1  0
 24 48  1  0
 25 49  1  0
M  CHG  1  14   1
M  END
>  <UniqueID>  (31) 
31

>  <SMILES>  (31) 
COCC[C@@H]1CCc2ccccc2[N@@H+]1S(=O)(=O)c1ccc(OC)cc1

>  <Energy>  (31) 
64.13444813962127

>  <Genealogy>  (31) 
COCCC1CCc2ccccc2[NH+]1S(=O)(=O)c1ccc(OC)cc1 (protonated)
COCC[C@@H]1CCc2ccccc2[N@@H+]1S(=O)(=O)c1ccc(OC)cc1 (chirality)
COCC[C@@H]1CCc2ccccc2[N@@H+]1S(=O)(=O)c1ccc(OC)cc1 (3D coordinates assigned)
COCC[C@@H]1CCc2ccccc2[N@@H+]1S(=O)(=O)c1ccc(OC)cc1 (nonaromatic ring conformer: 64.13444813962127 kcal/mol)

>  <smiles>  (31) 
COCCC1CCc2ccccc2N1S(=O)(=O)c1ccc(OC)cc1

>  <score_type>  (31) 
oracle

>  <origin>  (31) 
adg

>  <m_score__min__energy>  (31) 
-6

>  <m_primary>  (31) 
energy

$$$$
31:0
     RDKit          3D

 48 51  0  0  0  0  0  0  0  0999 V2000
   57.7890   28.3260   43.7570 C   0  0  0  0  0  0  0  0  0  0  0  0
   57.1270   29.6460   43.3770 C   0  0  0  0  0  0  0  0  0  0  0  0
   56.2670   30.1460   44.4940 C   0  0  0  0  0  0  0  0  0  0  0  0
   55.2630   29.4760   44.8560 O   0  0  0  0  0  0  0  0  0  0  0  0
   56.6500   31.3310   45.2040 N   0  0  0  0  0  0  0  0  0  0  0  0
   57.9420   31.5960   45.7710 C   0  0  0  0  0  0  0  0  0  0  0  0
   58.5290   30.7150   46.6950 C   0  0  0  0  0  0  0  0  0  0  0  0
   59.7870   30.9950   47.2520 C   0  0  0  0  0  0  0  0  0  0  0  0
   60.3940   30.1190   48.1740 C   0  0  0  0  0  0  0  0  0  0  0  0
   59.7160   28.9560   48.5780 O   0  0  0  0  0  0  0  0  0  0  0  0
   59.4240   27.8560   47.7590 C   0  0  0  0  0  0  0  0  0  0  0  0
   60.4390   27.0620   47.1970 C   0  0  0  0  0  0  0  0  0  0  0  0
   60.1180   25.9860   46.3660 C   0  0  0  0  0  0  0  0  0  0  0  0
   58.7770   25.6940   46.0790 C   0  0  0  0  0  0  0  0  0  0  0  0
   58.4420   24.6150   45.2450 C   0  0  0  0  0  0  0  0  0  0  0  0
   57.1010   24.3360   44.9660 C   0  0  0  0  0  0  0  0  0  0  0  0
   56.0880   25.1300   45.5130 C   0  0  0  0  0  0  0  0  0  0  0  0
   56.4070   26.2090   46.3410 C   0  0  0  0  0  0  0  0  0  0  0  0
   57.7500   26.4990   46.6310 C   0  0  0  0  0  0  0  0  0  0  0  0
   58.0860   27.5790   47.4600 C   0  0  0  0  0  0  0  0  0  0  0  0
   61.6450   30.4550   48.7120 C   0  0  0  0  0  0  0  0  0  0  0  0
   62.2790   31.6300   48.3110 C   0  0  0  0  0  0  0  0  0  0  0  0
   61.6870   32.4610   47.4140 N   0  0  0  0  0  0  0  0  0  0  0  0
   60.4620   32.1800   46.8820 C   0  0  0  0  0  0  0  0  0  0  0  0
   59.8630   33.0690   45.9780 C   0  0  0  0  0  0  0  0  0  0  0  0
   58.5990   32.7870   45.4270 C   0  0  0  0  0  0  0  0  0  0  0  0
   57.9690   33.6620   44.5260 O   0  0  0  0  0  0  0  0  0  0  0  0
   56.9080   34.5480   44.8680 C   0  0  0  0  0  0  0  0  0  0  0  0
   57.8323   28.2396   44.8527 H   0  0  0  0  0  0  0  0  0  0  0  0
   57.2033   27.4904   43.3462 H   0  0  0  0  0  0  0  0  0  0  0  0
   58.8090   28.2957   43.3462 H   0  0  0  0  0  0  0  0  0  0  0  0
   57.9061   30.3914   43.1594 H   0  0  0  0  0  0  0  0  0  0  0  0
   56.4966   29.4835   42.4903 H   0  0  0  0  0  0  0  0  0  0  0  0
   57.9975   29.7966   46.9849 H   0  0  0  0  0  0  0  0  0  0  0  0
   61.4933   27.2896   47.4131 H   0  0  0  0  0  0  0  0  0  0  0  0
   60.9189   25.3666   45.9360 H   0  0  0  0  0  0  0  0  0  0  0  0
   59.2355   23.9889   44.8109 H   0  0  0  0  0  0  0  0  0  0  0  0
   56.8416   23.4890   44.3139 H   0  0  0  0  0  0  0  0  0  0  0  0
   55.0348   24.9038   45.2902 H   0  0  0  0  0  0  0  0  0  0  0  0
   55.6059   26.8316   46.7659 H   0  0  0  0  0  0  0  0  0  0  0  0
   57.2908   28.2135   47.8785 H   0  0  0  0  0  0  0  0  0  0  0  0
   62.1245   29.7932   49.4483 H   0  0  0  0  0  0  0  0  0  0  0  0
   63.2659   31.8862   48.7239 H   0  0  0  0  0  0  0  0  0  0  0  0
   62.1910   33.3360   47.1410 H   0  0  0  0  0  0  0  0  0  0  0  0
   60.3857   33.9952   45.6970 H   0  0  0  0  0  0  0  0  0  0  0  0
   56.8260   34.6165   45.9628 H   0  0  0  0  0  0  0  0  0  0  0  0
   57.1149   35.5454   44.4527 H   0  0  0  0  0  0  0  0  0  0  0  0
   55.9635   34.1666   44.4527 H   0  0  0  0  0  0  0  0  0  0  0  0
  1  2  1  0
  2  3  1  0
  3  4  2  0
  3  5  1  0
  5  6  1  0
  6  7  2  0
  7  8  1  0
  8  9  2  0
  9 10  1  0
 10 11  1  0
 11 12  2  0
 12 13  1  0
 13 14  2  0
 14 15  1  0
 15 16  2  0
 16 17  1  0
 17 18  2  0
 18 19  1  0
 19 20  2  0
  9 21  1  0
 21 22  2  0
 22 23  1  0
 23 24  2  0
 24 25  1  0
 25 26  2  0
 26 27  1  0
 27 28  1  0
 26  6  1  0
 24  8  1  0
 20 11  1  0
 19 14  1  0
  1 29  1  0
  1 30  1  0
  1 31  1  0
  2 32  1  0
  2 33  1  0
  7 34  1  0
 12 35  1  0
 13 36  1  0
 15 37  1  0
 16 38  1  0
 17 39  1  0
 18 40  1  0
 20 41  1  0
 21 42  1  0
 22 43  1  0
 23 44  1  0
 25 45  1  0
 28 46  1  0
 28 47  1  0
 28 48  1  0
M  CHG  2   5  -1  23   1
M  END
>  <UniqueID>  (32) 
32

>  <SMILES>  (32) 
CCC(=O)[N-]c1cc2c(Oc3ccc4ccccc4c3)cc[nH+]c2cc1OC

>  <Energy>  (32) 
64.69212874653738

>  <Genealogy>  (32) 
CCC(=O)[N-]c1cc2c(Oc3ccc4ccccc4c3)cc[nH+]c2cc1OC (protonated)
CCC(=O)[N-]c1cc2c(Oc3ccc4ccccc4c3)cc[nH+]c2cc1OC (3D coordinates assigned)
CCC(=O)[N-]c1cc2c(Oc3ccc4ccccc4c3)cc[nH+]c2cc1OC (optimized conformer: 64.69212874653738 kcal/mol)

>  <smiles>  (32) 
CCC(=O)Nc1cc2c(Oc3ccc4ccccc4c3)ccnc2cc1OC

>  <score_type>  (32) 
oracle

>  <origin>  (32) 
adg

>  <m_score__min__energy>  (32) 
-8.5999999999999996

>  <m_primary>  (32) 
energy

$$$$
32:0
     RDKit          3D

 61 65  0  0  1  0  0  0  0  0999 V2000
   56.2040   31.0050   44.4230 O   0  0  0  0  0  0  0  0  0  0  0  0
   57.0930   31.7310   44.9160 C   0  0  0  0  0  0  0  0  0  0  0  0
   56.7770   33.0590   45.5370 C   0  0  0  0  0  0  0  0  0  0  0  0
   58.0320   33.5310   46.2220 C   0  0  0  0  0  0  0  0  0  0  0  0
   58.2050   33.4590   47.5820 C   0  0  0  0  0  0  0  0  0  0  0  0
   59.4150   33.9390   48.0730 C   0  0  0  0  0  0  0  0  0  0  0  0
   60.3910   34.4620   47.2340 C   0  0  0  0  0  0  0  0  0  0  0  0
   60.1300   34.4940   45.8800 C   0  0  0  0  0  0  0  0  0  0  0  0
   58.9730   34.0360   45.3830 N   0  0  0  0  0  0  0  0  0  0  0  0
   58.4410   31.3030   44.8960 N   0  0  0  0  0  0  0  0  0  0  0  0
   58.9180   30.0730   44.3390 C   0  0  0  0  0  0  0  0  0  0  0  0
   59.2680   29.0160   45.3770 C   0  0  1  0  0  0  0  0  0  0  0  0
   60.4280   29.3420   46.0180 O   0  0  0  0  0  0  0  0  0  0  0  0
   60.1880   29.6630   47.3220 C   0  0  1  0  0  0  0  0  0  0  0  0
   61.0380   30.7300   47.8110 N   0  0  0  0  0  0  0  0  0  0  0  0
   62.0780   31.2330   47.1110 C   0  0  0  0  0  0  0  0  0  0  0  0
   62.6940   32.2360   47.8570 C   0  0  0  0  0  0  0  0  0  0  0  0
   61.9890   32.3210   49.0320 C   0  0  0  0  0  0  0  0  0  0  0  0
   62.1030   33.1120   50.1720 C   0  0  0  0  0  0  0  0  0  0  0  0
   63.0460   34.0000   50.2530 N   0  0  0  0  0  0  0  0  0  0  0  0
   64.3470   33.7270   50.8400 C   0  0  0  0  0  0  0  0  0  0  0  0
   65.2930   33.1320   49.8230 C   0  0  0  0  0  0  0  0  0  0  0  0
   65.7690   31.8230   50.4230 C   0  0  0  0  0  0  0  0  0  0  0  0
   64.5430   31.4040   51.2200 C   0  0  0  0  0  0  0  0  0  0  0  0
   64.1610   32.6830   51.9160 C   0  0  0  0  0  0  0  0  0  0  0  0
   61.2460   32.9650   51.1910 N   0  0  0  0  0  0  0  0  0  0  0  0
   60.2560   32.0570   51.1500 C   0  0  0  0  0  0  0  0  0  0  0  0
   60.1320   31.2750   50.0430 N   0  0  0  0  0  0  0  0  0  0  0  0
   60.9630   31.3750   48.9870 C   0  0  0  0  0  0  0  0  0  0  0  0
   58.7310   30.0550   47.3600 C   0  0  2  0  0  0  0  0  0  0  0  0
   58.2390   29.9260   48.6590 O   0  0  0  0  0  0  0  0  0  0  0  0
   58.1830   28.9490   46.4400 C   0  0  1  0  0  0  0  0  0  0  0  0
   56.9250   29.2140   45.9820 O   0  0  0  0  0  0  0  0  0  0  0  0
   56.4766   33.7779   44.7605 H   0  0  0  0  0  0  0  0  0  0  0  0
   55.9467   32.9713   46.2531 H   0  0  0  0  0  0  0  0  0  0  0  0
   57.4312   33.0455   48.2455 H   0  0  0  0  0  0  0  0  0  0  0  0
   59.6042   33.9034   49.1560 H   0  0  0  0  0  0  0  0  0  0  0  0
   61.3425   34.8390   47.6371 H   0  0  0  0  0  0  0  0  0  0  0  0
   60.8866   34.9036   45.1946 H   0  0  0  0  0  0  0  0  0  0  0  0
   59.1710   31.9430   45.3240 H   0  0  0  0  0  0  0  0  0  0  0  0
   58.1364   29.6656   43.6809 H   0  0  0  0  0  0  0  0  0  0  0  0
   59.8473   30.3081   43.7993 H   0  0  0  0  0  0  0  0  0  0  0  0
   59.3692   28.0553   44.8509 H   0  0  0  0  0  0  0  0  0  0  0  0
   60.4144   28.8142   47.9840 H   0  0  0  0  0  0  0  0  0  0  0  0
   62.3898   30.9027   46.1092 H   0  0  0  0  0  0  0  0  0  0  0  0
   63.5673   32.8372   47.5641 H   0  0  0  0  0  0  0  0  0  0  0  0
   64.7601   34.6714   51.2240 H   0  0  0  0  0  0  0  0  0  0  0  0
   64.7699   32.9506   48.8725 H   0  0  0  0  0  0  0  0  0  0  0  0
   66.1328   33.8081   49.6049 H   0  0  0  0  0  0  0  0  0  0  0  0
   66.0143   31.0871   49.6431 H   0  0  0  0  0  0  0  0  0  0  0  0
   66.6897   31.9065   51.0191 H   0  0  0  0  0  0  0  0  0  0  0  0
   63.7373   31.0549   50.5575 H   0  0  0  0  0  0  0  0  0  0  0  0
   64.7299   30.5666   51.9083 H   0  0  0  0  0  0  0  0  0  0  0  0
   63.1159   32.6498   52.2576 H   0  0  0  0  0  0  0  0  0  0  0  0
   64.7593   32.8800   52.8178 H   0  0  0  0  0  0  0  0  0  0  0  0
   61.3070   33.5440   52.0550 H   0  0  0  0  0  0  0  0  0  0  0  0
   59.5596   31.9480   51.9945 H   0  0  0  0  0  0  0  0  0  0  0  0
   58.4840   31.0850   47.0633 H   0  0  0  0  0  0  0  0  0  0  0  0
   59.0090   30.0050   49.2800 H   0  0  0  0  0  0  0  0  0  0  0  0
   58.0299   27.9582   46.8927 H   0  0  0  0  0  0  0  0  0  0  0  0
   56.6460   30.0930   46.3730 H   0  0  0  0  0  0  0  0  0  0  0  0
  1  2  2  0
  2  3  1  0
  3  4  1  0
  4  5  2  0
  5  6  1  0
  6  7  2  0
  7  8  1  0
  8  9  2  0
  2 10  1  0
 10 11  1  0
 11 12  1  0
 12 13  1  0
 13 14  1  0
 14 15  1  0
 15 16  1  0
 16 17  2  0
 17 18  1  0
 18 19  1  0
 19 20  2  0
 20 21  1  0
 21 22  1  0
 22 23  1  0
 23 24  1  0
 24 25  1  0
 19 26  1  0
 26 27  1  0
 27 28  2  0
 28 29  1  0
 14 30  1  0
 30 31  1  0
 30 32  1  0
 32 33  1  0
  9  4  1  0
 32 12  1  0
 29 15  1  0
 29 18  2  0
 25 21  1  0
  3 34  1  0
  3 35  1  0
  5 36  1  0
  6 37  1  0
  7 38  1  0
  8 39  1  0
 10 40  1  0
 11 41  1  0
 11 42  1  0
 12 43  1  6
 14 44  1  1
 16 45  1  0
 17 46  1  0
 21 47  1  0
 22 48  1  0
 22 49  1  0
 23 50  1  0
 23 51  1  0
 24 52  1  0
 24 53  1  0
 25 54  1  0
 25 55  1  0
 26 56  1  0
 27 57  1  0
 30 58  1  6
 31 59  1  0
 32 60  1  1
 33 61  1  0
M  END
>  <smiles>  (33) 
O=C(Cc1ccccn1)NCC1OC(n2ccc3c(=NC4CCCC4)[nH]cnc32)C(O)C1O

>  <score_type>  (33) 
oracle

>  <origin>  (33) 
adg

>  <m_score__min__energy>  (33) 
-9.1999999999999993

>  <m_primary>  (33) 
energy

$$$$
33:0
     RDKit          3D

 32 34  0  0  0  0  0  0  0  0999 V2000
   56.5530   30.8930   52.3920 C   0  0  0  0  0  0  0  0  0  0  0  0
   57.3880   30.0730   51.5810 O   0  0  0  0  0  0  0  0  0  0  0  0
   58.4280   30.5570   50.7730 C   0  0  0  0  0  0  0  0  0  0  0  0
   59.2950   29.7020   50.0660 C   0  0  0  0  0  0  0  0  0  0  0  0
   60.3150   30.2330   49.2710 C   0  0  0  0  0  0  0  0  0  0  0  0
   60.4760   31.6230   49.1570 C   0  0  0  0  0  0  0  0  0  0  0  0
   61.5300   32.1810   48.3550 N   0  0  0  0  0  0  0  0  0  0  0  0
   62.8130   32.0640   48.6620 N   0  0  0  0  0  0  0  0  0  0  0  0
   63.5560   32.5960   47.7040 N   0  0  0  0  0  0  0  0  0  0  0  0
   62.7390   33.0700   46.7470 C   0  0  0  0  0  0  0  0  0  0  0  0
   61.4460   32.8160   47.1600 C   0  0  0  0  0  0  0  0  0  0  0  0
   60.2140   33.2650   46.4730 C   0  0  0  0  0  0  0  0  0  0  0  0
   60.0940   34.5800   45.9960 C   0  0  0  0  0  0  0  0  0  0  0  0
   58.9250   34.9700   45.3370 C   0  0  0  0  0  0  0  0  0  0  0  0
   57.9170   34.0770   45.1500 N   0  0  0  0  0  0  0  0  0  0  0  0
   58.0140   32.7930   45.5870 C   0  0  0  0  0  0  0  0  0  0  0  0
   59.1660   32.3620   46.2490 C   0  0  0  0  0  0  0  0  0  0  0  0
   59.6250   32.4720   49.8790 C   0  0  0  0  0  0  0  0  0  0  0  0
   58.6060   31.9410   50.6740 C   0  0  0  0  0  0  0  0  0  0  0  0
   56.7594   30.6903   53.4533 H   0  0  0  0  0  0  0  0  0  0  0  0
   56.7565   31.9519   52.1746 H   0  0  0  0  0  0  0  0  0  0  0  0
   55.4979   30.6703   52.1746 H   0  0  0  0  0  0  0  0  0  0  0  0
   59.1692   28.6117   50.1395 H   0  0  0  0  0  0  0  0  0  0  0  0
   60.9955   29.5577   48.7316 H   0  0  0  0  0  0  0  0  0  0  0  0
   64.5990   32.6370   47.7120 H   0  0  0  0  0  0  0  0  0  0  0  0
   63.0427   33.5656   45.8131 H   0  0  0  0  0  0  0  0  0  0  0  0
   60.9145   35.2984   46.1400 H   0  0  0  0  0  0  0  0  0  0  0  0
   58.8202   36.0013   44.9689 H   0  0  0  0  0  0  0  0  0  0  0  0
   57.1832   32.0920   45.4188 H   0  0  0  0  0  0  0  0  0  0  0  0
   59.2501   31.3203   46.5923 H   0  0  0  0  0  0  0  0  0  0  0  0
   59.7604   33.5620   49.8192 H   0  0  0  0  0  0  0  0  0  0  0  0
   57.9377   32.6174   51.2270 H   0  0  0  0  0  0  0  0  0  0  0  0
  1  2  1  0
  2  3  1  0
  3  4  2  0
  4  5  1  0
  5  6  2  0
  6  7  1  0
  7  8  1  0
  8  9  2  0
  9 10  1  0
 10 11  2  0
 11 12  1  0
 12 13  2  0
 13 14  1  0
 14 15  2  0
 15 16  1  0
 16 17  2  0
  6 18  1  0
 18 19  2  0
 19  3  1  0
 11  7  1  0
 17 12  1  0
  1 20  1  0
  1 21  1  0
  1 22  1  0
  4 23  1  0
  5 24  1  0
  9 25  1  0
 10 26  1  0
 13 27  1  0
 14 28  1  0
 16 29  1  0
 17 30  1  0
 18 31  1  0
 19 32  1  0
M  CHG  1   9   1
M  END
>  <UniqueID>  (34) 
33

>  <SMILES>  (34) 
COc1ccc(-n2n[nH+]cc2-c2ccncc2)cc1

>  <Energy>  (34) 
79.29730216383155

>  <Genealogy>  (34) 
COc1ccc(-n2n[nH+]cc2-c2ccncc2)cc1 (protonated)
COc1ccc(-n2n[nH+]cc2-c2ccncc2)cc1 (3D coordinates assigned)
COc1ccc(-n2n[nH+]cc2-c2ccncc2)cc1 (optimized conformer: 79.29730216383155 kcal/mol)

>  <smiles>  (34) 
COc1ccc(-n2nncc2-c2ccncc2)cc1

>  <score_type>  (34) 
oracle

>  <origin>  (34) 
adg

>  <m_score__min__energy>  (34) 
-4.8600000000000003

>  <m_primary>  (34) 
energy

$$$$
34:0
     RDKit          3D

 25 27  0  0  0  0  0  0  0  0999 V2000
   57.3800   33.4610   44.8030 C   0  0  0  0  0  0  0  0  0  0  0  0
   58.1230   32.3400   45.4160 N   0  0  0  0  0  0  0  0  0  0  0  0
   57.6090   31.0660   45.3600 C   0  0  0  0  0  0  0  0  0  0  0  0
   56.4210   30.8040   44.7500 N   0  0  0  0  0  0  0  0  0  0  0  0
   55.9100   29.5470   44.6930 C   0  0  0  0  0  0  0  0  0  0  0  0
   54.8080   29.3480   44.1200 O   0  0  0  0  0  0  0  0  0  0  0  0
   56.5770   28.5030   45.2500 N   0  0  0  0  0  0  0  0  0  0  0  0
   57.7700   28.6620   45.8810 C   0  0  0  0  0  0  0  0  0  0  0  0
   58.3440   27.6580   46.3800 O   0  0  0  0  0  0  0  0  0  0  0  0
   58.3420   29.9380   45.9690 C   0  0  0  0  0  0  0  0  0  0  0  0
   59.5560   30.1890   46.5950 C   0  0  0  0  0  0  0  0  0  0  0  0
   60.0590   31.4900   46.6390 C   0  0  0  0  0  0  0  0  0  0  0  0
   61.2890   31.7280   47.2760 C   0  0  0  0  0  0  0  0  0  0  0  0
   61.8160   33.0160   47.3370 C   0  0  0  0  0  0  0  0  0  0  0  0
   61.1260   34.0800   46.7640 C   0  0  0  0  0  0  0  0  0  0  0  0
   59.9030   33.8650   46.1260 C   0  0  0  0  0  0  0  0  0  0  0  0
   59.3360   32.5680   46.0450 C   0  0  0  0  0  0  0  0  0  0  0  0
   56.9580   34.0976   45.5946 H   0  0  0  0  0  0  0  0  0  0  0  0
   58.0631   34.0560   44.1791 H   0  0  0  0  0  0  0  0  0  0  0  0
   56.5659   33.0636   44.1791 H   0  0  0  0  0  0  0  0  0  0  0  0
   60.1198   29.3642   47.0551 H   0  0  0  0  0  0  0  0  0  0  0  0
   61.8397   30.8909   47.7298 H   0  0  0  0  0  0  0  0  0  0  0  0
   62.7789   33.1923   47.8388 H   0  0  0  0  0  0  0  0  0  0  0  0
   61.5462   35.0953   46.8140 H   0  0  0  0  0  0  0  0  0  0  0  0
   59.3699   34.7167   45.6783 H   0  0  0  0  0  0  0  0  0  0  0  0
  1  2  1  0
  2  3  1  0
  3  4  2  0
  4  5  1  0
  5  6  2  0
  5  7  1  0
  7  8  1  0
  8  9  2  0
  8 10  1  0
 10 11  2  0
 11 12  1  0
 12 13  2  0
 13 14  1  0
 14 15  2  0
 15 16  1  0
 16 17  2  0
 17  2  1  0
 10  3  1  0
 17 12  1  0
  1 18  1  0
  1 19  1  0
  1 20  1  0
 11 21  1  0
 13 22  1  0
 14 23  1  0
 15 24  1  0
 16 25  1  0
M  CHG  1   7  -1
M  END
>  <UniqueID>  (35) 
34

>  <SMILES>  (35) 
Cn1c2nc(=O)[n-]c(=O)c-2cc2ccccc21

>  <Energy>  (35) 
41.03681526067314

>  <Genealogy>  (35) 
Cn1c2nc(=O)[n-]c(=O)c-2cc2ccccc21 (protonated)
Cn1c2nc(=O)[n-]c(=O)c-2cc2ccccc21 (3D coordinates assigned)
Cn1c2nc(=O)[n-]c(=O)c-2cc2ccccc21 (optimized conformer: 41.03681526067314 kcal/mol)

>  <smiles>  (35) 
Cn1c2nc(=O)[nH]c(=O)c-2cc2ccccc21

>  <score_type>  (35) 
oracle

>  <origin>  (35) 
adg

>  <m_score__min__energy>  (35) 
-8.1699999999999999

>  <m_primary>  (35) 
energy

$$$$
35:0
     RDKit          3D

 32 34  0  0  0  0  0  0  0  0999 V2000
   55.5190   28.6260   42.2000 H   0  0  0  0  0  0  0  0  0  0  0  0
   56.2530   29.3210   42.2460 O   0  0  0  0  0  0  0  0  0  0  0  0
   56.6510   29.8570   43.4510 N   0  0  0  0  0  0  0  0  0  0  0  0
   56.4400   29.3150   44.6190 O   0  0  0  0  0  0  0  0  0  0  0  0
   56.9150   30.0320   45.6090 N   0  0  0  0  0  0  0  0  0  0  0  0
   57.4680   31.1080   45.0140 C   0  0  0  0  0  0  0  0  0  0  0  0
   58.1050   32.1970   45.5990 C   0  0  0  0  0  0  0  0  0  0  0  0
   58.2147   32.2746   46.6908 H   0  0  0  0  0  0  0  0  0  0  0  0
   58.6080   33.2040   44.7360 C   0  0  0  0  0  0  0  0  0  0  0  0
   59.2780   34.4100   45.2710 C   0  0  0  0  0  0  0  0  0  0  0  0
   59.4953   35.2244   44.5642 H   0  0  0  0  0  0  0  0  0  0  0  0
   59.6420   34.5890   46.5520 C   0  0  0  0  0  0  0  0  0  0  0  0
   58.9862   35.2033   47.1865 H   0  0  0  0  0  0  0  0  0  0  0  0
   60.8620   34.0200   47.1740 C   0  0  0  0  0  0  0  0  0  0  0  0
   62.0250   33.8400   46.4020 C   0  0  0  0  0  0  0  0  0  0  0  0
   62.0153   34.0999   45.3332 H   0  0  0  0  0  0  0  0  0  0  0  0
   63.1900   33.3350   46.9800 C   0  0  0  0  0  0  0  0  0  0  0  0
   64.0892   33.1866   46.3640 H   0  0  0  0  0  0  0  0  0  0  0  0
   63.2160   33.0180   48.3380 C   0  0  0  0  0  0  0  0  0  0  0  0
   64.1342   32.6154   48.7905 H   0  0  0  0  0  0  0  0  0  0  0  0
   62.0780   33.2110   49.1240 C   0  0  0  0  0  0  0  0  0  0  0  0
   62.1089   32.9707   50.1970 H   0  0  0  0  0  0  0  0  0  0  0  0
   60.8930   33.7100   48.5550 C   0  0  0  0  0  0  0  0  0  0  0  0
   59.6830   33.9080   49.4280 C   0  0  0  0  0  0  0  0  0  0  0  0
   59.9819   33.8591   50.4855 H   0  0  0  0  0  0  0  0  0  0  0  0
   59.2365   34.8912   49.2183 H   0  0  0  0  0  0  0  0  0  0  0  0
   58.9464   33.1185   49.2183 H   0  0  0  0  0  0  0  0  0  0  0  0
   58.4080   33.0960   43.3340 C   0  0  0  0  0  0  0  0  0  0  0  0
   58.7683   33.8962   42.6708 H   0  0  0  0  0  0  0  0  0  0  0  0
   57.7540   31.9770   42.7820 C   0  0  0  0  0  0  0  0  0  0  0  0
   57.6050   31.8763   41.6968 H   0  0  0  0  0  0  0  0  0  0  0  0
   57.3050   31.0050   43.6700 C   0  0  0  0  0  0  0  0  0  0  0  0
  1  2  1  0
  2  3  1  0
  3  4  1  0
  4  5  1  0
  5  6  2  0
  6  7  1  0
  7  8  1  0
  7  9  2  0
  9 10  1  0
 10 11  1  0
 10 12  2  0
 12 13  1  0
 12 14  1  0
 14 15  2  0
 15 16  1  0
 15 17  1  0
 17 18  1  0
 17 19  2  0
 19 20  1  0
 19 21  1  0
 21 22  1  0
 21 23  2  0
 23 24  1  0
 24 25  1  0
 24 26  1  0
 24 27  1  0
  9 28  1  0
 28 29  1  0
 28 30  2  0
 30 31  1  0
 30 32  1  0
 32  3  2  0
 32  6  1  0
 23 14  1  0
M  CHG  1   3   1
M  END
>  <UniqueID>  (36) 
35

>  <SMILES>  (36) 
Cc1ccccc1/C=C\c1ccc2c(c1)no[n+]2O

>  <Energy>  (36) 
90.90513931510648

>  <Genealogy>  (36) 
Cc1ccccc1C=Cc1ccc2c(c1)no[n+]2O (protonated)
Cc1ccccc1/C=C\c1ccc2c(c1)no[n+]2O (cis-trans isomerization)
Cc1ccccc1/C=C\c1ccc2c(c1)no[n+]2O (3D coordinates assigned)
Cc1ccccc1/C=C\c1ccc2c(c1)no[n+]2O (optimized conformer: 90.90513931510648 kcal/mol)

>  <smiles>  (36) 
Cc1ccccc1C=Cc1ccc2c(c1)no[n+]2[O-]

>  <score_type>  (36) 
oracle

>  <origin>  (36) 
adg

>  <m_score__min__energy>  (36) 
-7.21

>  <m_primary>  (36) 
energy

$$$$
36:0
     RDKit          3D

 83 87  0  0  0  0  0  0  0  0999 V2000
   58.4273   28.7597   49.0837 H   0  0  0  0  0  0  0  0  0  0  0  0
   59.0430   29.2710   48.3290 C   0  0  0  0  0  0  0  0  0  0  0  0
   59.2100   28.7230   47.1600 N   0  0  0  0  0  0  0  0  0  0  0  0
   58.5940   27.5070   46.7090 C   0  0  0  0  0  0  0  0  0  0  0  0
   57.2490   27.5450   46.3290 C   0  0  0  0  0  0  0  0  0  0  0  0
   56.6983   28.4963   46.3705 H   0  0  0  0  0  0  0  0  0  0  0  0
   56.5970   26.3870   45.8970 C   0  0  0  0  0  0  0  0  0  0  0  0
   55.5421   26.4353   45.5891 H   0  0  0  0  0  0  0  0  0  0  0  0
   57.2820   25.1620   45.8540 C   0  0  0  0  0  0  0  0  0  0  0  0
   56.6060   23.9550   45.4390 N   0  0  0  0  0  0  0  0  0  0  0  0
   57.2910   23.1890   45.2390 H   0  0  0  0  0  0  0  0  0  0  0  0
   56.0030   23.6270   46.2290 H   0  0  0  0  0  0  0  0  0  0  0  0
   55.7530   24.1950   44.2590 C   0  0  0  0  0  0  0  0  0  0  0  0
   56.0420   25.1522   43.8006 H   0  0  0  0  0  0  0  0  0  0  0  0
   54.7058   24.2151   44.5951 H   0  0  0  0  0  0  0  0  0  0  0  0
   55.8950   23.0720   43.2030 C   0  0  0  0  0  0  0  0  0  0  0  0
   56.4997   23.4562   42.3683 H   0  0  0  0  0  0  0  0  0  0  0  0
   54.8764   22.7939   42.8944 H   0  0  0  0  0  0  0  0  0  0  0  0
   56.5400   21.8390   43.7180 N   0  0  0  0  0  0  0  0  0  0  0  0
   55.9320   21.3820   44.9880 C   0  0  0  0  0  0  0  0  0  0  0  0
   54.9698   21.8942   45.1355 H   0  0  0  0  0  0  0  0  0  0  0  0
   56.6136   21.6183   45.8184 H   0  0  0  0  0  0  0  0  0  0  0  0
   55.7000   19.8760   44.9470 C   0  0  0  0  0  0  0  0  0  0  0  0
   55.6399   19.4862   45.9739 H   0  0  0  0  0  0  0  0  0  0  0  0
   54.7586   19.6643   44.4188 H   0  0  0  0  0  0  0  0  0  0  0  0
   56.5340   19.3908   44.4188 H   0  0  0  0  0  0  0  0  0  0  0  0
   58.0170   21.9270   43.8230 C   0  0  0  0  0  0  0  0  0  0  0  0
   58.4666   21.2801   43.0552 H   0  0  0  0  0  0  0  0  0  0  0  0
   58.3054   22.9784   43.6770 H   0  0  0  0  0  0  0  0  0  0  0  0
   58.5220   21.4860   45.1970 C   0  0  0  0  0  0  0  0  0  0  0  0
   57.9411   21.9933   45.9813 H   0  0  0  0  0  0  0  0  0  0  0  0
   58.4034   20.3972   45.2991 H   0  0  0  0  0  0  0  0  0  0  0  0
   59.5849   21.7502   45.2991 H   0  0  0  0  0  0  0  0  0  0  0  0
   58.6300   25.1190   46.2490 C   0  0  0  0  0  0  0  0  0  0  0  0
   59.1764   24.1647   46.2234 H   0  0  0  0  0  0  0  0  0  0  0  0
   59.2810   26.2800   46.6740 C   0  0  0  0  0  0  0  0  0  0  0  0
   60.3358   26.2343   46.9827 H   0  0  0  0  0  0  0  0  0  0  0  0
   59.6810   30.5970   48.6650 C   0  0  1  0  0  0  0  0  0  0  0  0
   60.1537   30.4664   49.6496 H   0  0  0  0  0  0  0  0  0  0  0  0
   60.7970   30.9700   47.6820 C   0  0  0  0  0  0  0  0  0  0  0  0
   62.0830   31.5450   48.1410 C   0  0  0  0  0  0  0  0  0  0  0  0
   62.5900   31.2010   49.4040 C   0  0  0  0  0  0  0  0  0  0  0  0
   62.0186   30.5230   50.0551 H   0  0  0  0  0  0  0  0  0  0  0  0
   63.8150   31.7130   49.8410 C   0  0  0  0  0  0  0  0  0  0  0  0
   64.2047   31.4322   50.8306 H   0  0  0  0  0  0  0  0  0  0  0  0
   64.5520   32.5870   49.0190 C   0  0  0  0  0  0  0  0  0  0  0  0
   65.7950   33.1130   49.4010 O   0  0  0  0  0  0  0  0  0  0  0  0
   66.5620   32.6430   50.5030 C   0  0  0  0  0  0  0  0  0  0  0  0
   66.0747   32.9416   51.4429 H   0  0  0  0  0  0  0  0  0  0  0  0
   66.6329   31.5462   50.4591 H   0  0  0  0  0  0  0  0  0  0  0  0
   67.5715   33.0778   50.4591 H   0  0  0  0  0  0  0  0  0  0  0  0
   64.0300   32.9520   47.7730 C   0  0  0  0  0  0  0  0  0  0  0  0
   64.5915   33.6452   47.1295 H   0  0  0  0  0  0  0  0  0  0  0  0
   62.8030   32.4450   47.3380 C   0  0  0  0  0  0  0  0  0  0  0  0
   62.3988   32.7520   46.3621 H   0  0  0  0  0  0  0  0  0  0  0  0
   60.6100   30.8520   46.3960 N   0  0  0  0  0  0  0  0  0  0  0  0
   59.3480   31.0190   45.7300 C   0  0  0  0  0  0  0  0  0  0  0  0
   59.0100   30.1500   44.6860 C   0  0  0  0  0  0  0  0  0  0  0  0
   59.6744   29.3100   44.4352 H   0  0  0  0  0  0  0  0  0  0  0  0
   57.8310   30.3460   43.9610 C   0  0  0  0  0  0  0  0  0  0  0  0
   57.5743   29.6664   43.1350 H   0  0  0  0  0  0  0  0  0  0  0  0
   56.9780   31.4050   44.2850 C   0  0  0  0  0  0  0  0  0  0  0  0
   56.0591   31.5686   43.7030 H   0  0  0  0  0  0  0  0  0  0  0  0
   57.2920   32.2550   45.3470 C   0  0  0  0  0  0  0  0  0  0  0  0
   56.6104   33.0776   45.6093 H   0  0  0  0  0  0  0  0  0  0  0  0
   58.4700   32.0660   46.0800 C   0  0  0  0  0  0  0  0  0  0  0  0
   58.7540   33.0630   47.5520 S   0  0  0  0  0  0  0  0  0  0  0  0
   58.6410   31.7410   48.8300 C   0  0  2  0  0  0  0  0  0  0  0  0
   57.6695   31.2490   48.6743 H   0  0  0  0  0  0  0  0  0  0  0  0
   58.6600   32.3400   50.2260 C   0  0  0  0  0  0  0  0  0  0  0  0
   59.6650   33.2570   50.5780 C   0  0  0  0  0  0  0  0  0  0  0  0
   60.4378   33.5269   49.8432 H   0  0  0  0  0  0  0  0  0  0  0  0
   59.6920   33.8290   51.8520 C   0  0  0  0  0  0  0  0  0  0  0  0
   60.4791   34.5525   52.1107 H   0  0  0  0  0  0  0  0  0  0  0  0
   58.7200   33.4850   52.8030 C   0  0  0  0  0  0  0  0  0  0  0  0
   58.7300   34.1290   54.1580 C   0  0  0  0  0  0  0  0  0  0  0  0
   58.7179   33.3498   54.9344 H   0  0  0  0  0  0  0  0  0  0  0  0
   59.6378   34.7407   54.2665 H   0  0  0  0  0  0  0  0  0  0  0  0
   57.8417   34.7686   54.2665 H   0  0  0  0  0  0  0  0  0  0  0  0
   57.7030   32.5870   52.4530 C   0  0  0  0  0  0  0  0  0  0  0  0
   56.9229   32.3310   53.1851 H   0  0  0  0  0  0  0  0  0  0  0  0
   57.6750   32.0150   51.1780 C   0  0  0  0  0  0  0  0  0  0  0  0
   56.8767   31.3050   50.9162 H   0  0  0  0  0  0  0  0  0  0  0  0
  1  2  1  0
  2  3  2  0
  3  4  1  0
  4  5  2  0
  5  6  1  0
  5  7  1  0
  7  8  1  0
  7  9  2  0
  9 10  1  0
 10 11  1  0
 10 12  1  0
 10 13  1  0
 13 14  1  0
 13 15  1  0
 13 16  1  0
 16 17  1  0
 16 18  1  0
 16 19  1  0
 19 20  1  0
 20 21  1  0
 20 22  1  0
 20 23  1  0
 23 24  1  0
 23 25  1  0
 23 26  1  0
 19 27  1  0
 27 28  1  0
 27 29  1  0
 27 30  1  0
 30 31  1  0
 30 32  1  0
 30 33  1  0
  9 34  1  0
 34 35  1  0
 34 36  2  0
 36 37  1  0
  2 38  1  0
 38 39  1  1
 38 40  1  0
 40 41  1  0
 41 42  2  0
 42 43  1  0
 42 44  1  0
 44 45  1  0
 44 46  2  0
 46 47  1  0
 47 48  1  0
 48 49  1  0
 48 50  1  0
 48 51  1  0
 46 52  1  0
 52 53  1  0
 52 54  2  0
 54 55  1  0
 40 56  2  0
 56 57  1  0
 57 58  2  0
 58 59  1  0
 58 60  1  0
 60 61  1  0
 60 62  2  0
 62 63  1  0
 62 64  1  0
 64 65  1  0
 64 66  2  0
 66 67  1  0
 67 68  1  0
 68 69  1  6
 68 70  1  0
 70 71  2  0
 71 72  1  0
 71 73  1  0
 73 74  1  0
 73 75  2  0
 75 76  1  0
 76 77  1  0
 76 78  1  0
 76 79  1  0
 75 80  1  0
 80 81  1  0
 80 82  2  0
 82 83  1  0
 36  4  1  0
 68 38  1  0
 82 70  1  0
 54 41  1  0
 66 57  1  0
M  CHG  1  10   1
M  END
>  <UniqueID>  (37) 
36

>  <SMILES>  (37) 
CCN(CC)CC[NH2+]c1ccc(/N=C/[C@H]2C(c3ccc(OC)cc3)=Nc3ccccc3S[C@@H]2c2ccc(C)cc2)cc1

>  <Energy>  (37) 
108.07329568064607

>  <Genealogy>  (37) 
CCN(CC)CC[NH2+]c1ccc(N=CC2C(c3ccc(OC)cc3)=Nc3ccccc3SC2c2ccc(C)cc2)cc1 (protonated)
CCN(CC)CC[NH2+]c1ccc(N=C[C@H]2C(c3ccc(OC)cc3)=Nc3ccccc3S[C@@H]2c2ccc(C)cc2)cc1 (chirality)
CCN(CC)CC[NH2+]c1ccc(/N=C/[C@H]2C(c3ccc(OC)cc3)=Nc3ccccc3S[C@@H]2c2ccc(C)cc2)cc1 (cis-trans isomerization)
CCN(CC)CC[NH2+]c1ccc(/N=C/[C@H]2C(c3ccc(OC)cc3)=Nc3ccccc3S[C@@H]2c2ccc(C)cc2)cc1 (3D coordinates assigned)
CCN(CC)CC[NH2+]c1ccc(/N=C/[C@H]2C(c3ccc(OC)cc3)=Nc3ccccc3S[C@@H]2c2ccc(C)cc2)cc1 (nonaromatic ring conformer: 108.07329568064607 kcal/mol)

>  <smiles>  (37) 
CCN(CC)CCNc1ccc(N=CC2C(c3ccc(OC)cc3)=Nc3ccccc3SC2c2ccc(C)cc2)cc1

>  <score_type>  (37) 
oracle

>  <origin>  (37) 
adg

>  <m_score__min__energy>  (37) 
-5.6600000000000001

>  <m_primary>  (37) 
energy

$$$$
37:0
     RDKit          3D

 64 67  0  0  0  0  0  0  0  0999 V2000
   58.1660   23.6790   45.9690 C   0  0  0  0  0  0  0  0  0  0  0  0
   57.9990   24.8970   46.6860 O   0  0  0  0  0  0  0  0  0  0  0  0
   57.9620   26.1700   46.0950 C   0  0  0  0  0  0  0  0  0  0  0  0
   59.1350   26.8550   45.7240 C   0  0  0  0  0  0  0  0  0  0  0  0
   59.0590   28.1210   45.1420 C   0  0  0  0  0  0  0  0  0  0  0  0
   57.8150   28.7210   44.9190 C   0  0  0  0  0  0  0  0  0  0  0  0
   57.7370   30.0330   44.3260 N   0  0  0  0  0  0  0  0  0  0  0  0
   57.1470   30.1660   43.0950 C   0  0  0  0  0  0  0  0  0  0  0  0
   56.6960   29.1590   42.4830 O   0  0  0  0  0  0  0  0  0  0  0  0
   57.0300   31.4240   42.5100 C   0  0  0  0  0  0  0  0  0  0  0  0
   57.4930   32.5210   43.1600 N   0  0  0  0  0  0  0  0  0  0  0  0
   58.0860   32.4170   44.3860 C   0  0  0  0  0  0  0  0  0  0  0  0
   58.5620   33.5590   45.0610 C   0  0  0  0  0  0  0  0  0  0  0  0
   58.4430   34.6920   44.5140 O   0  0  0  0  0  0  0  0  0  0  0  0
   59.1470   33.4480   46.3000 N   0  0  0  0  0  0  0  0  0  0  0  0
   59.5830   34.6710   47.0010 C   0  0  0  0  0  0  0  0  0  0  0  0
   59.3490   32.2070   46.8620 C   0  0  0  0  0  0  0  0  0  0  0  0
   60.0740   32.0310   48.1440 C   0  0  0  0  0  0  0  0  0  0  0  0
   59.7370   32.8050   49.2640 C   0  0  0  0  0  0  0  0  0  0  0  0
   60.4310   32.6450   50.4650 C   0  0  0  0  0  0  0  0  0  0  0  0
   61.4740   31.7160   50.5680 C   0  0  0  0  0  0  0  0  0  0  0  0
   62.1300   31.5940   51.8030 O   0  0  0  0  0  0  0  0  0  0  0  0
   63.4410   32.0790   52.1000 C   0  0  0  0  0  0  0  0  0  0  0  0
   63.8820   33.1410   51.0840 C   0  0  0  0  0  0  0  0  0  0  0  0
   64.5950   32.5270   49.9420 N   0  0  0  0  0  0  0  0  0  0  0  0
   64.1690   33.1550   48.6820 C   0  0  0  0  0  0  0  0  0  0  0  0
   66.0540   32.6660   50.0910 C   0  0  0  0  0  0  0  0  0  0  0  0
   61.8280   30.9560   49.4370 C   0  0  0  0  0  0  0  0  0  0  0  0
   61.1330   31.1150   48.2350 C   0  0  0  0  0  0  0  0  0  0  0  0
   58.8780   31.0560   46.2200 C   0  0  0  0  0  0  0  0  0  0  0  0
   58.2220   31.1450   44.9810 C   0  0  0  0  0  0  0  0  0  0  0  0
   56.6430   28.0410   45.2790 C   0  0  0  0  0  0  0  0  0  0  0  0
   56.7100   26.7660   45.8720 C   0  0  0  0  0  0  0  0  0  0  0  0
   55.5580   26.0620   46.2570 O   0  0  0  0  0  0  0  0  0  0  0  0
   55.0830   24.8830   45.6130 C   0  0  0  0  0  0  0  0  0  0  0  0
   58.2800   22.8476   46.6801 H   0  0  0  0  0  0  0  0  0  0  0  0
   57.2837   23.5020   45.3363 H   0  0  0  0  0  0  0  0  0  0  0  0
   59.0634   23.7460   45.3363 H   0  0  0  0  0  0  0  0  0  0  0  0
   60.1170   26.3894   45.8940 H   0  0  0  0  0  0  0  0  0  0  0  0
   59.9809   28.6493   44.8574 H   0  0  0  0  0  0  0  0  0  0  0  0
   56.5618   31.5284   41.5201 H   0  0  0  0  0  0  0  0  0  0  0  0
   57.3810   33.4480   42.6940 H   0  0  0  0  0  0  0  0  0  0  0  0
   59.5259   34.5108   48.0878 H   0  0  0  0  0  0  0  0  0  0  0  0
   60.6201   34.9054   46.7189 H   0  0  0  0  0  0  0  0  0  0  0  0
   58.9281   35.5086   46.7189 H   0  0  0  0  0  0  0  0  0  0  0  0
   58.9225   33.5412   49.1960 H   0  0  0  0  0  0  0  0  0  0  0  0
   60.1559   33.2544   51.3385 H   0  0  0  0  0  0  0  0  0  0  0  0
   63.4400   32.5234   53.1062 H   0  0  0  0  0  0  0  0  0  0  0  0
   64.1447   31.2350   52.0500 H   0  0  0  0  0  0  0  0  0  0  0  0
   62.9932   33.6699   50.7094 H   0  0  0  0  0  0  0  0  0  0  0  0
   64.5668   33.8400   51.5865 H   0  0  0  0  0  0  0  0  0  0  0  0
   63.5641   34.0468   48.9030 H   0  0  0  0  0  0  0  0  0  0  0  0
   65.0554   33.4481   48.1004 H   0  0  0  0  0  0  0  0  0  0  0  0
   63.5689   32.4397   48.1004 H   0  0  0  0  0  0  0  0  0  0  0  0
   66.3127   32.6906   51.1599 H   0  0  0  0  0  0  0  0  0  0  0  0
   66.5545   31.8115   49.6122 H   0  0  0  0  0  0  0  0  0  0  0  0
   66.3842   33.5997   49.6122 H   0  0  0  0  0  0  0  0  0  0  0  0
   62.6553   30.2338   49.4997 H   0  0  0  0  0  0  0  0  0  0  0  0
   61.4177   30.5188   47.3555 H   0  0  0  0  0  0  0  0  0  0  0  0
   59.0229   30.0722   46.6902 H   0  0  0  0  0  0  0  0  0  0  0  0
   55.6636   28.5073   45.0967 H   0  0  0  0  0  0  0  0  0  0  0  0
   54.7856   24.1449   46.3724 H   0  0  0  0  0  0  0  0  0  0  0  0
   54.2153   25.1326   44.9847 H   0  0  0  0  0  0  0  0  0  0  0  0
   55.8814   24.4614   44.9847 H   0  0  0  0  0  0  0  0  0  0  0  0
  1  2  1  0
  2  3  1  0
  3  4  2  0
  4  5  1  0
  5  6  2  0
  6  7  1  0
  7  8  1  0
  8  9  2  0
  8 10  1  0
 10 11  2  0
 11 12  1  0
 12 13  1  0
 13 14  2  0
 13 15  1  0
 15 16  1  0
 15 17  1  0
 17 18  1  0
 18 19  2  0
 19 20  1  0
 20 21  2  0
 21 22  1  0
 22 23  1  0
 23 24  1  0
 24 25  1  0
 25 26  1  0
 25 27  1  0
 21 28  1  0
 28 29  2  0
 17 30  2  0
 30 31  1  0
  6 32  1  0
 32 33  2  0
 33 34  1  0
 34 35  1  0
 33  3  1  0
 31  7  1  0
 31 12  2  0
 29 18  1  0
  1 36  1  0
  1 37  1  0
  1 38  1  0
  4 39  1  0
  5 40  1  0
 10 41  1  0
 11 42  1  0
 16 43  1  0
 16 44  1  0
 16 45  1  0
 19 46  1  0
 20 47  1  0
 23 48  1  0
 23 49  1  0
 24 50  1  0
 24 51  1  0
 26 52  1  0
 26 53  1  0
 26 54  1  0
 27 55  1  0
 27 56  1  0
 27 57  1  0
 28 58  1  0
 29 59  1  0
 30 60  1  0
 32 61  1  0
 35 62  1  0
 35 63  1  0
 35 64  1  0
M  CHG  1  11   1
M  END
>  <UniqueID>  (38) 
37

>  <SMILES>  (38) 
COc1ccc(-n2c(=O)c[nH+]c3c(=O)n(C)c(-c4ccc(OCCN(C)C)cc4)cc32)cc1OC

>  <Energy>  (38) 
93.77064676829852

>  <Genealogy>  (38) 
COc1ccc(-n2c(=O)c[nH+]c3c(=O)n(C)c(-c4ccc(OCCN(C)C)cc4)cc32)cc1OC (protonated)
COc1ccc(-n2c(=O)c[nH+]c3c(=O)n(C)c(-c4ccc(OCCN(C)C)cc4)cc32)cc1OC (3D coordinates assigned)
COc1ccc(-n2c(=O)c[nH+]c3c(=O)n(C)c(-c4ccc(OCCN(C)C)cc4)cc32)cc1OC (optimized conformer: 93.77064676829852 kcal/mol)

>  <smiles>  (38) 
COc1ccc(-n2c(=O)cnc3c(=O)n(C)c(-c4ccc(OCCN(C)C)cc4)cc32)cc1OC

>  <score_type>  (38) 
oracle

>  <origin>  (38) 
adg

>  <m_score__min__energy>  (38) 
-7.75

>  <m_primary>  (38) 
energy

$$$$
38:0
     RDKit          3D

 55 60  0  0  0  0  0  0  0  0999 V2000
   56.3290   27.1650   54.4340 C   0  0  0  0  0  0  0  0  0  0  0  0
   57.4670   28.0210   54.4580 O   0  0  0  0  0  0  0  0  0  0  0  0
   57.8140   28.9050   53.4250 C   0  0  0  0  0  0  0  0  0  0  0  0
   59.0730   28.8750   52.7970 C   0  0  0  0  0  0  0  0  0  0  0  0
   59.3730   29.7790   51.7740 C   0  0  0  0  0  0  0  0  0  0  0  0
   58.4260   30.7330   51.3720 C   0  0  0  0  0  0  0  0  0  0  0  0
   58.7510   31.6850   50.2820 C   0  0  0  0  0  0  0  0  0  0  0  0
   58.5560   31.2810   48.9840 N   0  0  0  0  0  0  0  0  0  0  0  0
   58.7890   32.1690   47.9900 C   0  0  0  0  0  0  0  0  0  0  0  0
   59.1760   33.4490   48.2780 C   0  0  0  0  0  0  0  0  0  0  0  0
   59.3890   33.8510   49.5450 N   0  0  0  0  0  0  0  0  0  0  0  0
   59.1990   32.9780   50.5460 N   0  0  0  0  0  0  0  0  0  0  0  0
   59.5090   33.4250   51.8770 C   0  0  0  0  0  0  0  0  0  0  0  0
   60.7190   33.0480   52.4800 C   0  0  0  0  0  0  0  0  0  0  0  0
   61.0240   33.4700   53.7780 C   0  0  0  0  0  0  0  0  0  0  0  0
   60.1150   34.2610   54.4870 C   0  0  0  0  0  0  0  0  0  0  0  0
   58.8990   34.6250   53.9020 C   0  0  0  0  0  0  0  0  0  0  0  0
   58.5910   34.2030   52.6050 C   0  0  0  0  0  0  0  0  0  0  0  0
   59.2740   34.1100   47.0840 C   0  0  0  0  0  0  0  0  0  0  0  0
   59.6390   35.3580   46.6030 C   0  0  0  0  0  0  0  0  0  0  0  0
   59.5710   35.3700   45.2000 C   0  0  0  0  0  0  0  0  0  0  0  0
   59.0720   33.8400   44.6030 S   0  0  0  0  0  0  0  0  0  0  0  0
   58.9330   33.2010   46.1450 C   0  0  0  0  0  0  0  0  0  0  0  0
   58.6310   31.9810   46.6510 N   0  0  0  0  0  0  0  0  0  0  0  0
   58.2840   30.7870   45.9340 C   0  0  0  0  0  0  0  0  0  0  0  0
   58.7990   29.5450   46.3370 C   0  0  0  0  0  0  0  0  0  0  0  0
   58.4490   28.3800   45.6510 C   0  0  0  0  0  0  0  0  0  0  0  0
   57.5820   28.4430   44.5570 C   0  0  0  0  0  0  0  0  0  0  0  0
   57.0660   29.6770   44.1360 C   0  0  0  0  0  0  0  0  0  0  0  0
   56.0990   29.7420   42.9920 C   0  0  0  0  0  0  0  0  0  0  0  0
   57.4040   30.8440   44.8400 C   0  0  0  0  0  0  0  0  0  0  0  0
   57.1650   30.7500   51.9860 C   0  0  0  0  0  0  0  0  0  0  0  0
   56.8650   29.8460   53.0090 C   0  0  0  0  0  0  0  0  0  0  0  0
   56.0221   26.9341   55.4648 H   0  0  0  0  0  0  0  0  0  0  0  0
   55.5031   27.6676   53.9093 H   0  0  0  0  0  0  0  0  0  0  0  0
   56.5829   26.2321   53.9093 H   0  0  0  0  0  0  0  0  0  0  0  0
   59.8247   28.1365   53.1127 H   0  0  0  0  0  0  0  0  0  0  0  0
   60.3561   29.7423   51.2818 H   0  0  0  0  0  0  0  0  0  0  0  0
   58.1920   30.3260   48.7720 H   0  0  0  0  0  0  0  0  0  0  0  0
   61.4315   32.4170   51.9285 H   0  0  0  0  0  0  0  0  0  0  0  0
   61.9787   33.1797   54.2409 H   0  0  0  0  0  0  0  0  0  0  0  0
   60.3570   34.5971   55.5060 H   0  0  0  0  0  0  0  0  0  0  0  0
   58.1833   35.2443   54.4626 H   0  0  0  0  0  0  0  0  0  0  0  0
   57.6275   34.4804   52.1526 H   0  0  0  0  0  0  0  0  0  0  0  0
   59.9377   36.2126   47.2278 H   0  0  0  0  0  0  0  0  0  0  0  0
   59.8055   36.2408   44.5701 H   0  0  0  0  0  0  0  0  0  0  0  0
   59.4818   29.4890   47.1976 H   0  0  0  0  0  0  0  0  0  0  0  0
   58.8569   27.4104   45.9727 H   0  0  0  0  0  0  0  0  0  0  0  0
   57.3034   27.5217   44.0244 H   0  0  0  0  0  0  0  0  0  0  0  0
   55.0730   29.8110   43.3826 H   0  0  0  0  0  0  0  0  0  0  0  0
   56.3175   30.6275   42.3770 H   0  0  0  0  0  0  0  0  0  0  0  0
   56.1970   28.8352   42.3770 H   0  0  0  0  0  0  0  0  0  0  0  0
   56.9767   31.8100   44.5328 H   0  0  0  0  0  0  0  0  0  0  0  0
   56.4080   31.4788   51.6607 H   0  0  0  0  0  0  0  0  0  0  0  0
   55.8764   29.8743   53.4904 H   0  0  0  0  0  0  0  0  0  0  0  0
  1  2  1  0
  2  3  1  0
  3  4  2  0
  4  5  1  0
  5  6  2  0
  6  7  1  0
  7  8  2  0
  8  9  1  0
  9 10  2  0
 10 11  1  0
 11 12  2  0
 12 13  1  0
 13 14  2  0
 14 15  1  0
 15 16  2  0
 16 17  1  0
 17 18  2  0
 10 19  1  0
 19 20  1  0
 20 21  2  0
 21 22  1  0
 22 23  1  0
 23 24  1  0
 24 25  1  0
 25 26  2  0
 26 27  1  0
 27 28  2  0
 28 29  1  0
 29 30  1  0
 29 31  2  0
  6 32  1  0
 32 33  2  0
 33  3  1  0
 12  7  1  0
 18 13  1  0
 23 19  2  0
 31 25  1  0
 24  9  1  0
  1 34  1  0
  1 35  1  0
  1 36  1  0
  4 37  1  0
  5 38  1  0
  8 39  1  0
 14 40  1  0
 15 41  1  0
 16 42  1  0
 17 43  1  0
 18 44  1  0
 20 45  1  0
 21 46  1  0
 26 47  1  0
 27 48  1  0
 28 49  1  0
 30 50  1  0
 30 51  1  0
 30 52  1  0
 31 53  1  0
 32 54  1  0
 33 55  1  0
M  CHG  2   8   1  12   1
M  END
>  <UniqueID>  (39) 
38

>  <SMILES>  (39) 
COc1ccc(-c2[nH+]c3c(n[n+]2-c2ccccc2)c2ccsc2n3-c2cccc(C)c2)cc1

>  <Energy>  (39) 
167.7945387361898

>  <Genealogy>  (39) 
COc1ccc(-c2[nH+]c3c(n[n+]2-c2ccccc2)c2ccsc2n3-c2cccc(C)c2)cc1 (protonated)
COc1ccc(-c2[nH+]c3c(n[n+]2-c2ccccc2)c2ccsc2n3-c2cccc(C)c2)cc1 (3D coordinates assigned)
COc1ccc(-c2[nH+]c3c(n[n+]2-c2ccccc2)c2ccsc2n3-c2cccc(C)c2)cc1 (optimized conformer: 167.7945387361898 kcal/mol)

>  <smiles>  (39) 
COc1ccc(-c2nc3c(n[n+]2-c2ccccc2)c2ccsc2n3-c2cccc(C)c2)cc1

>  <score_type>  (39) 
oracle

>  <origin>  (39) 
adg

>  <m_score__min__energy>  (39) 
-5.9000000000000004

>  <m_primary>  (39) 
energy

$$$$
39:0
     RDKit          3D

 43 45  0  0  0  0  0  0  0  0999 V2000
   60.5370   34.3960   48.9440 C   0  0  0  0  0  0  0  0  0  0  0  0
   59.5260   34.9200   48.0890 O   0  0  0  0  0  0  0  0  0  0  0  0
   59.0880   34.3040   46.9060 C   0  0  0  0  0  0  0  0  0  0  0  0
   59.3450   34.8570   45.6360 C   0  0  0  0  0  0  0  0  0  0  0  0
   58.8950   34.2150   44.4820 C   0  0  0  0  0  0  0  0  0  0  0  0
   58.1740   33.0170   44.5730 C   0  0  0  0  0  0  0  0  0  0  0  0
   57.7330   32.3110   43.3210 C   0  0  0  0  0  0  0  0  0  0  0  0
   57.7750   30.8660   43.5230 N   0  0  0  0  0  0  0  0  0  0  0  0
   56.7830   30.1720   44.2940 C   0  0  0  0  0  0  0  0  0  0  0  0
   55.6660   30.7140   44.5140 O   0  0  0  0  0  0  0  0  0  0  0  0
   57.0240   28.8120   44.8020 C   0  0  0  0  0  0  0  0  0  0  0  0
   56.0520   28.0440   45.2630 O   0  0  0  0  0  0  0  0  0  0  0  0
   56.5820   26.9030   45.6310 C   0  0  0  0  0  0  0  0  0  0  0  0
   55.9260   25.7980   46.1700 C   0  0  0  0  0  0  0  0  0  0  0  0
   56.7000   24.6690   46.4960 C   0  0  0  0  0  0  0  0  0  0  0  0
   58.0960   24.6720   46.2810 C   0  0  0  0  0  0  0  0  0  0  0  0
   58.7310   25.8030   45.7370 C   0  0  0  0  0  0  0  0  0  0  0  0
   57.9370   26.9070   45.4220 C   0  0  0  0  0  0  0  0  0  0  0  0
   58.2510   28.1440   44.8980 C   0  0  0  0  0  0  0  0  0  0  0  0
   59.6180   28.6470   44.5420 C   0  0  0  0  0  0  0  0  0  0  0  0
   57.9230   32.4580   45.8340 C   0  0  0  0  0  0  0  0  0  0  0  0
   58.3760   33.0980   47.0050 C   0  0  0  0  0  0  0  0  0  0  0  0
   58.1400   32.5670   48.2830 O   0  0  0  0  0  0  0  0  0  0  0  0
   58.8750   31.4910   48.8580 C   0  0  0  0  0  0  0  0  0  0  0  0
   60.2445   34.5476   49.9935 H   0  0  0  0  0  0  0  0  0  0  0  0
   60.6605   33.3204   48.7495 H   0  0  0  0  0  0  0  0  0  0  0  0
   61.4870   34.9152   48.7495 H   0  0  0  0  0  0  0  0  0  0  0  0
   59.9039   35.8008   45.5538 H   0  0  0  0  0  0  0  0  0  0  0  0
   59.1074   34.6518   43.4950 H   0  0  0  0  0  0  0  0  0  0  0  0
   56.7050   32.6148   43.0741 H   0  0  0  0  0  0  0  0  0  0  0  0
   58.4093   32.5807   42.4965 H   0  0  0  0  0  0  0  0  0  0  0  0
   58.5430   30.3240   43.0700 H   0  0  0  0  0  0  0  0  0  0  0  0
   54.8385   25.8080   46.3352 H   0  0  0  0  0  0  0  0  0  0  0  0
   56.2146   23.7781   46.9211 H   0  0  0  0  0  0  0  0  0  0  0  0
   58.6906   23.7838   46.5408 H   0  0  0  0  0  0  0  0  0  0  0  0
   59.8174   25.8171   45.5654 H   0  0  0  0  0  0  0  0  0  0  0  0
   60.1833   28.8550   45.4624 H   0  0  0  0  0  0  0  0  0  0  0  0
   60.1469   27.8846   43.9512 H   0  0  0  0  0  0  0  0  0  0  0  0
   59.5266   29.5704   43.9512 H   0  0  0  0  0  0  0  0  0  0  0  0
   57.3676   31.5116   45.9100 H   0  0  0  0  0  0  0  0  0  0  0  0
   58.8281   31.5597   49.9548 H   0  0  0  0  0  0  0  0  0  0  0  0
   58.4407   30.5345   48.5316 H   0  0  0  0  0  0  0  0  0  0  0  0
   59.9239   31.5477   48.5316 H   0  0  0  0  0  0  0  0  0  0  0  0
  1  2  1  0
  2  3  1  0
  3  4  2  0
  4  5  1  0
  5  6  2  0
  6  7  1  0
  7  8  1  0
  8  9  1  0
  9 10  2  0
  9 11  1  0
 11 12  1  0
 12 13  1  0
 13 14  2  0
 14 15  1  0
 15 16  2  0
 16 17  1  0
 17 18  2  0
 18 19  1  0
 19 20  1  0
  6 21  1  0
 21 22  2  0
 22 23  1  0
 23 24  1  0
 22  3  1  0
 19 11  2  0
 18 13  1  0
  1 25  1  0
  1 26  1  0
  1 27  1  0
  4 28  1  0
  5 29  1  0
  7 30  1  0
  7 31  1  0
  8 32  1  0
 14 33  1  0
 15 34  1  0
 16 35  1  0
 17 36  1  0
 20 37  1  0
 20 38  1  0
 20 39  1  0
 21 40  1  0
 24 41  1  0
 24 42  1  0
 24 43  1  0
M  END
>  <UniqueID>  (40) 
39

>  <SMILES>  (40) 
COc1ccc(CNC(=O)c2oc3ccccc3c2C)cc1OC

>  <Energy>  (40) 
76.66061156266682

>  <Genealogy>  (40) 
COc1ccc(CNC(=O)c2oc3ccccc3c2C)cc1OC (3D coordinates assigned)
COc1ccc(CNC(=O)c2oc3ccccc3c2C)cc1OC (optimized conformer: 76.66061156266682 kcal/mol)

>  <smiles>  (40) 
COc1ccc(CNC(=O)c2oc3ccccc3c2C)cc1OC

>  <score_type>  (40) 
oracle

>  <origin>  (40) 
adg

>  <m_score__min__energy>  (40) 
-8.2100000000000009

>  <m_primary>  (40) 
energy

$$$$
40:0
     RDKit          3D

 45 46  0  0  0  0  0  0  0  0999 V2000
   58.4191   26.1594   46.8474 H   0  0  0  0  0  0  0  0  0  0  0  0
   58.4200   26.9890   46.1250 C   0  0  0  0  0  0  0  0  0  0  0  0
   57.6970   26.8550   45.0050 C   0  0  0  0  0  0  0  0  0  0  0  0
   56.7613   26.2775   45.0359 H   0  0  0  0  0  0  0  0  0  0  0  0
   58.1340   27.4750   43.7070 C   0  0  0  0  0  0  0  0  0  0  0  0
   57.5362   27.0434   42.8907 H   0  0  0  0  0  0  0  0  0  0  0  0
   59.2056   27.2626   43.5786 H   0  0  0  0  0  0  0  0  0  0  0  0
   57.9620   28.9420   43.6960 N   0  0  0  0  0  0  0  0  0  0  0  0
   58.6830   29.3360   43.0480 H   0  0  0  0  0  0  0  0  0  0  0  0
   58.1500   29.3550   44.6400 H   0  0  0  0  0  0  0  0  0  0  0  0
   56.6440   29.3810   43.1970 C   0  0  0  0  0  0  0  0  0  0  0  0
   55.9802   28.5056   43.1420 H   0  0  0  0  0  0  0  0  0  0  0  0
   56.8009   29.8387   42.2091 H   0  0  0  0  0  0  0  0  0  0  0  0
   55.9870   30.4380   44.0950 C   0  0  0  0  0  0  0  0  0  0  0  0
   55.0792   30.0189   44.5536 H   0  0  0  0  0  0  0  0  0  0  0  0
   55.7159   31.3182   43.4936 H   0  0  0  0  0  0  0  0  0  0  0  0
   56.8960   30.8150   45.1060 O   0  0  0  0  0  0  0  0  0  0  0  0
   57.6220   31.9670   44.7180 C   0  0  0  0  0  0  0  0  0  0  0  0
   57.0809   32.4819   43.9105 H   0  0  0  0  0  0  0  0  0  0  0  0
   58.6188   31.6604   44.3683 H   0  0  0  0  0  0  0  0  0  0  0  0
   57.7820   32.9160   45.9010 C   0  0  0  0  0  0  0  0  0  0  0  0
   57.6867   32.3509   46.8399 H   0  0  0  0  0  0  0  0  0  0  0  0
   58.7730   33.3915   45.8582 H   0  0  0  0  0  0  0  0  0  0  0  0
   57.0017   33.6901   45.8582 H   0  0  0  0  0  0  0  0  0  0  0  0
   59.2210   28.1950   46.4430 C   0  0  0  0  0  0  0  0  0  0  0  0
   58.8790   28.9510   47.5740 C   0  0  0  0  0  0  0  0  0  0  0  0
   58.0224   28.6479   48.1940 H   0  0  0  0  0  0  0  0  0  0  0  0
   59.6180   30.0870   47.9200 C   0  0  0  0  0  0  0  0  0  0  0  0
   59.3320   30.6753   48.8044 H   0  0  0  0  0  0  0  0  0  0  0  0
   60.7230   30.4830   47.1470 C   0  0  0  0  0  0  0  0  0  0  0  0
   61.5090   31.6890   47.5150 C   0  0  0  0  0  0  0  0  0  0  0  0
   60.8600   32.8760   47.9030 C   0  0  0  0  0  0  0  0  0  0  0  0
   59.7610   32.9134   47.9329 H   0  0  0  0  0  0  0  0  0  0  0  0
   61.6040   34.0090   48.2510 C   0  0  0  0  0  0  0  0  0  0  0  0
   61.0888   34.9319   48.5558 H   0  0  0  0  0  0  0  0  0  0  0  0
   62.9990   33.9700   48.2120 C   0  0  0  0  0  0  0  0  0  0  0  0
   63.5819   34.8623   48.4840 H   0  0  0  0  0  0  0  0  0  0  0  0
   63.6540   32.7990   47.8280 C   0  0  0  0  0  0  0  0  0  0  0  0
   64.7532   32.7700   47.7973 H   0  0  0  0  0  0  0  0  0  0  0  0
   62.9160   31.6620   47.4820 C   0  0  0  0  0  0  0  0  0  0  0  0
   63.4383   30.7414   47.1824 H   0  0  0  0  0  0  0  0  0  0  0  0
   61.0760   29.7150   46.0240 C   0  0  0  0  0  0  0  0  0  0  0  0
   61.9413   30.0097   45.4121 H   0  0  0  0  0  0  0  0  0  0  0  0
   60.3370   28.5800   45.6780 C   0  0  0  0  0  0  0  0  0  0  0  0
   60.6302   27.9837   44.8014 H   0  0  0  0  0  0  0  0  0  0  0  0
  1  2  1  0
  2  3  2  0
  3  4  1  0
  3  5  1  0
  5  6  1  0
  5  7  1  0
  5  8  1  0
  8  9  1  0
  8 10  1  0
  8 11  1  0
 11 12  1  0
 11 13  1  0
 11 14  1  0
 14 15  1  0
 14 16  1  0
 14 17  1  0
 17 18  1  0
 18 19  1  0
 18 20  1  0
 18 21  1  0
 21 22  1  0
 21 23  1  0
 21 24  1  0
  2 25  1  0
 25 26  2  0
 26 27  1  0
 26 28  1  0
 28 29  1  0
 28 30  2  0
 30 31  1  0
 31 32  2  0
 32 33  1  0
 32 34  1  0
 34 35  1  0
 34 36  2  0
 36 37  1  0
 36 38  1  0
 38 39  1  0
 38 40  2  0
 40 41  1  0
 30 42  1  0
 42 43  1  0
 42 44  2  0
 44 45  1  0
 44 25  1  0
 40 31  1  0
M  CHG  1   8   1
M  END
>  <UniqueID>  (41) 
40

>  <SMILES>  (41) 
CCOCC[NH2+]C/C=C/c1ccc(-c2ccccc2)cc1

>  <Energy>  (41) 
49.67809758682524

>  <Genealogy>  (41) 
CCOCC[NH2+]CC=Cc1ccc(-c2ccccc2)cc1 (protonated)
CCOCC[NH2+]C/C=C/c1ccc(-c2ccccc2)cc1 (cis-trans isomerization)
CCOCC[NH2+]C/C=C/c1ccc(-c2ccccc2)cc1 (3D coordinates assigned)
CCOCC[NH2+]C/C=C/c1ccc(-c2ccccc2)cc1 (optimized conformer: 49.67809758682524 kcal/mol)

>  <smiles>  (41) 
CCOCCNCC=Cc1ccc(-c2ccccc2)cc1

>  <score_type>  (41) 
oracle

>  <origin>  (41) 
adg

>  <m_score__min__energy>  (41) 
-6.0599999999999996

>  <m_primary>  (41) 
energy

$$$$
41:0
     RDKit          3D

 38 40  0  0  0  0  0  0  0  0999 V2000
   59.4460   24.6020   45.9540 C   0  0  0  0  0  0  0  0  0  0  0  0
   60.1370   25.5930   46.7070 O   0  0  0  0  0  0  0  0  0  0  0  0
   59.8940   26.9710   46.6150 C   0  0  0  0  0  0  0  0  0  0  0  0
   59.2400   27.6920   47.6340 C   0  0  0  0  0  0  0  0  0  0  0  0
   59.0190   29.0650   47.4950 C   0  0  0  0  0  0  0  0  0  0  0  0
   59.4350   29.7380   46.3340 C   0  0  0  0  0  0  0  0  0  0  0  0
   59.2190   31.1510   46.1880 N   0  0  0  0  0  0  0  0  0  0  0  0
   59.8450   32.0670   46.9130 N   0  0  0  0  0  0  0  0  0  0  0  0
   59.3610   33.2870   46.5950 C   0  0  0  0  0  0  0  0  0  0  0  0
   59.8450   34.5740   47.1950 C   0  0  0  0  0  0  0  0  0  0  0  0
   61.1370   34.4160   47.6620 F   0  0  0  0  0  0  0  0  0  0  0  0
   59.0200   34.9330   48.2440 F   0  0  0  0  0  0  0  0  0  0  0  0
   59.8350   35.5830   46.2490 F   0  0  0  0  0  0  0  0  0  0  0  0
   58.4030   33.1430   45.6000 C   0  0  0  0  0  0  0  0  0  0  0  0
   57.6200   34.2230   44.9190 C   0  0  0  0  0  0  0  0  0  0  0  0
   58.3280   31.7750   45.3830 C   0  0  0  0  0  0  0  0  0  0  0  0
   57.5250   31.1240   44.3860 N   0  0  0  0  0  0  0  0  0  0  0  0
   57.5430   31.3710   43.0620 C   0  0  0  0  0  0  0  0  0  0  0  0
   56.6450   30.5410   42.4220 C   0  0  0  0  0  0  0  0  0  0  0  0
   56.0650   29.7570   43.4000 C   0  0  0  0  0  0  0  0  0  0  0  0
   56.6310   30.1390   44.5990 C   0  0  0  0  0  0  0  0  0  0  0  0
   60.1000   29.0220   45.3280 C   0  0  0  0  0  0  0  0  0  0  0  0
   60.3220   27.6480   45.4680 C   0  0  0  0  0  0  0  0  0  0  0  0
   58.9543   23.8968   46.6402 H   0  0  0  0  0  0  0  0  0  0  0  0
   58.6882   25.0854   45.3200 H   0  0  0  0  0  0  0  0  0  0  0  0
   60.1616   24.0580   45.3200 H   0  0  0  0  0  0  0  0  0  0  0  0
   58.9021   27.1720   48.5425 H   0  0  0  0  0  0  0  0  0  0  0  0
   58.5164   29.6220   48.2994 H   0  0  0  0  0  0  0  0  0  0  0  0
   60.5740   31.8600   47.6330 H   0  0  0  0  0  0  0  0  0  0  0  0
   57.1515   34.8692   45.6760 H   0  0  0  0  0  0  0  0  0  0  0  0
   58.2938   34.8237   44.2904 H   0  0  0  0  0  0  0  0  0  0  0  0
   56.8396   33.7693   44.2904 H   0  0  0  0  0  0  0  0  0  0  0  0
   58.1772   32.1205   42.5660 H   0  0  0  0  0  0  0  0  0  0  0  0
   56.4326   30.5100   41.3431 H   0  0  0  0  0  0  0  0  0  0  0  0
   55.3009   28.9797   43.2520 H   0  0  0  0  0  0  0  0  0  0  0  0
   56.3889   29.7049   45.5803 H   0  0  0  0  0  0  0  0  0  0  0  0
   60.4487   29.5435   44.4244 H   0  0  0  0  0  0  0  0  0  0  0  0
   60.8377   27.0949   44.6691 H   0  0  0  0  0  0  0  0  0  0  0  0
  1  2  1  0
  2  3  1  0
  3  4  2  0
  4  5  1  0
  5  6  2  0
  6  7  1  0
  7  8  1  0
  8  9  2  0
  9 10  1  0
 10 11  1  0
 10 12  1  0
 10 13  1  0
  9 14  1  0
 14 15  1  0
 14 16  2  0
 16 17  1  0
 17 18  1  0
 18 19  2  0
 19 20  1  0
 20 21  2  0
  6 22  1  0
 22 23  2  0
 23  3  1  0
 16  7  1  0
 21 17  1  0
  1 24  1  0
  1 25  1  0
  1 26  1  0
  4 27  1  0
  5 28  1  0
  8 29  1  0
 15 30  1  0
 15 31  1  0
 15 32  1  0
 18 33  1  0
 19 34  1  0
 20 35  1  0
 21 36  1  0
 22 37  1  0
 23 38  1  0
M  CHG  1   8   1
M  END
>  <UniqueID>  (42) 
41

>  <SMILES>  (42) 
COc1ccc(-n2[nH+]c(C(F)(F)F)c(C)c2-n2cccc2)cc1

>  <Energy>  (42) 
103.86231199753043

>  <Genealogy>  (42) 
COc1ccc(-n2[nH+]c(C(F)(F)F)c(C)c2-n2cccc2)cc1 (protonated)
COc1ccc(-n2[nH+]c(C(F)(F)F)c(C)c2-n2cccc2)cc1 (3D coordinates assigned)
COc1ccc(-n2[nH+]c(C(F)(F)F)c(C)c2-n2cccc2)cc1 (optimized conformer: 103.86231199753043 kcal/mol)

>  <smiles>  (42) 
COc1ccc(-n2nc(C(F)(F)F)c(C)c2-n2cccc2)cc1

>  <score_type>  (42) 
oracle

>  <origin>  (42) 
adg

>  <m_score__min__energy>  (42) 
-4.5899999999999999

>  <m_primary>  (42) 
energy

$$$$
42:0
     RDKit          3D

 67 69  0  0  0  0  0  0  0  0999 V2000
   55.9860   22.4760   48.6290 C   0  0  0  0  0  0  0  0  0  0  0  0
   56.9600   23.5840   48.2670 C   0  0  0  0  0  0  0  0  0  0  0  0
   56.3710   24.4300   47.2810 O   0  0  0  0  0  0  0  0  0  0  0  0
   56.9550   25.6090   46.7920 C   0  0  0  0  0  0  0  0  0  0  0  0
   58.3200   25.8940   46.9660 C   0  0  0  0  0  0  0  0  0  0  0  0
   58.8630   27.0920   46.4870 C   0  0  0  0  0  0  0  0  0  0  0  0
   60.3160   27.4210   46.7170 C   0  0  0  0  0  0  0  0  0  0  0  0
   60.4430   28.6300   47.5560 N   0  0  0  0  0  0  0  0  0  0  0  0
   60.4430   29.8790   46.7480 C   0  0  0  0  0  0  0  0  0  0  0  0
   59.0790   30.5880   46.7600 C   0  0  0  0  0  0  0  0  0  0  0  0
   58.6330   30.9120   48.1360 N   0  0  0  0  0  0  0  0  0  0  0  0
   58.6620   32.3540   48.4750 C   0  0  0  0  0  0  0  0  0  0  0  0
   58.7550   33.2720   47.2650 C   0  0  0  0  0  0  0  0  0  0  0  0
   57.6690   33.3650   46.3760 C   0  0  0  0  0  0  0  0  0  0  0  0
   57.7390   34.1910   45.2520 C   0  0  0  0  0  0  0  0  0  0  0  0
   58.8860   34.9450   45.0100 C   0  0  0  0  0  0  0  0  0  0  0  0
   59.9630   34.8860   45.8950 C   0  0  0  0  0  0  0  0  0  0  0  0
   59.9080   34.0580   47.0350 C   0  0  0  0  0  0  0  0  0  0  0  0
   60.9730   33.9960   47.9500 O   0  0  0  0  0  0  0  0  0  0  0  0
   62.2520   33.4360   47.6690 C   0  0  0  0  0  0  0  0  0  0  0  0
   59.1970   30.0350   49.1860 C   0  0  0  0  0  0  0  0  0  0  0  0
   59.4310   28.6230   48.6400 C   0  0  0  0  0  0  0  0  0  0  0  0
   58.0410   28.0030   45.8120 C   0  0  0  0  0  0  0  0  0  0  0  0
   56.6760   27.7240   45.6060 C   0  0  0  0  0  0  0  0  0  0  0  0
   55.8440   28.5880   44.8760 O   0  0  0  0  0  0  0  0  0  0  0  0
   56.2360   29.3900   43.7600 C   0  0  0  0  0  0  0  0  0  0  0  0
   56.6850   30.7730   44.2200 C   0  0  0  0  0  0  0  0  0  0  0  0
   56.1320   26.5320   46.1280 C   0  0  0  0  0  0  0  0  0  0  0  0
   54.7730   26.2140   45.9830 O   0  0  0  0  0  0  0  0  0  0  0  0
   54.2800   24.9260   45.6090 C   0  0  0  0  0  0  0  0  0  0  0  0
   55.2210   24.2550   44.6140 C   0  0  0  0  0  0  0  0  0  0  0  0
   55.9141   22.3942   49.7236 H   0  0  0  0  0  0  0  0  0  0  0  0
   54.9947   22.7087   48.2128 H   0  0  0  0  0  0  0  0  0  0  0  0
   56.3439   21.5227   48.2128 H   0  0  0  0  0  0  0  0  0  0  0  0
   57.1939   24.1748   49.1649 H   0  0  0  0  0  0  0  0  0  0  0  0
   57.8853   23.1434   47.8674 H   0  0  0  0  0  0  0  0  0  0  0  0
   58.9670   25.1699   47.4828 H   0  0  0  0  0  0  0  0  0  0  0  0
   60.8034   26.5751   47.2238 H   0  0  0  0  0  0  0  0  0  0  0  0
   60.7978   27.6080   45.7460 H   0  0  0  0  0  0  0  0  0  0  0  0
   61.2002   30.5639   47.1573 H   0  0  0  0  0  0  0  0  0  0  0  0
   60.6673   29.6036   45.7069 H   0  0  0  0  0  0  0  0  0  0  0  0
   59.1590   31.5215   46.1837 H   0  0  0  0  0  0  0  0  0  0  0  0
   58.3386   29.9073   46.3146 H   0  0  0  0  0  0  0  0  0  0  0  0
   57.7413   32.5987   49.0250 H   0  0  0  0  0  0  0  0  0  0  0  0
   59.5698   32.5224   49.0730 H   0  0  0  0  0  0  0  0  0  0  0  0
   56.7562   32.7818   46.5678 H   0  0  0  0  0  0  0  0  0  0  0  0
   56.8881   34.2466   44.5571 H   0  0  0  0  0  0  0  0  0  0  0  0
   58.9422   35.5880   44.1193 H   0  0  0  0  0  0  0  0  0  0  0  0
   60.8618   35.4900   45.7019 H   0  0  0  0  0  0  0  0  0  0  0  0
   62.7687   33.2098   48.6134 H   0  0  0  0  0  0  0  0  0  0  0  0
   62.1273   32.5101   47.0883 H   0  0  0  0  0  0  0  0  0  0  0  0
   62.8478   34.1556   47.0883 H   0  0  0  0  0  0  0  0  0  0  0  0
   60.1545   30.4529   49.5303 H   0  0  0  0  0  0  0  0  0  0  0  0
   58.4842   29.9786   50.0219 H   0  0  0  0  0  0  0  0  0  0  0  0
   59.7839   27.9761   49.4567 H   0  0  0  0  0  0  0  0  0  0  0  0
   58.4826   28.2457   48.2298 H   0  0  0  0  0  0  0  0  0  0  0  0
   58.4660   28.9464   45.4388 H   0  0  0  0  0  0  0  0  0  0  0  0
   57.0674   28.8966   43.2353 H   0  0  0  0  0  0  0  0  0  0  0  0
   55.3735   29.5044   43.0869 H   0  0  0  0  0  0  0  0  0  0  0  0
   56.6964   30.8080   45.3194 H   0  0  0  0  0  0  0  0  0  0  0  0
   57.6955   30.9769   43.8362 H   0  0  0  0  0  0  0  0  0  0  0  0
   55.9870   31.5316   43.8362 H   0  0  0  0  0  0  0  0  0  0  0  0
   54.1965   24.2968   46.5074 H   0  0  0  0  0  0  0  0  0  0  0  0
   53.2948   25.0490   45.1354 H   0  0  0  0  0  0  0  0  0  0  0  0
   55.9982   23.7008   45.1607 H   0  0  0  0  0  0  0  0  0  0  0  0
   54.6503   23.5588   43.9818 H   0  0  0  0  0  0  0  0  0  0  0  0
   55.6932   25.0214   43.9818 H   0  0  0  0  0  0  0  0  0  0  0  0
  1  2  1  0
  2  3  1  0
  3  4  1  0
  4  5  2  0
  5  6  1  0
  6  7  1  0
  7  8  1  0
  8  9  1  0
  9 10  1  0
 10 11  1  0
 11 12  1  0
 12 13  1  0
 13 14  2  0
 14 15  1  0
 15 16  2  0
 16 17  1  0
 17 18  2  0
 18 19  1  0
 19 20  1  0
 11 21  1  0
 21 22  1  0
  6 23  2  0
 23 24  1  0
 24 25  1  0
 25 26  1  0
 26 27  1  0
 24 28  2  0
 28 29  1  0
 29 30  1  0
 30 31  1  0
 28  4  1  0
 22  8  1  0
 18 13  1  0
  1 32  1  0
  1 33  1  0
  1 34  1  0
  2 35  1  0
  2 36  1  0
  5 37  1  0
  7 38  1  0
  7 39  1  0
  9 40  1  0
  9 41  1  0
 10 42  1  0
 10 43  1  0
 12 44  1  0
 12 45  1  0
 14 46  1  0
 15 47  1  0
 16 48  1  0
 17 49  1  0
 20 50  1  0
 20 51  1  0
 20 52  1  0
 21 53  1  0
 21 54  1  0
 22 55  1  0
 22 56  1  0
 23 57  1  0
 26 58  1  0
 26 59  1  0
 27 60  1  0
 27 61  1  0
 27 62  1  0
 30 63  1  0
 30 64  1  0
 31 65  1  0
 31 66  1  0
 31 67  1  0
M  END
>  <UniqueID>  (43) 
42

>  <SMILES>  (43) 
CCOc1cc(CN2CCN(Cc3ccccc3OC)CC2)cc(OCC)c1OCC

>  <Energy>  (43) 
79.49988878506493

>  <Genealogy>  (43) 
CCOc1cc(CN2CCN(Cc3ccccc3OC)CC2)cc(OCC)c1OCC (3D coordinates assigned)
CCOc1cc(CN2CCN(Cc3ccccc3OC)CC2)cc(OCC)c1OCC (nonaromatic ring conformer: 79.49988878506493 kcal/mol)

>  <smiles>  (43) 
CCOc1cc(CN2CCN(Cc3ccccc3OC)CC2)cc(OCC)c1OCC

>  <score_type>  (43) 
oracle

>  <origin>  (43) 
adg

>  <m_score__min__energy>  (43) 
-8.4900000000000002

>  <m_primary>  (43) 
energy

$$$$
43:0
     RDKit          3D

 63 66  0  0  0  0  0  0  0  0999 V2000
   56.0960   23.7660   43.5680 C   0  0  0  0  0  0  0  0  0  0  0  0
   55.2210   23.2650   44.7150 C   0  0  0  0  0  0  0  0  0  0  0  0
   54.7500   24.4080   45.5770 C   0  0  0  0  0  0  0  0  0  0  0  0
   53.5140   24.6460   45.6190 O   0  0  0  0  0  0  0  0  0  0  0  0
   55.6300   25.2640   46.3290 N   0  0  0  0  0  0  0  0  0  0  0  0
   56.3700   26.2530   45.9190 C   0  0  0  0  0  0  0  0  0  0  0  0
   55.9090   27.4920   45.6240 N   0  0  0  0  0  0  0  0  0  0  0  0
   56.9230   28.3030   45.2280 C   0  0  0  0  0  0  0  0  0  0  0  0
   56.7680   29.6410   44.8680 C   0  0  0  0  0  0  0  0  0  0  0  0
   57.9090   30.3860   44.4890 C   0  0  0  0  0  0  0  0  0  0  0  0
   57.8080   31.7850   44.1700 N   0  0  0  0  0  0  0  0  0  0  0  0
   57.6960   32.8230   45.1550 C   0  0  0  0  0  0  0  0  0  0  0  0
   57.3800   32.5450   46.3430 O   0  0  0  0  0  0  0  0  0  0  0  0
   57.9040   34.2570   44.7680 C   0  0  0  0  0  0  0  0  0  0  0  0
   59.2330   34.7870   45.3450 C   0  0  0  0  0  0  0  0  0  0  0  0
   59.3060   34.6930   46.8160 N   0  0  0  0  0  0  0  0  0  0  0  0
   60.4540   33.9090   47.3230 C   0  0  0  0  0  0  0  0  0  0  0  0
   61.6990   34.1090   46.4500 C   0  0  0  0  0  0  0  0  0  0  0  0
   62.8260   33.1690   46.9120 C   0  0  0  0  0  0  0  0  0  0  0  0
   62.9230   33.0360   48.3840 N   0  0  0  0  0  0  0  0  0  0  0  0
   62.8910   31.6580   48.9220 C   0  0  0  0  0  0  0  0  0  0  0  0
   61.5130   31.0370   48.9080 C   0  0  0  0  0  0  0  0  0  0  0  0
   61.0020   30.4550   47.7340 C   0  0  0  0  0  0  0  0  0  0  0  0
   59.7130   29.9110   47.7180 C   0  0  0  0  0  0  0  0  0  0  0  0
   58.9300   29.9320   48.8740 C   0  0  0  0  0  0  0  0  0  0  0  0
   59.4390   30.4830   50.0530 C   0  0  0  0  0  0  0  0  0  0  0  0
   60.7280   31.0230   50.0750 C   0  0  0  0  0  0  0  0  0  0  0  0
   62.2450   34.0720   49.1920 C   0  0  0  0  0  0  0  0  0  0  0  0
   60.7790   34.3310   48.7730 C   0  0  0  0  0  0  0  0  0  0  0  0
   59.1800   29.7680   44.4930 C   0  0  0  0  0  0  0  0  0  0  0  0
   59.3200   28.4180   44.8470 C   0  0  0  0  0  0  0  0  0  0  0  0
   58.1770   27.7140   45.2100 C   0  0  0  0  0  0  0  0  0  0  0  0
   58.0420   26.1140   45.7000 S   0  0  0  0  0  0  0  0  0  0  0  0
   56.9820   24.2733   43.9773 H   0  0  0  0  0  0  0  0  0  0  0  0
   56.4144   22.9133   42.9503 H   0  0  0  0  0  0  0  0  0  0  0  0
   55.5218   24.4722   42.9503 H   0  0  0  0  0  0  0  0  0  0  0  0
   54.3459   22.7447   44.2985 H   0  0  0  0  0  0  0  0  0  0  0  0
   55.8175   22.5811   45.3367 H   0  0  0  0  0  0  0  0  0  0  0  0
   55.7732   30.1103   44.8786 H   0  0  0  0  0  0  0  0  0  0  0  0
   57.7380   32.0530   43.1630 H   0  0  0  0  0  0  0  0  0  0  0  0
   57.9291   34.3356   43.6711 H   0  0  0  0  0  0  0  0  0  0  0  0
   57.0764   34.8577   45.1733 H   0  0  0  0  0  0  0  0  0  0  0  0
   60.0590   34.2010   44.9157 H   0  0  0  0  0  0  0  0  0  0  0  0
   59.3022   35.8527   45.0814 H   0  0  0  0  0  0  0  0  0  0  0  0
   58.4130   34.2590   47.1490 H   0  0  0  0  0  0  0  0  0  0  0  0
   60.1734   32.8458   47.2925 H   0  0  0  0  0  0  0  0  0  0  0  0
   61.4478   33.8881   45.4021 H   0  0  0  0  0  0  0  0  0  0  0  0
   62.0393   35.1510   46.5419 H   0  0  0  0  0  0  0  0  0  0  0  0
   62.6442   32.1720   46.4842 H   0  0  0  0  0  0  0  0  0  0  0  0
   63.7734   33.6074   46.5652 H   0  0  0  0  0  0  0  0  0  0  0  0
   63.5613   31.0316   48.3151 H   0  0  0  0  0  0  0  0  0  0  0  0
   63.2101   31.7137   49.9732 H   0  0  0  0  0  0  0  0  0  0  0  0
   61.6189   30.4273   46.8237 H   0  0  0  0  0  0  0  0  0  0  0  0
   59.3159   29.4662   46.7936 H   0  0  0  0  0  0  0  0  0  0  0  0
   57.9124   29.5147   48.8566 H   0  0  0  0  0  0  0  0  0  0  0  0
   58.8243   30.4918   50.9652 H   0  0  0  0  0  0  0  0  0  0  0  0
   61.1307   31.4393   51.0101 H   0  0  0  0  0  0  0  0  0  0  0  0
   62.2534   33.7516   50.2443 H   0  0  0  0  0  0  0  0  0  0  0  0
   62.7941   35.0119   49.0334 H   0  0  0  0  0  0  0  0  0  0  0  0
   60.1211   33.7689   49.4521 H   0  0  0  0  0  0  0  0  0  0  0  0
   60.6198   35.4179   48.8305 H   0  0  0  0  0  0  0  0  0  0  0  0
   60.0696   30.3524   44.2153 H   0  0  0  0  0  0  0  0  0  0  0  0
   60.3058   27.9301   44.8377 H   0  0  0  0  0  0  0  0  0  0  0  0
  1  2  1  0
  2  3  1  0
  3  4  2  0
  3  5  1  0
  5  6  2  3
  6  7  1  0
  7  8  1  0
  8  9  2  0
  9 10  1  0
 10 11  1  0
 11 12  1  0
 12 13  2  0
 12 14  1  0
 14 15  1  0
 15 16  1  0
 16 17  1  0
 17 18  1  0
 18 19  1  0
 19 20  1  0
 20 21  1  0
 21 22  1  0
 22 23  2  0
 23 24  1  0
 24 25  2  0
 25 26  1  0
 26 27  2  0
 20 28  1  0
 28 29  1  0
 10 30  2  0
 30 31  1  0
 31 32  2  0
 32 33  1  0
 33  6  1  0
 32  8  1  0
 29 17  1  0
 27 22  1  0
  1 34  1  0
  1 35  1  0
  1 36  1  0
  2 37  1  0
  2 38  1  0
  9 39  1  0
 11 40  1  0
 14 41  1  0
 14 42  1  0
 15 43  1  0
 15 44  1  0
 16 45  1  0
 17 46  1  0
 18 47  1  0
 18 48  1  0
 19 49  1  0
 19 50  1  0
 21 51  1  0
 21 52  1  0
 23 53  1  0
 24 54  1  0
 25 55  1  0
 26 56  1  0
 27 57  1  0
 28 58  1  0
 28 59  1  0
 29 60  1  0
 29 61  1  0
 30 62  1  0
 31 63  1  0
M  CHG  1   7  -1
M  END
>  <UniqueID>  (44) 
43

>  <SMILES>  (44) 
CCC(=O)N=c1[n-]c2cc(NC(=O)CCNC3CCN(Cc4ccccc4)CC3)ccc2s1

>  <Energy>  (44) 
116.75663755751108

>  <Genealogy>  (44) 
CCC(=O)N=c1[n-]c2cc(NC(=O)CCNC3CCN(Cc4ccccc4)CC3)ccc2s1 (protonated)
CCC(=O)N=c1[n-]c2cc(NC(=O)CCNC3CCN(Cc4ccccc4)CC3)ccc2s1 (3D coordinates assigned)
CCC(=O)N=c1[n-]c2cc(NC(=O)CCNC3CCN(Cc4ccccc4)CC3)ccc2s1 (nonaromatic ring conformer: 116.75663755751108 kcal/mol)

>  <smiles>  (44) 
CCC(=O)N=c1[nH]c2cc(NC(=O)CCNC3CCN(Cc4ccccc4)CC3)ccc2s1

>  <score_type>  (44) 
oracle

>  <origin>  (44) 
adg

>  <m_score__min__energy>  (44) 
-11.57

>  <m_primary>  (44) 
energy

$$$$
44:0
     RDKit          3D

 32 34  0  0  0  0  0  0  0  0999 V2000
   55.7690   29.4470   45.0820 O   0  0  0  0  0  0  0  0  0  0  0  0
   57.1720   29.5330   44.9430 C   0  0  2  0  0  0  0  0  0  0  0  0
   57.5300   31.0240   44.7420 C   0  0  0  0  0  0  0  0  0  0  0  0
   57.7550   31.5950   43.4660 C   0  0  0  0  0  0  0  0  0  0  0  0
   58.1360   32.9340   43.3370 C   0  0  0  0  0  0  0  0  0  0  0  0
   58.3320   33.7220   44.4700 C   0  0  0  0  0  0  0  0  0  0  0  0
   58.1630   33.1690   45.7370 C   0  0  0  0  0  0  0  0  0  0  0  0
   57.7810   31.8320   45.8750 C   0  0  0  0  0  0  0  0  0  0  0  0
   57.6430   28.6590   43.7140 C   0  0  0  0  0  0  0  0  0  0  0  0
   58.4260   27.4740   44.1380 N   0  0  0  0  0  0  0  0  0  0  0  0
   57.6200   26.6520   45.0710 C   0  0  0  0  0  0  0  0  0  0  0  0
   57.2880   27.4390   46.3600 C   0  0  0  0  0  0  0  0  0  0  0  0
   57.8090   28.8870   46.2200 C   0  0  0  0  0  0  0  0  0  0  0  0
   59.3420   28.7990   46.0490 C   0  0  0  0  0  0  0  0  0  0  0  0
   59.6660   27.9240   44.8140 C   0  0  0  0  0  0  0  0  0  0  0  0
   55.5270   29.7280   46.0020 H   0  0  0  0  0  0  0  0  0  0  0  0
   57.6284   30.9772   42.5647 H   0  0  0  0  0  0  0  0  0  0  0  0
   58.2818   33.3677   42.3367 H   0  0  0  0  0  0  0  0  0  0  0  0
   58.6196   34.7784   44.3636 H   0  0  0  0  0  0  0  0  0  0  0  0
   58.3307   33.7866   46.6317 H   0  0  0  0  0  0  0  0  0  0  0  0
   57.6738   31.4010   46.8814 H   0  0  0  0  0  0  0  0  0  0  0  0
   56.7555   28.3179   43.1608 H   0  0  0  0  0  0  0  0  0  0  0  0
   58.2915   29.2846   43.0831 H   0  0  0  0  0  0  0  0  0  0  0  0
   56.6819   26.3615   44.5755 H   0  0  0  0  0  0  0  0  0  0  0  0
   58.2036   25.7609   45.3457 H   0  0  0  0  0  0  0  0  0  0  0  0
   56.1987   27.4531   46.5121 H   0  0  0  0  0  0  0  0  0  0  0  0
   57.7692   26.9550   47.2226 H   0  0  0  0  0  0  0  0  0  0  0  0
   57.5482   29.4977   47.0970 H   0  0  0  0  0  0  0  0  0  0  0  0
   59.7547   29.8082   45.9035 H   0  0  0  0  0  0  0  0  0  0  0  0
   59.7894   28.3501   46.9481 H   0  0  0  0  0  0  0  0  0  0  0  0
   60.2683   28.5116   44.1055 H   0  0  0  0  0  0  0  0  0  0  0  0
   60.2217   27.0365   45.1510 H   0  0  0  0  0  0  0  0  0  0  0  0
  2  1  1  1
  2  3  1  0
  3  4  2  0
  4  5  1  0
  5  6  2  0
  6  7  1  0
  7  8  2  0
  2  9  1  0
  9 10  1  0
 10 11  1  0
 11 12  1  0
 12 13  1  0
 13 14  1  0
 14 15  1  0
 13  2  1  0
  8  3  1  0
 15 10  1  0
  1 16  1  0
  4 17  1  0
  5 18  1  0
  6 19  1  0
  7 20  1  0
  8 21  1  0
  9 22  1  0
  9 23  1  0
 11 24  1  0
 11 25  1  0
 12 26  1  0
 12 27  1  0
 13 28  1  0
 14 29  1  0
 14 30  1  0
 15 31  1  0
 15 32  1  0
M  END
>  <UniqueID>  (45) 
44

>  <SMILES>  (45) 
O[C@]1(c2ccccc2)CN2CCC1CC2

>  <Energy>  (45) 
56.958380352730025

>  <Genealogy>  (45) 
O[C@]1(c2ccccc2)CN2CCC1CC2 (chirality)
O[C@]1(c2ccccc2)CN2CCC1CC2 (3D coordinates assigned)
O[C@]1(c2ccccc2)CN2CCC1CC2 (nonaromatic ring conformer: 56.958380352730025 kcal/mol)

>  <smiles>  (45) 
OC1(c2ccccc2)CN2CCC1CC2

>  <score_type>  (45) 
oracle

>  <origin>  (45) 
adg

>  <m_score__min__energy>  (45) 
-6.8499999999999996

>  <m_primary>  (45) 
energy

$$$$
45:0
     RDKit          3D

 53 55  0  0  0  0  0  0  0  0999 V2000
   57.7930   32.2050   43.7700 C   0  0  0  0  0  0  0  0  0  0  0  0
   57.4410   33.3890   44.6820 C   0  0  0  0  0  0  0  0  0  0  0  0
   58.5090   33.7410   45.6450 N   0  0  0  0  0  0  0  0  0  0  0  0
   59.2630   34.9400   45.2400 C   0  0  0  0  0  0  0  0  0  0  0  0
   58.0350   33.8150   47.0460 C   0  0  0  0  0  0  0  0  0  0  0  0
   59.0660   33.1880   47.9850 C   0  0  0  0  0  0  0  0  0  0  0  0
   59.2770   31.7750   47.6670 N   0  0  0  0  0  0  0  0  0  0  0  0
   59.5570   31.3320   46.4460 N   0  0  0  0  0  0  0  0  0  0  0  0
   59.7220   30.0000   46.5210 C   0  0  0  0  0  0  0  0  0  0  0  0
   60.0280   29.1090   45.4950 C   0  0  0  0  0  0  0  0  0  0  0  0
   60.1490   27.7470   45.8300 C   0  0  0  0  0  0  0  0  0  0  0  0
   59.9600   27.3160   47.1640 C   0  0  0  0  0  0  0  0  0  0  0  0
   59.6510   28.2410   48.1780 C   0  0  0  0  0  0  0  0  0  0  0  0
   59.5450   29.5820   47.8150 C   0  0  0  0  0  0  0  0  0  0  0  0
   59.2610   30.7270   48.5330 C   0  0  0  0  0  0  0  0  0  0  0  0
   59.0080   30.8120   49.9810 C   0  0  0  0  0  0  0  0  0  0  0  0
   57.9860   30.2410   50.4490 O   0  0  0  0  0  0  0  0  0  0  0  0
   59.8870   31.5490   50.8580 N   0  0  0  0  0  0  0  0  0  0  0  0
   59.3110   32.5580   51.7500 C   0  0  0  0  0  0  0  0  0  0  0  0
   61.3470   31.3490   50.8140 C   0  0  0  0  0  0  0  0  0  0  0  0
   61.9440   32.0280   49.6050 C   0  0  0  0  0  0  0  0  0  0  0  0
   62.4920   31.2500   48.5700 C   0  0  0  0  0  0  0  0  0  0  0  0
   63.0800   31.8620   47.4600 C   0  0  0  0  0  0  0  0  0  0  0  0
   63.1190   33.2550   47.3680 C   0  0  0  0  0  0  0  0  0  0  0  0
   63.6950   33.8470   46.2920 F   0  0  0  0  0  0  0  0  0  0  0  0
   62.5610   34.0380   48.3810 C   0  0  0  0  0  0  0  0  0  0  0  0
   61.9700   33.4320   49.4940 C   0  0  0  0  0  0  0  0  0  0  0  0
   61.4360   34.2180   50.4640 F   0  0  0  0  0  0  0  0  0  0  0  0
   58.0526   31.3318   44.3865 H   0  0  0  0  0  0  0  0  0  0  0  0
   56.9284   31.9615   43.1350 H   0  0  0  0  0  0  0  0  0  0  0  0
   58.6502   32.4734   43.1350 H   0  0  0  0  0  0  0  0  0  0  0  0
   57.2417   34.2665   44.0494 H   0  0  0  0  0  0  0  0  0  0  0  0
   56.5638   33.0876   45.2733 H   0  0  0  0  0  0  0  0  0  0  0  0
   59.6025   35.4798   46.1363 H   0  0  0  0  0  0  0  0  0  0  0  0
   60.1351   34.6396   44.6406 H   0  0  0  0  0  0  0  0  0  0  0  0
   58.6145   35.5959   44.6406 H   0  0  0  0  0  0  0  0  0  0  0  0
   57.8839   34.8686   47.3235 H   0  0  0  0  0  0  0  0  0  0  0  0
   57.0869   33.2643   47.1341 H   0  0  0  0  0  0  0  0  0  0  0  0
   60.0200   33.7259   47.8819 H   0  0  0  0  0  0  0  0  0  0  0  0
   58.6903   33.2619   49.0162 H   0  0  0  0  0  0  0  0  0  0  0  0
   59.6410   31.9270   45.5920 H   0  0  0  0  0  0  0  0  0  0  0  0
   60.1699   29.4568   44.4611 H   0  0  0  0  0  0  0  0  0  0  0  0
   60.3924   27.0123   45.0484 H   0  0  0  0  0  0  0  0  0  0  0  0
   60.0555   26.2483   47.4107 H   0  0  0  0  0  0  0  0  0  0  0  0
   59.4988   27.9177   49.2183 H   0  0  0  0  0  0  0  0  0  0  0  0
   59.4799   32.2621   52.7959 H   0  0  0  0  0  0  0  0  0  0  0  0
   59.7903   33.5301   51.5620 H   0  0  0  0  0  0  0  0  0  0  0  0
   58.2303   32.6395   51.5620 H   0  0  0  0  0  0  0  0  0  0  0  0
   61.7967   31.7722   51.7243 H   0  0  0  0  0  0  0  0  0  0  0  0
   61.5538   30.2704   50.7511 H   0  0  0  0  0  0  0  0  0  0  0  0
   62.4576   30.1524   48.6345 H   0  0  0  0  0  0  0  0  0  0  0  0
   63.5126   31.2460   46.6579 H   0  0  0  0  0  0  0  0  0  0  0  0
   62.5865   35.1349   48.3030 H   0  0  0  0  0  0  0  0  0  0  0  0
  1  2  1  0
  2  3  1  0
  3  4  1  0
  3  5  1  0
  5  6  1  0
  6  7  1  0
  7  8  1  0
  8  9  2  0
  9 10  1  0
 10 11  2  0
 11 12  1  0
 12 13  2  0
 13 14  1  0
 14 15  2  0
 15 16  1  0
 16 17  2  0
 16 18  1  0
 18 19  1  0
 18 20  1  0
 20 21  1  0
 21 22  2  0
 22 23  1  0
 23 24  2  0
 24 25  1  0
 24 26  1  0
 26 27  2  0
 27 28  1  0
 15  7  1  0
 27 21  1  0
 14  9  1  0
  1 29  1  0
  1 30  1  0
  1 31  1  0
  2 32  1  0
  2 33  1  0
  4 34  1  0
  4 35  1  0
  4 36  1  0
  5 37  1  0
  5 38  1  0
  6 39  1  0
  6 40  1  0
  8 41  1  0
 10 42  1  0
 11 43  1  0
 12 44  1  0
 13 45  1  0
 19 46  1  0
 19 47  1  0
 19 48  1  0
 20 49  1  0
 20 50  1  0
 22 51  1  0
 23 52  1  0
 26 53  1  0
M  CHG  1   8   1
M  END
>  <UniqueID>  (46) 
45

>  <SMILES>  (46) 
CCN(C)CCn1[nH+]c2ccccc2c1C(=O)N(C)Cc1ccc(F)cc1F

>  <Energy>  (46) 
94.49990979729097

>  <Genealogy>  (46) 
CCN(C)CCn1[nH+]c2ccccc2c1C(=O)N(C)Cc1ccc(F)cc1F (protonated)
CCN(C)CCn1[nH+]c2ccccc2c1C(=O)N(C)Cc1ccc(F)cc1F (3D coordinates assigned)
CCN(C)CCn1[nH+]c2ccccc2c1C(=O)N(C)Cc1ccc(F)cc1F (optimized conformer: 94.49990979729097 kcal/mol)

>  <smiles>  (46) 
CCN(C)CCn1nc2ccccc2c1C(=O)N(C)Cc1ccc(F)cc1F

>  <score_type>  (46) 
oracle

>  <origin>  (46) 
adg

>  <m_score__min__energy>  (46) 
-5.8499999999999996

>  <m_primary>  (46) 
energy

$$$$
