0:0
     RDKit          3D

 40 41  0  0  0  0  0  0  0  0999 V2000
   57.1030   24.5280   47.7650 C   0  0  0  0  0  0  0  0  0  0  0  0
   57.7670   25.5800   46.9260 C   0  0  0  0  0  0  0  0  0  0  0  0
   59.1610   25.5910   46.7870 C   0  0  0  0  0  0  0  0  0  0  0  0
   59.7890   26.5870   46.0360 C   0  0  0  0  0  0  0  0  0  0  0  0
   59.0270   27.5990   45.4250 C   0  0  0  0  0  0  0  0  0  0  0  0
   57.6250   27.6080   45.5760 C   0  0  0  0  0  0  0  0  0  0  0  0
   57.0030   26.5970   46.3350 C   0  0  0  0  0  0  0  0  0  0  0  0
   56.8950   28.6000   44.9840 N   0  0  0  0  0  0  0  0  0  0  0  0
   55.5250   28.6320   45.1250 O   0  0  0  0  0  0  0  0  0  0  0  0
   57.5200   29.5700   44.2570 C   0  0  0  0  0  0  0  0  0  0  0  0
   56.7630   30.6170   43.6270 N   0  0  0  0  0  0  0  0  0  0  0  0
   57.3740   31.6230   42.7570 C   0  0  0  0  0  0  0  0  0  0  0  0
   58.1100   32.6950   43.5730 C   0  0  0  0  0  0  0  0  0  0  0  0
   57.4120   32.9820   44.9110 C   0  0  0  0  0  0  0  0  0  0  0  0
   58.4140   33.2030   45.9770 N   0  0  0  0  0  0  0  0  0  0  0  0
   57.7820   33.1070   47.3040 C   0  0  0  0  0  0  0  0  0  0  0  0
   59.0560   34.5210   45.8360 C   0  0  0  0  0  0  0  0  0  0  0  0
   58.8730   29.5390   44.1240 N   0  0  0  0  0  0  0  0  0  0  0  0
   59.6150   28.5850   44.6880 N   0  0  0  0  0  0  0  0  0  0  0  0
   60.9830   28.6140   44.5170 O   0  0  0  0  0  0  0  0  0  0  0  0
   57.2503   24.7613   48.8298 H   0  0  0  0  0  0  0  0  0  0  0  0
   56.0265   24.5051   47.5401 H   0  0  0  0  0  0  0  0  0  0  0  0
   57.5455   23.5464   47.5401 H   0  0  0  0  0  0  0  0  0  0  0  0
   59.7648   24.8101   47.2725 H   0  0  0  0  0  0  0  0  0  0  0  0
   60.8831   26.5800   45.9220 H   0  0  0  0  0  0  0  0  0  0  0  0
   55.9107   26.6053   46.4650 H   0  0  0  0  0  0  0  0  0  0  0  0
   55.7250   30.6490   43.7470 H   0  0  0  0  0  0  0  0  0  0  0  0
   58.0917   31.1280   42.0862 H   0  0  0  0  0  0  0  0  0  0  0  0
   56.5759   32.1134   42.1804 H   0  0  0  0  0  0  0  0  0  0  0  0
   59.1339   32.3469   43.7744 H   0  0  0  0  0  0  0  0  0  0  0  0
   58.1134   33.6252   42.9859 H   0  0  0  0  0  0  0  0  0  0  0  0
   56.7871   33.8814   44.8085 H   0  0  0  0  0  0  0  0  0  0  0  0
   56.7877   32.1175   45.1810 H   0  0  0  0  0  0  0  0  0  0  0  0
   58.5484   33.2234   48.0844 H   0  0  0  0  0  0  0  0  0  0  0  0
   57.0279   33.9009   47.4093 H   0  0  0  0  0  0  0  0  0  0  0  0
   57.2977   32.1250   47.4093 H   0  0  0  0  0  0  0  0  0  0  0  0
   59.2593   34.9384   46.8332 H   0  0  0  0  0  0  0  0  0  0  0  0
   60.0015   34.4112   45.2847 H   0  0  0  0  0  0  0  0  0  0  0  0
   58.3866   35.1978   45.2847 H   0  0  0  0  0  0  0  0  0  0  0  0
   61.4120   28.2120   43.6930 H   0  0  0  0  0  0  0  0  0  0  0  0
  1  2  1  0
  2  3  2  0
  3  4  1  0
  4  5  2  0
  5  6  1  0
  6  7  2  0
  6  8  1  0
  8  9  1  0
  8 10  2  0
 10 11  1  0
 11 12  1  0
 12 13  1  0
 13 14  1  0
 14 15  1  0
 15 16  1  0
 15 17  1  0
 10 18  1  0
 18 19  2  0
 19 20  1  0
  7  2  1  0
 19  5  1  0
  1 21  1  0
  1 22  1  0
  1 23  1  0
  3 24  1  0
  4 25  1  0
  7 26  1  0
 11 27  1  0
 12 28  1  0
 12 29  1  0
 13 30  1  0
 13 31  1  0
 14 32  1  0
 14 33  1  0
 16 34  1  0
 16 35  1  0
 16 36  1  0
 17 37  1  0
 17 38  1  0
 17 39  1  0
 20 40  1  0
M  CHG  3   8   1   9  -1  19   1
M  END
>  <UniqueID>  (1) 
1

>  <SMILES>  (1) 
Cc1ccc2c(c1)[n+]([O-])c(NCCCN(C)C)n[n+]2O

>  <Energy>  (1) 
39.83681539542669

>  <Genealogy>  (1) 
Cc1ccc2c(c1)[n+]([O-])c(NCCCN(C)C)n[n+]2O (protonated)
Cc1ccc2c(c1)[n+]([O-])c(NCCCN(C)C)n[n+]2O (3D coordinates assigned)
Cc1ccc2c(c1)[n+]([O-])c(NCCCN(C)C)n[n+]2O (optimized conformer: 39.83681539542669 kcal/mol)

>  <smiles>  (1) 
Cc1ccc2c(c1)[n+]([O-])c(NCCCN(C)C)n[n+]2[O-]

>  <score_type>  (1) 
oracle

>  <origin>  (1) 
adg

>  <m_score__min__energy>  (1) 
-6.4500000000000002

>  <m_primary>  (1) 
energy

$$$$
1:0
     RDKit          3D

 40 42  0  0  0  0  0  0  0  0999 V2000
   60.7820   26.5000   46.6950 C   0  0  0  0  0  0  0  0  0  0  0  0
   59.3730   26.6340   46.5350 O   0  0  0  0  0  0  0  0  0  0  0  0
   58.7470   27.4590   45.5830 C   0  0  0  0  0  0  0  0  0  0  0  0
   58.4270   26.9750   44.3030 C   0  0  0  0  0  0  0  0  0  0  0  0
   57.7880   27.7910   43.3800 C   0  0  0  0  0  0  0  0  0  0  0  0
   57.4660   29.1010   43.7120 C   0  0  0  0  0  0  0  0  0  0  0  0
   57.7840   29.6310   44.9750 C   0  0  0  0  0  0  0  0  0  0  0  0
   58.4330   28.7970   45.9370 C   0  0  0  0  0  0  0  0  0  0  0  0
   58.7520   29.1960   47.3750 C   0  0  0  0  0  0  0  0  0  0  0  0
   58.5670   30.6550   47.7930 C   0  0  0  0  0  0  0  0  0  0  0  0
   59.2690   31.6270   46.8270 C   0  0  2  0  0  0  0  0  0  0  0  0
   59.7260   32.8960   47.5870 C   0  0  0  0  0  0  0  0  0  0  0  0
   60.3130   33.9330   46.6960 N   0  0  1  0  0  0  0  0  0  0  0  0
   61.7790   33.7950   46.6220 C   0  0  0  0  0  0  0  0  0  0  0  0
   59.7290   33.9680   45.3270 C   0  0  0  0  0  0  0  0  0  0  0  0
   58.3150   33.3880   45.2770 C   0  0  0  0  0  0  0  0  0  0  0  0
   58.3480   31.9980   45.7450 N   0  0  0  0  0  0  0  0  0  0  0  0
   57.4180   31.0490   45.1960 C   0  0  0  0  0  0  0  0  0  0  0  0
   56.2880   31.4520   44.8030 O   0  0  0  0  0  0  0  0  0  0  0  0
   61.0287   26.4765   47.7667 H   0  0  0  0  0  0  0  0  0  0  0  0
   61.1177   25.5659   46.2209 H   0  0  0  0  0  0  0  0  0  0  0  0
   61.2877   27.3541   46.2209 H   0  0  0  0  0  0  0  0  0  0  0  0
   58.6851   25.9410   44.0305 H   0  0  0  0  0  0  0  0  0  0  0  0
   57.5359   27.3996   42.3834 H   0  0  0  0  0  0  0  0  0  0  0  0
   56.9531   29.7349   42.9737 H   0  0  0  0  0  0  0  0  0  0  0  0
   58.1095   28.5884   48.0292 H   0  0  0  0  0  0  0  0  0  0  0  0
   59.8358   29.0295   47.4630 H   0  0  0  0  0  0  0  0  0  0  0  0
   57.4916   30.8858   47.8093 H   0  0  0  0  0  0  0  0  0  0  0  0
   59.0173   30.7822   48.7885 H   0  0  0  0  0  0  0  0  0  0  0  0
   60.1532   31.1321   46.3989 H   0  0  0  0  0  0  0  0  0  0  0  0
   58.8548   33.3287   48.1006 H   0  0  0  0  0  0  0  0  0  0  0  0
   60.5115   32.5891   48.2933 H   0  0  0  0  0  0  0  0  0  0  0  0
   60.1230   34.8630   47.1410 H   0  0  0  0  0  0  0  0  0  0  0  0
   62.1954   33.7558   47.6394 H   0  0  0  0  0  0  0  0  0  0  0  0
   62.0335   32.8689   46.0857 H   0  0  0  0  0  0  0  0  0  0  0  0
   62.2019   34.6573   46.0857 H   0  0  0  0  0  0  0  0  0  0  0  0
   59.6936   35.0130   44.9855 H   0  0  0  0  0  0  0  0  0  0  0  0
   60.3660   33.3505   44.6767 H   0  0  0  0  0  0  0  0  0  0  0  0
   57.6516   33.9791   45.9254 H   0  0  0  0  0  0  0  0  0  0  0  0
   57.9375   33.4219   44.2444 H   0  0  0  0  0  0  0  0  0  0  0  0
  1  2  1  0
  2  3  1  0
  3  4  2  0
  4  5  1  0
  5  6  2  0
  6  7  1  0
  7  8  2  0
  8  9  1  0
  9 10  1  0
 10 11  1  0
 11 12  1  0
 12 13  1  0
 13 14  1  0
 13 15  1  0
 15 16  1  0
 16 17  1  0
 17 18  1  0
 18 19  2  0
  8  3  1  0
 17 11  1  0
 18  7  1  0
  1 20  1  0
  1 21  1  0
  1 22  1  0
  4 23  1  0
  5 24  1  0
  6 25  1  0
  9 26  1  0
  9 27  1  0
 10 28  1  0
 10 29  1  0
 11 30  1  6
 12 31  1  0
 12 32  1  0
 13 33  1  1
 14 34  1  0
 14 35  1  0
 14 36  1  0
 15 37  1  0
 15 38  1  0
 16 39  1  0
 16 40  1  0
M  CHG  1  13   1
M  END
>  <UniqueID>  (2) 
2

>  <SMILES>  (2) 
COc1cccc2c1CC[C@@H]1C[N@@H+](C)CCN1C2=O

>  <Energy>  (2) 
65.0679940161

>  <Genealogy>  (2) 
COc1cccc2c1CCC1C[NH+](C)CCN1C2=O (protonated)
COc1cccc2c1CC[C@@H]1C[N@@H+](C)CCN1C2=O (chirality)
COc1cccc2c1CC[C@@H]1C[N@@H+](C)CCN1C2=O (3D coordinates assigned)
COc1cccc2c1CC[C@@H]1C[N@@H+](C)CCN1C2=O (nonaromatic ring conformer: 65.0679940161 kcal/mol)

>  <smiles>  (2) 
COc1cccc2c1CCC1CN(C)CCN1C2=O

>  <score_type>  (2) 
oracle

>  <origin>  (2) 
adg

>  <m_score__min__energy>  (2) 
-3.6400000000000001

>  <m_primary>  (2) 
energy

$$$$
2:0
     RDKit          3D

 30 31  0  0  0  0  0  0  0  0999 V2000
   56.5980   30.3890   43.3780 C   0  0  0  0  0  0  0  0  0  0  0  0
   56.4940   31.2370   44.5180 O   0  0  0  0  0  0  0  0  0  0  0  0
   57.5900   31.7700   45.2120 C   0  0  0  0  0  0  0  0  0  0  0  0
   57.8390   33.1540   45.2810 C   0  0  0  0  0  0  0  0  0  0  0  0
   58.9460   33.6360   45.9860 C   0  0  0  0  0  0  0  0  0  0  0  0
   59.8190   32.7480   46.6370 C   0  0  0  0  0  0  0  0  0  0  0  0
   60.9970   33.2640   47.3760 C   0  0  0  0  0  0  0  0  0  0  0  0
   62.2550   33.2720   46.7470 C   0  0  0  0  0  0  0  0  0  0  0  0
   63.3820   33.7410   47.4250 C   0  0  0  0  0  0  0  0  0  0  0  0
   63.2670   34.2080   48.7330 C   0  0  0  0  0  0  0  0  0  0  0  0
   62.0250   34.2150   49.3690 C   0  0  0  0  0  0  0  0  0  0  0  0
   60.8750   33.7500   48.6970 C   0  0  0  0  0  0  0  0  0  0  0  0
   59.6080   33.7770   49.3020 O   0  0  0  0  0  0  0  0  0  0  0  0
   59.2700   33.0980   50.5060 C   0  0  0  0  0  0  0  0  0  0  0  0
   59.5710   31.3680   46.5580 C   0  0  0  0  0  0  0  0  0  0  0  0
   58.4650   30.8870   45.8530 C   0  0  0  0  0  0  0  0  0  0  0  0
   56.7258   29.3470   43.7065 H   0  0  0  0  0  0  0  0  0  0  0  0
   55.6828   30.4733   42.7736 H   0  0  0  0  0  0  0  0  0  0  0  0
   57.4657   30.6919   42.7736 H   0  0  0  0  0  0  0  0  0  0  0  0
   57.1601   33.8587   44.7784 H   0  0  0  0  0  0  0  0  0  0  0  0
   59.1350   34.7187   46.0314 H   0  0  0  0  0  0  0  0  0  0  0  0
   62.3517   32.9063   45.7141 H   0  0  0  0  0  0  0  0  0  0  0  0
   64.3622   33.7419   46.9259 H   0  0  0  0  0  0  0  0  0  0  0  0
   64.1579   34.5722   49.2656 H   0  0  0  0  0  0  0  0  0  0  0  0
   61.9420   34.5856   50.4014 H   0  0  0  0  0  0  0  0  0  0  0  0
   59.5739   33.7086   51.3690 H   0  0  0  0  0  0  0  0  0  0  0  0
   58.1834   32.9305   50.5398 H   0  0  0  0  0  0  0  0  0  0  0  0
   59.7914   32.1300   50.5398 H   0  0  0  0  0  0  0  0  0  0  0  0
   60.2521   30.6612   47.0545 H   0  0  0  0  0  0  0  0  0  0  0  0
   58.2806   29.8038   45.8015 H   0  0  0  0  0  0  0  0  0  0  0  0
  1  2  1  0
  2  3  1  0
  3  4  2  0
  4  5  1  0
  5  6  2  0
  6  7  1  0
  7  8  2  0
  8  9  1  0
  9 10  2  0
 10 11  1  0
 11 12  2  0
 12 13  1  0
 13 14  1  0
  6 15  1  0
 15 16  2  0
 16  3  1  0
 12  7  1  0
  1 17  1  0
  1 18  1  0
  1 19  1  0
  4 20  1  0
  5 21  1  0
  8 22  1  0
  9 23  1  0
 10 24  1  0
 11 25  1  0
 14 26  1  0
 14 27  1  0
 14 28  1  0
 15 29  1  0
 16 30  1  0
M  END
>  <UniqueID>  (3) 
3

>  <SMILES>  (3) 
COc1ccc(-c2ccccc2OC)cc1

>  <Energy>  (3) 
35.72715355611228

>  <Genealogy>  (3) 
COc1ccc(-c2ccccc2OC)cc1 (3D coordinates assigned)
COc1ccc(-c2ccccc2OC)cc1 (optimized conformer: 35.72715355611228 kcal/mol)

>  <smiles>  (3) 
COc1ccc(-c2ccccc2OC)cc1

>  <score_type>  (3) 
oracle

>  <origin>  (3) 
adg

>  <m_score__min__energy>  (3) 
-5.5199999999999996

>  <m_primary>  (3) 
energy

$$$$
3:0
     RDKit          3D

 45 46  0  0  0  0  0  0  0  0999 V2000
   61.2890   27.3360   51.2750 C   0  0  0  0  0  0  0  0  0  0  0  0
   60.7560   28.0210   50.0510 C   0  0  0  0  0  0  0  0  0  0  0  0
   60.7240   27.3450   48.8240 C   0  0  0  0  0  0  0  0  0  0  0  0
   60.2590   27.9870   47.6650 C   0  0  0  0  0  0  0  0  0  0  0  0
   60.2240   27.2450   46.3560 C   0  0  0  0  0  0  0  0  0  0  0  0
   59.8420   29.3310   47.7390 C   0  0  0  0  0  0  0  0  0  0  0  0
   59.3910   29.9690   46.6340 N   0  0  0  0  0  0  0  0  0  0  0  0
   58.9900   31.2660   46.6550 C   0  0  0  0  0  0  0  0  0  0  0  0
   58.4560   31.8390   45.3670 C   0  0  0  0  0  0  0  0  0  0  0  0
   57.0650   31.4130   45.1760 N   0  0  0  0  0  0  0  0  0  0  0  0
   56.9210   30.6700   43.9180 C   0  0  0  0  0  0  0  0  0  0  0  0
   56.2350   29.3200   44.1660 C   0  0  2  0  0  0  0  0  0  0  0  0
   55.1940   29.5070   45.0900 O   0  0  0  0  0  0  0  0  0  0  0  0
   57.2330   28.2830   44.7130 C   0  0  0  0  0  0  0  0  0  0  0  0
   57.4270   28.4630   46.0890 O   0  0  0  0  0  0  0  0  0  0  0  0
   59.0180   31.9780   47.8390 N   0  0  0  0  0  0  0  0  0  0  0  0
   58.6090   33.4010   47.8980 C   0  0  0  0  0  0  0  0  0  0  0  0
   59.7950   34.3380   47.6390 C   0  0  0  0  0  0  0  0  0  0  0  0
   59.4170   35.3140   46.7350 F   0  0  0  0  0  0  0  0  0  0  0  0
   60.1910   34.9500   48.8140 F   0  0  0  0  0  0  0  0  0  0  0  0
   60.8650   33.6360   47.1170 F   0  0  0  0  0  0  0  0  0  0  0  0
   59.4620   31.3620   48.9880 C   0  0  0  0  0  0  0  0  0  0  0  0
   59.4850   31.9960   50.0800 O   0  0  0  0  0  0  0  0  0  0  0  0
   59.8870   30.0220   48.9610 C   0  0  0  0  0  0  0  0  0  0  0  0
   60.3520   29.3630   50.1140 C   0  0  0  0  0  0  0  0  0  0  0  0
   60.8997   27.8363   52.1740 H   0  0  0  0  0  0  0  0  0  0  0  0
   60.9702   26.2832   51.2742 H   0  0  0  0  0  0  0  0  0  0  0  0
   62.3878   27.3863   51.2742 H   0  0  0  0  0  0  0  0  0  0  0  0
   61.0665   26.3012   48.7682 H   0  0  0  0  0  0  0  0  0  0  0  0
   60.1730   26.1633   46.5490 H   0  0  0  0  0  0  0  0  0  0  0  0
   59.3396   27.5570   45.7812 H   0  0  0  0  0  0  0  0  0  0  0  0
   61.1339   27.4724   45.7812 H   0  0  0  0  0  0  0  0  0  0  0  0
   58.4996   32.9373   45.4095 H   0  0  0  0  0  0  0  0  0  0  0  0
   59.0666   31.4776   44.5264 H   0  0  0  0  0  0  0  0  0  0  0  0
   56.8150   30.7690   45.9630 H   0  0  0  0  0  0  0  0  0  0  0  0
   56.3141   31.2608   43.2162 H   0  0  0  0  0  0  0  0  0  0  0  0
   57.9204   30.4887   43.4958 H   0  0  0  0  0  0  0  0  0  0  0  0
   55.8387   28.9401   43.2128 H   0  0  0  0  0  0  0  0  0  0  0  0
   55.6150   29.7340   45.9600 H   0  0  0  0  0  0  0  0  0  0  0  0
   56.8389   27.2720   44.5327 H   0  0  0  0  0  0  0  0  0  0  0  0
   58.1968   28.4131   44.1991 H   0  0  0  0  0  0  0  0  0  0  0  0
   57.3000   29.4310   46.2700 H   0  0  0  0  0  0  0  0  0  0  0  0
   57.8368   33.5828   47.1360 H   0  0  0  0  0  0  0  0  0  0  0  0
   58.2204   33.6068   48.9063 H   0  0  0  0  0  0  0  0  0  0  0  0
   60.3990   29.9035   51.0709 H   0  0  0  0  0  0  0  0  0  0  0  0
  1  2  1  0
  2  3  2  0
  3  4  1  0
  4  5  1  0
  4  6  2  0
  6  7  1  0
  7  8  2  0
  8  9  1  0
  9 10  1  0
 10 11  1  0
 11 12  1  0
 12 13  1  0
 12 14  1  0
 14 15  1  0
  8 16  1  0
 16 17  1  0
 17 18  1  0
 18 19  1  0
 18 20  1  0
 18 21  1  0
 16 22  1  0
 22 23  2  0
 22 24  1  0
 24 25  2  0
 25  2  1  0
 24  6  1  0
  1 26  1  0
  1 27  1  0
  1 28  1  0
  3 29  1  0
  5 30  1  0
  5 31  1  0
  5 32  1  0
  9 33  1  0
  9 34  1  0
 10 35  1  0
 11 36  1  0
 11 37  1  0
 12 38  1  6
 13 39  1  0
 14 40  1  0
 14 41  1  0
 15 42  1  0
 17 43  1  0
 17 44  1  0
 25 45  1  0
M  END
>  <UniqueID>  (4) 
4

>  <SMILES>  (4) 
Cc1cc(C)c2nc(CNC[C@H](O)CO)n(CC(F)(F)F)c(=O)c2c1

>  <Energy>  (4) 
45.76282091070537

>  <Genealogy>  (4) 
Cc1cc(C)c2nc(CNC[C@H](O)CO)n(CC(F)(F)F)c(=O)c2c1 (chirality)
Cc1cc(C)c2nc(CNC[C@H](O)CO)n(CC(F)(F)F)c(=O)c2c1 (3D coordinates assigned)
Cc1cc(C)c2nc(CNC[C@H](O)CO)n(CC(F)(F)F)c(=O)c2c1 (optimized conformer: 45.76282091070537 kcal/mol)

>  <smiles>  (4) 
Cc1cc(C)c2nc(CNCC(O)CO)n(CC(F)(F)F)c(=O)c2c1

>  <score_type>  (4) 
oracle

>  <origin>  (4) 
adg

>  <m_score__min__energy>  (4) 
-5.7999999999999998

>  <m_primary>  (4) 
energy

$$$$
4:0
     RDKit          3D

 38 39  0  0  0  0  0  0  0  0999 V2000
   62.6560   33.8290   50.5840 C   0  0  0  0  0  0  0  0  0  0  0  0
   62.4690   33.8360   49.1300 N   0  0  0  0  0  0  0  0  0  0  0  0
   63.4960   33.4510   48.3140 C   0  0  0  0  0  0  0  0  0  0  0  0
   63.3250   33.4200   46.9290 C   0  0  0  0  0  0  0  0  0  0  0  0
   62.0920   33.7690   46.3820 C   0  0  0  0  0  0  0  0  0  0  0  0
   61.0350   34.1390   47.2220 C   0  0  0  0  0  0  0  0  0  0  0  0
   59.6950   34.5270   46.6530 C   0  0  0  0  0  0  0  0  0  0  0  0
   58.6580   33.5420   47.0320 N   0  0  0  0  0  0  0  0  0  0  0  0
   57.3480   33.8120   46.4040 C   0  0  0  0  0  0  0  0  0  0  0  0
   57.3290   33.4790   44.8940 C   0  0  0  0  0  0  0  0  0  0  0  0
   58.2470   32.3710   44.5330 N   0  0  0  0  0  0  0  0  0  0  0  0
   57.7630   31.6700   43.3580 C   0  0  0  0  0  0  0  0  0  0  0  0
   57.6330   32.2620   42.2950 O   0  0  0  0  0  0  0  0  0  0  0  0
   57.3830   30.2190   43.4370 C   0  0  0  0  0  0  0  0  0  0  0  0
   55.7370   30.0610   44.0940 Cl  0  0  0  0  0  0  0  0  0  0  0  0
   58.4330   31.4280   45.6500 C   0  0  0  0  0  0  0  0  0  0  0  0
   59.0980   32.1330   46.8510 C   0  0  0  0  0  0  0  0  0  0  0  0
   61.2480   34.1620   48.6080 C   0  0  0  0  0  0  0  0  0  0  0  0
   61.6749   33.8657   51.0800 H   0  0  0  0  0  0  0  0  0  0  0  0
   63.1831   32.9105   50.8815 H   0  0  0  0  0  0  0  0  0  0  0  0
   63.2503   34.7055   50.8815 H   0  0  0  0  0  0  0  0  0  0  0  0
   64.4634   33.1638   48.7517 H   0  0  0  0  0  0  0  0  0  0  0  0
   64.1574   33.1223   46.2744 H   0  0  0  0  0  0  0  0  0  0  0  0
   61.9493   33.7538   45.2914 H   0  0  0  0  0  0  0  0  0  0  0  0
   59.4114   35.5165   47.0408 H   0  0  0  0  0  0  0  0  0  0  0  0
   59.7721   34.5533   45.5560 H   0  0  0  0  0  0  0  0  0  0  0  0
   56.5838   33.2023   46.9083 H   0  0  0  0  0  0  0  0  0  0  0  0
   57.1451   34.8880   46.5091 H   0  0  0  0  0  0  0  0  0  0  0  0
   56.3054   33.1923   44.6112 H   0  0  0  0  0  0  0  0  0  0  0  0
   57.6681   34.3760   44.3550 H   0  0  0  0  0  0  0  0  0  0  0  0
   59.1840   32.7780   44.3030 H   0  0  0  0  0  0  0  0  0  0  0  0
   57.4182   29.7771   42.4303 H   0  0  0  0  0  0  0  0  0  0  0  0
   58.0892   29.6944   44.0974 H   0  0  0  0  0  0  0  0  0  0  0  0
   57.4529   31.0353   45.9586 H   0  0  0  0  0  0  0  0  0  0  0  0
   59.0840   30.6066   45.3160 H   0  0  0  0  0  0  0  0  0  0  0  0
   58.8513   31.5715   47.7642 H   0  0  0  0  0  0  0  0  0  0  0  0
   60.1799   32.1555   46.6535 H   0  0  0  0  0  0  0  0  0  0  0  0
   60.4254   34.4449   49.2812 H   0  0  0  0  0  0  0  0  0  0  0  0
  1  2  1  0
  2  3  2  0
  3  4  1  0
  4  5  2  0
  5  6  1  0
  6  7  1  0
  7  8  1  0
  8  9  1  0
  9 10  1  0
 10 11  1  0
 11 12  1  0
 12 13  2  0
 12 14  1  0
 14 15  1  0
 11 16  1  0
 16 17  1  0
  6 18  2  0
 18  2  1  0
 17  8  1  0
  1 19  1  0
  1 20  1  0
  1 21  1  0
  3 22  1  0
  4 23  1  0
  5 24  1  0
  7 25  1  0
  7 26  1  0
  9 27  1  0
  9 28  1  0
 10 29  1  0
 10 30  1  0
 11 31  1  0
 14 32  1  0
 14 33  1  0
 16 34  1  0
 16 35  1  0
 17 36  1  0
 17 37  1  0
 18 38  1  0
M  CHG  2   2   1  11   1
M  END
>  <UniqueID>  (5) 
5

>  <SMILES>  (5) 
C[n+]1cccc(CN2CC[NH+](C(=O)CCl)CC2)c1

>  <Energy>  (5) 
48.8765811705747

>  <Genealogy>  (5) 
C[n+]1cccc(CN2CC[NH+](C(=O)CCl)CC2)c1 (protonated)
C[n+]1cccc(CN2CC[NH+](C(=O)CCl)CC2)c1 (3D coordinates assigned)
C[n+]1cccc(CN2CC[NH+](C(=O)CCl)CC2)c1 (nonaromatic ring conformer: 48.8765811705747 kcal/mol)

>  <smiles>  (5) 
C[n+]1cccc(CN2CCN(C(=O)CCl)CC2)c1

>  <score_type>  (5) 
oracle

>  <origin>  (5) 
adg

>  <m_score__min__energy>  (5) 
-3.5800000000000001

>  <m_primary>  (5) 
energy

$$$$
5:0
     RDKit          3D

 35 37  0  0  0  0  0  0  0  0999 V2000
   56.4960   26.9410   45.6410 C   0  0  0  0  0  0  0  0  0  0  0  0
   56.0900   28.2480   45.2510 O   0  0  0  0  0  0  0  0  0  0  0  0
   56.9130   29.3830   45.3100 C   0  0  0  0  0  0  0  0  0  0  0  0
   57.9810   29.3840   46.2110 C   0  0  0  0  0  0  0  0  0  0  0  0
   58.8320   30.4900   46.3040 C   0  0  0  0  0  0  0  0  0  0  0  0
   58.6540   31.6030   45.4620 C   0  0  0  0  0  0  0  0  0  0  0  0
   59.5240   32.8440   45.6110 C   0  0  1  0  0  0  0  0  0  0  0  0
   58.8640   34.1400   45.2880 C   0  0  0  0  0  0  0  0  0  0  0  0
   59.0940   34.6180   46.7200 C   0  0  0  0  0  0  0  0  0  0  0  0
   58.8760   35.6320   47.3610 O   0  0  0  0  0  0  0  0  0  0  0  0
   59.6780   33.3030   46.9840 N   0  0  2  0  0  0  0  0  0  0  0  0
   61.0610   33.4110   47.4340 C   0  0  0  0  0  0  0  0  0  0  0  0
   62.1240   33.4860   46.5010 C   0  0  0  0  0  0  0  0  0  0  0  0
   63.4490   33.5830   46.9280 C   0  0  0  0  0  0  0  0  0  0  0  0
   63.7450   33.6110   48.2890 C   0  0  0  0  0  0  0  0  0  0  0  0
   62.7150   33.5480   49.2270 C   0  0  0  0  0  0  0  0  0  0  0  0
   61.3790   33.4520   48.8160 C   0  0  0  0  0  0  0  0  0  0  0  0
   60.0480   33.4100   50.2000 Br  0  0  0  0  0  0  0  0  0  0  0  0
   57.5440   31.6220   44.6000 C   0  0  0  0  0  0  0  0  0  0  0  0
   56.6930   30.5170   44.5070 C   0  0  0  0  0  0  0  0  0  0  0  0
   56.5163   26.8757   46.7389 H   0  0  0  0  0  0  0  0  0  0  0  0
   55.7850   26.2021   45.2428 H   0  0  0  0  0  0  0  0  0  0  0  0
   57.5005   26.7350   45.2428 H   0  0  0  0  0  0  0  0  0  0  0  0
   58.1539   28.5074   46.8526 H   0  0  0  0  0  0  0  0  0  0  0  0
   59.6477   30.4897   47.0420 H   0  0  0  0  0  0  0  0  0  0  0  0
   60.3818   32.4944   45.0177 H   0  0  0  0  0  0  0  0  0  0  0  0
   59.3907   34.7342   44.5267 H   0  0  0  0  0  0  0  0  0  0  0  0
   57.8540   34.1558   44.8525 H   0  0  0  0  0  0  0  0  0  0  0  0
   59.0480   32.8160   47.6610 H   0  0  0  0  0  0  0  0  0  0  0  0
   61.9018   33.4675   45.4238 H   0  0  0  0  0  0  0  0  0  0  0  0
   64.2614   33.6375   46.1884 H   0  0  0  0  0  0  0  0  0  0  0  0
   64.7904   33.6828   48.6235 H   0  0  0  0  0  0  0  0  0  0  0  0
   62.9539   33.5739   50.3004 H   0  0  0  0  0  0  0  0  0  0  0  0
   57.3428   32.5163   43.9919 H   0  0  0  0  0  0  0  0  0  0  0  0
   55.8479   30.5342   43.8031 H   0  0  0  0  0  0  0  0  0  0  0  0
  1  2  1  0
  2  3  1  0
  3  4  2  0
  4  5  1  0
  5  6  2  0
  6  7  1  0
  7  8  1  0
  8  9  1  0
  9 10  2  0
  9 11  1  0
 11 12  1  0
 12 13  2  0
 13 14  1  0
 14 15  2  0
 15 16  1  0
 16 17  2  0
 17 18  1  0
  6 19  1  0
 19 20  2  0
 20  3  1  0
 11  7  1  0
 17 12  1  0
  1 21  1  0
  1 22  1  0
  1 23  1  0
  4 24  1  0
  5 25  1  0
  7 26  1  6
  8 27  1  0
  8 28  1  0
 11 29  1  1
 13 30  1  0
 14 31  1  0
 15 32  1  0
 16 33  1  0
 19 34  1  0
 20 35  1  0
M  CHG  1  11   1
M  END
>  <UniqueID>  (6) 
6

>  <SMILES>  (6) 
COc1ccc([C@H]2CC(=O)[N@@H+]2c2ccccc2Br)cc1

>  <Energy>  (6) 
94.73861682757347

>  <Genealogy>  (6) 
COc1ccc(C2CC(=O)[NH+]2c2ccccc2Br)cc1 (protonated)
COc1ccc([C@H]2CC(=O)[N@@H+]2c2ccccc2Br)cc1 (chirality)
COc1ccc([C@H]2CC(=O)[N@@H+]2c2ccccc2Br)cc1 (3D coordinates assigned)
COc1ccc([C@H]2CC(=O)[N@@H+]2c2ccccc2Br)cc1 (nonaromatic ring conformer: 94.73861682757347 kcal/mol)

>  <smiles>  (6) 
COc1ccc(C2CC(=O)N2c2ccccc2Br)cc1

>  <score_type>  (6) 
oracle

>  <origin>  (6) 
adg

>  <m_score__min__energy>  (6) 
-5.6699999999999999

>  <m_primary>  (6) 
energy

$$$$
6:0
     RDKit          3D

 35 38  0  0  0  0  0  0  0  0999 V2000
   63.4690   33.7420   48.3690 C   0  0  0  0  0  0  0  0  0  0  0  0
   62.3640   34.0310   49.1730 C   0  0  0  0  0  0  0  0  0  0  0  0
   61.1080   34.2340   48.5920 C   0  0  0  0  0  0  0  0  0  0  0  0
   60.9530   34.1580   47.1980 C   0  0  0  0  0  0  0  0  0  0  0  0
   59.5970   34.3360   46.5740 C   0  0  0  0  0  0  0  0  0  0  0  0
   58.9930   33.0010   46.2760 C   0  0  0  0  0  0  0  0  0  0  0  0
   59.5940   31.8180   46.5850 N   0  0  0  0  0  0  0  0  0  0  0  0
   58.8660   30.8090   46.1360 N   0  0  0  0  0  0  0  0  0  0  0  0
   59.0060   29.4830   46.1260 C   0  0  0  0  0  0  0  0  0  0  0  0
   57.8840   29.0130   45.4220 C   0  0  0  0  0  0  0  0  0  0  0  0
   57.5670   27.5930   45.1280 C   0  0  0  0  0  0  0  0  0  0  0  0
   58.0480   26.9980   43.9450 C   0  0  0  0  0  0  0  0  0  0  0  0
   57.7570   25.6620   43.6540 C   0  0  0  0  0  0  0  0  0  0  0  0
   56.9870   24.9040   44.5360 C   0  0  0  0  0  0  0  0  0  0  0  0
   56.5030   25.4800   45.7120 C   0  0  0  0  0  0  0  0  0  0  0  0
   56.7890   26.8180   46.0090 C   0  0  0  0  0  0  0  0  0  0  0  0
   57.0950   30.0550   45.0120 N   0  0  0  0  0  0  0  0  0  0  0  0
   57.7680   31.1140   45.4940 C   0  0  0  0  0  0  0  0  0  0  0  0
   57.5330   32.7730   45.3880 S   0  0  0  0  0  0  0  0  0  0  0  0
   62.0660   33.8530   46.3970 C   0  0  0  0  0  0  0  0  0  0  0  0
   63.3210   33.6510   46.9810 C   0  0  0  0  0  0  0  0  0  0  0  0
   64.4565   33.5858   48.8277 H   0  0  0  0  0  0  0  0  0  0  0  0
   62.4817   34.0990   50.2646 H   0  0  0  0  0  0  0  0  0  0  0  0
   60.2386   34.4539   49.2290 H   0  0  0  0  0  0  0  0  0  0  0  0
   58.9447   34.8840   47.2698 H   0  0  0  0  0  0  0  0  0  0  0  0
   59.7018   34.9026   45.6370 H   0  0  0  0  0  0  0  0  0  0  0  0
   60.5030   31.7070   47.0850 H   0  0  0  0  0  0  0  0  0  0  0  0
   59.8186   28.8892   46.5699 H   0  0  0  0  0  0  0  0  0  0  0  0
   58.6570   27.5890   43.2452 H   0  0  0  0  0  0  0  0  0  0  0  0
   58.1363   25.2073   42.7270 H   0  0  0  0  0  0  0  0  0  0  0  0
   56.7611   23.8525   44.3050 H   0  0  0  0  0  0  0  0  0  0  0  0
   55.8956   24.8813   46.4068 H   0  0  0  0  0  0  0  0  0  0  0  0
   56.4034   27.2665   46.9365 H   0  0  0  0  0  0  0  0  0  0  0  0
   61.9502   33.7727   45.3061 H   0  0  0  0  0  0  0  0  0  0  0  0
   64.1913   33.4207   46.3489 H   0  0  0  0  0  0  0  0  0  0  0  0
  1  2  2  0
  2  3  1  0
  3  4  2  0
  4  5  1  0
  5  6  1  0
  6  7  2  0
  7  8  1  0
  8  9  1  0
  9 10  2  0
 10 11  1  0
 11 12  2  0
 12 13  1  0
 13 14  2  0
 14 15  1  0
 15 16  2  0
 10 17  1  0
 17 18  2  0
 18 19  1  0
  4 20  1  0
 20 21  2  0
 21  1  1  0
 19  6  1  0
 18  8  1  0
 16 11  1  0
  1 22  1  0
  2 23  1  0
  3 24  1  0
  5 25  1  0
  5 26  1  0
  7 27  1  0
  9 28  1  0
 12 29  1  0
 13 30  1  0
 14 31  1  0
 15 32  1  0
 16 33  1  0
 20 34  1  0
 21 35  1  0
M  CHG  1   7   1
M  END
>  <UniqueID>  (7) 
7

>  <SMILES>  (7) 
c1ccc(Cc2[nH+]n3cc(-c4ccccc4)nc3s2)cc1

>  <Energy>  (7) 
122.64916995187173

>  <Genealogy>  (7) 
c1ccc(Cc2[nH+]n3cc(-c4ccccc4)nc3s2)cc1 (protonated)
c1ccc(Cc2[nH+]n3cc(-c4ccccc4)nc3s2)cc1 (3D coordinates assigned)
c1ccc(Cc2[nH+]n3cc(-c4ccccc4)nc3s2)cc1 (optimized conformer: 122.64916995187173 kcal/mol)

>  <smiles>  (7) 
c1ccc(Cc2nn3cc(-c4ccccc4)nc3s2)cc1

>  <score_type>  (7) 
oracle

>  <origin>  (7) 
adg

>  <m_score__min__energy>  (7) 
-6.2400000000000002

>  <m_primary>  (7) 
energy

$$$$
7:0
     RDKit          3D

 58 61  0  0  0  0  0  0  0  0999 V2000
   57.4460   31.2560   44.8980 C   0  0  0  0  0  0  0  0  0  0  0  0
   56.3710   30.3380   44.4790 N   0  0  0  0  0  0  0  0  0  0  0  0
   56.2890   30.3240   43.0090 C   0  0  0  0  0  0  0  0  0  0  0  0
   56.6080   28.9710   44.9930 C   0  0  0  0  0  0  0  0  0  0  0  0
   57.6510   28.2460   44.1290 C   0  0  0  0  0  0  0  0  0  0  0  0
   58.0110   26.8660   44.6980 C   0  0  0  0  0  0  0  0  0  0  0  0
   58.9600   26.9760   45.8200 N   0  0  0  0  0  0  0  0  0  0  0  0
   59.5570   25.7550   46.3780 C   0  0  0  0  0  0  0  0  0  0  0  0
   59.3370   28.2820   46.3200 C   0  0  0  0  0  0  0  0  0  0  0  0
   60.3960   29.0160   45.7530 C   0  0  0  0  0  0  0  0  0  0  0  0
   60.7280   30.2680   46.2730 C   0  0  0  0  0  0  0  0  0  0  0  0
   60.0150   30.7900   47.3580 C   0  0  0  0  0  0  0  0  0  0  0  0
   60.3460   32.1270   47.9030 C   0  0  0  0  0  0  0  0  0  0  0  0
   59.3790   33.1390   47.8130 C   0  0  0  0  0  0  0  0  0  0  0  0
   59.6350   34.3980   48.3550 C   0  0  0  0  0  0  0  0  0  0  0  0
   60.8210   34.6500   48.9640 N   0  0  0  0  0  0  0  0  0  0  0  0
   61.7940   33.7070   49.0610 C   0  0  0  0  0  0  0  0  0  0  0  0
   63.0030   34.0270   49.6900 C   0  0  0  0  0  0  0  0  0  0  0  0
   64.0340   33.0770   49.7840 C   0  0  0  0  0  0  0  0  0  0  0  0
   65.3130   33.4230   50.4520 C   0  0  0  0  0  0  0  0  0  0  0  0
   65.3130   34.0920   51.6890 C   0  0  0  0  0  0  0  0  0  0  0  0
   66.5250   34.4170   52.2980 C   0  0  0  0  0  0  0  0  0  0  0  0
   67.7250   34.0770   51.6790 C   0  0  0  0  0  0  0  0  0  0  0  0
   67.6970   33.4130   50.4520 C   0  0  0  0  0  0  0  0  0  0  0  0
   66.5070   33.1030   49.8670 N   0  0  0  0  0  0  0  0  0  0  0  0
   63.8370   31.8020   49.2290 C   0  0  0  0  0  0  0  0  0  0  0  0
   62.6340   31.4740   48.6010 C   0  0  0  0  0  0  0  0  0  0  0  0
   61.5880   32.4140   48.5230 C   0  0  0  0  0  0  0  0  0  0  0  0
   58.9570   30.0420   47.8880 C   0  0  0  0  0  0  0  0  0  0  0  0
   58.6510   28.8260   47.3660 N   0  0  0  0  0  0  0  0  0  0  0  0
   57.4892   31.2929   45.9965 H   0  0  0  0  0  0  0  0  0  0  0  0
   58.4086   30.8970   44.5050 H   0  0  0  0  0  0  0  0  0  0  0  0
   57.2421   32.2630   44.5050 H   0  0  0  0  0  0  0  0  0  0  0  0
   55.2479   30.1462   42.7015 H   0  0  0  0  0  0  0  0  0  0  0  0
   56.6278   31.2930   42.6136 H   0  0  0  0  0  0  0  0  0  0  0  0
   56.9301   29.5223   42.6136 H   0  0  0  0  0  0  0  0  0  0  0  0
   56.9744   29.0318   46.0284 H   0  0  0  0  0  0  0  0  0  0  0  0
   55.6633   28.4085   44.9581 H   0  0  0  0  0  0  0  0  0  0  0  0
   57.2443   28.1169   43.1151 H   0  0  0  0  0  0  0  0  0  0  0  0
   58.5655   28.8572   44.1163 H   0  0  0  0  0  0  0  0  0  0  0  0
   57.0929   26.3750   45.0531 H   0  0  0  0  0  0  0  0  0  0  0  0
   58.4863   26.2767   43.9001 H   0  0  0  0  0  0  0  0  0  0  0  0
   59.5330   25.8041   47.4766 H   0  0  0  0  0  0  0  0  0  0  0  0
   58.9856   24.8788   46.0376 H   0  0  0  0  0  0  0  0  0  0  0  0
   60.5994   25.6679   46.0376 H   0  0  0  0  0  0  0  0  0  0  0  0
   60.9599   28.6042   44.9030 H   0  0  0  0  0  0  0  0  0  0  0  0
   61.5520   30.8457   45.8289 H   0  0  0  0  0  0  0  0  0  0  0  0
   58.4188   32.9395   47.3149 H   0  0  0  0  0  0  0  0  0  0  0  0
   58.8734   35.1890   48.2887 H   0  0  0  0  0  0  0  0  0  0  0  0
   63.1472   35.0315   50.1146 H   0  0  0  0  0  0  0  0  0  0  0  0
   64.3620   34.3576   52.1738 H   0  0  0  0  0  0  0  0  0  0  0  0
   66.5328   34.9408   53.2652 H   0  0  0  0  0  0  0  0  0  0  0  0
   68.6853   34.3293   52.1524 H   0  0  0  0  0  0  0  0  0  0  0  0
   68.6396   33.1390   49.9555 H   0  0  0  0  0  0  0  0  0  0  0  0
   66.5270   32.5880   48.9580 H   0  0  0  0  0  0  0  0  0  0  0  0
   64.6402   31.0528   49.2898 H   0  0  0  0  0  0  0  0  0  0  0  0
   62.5020   30.4734   48.1636 H   0  0  0  0  0  0  0  0  0  0  0  0
   58.3717   30.4403   48.7299 H   0  0  0  0  0  0  0  0  0  0  0  0
  1  2  1  0
  2  3  1  0
  2  4  1  0
  4  5  1  0
  5  6  1  0
  6  7  1  0
  7  8  1  0
  7  9  1  0
  9 10  2  0
 10 11  1  0
 11 12  2  0
 12 13  1  0
 13 14  2  0
 14 15  1  0
 15 16  2  0
 16 17  1  0
 17 18  2  0
 18 19  1  0
 19 20  1  0
 20 21  2  0
 21 22  1  0
 22 23  2  0
 23 24  1  0
 24 25  2  0
 19 26  2  0
 26 27  1  0
 27 28  2  0
 12 29  1  0
 29 30  2  0
 30  9  1  0
 28 13  1  0
 28 17  1  0
 25 20  1  0
  1 31  1  0
  1 32  1  0
  1 33  1  0
  3 34  1  0
  3 35  1  0
  3 36  1  0
  4 37  1  0
  4 38  1  0
  5 39  1  0
  5 40  1  0
  6 41  1  0
  6 42  1  0
  8 43  1  0
  8 44  1  0
  8 45  1  0
 10 46  1  0
 11 47  1  0
 14 48  1  0
 15 49  1  0
 18 50  1  0
 21 51  1  0
 22 52  1  0
 23 53  1  0
 24 54  1  0
 25 55  1  0
 26 56  1  0
 27 57  1  0
 29 58  1  0
M  CHG  1  25   1
M  END
>  <UniqueID>  (8) 
8

>  <SMILES>  (8) 
CN(C)CCCN(C)c1ccc(-c2ccnc3cc(-c4cccc[nH+]4)ccc23)cn1

>  <Energy>  (8) 
76.2754601236748

>  <Genealogy>  (8) 
CN(C)CCCN(C)c1ccc(-c2ccnc3cc(-c4cccc[nH+]4)ccc23)cn1 (protonated)
CN(C)CCCN(C)c1ccc(-c2ccnc3cc(-c4cccc[nH+]4)ccc23)cn1 (3D coordinates assigned)
CN(C)CCCN(C)c1ccc(-c2ccnc3cc(-c4cccc[nH+]4)ccc23)cn1 (optimized conformer: 76.2754601236748 kcal/mol)

>  <smiles>  (8) 
CN(C)CCCN(C)c1ccc(-c2ccnc3cc(-c4ccccn4)ccc23)cn1

>  <score_type>  (8) 
oracle

>  <origin>  (8) 
adg

>  <m_score__min__energy>  (8) 
-6.7699999999999996

>  <m_primary>  (8) 
energy

$$$$
8:0
     RDKit          3D

 44 45  0  0  0  0  0  0  0  0999 V2000
   64.1280   32.5350   49.0150 C   0  0  0  0  0  0  0  0  0  0  0  0
   63.4100   33.0970   49.9900 C   0  0  0  0  0  0  0  0  0  0  0  0
   62.9480   34.5230   49.9010 C   0  0  0  0  0  0  0  0  0  0  0  0
   61.5330   34.5890   49.7190 O   0  0  0  0  0  0  0  0  0  0  0  0
   60.8280   34.0380   48.6360 C   0  0  0  0  0  0  0  0  0  0  0  0
   61.4390   33.7400   47.4030 C   0  0  0  0  0  0  0  0  0  0  0  0
   60.6900   33.1890   46.3590 C   0  0  0  0  0  0  0  0  0  0  0  0
   59.3210   32.9250   46.5240 C   0  0  0  0  0  0  0  0  0  0  0  0
   58.5420   32.3310   45.4110 C   0  0  0  0  0  0  0  0  0  0  0  0
   58.4980   32.9670   44.1580 C   0  0  0  0  0  0  0  0  0  0  0  0
   57.7650   32.4080   43.1080 C   0  0  0  0  0  0  0  0  0  0  0  0
   57.0810   31.2040   43.2910 C   0  0  0  0  0  0  0  0  0  0  0  0
   57.1440   30.5400   44.5250 C   0  0  0  0  0  0  0  0  0  0  0  0
   56.4080   29.2790   44.7190 C   0  0  0  0  0  0  0  0  0  0  0  0
   55.1580   29.3200   44.8600 O   0  0  0  0  0  0  0  0  0  0  0  0
   57.0660   28.0070   44.7640 N   0  0  0  0  0  0  0  0  0  0  0  0
   56.7460   26.7330   45.9030 S   0  0  0  0  0  0  0  0  0  0  0  0
   57.3160   27.0600   47.2540 O   0  0  0  0  0  0  0  0  0  0  0  0
   55.2550   26.5990   46.0390 O   0  0  0  0  0  0  0  0  0  0  0  0
   57.4020   25.2240   45.3170 N   0  0  0  0  0  0  0  0  0  0  0  0
   57.3920   25.2170   43.8490 C   0  0  0  0  0  0  0  0  0  0  0  0
   58.7770   25.0710   45.8100 C   0  0  0  0  0  0  0  0  0  0  0  0
   57.8550   31.1180   45.5870 C   0  0  0  0  0  0  0  0  0  0  0  0
   58.7100   33.2310   47.7560 C   0  0  0  0  0  0  0  0  0  0  0  0
   57.3800   33.0320   47.9410 F   0  0  0  0  0  0  0  0  0  0  0  0
   59.4620   33.7820   48.7970 C   0  0  0  0  0  0  0  0  0  0  0  0
   64.4539   31.4883   49.1053 H   0  0  0  0  0  0  0  0  0  0  0  0
   64.3938   33.1186   48.1213 H   0  0  0  0  0  0  0  0  0  0  0  0
   63.1510   32.5023   50.8784 H   0  0  0  0  0  0  0  0  0  0  0  0
   63.2167   35.0474   50.8299 H   0  0  0  0  0  0  0  0  0  0  0  0
   63.4363   34.9978   49.0372 H   0  0  0  0  0  0  0  0  0  0  0  0
   62.5109   33.9417   47.2604 H   0  0  0  0  0  0  0  0  0  0  0  0
   61.1776   32.9603   45.3999 H   0  0  0  0  0  0  0  0  0  0  0  0
   59.0435   33.9096   44.0034 H   0  0  0  0  0  0  0  0  0  0  0  0
   57.7265   32.9178   42.1340 H   0  0  0  0  0  0  0  0  0  0  0  0
   56.4922   30.7760   42.4664 H   0  0  0  0  0  0  0  0  0  0  0  0
   56.5399   24.6205   43.4910 H   0  0  0  0  0  0  0  0  0  0  0  0
   57.2992   26.2484   43.4780 H   0  0  0  0  0  0  0  0  0  0  0  0
   58.3294   24.7768   43.4780 H   0  0  0  0  0  0  0  0  0  0  0  0
   58.7743   25.0713   46.9100 H   0  0  0  0  0  0  0  0  0  0  0  0
   59.1939   24.1209   45.4446 H   0  0  0  0  0  0  0  0  0  0  0  0
   59.3926   25.9062   45.4446 H   0  0  0  0  0  0  0  0  0  0  0  0
   57.8749   30.6173   46.5662 H   0  0  0  0  0  0  0  0  0  0  0  0
   58.9741   34.0173   49.7544 H   0  0  0  0  0  0  0  0  0  0  0  0
  1  2  2  0
  2  3  1  0
  3  4  1  0
  4  5  1  0
  5  6  2  0
  6  7  1  0
  7  8  2  0
  8  9  1  0
  9 10  2  0
 10 11  1  0
 11 12  2  0
 12 13  1  0
 13 14  1  0
 14 15  2  0
 14 16  1  0
 16 17  1  0
 17 18  2  0
 17 19  2  0
 17 20  1  0
 20 21  1  0
 20 22  1  0
 13 23  2  0
  8 24  1  0
 24 25  1  0
 24 26  2  0
 26  5  1  0
 23  9  1  0
  1 27  1  0
  1 28  1  0
  2 29  1  0
  3 30  1  0
  3 31  1  0
  6 32  1  0
  7 33  1  0
 10 34  1  0
 11 35  1  0
 12 36  1  0
 21 37  1  0
 21 38  1  0
 21 39  1  0
 22 40  1  0
 22 41  1  0
 22 42  1  0
 23 43  1  0
 26 44  1  0
M  CHG  1  16  -1
M  END
>  <UniqueID>  (9) 
9

>  <SMILES>  (9) 
C=CCOc1ccc(-c2cccc(C(=O)[N-]S(=O)(=O)N(C)C)c2)c(F)c1

>  <Energy>  (9) 
52.76922765645342

>  <Genealogy>  (9) 
C=CCOc1ccc(-c2cccc(C(=O)[N-]S(=O)(=O)N(C)C)c2)c(F)c1 (protonated)
C=CCOc1ccc(-c2cccc(C(=O)[N-]S(=O)(=O)N(C)C)c2)c(F)c1 (3D coordinates assigned)
C=CCOc1ccc(-c2cccc(C(=O)[N-]S(=O)(=O)N(C)C)c2)c(F)c1 (optimized conformer: 52.76922765645342 kcal/mol)

>  <smiles>  (9) 
C=CCOc1ccc(-c2cccc(C(=O)NS(=O)(=O)N(C)C)c2)c(F)c1

>  <score_type>  (9) 
oracle

>  <origin>  (9) 
adg

>  <m_score__min__energy>  (9) 
-9.9700000000000006

>  <m_primary>  (9) 
energy

$$$$
9:0
     RDKit          3D

 37 38  0  0  0  0  0  0  0  0999 V2000
   56.2700   29.3410   42.5990 C   0  0  0  0  0  0  0  0  0  0  0  0
   56.2580   30.1250   43.8790 C   0  0  0  0  0  0  0  0  0  0  0  0
   55.5860   29.7240   44.8160 O   0  0  0  0  0  0  0  0  0  0  0  0
   57.0590   31.3920   44.0310 C   0  0  0  0  0  0  0  0  0  0  0  0
   57.4650   31.5740   45.4420 N   0  0  0  0  0  0  0  0  0  0  0  0
   57.2470   32.9790   45.8720 C   0  0  0  0  0  0  0  0  0  0  0  0
   58.3490   33.4210   46.7920 C   0  0  0  0  0  0  0  0  0  0  0  0
   59.3750   34.2630   46.3360 C   0  0  0  0  0  0  0  0  0  0  0  0
   60.3960   34.6340   47.2120 C   0  0  0  0  0  0  0  0  0  0  0  0
   60.3790   34.1820   48.5320 C   0  0  0  0  0  0  0  0  0  0  0  0
   59.3300   33.3650   48.9590 C   0  0  0  0  0  0  0  0  0  0  0  0
   58.3470   33.0080   48.0910 N   0  0  0  0  0  0  0  0  0  0  0  0
   58.8770   31.1600   45.6230 C   0  0  0  0  0  0  0  0  0  0  0  0
   58.9970   29.6580   45.7450 C   0  0  0  0  0  0  0  0  0  0  0  0
   59.0540   28.8920   44.5680 C   0  0  0  0  0  0  0  0  0  0  0  0
   59.1120   27.4980   44.6280 C   0  0  0  0  0  0  0  0  0  0  0  0
   59.1180   26.8520   45.8640 C   0  0  0  0  0  0  0  0  0  0  0  0
   59.0720   27.5980   47.0430 C   0  0  0  0  0  0  0  0  0  0  0  0
   59.0130   28.9970   46.9960 C   0  0  0  0  0  0  0  0  0  0  0  0
   58.9340   29.8680   48.5240 Cl  0  0  0  0  0  0  0  0  0  0  0  0
   56.2865   28.2652   42.8281 H   0  0  0  0  0  0  0  0  0  0  0  0
   55.3681   29.5779   42.0155 H   0  0  0  0  0  0  0  0  0  0  0  0
   57.1642   29.6054   42.0155 H   0  0  0  0  0  0  0  0  0  0  0  0
   57.9575   31.3317   43.3993 H   0  0  0  0  0  0  0  0  0  0  0  0
   56.4396   32.2472   43.7227 H   0  0  0  0  0  0  0  0  0  0  0  0
   57.2308   33.6310   44.9862 H   0  0  0  0  0  0  0  0  0  0  0  0
   56.2878   33.0443   46.4064 H   0  0  0  0  0  0  0  0  0  0  0  0
   59.3744   34.6271   45.2980 H   0  0  0  0  0  0  0  0  0  0  0  0
   61.2132   35.2820   46.8623 H   0  0  0  0  0  0  0  0  0  0  0  0
   61.1822   34.4658   49.2279 H   0  0  0  0  0  0  0  0  0  0  0  0
   59.2993   33.0098   49.9996 H   0  0  0  0  0  0  0  0  0  0  0  0
   59.4634   31.4972   44.7556 H   0  0  0  0  0  0  0  0  0  0  0  0
   59.2565   31.6153   46.5496 H   0  0  0  0  0  0  0  0  0  0  0  0
   59.0529   29.3954   43.5900 H   0  0  0  0  0  0  0  0  0  0  0  0
   59.1530   26.9091   43.6998 H   0  0  0  0  0  0  0  0  0  0  0  0
   59.1590   25.7537   45.9099 H   0  0  0  0  0  0  0  0  0  0  0  0
   59.0821   27.0840   48.0155 H   0  0  0  0  0  0  0  0  0  0  0  0
  1  2  1  0
  2  3  2  0
  2  4  1  0
  4  5  1  0
  5  6  1  0
  6  7  1  0
  7  8  2  0
  8  9  1  0
  9 10  2  0
 10 11  1  0
 11 12  2  0
  5 13  1  0
 13 14  1  0
 14 15  2  0
 15 16  1  0
 16 17  2  0
 17 18  1  0
 18 19  2  0
 19 20  1  0
 12  7  1  0
 19 14  1  0
  1 21  1  0
  1 22  1  0
  1 23  1  0
  4 24  1  0
  4 25  1  0
  6 26  1  0
  6 27  1  0
  8 28  1  0
  9 29  1  0
 10 30  1  0
 11 31  1  0
 13 32  1  0
 13 33  1  0
 15 34  1  0
 16 35  1  0
 17 36  1  0
 18 37  1  0
M  END
>  <UniqueID>  (10) 
10

>  <SMILES>  (10) 
CC(=O)CN(Cc1ccccn1)Cc1ccccc1Cl

>  <Energy>  (10) 
35.54743934531626

>  <Genealogy>  (10) 
CC(=O)CN(Cc1ccccn1)Cc1ccccc1Cl (3D coordinates assigned)
CC(=O)CN(Cc1ccccn1)Cc1ccccc1Cl (optimized conformer: 35.54743934531626 kcal/mol)

>  <smiles>  (10) 
CC(=O)CN(Cc1ccccn1)Cc1ccccc1Cl

>  <score_type>  (10) 
oracle

>  <origin>  (10) 
adg

>  <m_score__min__energy>  (10) 
-7.2000000000000002

>  <m_primary>  (10) 
energy

$$$$
10:0
     RDKit          3D

 43 46  0  0  0  0  0  0  0  0999 V2000
   57.7500   27.9230   43.3740 C   0  0  0  0  0  0  0  0  0  0  0  0
   56.8360   28.9630   43.0460 O   0  0  0  0  0  0  0  0  0  0  0  0
   56.4580   29.9530   43.9600 C   0  0  0  0  0  0  0  0  0  0  0  0
   55.3510   29.8600   44.5590 O   0  0  0  0  0  0  0  0  0  0  0  0
   57.3680   31.0880   44.2780 C   0  0  0  0  0  0  0  0  0  0  0  0
   57.7800   31.9770   43.3400 C   0  0  0  0  0  0  0  0  0  0  0  0
   57.3480   31.9130   41.9030 C   0  0  0  0  0  0  0  0  0  0  0  0
   58.6300   33.0310   43.6850 O   0  0  0  0  0  0  0  0  0  0  0  0
   58.9700   33.3400   45.0000 C   0  0  0  0  0  0  0  0  0  0  0  0
   59.6960   34.5040   45.2480 C   0  0  0  0  0  0  0  0  0  0  0  0
   60.0280   34.8650   46.5500 C   0  0  0  0  0  0  0  0  0  0  0  0
   59.6320   34.0630   47.6270 C   0  0  0  0  0  0  0  0  0  0  0  0
   59.9690   34.4390   48.9370 C   0  0  0  0  0  0  0  0  0  0  0  0
   59.5850   33.6450   50.0180 C   0  0  0  0  0  0  0  0  0  0  0  0
   58.8620   32.4740   49.8030 C   0  0  0  0  0  0  0  0  0  0  0  0
   58.5180   32.0850   48.5060 C   0  0  0  0  0  0  0  0  0  0  0  0
   58.8970   32.8680   47.3920 C   0  0  0  0  0  0  0  0  0  0  0  0
   58.5720   32.4990   46.0540 C   0  0  0  0  0  0  0  0  0  0  0  0
   57.8870   31.1820   45.7090 C   0  0  2  0  0  0  0  0  0  0  0  0
   58.8300   30.0180   45.9620 C   0  0  0  0  0  0  0  0  0  0  0  0
   58.6550   29.1980   47.0920 C   0  0  0  0  0  0  0  0  0  0  0  0
   59.5050   28.1110   47.3140 C   0  0  0  0  0  0  0  0  0  0  0  0
   60.5290   27.8250   46.4090 C   0  0  0  0  0  0  0  0  0  0  0  0
   60.7020   28.6230   45.2760 C   0  0  0  0  0  0  0  0  0  0  0  0
   59.8550   29.7100   45.0480 C   0  0  0  0  0  0  0  0  0  0  0  0
   57.8277   27.8346   44.4677 H   0  0  0  0  0  0  0  0  0  0  0  0
   57.3898   26.9723   42.9539 H   0  0  0  0  0  0  0  0  0  0  0  0
   58.7391   28.1581   42.9539 H   0  0  0  0  0  0  0  0  0  0  0  0
   56.2610   31.7520   41.8537 H   0  0  0  0  0  0  0  0  0  0  0  0
   57.6017   32.8585   41.4014 H   0  0  0  0  0  0  0  0  0  0  0  0
   57.8649   31.0816   41.4014 H   0  0  0  0  0  0  0  0  0  0  0  0
   60.0087   35.1418   44.4081 H   0  0  0  0  0  0  0  0  0  0  0  0
   60.6038   35.7840   46.7339 H   0  0  0  0  0  0  0  0  0  0  0  0
   60.5384   35.3638   49.1119 H   0  0  0  0  0  0  0  0  0  0  0  0
   59.8537   33.9442   51.0419 H   0  0  0  0  0  0  0  0  0  0  0  0
   58.5603   31.8523   50.6588 H   0  0  0  0  0  0  0  0  0  0  0  0
   57.9456   31.1587   48.3500 H   0  0  0  0  0  0  0  0  0  0  0  0
   57.0065   31.1382   46.3669 H   0  0  0  0  0  0  0  0  0  0  0  0
   57.8450   29.4136   47.8043 H   0  0  0  0  0  0  0  0  0  0  0  0
   59.3669   27.4793   48.2039 H   0  0  0  0  0  0  0  0  0  0  0  0
   61.1993   26.9714   46.5883 H   0  0  0  0  0  0  0  0  0  0  0  0
   61.5069   28.3950   44.5617 H   0  0  0  0  0  0  0  0  0  0  0  0
   59.9899   30.3290   44.1488 H   0  0  0  0  0  0  0  0  0  0  0  0
  1  2  1  0
  2  3  1  0
  3  4  2  0
  3  5  1  0
  5  6  2  0
  6  7  1  0
  6  8  1  0
  8  9  1  0
  9 10  2  0
 10 11  1  0
 11 12  2  0
 12 13  1  0
 13 14  2  0
 14 15  1  0
 15 16  2  0
 16 17  1  0
 17 18  2  0
 18 19  1  0
 19 20  1  0
 20 21  2  0
 21 22  1  0
 22 23  2  0
 23 24  1  0
 24 25  2  0
 19  5  1  0
 25 20  1  0
 18  9  1  0
 17 12  1  0
  1 26  1  0
  1 27  1  0
  1 28  1  0
  7 29  1  0
  7 30  1  0
  7 31  1  0
 10 32  1  0
 11 33  1  0
 13 34  1  0
 14 35  1  0
 15 36  1  0
 16 37  1  0
 19 38  1  1
 21 39  1  0
 22 40  1  0
 23 41  1  0
 24 42  1  0
 25 43  1  0
M  END
>  <UniqueID>  (11) 
11

>  <SMILES>  (11) 
COC(=O)C1=C(C)Oc2ccc3ccccc3c2[C@@H]1c1ccccc1

>  <Energy>  (11) 
57.16600648474902

>  <Genealogy>  (11) 
COC(=O)C1=C(C)Oc2ccc3ccccc3c2[C@@H]1c1ccccc1 (chirality)
COC(=O)C1=C(C)Oc2ccc3ccccc3c2[C@@H]1c1ccccc1 (3D coordinates assigned)
COC(=O)C1=C(C)Oc2ccc3ccccc3c2[C@@H]1c1ccccc1 (nonaromatic ring conformer: 57.16600648474902 kcal/mol)

>  <smiles>  (11) 
COC(=O)C1=C(C)Oc2ccc3ccccc3c2C1c1ccccc1

>  <score_type>  (11) 
oracle

>  <origin>  (11) 
adg

>  <m_score__min__energy>  (11) 
-8.8800000000000008

>  <m_primary>  (11) 
energy

$$$$
11:0
     RDKit          3D

 50 52  0  0  0  0  0  0  0  0999 V2000
   55.6470   24.5690   45.3160 C   0  0  0  0  0  0  0  0  0  0  0  0
   55.5230   25.8950   45.8180 O   0  0  0  0  0  0  0  0  0  0  0  0
   56.6040   26.6980   46.2110 C   0  0  0  0  0  0  0  0  0  0  0  0
   57.5460   26.2800   47.1700 C   0  0  0  0  0  0  0  0  0  0  0  0
   58.6070   27.1170   47.5270 C   0  0  0  0  0  0  0  0  0  0  0  0
   58.7430   28.3850   46.9390 C   0  0  0  0  0  0  0  0  0  0  0  0
   59.8350   29.2510   47.3020 N   0  0  0  0  0  0  0  0  0  0  0  0
   60.3600   29.2290   48.6720 C   0  0  0  0  0  0  0  0  0  0  0  0
   60.8370   30.6310   49.0700 C   0  0  0  0  0  0  0  0  0  0  0  0
   61.7760   31.1670   48.0610 N   0  0  0  0  0  0  0  0  0  0  0  0
   62.4590   32.4250   48.4760 C   0  0  0  0  0  0  0  0  0  0  0  0
   61.9180   33.7590   47.8910 C   0  0  0  0  0  0  0  0  0  0  0  0
   60.4960   34.1620   48.3190 C   0  0  0  0  0  0  0  0  0  0  0  0
   59.4860   34.0340   47.2040 C   0  0  0  0  0  0  0  0  0  0  0  0
   58.3330   33.2480   47.3790 C   0  0  0  0  0  0  0  0  0  0  0  0
   57.3940   33.1330   46.3500 C   0  0  0  0  0  0  0  0  0  0  0  0
   57.5980   33.7960   45.1370 C   0  0  0  0  0  0  0  0  0  0  0  0
   58.7460   34.5720   44.9500 C   0  0  0  0  0  0  0  0  0  0  0  0
   59.6890   34.6870   45.9760 C   0  0  0  0  0  0  0  0  0  0  0  0
   61.1220   31.2700   46.7390 C   0  0  0  0  0  0  0  0  0  0  0  0
   60.6480   29.8900   46.2610 C   0  0  0  0  0  0  0  0  0  0  0  0
   57.8040   28.7980   45.9810 C   0  0  0  0  0  0  0  0  0  0  0  0
   56.7440   27.9590   45.6230 C   0  0  0  0  0  0  0  0  0  0  0  0
   55.7130   23.8632   46.1571 H   0  0  0  0  0  0  0  0  0  0  0  0
   54.7677   24.3259   44.7015 H   0  0  0  0  0  0  0  0  0  0  0  0
   56.5562   24.4931   44.7015 H   0  0  0  0  0  0  0  0  0  0  0  0
   57.4467   25.2906   47.6403 H   0  0  0  0  0  0  0  0  0  0  0  0
   59.3408   26.7800   48.2740 H   0  0  0  0  0  0  0  0  0  0  0  0
   59.5669   28.9040   49.3615 H   0  0  0  0  0  0  0  0  0  0  0  0
   61.2073   28.5295   48.7242 H   0  0  0  0  0  0  0  0  0  0  0  0
   59.9676   31.3005   49.1465 H   0  0  0  0  0  0  0  0  0  0  0  0
   61.3549   30.5679   50.0384 H   0  0  0  0  0  0  0  0  0  0  0  0
   62.5480   30.4630   47.9560 H   0  0  0  0  0  0  0  0  0  0  0  0
   62.3886   32.4926   49.5717 H   0  0  0  0  0  0  0  0  0  0  0  0
   63.4798   32.3360   48.0760 H   0  0  0  0  0  0  0  0  0  0  0  0
   62.6020   34.5629   48.2005 H   0  0  0  0  0  0  0  0  0  0  0  0
   61.8647   33.6030   46.8034 H   0  0  0  0  0  0  0  0  0  0  0  0
   60.1835   33.5141   49.1512 H   0  0  0  0  0  0  0  0  0  0  0  0
   60.5287   35.2213   48.6135 H   0  0  0  0  0  0  0  0  0  0  0  0
   58.1693   32.7210   48.3306 H   0  0  0  0  0  0  0  0  0  0  0  0
   56.4927   32.5194   46.4954 H   0  0  0  0  0  0  0  0  0  0  0  0
   56.8560   33.7075   44.3298 H   0  0  0  0  0  0  0  0  0  0  0  0
   58.9075   35.0927   43.9946 H   0  0  0  0  0  0  0  0  0  0  0  0
   60.5947   35.2918   45.8213 H   0  0  0  0  0  0  0  0  0  0  0  0
   60.2554   31.9431   46.8159 H   0  0  0  0  0  0  0  0  0  0  0  0
   61.8485   31.6659   46.0141 H   0  0  0  0  0  0  0  0  0  0  0  0
   60.0449   30.0077   45.3486 H   0  0  0  0  0  0  0  0  0  0  0  0
   61.5246   29.2601   46.0496 H   0  0  0  0  0  0  0  0  0  0  0  0
   57.9024   29.7868   45.5093 H   0  0  0  0  0  0  0  0  0  0  0  0
   56.0136   28.2941   44.8719 H   0  0  0  0  0  0  0  0  0  0  0  0
  1  2  1  0
  2  3  1  0
  3  4  2  0
  4  5  1  0
  5  6  2  0
  6  7  1  0
  7  8  1  0
  8  9  1  0
  9 10  1  0
 10 11  1  0
 11 12  1  0
 12 13  1  0
 13 14  1  0
 14 15  2  0
 15 16  1  0
 16 17  2  0
 17 18  1  0
 18 19  2  0
 10 20  1  0
 20 21  1  0
  6 22  1  0
 22 23  2  0
 23  3  1  0
 21  7  1  0
 19 14  1  0
  1 24  1  0
  1 25  1  0
  1 26  1  0
  4 27  1  0
  5 28  1  0
  8 29  1  0
  8 30  1  0
  9 31  1  0
  9 32  1  0
 10 33  1  0
 11 34  1  0
 11 35  1  0
 12 36  1  0
 12 37  1  0
 13 38  1  0
 13 39  1  0
 15 40  1  0
 16 41  1  0
 17 42  1  0
 18 43  1  0
 19 44  1  0
 20 45  1  0
 20 46  1  0
 21 47  1  0
 21 48  1  0
 22 49  1  0
 23 50  1  0
M  CHG  1  10   1
M  END
>  <UniqueID>  (12) 
12

>  <SMILES>  (12) 
COc1ccc(N2CC[NH+](CCCc3ccccc3)CC2)cc1

>  <Energy>  (12) 
60.04799471105805

>  <Genealogy>  (12) 
COc1ccc(N2CC[NH+](CCCc3ccccc3)CC2)cc1 (protonated)
COc1ccc(N2CC[NH+](CCCc3ccccc3)CC2)cc1 (3D coordinates assigned)
COc1ccc(N2CC[NH+](CCCc3ccccc3)CC2)cc1 (nonaromatic ring conformer: 60.04799471105805 kcal/mol)

>  <smiles>  (12) 
COc1ccc(N2CCN(CCCc3ccccc3)CC2)cc1

>  <score_type>  (12) 
oracle

>  <origin>  (12) 
adg

>  <m_score__min__energy>  (12) 
-5.71

>  <m_primary>  (12) 
energy

$$$$
12:0
     RDKit          3D

 64 65  0  0  0  0  0  0  0  0999 V2000
   61.1010   27.6660   50.7920 C   0  0  0  0  0  0  0  0  0  0  0  0
   60.3010   28.2890   49.7920 O   0  0  0  0  0  0  0  0  0  0  0  0
   59.7160   29.5600   49.9170 C   0  0  0  0  0  0  0  0  0  0  0  0
   58.8640   29.8800   50.9950 C   0  0  0  0  0  0  0  0  0  0  0  0
   58.2900   31.1480   51.0890 C   0  0  0  0  0  0  0  0  0  0  0  0
   58.5520   32.1110   50.1150 C   0  0  0  0  0  0  0  0  0  0  0  0
   59.3910   31.8090   49.0450 C   0  0  0  0  0  0  0  0  0  0  0  0
   59.9820   30.5390   48.9370 C   0  0  0  0  0  0  0  0  0  0  0  0
   60.8410   30.2360   47.7310 C   0  0  0  0  0  0  0  0  0  0  0  0
   59.9910   29.9620   46.5650 N   0  0  0  0  0  0  0  0  0  0  0  0
   58.6380   29.5590   46.9700 C   0  0  0  0  0  0  0  0  0  0  0  0
   58.4280   28.0570   46.7340 C   0  0  0  0  0  0  0  0  0  0  0  0
   57.3900   27.7510   45.6380 C   0  0  0  0  0  0  0  0  0  0  0  0
   58.0290   27.4850   44.2590 C   0  0  0  0  0  0  0  0  0  0  0  0
   57.3870   28.2730   43.1900 N   0  0  0  0  0  0  0  0  0  0  0  0
   56.5770   29.3810   43.7280 C   0  0  0  0  0  0  0  0  0  0  0  0
   57.0460   30.7240   43.1490 C   0  0  0  0  0  0  0  0  0  0  0  0
   57.0820   31.8350   44.2090 C   0  0  0  0  0  0  0  0  0  0  0  0
   58.3350   31.8180   44.9650 N   0  0  0  0  0  0  0  0  0  0  0  0
   58.8400   32.9340   45.7190 C   0  0  0  0  0  0  0  0  0  0  0  0
   57.8580   34.1920   46.1230 S   0  0  0  0  0  0  0  0  0  0  0  0
   60.1820   32.8740   46.2270 N   0  0  0  0  0  0  0  0  0  0  0  0
   61.0230   34.0580   46.3950 C   0  0  0  0  0  0  0  0  0  0  0  0
   62.0070   33.8330   47.5120 C   0  0  0  0  0  0  0  0  0  0  0  0
   61.6910   34.2360   48.8200 C   0  0  0  0  0  0  0  0  0  0  0  0
   62.5870   33.9950   49.8660 C   0  0  0  0  0  0  0  0  0  0  0  0
   63.7950   33.3370   49.6170 C   0  0  0  0  0  0  0  0  0  0  0  0
   64.1110   32.9180   48.3210 C   0  0  0  0  0  0  0  0  0  0  0  0
   63.2200   33.1600   47.2710 C   0  0  0  0  0  0  0  0  0  0  0  0
   60.7324   27.9530   51.7879 H   0  0  0  0  0  0  0  0  0  0  0  0
   61.0424   26.5733   50.6803 H   0  0  0  0  0  0  0  0  0  0  0  0
   62.1461   27.9905   50.6803 H   0  0  0  0  0  0  0  0  0  0  0  0
   58.6510   29.1250   51.7661 H   0  0  0  0  0  0  0  0  0  0  0  0
   57.6285   31.3890   51.9342 H   0  0  0  0  0  0  0  0  0  0  0  0
   58.0961   33.1091   50.1917 H   0  0  0  0  0  0  0  0  0  0  0  0
   59.5926   32.5713   48.2780 H   0  0  0  0  0  0  0  0  0  0  0  0
   61.4859   31.1009   47.5165 H   0  0  0  0  0  0  0  0  0  0  0  0
   61.4606   29.3519   47.9419 H   0  0  0  0  0  0  0  0  0  0  0  0
   60.4170   29.1650   46.0350 H   0  0  0  0  0  0  0  0  0  0  0  0
   58.4998   29.7798   48.0387 H   0  0  0  0  0  0  0  0  0  0  0  0
   57.9065   30.1181   46.3681 H   0  0  0  0  0  0  0  0  0  0  0  0
   59.3896   27.6125   46.4379 H   0  0  0  0  0  0  0  0  0  0  0  0
   58.0453   27.6304   47.6729 H   0  0  0  0  0  0  0  0  0  0  0  0
   56.8174   26.8605   45.9365 H   0  0  0  0  0  0  0  0  0  0  0  0
   56.7473   28.6380   45.5370 H   0  0  0  0  0  0  0  0  0  0  0  0
   59.0953   27.7513   44.3046 H   0  0  0  0  0  0  0  0  0  0  0  0
   57.8942   26.4192   44.0225 H   0  0  0  0  0  0  0  0  0  0  0  0
   56.7960   27.6510   42.5890 H   0  0  0  0  0  0  0  0  0  0  0  0
   58.1420   28.6790   42.5890 H   0  0  0  0  0  0  0  0  0  0  0  0
   55.5221   29.2207   43.4606 H   0  0  0  0  0  0  0  0  0  0  0  0
   56.6927   29.4065   44.8216 H   0  0  0  0  0  0  0  0  0  0  0  0
   58.0572   30.5970   42.7352 H   0  0  0  0  0  0  0  0  0  0  0  0
   56.3284   31.0241   42.3712 H   0  0  0  0  0  0  0  0  0  0  0  0
   56.9802   32.8093   43.7086 H   0  0  0  0  0  0  0  0  0  0  0  0
   56.2534   31.6662   44.9125 H   0  0  0  0  0  0  0  0  0  0  0  0
   58.9100   30.9470   44.9250 H   0  0  0  0  0  0  0  0  0  0  0  0
   60.6600   31.9440   46.2500 H   0  0  0  0  0  0  0  0  0  0  0  0
   61.5700   34.2525   45.4607 H   0  0  0  0  0  0  0  0  0  0  0  0
   60.3876   34.9218   46.6405 H   0  0  0  0  0  0  0  0  0  0  0  0
   60.7358   34.7427   49.0220 H   0  0  0  0  0  0  0  0  0  0  0  0
   62.3410   34.3237   50.8865 H   0  0  0  0  0  0  0  0  0  0  0  0
   64.4980   33.1486   50.4418 H   0  0  0  0  0  0  0  0  0  0  0  0
   65.0607   32.3979   48.1275 H   0  0  0  0  0  0  0  0  0  0  0  0
   63.4675   32.8235   46.2534 H   0  0  0  0  0  0  0  0  0  0  0  0
  1  2  1  0
  2  3  1  0
  3  4  2  0
  4  5  1  0
  5  6  2  0
  6  7  1  0
  7  8  2  0
  8  9  1  0
  9 10  1  0
 10 11  1  0
 11 12  1  0
 12 13  1  0
 13 14  1  0
 14 15  1  0
 15 16  1  0
 16 17  1  0
 17 18  1  0
 18 19  1  0
 19 20  1  0
 20 21  2  0
 20 22  1  0
 22 23  1  0
 23 24  1  0
 24 25  2  0
 25 26  1  0
 26 27  2  0
 27 28  1  0
 28 29  2  0
  8  3  1  0
 29 24  1  0
  1 30  1  0
  1 31  1  0
  1 32  1  0
  4 33  1  0
  5 34  1  0
  6 35  1  0
  7 36  1  0
  9 37  1  0
  9 38  1  0
 10 39  1  0
 11 40  1  0
 11 41  1  0
 12 42  1  0
 12 43  1  0
 13 44  1  0
 13 45  1  0
 14 46  1  0
 14 47  1  0
 15 48  1  0
 15 49  1  0
 16 50  1  0
 16 51  1  0
 17 52  1  0
 17 53  1  0
 18 54  1  0
 18 55  1  0
 19 56  1  0
 22 57  1  0
 23 58  1  0
 23 59  1  0
 25 60  1  0
 26 61  1  0
 27 62  1  0
 28 63  1  0
 29 64  1  0
M  CHG  1  15   1
M  END
>  <UniqueID>  (13) 
13

>  <SMILES>  (13) 
COc1ccccc1CNCCCC[NH2+]CCCNC(=S)NCc1ccccc1

>  <Energy>  (13) 
45.5533832826528

>  <Genealogy>  (13) 
COc1ccccc1CNCCCC[NH2+]CCCNC(=S)NCc1ccccc1 (protonated)
COc1ccccc1CNCCCC[NH2+]CCCNC(=S)NCc1ccccc1 (3D coordinates assigned)
COc1ccccc1CNCCCC[NH2+]CCCNC(=S)NCc1ccccc1 (optimized conformer: 45.5533832826528 kcal/mol)

>  <smiles>  (13) 
COc1ccccc1CNCCCCNCCCNC(=S)NCc1ccccc1

>  <score_type>  (13) 
oracle

>  <origin>  (13) 
adg

>  <m_score__min__energy>  (13) 
-4.96

>  <m_primary>  (13) 
energy

$$$$
13:0
     RDKit          3D

 45 46  0  0  0  0  0  0  0  0999 V2000
   60.7100   29.2720   47.7510 C   0  0  0  0  0  0  0  0  0  0  0  0
   60.3910   27.9370   47.3760 O   0  0  0  0  0  0  0  0  0  0  0  0
   59.1020   27.4950   47.0400 C   0  0  0  0  0  0  0  0  0  0  0  0
   58.6000   26.2480   47.4510 C   0  0  0  0  0  0  0  0  0  0  0  0
   57.3060   25.8570   47.0970 C   0  0  0  0  0  0  0  0  0  0  0  0
   56.4940   26.7010   46.3170 C   0  0  0  0  0  0  0  0  0  0  0  0
   55.1810   26.3500   45.9640 O   0  0  0  0  0  0  0  0  0  0  0  0
   54.7630   25.0310   45.6260 C   0  0  0  0  0  0  0  0  0  0  0  0
   57.0080   27.9340   45.8810 C   0  0  0  0  0  0  0  0  0  0  0  0
   56.0120   29.0330   44.8630 S   0  0  0  0  0  0  0  0  0  0  0  0
   57.4120   29.7510   43.9220 C   0  0  0  0  0  0  0  0  0  0  0  0
   57.2380   31.2590   43.6960 C   0  0  0  0  0  0  0  0  0  0  0  0
   57.1950   32.0170   44.9650 N   0  0  0  0  0  0  0  0  0  0  0  0
   57.3470   33.4790   44.7360 C   0  0  0  0  0  0  0  0  0  0  0  0
   57.7680   34.2130   46.0140 C   0  0  0  0  0  0  0  0  0  0  0  0
   59.1640   33.7410   46.4800 C   0  0  0  0  0  0  0  0  0  0  0  0
   59.3160   33.9340   47.9950 C   0  0  0  0  0  0  0  0  0  0  0  0
   59.4480   32.2780   46.0660 C   0  0  0  0  0  0  0  0  0  0  0  0
   58.1510   31.4630   45.9650 C   0  0  0  0  0  0  0  0  0  0  0  0
   58.2950   28.3330   46.2640 C   0  0  0  0  0  0  0  0  0  0  0  0
   60.7287   29.3502   48.8481 H   0  0  0  0  0  0  0  0  0  0  0  0
   61.6975   29.5402   47.3474 H   0  0  0  0  0  0  0  0  0  0  0  0
   59.9504   29.9577   47.3474 H   0  0  0  0  0  0  0  0  0  0  0  0
   59.2289   25.5767   48.0542 H   0  0  0  0  0  0  0  0  0  0  0  0
   56.9194   24.8826   47.4304 H   0  0  0  0  0  0  0  0  0  0  0  0
   54.5810   24.4568   46.5465 H   0  0  0  0  0  0  0  0  0  0  0  0
   53.8364   25.0801   45.0353 H   0  0  0  0  0  0  0  0  0  0  0  0
   55.5487   24.5374   45.0353 H   0  0  0  0  0  0  0  0  0  0  0  0
   58.3422   29.5809   44.4839 H   0  0  0  0  0  0  0  0  0  0  0  0
   57.4472   29.2612   42.9377 H   0  0  0  0  0  0  0  0  0  0  0  0
   58.0821   31.6258   43.0936 H   0  0  0  0  0  0  0  0  0  0  0  0
   56.2786   31.4128   43.1803 H   0  0  0  0  0  0  0  0  0  0  0  0
   58.1130   33.6409   43.9633 H   0  0  0  0  0  0  0  0  0  0  0  0
   56.3733   33.8787   44.4163 H   0  0  0  0  0  0  0  0  0  0  0  0
   57.8001   35.2945   45.8154 H   0  0  0  0  0  0  0  0  0  0  0  0
   57.0372   33.9921   46.8059 H   0  0  0  0  0  0  0  0  0  0  0  0
   59.9157   34.3645   45.9738 H   0  0  0  0  0  0  0  0  0  0  0  0
   58.7189   33.1759   48.5229 H   0  0  0  0  0  0  0  0  0  0  0  0
   60.3746   33.8265   48.2739 H   0  0  0  0  0  0  0  0  0  0  0  0
   58.9634   34.9379   48.2739 H   0  0  0  0  0  0  0  0  0  0  0  0
   59.9504   32.2740   45.0874 H   0  0  0  0  0  0  0  0  0  0  0  0
   60.0869   31.8184   46.8345 H   0  0  0  0  0  0  0  0  0  0  0  0
   58.4053   30.4330   45.6745 H   0  0  0  0  0  0  0  0  0  0  0  0
   57.6595   31.5011   46.9483 H   0  0  0  0  0  0  0  0  0  0  0  0
   58.6751   29.3166   45.9508 H   0  0  0  0  0  0  0  0  0  0  0  0
  1  2  1  0
  2  3  1  0
  3  4  2  0
  4  5  1  0
  5  6  2  0
  6  7  1  0
  7  8  1  0
  6  9  1  0
  9 10  1  0
 10 11  1  0
 11 12  1  0
 12 13  1  0
 13 14  1  0
 14 15  1  0
 15 16  1  0
 16 17  1  0
 16 18  1  0
 18 19  1  0
  9 20  2  0
 20  3  1  0
 19 13  1  0
  1 21  1  0
  1 22  1  0
  1 23  1  0
  4 24  1  0
  5 25  1  0
  8 26  1  0
  8 27  1  0
  8 28  1  0
 11 29  1  0
 11 30  1  0
 12 31  1  0
 12 32  1  0
 14 33  1  0
 14 34  1  0
 15 35  1  0
 15 36  1  0
 16 37  1  0
 17 38  1  0
 17 39  1  0
 17 40  1  0
 18 41  1  0
 18 42  1  0
 19 43  1  0
 19 44  1  0
 20 45  1  0
M  END
>  <UniqueID>  (14) 
14

>  <SMILES>  (14) 
COc1ccc(OC)c(SCCN2CCC(C)CC2)c1

>  <Energy>  (14) 
42.37471215987363

>  <Genealogy>  (14) 
COc1ccc(OC)c(SCCN2CCC(C)CC2)c1 (3D coordinates assigned)
COc1ccc(OC)c(SCCN2CCC(C)CC2)c1 (nonaromatic ring conformer: 42.37471215987363 kcal/mol)

>  <smiles>  (14) 
COc1ccc(OC)c(SCCN2CCC(C)CC2)c1

>  <score_type>  (14) 
oracle

>  <origin>  (14) 
adg

>  <m_score__min__energy>  (14) 
-6.9900000000000002

>  <m_primary>  (14) 
energy

$$$$
14:0
     RDKit          3D

 59 59  0  0  0  0  0  0  0  0999 V2000
   61.3390   32.1940   46.8500 C   0  0  0  0  0  0  0  0  0  0  0  0
   62.4970   33.1230   47.2060 C   0  0  0  0  0  0  0  0  0  0  0  0
   63.7190   32.3640   47.7460 C   0  0  0  0  0  0  0  0  0  0  0  0
   63.9070   32.4840   49.2670 C   0  0  0  0  0  0  0  0  0  0  0  0
   63.0040   31.5220   50.0730 C   0  0  0  0  0  0  0  0  0  0  0  0
   61.5490   32.0170   50.2000 C   0  0  0  0  0  0  0  0  0  0  0  0
   60.5940   30.9600   50.7820 C   0  0  0  0  0  0  0  0  0  0  0  0
   60.7220   29.6280   50.0970 C   0  0  0  0  0  0  0  0  0  0  0  0
   61.5740   28.8390   50.4760 O   0  0  0  0  0  0  0  0  0  0  0  0
   59.7580   29.2400   49.0040 C   0  0  0  0  0  0  0  0  0  0  0  0
   60.4710   28.6390   47.7840 C   0  0  0  0  0  0  0  0  0  0  0  0
   59.8040   29.0870   46.4760 C   0  0  0  0  0  0  0  0  0  0  0  0
   59.4450   27.9120   45.5520 C   0  0  0  0  0  0  0  0  0  0  0  0
   58.5320   28.3250   44.3830 C   0  0  0  0  0  0  0  0  0  0  0  0
   57.4760   29.3640   44.8080 C   0  0  1  0  0  0  0  0  0  0  0  0
   57.2940   30.7410   43.5970 S   0  0  0  0  0  0  0  0  0  0  0  0
   57.8650   32.0900   44.6400 C   0  0  0  0  0  0  0  0  0  0  0  0
   57.8050   31.9680   46.0330 C   0  0  0  0  0  0  0  0  0  0  0  0
   58.2650   33.0050   46.8530 C   0  0  0  0  0  0  0  0  0  0  0  0
   58.8130   34.1650   46.2810 C   0  0  0  0  0  0  0  0  0  0  0  0
   59.2680   35.3040   47.1500 C   0  0  0  0  0  0  0  0  0  0  0  0
   58.8840   34.2780   44.8840 C   0  0  0  0  0  0  0  0  0  0  0  0
   58.4240   33.2380   44.0690 C   0  0  0  0  0  0  0  0  0  0  0  0
   56.1500   28.7190   45.1030 C   0  0  0  0  0  0  0  0  0  0  0  0
   55.0840   29.3360   44.8520 O   0  0  0  0  0  0  0  0  0  0  0  0
   56.0850   27.4310   45.6200 O   0  0  0  0  0  0  0  0  0  0  0  0
   60.8722   31.8195   47.7730 H   0  0  0  0  0  0  0  0  0  0  0  0
   60.5932   32.7471   46.2602 H   0  0  0  0  0  0  0  0  0  0  0  0
   61.7172   31.3460   46.2602 H   0  0  0  0  0  0  0  0  0  0  0  0
   62.7961   33.6752   46.3029 H   0  0  0  0  0  0  0  0  0  0  0  0
   62.1486   33.8008   47.9992 H   0  0  0  0  0  0  0  0  0  0  0  0
   63.6039   31.2993   47.4945 H   0  0  0  0  0  0  0  0  0  0  0  0
   64.6065   32.8158   47.2788 H   0  0  0  0  0  0  0  0  0  0  0  0
   64.9570   32.2611   49.5076 H   0  0  0  0  0  0  0  0  0  0  0  0
   63.6253   33.5089   49.5501 H   0  0  0  0  0  0  0  0  0  0  0  0
   62.9978   30.5441   49.5693 H   0  0  0  0  0  0  0  0  0  0  0  0
   63.4181   31.4605   51.0902 H   0  0  0  0  0  0  0  0  0  0  0  0
   61.5365   32.8985   50.8578 H   0  0  0  0  0  0  0  0  0  0  0  0
   61.1953   32.2514   49.1851 H   0  0  0  0  0  0  0  0  0  0  0  0
   60.8207   30.8302   51.8505 H   0  0  0  0  0  0  0  0  0  0  0  0
   59.5654   31.3178   50.6269 H   0  0  0  0  0  0  0  0  0  0  0  0
   59.0518   28.4967   49.4026 H   0  0  0  0  0  0  0  0  0  0  0  0
   59.2383   30.1518   48.6745 H   0  0  0  0  0  0  0  0  0  0  0  0
   61.5204   28.9687   47.7831 H   0  0  0  0  0  0  0  0  0  0  0  0
   60.4094   27.5427   47.8492 H   0  0  0  0  0  0  0  0  0  0  0  0
   58.8819   29.6339   46.7221 H   0  0  0  0  0  0  0  0  0  0  0  0
   60.5255   29.7199   45.9385 H   0  0  0  0  0  0  0  0  0  0  0  0
   60.3748   27.4931   45.1398 H   0  0  0  0  0  0  0  0  0  0  0  0
   58.8951   27.1745   46.1551 H   0  0  0  0  0  0  0  0  0  0  0  0
   59.1527   28.7571   43.5843 H   0  0  0  0  0  0  0  0  0  0  0  0
   58.0010   27.4265   44.0355 H   0  0  0  0  0  0  0  0  0  0  0  0
   57.8495   29.8140   45.7397 H   0  0  0  0  0  0  0  0  0  0  0  0
   57.3946   31.0532   46.4854 H   0  0  0  0  0  0  0  0  0  0  0  0
   58.1972   32.9114   47.9469 H   0  0  0  0  0  0  0  0  0  0  0  0
   59.1566   35.0251   48.2082 H   0  0  0  0  0  0  0  0  0  0  0  0
   60.3243   35.5270   46.9389 H   0  0  0  0  0  0  0  0  0  0  0  0
   58.6561   36.1934   46.9389 H   0  0  0  0  0  0  0  0  0  0  0  0
   59.3027   35.1873   44.4282 H   0  0  0  0  0  0  0  0  0  0  0  0
   58.5022   33.3235   42.9751 H   0  0  0  0  0  0  0  0  0  0  0  0
  1  2  1  0
  2  3  1  0
  3  4  1  0
  4  5  1  0
  5  6  1  0
  6  7  1  0
  7  8  1  0
  8  9  2  0
  8 10  1  0
 10 11  1  0
 11 12  1  0
 12 13  1  0
 13 14  1  0
 14 15  1  0
 15 16  1  0
 16 17  1  0
 17 18  2  0
 18 19  1  0
 19 20  2  0
 20 21  1  0
 20 22  1  0
 22 23  2  0
 15 24  1  0
 24 25  2  0
 24 26  1  0
 23 17  1  0
  1 27  1  0
  1 28  1  0
  1 29  1  0
  2 30  1  0
  2 31  1  0
  3 32  1  0
  3 33  1  0
  4 34  1  0
  4 35  1  0
  5 36  1  0
  5 37  1  0
  6 38  1  0
  6 39  1  0
  7 40  1  0
  7 41  1  0
 10 42  1  0
 10 43  1  0
 11 44  1  0
 11 45  1  0
 12 46  1  0
 12 47  1  0
 13 48  1  0
 13 49  1  0
 14 50  1  0
 14 51  1  0
 15 52  1  1
 18 53  1  0
 19 54  1  0
 21 55  1  0
 21 56  1  0
 21 57  1  0
 22 58  1  0
 23 59  1  0
M  CHG  1  26  -1
M  END
>  <UniqueID>  (15) 
15

>  <SMILES>  (15) 
CCCCCCCC(=O)CCCCC[C@@H](Sc1ccc(C)cc1)C(=O)[O-]

>  <Energy>  (15) 
35.82142117723213

>  <Genealogy>  (15) 
CCCCCCCC(=O)CCCCCC(Sc1ccc(C)cc1)C(=O)[O-] (protonated)
CCCCCCCC(=O)CCCCC[C@@H](Sc1ccc(C)cc1)C(=O)[O-] (chirality)
CCCCCCCC(=O)CCCCC[C@@H](Sc1ccc(C)cc1)C(=O)[O-] (3D coordinates assigned)
CCCCCCCC(=O)CCCCC[C@@H](Sc1ccc(C)cc1)C(=O)[O-] (optimized conformer: 35.82142117723213 kcal/mol)

>  <smiles>  (15) 
CCCCCCCC(=O)CCCCCC(Sc1ccc(C)cc1)C(=O)O

>  <score_type>  (15) 
oracle

>  <origin>  (15) 
adg

>  <m_score__min__energy>  (15) 
-10.140000000000001

>  <m_primary>  (15) 
energy

$$$$
15:0
     RDKit          3D

 43 46  0  0  0  0  0  0  0  0999 V2000
   56.9280   20.8630   42.9770 C   0  0  0  0  0  0  0  0  0  0  0  0
   56.3630   21.7390   43.9480 O   0  0  0  0  0  0  0  0  0  0  0  0
   56.8610   23.0150   44.2550 C   0  0  0  0  0  0  0  0  0  0  0  0
   56.8890   24.0530   43.3050 C   0  0  0  0  0  0  0  0  0  0  0  0
   57.3910   25.3090   43.6450 C   0  0  0  0  0  0  0  0  0  0  0  0
   57.8770   25.5580   44.9390 C   0  0  0  0  0  0  0  0  0  0  0  0
   58.4090   26.8970   45.2990 C   0  0  0  0  0  0  0  0  0  0  0  0
   59.6650   27.0190   45.9170 C   0  0  0  0  0  0  0  0  0  0  0  0
   60.1710   28.2740   46.2590 C   0  0  0  0  0  0  0  0  0  0  0  0
   59.4300   29.4380   45.9900 C   0  0  0  0  0  0  0  0  0  0  0  0
   59.9170   30.7140   46.3250 C   0  0  0  0  0  0  0  0  0  0  0  0
   61.0410   30.8570   46.8820 O   0  0  0  0  0  0  0  0  0  0  0  0
   59.1530   31.8060   46.0380 N   0  0  0  0  0  0  0  0  0  0  0  0
   57.9690   31.7050   45.4540 N   0  0  0  0  0  0  0  0  0  0  0  0
   57.4340   30.5020   45.1030 C   0  0  0  0  0  0  0  0  0  0  0  0
   56.3010   30.4520   44.5480 O   0  0  0  0  0  0  0  0  0  0  0  0
   58.1630   29.3290   45.3670 C   0  0  0  0  0  0  0  0  0  0  0  0
   57.6650   28.0580   45.0270 C   0  0  0  0  0  0  0  0  0  0  0  0
   57.3360   32.9940   45.2440 C   0  0  0  0  0  0  0  0  0  0  0  0
   58.3380   34.0120   45.8100 C   0  0  0  0  0  0  0  0  0  0  0  0
   59.5230   33.1810   46.3220 C   0  0  0  0  0  0  0  0  0  0  0  0
   57.8500   24.5200   45.8870 C   0  0  0  0  0  0  0  0  0  0  0  0
   57.3450   23.2490   45.5500 C   0  0  0  0  0  0  0  0  0  0  0  0
   57.3070   22.1930   46.4750 O   0  0  0  0  0  0  0  0  0  0  0  0
   57.7740   20.8730   46.2150 C   0  0  0  0  0  0  0  0  0  0  0  0
   57.4566   20.0435   43.4859 H   0  0  0  0  0  0  0  0  0  0  0  0
   56.1271   20.4477   42.3476 H   0  0  0  0  0  0  0  0  0  0  0  0
   57.6366   21.4214   42.3476 H   0  0  0  0  0  0  0  0  0  0  0  0
   56.5124   23.8724   42.2874 H   0  0  0  0  0  0  0  0  0  0  0  0
   57.4064   26.1117   42.8931 H   0  0  0  0  0  0  0  0  0  0  0  0
   60.2554   26.1164   46.1334 H   0  0  0  0  0  0  0  0  0  0  0  0
   61.1560   28.3528   46.7422 H   0  0  0  0  0  0  0  0  0  0  0  0
   56.6813   27.9718   44.5423 H   0  0  0  0  0  0  0  0  0  0  0  0
   57.1639   33.1726   44.1723 H   0  0  0  0  0  0  0  0  0  0  0  0
   56.3519   33.0608   45.7310 H   0  0  0  0  0  0  0  0  0  0  0  0
   58.6670   34.7060   45.0225 H   0  0  0  0  0  0  0  0  0  0  0  0
   57.8921   34.6220   46.6094 H   0  0  0  0  0  0  0  0  0  0  0  0
   60.4469   33.4527   45.7904 H   0  0  0  0  0  0  0  0  0  0  0  0
   59.7203   33.3486   47.3911 H   0  0  0  0  0  0  0  0  0  0  0  0
   58.2277   24.7026   46.9038 H   0  0  0  0  0  0  0  0  0  0  0  0
   57.9574   20.3546   47.1677 H   0  0  0  0  0  0  0  0  0  0  0  0
   57.0159   20.3228   45.6382 H   0  0  0  0  0  0  0  0  0  0  0  0
   58.7094   20.9219   45.6382 H   0  0  0  0  0  0  0  0  0  0  0  0
  1  2  1  0
  2  3  1  0
  3  4  2  0
  4  5  1  0
  5  6  2  0
  6  7  1  0
  7  8  2  0
  8  9  1  0
  9 10  2  0
 10 11  1  0
 11 12  2  0
 11 13  1  0
 13 14  1  0
 14 15  1  0
 15 16  2  0
 15 17  1  0
 17 18  2  0
 14 19  1  0
 19 20  1  0
 20 21  1  0
  6 22  1  0
 22 23  2  0
 23 24  1  0
 24 25  1  0
 23  3  1  0
 18  7  1  0
 17 10  1  0
 21 13  1  0
  1 26  1  0
  1 27  1  0
  1 28  1  0
  4 29  1  0
  5 30  1  0
  8 31  1  0
  9 32  1  0
 18 33  1  0
 19 34  1  0
 19 35  1  0
 20 36  1  0
 20 37  1  0
 21 38  1  0
 21 39  1  0
 22 40  1  0
 25 41  1  0
 25 42  1  0
 25 43  1  0
M  END
>  <UniqueID>  (16) 
16

>  <SMILES>  (16) 
COc1ccc(-c2ccc3c(=O)n4n(c(=O)c3c2)CCC4)cc1OC

>  <Energy>  (16) 
65.1706675060657

>  <Genealogy>  (16) 
COc1ccc(-c2ccc3c(=O)n4n(c(=O)c3c2)CCC4)cc1OC (3D coordinates assigned)
COc1ccc(-c2ccc3c(=O)n4n(c(=O)c3c2)CCC4)cc1OC (nonaromatic ring conformer: 65.1706675060657 kcal/mol)

>  <smiles>  (16) 
COc1ccc(-c2ccc3c(=O)n4n(c(=O)c3c2)CCC4)cc1OC

>  <score_type>  (16) 
oracle

>  <origin>  (16) 
adg

>  <m_score__min__energy>  (16) 
-7.6799999999999997

>  <m_primary>  (16) 
energy

$$$$
16:0
     RDKit          3D

 70 73  0  0  0  0  0  0  0  0999 V2000
   58.8700   33.3460   51.8310 C   0  0  0  0  0  0  0  0  0  0  0  0
   60.1420   33.8790   51.4680 O   0  0  0  0  0  0  0  0  0  0  0  0
   60.6810   33.8370   50.1750 C   0  0  0  0  0  0  0  0  0  0  0  0
   62.0280   33.5180   49.9410 C   0  0  0  0  0  0  0  0  0  0  0  0
   62.5450   33.5760   48.6360 C   0  0  0  0  0  0  0  0  0  0  0  0
   63.9070   33.4620   48.3800 O   0  0  0  0  0  0  0  0  0  0  0  0
   64.8420   33.0280   49.3520 C   0  0  0  0  0  0  0  0  0  0  0  0
   61.6840   33.8540   47.5710 C   0  0  0  0  0  0  0  0  0  0  0  0
   60.3340   34.1920   47.7890 C   0  0  0  0  0  0  0  0  0  0  0  0
   59.4840   34.5300   46.6060 C   0  0  0  0  0  0  0  0  0  0  0  0
   59.6290   35.6630   46.0690 O   0  0  0  0  0  0  0  0  0  0  0  0
   58.5730   33.5700   46.0080 N   0  0  0  0  0  0  0  0  0  0  0  0
   58.7110   33.5960   44.5350 C   0  0  0  0  0  0  0  0  0  0  0  0
   58.1410   32.3390   43.8660 C   0  0  0  0  0  0  0  0  0  0  0  0
   57.2030   31.6070   44.7300 N   0  0  0  0  0  0  0  0  0  0  0  0
   56.6560   30.4730   43.9530 C   0  0  0  0  0  0  0  0  0  0  0  0
   56.6560   29.0980   44.6670 C   0  0  0  0  0  0  0  0  0  0  0  0
   57.9500   28.3720   44.5080 N   0  0  0  0  0  0  0  0  0  0  0  0
   58.7790   28.2880   45.7360 C   0  0  0  0  0  0  0  0  0  0  0  0
   58.0840   27.4370   46.8070 C   0  0  0  0  0  0  0  0  0  0  0  0
   57.7780   26.0830   46.2610 C   0  0  0  0  0  0  0  0  0  0  0  0
   57.5950   24.9990   47.1400 C   0  0  0  0  0  0  0  0  0  0  0  0
   57.4510   23.6850   46.6390 C   0  0  0  0  0  0  0  0  0  0  0  0
   57.3280   22.5700   47.4890 O   0  0  0  0  0  0  0  0  0  0  0  0
   56.0930   21.9110   47.7800 C   0  0  0  0  0  0  0  0  0  0  0  0
   57.4740   23.4650   45.2520 C   0  0  0  0  0  0  0  0  0  0  0  0
   57.4030   22.1530   44.7640 O   0  0  0  0  0  0  0  0  0  0  0  0
   58.4470   21.5000   44.0560 C   0  0  0  0  0  0  0  0  0  0  0  0
   57.5750   24.5650   44.3740 C   0  0  0  0  0  0  0  0  0  0  0  0
   57.6960   25.8790   44.8670 C   0  0  0  0  0  0  0  0  0  0  0  0
   57.7730   27.0310   43.8790 C   0  0  0  0  0  0  0  0  0  0  0  0
   57.8650   31.1870   45.9840 C   0  0  0  0  0  0  0  0  0  0  0  0
   58.8460   32.2260   46.5430 C   0  0  0  0  0  0  0  0  0  0  0  0
   59.8400   34.1650   49.0970 C   0  0  0  0  0  0  0  0  0  0  0  0
   58.7864   33.3110   52.9273 H   0  0  0  0  0  0  0  0  0  0  0  0
   58.0741   33.9863   51.4229 H   0  0  0  0  0  0  0  0  0  0  0  0
   58.7683   32.3296   51.4229 H   0  0  0  0  0  0  0  0  0  0  0  0
   62.6777   33.2231   50.7782 H   0  0  0  0  0  0  0  0  0  0  0  0
   64.4386   33.2152   50.3581 H   0  0  0  0  0  0  0  0  0  0  0  0
   65.0285   31.9512   49.2263 H   0  0  0  0  0  0  0  0  0  0  0  0
   65.7848   33.5806   49.2263 H   0  0  0  0  0  0  0  0  0  0  0  0
   62.0683   33.8079   46.5414 H   0  0  0  0  0  0  0  0  0  0  0  0
   57.5890   33.8450   46.2070 H   0  0  0  0  0  0  0  0  0  0  0  0
   58.1758   34.4751   44.1466 H   0  0  0  0  0  0  0  0  0  0  0  0
   59.7852   33.6389   44.3021 H   0  0  0  0  0  0  0  0  0  0  0  0
   57.6129   32.6383   42.9487 H   0  0  0  0  0  0  0  0  0  0  0  0
   58.9853   31.6673   43.6513 H   0  0  0  0  0  0  0  0  0  0  0  0
   55.6158   30.7157   43.6901 H   0  0  0  0  0  0  0  0  0  0  0  0
   57.3239   30.3574   43.0866 H   0  0  0  0  0  0  0  0  0  0  0  0
   56.4703   29.2573   45.7394 H   0  0  0  0  0  0  0  0  0  0  0  0
   55.8686   28.4825   44.2074 H   0  0  0  0  0  0  0  0  0  0  0  0
   59.7482   27.8317   45.4860 H   0  0  0  0  0  0  0  0  0  0  0  0
   58.9242   29.3036   46.1329 H   0  0  0  0  0  0  0  0  0  0  0  0
   58.7462   27.3371   47.6797 H   0  0  0  0  0  0  0  0  0  0  0  0
   57.1457   27.9271   47.1059 H   0  0  0  0  0  0  0  0  0  0  0  0
   57.5638   25.1757   48.2253 H   0  0  0  0  0  0  0  0  0  0  0  0
   55.9625   21.8414   48.8700 H   0  0  0  0  0  0  0  0  0  0  0  0
   55.2603   22.4847   47.3469 H   0  0  0  0  0  0  0  0  0  0  0  0
   56.1060   20.8999   47.3469 H   0  0  0  0  0  0  0  0  0  0  0  0
   59.1548   21.0573   44.7723 H   0  0  0  0  0  0  0  0  0  0  0  0
   58.0211   20.7070   43.4237 H   0  0  0  0  0  0  0  0  0  0  0  0
   58.9736   22.2300   43.4237 H   0  0  0  0  0  0  0  0  0  0  0  0
   57.5590   24.3937   43.2875 H   0  0  0  0  0  0  0  0  0  0  0  0
   58.6249   26.8512   43.2068 H   0  0  0  0  0  0  0  0  0  0  0  0
   56.8082   27.0568   43.3514 H   0  0  0  0  0  0  0  0  0  0  0  0
   57.0887   31.0004   46.7406 H   0  0  0  0  0  0  0  0  0  0  0  0
   58.4506   30.2854   45.7514 H   0  0  0  0  0  0  0  0  0  0  0  0
   58.7528   32.2520   47.6387 H   0  0  0  0  0  0  0  0  0  0  0  0
   59.8636   31.9357   46.2427 H   0  0  0  0  0  0  0  0  0  0  0  0
   58.7825   34.4028   49.2844 H   0  0  0  0  0  0  0  0  0  0  0  0
  1  2  1  0
  2  3  1  0
  3  4  2  0
  4  5  1  0
  5  6  1  0
  6  7  1  0
  5  8  2  0
  8  9  1  0
  9 10  1  0
 10 11  2  0
 10 12  1  0
 12 13  1  0
 13 14  1  0
 14 15  1  0
 15 16  1  0
 16 17  1  0
 17 18  1  0
 18 19  1  0
 19 20  1  0
 20 21  1  0
 21 22  2  0
 22 23  1  0
 23 24  1  0
 24 25  1  0
 23 26  2  0
 26 27  1  0
 27 28  1  0
 26 29  1  0
 29 30  2  0
 30 31  1  0
 15 32  1  0
 32 33  1  0
  9 34  2  0
 34  3  1  0
 33 12  1  0
 31 18  1  0
 30 21  1  0
  1 35  1  0
  1 36  1  0
  1 37  1  0
  4 38  1  0
  7 39  1  0
  7 40  1  0
  7 41  1  0
  8 42  1  0
 12 43  1  0
 13 44  1  0
 13 45  1  0
 14 46  1  0
 14 47  1  0
 16 48  1  0
 16 49  1  0
 17 50  1  0
 17 51  1  0
 19 52  1  0
 19 53  1  0
 20 54  1  0
 20 55  1  0
 22 56  1  0
 25 57  1  0
 25 58  1  0
 25 59  1  0
 28 60  1  0
 28 61  1  0
 28 62  1  0
 29 63  1  0
 31 64  1  0
 31 65  1  0
 32 66  1  0
 32 67  1  0
 33 68  1  0
 33 69  1  0
 34 70  1  0
M  CHG  1  12   1
M  END
>  <UniqueID>  (17) 
17

>  <SMILES>  (17) 
COc1cc(OC)cc(C(=O)[NH+]2CCN(CCN3CCc4cc(OC)c(OC)cc4C3)CC2)c1

>  <Energy>  (17) 
107.73257701132124

>  <Genealogy>  (17) 
COc1cc(OC)cc(C(=O)[NH+]2CCN(CCN3CCc4cc(OC)c(OC)cc4C3)CC2)c1 (protonated)
COc1cc(OC)cc(C(=O)[NH+]2CCN(CCN3CCc4cc(OC)c(OC)cc4C3)CC2)c1 (3D coordinates assigned)
COc1cc(OC)cc(C(=O)[NH+]2CCN(CCN3CCc4cc(OC)c(OC)cc4C3)CC2)c1 (nonaromatic ring conformer: 107.73257701132124 kcal/mol)

>  <smiles>  (17) 
COc1cc(OC)cc(C(=O)N2CCN(CCN3CCc4cc(OC)c(OC)cc4C3)CC2)c1

>  <score_type>  (17) 
oracle

>  <origin>  (17) 
adg

>  <m_score__min__energy>  (17) 
-7.0499999999999998

>  <m_primary>  (17) 
energy

$$$$
17:0
     RDKit          3D

 43 45  0  0  0  0  0  0  0  0999 V2000
   58.8912   33.7794   47.1217 H   0  0  0  0  0  0  0  0  0  0  0  0
   59.1410   33.1030   46.2910 C   0  0  0  0  0  0  0  0  0  0  0  0
   58.3680   33.2110   45.0350 C   0  0  0  0  0  0  0  0  0  0  0  0
   58.2100   34.3590   44.5390 O   0  0  0  0  0  0  0  0  0  0  0  0
   57.7430   32.0430   44.3590 C   0  0  0  0  0  0  0  0  0  0  0  0
   57.5680   32.0530   42.9650 C   0  0  0  0  0  0  0  0  0  0  0  0
   57.9250   32.9102   42.3753 H   0  0  0  0  0  0  0  0  0  0  0  0
   56.9440   30.9820   42.3240 C   0  0  0  0  0  0  0  0  0  0  0  0
   56.8118   30.9986   41.2321 H   0  0  0  0  0  0  0  0  0  0  0  0
   56.4870   29.8900   43.0630 C   0  0  0  0  0  0  0  0  0  0  0  0
   55.9982   29.0493   42.5489 H   0  0  0  0  0  0  0  0  0  0  0  0
   56.6460   29.8560   44.4560 C   0  0  0  0  0  0  0  0  0  0  0  0
   56.1760   28.7100   45.1920 N   0  0  0  0  0  0  0  0  0  0  0  0
   55.1450   28.5530   45.2660 H   0  0  0  0  0  0  0  0  0  0  0  0
   57.0490   27.6550   45.7070 C   0  0  0  0  0  0  0  0  0  0  0  0
   57.9157   27.5453   45.0385 H   0  0  0  0  0  0  0  0  0  0  0  0
   57.3796   27.9325   46.7188 H   0  0  0  0  0  0  0  0  0  0  0  0
   56.3170   26.3500   45.7810 C   0  0  0  0  0  0  0  0  0  0  0  0
   54.9860   26.2370   45.9270 N   0  0  0  0  0  0  0  0  0  0  0  0
   54.7760   24.9050   45.9000 C   0  0  0  0  0  0  0  0  0  0  0  0
   53.7792   24.4514   46.0036 H   0  0  0  0  0  0  0  0  0  0  0  0
   55.9030   24.1800   45.7340 N   0  0  0  0  0  0  0  0  0  0  0  0
   56.8780   25.1020   45.6530 C   0  0  0  0  0  0  0  0  0  0  0  0
   57.9480   24.8922   45.5082 H   0  0  0  0  0  0  0  0  0  0  0  0
   57.2620   30.9480   45.0990 C   0  0  0  0  0  0  0  0  0  0  0  0
   57.3681   30.9440   46.1939 H   0  0  0  0  0  0  0  0  0  0  0  0
   60.1320   32.2180   46.4620 C   0  0  0  0  0  0  0  0  0  0  0  0
   61.1640   32.5430   46.2636 H   0  0  0  0  0  0  0  0  0  0  0  0
   59.9050   30.8210   46.9060 C   0  0  0  0  0  0  0  0  0  0  0  0
   60.4210   29.7290   46.1780 C   0  0  0  0  0  0  0  0  0  0  0  0
   61.0046   29.9099   45.2633 H   0  0  0  0  0  0  0  0  0  0  0  0
   60.1970   28.4200   46.6090 C   0  0  0  0  0  0  0  0  0  0  0  0
   60.6100   27.5757   46.0376 H   0  0  0  0  0  0  0  0  0  0  0  0
   59.4510   28.1810   47.7620 C   0  0  0  0  0  0  0  0  0  0  0  0
   59.2808   27.1486   48.1015 H   0  0  0  0  0  0  0  0  0  0  0  0
   58.9200   29.2480   48.4860 C   0  0  0  0  0  0  0  0  0  0  0  0
   58.3279   29.0517   49.3920 H   0  0  0  0  0  0  0  0  0  0  0  0
   59.1360   30.5760   48.0660 C   0  0  0  0  0  0  0  0  0  0  0  0
   58.6130   31.6680   48.7800 O   0  0  0  0  0  0  0  0  0  0  0  0
   59.2610   32.3020   49.8770 C   0  0  0  0  0  0  0  0  0  0  0  0
   58.8565   31.9063   50.8203 H   0  0  0  0  0  0  0  0  0  0  0  0
   60.3418   32.1029   49.8293 H   0  0  0  0  0  0  0  0  0  0  0  0
   59.0856   33.3869   49.8293 H   0  0  0  0  0  0  0  0  0  0  0  0
  1  2  1  0
  2  3  1  0
  3  4  2  0
  3  5  1  0
  5  6  2  0
  6  7  1  0
  6  8  1  0
  8  9  1  0
  8 10  2  0
 10 11  1  0
 10 12  1  0
 12 13  1  0
 13 14  1  0
 13 15  1  0
 15 16  1  0
 15 17  1  0
 15 18  1  0
 18 19  1  0
 19 20  2  0
 20 21  1  0
 20 22  1  0
 22 23  1  0
 23 24  1  0
 12 25  2  0
 25 26  1  0
  2 27  2  0
 27 28  1  0
 27 29  1  0
 29 30  2  0
 30 31  1  0
 30 32  1  0
 32 33  1  0
 32 34  2  0
 34 35  1  0
 34 36  1  0
 36 37  1  0
 36 38  2  0
 38 39  1  0
 39 40  1  0
 40 41  1  0
 40 42  1  0
 40 43  1  0
 25  5  1  0
 38 29  1  0
 23 18  2  0
M  CHG  1  22  -1
M  END
>  <UniqueID>  (18) 
18

>  <SMILES>  (18) 
COc1ccccc1/C=C/C(=O)c1cccc(NCc2c[n-]cn2)c1

>  <Energy>  (18) 
77.08005650780552

>  <Genealogy>  (18) 
COc1ccccc1C=CC(=O)c1cccc(NCc2c[n-]cn2)c1 (protonated)
COc1ccccc1/C=C/C(=O)c1cccc(NCc2c[n-]cn2)c1 (cis-trans isomerization)
COc1ccccc1/C=C/C(=O)c1cccc(NCc2c[n-]cn2)c1 (3D coordinates assigned)
COc1ccccc1/C=C/C(=O)c1cccc(NCc2c[n-]cn2)c1 (optimized conformer: 77.08005650780552 kcal/mol)

>  <smiles>  (18) 
COc1ccccc1C=CC(=O)c1cccc(NCc2c[nH]cn2)c1

>  <score_type>  (18) 
oracle

>  <origin>  (18) 
adg

>  <m_score__min__energy>  (18) 
-10.52

>  <m_primary>  (18) 
energy

$$$$
18:0
     RDKit          3D

 61 63  0  0  0  0  0  0  0  0999 V2000
   60.3730   27.1060   48.1050 C   0  0  0  0  0  0  0  0  0  0  0  0
   59.8190   28.5190   47.9550 C   0  0  0  0  0  0  0  0  0  0  0  0
   58.5870   28.5390   47.0490 C   0  0  0  0  0  0  0  0  0  0  0  0
   58.8750   29.2580   45.8010 N   0  0  0  0  0  0  0  0  0  0  0  0
   59.3750   28.5280   44.6250 C   0  0  0  0  0  0  0  0  0  0  0  0
   58.6560   27.1870   44.4020 C   0  0  0  0  0  0  0  0  0  0  0  0
   58.1460   27.0250   42.9730 C   0  0  0  0  0  0  0  0  0  0  0  0
   58.1690   30.4880   45.5710 C   0  0  0  0  0  0  0  0  0  0  0  0
   57.0150   30.6690   44.8230 C   0  0  0  0  0  0  0  0  0  0  0  0
   56.1970   29.6090   44.1550 C   0  0  0  0  0  0  0  0  0  0  0  0
   56.2720   29.7540   42.6390 C   0  0  0  0  0  0  0  0  0  0  0  0
   56.6720   31.9810   44.8260 N   0  0  0  0  0  0  0  0  0  0  0  0
   57.6420   32.5590   45.5680 C   0  0  0  0  0  0  0  0  0  0  0  0
   57.7540   33.9190   45.8400 C   0  0  0  0  0  0  0  0  0  0  0  0
   58.8500   34.3450   46.6060 C   0  0  0  0  0  0  0  0  0  0  0  0
   59.7900   33.4100   47.1020 C   0  0  0  0  0  0  0  0  0  0  0  0
   60.9730   33.8540   47.8650 C   0  0  0  0  0  0  0  0  0  0  0  0
   62.1140   33.7330   47.3460 O   0  0  0  0  0  0  0  0  0  0  0  0
   60.8720   34.4170   49.1750 N   0  0  0  0  0  0  0  0  0  0  0  0
   61.1010   33.6850   50.4160 C   0  0  0  0  0  0  0  0  0  0  0  0
   59.9230   32.7930   50.6870 C   0  0  0  0  0  0  0  0  0  0  0  0
   59.8540   31.5140   50.1140 C   0  0  0  0  0  0  0  0  0  0  0  0
   58.7720   30.6720   50.3950 C   0  0  0  0  0  0  0  0  0  0  0  0
   57.7490   31.0980   51.2650 C   0  0  0  0  0  0  0  0  0  0  0  0
   56.6400   30.2950   51.5760 O   0  0  0  0  0  0  0  0  0  0  0  0
   55.5080   30.7360   52.3170 C   0  0  0  0  0  0  0  0  0  0  0  0
   57.8320   32.3690   51.8470 C   0  0  0  0  0  0  0  0  0  0  0  0
   58.9120   33.2090   51.5670 C   0  0  0  0  0  0  0  0  0  0  0  0
   59.6270   32.0490   46.7810 C   0  0  0  0  0  0  0  0  0  0  0  0
   58.5560   31.6880   46.0280 N   0  0  0  0  0  0  0  0  0  0  0  0
   60.4690   26.8613   49.1731 H   0  0  0  0  0  0  0  0  0  0  0  0
   59.6886   26.3910   47.6250 H   0  0  0  0  0  0  0  0  0  0  0  0
   61.3610   27.0466   47.6250 H   0  0  0  0  0  0  0  0  0  0  0  0
   59.5401   28.9019   48.9478 H   0  0  0  0  0  0  0  0  0  0  0  0
   60.5959   29.1502   47.4989 H   0  0  0  0  0  0  0  0  0  0  0  0
   58.2959   27.5051   46.8117 H   0  0  0  0  0  0  0  0  0  0  0  0
   57.7688   29.0536   47.5741 H   0  0  0  0  0  0  0  0  0  0  0  0
   59.2296   29.1565   43.7340 H   0  0  0  0  0  0  0  0  0  0  0  0
   60.4380   28.3069   44.8014 H   0  0  0  0  0  0  0  0  0  0  0  0
   59.3593   26.3697   44.6198 H   0  0  0  0  0  0  0  0  0  0  0  0
   57.7839   27.1612   45.0719 H   0  0  0  0  0  0  0  0  0  0  0  0
   57.0978   26.6920   42.9933 H   0  0  0  0  0  0  0  0  0  0  0  0
   58.2144   27.9891   42.4478 H   0  0  0  0  0  0  0  0  0  0  0  0
   58.7582   26.2771   42.4478 H   0  0  0  0  0  0  0  0  0  0  0  0
   56.5811   28.6195   44.4436 H   0  0  0  0  0  0  0  0  0  0  0  0
   55.1489   29.7155   44.4716 H   0  0  0  0  0  0  0  0  0  0  0  0
   56.7638   30.7047   42.3855 H   0  0  0  0  0  0  0  0  0  0  0  0
   56.8509   28.9183   42.2189 H   0  0  0  0  0  0  0  0  0  0  0  0
   55.2554   29.7436   42.2189 H   0  0  0  0  0  0  0  0  0  0  0  0
   57.0082   34.6364   45.4670 H   0  0  0  0  0  0  0  0  0  0  0  0
   58.9798   35.4155   46.8230 H   0  0  0  0  0  0  0  0  0  0  0  0
   62.0109   33.0742   50.3205 H   0  0  0  0  0  0  0  0  0  0  0  0
   61.2260   34.3952   51.2467 H   0  0  0  0  0  0  0  0  0  0  0  0
   60.6539   31.1716   49.4410 H   0  0  0  0  0  0  0  0  0  0  0  0
   58.7201   29.6741   49.9350 H   0  0  0  0  0  0  0  0  0  0  0  0
   55.7195   30.6536   53.3933 H   0  0  0  0  0  0  0  0  0  0  0  0
   55.2907   31.7845   52.0652 H   0  0  0  0  0  0  0  0  0  0  0  0
   54.6387   30.1108   52.0652 H   0  0  0  0  0  0  0  0  0  0  0  0
   57.0398   32.7086   52.5305 H   0  0  0  0  0  0  0  0  0  0  0  0
   58.9705   34.2012   52.0383 H   0  0  0  0  0  0  0  0  0  0  0  0
   60.3491   31.2968   47.1313 H   0  0  0  0  0  0  0  0  0  0  0  0
  1  2  1  0
  2  3  1  0
  3  4  1  0
  4  5  1  0
  5  6  1  0
  6  7  1  0
  4  8  1  0
  8  9  2  0
  9 10  1  0
 10 11  1  0
  9 12  1  0
 12 13  2  0
 13 14  1  0
 14 15  2  0
 15 16  1  0
 16 17  1  0
 17 18  2  0
 17 19  1  0
 19 20  1  0
 20 21  1  0
 21 22  2  0
 22 23  1  0
 23 24  2  0
 24 25  1  0
 25 26  1  0
 24 27  1  0
 27 28  2  0
 16 29  2  0
 29 30  1  0
 30  8  1  0
 30 13  1  0
 28 21  1  0
  1 31  1  0
  1 32  1  0
  1 33  1  0
  2 34  1  0
  2 35  1  0
  3 36  1  0
  3 37  1  0
  5 38  1  0
  5 39  1  0
  6 40  1  0
  6 41  1  0
  7 42  1  0
  7 43  1  0
  7 44  1  0
 10 45  1  0
 10 46  1  0
 11 47  1  0
 11 48  1  0
 11 49  1  0
 14 50  1  0
 15 51  1  0
 20 52  1  0
 20 53  1  0
 22 54  1  0
 23 55  1  0
 26 56  1  0
 26 57  1  0
 26 58  1  0
 27 59  1  0
 28 60  1  0
 29 61  1  0
M  CHG  1  19  -1
M  END
>  <UniqueID>  (19) 
19

>  <SMILES>  (19) 
CCCN(CCC)c1c(CC)nc2ccc(C(=O)[N-]Cc3ccc(OC)cc3)cn12

>  <Energy>  (19) 
91.69788246704255

>  <Genealogy>  (19) 
CCCN(CCC)c1c(CC)nc2ccc(C(=O)[N-]Cc3ccc(OC)cc3)cn12 (protonated)
CCCN(CCC)c1c(CC)nc2ccc(C(=O)[N-]Cc3ccc(OC)cc3)cn12 (3D coordinates assigned)
CCCN(CCC)c1c(CC)nc2ccc(C(=O)[N-]Cc3ccc(OC)cc3)cn12 (optimized conformer: 91.69788246704255 kcal/mol)

>  <smiles>  (19) 
CCCN(CCC)c1c(CC)nc2ccc(C(=O)NCc3ccc(OC)cc3)cn12

>  <score_type>  (19) 
oracle

>  <origin>  (19) 
adg

>  <m_score__min__energy>  (19) 
-10.73

>  <m_primary>  (19) 
energy

$$$$
19:0
     RDKit          3D

 47 49  0  0  0  0  0  0  0  0999 V2000
   60.9380   33.8370   50.3430 C   0  0  0  0  0  0  0  0  0  0  0  0
   62.2810   33.2080   49.9940 C   0  0  0  0  0  0  0  0  0  0  0  0
   62.3570   32.9800   48.5260 N   0  0  0  0  0  0  0  0  0  0  0  0
   63.3150   33.9290   47.9030 C   0  0  0  0  0  0  0  0  0  0  0  0
   63.3320   33.8090   46.3810 C   0  0  0  0  0  0  0  0  0  0  0  0
   62.7330   31.5780   48.2080 C   0  0  0  0  0  0  0  0  0  0  0  0
   61.5150   30.6510   47.9810 C   0  0  0  0  0  0  0  0  0  0  0  0
   60.2160   31.3200   48.1990 N   0  0  0  0  0  0  0  0  0  0  0  0
   59.5230   31.5980   46.9500 C   0  0  0  0  0  0  0  0  0  0  0  0
   58.9160   30.5560   46.1820 C   0  0  0  0  0  0  0  0  0  0  0  0
   58.8720   29.2230   46.6520 C   0  0  0  0  0  0  0  0  0  0  0  0
   58.2790   28.2130   45.8990 C   0  0  0  0  0  0  0  0  0  0  0  0
   57.7090   28.5030   44.6670 C   0  0  0  0  0  0  0  0  0  0  0  0
   57.7260   29.8050   44.1750 C   0  0  0  0  0  0  0  0  0  0  0  0
   58.3240   30.8590   44.9100 C   0  0  0  0  0  0  0  0  0  0  0  0
   58.3310   32.1540   44.4250 N   0  0  0  0  0  0  0  0  0  0  0  0
   57.7590   32.4760   43.1030 C   0  0  0  0  0  0  0  0  0  0  0  0
   58.8530   33.1440   45.2080 C   0  0  0  0  0  0  0  0  0  0  0  0
   58.8860   34.8010   44.8860 S   0  0  0  0  0  0  0  0  0  0  0  0
   59.6290   35.2440   46.3260 C   0  0  0  0  0  0  0  0  0  0  0  0
   59.8580   34.0990   47.0780 C   0  0  0  0  0  0  0  0  0  0  0  0
   59.4320   32.9100   46.4480 C   0  0  0  0  0  0  0  0  0  0  0  0
   60.8299   33.8876   51.4365 H   0  0  0  0  0  0  0  0  0  0  0  0
   60.8881   34.8521   49.9222 H   0  0  0  0  0  0  0  0  0  0  0  0
   60.1263   33.2254   49.9222 H   0  0  0  0  0  0  0  0  0  0  0  0
   63.0929   33.8830   50.3025 H   0  0  0  0  0  0  0  0  0  0  0  0
   62.3826   32.2469   50.5194 H   0  0  0  0  0  0  0  0  0  0  0  0
   63.0261   34.9549   48.1750 H   0  0  0  0  0  0  0  0  0  0  0  0
   64.3220   33.6873   48.2739 H   0  0  0  0  0  0  0  0  0  0  0  0
   63.4811   32.7566   46.0978 H   0  0  0  0  0  0  0  0  0  0  0  0
   62.3743   34.1660   45.9743 H   0  0  0  0  0  0  0  0  0  0  0  0
   64.1528   34.4180   45.9743 H   0  0  0  0  0  0  0  0  0  0  0  0
   63.3448   31.5800   47.2938 H   0  0  0  0  0  0  0  0  0  0  0  0
   63.2829   31.1847   49.0757 H   0  0  0  0  0  0  0  0  0  0  0  0
   61.5469   30.2817   46.9453 H   0  0  0  0  0  0  0  0  0  0  0  0
   61.5868   29.8366   48.7170 H   0  0  0  0  0  0  0  0  0  0  0  0
   59.6090   30.7140   48.7980 H   0  0  0  0  0  0  0  0  0  0  0  0
   60.3610   32.1730   48.7760 H   0  0  0  0  0  0  0  0  0  0  0  0
   59.3140   28.9798   47.6295 H   0  0  0  0  0  0  0  0  0  0  0  0
   58.2622   27.1819   46.2817 H   0  0  0  0  0  0  0  0  0  0  0  0
   57.2419   27.7006   44.0771 H   0  0  0  0  0  0  0  0  0  0  0  0
   57.2672   30.0197   43.1985 H   0  0  0  0  0  0  0  0  0  0  0  0
   56.8075   33.0117   43.2358 H   0  0  0  0  0  0  0  0  0  0  0  0
   58.4622   33.1108   42.5440 H   0  0  0  0  0  0  0  0  0  0  0  0
   57.5810   31.5455   42.5440 H   0  0  0  0  0  0  0  0  0  0  0  0
   59.8906   36.2701   46.6238 H   0  0  0  0  0  0  0  0  0  0  0  0
   60.3278   34.1171   48.0724 H   0  0  0  0  0  0  0  0  0  0  0  0
  1  2  1  0
  2  3  1  0
  3  4  1  0
  4  5  1  0
  3  6  1  0
  6  7  1  0
  7  8  1  0
  8  9  1  0
  9 10  2  0
 10 11  1  0
 11 12  2  0
 12 13  1  0
 13 14  2  0
 14 15  1  0
 15 16  2  0
 16 17  1  0
 16 18  1  0
 18 19  1  0
 19 20  1  0
 20 21  2  0
 21 22  1  0
 22  9  1  0
 15 10  1  0
 22 18  2  0
  1 23  1  0
  1 24  1  0
  1 25  1  0
  2 26  1  0
  2 27  1  0
  4 28  1  0
  4 29  1  0
  5 30  1  0
  5 31  1  0
  5 32  1  0
  6 33  1  0
  6 34  1  0
  7 35  1  0
  7 36  1  0
  8 37  1  0
  8 38  1  0
 11 39  1  0
 12 40  1  0
 13 41  1  0
 14 42  1  0
 17 43  1  0
 17 44  1  0
 17 45  1  0
 20 46  1  0
 21 47  1  0
M  CHG  2   8   1  16   1
M  END
>  <UniqueID>  (20) 
20

>  <SMILES>  (20) 
CCN(CC)CC[NH2+]c1c2ccccc2[n+](C)c2sccc12

>  <Energy>  (20) 
95.35102017456983

>  <Genealogy>  (20) 
CCN(CC)CC[NH2+]c1c2ccccc2[n+](C)c2sccc12 (protonated)
CCN(CC)CC[NH2+]c1c2ccccc2[n+](C)c2sccc12 (3D coordinates assigned)
CCN(CC)CC[NH2+]c1c2ccccc2[n+](C)c2sccc12 (optimized conformer: 95.35102017456983 kcal/mol)

>  <smiles>  (20) 
CCN(CC)CCNc1c2ccccc2[n+](C)c2sccc12

>  <score_type>  (20) 
oracle

>  <origin>  (20) 
adg

>  <m_score__min__energy>  (20) 
-3.6200000000000001

>  <m_primary>  (20) 
energy

$$$$
20:0
     RDKit          3D

 33 34  0  0  0  0  0  0  0  0999 V2000
   58.3180   32.7830   47.5320 C   0  0  0  0  0  0  0  0  0  0  0  0
   57.3300   33.4750   46.5930 C   0  0  0  0  0  0  0  0  0  0  0  0
   58.0040   33.9840   45.3750 N   0  0  0  0  0  0  0  0  0  0  0  0
   59.4460   34.2250   45.6100 C   0  0  0  0  0  0  0  0  0  0  0  0
   59.6520   35.5470   46.3440 C   0  0  0  0  0  0  0  0  0  0  0  0
   57.7690   33.1390   44.1780 C   0  0  0  0  0  0  0  0  0  0  0  0
   57.6570   31.6710   44.4920 C   0  0  0  0  0  0  0  0  0  0  0  0
   56.4340   31.0770   44.5370 N   0  0  0  0  0  0  0  0  0  0  0  0
   56.2970   29.7590   44.8350 C   0  0  0  0  0  0  0  0  0  0  0  0
   55.1450   29.2500   44.8660 O   0  0  0  0  0  0  0  0  0  0  0  0
   57.4380   28.9840   45.1040 C   0  0  0  0  0  0  0  0  0  0  0  0
   57.3650   27.6150   45.4200 C   0  0  0  0  0  0  0  0  0  0  0  0
   58.5340   26.8950   45.6810 C   0  0  0  0  0  0  0  0  0  0  0  0
   59.7790   27.5300   45.6280 C   0  0  0  0  0  0  0  0  0  0  0  0
   59.8620   28.8900   45.3140 C   0  0  0  0  0  0  0  0  0  0  0  0
   58.6970   29.6200   45.0520 C   0  0  0  0  0  0  0  0  0  0  0  0
   58.7750   30.9410   44.7480 N   0  0  0  0  0  0  0  0  0  0  0  0
   58.0332   32.9825   48.5756 H   0  0  0  0  0  0  0  0  0  0  0  0
   58.3006   31.6986   47.3481 H   0  0  0  0  0  0  0  0  0  0  0  0
   59.3311   33.1699   47.3481 H   0  0  0  0  0  0  0  0  0  0  0  0
   56.5534   32.7544   46.2971 H   0  0  0  0  0  0  0  0  0  0  0  0
   56.8882   34.3299   47.1259 H   0  0  0  0  0  0  0  0  0  0  0  0
   59.8561   33.4052   46.2180 H   0  0  0  0  0  0  0  0  0  0  0  0
   59.9626   34.2713   44.6400 H   0  0  0  0  0  0  0  0  0  0  0  0
   59.6247   35.3718   47.4296 H   0  0  0  0  0  0  0  0  0  0  0  0
   60.6273   35.9728   46.0657 H   0  0  0  0  0  0  0  0  0  0  0  0
   58.8525   36.2494   46.0657 H   0  0  0  0  0  0  0  0  0  0  0  0
   56.8336   33.4651   43.6998 H   0  0  0  0  0  0  0  0  0  0  0  0
   58.6403   33.2632   43.5181 H   0  0  0  0  0  0  0  0  0  0  0  0
   56.3879   27.1114   45.4616 H   0  0  0  0  0  0  0  0  0  0  0  0
   58.4747   25.8250   45.9290 H   0  0  0  0  0  0  0  0  0  0  0  0
   60.6956   26.9578   45.8339 H   0  0  0  0  0  0  0  0  0  0  0  0
   60.8429   29.3861   45.2729 H   0  0  0  0  0  0  0  0  0  0  0  0
  1  2  1  0
  2  3  1  0
  3  4  1  0
  4  5  1  0
  3  6  1  0
  6  7  1  0
  7  8  2  0
  8  9  1  0
  9 10  2  0
  9 11  1  0
 11 12  2  0
 12 13  1  0
 13 14  2  0
 14 15  1  0
 15 16  2  0
 16 17  1  0
 17  7  1  0
 16 11  1  0
  1 18  1  0
  1 19  1  0
  1 20  1  0
  2 21  1  0
  2 22  1  0
  4 23  1  0
  4 24  1  0
  5 25  1  0
  5 26  1  0
  5 27  1  0
  6 28  1  0
  6 29  1  0
 12 30  1  0
 13 31  1  0
 14 32  1  0
 15 33  1  0
M  CHG  1  17  -1
M  END
>  <UniqueID>  (21) 
21

>  <SMILES>  (21) 
CCN(CC)Cc1nc(=O)c2ccccc2[n-]1

>  <Energy>  (21) 
37.43928668985646

>  <Genealogy>  (21) 
CCN(CC)Cc1nc(=O)c2ccccc2[n-]1 (protonated)
CCN(CC)Cc1nc(=O)c2ccccc2[n-]1 (3D coordinates assigned)
CCN(CC)Cc1nc(=O)c2ccccc2[n-]1 (optimized conformer: 37.43928668985646 kcal/mol)

>  <smiles>  (21) 
CCN(CC)Cc1nc(=O)c2ccccc2[nH]1

>  <score_type>  (21) 
oracle

>  <origin>  (21) 
adg

>  <m_score__min__energy>  (21) 
-7.8799999999999999

>  <m_primary>  (21) 
energy

$$$$
21:0
     RDKit          3D

 38 39  0  0  0  0  0  0  0  0999 V2000
   55.4050   29.7160   43.5210 C   0  0  0  0  0  0  0  0  0  0  0  0
   55.7300   29.2800   44.8370 O   0  0  0  0  0  0  0  0  0  0  0  0
   57.0340   29.1230   45.3340 C   0  0  0  0  0  0  0  0  0  0  0  0
   57.5690   27.8400   45.5650 C   0  0  0  0  0  0  0  0  0  0  0  0
   58.8620   27.6840   46.0610 C   0  0  0  0  0  0  0  0  0  0  0  0
   59.5590   25.9350   46.3800 Br  0  0  0  0  0  0  0  0  0  0  0  0
   59.6460   28.8030   46.3280 C   0  0  0  0  0  0  0  0  0  0  0  0
   59.1480   30.0920   46.0920 C   0  0  0  0  0  0  0  0  0  0  0  0
   60.0110   31.2880   46.4230 C   0  0  0  0  0  0  0  0  0  0  0  0
   59.1800   32.4040   46.9030 N   0  0  0  0  0  0  0  0  0  0  0  0
   59.8840   33.2230   47.9050 C   0  0  0  0  0  0  0  0  0  0  0  0
   61.3810   33.1970   47.7010 C   0  0  0  0  0  0  0  0  0  0  0  0
   62.2120   32.5720   48.6430 C   0  0  0  0  0  0  0  0  0  0  0  0
   63.5950   32.5840   48.4540 C   0  0  0  0  0  0  0  0  0  0  0  0
   64.1310   33.1990   47.3660 N   0  0  0  0  0  0  0  0  0  0  0  0
   63.3500   33.8130   46.4390 C   0  0  0  0  0  0  0  0  0  0  0  0
   61.9610   33.8250   46.5890 C   0  0  0  0  0  0  0  0  0  0  0  0
   57.8320   30.2660   45.6090 C   0  0  0  0  0  0  0  0  0  0  0  0
   57.3800   31.5890   45.4300 O   0  0  0  0  0  0  0  0  0  0  0  0
   57.4560   32.3630   44.2390 C   0  0  0  0  0  0  0  0  0  0  0  0
   54.7485   30.5967   43.5782 H   0  0  0  0  0  0  0  0  0  0  0  0
   56.3278   29.9808   42.9841 H   0  0  0  0  0  0  0  0  0  0  0  0
   54.8876   28.9073   42.9841 H   0  0  0  0  0  0  0  0  0  0  0  0
   56.9584   26.9504   45.3511 H   0  0  0  0  0  0  0  0  0  0  0  0
   60.6631   28.6749   46.7268 H   0  0  0  0  0  0  0  0  0  0  0  0
   60.7312   31.0094   47.2064 H   0  0  0  0  0  0  0  0  0  0  0  0
   60.5441   31.6054   45.5146 H   0  0  0  0  0  0  0  0  0  0  0  0
   58.8820   33.0070   46.1010 H   0  0  0  0  0  0  0  0  0  0  0  0
   58.3190   32.0100   47.3510 H   0  0  0  0  0  0  0  0  0  0  0  0
   59.5321   34.2622   47.8261 H   0  0  0  0  0  0  0  0  0  0  0  0
   59.6676   32.8062   48.8997 H   0  0  0  0  0  0  0  0  0  0  0  0
   61.7771   32.0765   49.5235 H   0  0  0  0  0  0  0  0  0  0  0  0
   64.2531   32.0946   49.1871 H   0  0  0  0  0  0  0  0  0  0  0  0
   63.8123   34.3016   45.5686 H   0  0  0  0  0  0  0  0  0  0  0  0
   61.3271   34.3232   45.8407 H   0  0  0  0  0  0  0  0  0  0  0  0
   57.5604   33.4267   44.4990 H   0  0  0  0  0  0  0  0  0  0  0  0
   58.3270   32.0426   43.6485 H   0  0  0  0  0  0  0  0  0  0  0  0
   56.5393   32.2182   43.6485 H   0  0  0  0  0  0  0  0  0  0  0  0
  1  2  1  0
  2  3  1  0
  3  4  2  0
  4  5  1  0
  5  6  1  0
  5  7  2  0
  7  8  1  0
  8  9  1  0
  9 10  1  0
 10 11  1  0
 11 12  1  0
 12 13  2  0
 13 14  1  0
 14 15  2  0
 15 16  1  0
 16 17  2  0
  8 18  2  0
 18 19  1  0
 19 20  1  0
 18  3  1  0
 17 12  1  0
  1 21  1  0
  1 22  1  0
  1 23  1  0
  4 24  1  0
  7 25  1  0
  9 26  1  0
  9 27  1  0
 10 28  1  0
 10 29  1  0
 11 30  1  0
 11 31  1  0
 13 32  1  0
 14 33  1  0
 16 34  1  0
 17 35  1  0
 20 36  1  0
 20 37  1  0
 20 38  1  0
M  CHG  1  10   1
M  END
>  <UniqueID>  (22) 
22

>  <SMILES>  (22) 
COc1cc(Br)cc(C[NH2+]Cc2ccncc2)c1OC

>  <Energy>  (22) 
39.90695011462349

>  <Genealogy>  (22) 
COc1cc(Br)cc(C[NH2+]Cc2ccncc2)c1OC (protonated)
COc1cc(Br)cc(C[NH2+]Cc2ccncc2)c1OC (3D coordinates assigned)
COc1cc(Br)cc(C[NH2+]Cc2ccncc2)c1OC (optimized conformer: 39.90695011462349 kcal/mol)

>  <smiles>  (22) 
COc1cc(Br)cc(CNCc2ccncc2)c1OC

>  <score_type>  (22) 
oracle

>  <origin>  (22) 
adg

>  <m_score__min__energy>  (22) 
-5.8799999999999999

>  <m_primary>  (22) 
energy

$$$$
22:0
     RDKit          3D

 36 38  0  0  0  0  0  0  0  0999 V2000
   60.1640   28.6740   45.4740 O   0  0  0  0  0  0  0  0  0  0  0  0
   59.3150   29.5630   45.7570 C   0  0  0  0  0  0  0  0  0  0  0  0
   57.9510   29.3340   45.5370 O   0  0  0  0  0  0  0  0  0  0  0  0
   57.4130   28.9470   44.2740 C   0  0  0  0  0  0  0  0  0  0  0  0
   56.1200   29.7040   43.9850 C   0  0  0  0  0  0  0  0  0  0  0  0
   55.1450   29.3230   44.8870 F   0  0  0  0  0  0  0  0  0  0  0  0
   59.7730   30.8740   46.2710 C   0  0  0  0  0  0  0  0  0  0  0  0
   60.8970   30.8970   47.1110 C   0  0  0  0  0  0  0  0  0  0  0  0
   61.4210   32.1180   47.5650 C   0  0  0  0  0  0  0  0  0  0  0  0
   62.6190   32.1760   48.4420 C   0  0  0  0  0  0  0  0  0  0  0  0
   63.6830   33.0610   48.1760 C   0  0  0  0  0  0  0  0  0  0  0  0
   64.7970   33.1050   49.0200 C   0  0  0  0  0  0  0  0  0  0  0  0
   64.8610   32.2730   50.1410 C   0  0  0  0  0  0  0  0  0  0  0  0
   66.2590   32.3320   51.1990 Cl  0  0  0  0  0  0  0  0  0  0  0  0
   63.8070   31.4000   50.4220 C   0  0  0  0  0  0  0  0  0  0  0  0
   62.6910   31.3530   49.5820 C   0  0  0  0  0  0  0  0  0  0  0  0
   60.8100   33.2770   47.2020 N   0  0  0  0  0  0  0  0  0  0  0  0
   59.7080   33.3060   46.4110 C   0  0  0  0  0  0  0  0  0  0  0  0
   59.1250   34.5360   46.0910 C   0  0  0  0  0  0  0  0  0  0  0  0
   57.9700   34.5840   45.3090 C   0  0  0  0  0  0  0  0  0  0  0  0
   57.3850   33.4030   44.8540 C   0  0  0  0  0  0  0  0  0  0  0  0
   57.9590   32.1660   45.1630 C   0  0  0  0  0  0  0  0  0  0  0  0
   59.1440   32.0980   45.9270 C   0  0  0  0  0  0  0  0  0  0  0  0
   58.1464   29.1703   43.4852 H   0  0  0  0  0  0  0  0  0  0  0  0
   57.1947   27.8691   44.2973 H   0  0  0  0  0  0  0  0  0  0  0  0
   56.3009   30.7851   44.0773 H   0  0  0  0  0  0  0  0  0  0  0  0
   55.7824   29.4714   42.9642 H   0  0  0  0  0  0  0  0  0  0  0  0
   61.3707   29.9521   47.4158 H   0  0  0  0  0  0  0  0  0  0  0  0
   63.6368   33.7220   47.2980 H   0  0  0  0  0  0  0  0  0  0  0  0
   65.6246   33.7958   48.8012 H   0  0  0  0  0  0  0  0  0  0  0  0
   63.8557   30.7480   51.3066 H   0  0  0  0  0  0  0  0  0  0  0  0
   61.8624   30.6676   49.8134 H   0  0  0  0  0  0  0  0  0  0  0  0
   59.5783   35.4691   46.4569 H   0  0  0  0  0  0  0  0  0  0  0  0
   57.5208   35.5545   45.0514 H   0  0  0  0  0  0  0  0  0  0  0  0
   56.4673   33.4446   44.2489 H   0  0  0  0  0  0  0  0  0  0  0  0
   57.4839   31.2395   44.8083 H   0  0  0  0  0  0  0  0  0  0  0  0
  1  2  2  0
  2  3  1  0
  3  4  1  0
  4  5  1  0
  5  6  1  0
  2  7  1  0
  7  8  2  0
  8  9  1  0
  9 10  1  0
 10 11  2  0
 11 12  1  0
 12 13  2  0
 13 14  1  0
 13 15  1  0
 15 16  2  0
  9 17  2  0
 17 18  1  0
 18 19  2  0
 19 20  1  0
 20 21  2  0
 21 22  1  0
 22 23  2  0
 23  7  1  0
 16 10  1  0
 23 18  1  0
  4 24  1  0
  4 25  1  0
  5 26  1  0
  5 27  1  0
  8 28  1  0
 11 29  1  0
 12 30  1  0
 15 31  1  0
 16 32  1  0
 19 33  1  0
 20 34  1  0
 21 35  1  0
 22 36  1  0
M  END
>  <UniqueID>  (23) 
23

>  <SMILES>  (23) 
O=C(OCCF)c1cc(-c2ccc(Cl)cc2)nc2ccccc12

>  <Energy>  (23) 
48.38810878776813

>  <Genealogy>  (23) 
O=C(OCCF)c1cc(-c2ccc(Cl)cc2)nc2ccccc12 (3D coordinates assigned)
O=C(OCCF)c1cc(-c2ccc(Cl)cc2)nc2ccccc12 (optimized conformer: 48.38810878776813 kcal/mol)

>  <smiles>  (23) 
O=C(OCCF)c1cc(-c2ccc(Cl)cc2)nc2ccccc12

>  <score_type>  (23) 
oracle

>  <origin>  (23) 
adg

>  <m_score__min__energy>  (23) 
-7.4100000000000001

>  <m_primary>  (23) 
energy

$$$$
23:0
     RDKit          3D

 51 53  0  0  0  0  0  0  0  0999 V2000
   62.8220   33.9270   50.6480 C   0  0  0  0  0  0  0  0  0  0  0  0
   62.6420   33.8120   49.1620 C   0  0  0  0  0  0  0  0  0  0  0  0
   63.7530   33.6070   48.3390 C   0  0  0  0  0  0  0  0  0  0  0  0
   63.5860   33.4590   46.9640 C   0  0  0  0  0  0  0  0  0  0  0  0
   62.3100   33.5040   46.3990 C   0  0  0  0  0  0  0  0  0  0  0  0
   61.1600   33.6980   47.2030 C   0  0  0  0  0  0  0  0  0  0  0  0
   59.8200   33.7390   46.6150 N   0  0  0  0  0  0  0  0  0  0  0  0
   59.5860   34.5920   45.4280 C   0  0  0  0  0  0  0  0  0  0  0  0
   58.1410   34.6000   44.8970 C   0  0  0  0  0  0  0  0  0  0  0  0
   57.4320   33.3300   45.1050 N   0  0  0  0  0  0  0  0  0  0  0  0
   57.9620   32.2130   44.2940 C   0  0  0  0  0  0  0  0  0  0  0  0
   57.3910   30.9040   44.7650 C   0  0  0  0  0  0  0  0  0  0  0  0
   56.1620   30.6890   44.5740 O   0  0  0  0  0  0  0  0  0  0  0  0
   58.1920   29.9110   45.4500 N   0  0  0  0  0  0  0  0  0  0  0  0
   59.6650   29.9570   45.4480 C   0  0  0  0  0  0  0  0  0  0  0  0
   60.2570   29.5020   46.8010 C   0  0  0  0  0  0  0  0  0  0  0  0
   59.3130   28.7100   47.6200 N   0  0  0  0  0  0  0  0  0  0  0  0
   60.0410   27.9170   48.6230 C   0  0  0  0  0  0  0  0  0  0  0  0
   58.4790   27.8390   46.7800 C   0  0  0  0  0  0  0  0  0  0  0  0
   57.5170   28.7120   45.9740 C   0  0  0  0  0  0  0  0  0  0  0  0
   57.3920   33.0280   46.5400 C   0  0  0  0  0  0  0  0  0  0  0  0
   58.7890   32.8130   47.1310 C   0  0  0  0  0  0  0  0  0  0  0  0
   61.3560   33.8390   48.6000 C   0  0  0  0  0  0  0  0  0  0  0  0
   62.0009   33.4024   51.1585 H   0  0  0  0  0  0  0  0  0  0  0  0
   63.7820   33.4746   50.9372 H   0  0  0  0  0  0  0  0  0  0  0  0
   62.8150   34.9883   50.9372 H   0  0  0  0  0  0  0  0  0  0  0  0
   64.7607   33.5625   48.7778 H   0  0  0  0  0  0  0  0  0  0  0  0
   64.4643   33.3058   46.3197 H   0  0  0  0  0  0  0  0  0  0  0  0
   62.1958   33.3868   45.3112 H   0  0  0  0  0  0  0  0  0  0  0  0
   59.8561   35.6248   45.6934 H   0  0  0  0  0  0  0  0  0  0  0  0
   60.2033   34.1676   44.6225 H   0  0  0  0  0  0  0  0  0  0  0  0
   57.5853   35.3972   45.4124 H   0  0  0  0  0  0  0  0  0  0  0  0
   58.1969   34.7647   43.8108 H   0  0  0  0  0  0  0  0  0  0  0  0
   57.6885   32.3691   43.2400 H   0  0  0  0  0  0  0  0  0  0  0  0
   59.0564   32.1832   44.4010 H   0  0  0  0  0  0  0  0  0  0  0  0
   60.0405   29.2942   44.6545 H   0  0  0  0  0  0  0  0  0  0  0  0
   59.9736   30.9983   45.2735 H   0  0  0  0  0  0  0  0  0  0  0  0
   61.1472   28.8870   46.6027 H   0  0  0  0  0  0  0  0  0  0  0  0
   60.4977   30.4110   47.3717 H   0  0  0  0  0  0  0  0  0  0  0  0
   59.7443   28.2402   49.6317 H   0  0  0  0  0  0  0  0  0  0  0  0
   59.7999   26.8516   48.4936 H   0  0  0  0  0  0  0  0  0  0  0  0
   61.1231   28.0664   48.4936 H   0  0  0  0  0  0  0  0  0  0  0  0
   59.1183   27.2626   46.0951 H   0  0  0  0  0  0  0  0  0  0  0  0
   57.9115   27.1400   47.4119 H   0  0  0  0  0  0  0  0  0  0  0  0
   57.1225   28.1259   45.1309 H   0  0  0  0  0  0  0  0  0  0  0  0
   56.7025   29.0354   46.6389 H   0  0  0  0  0  0  0  0  0  0  0  0
   56.9120   33.8674   47.0644 H   0  0  0  0  0  0  0  0  0  0  0  0
   56.8254   32.0942   46.6704 H   0  0  0  0  0  0  0  0  0  0  0  0
   58.7249   32.9427   48.2214 H   0  0  0  0  0  0  0  0  0  0  0  0
   59.1016   31.8001   46.8371 H   0  0  0  0  0  0  0  0  0  0  0  0
   60.4833   33.9722   49.2563 H   0  0  0  0  0  0  0  0  0  0  0  0
  1  2  1  0
  2  3  2  0
  3  4  1  0
  4  5  2  0
  5  6  1  0
  6  7  1  0
  7  8  1  0
  8  9  1  0
  9 10  1  0
 10 11  1  0
 11 12  1  0
 12 13  2  0
 12 14  1  0
 14 15  1  0
 15 16  1  0
 16 17  1  0
 17 18  1  0
 17 19  1  0
 19 20  1  0
 10 21  1  0
 21 22  1  0
  6 23  2  0
 23  2  1  0
 22  7  1  0
 20 14  1  0
  1 24  1  0
  1 25  1  0
  1 26  1  0
  3 27  1  0
  4 28  1  0
  5 29  1  0
  8 30  1  0
  8 31  1  0
  9 32  1  0
  9 33  1  0
 11 34  1  0
 11 35  1  0
 15 36  1  0
 15 37  1  0
 16 38  1  0
 16 39  1  0
 18 40  1  0
 18 41  1  0
 18 42  1  0
 19 43  1  0
 19 44  1  0
 20 45  1  0
 20 46  1  0
 21 47  1  0
 21 48  1  0
 22 49  1  0
 22 50  1  0
 23 51  1  0
M  END
>  <UniqueID>  (24) 
24

>  <SMILES>  (24) 
Cc1cccc(N2CCN(CC(=O)N3CCN(C)CC3)CC2)c1

>  <Energy>  (24) 
66.46090008500298

>  <Genealogy>  (24) 
Cc1cccc(N2CCN(CC(=O)N3CCN(C)CC3)CC2)c1 (3D coordinates assigned)
Cc1cccc(N2CCN(CC(=O)N3CCN(C)CC3)CC2)c1 (nonaromatic ring conformer: 66.46090008500298 kcal/mol)

>  <smiles>  (24) 
Cc1cccc(N2CCN(CC(=O)N3CCN(C)CC3)CC2)c1

>  <score_type>  (24) 
oracle

>  <origin>  (24) 
adg

>  <m_score__min__energy>  (24) 
-8.2300000000000004

>  <m_primary>  (24) 
energy

$$$$
24:0
     RDKit          3D

 55 58  0  0  0  0  0  0  0  0999 V2000
   63.3860   31.5880   47.6360 C   0  0  0  0  0  0  0  0  0  0  0  0
   63.8460   32.9810   47.8060 N   0  0  0  0  0  0  0  0  0  0  0  0
   63.3920   33.5640   49.0970 C   0  0  0  0  0  0  0  0  0  0  0  0
   62.0790   34.3650   48.9810 C   0  0  0  0  0  0  0  0  0  0  0  0
   61.2790   33.8560   47.8590 N   0  0  0  0  0  0  0  0  0  0  0  0
   59.8680   34.3030   47.8780 C   0  0  0  0  0  0  0  0  0  0  0  0
   59.0020   33.6580   46.8150 C   0  0  0  0  0  0  0  0  0  0  0  0
   58.1790   34.4470   45.9960 C   0  0  0  0  0  0  0  0  0  0  0  0
   57.3780   33.8530   45.0200 C   0  0  0  0  0  0  0  0  0  0  0  0
   57.3940   32.4670   44.8450 C   0  0  0  0  0  0  0  0  0  0  0  0
   58.2230   31.6590   45.6430 C   0  0  0  0  0  0  0  0  0  0  0  0
   58.2460   30.1860   45.4550 C   0  0  0  0  0  0  0  0  0  0  0  0
   57.4600   29.5780   44.4610 C   0  0  0  0  0  0  0  0  0  0  0  0
   57.4790   28.1910   44.2880 C   0  0  0  0  0  0  0  0  0  0  0  0
   58.2720   27.3830   45.1130 C   0  0  0  0  0  0  0  0  0  0  0  0
   58.2960   25.9610   44.8990 N   0  0  0  0  0  0  0  0  0  0  0  0
   57.1250   25.1490   44.7050 C   0  0  0  0  0  0  0  0  0  0  0  0
   56.0670   25.2340   45.6230 C   0  0  0  0  0  0  0  0  0  0  0  0
   54.9310   24.4330   45.4690 C   0  0  0  0  0  0  0  0  0  0  0  0
   54.8500   23.5300   44.4060 C   0  0  0  0  0  0  0  0  0  0  0  0
   55.9080   23.4210   43.4990 C   0  0  0  0  0  0  0  0  0  0  0  0
   57.0450   24.2200   43.6500 C   0  0  0  0  0  0  0  0  0  0  0  0
   59.0790   27.9880   46.0920 C   0  0  0  0  0  0  0  0  0  0  0  0
   59.0600   29.3750   46.2660 C   0  0  0  0  0  0  0  0  0  0  0  0
   59.0300   32.2660   46.6230 C   0  0  0  0  0  0  0  0  0  0  0  0
   61.9500   34.0820   46.5640 C   0  0  0  0  0  0  0  0  0  0  0  0
   63.4720   33.8250   46.6500 C   0  0  0  0  0  0  0  0  0  0  0  0
   63.2344   31.1288   48.6240 H   0  0  0  0  0  0  0  0  0  0  0  0
   62.4377   31.5804   47.0787 H   0  0  0  0  0  0  0  0  0  0  0  0
   64.1434   31.0172   47.0787 H   0  0  0  0  0  0  0  0  0  0  0  0
   64.8940   32.9430   47.8300 H   0  0  0  0  0  0  0  0  0  0  0  0
   63.2379   32.7445   49.8144 H   0  0  0  0  0  0  0  0  0  0  0  0
   64.1717   34.2659   49.4277 H   0  0  0  0  0  0  0  0  0  0  0  0
   61.5055   34.2619   49.9140 H   0  0  0  0  0  0  0  0  0  0  0  0
   62.3161   35.4246   48.8048 H   0  0  0  0  0  0  0  0  0  0  0  0
   59.4424   34.0626   48.8634 H   0  0  0  0  0  0  0  0  0  0  0  0
   59.8739   35.3833   47.6708 H   0  0  0  0  0  0  0  0  0  0  0  0
   58.1655   35.5394   46.1243 H   0  0  0  0  0  0  0  0  0  0  0  0
   56.7318   34.4781   44.3862 H   0  0  0  0  0  0  0  0  0  0  0  0
   56.7543   32.0052   44.0785 H   0  0  0  0  0  0  0  0  0  0  0  0
   56.8241   30.1993   43.8133 H   0  0  0  0  0  0  0  0  0  0  0  0
   56.8669   27.7307   43.4984 H   0  0  0  0  0  0  0  0  0  0  0  0
   59.2270   25.4870   44.8820 H   0  0  0  0  0  0  0  0  0  0  0  0
   56.1316   25.9347   46.4685 H   0  0  0  0  0  0  0  0  0  0  0  0
   54.1004   24.5140   46.1856 H   0  0  0  0  0  0  0  0  0  0  0  0
   53.9534   22.9047   44.2828 H   0  0  0  0  0  0  0  0  0  0  0  0
   55.8458   22.7058   42.6656 H   0  0  0  0  0  0  0  0  0  0  0  0
   57.8808   24.1226   42.9416 H   0  0  0  0  0  0  0  0  0  0  0  0
   59.7294   27.3664   46.7250 H   0  0  0  0  0  0  0  0  0  0  0  0
   59.6869   29.8358   47.0436 H   0  0  0  0  0  0  0  0  0  0  0  0
   59.6900   31.6442   47.2457 H   0  0  0  0  0  0  0  0  0  0  0  0
   61.5164   33.4024   45.8156 H   0  0  0  0  0  0  0  0  0  0  0  0
   61.7977   35.1338   46.2804 H   0  0  0  0  0  0  0  0  0  0  0  0
   63.7961   33.3212   45.7274 H   0  0  0  0  0  0  0  0  0  0  0  0
   63.9659   34.7995   46.7776 H   0  0  0  0  0  0  0  0  0  0  0  0
  1  2  1  0
  2  3  1  0
  3  4  1  0
  4  5  1  0
  5  6  1  0
  6  7  1  0
  7  8  2  0
  8  9  1  0
  9 10  2  0
 10 11  1  0
 11 12  1  0
 12 13  2  0
 13 14  1  0
 14 15  2  0
 15 16  1  0
 16 17  1  0
 17 18  2  0
 18 19  1  0
 19 20  2  0
 20 21  1  0
 21 22  2  0
 15 23  1  0
 23 24  2  0
 11 25  2  0
  5 26  1  0
 26 27  1  0
 27  2  1  0
 25  7  1  0
 24 12  1  0
 22 17  1  0
  1 28  1  0
  1 29  1  0
  1 30  1  0
  2 31  1  0
  3 32  1  0
  3 33  1  0
  4 34  1  0
  4 35  1  0
  6 36  1  0
  6 37  1  0
  8 38  1  0
  9 39  1  0
 10 40  1  0
 13 41  1  0
 14 42  1  0
 16 43  1  0
 18 44  1  0
 19 45  1  0
 20 46  1  0
 21 47  1  0
 22 48  1  0
 23 49  1  0
 24 50  1  0
 25 51  1  0
 26 52  1  0
 26 53  1  0
 27 54  1  0
 27 55  1  0
M  CHG  1   2   1
M  END
>  <UniqueID>  (25) 
25

>  <SMILES>  (25) 
C[NH+]1CCN(Cc2cccc(-c3ccc(Nc4ccccc4)cc3)c2)CC1

>  <Energy>  (25) 
82.09100329326083

>  <Genealogy>  (25) 
C[NH+]1CCN(Cc2cccc(-c3ccc(Nc4ccccc4)cc3)c2)CC1 (protonated)
C[NH+]1CCN(Cc2cccc(-c3ccc(Nc4ccccc4)cc3)c2)CC1 (3D coordinates assigned)
C[NH+]1CCN(Cc2cccc(-c3ccc(Nc4ccccc4)cc3)c2)CC1 (nonaromatic ring conformer: 82.09100329326083 kcal/mol)

>  <smiles>  (25) 
CN1CCN(Cc2cccc(-c3ccc(Nc4ccccc4)cc3)c2)CC1

>  <score_type>  (25) 
oracle

>  <origin>  (25) 
adg

>  <m_score__min__energy>  (25) 
-7.9800000000000004

>  <m_primary>  (25) 
energy

$$$$
25:0
     RDKit          3D

 47 49  0  0  0  0  0  0  0  0999 V2000
   60.6680   34.2010   47.7610 C   0  0  0  0  0  0  0  0  0  0  0  0
   59.2130   34.5680   47.4990 C   0  0  0  0  0  0  0  0  0  0  0  0
   58.6620   33.7220   46.4450 N   0  0  0  0  0  0  0  0  0  0  0  0
   59.1250   32.5110   46.0820 C   0  0  0  0  0  0  0  0  0  0  0  0
   58.2860   32.0160   45.1080 C   0  0  0  0  0  0  0  0  0  0  0  0
   58.3690   30.6840   44.4290 C   0  0  0  0  0  0  0  0  0  0  0  0
   57.7550   29.6370   45.2730 N   0  0  0  0  0  0  0  0  0  0  0  0
   58.7140   29.0720   46.2590 C   0  0  0  0  0  0  0  0  0  0  0  0
   58.1190   28.0080   47.2090 C   0  0  0  0  0  0  0  0  0  0  0  0
   58.2180   26.5530   46.7060 C   0  0  0  0  0  0  0  0  0  0  0  0
   57.5630   26.3650   45.4010 N   0  0  0  0  0  0  0  0  0  0  0  0
   56.5980   25.3010   45.2360 C   0  0  0  0  0  0  0  0  0  0  0  0
   56.7610   24.3140   44.2480 C   0  0  0  0  0  0  0  0  0  0  0  0
   55.7950   23.3150   44.1280 C   0  0  0  0  0  0  0  0  0  0  0  0
   55.9450   22.3280   43.1500 O   0  0  0  0  0  0  0  0  0  0  0  0
   57.0570   21.4400   43.1170 C   0  0  0  0  0  0  0  0  0  0  0  0
   54.7200   23.3120   44.9620 N   0  0  0  0  0  0  0  0  0  0  0  0
   54.5730   24.2690   45.9140 C   0  0  0  0  0  0  0  0  0  0  0  0
   55.5040   25.2480   46.0440 N   0  0  0  0  0  0  0  0  0  0  0  0
   57.8100   27.3120   44.2950 C   0  0  0  0  0  0  0  0  0  0  0  0
   57.0430   28.6410   44.4390 C   0  0  0  0  0  0  0  0  0  0  0  0
   57.3130   32.9820   44.9330 C   0  0  0  0  0  0  0  0  0  0  0  0
   57.5620   34.0120   45.7660 N   0  0  0  0  0  0  0  0  0  0  0  0
   60.8453   34.1563   48.8457 H   0  0  0  0  0  0  0  0  0  0  0  0
   60.8851   33.2200   47.3133 H   0  0  0  0  0  0  0  0  0  0  0  0
   61.3244   34.9617   47.3133 H   0  0  0  0  0  0  0  0  0  0  0  0
   58.6305   34.4254   48.4212 H   0  0  0  0  0  0  0  0  0  0  0  0
   59.1597   35.6194   47.1801 H   0  0  0  0  0  0  0  0  0  0  0  0
   60.0137   32.0073   46.4900 H   0  0  0  0  0  0  0  0  0  0  0  0
   57.8366   30.7333   43.4677 H   0  0  0  0  0  0  0  0  0  0  0  0
   59.4270   30.4334   44.2623 H   0  0  0  0  0  0  0  0  0  0  0  0
   59.5425   28.6088   45.7031 H   0  0  0  0  0  0  0  0  0  0  0  0
   59.0321   29.9108   46.8956 H   0  0  0  0  0  0  0  0  0  0  0  0
   58.6508   28.0734   48.1697 H   0  0  0  0  0  0  0  0  0  0  0  0
   57.0450   28.2329   47.2866 H   0  0  0  0  0  0  0  0  0  0  0  0
   59.2802   26.2837   46.6103 H   0  0  0  0  0  0  0  0  0  0  0  0
   57.7036   25.9100   47.4354 H   0  0  0  0  0  0  0  0  0  0  0  0
   57.6355   24.3294   43.5810 H   0  0  0  0  0  0  0  0  0  0  0  0
   57.3622   21.1963   44.1453 H   0  0  0  0  0  0  0  0  0  0  0  0
   56.7736   20.5169   42.5901 H   0  0  0  0  0  0  0  0  0  0  0  0
   57.8945   21.9206   42.5901 H   0  0  0  0  0  0  0  0  0  0  0  0
   53.6983   24.2508   46.5807 H   0  0  0  0  0  0  0  0  0  0  0  0
   58.8869   27.5337   44.2608 H   0  0  0  0  0  0  0  0  0  0  0  0
   57.4528   26.8313   43.3723 H   0  0  0  0  0  0  0  0  0  0  0  0
   56.8919   29.0681   43.4366 H   0  0  0  0  0  0  0  0  0  0  0  0
   56.0897   28.4162   44.9397 H   0  0  0  0  0  0  0  0  0  0  0  0
   56.4712   32.9202   44.2276 H   0  0  0  0  0  0  0  0  0  0  0  0
  1  2  1  0
  2  3  1  0
  3  4  1  0
  4  5  2  0
  5  6  1  0
  6  7  1  0
  7  8  1  0
  8  9  1  0
  9 10  1  0
 10 11  1  0
 11 12  1  0
 12 13  2  0
 13 14  1  0
 14 15  1  0
 15 16  1  0
 14 17  2  0
 17 18  1  0
 18 19  2  0
 11 20  1  0
 20 21  1  0
  5 22  1  0
 22 23  2  0
 23  3  1  0
 21  7  1  0
 19 12  1  0
  1 24  1  0
  1 25  1  0
  1 26  1  0
  2 27  1  0
  2 28  1  0
  4 29  1  0
  6 30  1  0
  6 31  1  0
  8 32  1  0
  8 33  1  0
  9 34  1  0
  9 35  1  0
 10 36  1  0
 10 37  1  0
 13 38  1  0
 16 39  1  0
 16 40  1  0
 16 41  1  0
 18 42  1  0
 20 43  1  0
 20 44  1  0
 21 45  1  0
 21 46  1  0
 22 47  1  0
M  END
>  <UniqueID>  (26) 
26

>  <SMILES>  (26) 
CCn1cc(CN2CCCN(c3cc(OC)ncn3)CC2)cn1

>  <Energy>  (26) 
86.86372787137479

>  <Genealogy>  (26) 
CCn1cc(CN2CCCN(c3cc(OC)ncn3)CC2)cn1 (3D coordinates assigned)
CCn1cc(CN2CCCN(c3cc(OC)ncn3)CC2)cn1 (nonaromatic ring conformer: 86.86372787137479 kcal/mol)

>  <smiles>  (26) 
CCn1cc(CN2CCCN(c3cc(OC)ncn3)CC2)cn1

>  <score_type>  (26) 
oracle

>  <origin>  (26) 
adg

>  <m_score__min__energy>  (26) 
-5.1900000000000004

>  <m_primary>  (26) 
energy

$$$$
26:0
     RDKit          3D

 50 53  0  0  0  0  0  0  0  0999 V2000
   56.2990   30.0660   42.6460 C   0  0  0  0  0  0  0  0  0  0  0  0
   57.0520   31.2260   42.4520 C   0  0  0  0  0  0  0  0  0  0  0  0
   57.5870   31.8990   43.5530 C   0  0  0  0  0  0  0  0  0  0  0  0
   57.3520   31.4030   44.8450 C   0  0  0  0  0  0  0  0  0  0  0  0
   57.8990   32.1140   46.0600 C   0  0  0  0  0  0  0  0  0  0  0  0
   59.3130   32.5260   45.9120 N   0  0  0  0  0  0  0  0  0  0  0  0
   59.5470   33.9400   46.2840 C   0  0  0  0  0  0  0  0  0  0  0  0
   61.0460   34.2340   46.4010 C   0  0  0  0  0  0  0  0  0  0  0  0
   61.7070   33.4150   47.5570 C   0  0  0  0  0  0  0  0  0  0  0  0
   60.9420   32.0630   47.7630 C   0  0  0  0  0  0  0  0  0  0  0  0
   60.2920   31.5580   46.4650 C   0  0  0  0  0  0  0  0  0  0  0  0
   63.2040   33.1360   47.1930 C   0  0  0  0  0  0  0  0  0  0  0  0
   64.1580   33.1070   48.4040 C   0  0  0  0  0  0  0  0  0  0  0  0
   63.4540   32.7140   49.6330 N   0  0  0  0  0  0  0  0  0  0  0  0
   63.9180   31.6000   50.4250 C   0  0  0  0  0  0  0  0  0  0  0  0
   65.2440   31.4800   50.7160 N   0  0  0  0  0  0  0  0  0  0  0  0
   65.7180   30.4380   51.4450 C   0  0  0  0  0  0  0  0  0  0  0  0
   64.8420   29.4630   51.9100 C   0  0  0  0  0  0  0  0  0  0  0  0
   63.4880   29.5910   51.6110 C   0  0  0  0  0  0  0  0  0  0  0  0
   63.0460   30.6490   50.8790 N   0  0  0  0  0  0  0  0  0  0  0  0
   62.2790   33.4930   50.0530 C   0  0  0  0  0  0  0  0  0  0  0  0
   61.6510   34.2490   48.8690 C   0  0  0  0  0  0  0  0  0  0  0  0
   56.6220   30.2630   45.0030 N   0  0  0  0  0  0  0  0  0  0  0  0
   56.0950   29.5940   43.9430 C   0  0  0  0  0  0  0  0  0  0  0  0
   55.8714   29.5303   41.7857 H   0  0  0  0  0  0  0  0  0  0  0  0
   57.2233   31.6087   41.4350 H   0  0  0  0  0  0  0  0  0  0  0  0
   58.1871   32.8095   43.4088 H   0  0  0  0  0  0  0  0  0  0  0  0
   57.2910   33.0125   46.2415 H   0  0  0  0  0  0  0  0  0  0  0  0
   57.8532   31.4049   46.8997 H   0  0  0  0  0  0  0  0  0  0  0  0
   59.1113   34.5921   45.5127 H   0  0  0  0  0  0  0  0  0  0  0  0
   59.0747   34.1295   47.2592 H   0  0  0  0  0  0  0  0  0  0  0  0
   61.5361   33.9707   45.4521 H   0  0  0  0  0  0  0  0  0  0  0  0
   61.1693   35.3040   46.6246 H   0  0  0  0  0  0  0  0  0  0  0  0
   61.6539   31.3045   48.1207 H   0  0  0  0  0  0  0  0  0  0  0  0
   60.1402   32.2378   48.4955 H   0  0  0  0  0  0  0  0  0  0  0  0
   61.0808   31.3867   45.7177 H   0  0  0  0  0  0  0  0  0  0  0  0
   59.7514   30.6289   46.6987 H   0  0  0  0  0  0  0  0  0  0  0  0
   63.2594   32.1605   46.6877 H   0  0  0  0  0  0  0  0  0  0  0  0
   63.5326   33.9687   46.5537 H   0  0  0  0  0  0  0  0  0  0  0  0
   64.9642   32.3850   48.2071 H   0  0  0  0  0  0  0  0  0  0  0  0
   64.5657   34.1185   48.5474 H   0  0  0  0  0  0  0  0  0  0  0  0
   66.7927   30.3648   51.6676 H   0  0  0  0  0  0  0  0  0  0  0  0
   65.2101   28.6108   52.5001 H   0  0  0  0  0  0  0  0  0  0  0  0
   62.7737   28.8344   51.9678 H   0  0  0  0  0  0  0  0  0  0  0  0
   62.0240   30.7230   50.6880 H   0  0  0  0  0  0  0  0  0  0  0  0
   61.5298   32.8088   50.4780 H   0  0  0  0  0  0  0  0  0  0  0  0
   62.6038   34.2315   50.8008 H   0  0  0  0  0  0  0  0  0  0  0  0
   60.5999   34.4710   49.1054 H   0  0  0  0  0  0  0  0  0  0  0  0
   62.2243   35.1744   48.7110 H   0  0  0  0  0  0  0  0  0  0  0  0
   55.5069   28.6792   44.1083 H   0  0  0  0  0  0  0  0  0  0  0  0
  1  2  2  0
  2  3  1  0
  3  4  2  0
  4  5  1  0
  5  6  1  0
  6  7  1  0
  7  8  1  0
  8  9  1  0
  9 10  1  0
 10 11  1  0
  9 12  1  0
 12 13  1  0
 13 14  1  0
 14 15  1  0
 15 16  2  0
 16 17  1  0
 17 18  2  0
 18 19  1  0
 19 20  2  0
 14 21  1  0
 21 22  1  0
  4 23  1  0
 23 24  2  0
 24  1  1  0
 11  6  1  0
 20 15  1  0
 22  9  1  0
  1 25  1  0
  2 26  1  0
  3 27  1  0
  5 28  1  0
  5 29  1  0
  7 30  1  0
  7 31  1  0
  8 32  1  0
  8 33  1  0
 10 34  1  0
 10 35  1  0
 11 36  1  0
 11 37  1  0
 12 38  1  0
 12 39  1  0
 13 40  1  0
 13 41  1  0
 17 42  1  0
 18 43  1  0
 19 44  1  0
 20 45  1  0
 21 46  1  0
 21 47  1  0
 22 48  1  0
 22 49  1  0
 24 50  1  0
M  CHG  1  20   1
M  END
>  <UniqueID>  (27) 
27

>  <SMILES>  (27) 
c1ccc(CN2CCC3(CC2)CCN(c2nccc[nH+]2)CC3)nc1

>  <Energy>  (27) 
71.5745418213856

>  <Genealogy>  (27) 
c1ccc(CN2CCC3(CC2)CCN(c2nccc[nH+]2)CC3)nc1 (protonated)
c1ccc(CN2CCC3(CC2)CCN(c2nccc[nH+]2)CC3)nc1 (3D coordinates assigned)
c1ccc(CN2CCC3(CC2)CCN(c2nccc[nH+]2)CC3)nc1 (nonaromatic ring conformer: 71.5745418213856 kcal/mol)

>  <smiles>  (27) 
c1ccc(CN2CCC3(CC2)CCN(c2ncccn2)CC3)nc1

>  <score_type>  (27) 
oracle

>  <origin>  (27) 
adg

>  <m_score__min__energy>  (27) 
-7.0099999999999998

>  <m_primary>  (27) 
energy

$$$$
27:0
     RDKit          3D

 37 38  0  0  0  0  0  0  0  0999 V2000
   57.2011   24.7249   46.6982 H   0  0  0  0  0  0  0  0  0  0  0  0
   57.4130   25.7720   46.4360 C   0  0  0  0  0  0  0  0  0  0  0  0
   56.3680   26.6120   46.0130 C   0  0  0  0  0  0  0  0  0  0  0  0
   55.0420   26.1670   45.9090 O   0  0  0  0  0  0  0  0  0  0  0  0
   54.6640   24.8310   45.5910 C   0  0  0  0  0  0  0  0  0  0  0  0
   54.5037   24.2643   46.5201 H   0  0  0  0  0  0  0  0  0  0  0  0
   53.7340   24.8430   45.0037 H   0  0  0  0  0  0  0  0  0  0  0  0
   55.4624   24.3540   45.0037 H   0  0  0  0  0  0  0  0  0  0  0  0
   56.6490   27.9420   45.6810 C   0  0  0  0  0  0  0  0  0  0  0  0
   55.8333   28.6014   45.3494 H   0  0  0  0  0  0  0  0  0  0  0  0
   57.9620   28.4500   45.7650 C   0  0  0  0  0  0  0  0  0  0  0  0
   58.2670   29.7910   45.4330 C   0  0  0  0  0  0  0  0  0  0  0  0
   57.3100   30.5910   45.0400 N   0  0  0  0  0  0  0  0  0  0  0  0
   57.2000   31.2990   43.7630 C   0  0  0  0  0  0  0  0  0  0  0  0
   57.5116   30.6269   42.9499 H   0  0  0  0  0  0  0  0  0  0  0  0
   56.1548   31.6115   43.6217 H   0  0  0  0  0  0  0  0  0  0  0  0
   58.0930   32.5480   43.7540 C   0  0  0  0  0  0  0  0  0  0  0  0
   59.1158   32.2585   43.4710 H   0  0  0  0  0  0  0  0  0  0  0  0
   57.6857   33.2684   43.0294 H   0  0  0  0  0  0  0  0  0  0  0  0
   58.1200   33.1820   45.0910 N   0  0  0  0  0  0  0  0  0  0  0  0
   57.0530   34.1900   45.2210 C   0  0  0  0  0  0  0  0  0  0  0  0
   56.8540   34.3780   46.2864 H   0  0  0  0  0  0  0  0  0  0  0  0
   57.3710   35.1251   44.7368 H   0  0  0  0  0  0  0  0  0  0  0  0
   56.1375   33.8194   44.7368 H   0  0  0  0  0  0  0  0  0  0  0  0
   59.4260   33.8230   45.3210 C   0  0  0  0  0  0  0  0  0  0  0  0
   59.6057   33.9112   46.4026 H   0  0  0  0  0  0  0  0  0  0  0  0
   60.2195   33.2120   44.8661 H   0  0  0  0  0  0  0  0  0  0  0  0
   59.4281   34.8245   44.8661 H   0  0  0  0  0  0  0  0  0  0  0  0
   59.6030   30.2270   45.5450 C   0  0  0  0  0  0  0  0  0  0  0  0
   59.8648   31.2662   45.2971 H   0  0  0  0  0  0  0  0  0  0  0  0
   60.5930   29.3410   45.9700 C   0  0  0  0  0  0  0  0  0  0  0  0
   61.6343   29.6859   46.0523 H   0  0  0  0  0  0  0  0  0  0  0  0
   60.2830   28.0570   46.2830 N   0  0  0  0  0  0  0  0  0  0  0  0
   61.0520   27.4250   46.5980 H   0  0  0  0  0  0  0  0  0  0  0  0
   59.0040   27.5920   46.1930 C   0  0  0  0  0  0  0  0  0  0  0  0
   58.7170   26.2590   46.5250 C   0  0  0  0  0  0  0  0  0  0  0  0
   59.5267   25.5931   46.8580 H   0  0  0  0  0  0  0  0  0  0  0  0
  1  2  1  0
  2  3  2  0
  3  4  1  0
  4  5  1  0
  5  6  1  0
  5  7  1  0
  5  8  1  0
  3  9  1  0
  9 10  1  0
  9 11  2  0
 11 12  1  0
 12 13  2  0
 13 14  1  0
 14 15  1  0
 14 16  1  0
 14 17  1  0
 17 18  1  0
 17 19  1  0
 17 20  1  0
 20 21  1  0
 21 22  1  0
 21 23  1  0
 21 24  1  0
 20 25  1  0
 25 26  1  0
 25 27  1  0
 25 28  1  0
 12 29  1  0
 29 30  1  0
 29 31  2  0
 31 32  1  0
 31 33  1  0
 33 34  1  0
 33 35  1  0
 35 36  2  0
 36 37  1  0
 36  2  1  0
 35 11  1  0
M  END
>  <UniqueID>  (28) 
28

>  <SMILES>  (28) 
COc1ccc2[nH]cc/c(=N\CCN(C)C)c2c1

>  <Energy>  (28) 
42.489713347995824

>  <Genealogy>  (28) 
COc1ccc2[nH]cc/c(=N\CCN(C)C)c2c1 (cis-trans isomerization)
COc1ccc2[nH]cc/c(=N\CCN(C)C)c2c1 (3D coordinates assigned)
COc1ccc2[nH]cc/c(=N\CCN(C)C)c2c1 (optimized conformer: 42.489713347995824 kcal/mol)

>  <smiles>  (28) 
COc1ccc2[nH]ccc(=NCCN(C)C)c2c1

>  <score_type>  (28) 
oracle

>  <origin>  (28) 
adg

>  <m_score__min__energy>  (28) 
-5.9299999999999997

>  <m_primary>  (28) 
energy

$$$$
28:0
     RDKit          3D

 51 53  0  0  0  0  0  0  0  0999 V2000
   59.3630   32.7560   49.6550 C   0  0  0  0  0  0  0  0  0  0  0  0
   59.8710   32.5680   48.3390 O   0  0  0  0  0  0  0  0  0  0  0  0
   61.2270   32.6580   47.9860 C   0  0  0  0  0  0  0  0  0  0  0  0
   62.1980   31.8090   48.5550 C   0  0  0  0  0  0  0  0  0  0  0  0
   63.5430   31.9320   48.1990 C   0  0  0  0  0  0  0  0  0  0  0  0
   63.9380   32.9020   47.2780 C   0  0  0  0  0  0  0  0  0  0  0  0
   62.9890   33.7490   46.7040 C   0  0  0  0  0  0  0  0  0  0  0  0
   61.6300   33.6300   47.0430 C   0  0  0  0  0  0  0  0  0  0  0  0
   60.6380   34.5900   46.4290 C   0  0  0  0  0  0  0  0  0  0  0  0
   59.4100   33.8760   46.0270 N   0  0  0  0  0  0  0  0  0  0  0  0
   58.2320   34.4270   46.7200 C   0  0  0  0  0  0  0  0  0  0  0  0
   57.0230   33.4910   46.5460 C   0  0  0  0  0  0  0  0  0  0  0  0
   57.0640   32.6770   45.2300 C   0  0  0  0  0  0  0  0  0  0  0  0
   57.6270   31.2900   45.4550 C   0  0  0  0  0  0  0  0  0  0  0  0
   57.0610   30.2840   44.9450 O   0  0  0  0  0  0  0  0  0  0  0  0
   58.8610   31.1330   46.1720 N   0  0  0  0  0  0  0  0  0  0  0  0
   59.3780   29.8660   46.6160 C   0  0  0  0  0  0  0  0  0  0  0  0
   59.6250   28.8570   45.6750 C   0  0  0  0  0  0  0  0  0  0  0  0
   60.1550   27.6300   46.0780 C   0  0  0  0  0  0  0  0  0  0  0  0
   60.4470   27.3990   47.4240 C   0  0  0  0  0  0  0  0  0  0  0  0
   60.2050   28.3950   48.3840 C   0  0  0  0  0  0  0  0  0  0  0  0
   60.5830   28.1730   49.8280 C   0  0  0  0  0  0  0  0  0  0  0  0
   60.7760   26.8270   50.0800 F   0  0  0  0  0  0  0  0  0  0  0  0
   59.5690   28.6430   50.6410 F   0  0  0  0  0  0  0  0  0  0  0  0
   61.7540   28.8430   50.1360 F   0  0  0  0  0  0  0  0  0  0  0  0
   59.6980   29.6390   47.9670 C   0  0  0  0  0  0  0  0  0  0  0  0
   57.8160   33.4380   44.1220 C   0  0  0  0  0  0  0  0  0  0  0  0
   59.2170   33.9280   44.5570 C   0  0  0  0  0  0  0  0  0  0  0  0
   60.1315   32.4716   50.3888 H   0  0  0  0  0  0  0  0  0  0  0  0
   59.0941   33.8132   49.7967 H   0  0  0  0  0  0  0  0  0  0  0  0
   58.4707   32.1286   49.7967 H   0  0  0  0  0  0  0  0  0  0  0  0
   61.8942   31.0440   49.2847 H   0  0  0  0  0  0  0  0  0  0  0  0
   64.2924   31.2623   48.6461 H   0  0  0  0  0  0  0  0  0  0  0  0
   64.9988   32.9995   47.0037 H   0  0  0  0  0  0  0  0  0  0  0  0
   63.3066   34.5150   45.9813 H   0  0  0  0  0  0  0  0  0  0  0  0
   60.3813   35.3658   47.1654 H   0  0  0  0  0  0  0  0  0  0  0  0
   61.0911   35.0489   45.5379 H   0  0  0  0  0  0  0  0  0  0  0  0
   58.4578   34.5325   47.7914 H   0  0  0  0  0  0  0  0  0  0  0  0
   57.9893   35.4088   46.2873 H   0  0  0  0  0  0  0  0  0  0  0  0
   57.0015   32.7874   47.3913 H   0  0  0  0  0  0  0  0  0  0  0  0
   56.1236   34.1233   46.5104 H   0  0  0  0  0  0  0  0  0  0  0  0
   56.0282   32.5482   44.8828 H   0  0  0  0  0  0  0  0  0  0  0  0
   59.4620   31.9800   46.3000 H   0  0  0  0  0  0  0  0  0  0  0  0
   59.3999   29.0330   44.6128 H   0  0  0  0  0  0  0  0  0  0  0  0
   60.3432   26.8428   45.3331 H   0  0  0  0  0  0  0  0  0  0  0  0
   60.8689   26.4316   47.7339 H   0  0  0  0  0  0  0  0  0  0  0  0
   59.5503   30.4419   48.7042 H   0  0  0  0  0  0  0  0  0  0  0  0
   57.9335   32.7686   43.2571 H   0  0  0  0  0  0  0  0  0  0  0  0
   57.2205   34.3303   43.8786 H   0  0  0  0  0  0  0  0  0  0  0  0
   59.9765   33.2915   44.0795 H   0  0  0  0  0  0  0  0  0  0  0  0
   59.3133   34.9787   44.2459 H   0  0  0  0  0  0  0  0  0  0  0  0
  1  2  1  0
  2  3  1  0
  3  4  2  0
  4  5  1  0
  5  6  2  0
  6  7  1  0
  7  8  2  0
  8  9  1  0
  9 10  1  0
 10 11  1  0
 11 12  1  0
 12 13  1  0
 13 14  1  0
 14 15  2  0
 14 16  1  0
 16 17  1  0
 17 18  2  0
 18 19  1  0
 19 20  2  0
 20 21  1  0
 21 22  1  0
 22 23  1  0
 22 24  1  0
 22 25  1  0
 21 26  2  0
 13 27  1  0
 27 28  1  0
  8  3  1  0
 28 10  1  0
 26 17  1  0
  1 29  1  0
  1 30  1  0
  1 31  1  0
  4 32  1  0
  5 33  1  0
  6 34  1  0
  7 35  1  0
  9 36  1  0
  9 37  1  0
 11 38  1  0
 11 39  1  0
 12 40  1  0
 12 41  1  0
 13 42  1  0
 16 43  1  0
 18 44  1  0
 19 45  1  0
 20 46  1  0
 26 47  1  0
 27 48  1  0
 27 49  1  0
 28 50  1  0
 28 51  1  0
M  END
>  <UniqueID>  (29) 
29

>  <SMILES>  (29) 
COc1ccccc1CN1CCC(C(=O)Nc2cccc(C(F)(F)F)c2)CC1

>  <Energy>  (29) 
62.30842239545196

>  <Genealogy>  (29) 
COc1ccccc1CN1CCC(C(=O)Nc2cccc(C(F)(F)F)c2)CC1 (3D coordinates assigned)
COc1ccccc1CN1CCC(C(=O)Nc2cccc(C(F)(F)F)c2)CC1 (nonaromatic ring conformer: 62.30842239545196 kcal/mol)

>  <smiles>  (29) 
COc1ccccc1CN1CCC(C(=O)Nc2cccc(C(F)(F)F)c2)CC1

>  <score_type>  (29) 
oracle

>  <origin>  (29) 
adg

>  <m_score__min__energy>  (29) 
-7.2300000000000004

>  <m_primary>  (29) 
energy

$$$$
29:0
     RDKit          3D

 37 39  0  0  0  0  0  0  0  0999 V2000
   55.5170   29.8540   43.5010 C   0  0  0  0  0  0  0  0  0  0  0  0
   56.1610   29.7410   44.8790 C   0  0  0  0  0  0  0  0  0  0  0  0
   57.4400   28.9410   44.8120 C   0  0  0  0  0  0  0  0  0  0  0  0
   57.4970   27.8540   43.9890 N   0  0  0  0  0  0  0  0  0  0  0  0
   58.6360   27.1210   43.8650 C   0  0  0  0  0  0  0  0  0  0  0  0
   59.7490   27.4680   44.5570 N   0  0  0  0  0  0  0  0  0  0  0  0
   59.7530   28.5470   45.3780 C   0  0  0  0  0  0  0  0  0  0  0  0
   58.5990   29.3230   45.5270 C   0  0  0  0  0  0  0  0  0  0  0  0
   58.6290   30.5010   46.4250 C   0  0  0  0  0  0  0  0  0  0  0  0
   58.8260   30.2940   47.8050 C   0  0  0  0  0  0  0  0  0  0  0  0
   58.9780   28.9780   48.2770 O   0  0  0  0  0  0  0  0  0  0  0  0
   60.0870   28.5150   49.0400 C   0  0  0  0  0  0  0  0  0  0  0  0
   58.8660   31.3990   48.6740 C   0  0  0  0  0  0  0  0  0  0  0  0
   58.7190   32.6940   48.1830 C   0  0  0  0  0  0  0  0  0  0  0  0
   58.5310   32.9170   46.8140 C   0  0  0  0  0  0  0  0  0  0  0  0
   58.3860   34.2250   46.3280 C   0  0  0  0  0  0  0  0  0  0  0  0
   58.1960   34.4520   44.9650 C   0  0  0  0  0  0  0  0  0  0  0  0
   58.1470   33.3790   44.0750 C   0  0  0  0  0  0  0  0  0  0  0  0
   58.2910   32.0700   44.5430 C   0  0  0  0  0  0  0  0  0  0  0  0
   58.4870   31.8170   45.9180 C   0  0  0  0  0  0  0  0  0  0  0  0
   54.4393   30.0431   43.6143 H   0  0  0  0  0  0  0  0  0  0  0  0
   55.9788   30.6848   42.9474 H   0  0  0  0  0  0  0  0  0  0  0  0
   55.6684   28.9156   42.9474 H   0  0  0  0  0  0  0  0  0  0  0  0
   56.3865   30.7499   45.2550 H   0  0  0  0  0  0  0  0  0  0  0  0
   55.4601   29.2274   45.5535 H   0  0  0  0  0  0  0  0  0  0  0  0
   56.6580   27.5690   43.4350 H   0  0  0  0  0  0  0  0  0  0  0  0
   58.6542   26.2440   43.2013 H   0  0  0  0  0  0  0  0  0  0  0  0
   60.6672   28.8130   45.9289 H   0  0  0  0  0  0  0  0  0  0  0  0
   59.8597   28.6099   50.1121 H   0  0  0  0  0  0  0  0  0  0  0  0
   60.2831   27.4598   48.7988 H   0  0  0  0  0  0  0  0  0  0  0  0
   60.9752   29.1175   48.7988 H   0  0  0  0  0  0  0  0  0  0  0  0
   59.0148   31.2389   49.7521 H   0  0  0  0  0  0  0  0  0  0  0  0
   58.7509   33.5477   48.8760 H   0  0  0  0  0  0  0  0  0  0  0  0
   58.4223   35.0753   47.0249 H   0  0  0  0  0  0  0  0  0  0  0  0
   58.0844   35.4803   44.5907 H   0  0  0  0  0  0  0  0  0  0  0  0
   57.9945   33.5637   43.0014 H   0  0  0  0  0  0  0  0  0  0  0  0
   58.2513   31.2298   43.8341 H   0  0  0  0  0  0  0  0  0  0  0  0
  1  2  1  0
  2  3  1  0
  3  4  2  0
  4  5  1  0
  5  6  2  0
  6  7  1  0
  7  8  2  0
  8  9  1  0
  9 10  2  0
 10 11  1  0
 11 12  1  0
 10 13  1  0
 13 14  2  0
 14 15  1  0
 15 16  2  0
 16 17  1  0
 17 18  2  0
 18 19  1  0
 19 20  2  0
  8  3  1  0
 20  9  1  0
 20 15  1  0
  1 21  1  0
  1 22  1  0
  1 23  1  0
  2 24  1  0
  2 25  1  0
  4 26  1  0
  5 27  1  0
  7 28  1  0
 12 29  1  0
 12 30  1  0
 12 31  1  0
 13 32  1  0
 14 33  1  0
 16 34  1  0
 17 35  1  0
 18 36  1  0
 19 37  1  0
M  CHG  1   4   1
M  END
>  <UniqueID>  (30) 
30

>  <SMILES>  (30) 
CCc1[nH+]cncc1-c1c(OC)ccc2ccccc12

>  <Energy>  (30) 
48.78616062722355

>  <Genealogy>  (30) 
CCc1[nH+]cncc1-c1c(OC)ccc2ccccc12 (protonated)
CCc1[nH+]cncc1-c1c(OC)ccc2ccccc12 (3D coordinates assigned)
CCc1[nH+]cncc1-c1c(OC)ccc2ccccc12 (optimized conformer: 48.78616062722355 kcal/mol)

>  <smiles>  (30) 
CCc1ncncc1-c1c(OC)ccc2ccccc12

>  <score_type>  (30) 
oracle

>  <origin>  (30) 
adg

>  <m_score__min__energy>  (30) 
-5.5300000000000002

>  <m_primary>  (30) 
energy

$$$$
30:0
     RDKit          3D

 39 41  0  0  0  0  0  0  0  0999 V2000
   63.6010   34.1830   46.7090 O   0  0  0  0  0  0  0  0  0  0  0  0
   62.8920   33.2170   47.1050 C   0  0  0  0  0  0  0  0  0  0  0  0
   63.5890   31.9840   47.6130 C   0  0  0  0  0  0  0  0  0  0  0  0
   63.9910   32.1620   49.0060 N   0  0  0  0  0  0  0  0  0  0  0  0
   64.8510   33.0730   49.4870 C   0  0  0  0  0  0  0  0  0  0  0  0
   64.9590   32.9790   50.8260 N   0  0  0  0  0  0  0  0  0  0  0  0
   64.1100   31.9670   51.1170 C   0  0  0  0  0  0  0  0  0  0  0  0
   63.5110   31.4660   50.0200 N   0  0  0  0  0  0  0  0  0  0  0  0
   61.4500   33.3240   47.0810 N   0  0  0  0  0  0  0  0  0  0  0  0
   60.6310   32.4570   47.9430 C   0  0  0  0  0  0  0  0  0  0  0  0
   59.1420   32.7460   47.7660 C   0  0  0  0  0  0  0  0  0  0  0  0
   58.8540   32.8580   46.3290 N   0  0  0  0  0  0  0  0  0  0  0  0
   57.4170   32.7280   46.0000 C   0  0  0  0  0  0  0  0  0  0  0  0
   57.1520   31.9450   44.7350 C   0  0  0  0  0  0  0  0  0  0  0  0
   57.6800   32.3640   43.5040 C   0  0  0  0  0  0  0  0  0  0  0  0
   57.4170   31.6160   42.3540 C   0  0  0  0  0  0  0  0  0  0  0  0
   56.6280   30.4670   42.4380 C   0  0  0  0  0  0  0  0  0  0  0  0
   56.1090   30.0840   43.6760 C   0  0  0  0  0  0  0  0  0  0  0  0
   56.3790   30.8240   44.7850 N   0  0  0  0  0  0  0  0  0  0  0  0
   59.4900   34.0400   45.7030 C   0  0  0  0  0  0  0  0  0  0  0  0
   60.8160   34.4520   46.3790 C   0  0  0  0  0  0  0  0  0  0  0  0
   62.9052   31.1255   47.5403 H   0  0  0  0  0  0  0  0  0  0  0  0
   64.4869   31.8057   47.0032 H   0  0  0  0  0  0  0  0  0  0  0  0
   65.3963   33.8011   48.8685 H   0  0  0  0  0  0  0  0  0  0  0  0
   63.9291   31.5948   52.1362 H   0  0  0  0  0  0  0  0  0  0  0  0
   60.8255   31.4061   47.6826 H   0  0  0  0  0  0  0  0  0  0  0  0
   60.9009   32.6546   48.9909 H   0  0  0  0  0  0  0  0  0  0  0  0
   58.5511   31.9257   48.1996 H   0  0  0  0  0  0  0  0  0  0  0  0
   58.8778   33.6838   48.2766 H   0  0  0  0  0  0  0  0  0  0  0  0
   56.9141   32.2188   46.8354 H   0  0  0  0  0  0  0  0  0  0  0  0
   57.0316   33.7450   45.8353 H   0  0  0  0  0  0  0  0  0  0  0  0
   58.2957   33.2737   43.4453 H   0  0  0  0  0  0  0  0  0  0  0  0
   57.8304   31.9313   41.3846 H   0  0  0  0  0  0  0  0  0  0  0  0
   56.4177   29.8701   41.5383 H   0  0  0  0  0  0  0  0  0  0  0  0
   55.4817   29.1838   43.7547 H   0  0  0  0  0  0  0  0  0  0  0  0
   59.6940   33.8082   44.6472 H   0  0  0  0  0  0  0  0  0  0  0  0
   58.7920   34.8827   45.8159 H   0  0  0  0  0  0  0  0  0  0  0  0
   61.5070   34.8244   45.6084 H   0  0  0  0  0  0  0  0  0  0  0  0
   60.5912   35.2317   47.1217 H   0  0  0  0  0  0  0  0  0  0  0  0
  1  2  2  0
  2  3  1  0
  3  4  1  0
  4  5  1  0
  5  6  2  0
  6  7  1  0
  7  8  2  0
  2  9  1  0
  9 10  1  0
 10 11  1  0
 11 12  1  0
 12 13  1  0
 13 14  1  0
 14 15  2  0
 15 16  1  0
 16 17  2  0
 17 18  1  0
 18 19  2  0
 12 20  1  0
 20 21  1  0
  8  4  1  0
 21  9  1  0
 19 14  1  0
  3 22  1  0
  3 23  1  0
  5 24  1  0
  7 25  1  0
 10 26  1  0
 10 27  1  0
 11 28  1  0
 11 29  1  0
 13 30  1  0
 13 31  1  0
 15 32  1  0
 16 33  1  0
 17 34  1  0
 18 35  1  0
 20 36  1  0
 20 37  1  0
 21 38  1  0
 21 39  1  0
M  END
>  <UniqueID>  (31) 
31

>  <SMILES>  (31) 
O=C(Cn1cncn1)N1CCN(Cc2ccccn2)CC1

>  <Energy>  (31) 
80.12943302046827

>  <Genealogy>  (31) 
O=C(Cn1cncn1)N1CCN(Cc2ccccn2)CC1 (3D coordinates assigned)
O=C(Cn1cncn1)N1CCN(Cc2ccccn2)CC1 (nonaromatic ring conformer: 80.12943302046827 kcal/mol)

>  <smiles>  (31) 
O=C(Cn1cncn1)N1CCN(Cc2ccccn2)CC1

>  <score_type>  (31) 
oracle

>  <origin>  (31) 
adg

>  <m_score__min__energy>  (31) 
-6.8499999999999996

>  <m_primary>  (31) 
energy

$$$$
31:0
     RDKit          3D

 57 59  0  0  0  0  0  0  0  0999 V2000
   56.2740   30.2570   43.6160 C   0  0  0  0  0  0  0  0  0  0  0  0
   57.0160   30.4740   44.8690 N   0  0  0  0  0  0  0  0  0  0  0  0
   57.2580   29.1820   45.5330 C   0  0  0  0  0  0  0  0  0  0  0  0
   58.2950   31.1760   44.6240 C   0  0  0  0  0  0  0  0  0  0  0  0
   58.1100   32.5110   43.8680 C   0  0  0  0  0  0  0  0  0  0  0  0
   57.7880   33.7130   44.6870 N   0  0  1  0  0  0  0  0  0  0  0  0
   56.9870   33.4230   45.8910 C   0  0  0  0  0  0  0  0  0  0  0  0
   58.9170   34.6650   44.9020 C   0  0  0  0  0  0  0  0  0  0  0  0
   59.7670   34.4220   46.1380 C   0  0  0  0  0  0  0  0  0  0  0  0
   59.3100   34.8100   47.4100 C   0  0  0  0  0  0  0  0  0  0  0  0
   60.0940   34.5910   48.5430 C   0  0  0  0  0  0  0  0  0  0  0  0
   61.3620   34.0050   48.4270 C   0  0  0  0  0  0  0  0  0  0  0  0
   61.8720   33.7030   47.1490 C   0  0  0  0  0  0  0  0  0  0  0  0
   61.0760   33.9260   46.0140 C   0  0  0  0  0  0  0  0  0  0  0  0
   63.2200   33.0510   46.9780 C   0  0  0  0  0  0  0  0  0  0  0  0
   64.0540   33.0690   48.2700 C   0  0  0  0  0  0  0  0  0  0  0  0
   63.2510   32.7760   49.4760 N   0  0  0  0  0  0  0  0  0  0  0  0
   62.6830   31.4080   49.5000 C   0  0  0  0  0  0  0  0  0  0  0  0
   61.3010   31.4000   50.0970 C   0  0  0  0  0  0  0  0  0  0  0  0
   61.1300   31.5920   51.4780 C   0  0  0  0  0  0  0  0  0  0  0  0
   59.8490   31.5800   52.0370 C   0  0  0  0  0  0  0  0  0  0  0  0
   58.7310   31.3730   51.2230 C   0  0  0  0  0  0  0  0  0  0  0  0
   56.9820   31.3560   51.9900 Br  0  0  0  0  0  0  0  0  0  0  0  0
   58.8940   31.1750   49.8480 C   0  0  0  0  0  0  0  0  0  0  0  0
   60.1740   31.1880   49.2850 C   0  0  0  0  0  0  0  0  0  0  0  0
   62.2050   33.8030   49.6630 C   0  0  0  0  0  0  0  0  0  0  0  0
   55.2421   29.9552   43.8485 H   0  0  0  0  0  0  0  0  0  0  0  0
   56.2607   31.1889   43.0317 H   0  0  0  0  0  0  0  0  0  0  0  0
   56.7649   29.4648   43.0317 H   0  0  0  0  0  0  0  0  0  0  0  0
   57.2322   29.3199   46.6240 H   0  0  0  0  0  0  0  0  0  0  0  0
   56.4785   28.4652   45.2355 H   0  0  0  0  0  0  0  0  0  0  0  0
   58.2441   28.7959   45.2355 H   0  0  0  0  0  0  0  0  0  0  0  0
   58.7730   31.3839   45.5927 H   0  0  0  0  0  0  0  0  0  0  0  0
   58.9164   30.5222   43.9944 H   0  0  0  0  0  0  0  0  0  0  0  0
   59.0452   32.7186   43.3274 H   0  0  0  0  0  0  0  0  0  0  0  0
   57.2288   32.3571   43.2279 H   0  0  0  0  0  0  0  0  0  0  0  0
   57.1260   34.2490   44.0730 H   0  0  0  0  0  0  0  0  0  0  0  0
   57.5839   33.6391   46.7893 H   0  0  0  0  0  0  0  0  0  0  0  0
   56.0841   34.0513   45.8908 H   0  0  0  0  0  0  0  0  0  0  0  0
   56.6956   32.3623   45.8908 H   0  0  0  0  0  0  0  0  0  0  0  0
   59.5766   34.6087   44.0235 H   0  0  0  0  0  0  0  0  0  0  0  0
   58.4502   35.6497   45.0520 H   0  0  0  0  0  0  0  0  0  0  0  0
   58.3258   35.2904   47.5126 H   0  0  0  0  0  0  0  0  0  0  0  0
   59.7145   34.8802   49.5341 H   0  0  0  0  0  0  0  0  0  0  0  0
   61.4823   33.7097   45.0149 H   0  0  0  0  0  0  0  0  0  0  0  0
   63.0692   32.0056   46.6706 H   0  0  0  0  0  0  0  0  0  0  0  0
   63.7722   33.6222   46.2171 H   0  0  0  0  0  0  0  0  0  0  0  0
   64.8490   32.3135   48.1854 H   0  0  0  0  0  0  0  0  0  0  0  0
   64.4643   34.0832   48.3845 H   0  0  0  0  0  0  0  0  0  0  0  0
   62.6309   31.0235   48.4707 H   0  0  0  0  0  0  0  0  0  0  0  0
   63.3328   30.7731   50.1202 H   0  0  0  0  0  0  0  0  0  0  0  0
   62.0074   31.7524   52.1218 H   0  0  0  0  0  0  0  0  0  0  0  0
   59.7202   31.7336   53.1186 H   0  0  0  0  0  0  0  0  0  0  0  0
   58.0143   31.0089   49.2088 H   0  0  0  0  0  0  0  0  0  0  0  0
   60.2990   31.0318   48.2033 H   0  0  0  0  0  0  0  0  0  0  0  0
   61.5494   33.4916   50.4896 H   0  0  0  0  0  0  0  0  0  0  0  0
   62.7091   34.7559   49.8818 H   0  0  0  0  0  0  0  0  0  0  0  0
  1  2  1  0
  2  3  1  0
  2  4  1  0
  4  5  1  0
  5  6  1  0
  6  7  1  0
  6  8  1  0
  8  9  1  0
  9 10  2  0
 10 11  1  0
 11 12  2  0
 12 13  1  0
 13 14  2  0
 13 15  1  0
 15 16  1  0
 16 17  1  0
 17 18  1  0
 18 19  1  0
 19 20  2  0
 20 21  1  0
 21 22  2  0
 22 23  1  0
 22 24  1  0
 24 25  2  0
 17 26  1  0
 14  9  1  0
 25 19  1  0
 26 12  1  0
  1 27  1  0
  1 28  1  0
  1 29  1  0
  3 30  1  0
  3 31  1  0
  3 32  1  0
  4 33  1  0
  4 34  1  0
  5 35  1  0
  5 36  1  0
  6 37  1  6
  7 38  1  0
  7 39  1  0
  7 40  1  0
  8 41  1  0
  8 42  1  0
 10 43  1  0
 11 44  1  0
 14 45  1  0
 15 46  1  0
 15 47  1  0
 16 48  1  0
 16 49  1  0
 18 50  1  0
 18 51  1  0
 20 52  1  0
 21 53  1  0
 24 54  1  0
 25 55  1  0
 26 56  1  0
 26 57  1  0
M  CHG  1   6   1
M  END
>  <UniqueID>  (32) 
32

>  <SMILES>  (32) 
CN(C)CC[N@@H+](C)Cc1ccc2c(c1)CCN(Cc1ccc(Br)cc1)C2

>  <Energy>  (32) 
73.82230270783917

>  <Genealogy>  (32) 
CN(C)CC[NH+](C)Cc1ccc2c(c1)CCN(Cc1ccc(Br)cc1)C2 (protonated)
CN(C)CC[N@@H+](C)Cc1ccc2c(c1)CCN(Cc1ccc(Br)cc1)C2 (chirality)
CN(C)CC[N@@H+](C)Cc1ccc2c(c1)CCN(Cc1ccc(Br)cc1)C2 (3D coordinates assigned)
CN(C)CC[N@@H+](C)Cc1ccc2c(c1)CCN(Cc1ccc(Br)cc1)C2 (nonaromatic ring conformer: 73.82230270783917 kcal/mol)

>  <smiles>  (32) 
CN(C)CCN(C)Cc1ccc2c(c1)CCN(Cc1ccc(Br)cc1)C2

>  <score_type>  (32) 
oracle

>  <origin>  (32) 
adg

>  <m_score__min__energy>  (32) 
-6.8300000000000001

>  <m_primary>  (32) 
energy

$$$$
32:0
     RDKit          3D

 35 37  0  0  0  0  0  0  0  0999 V2000
   63.3710   33.7450   46.7280 C   0  0  0  0  0  0  0  0  0  0  0  0
   62.3980   32.6950   47.2670 C   0  0  0  0  0  0  0  0  0  0  0  0
   61.1490   33.3290   47.9070 C   0  0  0  0  0  0  0  0  0  0  0  0
   60.0440   33.6400   46.9040 C   0  0  0  0  0  0  0  0  0  0  0  0
   60.0020   34.9400   46.3770 C   0  0  0  0  0  0  0  0  0  0  0  0
   59.2750   35.2170   45.2280 C   0  0  0  0  0  0  0  0  0  0  0  0
   58.6090   34.1980   44.5600 C   0  0  0  0  0  0  0  0  0  0  0  0
   58.5610   32.8890   45.0910 C   0  0  0  0  0  0  0  0  0  0  0  0
   59.1620   32.6480   46.3690 C   0  0  0  0  0  0  0  0  0  0  0  0
   58.8140   31.4500   47.0610 C   0  0  0  0  0  0  0  0  0  0  0  0
   58.9360   31.2800   48.5570 C   0  0  0  0  0  0  0  0  0  0  0  0
   58.1620   30.4200   46.3770 C   0  0  0  0  0  0  0  0  0  0  0  0
   57.7370   30.5810   45.0590 C   0  0  0  0  0  0  0  0  0  0  0  0
   57.0960   29.5190   44.4050 C   0  0  0  0  0  0  0  0  0  0  0  0
   56.6440   29.6890   43.1010 C   0  0  0  0  0  0  0  0  0  0  0  0
   56.8280   30.8740   42.4680 N   0  0  0  0  0  0  0  0  0  0  0  0
   57.4370   31.9270   43.0730 C   0  0  0  0  0  0  0  0  0  0  0  0
   57.9070   31.8240   44.4050 C   0  0  0  0  0  0  0  0  0  0  0  0
   63.8526   34.2647   47.5694 H   0  0  0  0  0  0  0  0  0  0  0  0
   64.1388   33.2522   46.1135 H   0  0  0  0  0  0  0  0  0  0  0  0
   62.8213   34.4731   46.1135 H   0  0  0  0  0  0  0  0  0  0  0  0
   62.0799   32.0480   46.4362 H   0  0  0  0  0  0  0  0  0  0  0  0
   62.9205   32.1208   48.0462 H   0  0  0  0  0  0  0  0  0  0  0  0
   60.7508   32.6317   48.6588 H   0  0  0  0  0  0  0  0  0  0  0  0
   61.4625   34.2856   48.3504 H   0  0  0  0  0  0  0  0  0  0  0  0
   60.5518   35.7488   46.8806 H   0  0  0  0  0  0  0  0  0  0  0  0
   59.2261   36.2471   44.8451 H   0  0  0  0  0  0  0  0  0  0  0  0
   58.1111   34.4128   43.6029 H   0  0  0  0  0  0  0  0  0  0  0  0
   58.3668   32.0732   49.0638 H   0  0  0  0  0  0  0  0  0  0  0  0
   58.5354   30.2978   48.8483 H   0  0  0  0  0  0  0  0  0  0  0  0
   59.9947   31.3452   48.8483 H   0  0  0  0  0  0  0  0  0  0  0  0
   57.9806   29.4634   46.8888 H   0  0  0  0  0  0  0  0  0  0  0  0
   56.9517   28.5578   44.9201 H   0  0  0  0  0  0  0  0  0  0  0  0
   56.1369   28.8618   42.5827 H   0  0  0  0  0  0  0  0  0  0  0  0
   57.5665   32.8702   42.5221 H   0  0  0  0  0  0  0  0  0  0  0  0
  1  2  1  0
  2  3  1  0
  3  4  1  0
  4  5  2  0
  5  6  1  0
  6  7  2  0
  7  8  1  0
  8  9  2  0
  9 10  1  0
 10 11  1  0
 10 12  2  0
 12 13  1  0
 13 14  2  0
 14 15  1  0
 15 16  2  0
 16 17  1  0
 17 18  2  0
  9  4  1  0
 18 13  1  0
 18  8  1  0
  1 19  1  0
  1 20  1  0
  1 21  1  0
  2 22  1  0
  2 23  1  0
  3 24  1  0
  3 25  1  0
  5 26  1  0
  6 27  1  0
  7 28  1  0
 11 29  1  0
 11 30  1  0
 11 31  1  0
 12 32  1  0
 14 33  1  0
 15 34  1  0
 17 35  1  0
M  END
>  <UniqueID>  (33) 
33

>  <SMILES>  (33) 
CCCc1cccc2c1c(C)cc1ccncc12

>  <Energy>  (33) 
63.39848821306944

>  <Genealogy>  (33) 
CCCc1cccc2c1c(C)cc1ccncc12 (3D coordinates assigned)
CCCc1cccc2c1c(C)cc1ccncc12 (optimized conformer: 63.39848821306944 kcal/mol)

>  <smiles>  (33) 
CCCc1cccc2c1c(C)cc1ccncc12

>  <score_type>  (33) 
oracle

>  <origin>  (33) 
adg

>  <m_score__min__energy>  (33) 
-7.2599999999999998

>  <m_primary>  (33) 
energy

$$$$
33:0
     RDKit          3D

 57 59  0  0  0  0  0  0  0  0999 V2000
   57.2790   21.2290   43.0950 C   0  0  0  0  0  0  0  0  0  0  0  0
   56.4930   22.4590   43.5290 C   0  0  0  0  0  0  0  0  0  0  0  0
   57.2700   23.2460   44.9840 S   0  0  0  0  0  0  0  0  0  0  0  0
   56.4780   24.8800   44.7650 C   0  0  0  0  0  0  0  0  0  0  0  0
   55.6660   25.2470   46.0020 C   0  0  0  0  0  0  0  0  0  0  0  0
   55.3660   26.6750   45.9990 N   0  0  0  0  0  0  0  0  0  0  0  0
   56.2740   27.7070   45.5930 C   0  0  0  0  0  0  0  0  0  0  0  0
   55.7940   28.7820   45.1410 O   0  0  0  0  0  0  0  0  0  0  0  0
   57.7750   27.5740   45.7610 C   0  0  0  0  0  0  0  0  0  0  0  0
   58.1530   27.5830   47.2650 C   0  0  0  0  0  0  0  0  0  0  0  0
   58.6160   28.9620   47.7470 C   0  0  0  0  0  0  0  0  0  0  0  0
   59.7260   29.4580   46.9210 N   0  0  0  0  0  0  0  0  0  0  0  0
   60.5290   30.5430   47.4160 C   0  0  0  0  0  0  0  0  0  0  0  0
   61.5770   30.3500   48.2530 N   0  0  0  0  0  0  0  0  0  0  0  0
   62.1200   31.5690   48.3890 C   0  0  0  0  0  0  0  0  0  0  0  0
   63.2520   31.9260   49.1180 C   0  0  0  0  0  0  0  0  0  0  0  0
   63.6650   33.2690   49.0650 C   0  0  0  0  0  0  0  0  0  0  0  0
   62.9510   34.2070   48.2850 C   0  0  0  0  0  0  0  0  0  0  0  0
   61.8150   33.8130   47.5550 C   0  0  0  0  0  0  0  0  0  0  0  0
   61.4190   32.4740   47.6400 C   0  0  0  0  0  0  0  0  0  0  0  0
   60.3950   31.8430   47.0230 N   0  0  0  0  0  0  0  0  0  0  0  0
   59.5050   32.3910   45.9930 C   0  0  0  0  0  0  0  0  0  0  0  0
   58.0420   32.2420   46.4200 C   0  0  0  0  0  0  0  0  0  0  0  0
   57.3160   31.5200   45.4420 O   0  0  0  0  0  0  0  0  0  0  0  0
   57.6910   31.9330   44.1480 C   0  0  0  0  0  0  0  0  0  0  0  0
   59.8940   28.9710   45.5460 C   0  0  0  0  0  0  0  0  0  0  0  0
   58.5280   28.6520   44.9360 C   0  0  0  0  0  0  0  0  0  0  0  0
   57.6274   20.6838   43.9846 H   0  0  0  0  0  0  0  0  0  0  0  0
   56.6319   20.5737   42.4935 H   0  0  0  0  0  0  0  0  0  0  0  0
   58.1455   21.5410   42.4935 H   0  0  0  0  0  0  0  0  0  0  0  0
   56.4665   23.1811   42.6996 H   0  0  0  0  0  0  0  0  0  0  0  0
   55.4729   22.1483   43.7991 H   0  0  0  0  0  0  0  0  0  0  0  0
   57.2557   25.6409   44.6030 H   0  0  0  0  0  0  0  0  0  0  0  0
   55.8048   24.8367   43.8961 H   0  0  0  0  0  0  0  0  0  0  0  0
   54.7249   24.6775   46.0017 H   0  0  0  0  0  0  0  0  0  0  0  0
   56.2503   25.0036   46.9016 H   0  0  0  0  0  0  0  0  0  0  0  0
   58.0969   26.6027   45.3572 H   0  0  0  0  0  0  0  0  0  0  0  0
   57.2725   27.2819   47.8516 H   0  0  0  0  0  0  0  0  0  0  0  0
   58.9903   26.8830   47.4027 H   0  0  0  0  0  0  0  0  0  0  0  0
   57.7748   29.6678   47.6822 H   0  0  0  0  0  0  0  0  0  0  0  0
   58.9626   28.8739   48.7873 H   0  0  0  0  0  0  0  0  0  0  0  0
   61.9070   29.4530   48.6770 H   0  0  0  0  0  0  0  0  0  0  0  0
   63.8032   31.1837   49.7139 H   0  0  0  0  0  0  0  0  0  0  0  0
   64.5493   33.5917   49.6341 H   0  0  0  0  0  0  0  0  0  0  0  0
   63.2866   35.2539   48.2486 H   0  0  0  0  0  0  0  0  0  0  0  0
   61.2571   34.5331   46.9384 H   0  0  0  0  0  0  0  0  0  0  0  0
   59.7333   33.4570   45.8461 H   0  0  0  0  0  0  0  0  0  0  0  0
   59.6616   31.8390   45.0545 H   0  0  0  0  0  0  0  0  0  0  0  0
   57.9965   31.7024   47.3775 H   0  0  0  0  0  0  0  0  0  0  0  0
   57.5975   33.2422   46.5298 H   0  0  0  0  0  0  0  0  0  0  0  0
   58.4288   32.7455   44.2219 H   0  0  0  0  0  0  0  0  0  0  0  0
   58.1334   31.0842   43.6060 H   0  0  0  0  0  0  0  0  0  0  0  0
   56.8035   32.2917   43.6060 H   0  0  0  0  0  0  0  0  0  0  0  0
   60.3909   29.7453   44.9430 H   0  0  0  0  0  0  0  0  0  0  0  0
   60.5075   28.0580   45.5576 H   0  0  0  0  0  0  0  0  0  0  0  0
   57.9237   29.5708   44.9122 H   0  0  0  0  0  0  0  0  0  0  0  0
   58.6862   28.2613   43.9200 H   0  0  0  0  0  0  0  0  0  0  0  0
  1  2  1  0
  2  3  1  0
  3  4  1  0
  4  5  1  0
  5  6  1  0
  6  7  1  0
  7  8  2  0
  7  9  1  0
  9 10  1  0
 10 11  1  0
 11 12  1  0
 12 13  1  0
 13 14  2  0
 14 15  1  0
 15 16  2  0
 16 17  1  0
 17 18  2  0
 18 19  1  0
 19 20  2  0
 20 21  1  0
 21 22  1  0
 22 23  1  0
 23 24  1  0
 24 25  1  0
 12 26  1  0
 26 27  1  0
 27  9  1  0
 21 13  1  0
 20 15  1  0
  1 28  1  0
  1 29  1  0
  1 30  1  0
  2 31  1  0
  2 32  1  0
  4 33  1  0
  4 34  1  0
  5 35  1  0
  5 36  1  0
  9 37  1  0
 10 38  1  0
 10 39  1  0
 11 40  1  0
 11 41  1  0
 14 42  1  0
 16 43  1  0
 17 44  1  0
 18 45  1  0
 19 46  1  0
 22 47  1  0
 22 48  1  0
 23 49  1  0
 23 50  1  0
 25 51  1  0
 25 52  1  0
 25 53  1  0
 26 54  1  0
 26 55  1  0
 27 56  1  0
 27 57  1  0
M  CHG  2   6  -1  14   1
M  END
>  <UniqueID>  (34) 
34

>  <SMILES>  (34) 
CCSCC[N-]C(=O)C1CCN(c2[nH+]c3ccccc3n2CCOC)CC1

>  <Energy>  (34) 
92.05742840195867

>  <Genealogy>  (34) 
CCSCC[N-]C(=O)C1CCN(c2[nH+]c3ccccc3n2CCOC)CC1 (protonated)
CCSCC[N-]C(=O)C1CCN(c2[nH+]c3ccccc3n2CCOC)CC1 (3D coordinates assigned)
CCSCC[N-]C(=O)C1CCN(c2[nH+]c3ccccc3n2CCOC)CC1 (nonaromatic ring conformer: 92.05742840195867 kcal/mol)

>  <smiles>  (34) 
CCSCCNC(=O)C1CCN(c2nc3ccccc3n2CCOC)CC1

>  <score_type>  (34) 
oracle

>  <origin>  (34) 
adg

>  <m_score__min__energy>  (34) 
-8.3000000000000007

>  <m_primary>  (34) 
energy

$$$$
34:0
     RDKit          3D

 42 44  0  0  0  0  0  0  0  0999 V2000
   55.6740   29.7110   44.3010 C   0  0  0  0  0  0  0  0  0  0  0  0
   56.7700   30.7250   44.0210 C   0  0  0  0  0  0  0  0  0  0  0  0
   57.3250   31.1760   45.2530 O   0  0  0  0  0  0  0  0  0  0  0  0
   58.0750   32.3530   45.4120 C   0  0  0  0  0  0  0  0  0  0  0  0
   57.7450   33.5360   44.7210 C   0  0  0  0  0  0  0  0  0  0  0  0
   58.5000   34.6970   44.9050 C   0  0  0  0  0  0  0  0  0  0  0  0
   59.5860   34.6950   45.7780 C   0  0  0  0  0  0  0  0  0  0  0  0
   59.9250   33.5310   46.4700 C   0  0  0  0  0  0  0  0  0  0  0  0
   59.1850   32.3490   46.2870 C   0  0  0  0  0  0  0  0  0  0  0  0
   59.5840   31.1100   47.0530 C   0  0  0  0  0  0  0  0  0  0  0  0
   59.9320   30.0240   46.1350 N   0  0  0  0  0  0  0  0  0  0  0  0
   59.1060   28.8690   45.8880 C   0  0  0  0  0  0  0  0  0  0  0  0
   58.4030   28.2910   46.9540 C   0  0  0  0  0  0  0  0  0  0  0  0
   57.5980   27.1660   46.7510 C   0  0  0  0  0  0  0  0  0  0  0  0
   57.4740   26.5970   45.4710 C   0  0  0  0  0  0  0  0  0  0  0  0
   56.6200   25.4030   45.2530 C   0  0  0  0  0  0  0  0  0  0  0  0
   55.4830   25.2260   45.9820 N   0  0  0  0  0  0  0  0  0  0  0  0
   54.6890   24.1400   45.7960 C   0  0  0  0  0  0  0  0  0  0  0  0
   55.0330   23.1810   44.8460 C   0  0  0  0  0  0  0  0  0  0  0  0
   56.1970   23.3720   44.1050 C   0  0  0  0  0  0  0  0  0  0  0  0
   56.9650   24.4710   44.3200 N   0  0  0  0  0  0  0  0  0  0  0  0
   58.1720   27.1840   44.4010 C   0  0  0  0  0  0  0  0  0  0  0  0
   58.9770   28.3080   44.6050 C   0  0  0  0  0  0  0  0  0  0  0  0
   55.5498   29.5961   45.3879 H   0  0  0  0  0  0  0  0  0  0  0  0
   54.7294   30.0606   43.8589 H   0  0  0  0  0  0  0  0  0  0  0  0
   55.9493   28.7421   43.8589 H   0  0  0  0  0  0  0  0  0  0  0  0
   57.5579   30.2552   43.4140 H   0  0  0  0  0  0  0  0  0  0  0  0
   56.3472   31.5806   43.4740 H   0  0  0  0  0  0  0  0  0  0  0  0
   56.8874   33.5454   44.0323 H   0  0  0  0  0  0  0  0  0  0  0  0
   58.2365   35.6150   44.3593 H   0  0  0  0  0  0  0  0  0  0  0  0
   60.1768   35.6116   45.9220 H   0  0  0  0  0  0  0  0  0  0  0  0
   60.7781   33.5383   47.1643 H   0  0  0  0  0  0  0  0  0  0  0  0
   60.4539   31.3409   47.6855 H   0  0  0  0  0  0  0  0  0  0  0  0
   58.7348   30.7895   47.6744 H   0  0  0  0  0  0  0  0  0  0  0  0
   60.8150   30.1310   45.5840 H   0  0  0  0  0  0  0  0  0  0  0  0
   58.4855   28.7269   47.9606 H   0  0  0  0  0  0  0  0  0  0  0  0
   57.0570   26.7222   47.5998 H   0  0  0  0  0  0  0  0  0  0  0  0
   53.7747   24.0177   46.3952 H   0  0  0  0  0  0  0  0  0  0  0  0
   54.4012   22.2950   44.6850 H   0  0  0  0  0  0  0  0  0  0  0  0
   56.4938   22.6330   43.3462 H   0  0  0  0  0  0  0  0  0  0  0  0
   58.0835   26.7539   43.3924 H   0  0  0  0  0  0  0  0  0  0  0  0
   59.5134   28.7570   43.7561 H   0  0  0  0  0  0  0  0  0  0  0  0
  1  2  1  0
  2  3  1  0
  3  4  1  0
  4  5  2  0
  5  6  1  0
  6  7  2  0
  7  8  1  0
  8  9  2  0
  9 10  1  0
 10 11  1  0
 11 12  1  0
 12 13  2  0
 13 14  1  0
 14 15  2  0
 15 16  1  0
 16 17  2  0
 17 18  1  0
 18 19  2  0
 19 20  1  0
 20 21  2  0
 15 22  1  0
 22 23  2  0
  9  4  1  0
 23 12  1  0
 21 16  1  0
  1 24  1  0
  1 25  1  0
  1 26  1  0
  2 27  1  0
  2 28  1  0
  5 29  1  0
  6 30  1  0
  7 31  1  0
  8 32  1  0
 10 33  1  0
 10 34  1  0
 11 35  1  0
 13 36  1  0
 14 37  1  0
 18 38  1  0
 19 39  1  0
 20 40  1  0
 22 41  1  0
 23 42  1  0
M  END
>  <UniqueID>  (35) 
35

>  <SMILES>  (35) 
CCOc1ccccc1CNc1ccc(-c2ncccn2)cc1

>  <Energy>  (35) 
43.34872352910906

>  <Genealogy>  (35) 
CCOc1ccccc1CNc1ccc(-c2ncccn2)cc1 (3D coordinates assigned)
CCOc1ccccc1CNc1ccc(-c2ncccn2)cc1 (optimized conformer: 43.34872352910906 kcal/mol)

>  <smiles>  (35) 
CCOc1ccccc1CNc1ccc(-c2ncccn2)cc1

>  <score_type>  (35) 
oracle

>  <origin>  (35) 
adg

>  <m_score__min__energy>  (35) 
-7.4299999999999997

>  <m_primary>  (35) 
energy

$$$$
35:0
     RDKit          3D

 56 59  0  0  0  0  0  0  0  0999 V2000
   58.1490   27.0240   46.2360 C   0  0  0  0  0  0  0  0  0  0  0  0
   57.1790   27.6860   45.2470 C   0  0  0  0  0  0  0  0  0  0  0  0
   57.8310   28.2090   44.0250 N   0  0  0  0  0  0  0  0  0  0  0  0
   58.1350   27.1440   43.0530 C   0  0  0  0  0  0  0  0  0  0  0  0
   57.0810   29.3270   43.4120 C   0  0  0  0  0  0  0  0  0  0  0  0
   56.1040   29.9450   44.4200 C   0  0  0  0  0  0  0  0  0  0  0  0
   56.5560   31.2290   44.8540 O   0  0  0  0  0  0  0  0  0  0  0  0
   57.7990   31.5010   45.4480 C   0  0  0  0  0  0  0  0  0  0  0  0
   58.4050   32.7700   45.4020 C   0  0  0  0  0  0  0  0  0  0  0  0
   59.6430   32.9830   46.0170 C   0  0  0  0  0  0  0  0  0  0  0  0
   60.3070   31.9340   46.6760 C   0  0  0  0  0  0  0  0  0  0  0  0
   61.6170   32.1850   47.3300 C   0  0  0  0  0  0  0  0  0  0  0  0
   62.5880   33.0290   46.7560 C   0  0  0  0  0  0  0  0  0  0  0  0
   63.7700   33.2310   47.3970 N   0  0  0  0  0  0  0  0  0  0  0  0
   64.0390   32.6360   48.5880 C   0  0  0  0  0  0  0  0  0  0  0  0
   65.2290   32.8460   49.2160 N   0  0  0  0  0  0  0  0  0  0  0  0
   65.5210   32.2610   50.4190 C   0  0  0  0  0  0  0  0  0  0  0  0
   66.7930   32.5040   51.0630 N   0  0  0  0  0  0  0  0  0  0  0  0
   67.3630   31.6370   52.0840 C   0  0  0  0  0  0  0  0  0  0  0  0
   68.7640   32.1690   52.3490 C   0  0  0  0  0  0  0  0  0  0  0  0
   68.7820   33.5860   51.7880 C   0  0  0  0  0  0  0  0  0  0  0  0
   67.6530   33.6420   50.7680 C   0  0  0  0  0  0  0  0  0  0  0  0
   64.5630   31.4190   51.0220 C   0  0  0  0  0  0  0  0  0  0  0  0
   63.3390   31.1930   50.3920 C   0  0  0  0  0  0  0  0  0  0  0  0
   63.0700   31.8020   49.1690 C   0  0  0  0  0  0  0  0  0  0  0  0
   61.8900   31.6000   48.5300 N   0  0  0  0  0  0  0  0  0  0  0  0
   59.6940   30.6680   46.7190 C   0  0  0  0  0  0  0  0  0  0  0  0
   58.4570   30.4580   46.1050 C   0  0  0  0  0  0  0  0  0  0  0  0
   57.8289   27.2425   47.2655 H   0  0  0  0  0  0  0  0  0  0  0  0
   58.1503   25.9358   46.0756 H   0  0  0  0  0  0  0  0  0  0  0  0
   59.1628   27.4195   46.0756 H   0  0  0  0  0  0  0  0  0  0  0  0
   56.4283   26.9402   44.9467 H   0  0  0  0  0  0  0  0  0  0  0  0
   56.7344   28.5484   45.7653 H   0  0  0  0  0  0  0  0  0  0  0  0
   58.3984   26.2212   43.5906 H   0  0  0  0  0  0  0  0  0  0  0  0
   57.2531   26.9614   42.4214 H   0  0  0  0  0  0  0  0  0  0  0  0
   58.9804   27.4544   42.4214 H   0  0  0  0  0  0  0  0  0  0  0  0
   57.7913   30.0981   43.0790 H   0  0  0  0  0  0  0  0  0  0  0  0
   56.5074   28.9399   42.5569 H   0  0  0  0  0  0  0  0  0  0  0  0
   55.1180   30.0531   43.9446 H   0  0  0  0  0  0  0  0  0  0  0  0
   56.0405   29.2827   45.2959 H   0  0  0  0  0  0  0  0  0  0  0  0
   57.9030   33.5981   44.8802 H   0  0  0  0  0  0  0  0  0  0  0  0
   60.1019   33.9822   45.9846 H   0  0  0  0  0  0  0  0  0  0  0  0
   62.3907   33.5227   45.7930 H   0  0  0  0  0  0  0  0  0  0  0  0
   65.9250   33.4690   48.7490 H   0  0  0  0  0  0  0  0  0  0  0  0
   66.7582   31.6781   53.0019 H   0  0  0  0  0  0  0  0  0  0  0  0
   67.3852   30.5873   51.7558 H   0  0  0  0  0  0  0  0  0  0  0  0
   68.9711   32.1819   53.4293 H   0  0  0  0  0  0  0  0  0  0  0  0
   69.5328   31.5375   51.8797 H   0  0  0  0  0  0  0  0  0  0  0  0
   68.6098   34.3181   52.5907 H   0  0  0  0  0  0  0  0  0  0  0  0
   69.7529   33.8286   51.3314 H   0  0  0  0  0  0  0  0  0  0  0  0
   67.0917   34.5825   50.8696 H   0  0  0  0  0  0  0  0  0  0  0  0
   68.0366   33.6025   49.7378 H   0  0  0  0  0  0  0  0  0  0  0  0
   64.7811   30.9410   51.9884 H   0  0  0  0  0  0  0  0  0  0  0  0
   62.5899   30.5368   50.8592 H   0  0  0  0  0  0  0  0  0  0  0  0
   60.1927   29.8375   47.2401 H   0  0  0  0  0  0  0  0  0  0  0  0
   57.9956   29.4600   46.1391 H   0  0  0  0  0  0  0  0  0  0  0  0
  1  2  1  0
  2  3  1  0
  3  4  1  0
  3  5  1  0
  5  6  1  0
  6  7  1  0
  7  8  1  0
  8  9  2  0
  9 10  1  0
 10 11  2  0
 11 12  1  0
 12 13  2  0
 13 14  1  0
 14 15  2  0
 15 16  1  0
 16 17  2  0
 17 18  1  0
 18 19  1  0
 19 20  1  0
 20 21  1  0
 21 22  1  0
 17 23  1  0
 23 24  2  0
 24 25  1  0
 25 26  2  0
 11 27  1  0
 27 28  2  0
 28  8  1  0
 26 12  1  0
 25 15  1  0
 22 18  1  0
  1 29  1  0
  1 30  1  0
  1 31  1  0
  2 32  1  0
  2 33  1  0
  4 34  1  0
  4 35  1  0
  4 36  1  0
  5 37  1  0
  5 38  1  0
  6 39  1  0
  6 40  1  0
  9 41  1  0
 10 42  1  0
 13 43  1  0
 16 44  1  0
 19 45  1  0
 19 46  1  0
 20 47  1  0
 20 48  1  0
 21 49  1  0
 21 50  1  0
 22 51  1  0
 22 52  1  0
 23 53  1  0
 24 54  1  0
 27 55  1  0
 28 56  1  0
M  CHG  1  16   1
M  END
>  <UniqueID>  (36) 
36

>  <SMILES>  (36) 
CCN(C)CCOc1ccc(-c2cnc3[nH+]c(N4CCCC4)ccc3n2)cc1

>  <Energy>  (36) 
68.17642737561759

>  <Genealogy>  (36) 
CCN(C)CCOc1ccc(-c2cnc3[nH+]c(N4CCCC4)ccc3n2)cc1 (protonated)
CCN(C)CCOc1ccc(-c2cnc3[nH+]c(N4CCCC4)ccc3n2)cc1 (3D coordinates assigned)
CCN(C)CCOc1ccc(-c2cnc3[nH+]c(N4CCCC4)ccc3n2)cc1 (nonaromatic ring conformer: 68.17642737561759 kcal/mol)

>  <smiles>  (36) 
CCN(C)CCOc1ccc(-c2cnc3nc(N4CCCC4)ccc3n2)cc1

>  <score_type>  (36) 
oracle

>  <origin>  (36) 
adg

>  <m_score__min__energy>  (36) 
-5.9699999999999998

>  <m_primary>  (36) 
energy

$$$$
36:0
     RDKit          3D

 35 37  0  0  0  0  0  0  0  0999 V2000
   62.3200   32.5330   47.8500 C   0  0  0  0  0  0  0  0  0  0  0  0
   62.3160   31.1250   47.2650 C   0  0  0  0  0  0  0  0  0  0  0  0
   60.9660   30.5430   47.3230 N   0  0  0  0  0  0  0  0  0  0  0  0
   60.7100   29.5750   46.2420 C   0  0  0  0  0  0  0  0  0  0  0  0
   59.2360   29.4230   45.9370 C   0  0  0  0  0  0  0  0  0  0  0  0
   58.6260   28.1490   45.9690 C   0  0  0  0  0  0  0  0  0  0  0  0
   57.2710   27.9900   45.6200 C   0  0  0  0  0  0  0  0  0  0  0  0
   56.5010   29.0990   45.2350 C   0  0  0  0  0  0  0  0  0  0  0  0
   55.1700   28.9490   44.8710 O   0  0  0  0  0  0  0  0  0  0  0  0
   57.1050   30.3530   45.2290 C   0  0  0  0  0  0  0  0  0  0  0  0
   58.4270   30.5210   45.5980 C   0  0  0  0  0  0  0  0  0  0  0  0
   58.7700   31.9290   45.2540 C   0  0  2  0  0  0  0  0  0  0  0  0
   59.6560   32.6730   46.1240 N   0  0  0  0  0  0  0  0  0  0  0  0
   59.6400   34.1050   45.9700 C   0  0  0  0  0  0  0  0  0  0  0  0
   60.5270   34.7940   46.5390 O   0  0  0  0  0  0  0  0  0  0  0  0
   58.5370   34.8160   45.1730 C   0  0  0  0  0  0  0  0  0  0  0  0
   57.4600   33.8850   44.5280 C   0  0  0  0  0  0  0  0  0  0  0  0
   57.3960   32.5820   45.3130 C   0  0  1  0  0  0  0  0  0  0  0  0
   56.5080   31.5610   44.8790 O   0  0  0  0  0  0  0  0  0  0  0  0
   62.3198   32.4737   48.9484 H   0  0  0  0  0  0  0  0  0  0  0  0
   63.2197   33.0680   47.5118 H   0  0  0  0  0  0  0  0  0  0  0  0
   61.4234   33.0731   47.5118 H   0  0  0  0  0  0  0  0  0  0  0  0
   62.6460   31.1684   46.2166 H   0  0  0  0  0  0  0  0  0  0  0  0
   62.9990   30.4949   47.8537 H   0  0  0  0  0  0  0  0  0  0  0  0
   60.2640   31.3160   47.2710 H   0  0  0  0  0  0  0  0  0  0  0  0
   61.2249   29.9178   45.3324 H   0  0  0  0  0  0  0  0  0  0  0  0
   61.0850   28.5959   46.5746 H   0  0  0  0  0  0  0  0  0  0  0  0
   59.2164   27.2711   46.2701 H   0  0  0  0  0  0  0  0  0  0  0  0
   56.8129   26.9904   45.6492 H   0  0  0  0  0  0  0  0  0  0  0  0
   59.3346   31.9316   44.3100 H   0  0  0  0  0  0  0  0  0  0  0  0
   58.0209   35.5087   45.8540 H   0  0  0  0  0  0  0  0  0  0  0  0
   59.0459   35.3124   44.3336 H   0  0  0  0  0  0  0  0  0  0  0  0
   56.4787   34.3813   44.5567 H   0  0  0  0  0  0  0  0  0  0  0  0
   57.7285   33.6756   43.4820 H   0  0  0  0  0  0  0  0  0  0  0  0
   57.0307   32.9153   46.2956 H   0  0  0  0  0  0  0  0  0  0  0  0
  1  2  1  0
  2  3  1  0
  3  4  1  0
  4  5  1  0
  5  6  2  0
  6  7  1  0
  7  8  2  0
  8  9  1  0
  8 10  1  0
 10 11  2  0
 11 12  1  0
 12 13  1  0
 13 14  1  0
 14 15  2  0
 14 16  1  0
 16 17  1  0
 17 18  1  0
 18 19  1  0
 11  5  1  0
 18 12  1  0
 19 10  1  0
  1 20  1  0
  1 21  1  0
  1 22  1  0
  2 23  1  0
  2 24  1  0
  3 25  1  0
  4 26  1  0
  4 27  1  0
  6 28  1  0
  7 29  1  0
 12 30  1  6
 16 31  1  0
 16 32  1  0
 17 33  1  0
 17 34  1  0
 18 35  1  1
M  CHG  2   9  -1  13  -1
M  END
>  <UniqueID>  (37) 
37

>  <SMILES>  (37) 
CCNCc1ccc([O-])c2c1[C@@H]1[N-]C(=O)CC[C@H]1O2

>  <Energy>  (37) 
70.93125125614391

>  <Genealogy>  (37) 
CCNCc1ccc([O-])c2c1C1[N-]C(=O)CCC1O2 (protonated)
CCNCc1ccc([O-])c2c1[C@@H]1[N-]C(=O)CC[C@H]1O2 (chirality)
CCNCc1ccc([O-])c2c1[C@@H]1[N-]C(=O)CC[C@H]1O2 (3D coordinates assigned)
CCNCc1ccc([O-])c2c1[C@@H]1[N-]C(=O)CC[C@H]1O2 (nonaromatic ring conformer: 70.93125125614391 kcal/mol)

>  <smiles>  (37) 
CCNCc1ccc(O)c2c1C1NC(=O)CCC1O2

>  <score_type>  (37) 
oracle

>  <origin>  (37) 
adg

>  <m_score__min__energy>  (37) 
-10.9

>  <m_primary>  (37) 
energy

$$$$
37:0
     RDKit          3D

 38 41  0  0  0  0  0  0  0  0999 V2000
   59.8540   33.4100   49.2970 C   0  0  0  0  0  0  0  0  0  0  0  0
   61.2180   33.2880   48.7400 C   0  0  0  0  0  0  0  0  0  0  0  0
   62.2740   33.9400   49.3660 C   0  0  0  0  0  0  0  0  0  0  0  0
   63.5640   33.8400   48.8600 C   0  0  0  0  0  0  0  0  0  0  0  0
   63.7710   33.0740   47.7180 C   0  0  0  0  0  0  0  0  0  0  0  0
   62.7240   32.4450   47.1210 C   0  0  0  0  0  0  0  0  0  0  0  0
   61.4240   32.5290   47.6070 C   0  0  0  0  0  0  0  0  0  0  0  0
   60.3810   31.8410   46.9260 N   0  0  0  0  0  0  0  0  0  0  0  0
   60.2010   30.5180   46.7470 C   0  0  0  0  0  0  0  0  0  0  0  0
   59.0290   30.3040   46.0100 C   0  0  0  0  0  0  0  0  0  0  0  0
   58.5720   28.9990   45.6410 C   0  0  0  0  0  0  0  0  0  0  0  0
   58.0870   28.0400   46.5020 C   0  0  0  0  0  0  0  0  0  0  0  0
   57.6760   26.7980   46.0690 C   0  0  0  0  0  0  0  0  0  0  0  0
   57.7310   26.4540   44.7370 C   0  0  0  0  0  0  0  0  0  0  0  0
   58.2190   27.4090   43.8490 C   0  0  0  0  0  0  0  0  0  0  0  0
   58.6260   28.6460   44.2940 C   0  0  0  0  0  0  0  0  0  0  0  0
   58.5410   31.5670   45.7730 C   0  0  0  0  0  0  0  0  0  0  0  0
   57.4100   31.9750   45.1000 C   0  0  0  0  0  0  0  0  0  0  0  0
   56.6340   31.1430   44.5790 O   0  0  0  0  0  0  0  0  0  0  0  0
   57.1330   33.2950   44.9990 N   0  0  0  0  0  0  0  0  0  0  0  0
   57.9610   34.2060   45.5570 C   0  0  0  0  0  0  0  0  0  0  0  0
   59.0750   33.8420   46.2240 N   0  0  0  0  0  0  0  0  0  0  0  0
   59.3610   32.5270   46.3300 C   0  0  0  0  0  0  0  0  0  0  0  0
   59.9049   33.4054   50.3958 H   0  0  0  0  0  0  0  0  0  0  0  0
   59.4011   34.3522   48.9548 H   0  0  0  0  0  0  0  0  0  0  0  0
   59.2411   32.5631   48.9548 H   0  0  0  0  0  0  0  0  0  0  0  0
   62.0869   34.5397   50.2689 H   0  0  0  0  0  0  0  0  0  0  0  0
   64.4025   34.3550   49.3515 H   0  0  0  0  0  0  0  0  0  0  0  0
   64.7827   32.9769   47.2973 H   0  0  0  0  0  0  0  0  0  0  0  0
   62.9128   31.8460   46.2179 H   0  0  0  0  0  0  0  0  0  0  0  0
   60.8699   29.7289   47.1211 H   0  0  0  0  0  0  0  0  0  0  0  0
   58.0254   28.2740   47.5751 H   0  0  0  0  0  0  0  0  0  0  0  0
   57.2974   26.0687   46.8003 H   0  0  0  0  0  0  0  0  0  0  0  0
   57.4024   25.4639   44.3881 H   0  0  0  0  0  0  0  0  0  0  0  0
   58.2801   27.1714   42.7767 H   0  0  0  0  0  0  0  0  0  0  0  0
   59.0050   29.3775   43.5651 H   0  0  0  0  0  0  0  0  0  0  0  0
   56.2690   33.6210   44.4850 H   0  0  0  0  0  0  0  0  0  0  0  0
   57.7192   35.2751   45.4644 H   0  0  0  0  0  0  0  0  0  0  0  0
  1  2  1  0
  2  3  2  0
  3  4  1  0
  4  5  2  0
  5  6  1  0
  6  7  2  0
  7  8  1  0
  8  9  1  0
  9 10  2  0
 10 11  1  0
 11 12  2  0
 12 13  1  0
 13 14  2  0
 14 15  1  0
 15 16  2  0
 10 17  1  0
 17 18  1  0
 18 19  2  0
 18 20  1  0
 20 21  1  0
 21 22  2  0
 22 23  1  0
  7  2  1  0
 23  8  1  0
 16 11  1  0
 23 17  2  0
  1 24  1  0
  1 25  1  0
  1 26  1  0
  3 27  1  0
  4 28  1  0
  5 29  1  0
  6 30  1  0
  9 31  1  0
 12 32  1  0
 13 33  1  0
 14 34  1  0
 15 35  1  0
 16 36  1  0
 20 37  1  0
 21 38  1  0
M  END
>  <smiles>  (38) 
Cc1ccccc1-n1cc(-c2ccccc2)c2c(=O)[nH]cnc21

>  <score_type>  (38) 
oracle

>  <origin>  (38) 
adg

>  <m_score__min__energy>  (38) 
-7.8799999999999999

>  <m_primary>  (38) 
energy

$$$$
38:0
     RDKit          3D

 38 40  0  0  0  0  0  0  0  0999 V2000
   61.9550   33.7090   46.0590 F   0  0  0  0  0  0  0  0  0  0  0  0
   62.5280   33.5340   47.2760 C   0  0  0  0  0  0  0  0  0  0  0  0
   63.7860   32.9270   47.3600 C   0  0  0  0  0  0  0  0  0  0  0  0
   64.3900   32.7340   48.6050 C   0  0  0  0  0  0  0  0  0  0  0  0
   63.7390   33.1450   49.7700 C   0  0  0  0  0  0  0  0  0  0  0  0
   62.4810   33.7530   49.6930 C   0  0  0  0  0  0  0  0  0  0  0  0
   61.8670   33.9540   48.4450 C   0  0  0  0  0  0  0  0  0  0  0  0
   60.5040   34.5920   48.3610 C   0  0  0  0  0  0  0  0  0  0  0  0
   59.6470   33.8570   47.4110 N   0  0  0  0  0  0  0  0  0  0  0  0
   58.7730   32.8930   48.1070 C   0  0  0  0  0  0  0  0  0  0  0  0
   58.1540   31.9490   47.0730 C   0  0  0  0  0  0  0  0  0  0  0  0
   57.8010   32.6740   45.8460 N   0  0  0  0  0  0  0  0  0  0  0  0
   57.4040   31.9290   44.6810 C   0  0  0  0  0  0  0  0  0  0  0  0
   56.6800   30.7850   44.8270 N   0  0  0  0  0  0  0  0  0  0  0  0
   56.2980   30.0510   43.7510 C   0  0  0  0  0  0  0  0  0  0  0  0
   56.6520   30.4630   42.4690 C   0  0  0  0  0  0  0  0  0  0  0  0
   57.4060   31.6260   42.3300 C   0  0  0  0  0  0  0  0  0  0  0  0
   57.7740   32.3360   43.4310 N   0  0  0  0  0  0  0  0  0  0  0  0
   57.6380   34.1330   45.9060 C   0  0  0  0  0  0  0  0  0  0  0  0
   58.8510   34.8000   46.5910 C   0  0  0  0  0  0  0  0  0  0  0  0
   64.3004   32.6011   46.4440 H   0  0  0  0  0  0  0  0  0  0  0  0
   65.3796   32.2577   48.6676 H   0  0  0  0  0  0  0  0  0  0  0  0
   64.2156   32.9907   50.7493 H   0  0  0  0  0  0  0  0  0  0  0  0
   61.9708   34.0748   50.6128 H   0  0  0  0  0  0  0  0  0  0  0  0
   60.0359   34.5781   49.3563 H   0  0  0  0  0  0  0  0  0  0  0  0
   60.6173   35.6282   48.0096 H   0  0  0  0  0  0  0  0  0  0  0  0
   59.3653   32.3122   48.8294 H   0  0  0  0  0  0  0  0  0  0  0  0
   57.9778   33.4309   48.6439 H   0  0  0  0  0  0  0  0  0  0  0  0
   58.8784   31.1583   46.8282 H   0  0  0  0  0  0  0  0  0  0  0  0
   57.2384   31.5131   47.4991 H   0  0  0  0  0  0  0  0  0  0  0  0
   55.7097   29.1322   43.8916 H   0  0  0  0  0  0  0  0  0  0  0  0
   56.3434   29.8835   41.5864 H   0  0  0  0  0  0  0  0  0  0  0  0
   57.7043   31.9709   41.3290 H   0  0  0  0  0  0  0  0  0  0  0  0
   58.3730   33.1810   43.3020 H   0  0  0  0  0  0  0  0  0  0  0  0
   57.5419   34.5262   44.8832 H   0  0  0  0  0  0  0  0  0  0  0  0
   56.7363   34.3601   46.4936 H   0  0  0  0  0  0  0  0  0  0  0  0
   59.5030   35.2238   45.8130 H   0  0  0  0  0  0  0  0  0  0  0  0
   58.4605   35.5741   47.2680 H   0  0  0  0  0  0  0  0  0  0  0  0
  1  2  1  0
  2  3  2  0
  3  4  1  0
  4  5  2  0
  5  6  1  0
  6  7  2  0
  7  8  1  0
  8  9  1  0
  9 10  1  0
 10 11  1  0
 11 12  1  0
 12 13  1  0
 13 14  2  0
 14 15  1  0
 15 16  2  0
 16 17  1  0
 17 18  2  0
 12 19  1  0
 19 20  1  0
  7  2  1  0
 20  9  1  0
 18 13  1  0
  3 21  1  0
  4 22  1  0
  5 23  1  0
  6 24  1  0
  8 25  1  0
  8 26  1  0
 10 27  1  0
 10 28  1  0
 11 29  1  0
 11 30  1  0
 15 31  1  0
 16 32  1  0
 17 33  1  0
 18 34  1  0
 19 35  1  0
 19 36  1  0
 20 37  1  0
 20 38  1  0
M  CHG  1  18   1
M  END
>  <UniqueID>  (39) 
38

>  <SMILES>  (39) 
Fc1ccccc1CN1CCN(c2nccc[nH+]2)CC1

>  <Energy>  (39) 
48.61986473900349

>  <Genealogy>  (39) 
Fc1ccccc1CN1CCN(c2nccc[nH+]2)CC1 (protonated)
Fc1ccccc1CN1CCN(c2nccc[nH+]2)CC1 (3D coordinates assigned)
Fc1ccccc1CN1CCN(c2nccc[nH+]2)CC1 (nonaromatic ring conformer: 48.61986473900349 kcal/mol)

>  <smiles>  (39) 
Fc1ccccc1CN1CCN(c2ncccn2)CC1

>  <score_type>  (39) 
oracle

>  <origin>  (39) 
adg

>  <m_score__min__energy>  (39) 
-5.6399999999999997

>  <m_primary>  (39) 
energy

$$$$
39:0
     RDKit          3D

 49 51  0  0  0  0  0  0  0  0999 V2000
   56.2780   29.6820   43.2270 C   0  0  0  0  0  0  0  0  0  0  0  0
   57.1630   30.1970   44.2860 N   0  0  0  0  0  0  0  0  0  0  0  0
   57.6480   31.4830   44.2050 C   0  0  0  0  0  0  0  0  0  0  0  0
   57.3270   32.2430   43.2500 O   0  0  0  0  0  0  0  0  0  0  0  0
   58.5030   31.9280   45.2050 C   0  0  0  0  0  0  0  0  0  0  0  0
   58.8460   31.1040   46.2240 C   0  0  0  0  0  0  0  0  0  0  0  0
   59.6460   31.7520   47.0910 N   0  0  0  0  0  0  0  0  0  0  0  0
   59.7660   32.9930   46.5600 C   0  0  0  0  0  0  0  0  0  0  0  0
   60.6990   34.3060   47.3580 S   0  0  0  0  0  0  0  0  0  0  0  0
   62.3090   33.7770   46.6780 C   0  0  0  0  0  0  0  0  0  0  0  0
   62.7930   32.4890   47.3450 C   0  0  0  0  0  0  0  0  0  0  0  0
   62.5990   32.5740   48.7970 N   0  0  0  0  0  0  0  0  0  0  0  0
   63.0220   33.7780   49.5280 C   0  0  0  0  0  0  0  0  0  0  0  0
   62.5350   33.8000   50.9880 C   0  0  0  0  0  0  0  0  0  0  0  0
   63.4010   32.9160   51.9060 C   0  0  0  0  0  0  0  0  0  0  0  0
   63.0420   31.4170   51.8720 C   0  0  0  0  0  0  0  0  0  0  0  0
   63.0950   30.7520   50.4900 C   0  0  0  0  0  0  0  0  0  0  0  0
   62.1760   31.3970   49.5020 C   0  0  0  0  0  0  0  0  0  0  0  0
   61.0220   30.9260   49.3130 O   0  0  0  0  0  0  0  0  0  0  0  0
   59.0880   33.1310   45.3880 N   0  0  0  0  0  0  0  0  0  0  0  0
   58.9400   34.3350   44.5710 C   0  0  0  0  0  0  0  0  0  0  0  0
   58.4030   29.8210   46.3110 N   0  0  0  0  0  0  0  0  0  0  0  0
   58.8140   28.9790   47.4430 C   0  0  0  0  0  0  0  0  0  0  0  0
   57.5550   29.3650   45.3220 C   0  0  0  0  0  0  0  0  0  0  0  0
   57.1340   28.1740   45.3600 O   0  0  0  0  0  0  0  0  0  0  0  0
   55.4133   29.1788   43.6843 H   0  0  0  0  0  0  0  0  0  0  0  0
   55.9282   30.5176   42.6030 H   0  0  0  0  0  0  0  0  0  0  0  0
   56.8316   28.9650   42.6030 H   0  0  0  0  0  0  0  0  0  0  0  0
   60.0650   31.4000   47.9790 H   0  0  0  0  0  0  0  0  0  0  0  0
   62.2027   33.6035   45.5970 H   0  0  0  0  0  0  0  0  0  0  0  0
   63.0471   34.5692   46.8722 H   0  0  0  0  0  0  0  0  0  0  0  0
   62.2207   31.6366   46.9500 H   0  0  0  0  0  0  0  0  0  0  0  0
   63.8630   32.3505   47.1305 H   0  0  0  0  0  0  0  0  0  0  0  0
   64.1211   33.8214   49.5249 H   0  0  0  0  0  0  0  0  0  0  0  0
   62.5742   34.6447   49.0197 H   0  0  0  0  0  0  0  0  0  0  0  0
   62.5708   34.8355   51.3574 H   0  0  0  0  0  0  0  0  0  0  0  0
   61.5096   33.4023   51.0070 H   0  0  0  0  0  0  0  0  0  0  0  0
   64.4512   33.0251   51.5975 H   0  0  0  0  0  0  0  0  0  0  0  0
   63.2179   33.2589   52.9350 H   0  0  0  0  0  0  0  0  0  0  0  0
   63.7455   30.8858   52.5300 H   0  0  0  0  0  0  0  0  0  0  0  0
   61.9929   31.3522   52.1963 H   0  0  0  0  0  0  0  0  0  0  0  0
   64.1243   30.8174   50.1076 H   0  0  0  0  0  0  0  0  0  0  0  0
   62.7710   29.7079   50.6117 H   0  0  0  0  0  0  0  0  0  0  0  0
   58.8322   35.2119   45.2264 H   0  0  0  0  0  0  0  0  0  0  0  0
   59.8297   34.4589   43.9361 H   0  0  0  0  0  0  0  0  0  0  0  0
   58.0468   34.2398   43.9361 H   0  0  0  0  0  0  0  0  0  0  0  0
   58.5661   29.4869   48.3867 H   0  0  0  0  0  0  0  0  0  0  0  0
   58.2847   28.0159   47.3948 H   0  0  0  0  0  0  0  0  0  0  0  0
   59.8989   28.8039   47.3948 H   0  0  0  0  0  0  0  0  0  0  0  0
  1  2  1  0
  2  3  1  0
  3  4  2  0
  3  5  1  0
  5  6  2  0
  6  7  1  0
  7  8  2  0
  8  9  1  0
  9 10  1  0
 10 11  1  0
 11 12  1  0
 12 13  1  0
 13 14  1  0
 14 15  1  0
 15 16  1  0
 16 17  1  0
 17 18  1  0
 18 19  2  0
  8 20  1  0
 20 21  1  0
  6 22  1  0
 22 23  1  0
 22 24  1  0
 24 25  2  0
 24  2  1  0
 20  5  1  0
 18 12  1  0
  1 26  1  0
  1 27  1  0
  1 28  1  0
  7 29  1  0
 10 30  1  0
 10 31  1  0
 11 32  1  0
 11 33  1  0
 13 34  1  0
 13 35  1  0
 14 36  1  0
 14 37  1  0
 15 38  1  0
 15 39  1  0
 16 40  1  0
 16 41  1  0
 17 42  1  0
 17 43  1  0
 21 44  1  0
 21 45  1  0
 21 46  1  0
 23 47  1  0
 23 48  1  0
 23 49  1  0
M  CHG  1   7   1
M  END
>  <UniqueID>  (40) 
39

>  <SMILES>  (40) 
Cn1c(=O)c2c([nH+]c(SCCN3CCCCCC3=O)n2C)n(C)c1=O

>  <Energy>  (40) 
96.24957214982855

>  <Genealogy>  (40) 
Cn1c(=O)c2c([nH+]c(SCCN3CCCCCC3=O)n2C)n(C)c1=O (protonated)
Cn1c(=O)c2c([nH+]c(SCCN3CCCCCC3=O)n2C)n(C)c1=O (3D coordinates assigned)
Cn1c(=O)c2c([nH+]c(SCCN3CCCCCC3=O)n2C)n(C)c1=O (nonaromatic ring conformer: 96.24957214982855 kcal/mol)

>  <smiles>  (40) 
Cn1c(=O)c2c(nc(SCCN3CCCCCC3=O)n2C)n(C)c1=O

>  <score_type>  (40) 
oracle

>  <origin>  (40) 
adg

>  <m_score__min__energy>  (40) 
-3.7599999999999998

>  <m_primary>  (40) 
energy

$$$$
40:0
     RDKit          3D

 49 52  0  0  0  0  0  0  0  0999 V2000
   60.0433   35.6064   46.1947 H   0  0  0  0  0  0  0  0  0  0  0  0
   59.9830   34.6690   46.7670 C   0  0  0  0  0  0  0  0  0  0  0  0
   58.7830   34.0730   46.8480 C   0  0  0  0  0  0  0  0  0  0  0  0
   57.9727   34.6310   47.3399 H   0  0  0  0  0  0  0  0  0  0  0  0
   58.4630   32.7220   46.3270 C   0  0  0  0  0  0  0  0  0  0  0  0
   58.7100   31.5740   47.0510 N   0  0  0  0  0  0  0  0  0  0  0  0
   59.2400   31.6380   48.3950 C   0  0  0  0  0  0  0  0  0  0  0  0
   60.4710   31.0390   48.7040 C   0  0  0  0  0  0  0  0  0  0  0  0
   61.0477   30.5347   47.9146 H   0  0  0  0  0  0  0  0  0  0  0  0
   60.9680   31.0800   50.0100 C   0  0  0  0  0  0  0  0  0  0  0  0
   61.9245   30.5914   50.2472 H   0  0  0  0  0  0  0  0  0  0  0  0
   60.2530   31.7410   51.0190 C   0  0  0  0  0  0  0  0  0  0  0  0
   60.7600   31.7390   52.4310 C   0  0  0  0  0  0  0  0  0  0  0  0
   59.9078   31.7424   53.1266 H   0  0  0  0  0  0  0  0  0  0  0  0
   61.3684   30.8384   52.6009 H   0  0  0  0  0  0  0  0  0  0  0  0
   61.3755   32.6347   52.6009 H   0  0  0  0  0  0  0  0  0  0  0  0
   59.0240   32.3430   50.7120 C   0  0  0  0  0  0  0  0  0  0  0  0
   58.4493   32.8493   51.5016 H   0  0  0  0  0  0  0  0  0  0  0  0
   58.5270   32.3020   49.4070 C   0  0  0  0  0  0  0  0  0  0  0  0
   57.5714   32.7927   49.1704 H   0  0  0  0  0  0  0  0  0  0  0  0
   58.4120   30.3460   46.5100 C   0  0  0  0  0  0  0  0  0  0  0  0
   58.6210   29.2920   47.1740 O   0  0  0  0  0  0  0  0  0  0  0  0
   57.8540   30.2540   45.2250 C   0  0  0  0  0  0  0  0  0  0  0  0
   57.5430   29.0160   44.6300 C   0  0  0  0  0  0  0  0  0  0  0  0
   57.7449   28.0807   45.1727 H   0  0  0  0  0  0  0  0  0  0  0  0
   56.9790   28.9720   43.3530 C   0  0  0  0  0  0  0  0  0  0  0  0
   56.7398   28.0023   42.8920 H   0  0  0  0  0  0  0  0  0  0  0  0
   56.7180   30.1560   42.6600 C   0  0  0  0  0  0  0  0  0  0  0  0
   56.2740   30.1172   41.6544 H   0  0  0  0  0  0  0  0  0  0  0  0
   57.0200   31.3900   43.2420 C   0  0  0  0  0  0  0  0  0  0  0  0
   56.8122   32.3207   42.6937 H   0  0  0  0  0  0  0  0  0  0  0  0
   57.5880   31.4450   44.5250 C   0  0  0  0  0  0  0  0  0  0  0  0
   57.8860   32.6430   45.0950 N   0  0  0  0  0  0  0  0  0  0  0  0
   57.6910   33.5260   44.5670 H   0  0  0  0  0  0  0  0  0  0  0  0
   61.2310   34.1690   47.3840 C   0  0  0  0  0  0  0  0  0  0  0  0
   61.4870   34.2960   48.7610 C   0  0  0  0  0  0  0  0  0  0  0  0
   60.7397   34.7688   49.4152 H   0  0  0  0  0  0  0  0  0  0  0  0
   62.6850   33.8250   49.3020 C   0  0  0  0  0  0  0  0  0  0  0  0
   62.8805   33.9434   50.3780 H   0  0  0  0  0  0  0  0  0  0  0  0
   63.6390   33.2040   48.4890 C   0  0  0  0  0  0  0  0  0  0  0  0
   64.8330   32.7620   49.0780 O   0  0  0  0  0  0  0  0  0  0  0  0
   64.9010   32.0050   50.2830 C   0  0  0  0  0  0  0  0  0  0  0  0
   64.8400   32.6838   51.1464 H   0  0  0  0  0  0  0  0  0  0  0  0
   64.0632   31.2930   50.3165 H   0  0  0  0  0  0  0  0  0  0  0  0
   65.8523   31.4537   50.3165 H   0  0  0  0  0  0  0  0  0  0  0  0
   63.3690   33.0430   47.1170 C   0  0  0  0  0  0  0  0  0  0  0  0
   64.1059   32.5466   46.4685 H   0  0  0  0  0  0  0  0  0  0  0  0
   62.1690   33.5110   46.5750 C   0  0  0  0  0  0  0  0  0  0  0  0
   61.9584   33.3622   45.5056 H   0  0  0  0  0  0  0  0  0  0  0  0
  1  2  1  0
  2  3  2  0
  3  4  1  0
  3  5  1  0
  5  6  1  0
  6  7  1  0
  7  8  2  0
  8  9  1  0
  8 10  1  0
 10 11  1  0
 10 12  2  0
 12 13  1  0
 13 14  1  0
 13 15  1  0
 13 16  1  0
 12 17  1  0
 17 18  1  0
 17 19  2  0
 19 20  1  0
  6 21  1  0
 21 22  2  0
 21 23  1  0
 23 24  2  0
 24 25  1  0
 24 26  1  0
 26 27  1  0
 26 28  2  0
 28 29  1  0
 28 30  1  0
 30 31  1  0
 30 32  2  0
 32 33  1  0
 33 34  1  0
  2 35  1  0
 35 36  2  0
 36 37  1  0
 36 38  1  0
 38 39  1  0
 38 40  2  0
 40 41  1  0
 41 42  1  0
 42 43  1  0
 42 44  1  0
 42 45  1  0
 40 46  1  0
 46 47  1  0
 46 48  2  0
 48 49  1  0
 33  5  2  0
 48 35  1  0
 19  7  1  0
 32 23  1  0
M  CHG  1  33   1
M  END
>  <UniqueID>  (41) 
40

>  <SMILES>  (41) 
COc1ccc(/C=C\c2[nH+]c3ccccc3c(=O)n2-c2ccc(C)cc2)cc1

>  <Energy>  (41) 
74.69214248795224

>  <Genealogy>  (41) 
COc1ccc(C=Cc2[nH+]c3ccccc3c(=O)n2-c2ccc(C)cc2)cc1 (protonated)
COc1ccc(/C=C\c2[nH+]c3ccccc3c(=O)n2-c2ccc(C)cc2)cc1 (cis-trans isomerization)
COc1ccc(/C=C\c2[nH+]c3ccccc3c(=O)n2-c2ccc(C)cc2)cc1 (3D coordinates assigned)
COc1ccc(/C=C\c2[nH+]c3ccccc3c(=O)n2-c2ccc(C)cc2)cc1 (optimized conformer: 74.69214248795224 kcal/mol)

>  <smiles>  (41) 
COc1ccc(C=Cc2nc3ccccc3c(=O)n2-c2ccc(C)cc2)cc1

>  <score_type>  (41) 
oracle

>  <origin>  (41) 
adg

>  <m_score__min__energy>  (41) 
-6.7699999999999996

>  <m_primary>  (41) 
energy

$$$$
41:0
     RDKit          3D

 39 40  0  0  0  0  0  0  0  0999 V2000
   58.9970   33.4849   48.4638 H   0  0  0  0  0  0  0  0  0  0  0  0
   59.5930   33.5410   47.5410 C   0  0  0  0  0  0  0  0  0  0  0  0
   59.0140   33.9890   46.4150 C   0  0  0  0  0  0  0  0  0  0  0  0
   57.8440   33.2740   45.8460 C   0  0  0  0  0  0  0  0  0  0  0  0
   56.7330   33.8710   45.8060 O   0  0  0  0  0  0  0  0  0  0  0  0
   57.9330   31.8850   45.3320 C   0  0  0  0  0  0  0  0  0  0  0  0
   58.9400   31.0080   45.7790 C   0  0  0  0  0  0  0  0  0  0  0  0
   59.6810   31.3559   46.5137 H   0  0  0  0  0  0  0  0  0  0  0  0
   59.0040   29.6980   45.2950 C   0  0  0  0  0  0  0  0  0  0  0  0
   59.7990   29.0226   45.6441 H   0  0  0  0  0  0  0  0  0  0  0  0
   58.0610   29.2440   44.3690 C   0  0  0  0  0  0  0  0  0  0  0  0
   58.1500   27.4540   43.7110 Br  0  0  0  0  0  0  0  0  0  0  0  0
   57.0480   30.1020   43.9300 C   0  0  0  0  0  0  0  0  0  0  0  0
   56.3024   29.7442   43.2047 H   0  0  0  0  0  0  0  0  0  0  0  0
   56.9800   31.4130   44.4100 C   0  0  0  0  0  0  0  0  0  0  0  0
   56.1764   32.0802   44.0649 H   0  0  0  0  0  0  0  0  0  0  0  0
   59.6350   35.1160   45.6300 C   0  0  0  0  0  0  0  0  0  0  0  0
   60.0467   35.8632   46.3244 H   0  0  0  0  0  0  0  0  0  0  0  0
   60.4424   34.7202   44.9964 H   0  0  0  0  0  0  0  0  0  0  0  0
   58.8691   35.5871   44.9964 H   0  0  0  0  0  0  0  0  0  0  0  0
   60.9670   33.1340   47.5720 N   0  0  0  0  0  0  0  0  0  0  0  0
   61.2780   31.7740   48.0080 C   0  0  0  0  0  0  0  0  0  0  0  0
   61.3382   31.7480   49.1060 H   0  0  0  0  0  0  0  0  0  0  0  0
   60.4861   31.0933   47.6622 H   0  0  0  0  0  0  0  0  0  0  0  0
   62.6220   31.3280   47.4140 C   0  0  0  0  0  0  0  0  0  0  0  0
   62.9159   30.3777   47.8837 H   0  0  0  0  0  0  0  0  0  0  0  0
   62.4851   31.2208   46.3278 H   0  0  0  0  0  0  0  0  0  0  0  0
   63.7010   32.3170   47.6320 N   0  0  0  0  0  0  0  0  0  0  0  0
   64.5230   32.0020   47.0620 H   0  0  0  0  0  0  0  0  0  0  0  0
   64.1560   32.3470   49.0360 C   0  0  0  0  0  0  0  0  0  0  0  0
   63.2848   32.2896   49.7051 H   0  0  0  0  0  0  0  0  0  0  0  0
   64.8202   31.4907   49.2246 H   0  0  0  0  0  0  0  0  0  0  0  0
   64.7020   33.2831   49.2246 H   0  0  0  0  0  0  0  0  0  0  0  0
   63.3250   33.6610   47.1370 C   0  0  0  0  0  0  0  0  0  0  0  0
   64.1197   34.3713   47.4088 H   0  0  0  0  0  0  0  0  0  0  0  0
   63.1985   33.5904   46.0466 H   0  0  0  0  0  0  0  0  0  0  0  0
   61.9980   34.1590   47.7270 C   0  0  0  0  0  0  0  0  0  0  0  0
   62.1345   34.3799   48.7959 H   0  0  0  0  0  0  0  0  0  0  0  0
   61.6852   35.0697   47.1953 H   0  0  0  0  0  0  0  0  0  0  0  0
  1  2  1  0
  2  3  2  0
  3  4  1  0
  4  5  2  0
  4  6  1  0
  6  7  2  0
  7  8  1  0
  7  9  1  0
  9 10  1  0
  9 11  2  0
 11 12  1  0
 11 13  1  0
 13 14  1  0
 13 15  2  0
 15 16  1  0
  3 17  1  0
 17 18  1  0
 17 19  1  0
 17 20  1  0
  2 21  1  0
 21 22  1  0
 22 23  1  0
 22 24  1  0
 22 25  1  0
 25 26  1  0
 25 27  1  0
 25 28  1  0
 28 29  1  0
 28 30  1  0
 30 31  1  0
 30 32  1  0
 30 33  1  0
 28 34  1  0
 34 35  1  0
 34 36  1  0
 34 37  1  0
 37 38  1  0
 37 39  1  0
 15  6  1  0
 37 21  1  0
M  CHG  1  28   1
M  END
>  <UniqueID>  (42) 
41

>  <SMILES>  (42) 
C/C(=C\N1CC[NH+](C)CC1)C(=O)c1ccc(Br)cc1

>  <Energy>  (42) 
49.301894764085255

>  <Genealogy>  (42) 
CC(=CN1CC[NH+](C)CC1)C(=O)c1ccc(Br)cc1 (protonated)
C/C(=C\N1CC[NH+](C)CC1)C(=O)c1ccc(Br)cc1 (cis-trans isomerization)
C/C(=C\N1CC[NH+](C)CC1)C(=O)c1ccc(Br)cc1 (3D coordinates assigned)
C/C(=C\N1CC[NH+](C)CC1)C(=O)c1ccc(Br)cc1 (nonaromatic ring conformer: 49.301894764085255 kcal/mol)

>  <smiles>  (42) 
CC(=CN1CCN(C)CC1)C(=O)c1ccc(Br)cc1

>  <score_type>  (42) 
oracle

>  <origin>  (42) 
adg

>  <m_score__min__energy>  (42) 
-6.21

>  <m_primary>  (42) 
energy

$$$$
42:0
     RDKit          3D

 49 52  0  0  0  0  0  0  0  0999 V2000
   61.9711   30.9769   51.1021 H   0  0  0  0  0  0  0  0  0  0  0  0
   61.7110   30.7310   50.0620 C   0  0  0  0  0  0  0  0  0  0  0  0
   54.8980   24.0500   45.5050 C   0  0  0  0  0  0  0  0  0  0  0  0
   54.0730   24.1506   46.2256 H   0  0  0  0  0  0  0  0  0  0  0  0
   55.9150   25.0210   45.4660 C   0  0  0  0  0  0  0  0  0  0  0  0
   55.9390   26.1380   46.3690 N   0  0  0  0  0  0  0  0  0  0  0  0
   56.7930   27.1230   46.3740 C   0  0  0  0  0  0  0  0  0  0  0  0
   58.5200   29.2180   46.3990 N   0  0  0  0  0  0  0  0  0  0  0  0
   57.5490   29.1600   45.4510 C   0  0  0  0  0  0  0  0  0  0  0  0
   57.4390   30.2140   44.4770 N   0  0  0  0  0  0  0  0  0  0  0  0
   57.7990   31.5900   44.8390 C   0  0  0  0  0  0  0  0  0  0  0  0
   56.9489   32.0680   45.3478 H   0  0  0  0  0  0  0  0  0  0  0  0
   58.6705   31.5728   45.5099 H   0  0  0  0  0  0  0  0  0  0  0  0
   58.1480   32.3840   43.5770 C   0  0  0  0  0  0  0  0  0  0  0  0
   58.2922   33.4412   43.8444 H   0  0  0  0  0  0  0  0  0  0  0  0
   59.0701   31.9696   43.1434 H   0  0  0  0  0  0  0  0  0  0  0  0
   57.1110   32.2850   42.6180 O   0  0  0  0  0  0  0  0  0  0  0  0
   56.9960   30.9460   42.1760 C   0  0  0  0  0  0  0  0  0  0  0  0
   56.2512   30.8958   41.3681 H   0  0  0  0  0  0  0  0  0  0  0  0
   57.9783   30.6092   41.8132 H   0  0  0  0  0  0  0  0  0  0  0  0
   56.5560   30.0300   43.3220 C   0  0  0  0  0  0  0  0  0  0  0  0
   55.5234   30.2767   43.6098 H   0  0  0  0  0  0  0  0  0  0  0  0
   56.6101   28.9830   42.9889 H   0  0  0  0  0  0  0  0  0  0  0  0
   56.6740   28.1160   45.4520 N   0  0  0  0  0  0  0  0  0  0  0  0
   55.8900   28.0820   44.7610 H   0  0  0  0  0  0  0  0  0  0  0  0
   58.6320   28.2460   47.3390 C   0  0  0  0  0  0  0  0  0  0  0  0
   59.5700   28.2770   48.2390 N   0  0  0  0  0  0  0  0  0  0  0  0
   60.5050   29.3460   48.4720 C   0  0  0  0  0  0  0  0  0  0  0  0
   60.8270   29.6820   49.7930 C   0  0  0  0  0  0  0  0  0  0  0  0
   60.3812   29.1165   50.6246 H   0  0  0  0  0  0  0  0  0  0  0  0
   54.9300   22.9580   44.6330 C   0  0  0  0  0  0  0  0  0  0  0  0
   54.1210   22.2132   44.6619 H   0  0  0  0  0  0  0  0  0  0  0  0
   55.9830   22.8040   43.7230 C   0  0  0  0  0  0  0  0  0  0  0  0
   55.9690   21.6930   42.8670 O   0  0  0  0  0  0  0  0  0  0  0  0
   57.0020   20.7160   42.8010 C   0  0  0  0  0  0  0  0  0  0  0  0
   57.3030   20.4313   43.8200 H   0  0  0  0  0  0  0  0  0  0  0  0
   56.6335   19.8283   42.2660 H   0  0  0  0  0  0  0  0  0  0  0  0
   57.8678   21.1334   42.2660 H   0  0  0  0  0  0  0  0  0  0  0  0
   57.0170   23.7590   43.7050 C   0  0  0  0  0  0  0  0  0  0  0  0
   57.8541   23.6462   43.0004 H   0  0  0  0  0  0  0  0  0  0  0  0
   61.0410   30.1130   47.4180 C   0  0  0  0  0  0  0  0  0  0  0  0
   60.7634   29.8861   46.3781 H   0  0  0  0  0  0  0  0  0  0  0  0
   57.7710   27.1980   47.3160 N   0  0  0  0  0  0  0  0  0  0  0  0
   56.9850   24.8510   44.5790 C   0  0  0  0  0  0  0  0  0  0  0  0
   57.8070   25.5819   44.5693 H   0  0  0  0  0  0  0  0  0  0  0  0
   61.9250   31.1620   47.6910 C   0  0  0  0  0  0  0  0  0  0  0  0
   62.3536   31.7475   46.8643 H   0  0  0  0  0  0  0  0  0  0  0  0
   62.2650   31.4680   49.0110 C   0  0  0  0  0  0  0  0  0  0  0  0
   63.1200   32.4870   49.2740 F   0  0  0  0  0  0  0  0  0  0  0  0
  1  2  1  0
  2  3  2  0
  3  4  1  0
  3  5  1  0
  5  6  1  0
  6  7  2  0
  7  8  1  0
  8  9  2  0
  9 10  1  0
 10 11  1  0
 11 12  1  0
 11 13  1  0
 11 14  1  0
 14 15  1  0
 14 16  1  0
 14 17  1  0
 17 18  1  0
 18 19  1  0
 18 20  1  0
 18 21  1  0
 21 22  1  0
 21 23  1  0
  9 24  1  0
 24 25  1  0
 24 26  1  0
 26 27  2  0
 27 28  1  0
 28 29  2  0
 29 30  1  0
 29 31  1  0
 31 32  1  0
 31 33  2  0
 33 34  1  0
 34 35  1  0
 35 36  1  0
 35 37  1  0
 35 38  1  0
 33 39  1  0
 39 40  1  0
 39 41  2  0
 41 42  1  0
 26 43  1  0
  5 44  2  0
 44 45  1  0
 44 46  1  0
 46 47  1  0
 46 48  2  0
 48 49  1  0
 48  2  1  0
 43  7  1  0
 21 10  1  0
 41 28  1  0
M  CHG  1  43  -1
M  END
>  <UniqueID>  (43) 
42

>  <SMILES>  (43) 
COc1ccc(/N=c2\[n-]/c(=N/c3ccc(F)cc3)nc(N3CCOCC3)[nH]2)cc1

>  <Energy>  (43) 
68.28594559125582

>  <Genealogy>  (43) 
COc1ccc(N=c2[n-]c(=Nc3ccc(F)cc3)nc(N3CCOCC3)[nH]2)cc1 (protonated)
COc1ccc(/N=c2\[n-]/c(=N/c3ccc(F)cc3)nc(N3CCOCC3)[nH]2)cc1 (cis-trans isomerization)
COc1ccc(/N=c2\[n-]/c(=N/c3ccc(F)cc3)nc(N3CCOCC3)[nH]2)cc1 (3D coordinates assigned)
COc1ccc(/N=c2\[n-]/c(=N/c3ccc(F)cc3)nc(N3CCOCC3)[nH]2)cc1 (nonaromatic ring conformer: 68.28594559125582 kcal/mol)

>  <smiles>  (43) 
COc1ccc(N=c2[nH]c(N3CCOCC3)nc(=Nc3ccc(F)cc3)[nH]2)cc1

>  <score_type>  (43) 
oracle

>  <origin>  (43) 
adg

>  <m_score__min__energy>  (43) 
-8.6600000000000001

>  <m_primary>  (43) 
energy

$$$$
43:0
     RDKit          3D

 29 30  0  0  0  0  0  0  0  0999 V2000
   62.6450   34.5520   49.9960 C   0  0  0  0  0  0  0  0  0  0  0  0
   63.4750   33.8030   49.5430 C   0  0  0  0  0  0  0  0  0  0  0  0
   64.4890   32.8880   48.9940 C   0  0  0  0  0  0  0  0  0  0  0  0
   64.1440   32.4500   47.6330 N   0  0  0  0  0  0  0  0  0  0  0  0
   62.7140   32.4460   47.4280 C   0  0  0  0  0  0  0  0  0  0  0  0
   62.0860   33.5230   46.7980 C   0  0  0  0  0  0  0  0  0  0  0  0
   60.7070   33.5020   46.5800 C   0  0  0  0  0  0  0  0  0  0  0  0
   60.0760   34.5870   45.9510 C   0  0  0  0  0  0  0  0  0  0  0  0
   58.6990   34.5680   45.7320 C   0  0  0  0  0  0  0  0  0  0  0  0
   57.9420   33.4700   46.1370 C   0  0  0  0  0  0  0  0  0  0  0  0
   58.5550   32.3830   46.7650 C   0  0  0  0  0  0  0  0  0  0  0  0
   59.9500   32.3760   46.9980 C   0  0  0  0  0  0  0  0  0  0  0  0
   60.5850   31.3160   47.6130 N   0  0  0  0  0  0  0  0  0  0  0  0
   59.8400   30.1260   48.0550 C   0  0  0  0  0  0  0  0  0  0  0  0
   61.9380   31.3470   47.8230 C   0  0  0  0  0  0  0  0  0  0  0  0
   61.8881   35.2350   50.4091 H   0  0  0  0  0  0  0  0  0  0  0  0
   65.4593   33.4054   48.9671 H   0  0  0  0  0  0  0  0  0  0  0  0
   64.5352   31.9988   49.6399 H   0  0  0  0  0  0  0  0  0  0  0  0
   64.5130   31.4810   47.4910 H   0  0  0  0  0  0  0  0  0  0  0  0
   64.6180   33.0630   46.9280 H   0  0  0  0  0  0  0  0  0  0  0  0
   62.6795   34.3901   46.4727 H   0  0  0  0  0  0  0  0  0  0  0  0
   60.6700   35.4553   45.6298 H   0  0  0  0  0  0  0  0  0  0  0  0
   58.2095   35.4208   45.2389 H   0  0  0  0  0  0  0  0  0  0  0  0
   56.8562   33.4593   45.9612 H   0  0  0  0  0  0  0  0  0  0  0  0
   57.9462   31.5233   47.0817 H   0  0  0  0  0  0  0  0  0  0  0  0
   59.8197   30.0935   49.1543 H   0  0  0  0  0  0  0  0  0  0  0  0
   58.8105   30.1742   47.6705 H   0  0  0  0  0  0  0  0  0  0  0  0
   60.3330   29.2210   47.6705 H   0  0  0  0  0  0  0  0  0  0  0  0
   62.4264   30.4913   48.3121 H   0  0  0  0  0  0  0  0  0  0  0  0
  1  2  3  0
  2  3  1  0
  3  4  1  0
  4  5  1  0
  5  6  2  0
  6  7  1  0
  7  8  2  0
  8  9  1  0
  9 10  2  0
 10 11  1  0
 11 12  2  0
 12 13  1  0
 13 14  1  0
 13 15  2  0
 15  5  1  0
 12  7  1  0
  1 16  1  0
  3 17  1  0
  3 18  1  0
  4 19  1  0
  4 20  1  0
  6 21  1  0
  8 22  1  0
  9 23  1  0
 10 24  1  0
 11 25  1  0
 14 26  1  0
 14 27  1  0
 14 28  1  0
 15 29  1  0
M  CHG  2   4   1  13   1
M  END
>  <UniqueID>  (44) 
43

>  <SMILES>  (44) 
C#CC[NH2+]c1cc2ccccc2[n+](C)c1

>  <Energy>  (44) 
35.16569972010316

>  <Genealogy>  (44) 
C#CC[NH2+]c1cc2ccccc2[n+](C)c1 (protonated)
C#CC[NH2+]c1cc2ccccc2[n+](C)c1 (3D coordinates assigned)
C#CC[NH2+]c1cc2ccccc2[n+](C)c1 (optimized conformer: 35.16569972010316 kcal/mol)

>  <smiles>  (44) 
C#CCNc1cc2ccccc2[n+](C)c1

>  <score_type>  (44) 
oracle

>  <origin>  (44) 
adg

>  <m_score__min__energy>  (44) 
-3.1899999999999999

>  <m_primary>  (44) 
energy

$$$$
44:0
     RDKit          3D

 45 46  0  0  0  0  0  0  0  0999 V2000
   60.8350   29.6240   46.2520 C   0  0  0  0  0  0  0  0  0  0  0  0
   59.7060   29.3120   44.8560 S   0  0  0  0  0  0  0  0  0  0  0  0
   58.2030   29.0610   45.8730 C   0  0  0  0  0  0  0  0  0  0  0  0
   57.1750   28.1970   45.1420 C   0  0  0  0  0  0  0  0  0  0  0  0
   55.9150   28.9330   44.9590 N   0  0  0  0  0  0  0  0  0  0  0  0
   55.9350   29.7210   43.7200 C   0  0  0  0  0  0  0  0  0  0  0  0
   56.7560   30.9640   43.9060 C   0  0  0  0  0  0  0  0  0  0  0  0
   57.6350   31.4030   42.9120 C   0  0  0  0  0  0  0  0  0  0  0  0
   58.3980   32.5490   43.1330 C   0  0  0  0  0  0  0  0  0  0  0  0
   58.2810   33.2640   44.3350 C   0  0  0  0  0  0  0  0  0  0  0  0
   59.1630   34.4640   44.5620 C   0  0  0  0  0  0  0  0  0  0  0  0
   57.3720   32.7930   45.3160 C   0  0  0  0  0  0  0  0  0  0  0  0
   57.1740   33.4810   46.6540 C   0  0  0  0  0  0  0  0  0  0  0  0
   58.2910   33.2820   47.6050 N   0  0  0  0  0  0  0  0  0  0  0  0
   59.2300   34.4120   47.6670 C   0  0  0  0  0  0  0  0  0  0  0  0
   60.2090   34.2030   48.8430 C   0  0  0  0  0  0  0  0  0  0  0  0
   60.1570   32.8870   49.3690 O   0  0  0  0  0  0  0  0  0  0  0  0
   60.2510   31.9420   48.3220 C   0  0  0  0  0  0  0  0  0  0  0  0
   59.0070   32.0060   47.4130 C   0  0  0  0  0  0  0  0  0  0  0  0
   56.6580   31.6600   45.0690 N   0  0  0  0  0  0  0  0  0  0  0  0
   60.2964   29.4752   47.1995 H   0  0  0  0  0  0  0  0  0  0  0  0
   61.6843   28.9269   46.1996 H   0  0  0  0  0  0  0  0  0  0  0  0
   61.2058   30.6583   46.1996 H   0  0  0  0  0  0  0  0  0  0  0  0
   58.4853   28.5639   46.8128 H   0  0  0  0  0  0  0  0  0  0  0  0
   57.7511   30.0438   46.0728 H   0  0  0  0  0  0  0  0  0  0  0  0
   57.5751   27.9151   44.1569 H   0  0  0  0  0  0  0  0  0  0  0  0
   56.9758   27.2981   45.7439 H   0  0  0  0  0  0  0  0  0  0  0  0
   55.1460   28.2290   44.8640 H   0  0  0  0  0  0  0  0  0  0  0  0
   56.3713   29.1155   42.9119 H   0  0  0  0  0  0  0  0  0  0  0  0
   54.9049   30.0080   43.4619 H   0  0  0  0  0  0  0  0  0  0  0  0
   57.7240   30.8502   41.9652 H   0  0  0  0  0  0  0  0  0  0  0  0
   59.0978   32.8957   42.3584 H   0  0  0  0  0  0  0  0  0  0  0  0
   59.2851   34.6302   45.6425 H   0  0  0  0  0  0  0  0  0  0  0  0
   60.1476   34.2871   44.1046 H   0  0  0  0  0  0  0  0  0  0  0  0
   58.7003   35.3509   44.1046 H   0  0  0  0  0  0  0  0  0  0  0  0
   57.0608   34.5603   46.4745 H   0  0  0  0  0  0  0  0  0  0  0  0
   56.2812   33.0319   47.1135 H   0  0  0  0  0  0  0  0  0  0  0  0
   59.7953   34.4712   46.7252 H   0  0  0  0  0  0  0  0  0  0  0  0
   58.6699   35.3467   47.8175 H   0  0  0  0  0  0  0  0  0  0  0  0
   61.2317   34.4008   48.4894 H   0  0  0  0  0  0  0  0  0  0  0  0
   59.9165   34.8947   49.6468 H   0  0  0  0  0  0  0  0  0  0  0  0
   61.1475   32.1567   47.7219 H   0  0  0  0  0  0  0  0  0  0  0  0
   60.3157   30.9353   48.7606 H   0  0  0  0  0  0  0  0  0  0  0  0
   59.3218   31.9222   46.3623 H   0  0  0  0  0  0  0  0  0  0  0  0
   58.3327   31.1771   47.6744 H   0  0  0  0  0  0  0  0  0  0  0  0
  1  2  1  0
  2  3  1  0
  3  4  1  0
  4  5  1  0
  5  6  1  0
  6  7  1  0
  7  8  2  0
  8  9  1  0
  9 10  2  0
 10 11  1  0
 10 12  1  0
 12 13  1  0
 13 14  1  0
 14 15  1  0
 15 16  1  0
 16 17  1  0
 17 18  1  0
 18 19  1  0
 12 20  2  0
 20  7  1  0
 19 14  1  0
  1 21  1  0
  1 22  1  0
  1 23  1  0
  3 24  1  0
  3 25  1  0
  4 26  1  0
  4 27  1  0
  5 28  1  0
  6 29  1  0
  6 30  1  0
  8 31  1  0
  9 32  1  0
 11 33  1  0
 11 34  1  0
 11 35  1  0
 13 36  1  0
 13 37  1  0
 15 38  1  0
 15 39  1  0
 16 40  1  0
 16 41  1  0
 18 42  1  0
 18 43  1  0
 19 44  1  0
 19 45  1  0
M  END
>  <UniqueID>  (45) 
44

>  <SMILES>  (45) 
CSCCNCc1ccc(C)c(CN2CCOCC2)n1

>  <Energy>  (45) 
51.01248985021732

>  <Genealogy>  (45) 
CSCCNCc1ccc(C)c(CN2CCOCC2)n1 (3D coordinates assigned)
CSCCNCc1ccc(C)c(CN2CCOCC2)n1 (nonaromatic ring conformer: 51.01248985021732 kcal/mol)

>  <smiles>  (45) 
CSCCNCc1ccc(C)c(CN2CCOCC2)n1

>  <score_type>  (45) 
oracle

>  <origin>  (45) 
adg

>  <m_score__min__energy>  (45) 
-7.0800000000000001

>  <m_primary>  (45) 
energy

$$$$
