0:0
     RDKit          3D

 64 65  0  0  0  0  0  0  0  0999 V2000
   58.8498   36.0419   46.8361 H   0  0  0  0  0  0  0  0  0  0  0  0
   58.9480   34.9510   46.7350 C   0  0  0  0  0  0  0  0  0  0  0  0
   59.0370   34.3710   45.4650 C   0  0  0  0  0  0  0  0  0  0  0  0
   59.0166   35.0071   44.5678 H   0  0  0  0  0  0  0  0  0  0  0  0
   59.1520   32.9820   45.3350 C   0  0  0  0  0  0  0  0  0  0  0  0
   59.2387   32.5299   44.3360 H   0  0  0  0  0  0  0  0  0  0  0  0
   59.1570   32.1660   46.4740 C   0  0  0  0  0  0  0  0  0  0  0  0
   59.3200   30.7480   46.3280 N   0  0  0  0  0  0  0  0  0  0  0  0
   60.2890   30.0230   46.8180 C   0  0  0  0  0  0  0  0  0  0  0  0
   61.3070   30.6990   47.6770 C   0  0  0  0  0  0  0  0  0  0  0  0
   61.2210   30.5940   49.0790 C   0  0  0  0  0  0  0  0  0  0  0  0
   60.4057   30.0101   49.5311 H   0  0  0  0  0  0  0  0  0  0  0  0
   62.1580   31.2220   49.9020 C   0  0  0  0  0  0  0  0  0  0  0  0
   62.0759   31.1264   50.9948 H   0  0  0  0  0  0  0  0  0  0  0  0
   63.2020   31.9730   49.3460 C   0  0  0  0  0  0  0  0  0  0  0  0
   64.1570   32.6380   50.1950 N   0  0  0  0  0  0  0  0  0  0  0  0
   65.4560   32.0090   50.4720 C   0  0  0  0  0  0  0  0  0  0  0  0
   65.5598   31.1056   49.8531 H   0  0  0  0  0  0  0  0  0  0  0  0
   65.5030   31.7458   51.5390 H   0  0  0  0  0  0  0  0  0  0  0  0
   66.5960   32.9710   50.1510 C   0  0  0  0  0  0  0  0  0  0  0  0
   67.0367   33.3429   51.0877 H   0  0  0  0  0  0  0  0  0  0  0  0
   67.3658   32.4454   49.5669 H   0  0  0  0  0  0  0  0  0  0  0  0
   66.2073   33.8182   49.5669 H   0  0  0  0  0  0  0  0  0  0  0  0
   63.8320   33.9510   50.7710 C   0  0  0  0  0  0  0  0  0  0  0  0
   63.5383   33.8227   51.8233 H   0  0  0  0  0  0  0  0  0  0  0  0
   64.7174   34.6002   50.7027 H   0  0  0  0  0  0  0  0  0  0  0  0
   62.6840   34.5970   50.0040 C   0  0  0  0  0  0  0  0  0  0  0  0
   61.9531   35.0083   50.7157 H   0  0  0  0  0  0  0  0  0  0  0  0
   63.0757   35.4072   49.3714 H   0  0  0  0  0  0  0  0  0  0  0  0
   62.1948   33.8417   49.3714 H   0  0  0  0  0  0  0  0  0  0  0  0
   63.2970   32.0830   47.9510 C   0  0  0  0  0  0  0  0  0  0  0  0
   64.1142   32.6678   47.5036 H   0  0  0  0  0  0  0  0  0  0  0  0
   62.3610   31.4550   47.1260 C   0  0  0  0  0  0  0  0  0  0  0  0
   62.4476   31.5516   46.0337 H   0  0  0  0  0  0  0  0  0  0  0  0
   60.4380   28.5580   46.4410 C   0  0  0  0  0  0  0  0  0  0  0  0
   61.4073   28.1888   46.8074 H   0  0  0  0  0  0  0  0  0  0  0  0
   59.6130   27.9922   46.8984 H   0  0  0  0  0  0  0  0  0  0  0  0
   60.3730   28.3730   44.9120 C   0  0  0  0  0  0  0  0  0  0  0  0
   61.1838   28.9565   44.4515 H   0  0  0  0  0  0  0  0  0  0  0  0
   60.4771   27.2984   44.7010 H   0  0  0  0  0  0  0  0  0  0  0  0
   59.0890   28.8180   44.3430 N   0  0  0  0  0  0  0  0  0  0  0  0
   59.2580   29.0830   43.3440 H   0  0  0  0  0  0  0  0  0  0  0  0
   58.7560   29.6720   44.8510 H   0  0  0  0  0  0  0  0  0  0  0  0
   58.0550   27.7720   44.3920 C   0  0  0  0  0  0  0  0  0  0  0  0
   57.7097   27.5574   43.3699 H   0  0  0  0  0  0  0  0  0  0  0  0
   58.4873   26.8683   44.8463 H   0  0  0  0  0  0  0  0  0  0  0  0
   56.8580   28.2300   45.2440 C   0  0  0  0  0  0  0  0  0  0  0  0
   55.9584   27.6922   44.9102 H   0  0  0  0  0  0  0  0  0  0  0  0
   57.0869   28.0090   46.2970 H   0  0  0  0  0  0  0  0  0  0  0  0
   56.6170   29.6780   45.1260 N   0  0  0  0  0  0  0  0  0  0  0  0
   57.5260   30.1930   45.2060 H   0  0  0  0  0  0  0  0  0  0  0  0
   55.9490   30.0420   43.8650 C   0  0  0  0  0  0  0  0  0  0  0  0
   55.9077   29.1604   43.2084 H   0  0  0  0  0  0  0  0  0  0  0  0
   54.9307   30.3936   44.0876 H   0  0  0  0  0  0  0  0  0  0  0  0
   56.7190   31.1600   43.1610 C   0  0  0  0  0  0  0  0  0  0  0  0
   56.5115   31.1162   42.0816 H   0  0  0  0  0  0  0  0  0  0  0  0
   56.3942   32.1260   43.5750 H   0  0  0  0  0  0  0  0  0  0  0  0
   58.1550   31.0180   43.3780 N   0  0  0  0  0  0  0  0  0  0  0  0
   58.3090   30.8770   44.4020 H   0  0  0  0  0  0  0  0  0  0  0  0
   58.4720   30.1400   42.9080 H   0  0  0  0  0  0  0  0  0  0  0  0
   59.1000   32.7540   47.7480 C   0  0  0  0  0  0  0  0  0  0  0  0
   59.1466   32.1218   48.6470 H   0  0  0  0  0  0  0  0  0  0  0  0
   58.9840   34.1430   47.8760 C   0  0  0  0  0  0  0  0  0  0  0  0
   58.9211   34.5995   48.8748 H   0  0  0  0  0  0  0  0  0  0  0  0
  1  2  1  0
  2  3  2  0
  3  4  1  0
  3  5  1  0
  5  6  1  0
  5  7  2  0
  7  8  1  0
  8  9  2  0
  9 10  1  0
 10 11  2  0
 11 12  1  0
 11 13  1  0
 13 14  1  0
 13 15  2  0
 15 16  1  0
 16 17  1  0
 17 18  1  0
 17 19  1  0
 17 20  1  0
 20 21  1  0
 20 22  1  0
 20 23  1  0
 16 24  1  0
 24 25  1  0
 24 26  1  0
 24 27  1  0
 27 28  1  0
 27 29  1  0
 27 30  1  0
 15 31  1  0
 31 32  1  0
 31 33  2  0
 33 34  1  0
  9 35  1  0
 35 36  1  0
 35 37  1  0
 35 38  1  0
 38 39  1  0
 38 40  1  0
 38 41  1  0
 41 42  1  0
 41 43  1  0
 41 44  1  0
 44 45  1  0
 44 46  1  0
 44 47  1  0
 47 48  1  0
 47 49  1  0
 47 50  1  0
 50 51  1  0
 50 52  1  0
 52 53  1  0
 52 54  1  0
 52 55  1  0
 55 56  1  0
 55 57  1  0
 55 58  1  0
 58 59  1  0
 58 60  1  0
  7 61  1  0
 61 62  1  0
 61 63  2  0
 63 64  1  0
 63  2  1  0
 33 10  1  0
M  CHG  1  41   1
M  END
>  <UniqueID>  (1) 
1

>  <SMILES>  (1) 
CCN(CC)c1ccc(/C(CC[NH2+]CCNCCN)=N/c2ccccc2)cc1

>  <Energy>  (1) 
67.07654191658757

>  <Genealogy>  (1) 
CCN(CC)c1ccc(C(CC[NH2+]CCNCCN)=Nc2ccccc2)cc1 (protonated)
CCN(CC)c1ccc(/C(CC[NH2+]CCNCCN)=N/c2ccccc2)cc1 (cis-trans isomerization)
CCN(CC)c1ccc(/C(CC[NH2+]CCNCCN)=N/c2ccccc2)cc1 (3D coordinates assigned)
CCN(CC)c1ccc(/C(CC[NH2+]CCNCCN)=N/c2ccccc2)cc1 (optimized conformer: 67.07654191658757 kcal/mol)

>  <smiles>  (1) 
CCN(CC)c1ccc(C(CCNCCNCCN)=Nc2ccccc2)cc1

>  <score_type>  (1) 
oracle

>  <origin>  (1) 
adg

>  <m_score__min__energy>  (1) 
-5.3799999999999999

>  <m_primary>  (1) 
energy

$$$$
1:0
     RDKit          3D

 41 43  0  0  0  0  0  0  0  0999 V2000
   57.0220   31.1750   42.2530 C   0  0  0  0  0  0  0  0  0  0  0  0
   56.2690   29.8910   42.5900 C   0  0  0  0  0  0  0  0  0  0  0  0
   56.0520   29.7520   44.1000 C   0  0  0  0  0  0  0  0  0  0  0  0
   57.3450   29.8100   44.8110 N   0  0  0  0  0  0  0  0  0  0  0  0
   57.7880   31.0090   45.3240 C   0  0  0  0  0  0  0  0  0  0  0  0
   57.0870   32.0530   45.2260 O   0  0  0  0  0  0  0  0  0  0  0  0
   59.0280   31.0450   45.9580 C   0  0  0  0  0  0  0  0  0  0  0  0
   59.7640   29.9060   46.0670 C   0  0  0  0  0  0  0  0  0  0  0  0
   60.9320   30.2140   46.7350 C   0  0  0  0  0  0  0  0  0  0  0  0
   60.8370   31.5730   47.0200 C   0  0  0  0  0  0  0  0  0  0  0  0
   61.8560   32.3240   47.7870 C   0  0  0  0  0  0  0  0  0  0  0  0
   61.4780   33.1100   48.8850 C   0  0  0  0  0  0  0  0  0  0  0  0
   62.4400   33.8360   49.5880 C   0  0  0  0  0  0  0  0  0  0  0  0
   63.7720   33.7830   49.1770 C   0  0  0  0  0  0  0  0  0  0  0  0
   64.1260   33.0330   48.0980 N   0  0  0  0  0  0  0  0  0  0  0  0
   63.2050   32.3160   47.3980 C   0  0  0  0  0  0  0  0  0  0  0  0
   59.6780   32.0880   46.5230 N   0  0  0  0  0  0  0  0  0  0  0  0
   59.2470   33.4890   46.5420 C   0  0  0  0  0  0  0  0  0  0  0  0
   59.3420   28.7100   45.5680 N   0  0  0  0  0  0  0  0  0  0  0  0
   60.1960   27.5190   45.6850 C   0  0  0  0  0  0  0  0  0  0  0  0
   58.1320   28.6750   44.9100 C   0  0  0  0  0  0  0  0  0  0  0  0
   57.7370   27.5940   44.3870 O   0  0  0  0  0  0  0  0  0  0  0  0
   57.3188   31.6810   43.1835 H   0  0  0  0  0  0  0  0  0  0  0  0
   57.9197   30.9304   41.6663 H   0  0  0  0  0  0  0  0  0  0  0  0
   56.3702   31.8391   41.6663 H   0  0  0  0  0  0  0  0  0  0  0  0
   55.2906   29.9072   42.0875 H   0  0  0  0  0  0  0  0  0  0  0  0
   56.8697   29.0362   42.2458 H   0  0  0  0  0  0  0  0  0  0  0  0
   55.4078   30.5716   44.4510 H   0  0  0  0  0  0  0  0  0  0  0  0
   55.5740   28.7828   44.3051 H   0  0  0  0  0  0  0  0  0  0  0  0
   61.7584   29.5332   46.9873 H   0  0  0  0  0  0  0  0  0  0  0  0
   60.4227   33.1542   49.1922 H   0  0  0  0  0  0  0  0  0  0  0  0
   62.1509   34.4442   50.4578 H   0  0  0  0  0  0  0  0  0  0  0  0
   64.5384   34.3491   49.7267 H   0  0  0  0  0  0  0  0  0  0  0  0
   65.1250   33.0120   47.7960 H   0  0  0  0  0  0  0  0  0  0  0  0
   63.5190   31.7275   46.5233 H   0  0  0  0  0  0  0  0  0  0  0  0
   59.1432   33.8266   47.5838 H   0  0  0  0  0  0  0  0  0  0  0  0
   59.9957   34.1099   46.0283 H   0  0  0  0  0  0  0  0  0  0  0  0
   58.2788   33.5818   46.0283 H   0  0  0  0  0  0  0  0  0  0  0  0
   60.3609   27.2890   46.7480 H   0  0  0  0  0  0  0  0  0  0  0  0
   59.7031   26.6651   45.1973 H   0  0  0  0  0  0  0  0  0  0  0  0
   61.1629   27.7118   45.1973 H   0  0  0  0  0  0  0  0  0  0  0  0
  1  2  1  0
  2  3  1  0
  3  4  1  0
  4  5  1  0
  5  6  2  0
  5  7  1  0
  7  8  2  0
  8  9  1  0
  9 10  2  0
 10 11  1  0
 11 12  2  0
 12 13  1  0
 13 14  2  0
 14 15  1  0
 15 16  2  0
 10 17  1  0
 17 18  1  0
  8 19  1  0
 19 20  1  0
 19 21  1  0
 21 22  2  0
 21  4  1  0
 17  7  1  0
 16 11  1  0
  1 23  1  0
  1 24  1  0
  1 25  1  0
  2 26  1  0
  2 27  1  0
  3 28  1  0
  3 29  1  0
  9 30  1  0
 12 31  1  0
 13 32  1  0
 14 33  1  0
 15 34  1  0
 16 35  1  0
 18 36  1  0
 18 37  1  0
 18 38  1  0
 20 39  1  0
 20 40  1  0
 20 41  1  0
M  CHG  1  15   1
M  END
>  <UniqueID>  (2) 
2

>  <SMILES>  (2) 
CCCn1c(=O)c2c(cc(-c3ccc[nH+]c3)n2C)n(C)c1=O

>  <Energy>  (2) 
86.44585657164167

>  <Genealogy>  (2) 
CCCn1c(=O)c2c(cc(-c3ccc[nH+]c3)n2C)n(C)c1=O (protonated)
CCCn1c(=O)c2c(cc(-c3ccc[nH+]c3)n2C)n(C)c1=O (3D coordinates assigned)
CCCn1c(=O)c2c(cc(-c3ccc[nH+]c3)n2C)n(C)c1=O (optimized conformer: 86.44585657164167 kcal/mol)

>  <smiles>  (2) 
CCCn1c(=O)c2c(cc(-c3cccnc3)n2C)n(C)c1=O

>  <score_type>  (2) 
oracle

>  <origin>  (2) 
adg

>  <m_score__min__energy>  (2) 
-5.6600000000000001

>  <m_primary>  (2) 
energy

$$$$
2:0
     RDKit          3D

 25 25  0  0  0  0  0  0  0  0999 V2000
   55.1460   27.6970   45.3920 H   0  0  0  0  0  0  0  0  0  0  0  0
   56.0430   27.2210   45.6290 N   0  0  0  0  0  0  0  0  0  0  0  0
   56.1070   25.8710   46.0500 C   0  0  0  0  0  0  0  0  0  0  0  0
   55.0590   25.2180   46.3030 O   0  0  0  0  0  0  0  0  0  0  0  0
   57.4840   25.2730   46.1780 C   0  0  1  0  0  0  0  0  0  0  0  0
   57.7520   24.9360   47.6530 C   0  0  0  0  0  0  0  0  0  0  0  0
   57.1963   25.6348   48.2956 H   0  0  0  0  0  0  0  0  0  0  0  0
   57.4228   23.9070   47.8597 H   0  0  0  0  0  0  0  0  0  0  0  0
   58.8287   25.0250   47.8597 H   0  0  0  0  0  0  0  0  0  0  0  0
   57.5880   24.0270   45.2620 C   0  0  0  0  0  0  0  0  0  0  0  0
   57.0198   23.2089   45.7289 H   0  0  0  0  0  0  0  0  0  0  0  0
   58.6600   23.8024   45.1597 H   0  0  0  0  0  0  0  0  0  0  0  0
   57.0490   24.2350   43.8430 C   0  0  0  0  0  0  0  0  0  0  0  0
   56.0239   24.6306   43.8945 H   0  0  0  0  0  0  0  0  0  0  0  0
   57.6914   24.9498   43.3079 H   0  0  0  0  0  0  0  0  0  0  0  0
   57.0447   23.2740   43.3079 H   0  0  0  0  0  0  0  0  0  0  0  0
   58.6730   26.5750   45.6270 S   0  0  0  0  0  0  0  0  0  0  0  0
   57.3420   27.7430   45.4040 C   0  0  0  0  0  0  0  0  0  0  0  0
   57.5750   28.9490   44.9770 N   0  0  0  0  0  0  0  0  0  0  0  0
   56.6050   29.9020   44.5170 C   0  0  0  0  0  0  0  0  0  0  0  0
   55.4060   29.7720   44.8750 O   0  0  0  0  0  0  0  0  0  0  0  0
   56.9560   30.9870   43.5440 C   0  0  0  0  0  0  0  0  0  0  0  0
   57.2491   31.8929   44.0949 H   0  0  0  0  0  0  0  0  0  0  0  0
   57.7928   30.6557   42.9115 H   0  0  0  0  0  0  0  0  0  0  0  0
   56.0837   31.2086   42.9115 H   0  0  0  0  0  0  0  0  0  0  0  0
  1  2  1  0
  2  3  1  0
  3  4  2  0
  3  5  1  0
  5  6  1  1
  6  7  1  0
  6  8  1  0
  6  9  1  0
  5 10  1  0
 10 11  1  0
 10 12  1  0
 10 13  1  0
 13 14  1  0
 13 15  1  0
 13 16  1  0
  5 17  1  0
 17 18  1  0
 18 19  2  0
 19 20  1  0
 20 21  2  0
 20 22  1  0
 22 23  1  0
 22 24  1  0
 22 25  1  0
 18  2  1  0
M  END
>  <UniqueID>  (3) 
3

>  <SMILES>  (3) 
CC[C@@]1(C)S/C(=N/C(C)=O)NC1=O

>  <Energy>  (3) 
31.538487573558733

>  <Genealogy>  (3) 
CC[C@@]1(C)SC(=NC(C)=O)NC1=O (chirality)
CC[C@@]1(C)S/C(=N/C(C)=O)NC1=O (cis-trans isomerization)
CC[C@@]1(C)S/C(=N/C(C)=O)NC1=O (3D coordinates assigned)
CC[C@@]1(C)S/C(=N/C(C)=O)NC1=O (nonaromatic ring conformer: 31.538487573558733 kcal/mol)

>  <smiles>  (3) 
CCC1(C)SC(=NC(C)=O)NC1=O

>  <score_type>  (3) 
oracle

>  <origin>  (3) 
adg

>  <m_score__min__energy>  (3) 
-6.1200000000000001

>  <m_primary>  (3) 
energy

$$$$
3:0
     RDKit          3D

 54 56  0  0  0  0  0  0  0  0999 V2000
   67.1180   32.2710   50.8090 C   0  0  0  0  0  0  0  0  0  0  0  0
   66.2680   32.6430   49.7300 O   0  0  0  0  0  0  0  0  0  0  0  0
   64.9300   33.0420   49.8720 C   0  0  0  0  0  0  0  0  0  0  0  0
   64.4420   33.2710   51.1630 C   0  0  0  0  0  0  0  0  0  0  0  0
   63.1090   33.6700   51.3650 C   0  0  0  0  0  0  0  0  0  0  0  0
   62.5790   33.8970   52.6440 O   0  0  0  0  0  0  0  0  0  0  0  0
   63.0470   33.2700   53.8330 C   0  0  0  0  0  0  0  0  0  0  0  0
   62.2690   33.8440   50.2600 C   0  0  0  0  0  0  0  0  0  0  0  0
   62.7430   33.6300   48.9540 C   0  0  0  0  0  0  0  0  0  0  0  0
   61.8550   33.8100   47.7800 C   0  0  0  0  0  0  0  0  0  0  0  0
   62.3610   33.8520   46.6250 O   0  0  0  0  0  0  0  0  0  0  0  0
   60.4340   33.9570   47.9370 N   0  0  0  0  0  0  0  0  0  0  0  0
   59.5260   34.0410   46.7940 C   0  0  0  0  0  0  0  0  0  0  0  0
   59.1100   32.6520   46.3420 C   0  0  0  0  0  0  0  0  0  0  0  0
   59.9440   31.5880   46.6920 C   0  0  0  0  0  0  0  0  0  0  0  0
   59.6010   30.2960   46.3220 C   0  0  0  0  0  0  0  0  0  0  0  0
   60.3660   29.3440   46.6380 O   0  0  0  0  0  0  0  0  0  0  0  0
   58.4540   30.0680   45.6170 N   0  0  0  0  0  0  0  0  0  0  0  0
   58.0970   28.7180   45.2480 C   0  0  0  0  0  0  0  0  0  0  0  0
   58.6700   28.1210   44.1160 C   0  0  0  0  0  0  0  0  0  0  0  0
   58.3240   26.8150   43.7600 C   0  0  0  0  0  0  0  0  0  0  0  0
   57.4050   26.0970   44.5290 C   0  0  0  0  0  0  0  0  0  0  0  0
   56.8210   26.6850   45.6690 C   0  0  0  0  0  0  0  0  0  0  0  0
   55.8930   26.0070   46.4740 O   0  0  0  0  0  0  0  0  0  0  0  0
   55.9450   24.6140   46.7600 C   0  0  0  0  0  0  0  0  0  0  0  0
   57.1740   27.9940   46.0190 C   0  0  0  0  0  0  0  0  0  0  0  0
   57.6430   31.1150   45.2600 C   0  0  0  0  0  0  0  0  0  0  0  0
   56.5780   30.8820   44.6210 O   0  0  0  0  0  0  0  0  0  0  0  0
   57.9740   32.4080   45.6000 N   0  0  0  0  0  0  0  0  0  0  0  0
   57.1090   33.5260   45.1730 C   0  0  0  0  0  0  0  0  0  0  0  0
   64.0740   33.2200   48.7690 C   0  0  0  0  0  0  0  0  0  0  0  0
   66.6166   32.4904   51.7632 H   0  0  0  0  0  0  0  0  0  0  0  0
   67.3371   31.1947   50.7489 H   0  0  0  0  0  0  0  0  0  0  0  0
   68.0573   32.8403   50.7489 H   0  0  0  0  0  0  0  0  0  0  0  0
   65.1077   33.1376   52.0285 H   0  0  0  0  0  0  0  0  0  0  0  0
   62.6493   33.8028   54.7094 H   0  0  0  0  0  0  0  0  0  0  0  0
   62.7069   32.2241   53.8543 H   0  0  0  0  0  0  0  0  0  0  0  0
   64.1464   33.2986   53.8543 H   0  0  0  0  0  0  0  0  0  0  0  0
   61.2245   34.1521   50.4150 H   0  0  0  0  0  0  0  0  0  0  0  0
   60.0230   34.0620   48.8920 H   0  0  0  0  0  0  0  0  0  0  0  0
   58.6307   34.6106   47.0840 H   0  0  0  0  0  0  0  0  0  0  0  0
   60.0438   34.5448   45.9645 H   0  0  0  0  0  0  0  0  0  0  0  0
   60.8685   31.7736   47.2584 H   0  0  0  0  0  0  0  0  0  0  0  0
   59.3937   28.6823   43.5067 H   0  0  0  0  0  0  0  0  0  0  0  0
   58.7766   26.3507   42.8714 H   0  0  0  0  0  0  0  0  0  0  0  0
   57.1362   25.0692   44.2438 H   0  0  0  0  0  0  0  0  0  0  0  0
   55.9506   24.4634   47.8496 H   0  0  0  0  0  0  0  0  0  0  0  0
   55.0648   24.1174   46.3257 H   0  0  0  0  0  0  0  0  0  0  0  0
   56.8598   24.1844   46.3257 H   0  0  0  0  0  0  0  0  0  0  0  0
   56.7232   28.4600   46.9076 H   0  0  0  0  0  0  0  0  0  0  0  0
   56.7107   34.0408   46.0598 H   0  0  0  0  0  0  0  0  0  0  0  0
   57.6963   34.2346   44.5706 H   0  0  0  0  0  0  0  0  0  0  0  0
   56.2756   33.1354   44.5706 H   0  0  0  0  0  0  0  0  0  0  0  0
   64.4508   33.0363   47.7520 H   0  0  0  0  0  0  0  0  0  0  0  0
  1  2  1  0
  2  3  1  0
  3  4  2  0
  4  5  1  0
  5  6  1  0
  6  7  1  0
  5  8  2  0
  8  9  1  0
  9 10  1  0
 10 11  2  0
 10 12  1  0
 12 13  1  0
 13 14  1  0
 14 15  2  0
 15 16  1  0
 16 17  2  0
 16 18  1  0
 18 19  1  0
 19 20  2  0
 20 21  1  0
 21 22  2  0
 22 23  1  0
 23 24  1  0
 24 25  1  0
 23 26  2  0
 18 27  1  0
 27 28  2  0
 27 29  1  0
 29 30  1  0
  9 31  2  0
 31  3  1  0
 29 14  1  0
 26 19  1  0
  1 32  1  0
  1 33  1  0
  1 34  1  0
  4 35  1  0
  7 36  1  0
  7 37  1  0
  7 38  1  0
  8 39  1  0
 12 40  1  0
 13 41  1  0
 13 42  1  0
 15 43  1  0
 20 44  1  0
 21 45  1  0
 22 46  1  0
 25 47  1  0
 25 48  1  0
 25 49  1  0
 26 50  1  0
 30 51  1  0
 30 52  1  0
 30 53  1  0
 31 54  1  0
M  END
>  <UniqueID>  (4) 
4

>  <SMILES>  (4) 
COc1cc(OC)cc(C(=O)NCc2cc(=O)n(-c3cccc(OC)c3)c(=O)n2C)c1

>  <Energy>  (4) 
71.48892948121947

>  <Genealogy>  (4) 
COc1cc(OC)cc(C(=O)NCc2cc(=O)n(-c3cccc(OC)c3)c(=O)n2C)c1 (3D coordinates assigned)
COc1cc(OC)cc(C(=O)NCc2cc(=O)n(-c3cccc(OC)c3)c(=O)n2C)c1 (optimized conformer: 71.48892948121947 kcal/mol)

>  <smiles>  (4) 
COc1cc(OC)cc(C(=O)NCc2cc(=O)n(-c3cccc(OC)c3)c(=O)n2C)c1

>  <score_type>  (4) 
oracle

>  <origin>  (4) 
adg

>  <m_score__min__energy>  (4) 
-7.6900000000000004

>  <m_primary>  (4) 
energy

$$$$
4:0
     RDKit          3D

 34 35  0  0  0  0  0  0  0  0999 V2000
   59.4530   29.0410   44.7960 C   0  0  0  0  0  0  0  0  0  0  0  0
   58.1030   29.6080   44.4850 C   0  0  0  0  0  0  0  0  0  0  0  0
   57.0870   28.9570   43.8190 C   0  0  0  0  0  0  0  0  0  0  0  0
   56.0080   29.8160   43.8480 C   0  0  0  0  0  0  0  0  0  0  0  0
   56.3270   30.9130   44.4990 O   0  0  0  0  0  0  0  0  0  0  0  0
   57.5730   30.8190   44.9010 C   0  0  0  0  0  0  0  0  0  0  0  0
   58.2640   31.8790   45.7160 C   0  0  0  0  0  0  0  0  0  0  0  0
   57.6900   33.2150   45.4790 N   0  0  0  0  0  0  0  0  0  0  0  0
   58.5430   34.0310   44.5960 C   0  0  0  0  0  0  0  0  0  0  0  0
   59.2640   35.1420   45.3750 C   0  0  0  0  0  0  0  0  0  0  0  0
   60.0110   34.5930   46.5640 C   0  0  0  0  0  0  0  0  0  0  0  0
   59.4110   34.5950   47.8350 C   0  0  0  0  0  0  0  0  0  0  0  0
   60.0830   34.0440   48.9310 C   0  0  0  0  0  0  0  0  0  0  0  0
   61.3530   33.4850   48.7650 C   0  0  0  0  0  0  0  0  0  0  0  0
   61.9560   33.4760   47.5030 C   0  0  0  0  0  0  0  0  0  0  0  0
   63.5450   32.7630   47.2950 Cl  0  0  0  0  0  0  0  0  0  0  0  0
   61.2870   34.0290   46.4050 C   0  0  0  0  0  0  0  0  0  0  0  0
   59.5850   28.9856   45.8866 H   0  0  0  0  0  0  0  0  0  0  0  0
   59.5352   28.0323   44.3650 H   0  0  0  0  0  0  0  0  0  0  0  0
   60.2308   29.6885   44.3650 H   0  0  0  0  0  0  0  0  0  0  0  0
   57.1281   27.9585   43.3592 H   0  0  0  0  0  0  0  0  0  0  0  0
   55.0267   29.6134   43.3941 H   0  0  0  0  0  0  0  0  0  0  0  0
   58.1603   31.6314   46.7828 H   0  0  0  0  0  0  0  0  0  0  0  0
   59.3220   31.9042   45.4160 H   0  0  0  0  0  0  0  0  0  0  0  0
   57.6010   33.6990   46.4020 H   0  0  0  0  0  0  0  0  0  0  0  0
   56.7340   33.1120   45.0720 H   0  0  0  0  0  0  0  0  0  0  0  0
   59.2942   33.3804   44.1245 H   0  0  0  0  0  0  0  0  0  0  0  0
   57.9010   34.5033   43.8379 H   0  0  0  0  0  0  0  0  0  0  0  0
   59.9786   35.6418   44.7045 H   0  0  0  0  0  0  0  0  0  0  0  0
   58.5071   35.8507   45.7422 H   0  0  0  0  0  0  0  0  0  0  0  0
   58.4100   35.0312   47.9682 H   0  0  0  0  0  0  0  0  0  0  0  0
   59.6113   34.0507   49.9247 H   0  0  0  0  0  0  0  0  0  0  0  0
   61.8792   33.0514   49.6282 H   0  0  0  0  0  0  0  0  0  0  0  0
   61.7629   34.0217   45.4133 H   0  0  0  0  0  0  0  0  0  0  0  0
  1  2  1  0
  2  3  1  0
  3  4  2  0
  4  5  1  0
  5  6  1  0
  6  7  1  0
  7  8  1  0
  8  9  1  0
  9 10  1  0
 10 11  1  0
 11 12  2  0
 12 13  1  0
 13 14  2  0
 14 15  1  0
 15 16  1  0
 15 17  2  0
  6  2  2  0
 17 11  1  0
  1 18  1  0
  1 19  1  0
  1 20  1  0
  3 21  1  0
  4 22  1  0
  7 23  1  0
  7 24  1  0
  8 25  1  0
  8 26  1  0
  9 27  1  0
  9 28  1  0
 10 29  1  0
 10 30  1  0
 12 31  1  0
 13 32  1  0
 14 33  1  0
 17 34  1  0
M  CHG  1   8   1
M  END
>  <UniqueID>  (5) 
5

>  <SMILES>  (5) 
Cc1ccoc1C[NH2+]CCc1cccc(Cl)c1

>  <Energy>  (5) 
54.81887657225261

>  <Genealogy>  (5) 
Cc1ccoc1C[NH2+]CCc1cccc(Cl)c1 (protonated)
Cc1ccoc1C[NH2+]CCc1cccc(Cl)c1 (3D coordinates assigned)
Cc1ccoc1C[NH2+]CCc1cccc(Cl)c1 (optimized conformer: 54.81887657225261 kcal/mol)

>  <smiles>  (5) 
Cc1ccoc1CNCCc1cccc(Cl)c1

>  <score_type>  (5) 
oracle

>  <origin>  (5) 
adg

>  <m_score__min__energy>  (5) 
-5.0599999999999996

>  <m_primary>  (5) 
energy

$$$$
5:0
     RDKit          3D

 56 58  0  0  0  0  0  0  0  0999 V2000
   58.0580   33.0830   43.9690 C   0  0  0  0  0  0  0  0  0  0  0  0
   57.7510   31.6080   43.7270 C   0  0  0  0  0  0  0  0  0  0  0  0
   57.1700   30.9910   44.9440 N   0  0  0  0  0  0  0  0  0  0  0  0
   56.6240   29.6420   44.6510 C   0  0  0  0  0  0  0  0  0  0  0  0
   55.5620   29.7270   43.5560 C   0  0  0  0  0  0  0  0  0  0  0  0
   58.1620   30.9380   46.0450 C   0  0  0  0  0  0  0  0  0  0  0  0
   58.8730   29.5750   46.0610 C   0  0  0  0  0  0  0  0  0  0  0  0
   60.1020   29.5480   46.9860 C   0  0  0  0  0  0  0  0  0  0  0  0
   59.7730   28.9860   48.3780 C   0  0  0  0  0  0  0  0  0  0  0  0
   60.4770   29.7650   49.4540 C   0  0  0  0  0  0  0  0  0  0  0  0
   61.5510   29.3210   49.9390 O   0  0  0  0  0  0  0  0  0  0  0  0
   59.9440   31.0210   49.9040 N   0  0  0  0  0  0  0  0  0  0  0  0
   60.6200   31.8760   50.8830 C   0  0  0  0  0  0  0  0  0  0  0  0
   61.9780   32.3230   50.3690 C   0  0  0  0  0  0  0  0  0  0  0  0
   63.0950   32.0490   51.1740 C   0  0  0  0  0  0  0  0  0  0  0  0
   64.3740   32.1340   50.6300 C   0  0  0  0  0  0  0  0  0  0  0  0
   65.3760   31.8540   51.3380 O   0  0  0  0  0  0  0  0  0  0  0  0
   64.5380   32.4750   49.3620 O   0  0  0  0  0  0  0  0  0  0  0  0
   63.5290   32.8240   48.5730 C   0  0  0  0  0  0  0  0  0  0  0  0
   63.8060   33.1220   47.2380 C   0  0  0  0  0  0  0  0  0  0  0  0
   62.7890   33.5160   46.3770 C   0  0  0  0  0  0  0  0  0  0  0  0
   61.4940   33.7240   46.8640 C   0  0  0  0  0  0  0  0  0  0  0  0
   60.5090   34.2360   46.0020 C   0  0  0  0  0  0  0  0  0  0  0  0
   59.2510   34.5780   46.4950 C   0  0  0  0  0  0  0  0  0  0  0  0
   58.9810   34.4520   47.8550 C   0  0  0  0  0  0  0  0  0  0  0  0
   59.9490   33.9370   48.7210 C   0  0  0  0  0  0  0  0  0  0  0  0
   61.1930   33.4740   48.2340 C   0  0  0  0  0  0  0  0  0  0  0  0
   62.1970   32.8840   49.0700 C   0  0  0  0  0  0  0  0  0  0  0  0
   58.0983   33.2764   45.0511 H   0  0  0  0  0  0  0  0  0  0  0  0
   59.0278   33.3349   43.5152 H   0  0  0  0  0  0  0  0  0  0  0  0
   57.2692   33.7010   43.5152 H   0  0  0  0  0  0  0  0  0  0  0  0
   57.0331   31.5191   42.8983 H   0  0  0  0  0  0  0  0  0  0  0  0
   58.6867   31.0867   43.4764 H   0  0  0  0  0  0  0  0  0  0  0  0
   57.4400   28.9852   44.3151 H   0  0  0  0  0  0  0  0  0  0  0  0
   56.1651   29.2353   45.5642 H   0  0  0  0  0  0  0  0  0  0  0  0
   54.5662   29.8067   44.0164 H   0  0  0  0  0  0  0  0  0  0  0  0
   55.7492   30.6130   42.9316 H   0  0  0  0  0  0  0  0  0  0  0  0
   55.6059   28.8225   42.9316 H   0  0  0  0  0  0  0  0  0  0  0  0
   58.9073   31.7339   45.8999 H   0  0  0  0  0  0  0  0  0  0  0  0
   57.6397   31.0791   47.0028 H   0  0  0  0  0  0  0  0  0  0  0  0
   58.1593   28.8115   46.4042 H   0  0  0  0  0  0  0  0  0  0  0  0
   59.2268   29.3768   45.0385 H   0  0  0  0  0  0  0  0  0  0  0  0
   60.8778   28.9190   46.5250 H   0  0  0  0  0  0  0  0  0  0  0  0
   60.4485   30.5840   47.1150 H   0  0  0  0  0  0  0  0  0  0  0  0
   58.6870   29.0459   48.5426 H   0  0  0  0  0  0  0  0  0  0  0  0
   60.1126   27.9407   48.4230 H   0  0  0  0  0  0  0  0  0  0  0  0
   59.0070   31.3260   49.5540 H   0  0  0  0  0  0  0  0  0  0  0  0
   59.9986   32.7629   51.0760 H   0  0  0  0  0  0  0  0  0  0  0  0
   60.7676   31.3003   51.8086 H   0  0  0  0  0  0  0  0  0  0  0  0
   62.9606   31.7686   52.2291 H   0  0  0  0  0  0  0  0  0  0  0  0
   64.8377   33.0444   46.8644 H   0  0  0  0  0  0  0  0  0  0  0  0
   63.0029   33.6649   45.3083 H   0  0  0  0  0  0  0  0  0  0  0  0
   60.7321   34.3675   44.9329 H   0  0  0  0  0  0  0  0  0  0  0  0
   58.4727   34.9469   45.8107 H   0  0  0  0  0  0  0  0  0  0  0  0
   58.0012   34.7593   48.2495 H   0  0  0  0  0  0  0  0  0  0  0  0
   59.7397   33.8910   49.7999 H   0  0  0  0  0  0  0  0  0  0  0  0
  1  2  1  0
  2  3  1  0
  3  4  1  0
  4  5  1  0
  3  6  1  0
  6  7  1  0
  7  8  1  0
  8  9  1  0
  9 10  1  0
 10 11  2  0
 10 12  1  0
 12 13  1  0
 13 14  1  0
 14 15  2  0
 15 16  1  0
 16 17  2  0
 16 18  1  0
 18 19  1  0
 19 20  2  0
 20 21  1  0
 21 22  2  0
 22 23  1  0
 23 24  2  0
 24 25  1  0
 25 26  2  0
 26 27  1  0
 27 28  2  0
 28 14  1  0
 28 19  1  0
 27 22  1  0
  1 29  1  0
  1 30  1  0
  1 31  1  0
  2 32  1  0
  2 33  1  0
  4 34  1  0
  4 35  1  0
  5 36  1  0
  5 37  1  0
  5 38  1  0
  6 39  1  0
  6 40  1  0
  7 41  1  0
  7 42  1  0
  8 43  1  0
  8 44  1  0
  9 45  1  0
  9 46  1  0
 12 47  1  0
 13 48  1  0
 13 49  1  0
 15 50  1  0
 20 51  1  0
 21 52  1  0
 23 53  1  0
 24 54  1  0
 25 55  1  0
 26 56  1  0
M  END
>  <UniqueID>  (6) 
6

>  <SMILES>  (6) 
CCN(CC)CCCCC(=O)NCc1cc(=O)oc2ccc3ccccc3c12

>  <Energy>  (6) 
74.42703575316808

>  <Genealogy>  (6) 
CCN(CC)CCCCC(=O)NCc1cc(=O)oc2ccc3ccccc3c12 (3D coordinates assigned)
CCN(CC)CCCCC(=O)NCc1cc(=O)oc2ccc3ccccc3c12 (optimized conformer: 74.42703575316808 kcal/mol)

>  <smiles>  (6) 
CCN(CC)CCCCC(=O)NCc1cc(=O)oc2ccc3ccccc3c12

>  <score_type>  (6) 
oracle

>  <origin>  (6) 
adg

>  <m_score__min__energy>  (6) 
-7.6799999999999997

>  <m_primary>  (6) 
energy

$$$$
6:0
     RDKit          3D

 31 32  0  0  0  0  0  0  0  0999 V2000
   57.1830   33.8410   44.9070 C   0  0  0  0  0  0  0  0  0  0  0  0
   57.7900   32.6040   45.5010 C   0  0  0  0  0  0  0  0  0  0  0  0
   58.7150   32.7060   46.5500 C   0  0  0  0  0  0  0  0  0  0  0  0
   59.2550   31.5560   47.1280 C   0  0  0  0  0  0  0  0  0  0  0  0
   58.8670   30.2850   46.6770 C   0  0  0  0  0  0  0  0  0  0  0  0
   59.3980   29.1630   47.2330 N   0  0  0  0  0  0  0  0  0  0  0  0
   59.0260   27.9170   46.8140 C   0  0  0  0  0  0  0  0  0  0  0  0
   59.6270   26.6880   47.4650 C   0  0  0  0  0  0  0  0  0  0  0  0
   60.6150   27.0700   48.3540 F   0  0  0  0  0  0  0  0  0  0  0  0
   60.1800   25.8760   46.4910 F   0  0  0  0  0  0  0  0  0  0  0  0
   58.6780   25.9560   48.1580 F   0  0  0  0  0  0  0  0  0  0  0  0
   58.0830   27.7820   45.8270 N   0  0  0  0  0  0  0  0  0  0  0  0
   57.7030   26.4880   45.4170 N   0  0  0  0  0  0  0  0  0  0  0  0
   56.2620   25.7030   45.9830 S   0  0  0  0  0  0  0  0  0  0  0  0
   55.8160   24.3760   44.8830 C   0  0  0  0  0  0  0  0  0  0  0  0
   56.4770   25.1720   47.3720 O   0  0  0  0  0  0  0  0  0  0  0  0
   55.1410   26.7020   46.0020 O   0  0  0  0  0  0  0  0  0  0  0  0
   57.5540   28.8870   45.2160 C   0  0  0  0  0  0  0  0  0  0  0  0
   56.7460   28.7520   44.2540 O   0  0  0  0  0  0  0  0  0  0  0  0
   57.9240   30.1730   45.6380 C   0  0  0  0  0  0  0  0  0  0  0  0
   57.3850   31.3370   45.0560 C   0  0  0  0  0  0  0  0  0  0  0  0
   56.8538   34.5118   45.7142 H   0  0  0  0  0  0  0  0  0  0  0  0
   57.9314   34.3547   44.2857 H   0  0  0  0  0  0  0  0  0  0  0  0
   56.3188   33.5633   44.2857 H   0  0  0  0  0  0  0  0  0  0  0  0
   59.0166   33.6973   46.9192 H   0  0  0  0  0  0  0  0  0  0  0  0
   59.9892   31.6465   47.9421 H   0  0  0  0  0  0  0  0  0  0  0  0
   60.1020   29.2690   47.9980 H   0  0  0  0  0  0  0  0  0  0  0  0
   55.5200   23.4953   45.4719 H   0  0  0  0  0  0  0  0  0  0  0  0
   54.9749   24.6925   44.2487 H   0  0  0  0  0  0  0  0  0  0  0  0
   56.6776   24.1203   44.2487 H   0  0  0  0  0  0  0  0  0  0  0  0
   56.6428   31.2519   44.2486 H   0  0  0  0  0  0  0  0  0  0  0  0
  1  2  1  0
  2  3  2  0
  3  4  1  0
  4  5  2  0
  5  6  1  0
  6  7  2  0
  7  8  1  0
  8  9  1  0
  8 10  1  0
  8 11  1  0
  7 12  1  0
 12 13  1  0
 13 14  1  0
 14 15  1  0
 14 16  2  0
 14 17  2  0
 12 18  1  0
 18 19  2  0
 18 20  1  0
 20 21  2  0
 21  2  1  0
 20  5  1  0
  1 22  1  0
  1 23  1  0
  1 24  1  0
  3 25  1  0
  4 26  1  0
  6 27  1  0
 15 28  1  0
 15 29  1  0
 15 30  1  0
 21 31  1  0
M  CHG  2   6   1  13  -1
M  END
>  <UniqueID>  (7) 
7

>  <SMILES>  (7) 
Cc1ccc2[nH+]c(C(F)(F)F)n([N-]S(C)(=O)=O)c(=O)c2c1

>  <Energy>  (7) 
41.156273614384254

>  <Genealogy>  (7) 
Cc1ccc2[nH+]c(C(F)(F)F)n([N-]S(C)(=O)=O)c(=O)c2c1 (protonated)
Cc1ccc2[nH+]c(C(F)(F)F)n([N-]S(C)(=O)=O)c(=O)c2c1 (3D coordinates assigned)
Cc1ccc2[nH+]c(C(F)(F)F)n([N-]S(C)(=O)=O)c(=O)c2c1 (optimized conformer: 41.156273614384254 kcal/mol)

>  <smiles>  (7) 
Cc1ccc2nc(C(F)(F)F)n(NS(C)(=O)=O)c(=O)c2c1

>  <score_type>  (7) 
oracle

>  <origin>  (7) 
adg

>  <m_score__min__energy>  (7) 
-6.1100000000000003

>  <m_primary>  (7) 
energy

$$$$
7:0
     RDKit          3D

 77 78  0  0  0  0  0  0  0  0999 V2000
   57.4960   32.3670   44.6730 C   0  0  0  0  0  0  0  0  0  0  0  0
   57.4690   31.5990   43.3520 C   0  0  0  0  0  0  0  0  0  0  0  0
   56.4790   30.5210   43.3990 N   0  0  0  0  0  0  0  0  0  0  0  0
   56.3050   29.6500   44.5190 C   0  0  0  0  0  0  0  0  0  0  0  0
   55.1480   29.3630   44.9330 O   0  0  0  0  0  0  0  0  0  0  0  0
   57.5180   29.0500   45.1770 C   0  0  0  0  0  0  0  0  0  0  0  0
   58.6630   28.8620   44.2330 N   0  0  2  0  0  0  0  0  0  0  0  0
   58.7980   27.4430   43.8040 C   0  0  0  0  0  0  0  0  0  0  0  0
   57.8710   27.0790   42.6330 C   0  0  0  0  0  0  0  0  0  0  0  0
   57.0430   28.2180   42.2330 N   0  0  0  0  0  0  0  0  0  0  0  0
   59.9310   29.3000   44.8770 C   0  0  0  0  0  0  0  0  0  0  0  0
   60.4520   28.3010   45.9320 C   0  0  0  0  0  0  0  0  0  0  0  0
   60.1620   28.7680   47.3090 N   0  0  0  0  0  0  0  0  0  0  0  0
   59.5590   27.7410   48.1850 C   0  0  0  0  0  0  0  0  0  0  0  0
   58.8850   26.6800   47.3250 C   0  0  0  0  0  0  0  0  0  0  0  0
   59.4690   30.0800   47.3610 C   0  0  0  0  0  0  0  0  0  0  0  0
   59.6550   30.8470   48.6940 C   0  0  0  0  0  0  0  0  0  0  0  0
   58.6560   31.9400   48.8300 N   0  0  0  0  0  0  0  0  0  0  0  0
   59.0480   33.0860   47.9700 C   0  0  0  0  0  0  0  0  0  0  0  0
   60.5400   33.3240   47.9560 C   0  0  0  0  0  0  0  0  0  0  0  0
   61.2670   33.2400   46.7540 C   0  0  0  0  0  0  0  0  0  0  0  0
   62.6470   33.4710   46.7490 C   0  0  0  0  0  0  0  0  0  0  0  0
   63.3150   33.7520   47.9450 C   0  0  0  0  0  0  0  0  0  0  0  0
   62.6060   33.8030   49.1500 C   0  0  0  0  0  0  0  0  0  0  0  0
   63.4520   34.1280   50.6540 Cl  0  0  0  0  0  0  0  0  0  0  0  0
   61.2230   33.5830   49.1590 C   0  0  0  0  0  0  0  0  0  0  0  0
   58.5270   32.3380   50.2580 C   0  0  0  0  0  0  0  0  0  0  0  0
   59.1000   31.2880   51.1810 C   0  0  0  0  0  0  0  0  0  0  0  0
   60.4440   31.3910   51.5800 C   0  0  0  0  0  0  0  0  0  0  0  0
   61.0070   30.4360   52.4290 C   0  0  0  0  0  0  0  0  0  0  0  0
   60.2310   29.3780   52.9020 C   0  0  0  0  0  0  0  0  0  0  0  0
   58.8870   29.2730   52.5360 C   0  0  0  0  0  0  0  0  0  0  0  0
   58.3050   30.2250   51.6760 C   0  0  0  0  0  0  0  0  0  0  0  0
   56.9540   30.1420   51.2950 O   0  0  0  0  0  0  0  0  0  0  0  0
   55.8740   30.7760   51.9720 C   0  0  0  0  0  0  0  0  0  0  0  0
   57.4710   31.6554   45.5114 H   0  0  0  0  0  0  0  0  0  0  0  0
   58.4158   32.9677   44.7292 H   0  0  0  0  0  0  0  0  0  0  0  0
   56.6206   33.0308   44.7292 H   0  0  0  0  0  0  0  0  0  0  0  0
   57.2103   32.2913   42.5373 H   0  0  0  0  0  0  0  0  0  0  0  0
   58.4622   31.1591   43.1788 H   0  0  0  0  0  0  0  0  0  0  0  0
   57.8406   29.7160   45.9909 H   0  0  0  0  0  0  0  0  0  0  0  0
   57.2319   28.0551   45.5490 H   0  0  0  0  0  0  0  0  0  0  0  0
   58.5260   29.4390   43.3720 H   0  0  0  0  0  0  0  0  0  0  0  0
   59.8390   27.2678   43.4946 H   0  0  0  0  0  0  0  0  0  0  0  0
   58.5120   26.8122   44.6586 H   0  0  0  0  0  0  0  0  0  0  0  0
   58.4841   26.7638   41.7758 H   0  0  0  0  0  0  0  0  0  0  0  0
   57.2062   26.2650   42.9579 H   0  0  0  0  0  0  0  0  0  0  0  0
   56.2760   28.3400   42.9370 H   0  0  0  0  0  0  0  0  0  0  0  0
   57.6330   29.0830   42.2480 H   0  0  0  0  0  0  0  0  0  0  0  0
   60.6976   29.4165   44.0968 H   0  0  0  0  0  0  0  0  0  0  0  0
   59.7243   30.2472   45.3967 H   0  0  0  0  0  0  0  0  0  0  0  0
   59.9649   27.3274   45.7743 H   0  0  0  0  0  0  0  0  0  0  0  0
   61.5427   28.2148   45.8182 H   0  0  0  0  0  0  0  0  0  0  0  0
   60.3439   27.2735   48.7977 H   0  0  0  0  0  0  0  0  0  0  0  0
   58.8135   28.2099   48.8441 H   0  0  0  0  0  0  0  0  0  0  0  0
   58.4087   25.9303   47.9739 H   0  0  0  0  0  0  0  0  0  0  0  0
   58.1216   27.1533   46.6900 H   0  0  0  0  0  0  0  0  0  0  0  0
   59.6378   26.1901   46.6900 H   0  0  0  0  0  0  0  0  0  0  0  0
   59.8577   30.7075   46.5454 H   0  0  0  0  0  0  0  0  0  0  0  0
   58.3931   29.8719   47.2649 H   0  0  0  0  0  0  0  0  0  0  0  0
   59.5344   30.1445   49.5319 H   0  0  0  0  0  0  0  0  0  0  0  0
   60.6610   31.2919   48.7022 H   0  0  0  0  0  0  0  0  0  0  0  0
   58.7147   32.8837   46.9414 H   0  0  0  0  0  0  0  0  0  0  0  0
   58.5726   33.9879   48.3830 H   0  0  0  0  0  0  0  0  0  0  0  0
   60.7490   32.9921   45.8158 H   0  0  0  0  0  0  0  0  0  0  0  0
   63.2071   33.4315   45.8031 H   0  0  0  0  0  0  0  0  0  0  0  0
   64.3999   33.9333   47.9383 H   0  0  0  0  0  0  0  0  0  0  0  0
   60.6690   33.6127   50.1089 H   0  0  0  0  0  0  0  0  0  0  0  0
   59.0658   33.2841   50.4152 H   0  0  0  0  0  0  0  0  0  0  0  0
   57.4575   32.4526   50.4884 H   0  0  0  0  0  0  0  0  0  0  0  0
   61.0571   32.2306   51.2205 H   0  0  0  0  0  0  0  0  0  0  0  0
   62.0632   30.5182   52.7250 H   0  0  0  0  0  0  0  0  0  0  0  0
   60.6789   28.6236   53.5656 H   0  0  0  0  0  0  0  0  0  0  0  0
   58.2790   28.4414   52.9219 H   0  0  0  0  0  0  0  0  0  0  0  0
   56.0212   30.6896   53.0587 H   0  0  0  0  0  0  0  0  0  0  0  0
   55.8379   31.8387   51.6902 H   0  0  0  0  0  0  0  0  0  0  0  0
   54.9285   30.2896   51.6902 H   0  0  0  0  0  0  0  0  0  0  0  0
  1  2  1  0
  2  3  1  0
  3  4  1  0
  4  5  2  0
  4  6  1  0
  6  7  1  0
  7  8  1  0
  8  9  1  0
  9 10  1  0
  7 11  1  0
 11 12  1  0
 12 13  1  0
 13 14  1  0
 14 15  1  0
 13 16  1  0
 16 17  1  0
 17 18  1  0
 18 19  1  0
 19 20  1  0
 20 21  2  0
 21 22  1  0
 22 23  2  0
 23 24  1  0
 24 25  1  0
 24 26  2  0
 18 27  1  0
 27 28  1  0
 28 29  2  0
 29 30  1  0
 30 31  2  0
 31 32  1  0
 32 33  2  0
 33 34  1  0
 34 35  1  0
 26 20  1  0
 33 28  1  0
  1 36  1  0
  1 37  1  0
  1 38  1  0
  2 39  1  0
  2 40  1  0
  6 41  1  0
  6 42  1  0
  7 43  1  6
  8 44  1  0
  8 45  1  0
  9 46  1  0
  9 47  1  0
 10 48  1  0
 10 49  1  0
 11 50  1  0
 11 51  1  0
 12 52  1  0
 12 53  1  0
 14 54  1  0
 14 55  1  0
 15 56  1  0
 15 57  1  0
 15 58  1  0
 16 59  1  0
 16 60  1  0
 17 61  1  0
 17 62  1  0
 19 63  1  0
 19 64  1  0
 21 65  1  0
 22 66  1  0
 23 67  1  0
 26 68  1  0
 27 69  1  0
 27 70  1  0
 29 71  1  0
 30 72  1  0
 31 73  1  0
 32 74  1  0
 35 75  1  0
 35 76  1  0
 35 77  1  0
M  CHG  2   3  -1   7   1
M  END
>  <UniqueID>  (8) 
8

>  <SMILES>  (8) 
CC[N-]C(=O)C[N@H+](CCN)CCN(CC)CCN(Cc1cccc(Cl)c1)Cc1ccccc1OC

>  <Energy>  (8) 
76.97828322754174

>  <Genealogy>  (8) 
CC[N-]C(=O)C[NH+](CCN)CCN(CC)CCN(Cc1cccc(Cl)c1)Cc1ccccc1OC (protonated)
CC[N-]C(=O)C[N@H+](CCN)CCN(CC)CCN(Cc1cccc(Cl)c1)Cc1ccccc1OC (chirality)
CC[N-]C(=O)C[N@H+](CCN)CCN(CC)CCN(Cc1cccc(Cl)c1)Cc1ccccc1OC (3D coordinates assigned)
CC[N-]C(=O)C[N@H+](CCN)CCN(CC)CCN(Cc1cccc(Cl)c1)Cc1ccccc1OC (optimized conformer: 76.97828322754174 kcal/mol)

>  <smiles>  (8) 
CCNC(=O)CN(CCN)CCN(CC)CCN(Cc1cccc(Cl)c1)Cc1ccccc1OC

>  <score_type>  (8) 
oracle

>  <origin>  (8) 
adg

>  <m_score__min__energy>  (8) 
-9.8900000000000006

>  <m_primary>  (8) 
energy

$$$$
8:0
     RDKit          3D

 49 51  0  0  0  0  0  0  0  0999 V2000
   60.7620   27.0970   46.0920 C   0  0  0  0  0  0  0  0  0  0  0  0
   59.4550   27.2290   46.3340 C   0  0  0  0  0  0  0  0  0  0  0  0
   58.7340   26.1910   47.1440 C   0  0  0  0  0  0  0  0  0  0  0  0
   58.7470   28.3970   45.8660 N   0  0  0  0  0  0  0  0  0  0  0  0
   58.0450   28.3390   44.6940 C   0  0  0  0  0  0  0  0  0  0  0  0
   58.0340   27.2640   44.0270 O   0  0  0  0  0  0  0  0  0  0  0  0
   57.3480   29.4290   44.2400 N   0  0  0  0  0  0  0  0  0  0  0  0
   56.6190   29.3560   42.9600 C   0  0  0  0  0  0  0  0  0  0  0  0
   57.3860   30.6110   44.9320 C   0  0  0  0  0  0  0  0  0  0  0  0
   56.7520   31.6070   44.4890 O   0  0  0  0  0  0  0  0  0  0  0  0
   58.1240   30.7120   46.1320 C   0  0  0  0  0  0  0  0  0  0  0  0
   58.2470   31.8960   46.9100 C   0  0  0  0  0  0  0  0  0  0  0  0
   57.5030   33.4720   46.4550 S   0  0  0  0  0  0  0  0  0  0  0  0
   58.8970   34.4640   47.1040 C   0  0  0  0  0  0  0  0  0  0  0  0
   60.1830   34.1760   46.3260 C   0  0  0  0  0  0  0  0  0  0  0  0
   61.3380   33.9000   47.2550 C   0  0  0  0  0  0  0  0  0  0  0  0
   62.5600   33.4280   46.7420 C   0  0  0  0  0  0  0  0  0  0  0  0
   63.6510   33.2290   47.5920 C   0  0  0  0  0  0  0  0  0  0  0  0
   63.5340   33.4990   48.9580 C   0  0  0  0  0  0  0  0  0  0  0  0
   62.3220   33.9680   49.4760 C   0  0  0  0  0  0  0  0  0  0  0  0
   61.2290   34.1700   48.6290 C   0  0  0  0  0  0  0  0  0  0  0  0
   58.9770   31.8740   48.0530 N   0  0  0  0  0  0  0  0  0  0  0  0
   59.6140   30.7530   48.4690 C   0  0  0  0  0  0  0  0  0  0  0  0
   60.3820   30.7570   49.7540 C   0  0  0  0  0  0  0  0  0  0  0  0
   61.8620   30.5060   49.4920 C   0  0  0  0  0  0  0  0  0  0  0  0
   59.5180   29.6150   47.7410 N   0  0  0  0  0  0  0  0  0  0  0  0
   58.7970   29.5600   46.5860 C   0  0  0  0  0  0  0  0  0  0  0  0
   61.2910   27.8572   45.4985 H   0  0  0  0  0  0  0  0  0  0  0  0
   61.3093   26.2281   46.4862 H   0  0  0  0  0  0  0  0  0  0  0  0
   58.8771   26.3971   48.2150 H   0  0  0  0  0  0  0  0  0  0  0  0
   57.6606   26.2200   46.9053 H   0  0  0  0  0  0  0  0  0  0  0  0
   59.1359   25.1953   46.9053 H   0  0  0  0  0  0  0  0  0  0  0  0
   55.5422   29.2482   43.1570 H   0  0  0  0  0  0  0  0  0  0  0  0
   56.7961   30.2764   42.3842 H   0  0  0  0  0  0  0  0  0  0  0  0
   56.9750   28.4890   42.3842 H   0  0  0  0  0  0  0  0  0  0  0  0
   58.6521   35.5324   47.0116 H   0  0  0  0  0  0  0  0  0  0  0  0
   59.0575   34.1956   48.1586 H   0  0  0  0  0  0  0  0  0  0  0  0
   60.0232   33.2979   45.6830 H   0  0  0  0  0  0  0  0  0  0  0  0
   60.4283   35.0624   45.7225 H   0  0  0  0  0  0  0  0  0  0  0  0
   62.6570   33.2147   45.6672 H   0  0  0  0  0  0  0  0  0  0  0  0
   64.6037   32.8591   47.1851 H   0  0  0  0  0  0  0  0  0  0  0  0
   64.3942   33.3429   49.6256 H   0  0  0  0  0  0  0  0  0  0  0  0
   62.2292   34.1781   50.5518 H   0  0  0  0  0  0  0  0  0  0  0  0
   60.2790   34.5421   49.0402 H   0  0  0  0  0  0  0  0  0  0  0  0
   60.2619   31.7342   50.2445 H   0  0  0  0  0  0  0  0  0  0  0  0
   59.9948   29.9571   50.4023 H   0  0  0  0  0  0  0  0  0  0  0  0
   62.3939   30.4158   50.4506 H   0  0  0  0  0  0  0  0  0  0  0  0
   61.9800   29.5750   48.9181 H   0  0  0  0  0  0  0  0  0  0  0  0
   62.2804   31.3460   48.9181 H   0  0  0  0  0  0  0  0  0  0  0  0
  1  2  2  0
  2  3  1  0
  2  4  1  0
  4  5  1  0
  5  6  2  0
  5  7  1  0
  7  8  1  0
  7  9  1  0
  9 10  2  0
  9 11  1  0
 11 12  2  0
 12 13  1  0
 13 14  1  0
 14 15  1  0
 15 16  1  0
 16 17  2  0
 17 18  1  0
 18 19  2  0
 19 20  1  0
 20 21  2  0
 12 22  1  0
 22 23  2  0
 23 24  1  0
 24 25  1  0
 23 26  1  0
 26 27  2  0
 27  4  1  0
 27 11  1  0
 21 16  1  0
  1 28  1  0
  1 29  1  0
  3 30  1  0
  3 31  1  0
  3 32  1  0
  8 33  1  0
  8 34  1  0
  8 35  1  0
 14 36  1  0
 14 37  1  0
 15 38  1  0
 15 39  1  0
 17 40  1  0
 18 41  1  0
 19 42  1  0
 20 43  1  0
 21 44  1  0
 24 45  1  0
 24 46  1  0
 25 47  1  0
 25 48  1  0
 25 49  1  0
M  END
>  <UniqueID>  (9) 
9

>  <SMILES>  (9) 
C=C(C)n1c(=O)n(C)c(=O)c2c(SCCc3ccccc3)nc(CC)nc21

>  <Energy>  (9) 
58.78730334191003

>  <Genealogy>  (9) 
C=C(C)n1c(=O)n(C)c(=O)c2c(SCCc3ccccc3)nc(CC)nc21 (3D coordinates assigned)
C=C(C)n1c(=O)n(C)c(=O)c2c(SCCc3ccccc3)nc(CC)nc21 (optimized conformer: 58.78730334191003 kcal/mol)

>  <smiles>  (9) 
C=C(C)n1c(=O)n(C)c(=O)c2c(SCCc3ccccc3)nc(CC)nc21

>  <score_type>  (9) 
oracle

>  <origin>  (9) 
adg

>  <m_score__min__energy>  (9) 
-7.8899999999999997

>  <m_primary>  (9) 
energy

$$$$
9:0
     RDKit          3D

 49 51  0  0  0  0  0  0  0  0999 V2000
   55.3247   28.6019   44.8667 H   0  0  0  0  0  0  0  0  0  0  0  0
   56.2700   29.1640   44.8460 C   0  0  0  0  0  0  0  0  0  0  0  0
   56.2640   30.4860   44.5280 N   0  0  0  0  0  0  0  0  0  0  0  0
   57.4060   31.2290   44.4930 C   0  0  0  0  0  0  0  0  0  0  0  0
   57.3800   32.4900   44.1720 N   0  0  0  0  0  0  0  0  0  0  0  0
   57.4000   33.5950   45.0900 C   0  0  0  0  0  0  0  0  0  0  0  0
   56.6320   34.5700   44.8730 O   0  0  0  0  0  0  0  0  0  0  0  0
   58.3330   33.6510   46.2410 C   0  0  0  0  0  0  0  0  0  0  0  0
   58.1390   32.8290   47.3670 C   0  0  0  0  0  0  0  0  0  0  0  0
   57.2808   32.1417   47.4009 H   0  0  0  0  0  0  0  0  0  0  0  0
   59.0310   32.8810   48.4430 C   0  0  0  0  0  0  0  0  0  0  0  0
   58.8672   32.2429   49.3239 H   0  0  0  0  0  0  0  0  0  0  0  0
   60.1290   33.7420   48.4000 C   0  0  0  0  0  0  0  0  0  0  0  0
   60.8278   33.7844   49.2485 H   0  0  0  0  0  0  0  0  0  0  0  0
   60.3410   34.5500   47.2800 C   0  0  0  0  0  0  0  0  0  0  0  0
   61.2090   35.2249   47.2460 H   0  0  0  0  0  0  0  0  0  0  0  0
   59.4520   34.5020   46.2030 C   0  0  0  0  0  0  0  0  0  0  0  0
   59.6285   35.1338   45.3200 H   0  0  0  0  0  0  0  0  0  0  0  0
   58.6300   30.6180   44.7750 C   0  0  0  0  0  0  0  0  0  0  0  0
   59.5614   31.2020   44.7363 H   0  0  0  0  0  0  0  0  0  0  0  0
   58.6650   29.2630   45.1060 C   0  0  0  0  0  0  0  0  0  0  0  0
   59.6262   28.7795   45.3350 H   0  0  0  0  0  0  0  0  0  0  0  0
   57.4760   28.5130   45.1480 C   0  0  0  0  0  0  0  0  0  0  0  0
   57.4980   27.0700   45.5000 C   0  0  0  0  0  0  0  0  0  0  0  0
   56.3420   26.4350   45.9860 C   0  0  0  0  0  0  0  0  0  0  0  0
   55.4130   27.0117   46.1060 H   0  0  0  0  0  0  0  0  0  0  0  0
   56.3620   25.0780   46.3180 C   0  0  0  0  0  0  0  0  0  0  0  0
   55.4471   24.5919   46.6877 H   0  0  0  0  0  0  0  0  0  0  0  0
   57.5470   24.3290   46.1820 C   0  0  0  0  0  0  0  0  0  0  0  0
   57.6310   22.9660   46.5070 O   0  0  0  0  0  0  0  0  0  0  0  0
   57.5420   21.8740   45.5880 C   0  0  0  0  0  0  0  0  0  0  0  0
   57.7416   20.9345   46.1242 H   0  0  0  0  0  0  0  0  0  0  0  0
   58.2832   22.0247   44.7894 H   0  0  0  0  0  0  0  0  0  0  0  0
   56.1470   21.8050   44.9560 C   0  0  0  0  0  0  0  0  0  0  0  0
   55.5485   22.6568   45.3114 H   0  0  0  0  0  0  0  0  0  0  0  0
   55.6763   20.8548   45.2484 H   0  0  0  0  0  0  0  0  0  0  0  0
   56.2310   21.8550   43.4800 N   0  0  0  0  0  0  0  0  0  0  0  0
   56.2940   23.2460   43.0010 C   0  0  0  0  0  0  0  0  0  0  0  0
   56.3249   23.9294   43.8624 H   0  0  0  0  0  0  0  0  0  0  0  0
   57.1993   23.3832   42.3914 H   0  0  0  0  0  0  0  0  0  0  0  0
   55.4048   23.4645   42.3914 H   0  0  0  0  0  0  0  0  0  0  0  0
   57.4090   21.1140   43.0010 C   0  0  0  0  0  0  0  0  0  0  0  0
   57.9882   20.7497   43.8623 H   0  0  0  0  0  0  0  0  0  0  0  0
   57.0814   20.2590   42.3914 H   0  0  0  0  0  0  0  0  0  0  0  0
   58.0378   21.7795   42.3914 H   0  0  0  0  0  0  0  0  0  0  0  0
   58.6930   24.9580   45.6860 C   0  0  0  0  0  0  0  0  0  0  0  0
   59.6194   24.3788   45.5580 H   0  0  0  0  0  0  0  0  0  0  0  0
   58.6740   26.3150   45.3510 C   0  0  0  0  0  0  0  0  0  0  0  0
   59.5863   26.7955   44.9679 H   0  0  0  0  0  0  0  0  0  0  0  0
  1  2  1  0
  2  3  1  0
  3  4  1  0
  4  5  2  0
  5  6  1  0
  6  7  2  0
  6  8  1  0
  8  9  2  0
  9 10  1  0
  9 11  1  0
 11 12  1  0
 11 13  2  0
 13 14  1  0
 13 15  1  0
 15 16  1  0
 15 17  2  0
 17 18  1  0
  4 19  1  0
 19 20  1  0
 19 21  2  0
 21 22  1  0
 21 23  1  0
 23 24  1  0
 24 25  2  0
 25 26  1  0
 25 27  1  0
 27 28  1  0
 27 29  2  0
 29 30  1  0
 30 31  1  0
 31 32  1  0
 31 33  1  0
 31 34  1  0
 34 35  1  0
 34 36  1  0
 34 37  1  0
 37 38  1  0
 38 39  1  0
 38 40  1  0
 38 41  1  0
 37 42  1  0
 42 43  1  0
 42 44  1  0
 42 45  1  0
 29 46  1  0
 46 47  1  0
 46 48  2  0
 48 49  1  0
 23  2  2  0
 48 24  1  0
 17  8  1  0
M  CHG  1   3  -1
M  END
>  <UniqueID>  (10) 
10

>  <SMILES>  (10) 
CN(C)CCOc1ccc(-c2cc/c(=N/C(=O)c3ccccc3)[n-]c2)cc1

>  <Energy>  (10) 
65.16226579034769

>  <Genealogy>  (10) 
CN(C)CCOc1ccc(-c2ccc(=NC(=O)c3ccccc3)[n-]c2)cc1 (protonated)
CN(C)CCOc1ccc(-c2cc/c(=N/C(=O)c3ccccc3)[n-]c2)cc1 (cis-trans isomerization)
CN(C)CCOc1ccc(-c2cc/c(=N/C(=O)c3ccccc3)[n-]c2)cc1 (3D coordinates assigned)
CN(C)CCOc1ccc(-c2cc/c(=N/C(=O)c3ccccc3)[n-]c2)cc1 (optimized conformer: 65.16226579034769 kcal/mol)

>  <smiles>  (10) 
CN(C)CCOc1ccc(-c2ccc(=NC(=O)c3ccccc3)[nH]c2)cc1

>  <score_type>  (10) 
oracle

>  <origin>  (10) 
adg

>  <m_score__min__energy>  (10) 
-9.9100000000000001

>  <m_primary>  (10) 
energy

$$$$
10:0
     RDKit          3D

 36 37  0  0  0  0  0  0  0  0999 V2000
   67.4440   33.6400   51.0070 C   0  0  0  0  0  0  0  0  0  0  0  0
   66.7760   32.3590   50.4710 C   0  0  2  0  0  0  0  0  0  0  0  0
   65.5400   32.7190   49.7490 C   0  0  0  0  0  0  0  0  0  0  0  0
   64.5280   33.0100   49.1620 C   0  0  0  0  0  0  0  0  0  0  0  0
   63.3240   33.3600   48.4590 C   0  0  0  0  0  0  0  0  0  0  0  0
   63.3460   33.4970   47.0510 C   0  0  0  0  0  0  0  0  0  0  0  0
   62.1750   33.8370   46.3490 C   0  0  0  0  0  0  0  0  0  0  0  0
   61.0050   34.0330   47.0850 C   0  0  0  0  0  0  0  0  0  0  0  0
   60.9860   33.9020   48.4500 C   0  0  0  0  0  0  0  0  0  0  0  0
   59.7000   34.1600   48.8760 C   0  0  0  0  0  0  0  0  0  0  0  0
   58.9800   34.4440   47.7210 C   0  0  0  0  0  0  0  0  0  0  0  0
   59.7810   34.3630   46.6300 N   0  0  0  0  0  0  0  0  0  0  0  0
   59.3880   34.6050   45.2460 C   0  0  0  0  0  0  0  0  0  0  0  0
   62.1280   33.5650   49.1740 C   0  0  0  0  0  0  0  0  0  0  0  0
   66.5000   31.3310   51.5170 N   0  0  0  0  0  0  0  0  0  0  0  0
   65.0530   31.1470   51.7400 C   0  0  0  0  0  0  0  0  0  0  0  0
   67.1420   30.0270   51.2490 C   0  0  0  0  0  0  0  0  0  0  0  0
   67.4362   33.6249   52.1069 H   0  0  0  0  0  0  0  0  0  0  0  0
   68.4827   33.6895   50.6484 H   0  0  0  0  0  0  0  0  0  0  0  0
   66.8900   34.5200   50.6484 H   0  0  0  0  0  0  0  0  0  0  0  0
   67.4961   31.8865   49.7867 H   0  0  0  0  0  0  0  0  0  0  0  0
   64.2852   33.3366   46.5013 H   0  0  0  0  0  0  0  0  0  0  0  0
   62.1812   33.9450   45.2543 H   0  0  0  0  0  0  0  0  0  0  0  0
   59.3239   34.1444   49.9096 H   0  0  0  0  0  0  0  0  0  0  0  0
   57.9102   34.6988   47.6958 H   0  0  0  0  0  0  0  0  0  0  0  0
   58.4515   35.1817   45.2262 H   0  0  0  0  0  0  0  0  0  0  0  0
   60.1790   35.1727   44.7341 H   0  0  0  0  0  0  0  0  0  0  0  0
   59.2372   33.6431   44.7341 H   0  0  0  0  0  0  0  0  0  0  0  0
   62.0964   33.4624   50.2687 H   0  0  0  0  0  0  0  0  0  0  0  0
   66.8910   31.6850   52.4230 H   0  0  0  0  0  0  0  0  0  0  0  0
   64.8489   31.1210   52.8206 H   0  0  0  0  0  0  0  0  0  0  0  0
   64.5024   31.9824   51.2828 H   0  0  0  0  0  0  0  0  0  0  0  0
   64.7290   30.2004   51.2828 H   0  0  0  0  0  0  0  0  0  0  0  0
   67.3843   29.5348   52.2024 H   0  0  0  0  0  0  0  0  0  0  0  0
   66.4540   29.3911   50.6726 H   0  0  0  0  0  0  0  0  0  0  0  0
   68.0655   30.1846   50.6726 H   0  0  0  0  0  0  0  0  0  0  0  0
  1  2  1  0
  2  3  1  0
  3  4  3  0
  4  5  1  0
  5  6  2  0
  6  7  1  0
  7  8  2  0
  8  9  1  0
  9 10  1  0
 10 11  2  0
 11 12  1  0
 12 13  1  0
  9 14  2  0
  2 15  1  0
 15 16  1  0
 15 17  1  0
 14  5  1  0
 12  8  1  0
  1 18  1  0
  1 19  1  0
  1 20  1  0
  2 21  1  6
  6 22  1  0
  7 23  1  0
 10 24  1  0
 11 25  1  0
 13 26  1  0
 13 27  1  0
 13 28  1  0
 14 29  1  0
 15 30  1  0
 16 31  1  0
 16 32  1  0
 16 33  1  0
 17 34  1  0
 17 35  1  0
 17 36  1  0
M  CHG  1  15   1
M  END
>  <UniqueID>  (11) 
11

>  <SMILES>  (11) 
C[C@H](C#Cc1ccc2c(ccn2C)c1)[NH+](C)C

>  <Energy>  (11) 
66.88919909236135

>  <Genealogy>  (11) 
CC(C#Cc1ccc2c(ccn2C)c1)[NH+](C)C (protonated)
C[C@H](C#Cc1ccc2c(ccn2C)c1)[NH+](C)C (chirality)
C[C@H](C#Cc1ccc2c(ccn2C)c1)[NH+](C)C (3D coordinates assigned)
C[C@H](C#Cc1ccc2c(ccn2C)c1)[NH+](C)C (optimized conformer: 66.88919909236135 kcal/mol)

>  <smiles>  (11) 
CC(C#Cc1ccc2c(ccn2C)c1)N(C)C

>  <score_type>  (11) 
oracle

>  <origin>  (11) 
adg

>  <m_score__min__energy>  (11) 
-4.1500000000000004

>  <m_primary>  (11) 
energy

$$$$
11:0
     RDKit          3D

 44 47  0  0  0  0  0  0  0  0999 V2000
   64.6010   33.3970   49.5780 C   0  0  0  0  0  0  0  0  0  0  0  0
   63.3220   33.4490   48.7960 C   0  0  0  0  0  0  0  0  0  0  0  0
   63.2630   32.9120   47.5000 C   0  0  0  0  0  0  0  0  0  0  0  0
   62.0840   33.0020   46.7550 C   0  0  0  0  0  0  0  0  0  0  0  0
   60.9570   33.6380   47.2900 C   0  0  0  0  0  0  0  0  0  0  0  0
   59.5000   33.7810   46.3150 S   0  0  0  0  0  0  0  0  0  0  0  0
   59.8170   34.3540   44.9620 O   0  0  0  0  0  0  0  0  0  0  0  0
   58.5430   34.7040   47.0130 O   0  0  0  0  0  0  0  0  0  0  0  0
   58.8110   32.1940   46.1130 N   0  0  0  0  0  0  0  0  0  0  0  0
   58.8150   31.1590   46.9930 C   0  0  0  0  0  0  0  0  0  0  0  0
   58.2940   30.0230   46.4060 C   0  0  0  0  0  0  0  0  0  0  0  0
   57.9170   30.3830   45.1320 C   0  0  0  0  0  0  0  0  0  0  0  0
   57.3260   29.6480   44.1070 C   0  0  0  0  0  0  0  0  0  0  0  0
   57.0840   30.3000   42.8860 C   0  0  0  0  0  0  0  0  0  0  0  0
   57.4460   31.6590   42.7080 C   0  0  0  0  0  0  0  0  0  0  0  0
   57.1580   32.3530   41.4120 C   0  0  0  0  0  0  0  0  0  0  0  0
   58.0290   32.3780   43.7750 C   0  0  0  0  0  0  0  0  0  0  0  0
   58.2540   31.7080   44.9810 C   0  0  0  0  0  0  0  0  0  0  0  0
   58.1600   28.7120   47.1200 C   0  0  0  0  0  0  0  0  0  0  0  0
   59.0770   28.6570   48.2750 N   0  0  0  0  0  0  0  0  0  0  0  0
   58.9600   29.8610   49.1230 C   0  0  0  0  0  0  0  0  0  0  0  0
   59.3940   31.1430   48.3780 C   0  0  0  0  0  0  0  0  0  0  0  0
   61.0180   34.1890   48.5780 C   0  0  0  0  0  0  0  0  0  0  0  0
   62.1960   34.0990   49.3240 C   0  0  0  0  0  0  0  0  0  0  0  0
   64.3734   33.4063   50.6542 H   0  0  0  0  0  0  0  0  0  0  0  0
   65.1473   32.4759   49.3266 H   0  0  0  0  0  0  0  0  0  0  0  0
   65.2202   34.2707   49.3266 H   0  0  0  0  0  0  0  0  0  0  0  0
   64.1473   32.4191   47.0698 H   0  0  0  0  0  0  0  0  0  0  0  0
   62.0411   32.5713   45.7437 H   0  0  0  0  0  0  0  0  0  0  0  0
   57.0573   28.5908   44.2488 H   0  0  0  0  0  0  0  0  0  0  0  0
   56.6089   29.7504   42.0600 H   0  0  0  0  0  0  0  0  0  0  0  0
   56.7436   33.3515   41.6150 H   0  0  0  0  0  0  0  0  0  0  0  0
   58.0890   32.4528   40.8347 H   0  0  0  0  0  0  0  0  0  0  0  0
   56.4299   31.7643   40.8347 H   0  0  0  0  0  0  0  0  0  0  0  0
   58.2990   33.4381   43.6598 H   0  0  0  0  0  0  0  0  0  0  0  0
   57.1248   28.5965   47.4737 H   0  0  0  0  0  0  0  0  0  0  0  0
   58.4154   27.8997   46.4237 H   0  0  0  0  0  0  0  0  0  0  0  0
   60.0610   28.5900   47.9220 H   0  0  0  0  0  0  0  0  0  0  0  0
   57.9120   29.9719   49.4383 H   0  0  0  0  0  0  0  0  0  0  0  0
   59.6264   29.7310   49.9884 H   0  0  0  0  0  0  0  0  0  0  0  0
   59.0363   32.0237   48.9316 H   0  0  0  0  0  0  0  0  0  0  0  0
   60.4916   31.1635   48.3084 H   0  0  0  0  0  0  0  0  0  0  0  0
   60.1369   34.6930   49.0018 H   0  0  0  0  0  0  0  0  0  0  0  0
   62.2410   34.5401   50.3307 H   0  0  0  0  0  0  0  0  0  0  0  0
  1  2  1  0
  2  3  2  0
  3  4  1  0
  4  5  2  0
  5  6  1  0
  6  7  2  0
  6  8  2  0
  6  9  1  0
  9 10  1  0
 10 11  2  0
 11 12  1  0
 12 13  2  0
 13 14  1  0
 14 15  2  0
 15 16  1  0
 15 17  1  0
 17 18  2  0
 11 19  1  0
 19 20  1  0
 20 21  1  0
 21 22  1  0
  5 23  1  0
 23 24  2  0
 24  2  1  0
 18  9  1  0
 22 10  1  0
 18 12  1  0
  1 25  1  0
  1 26  1  0
  1 27  1  0
  3 28  1  0
  4 29  1  0
 13 30  1  0
 14 31  1  0
 16 32  1  0
 16 33  1  0
 16 34  1  0
 17 35  1  0
 19 36  1  0
 19 37  1  0
 20 38  1  0
 21 39  1  0
 21 40  1  0
 22 41  1  0
 22 42  1  0
 23 43  1  0
 24 44  1  0
M  END
>  <UniqueID>  (12) 
12

>  <SMILES>  (12) 
Cc1ccc(S(=O)(=O)n2c3c(c4ccc(C)cc42)CNCC3)cc1

>  <Energy>  (12) 
85.47473593508707

>  <Genealogy>  (12) 
Cc1ccc(S(=O)(=O)n2c3c(c4ccc(C)cc42)CNCC3)cc1 (3D coordinates assigned)
Cc1ccc(S(=O)(=O)n2c3c(c4ccc(C)cc42)CNCC3)cc1 (nonaromatic ring conformer: 85.47473593508707 kcal/mol)

>  <smiles>  (12) 
Cc1ccc(S(=O)(=O)n2c3c(c4ccc(C)cc42)CNCC3)cc1

>  <score_type>  (12) 
oracle

>  <origin>  (12) 
adg

>  <m_score__min__energy>  (12) 
-8.6400000000000006

>  <m_primary>  (12) 
energy

$$$$
12:0
     RDKit          3D

 38 38  0  0  0  0  0  0  0  0999 V2000
   58.7090   25.4951   47.3482 H   0  0  0  0  0  0  0  0  0  0  0  0
   57.8930   26.0610   46.8750 C   0  0  0  0  0  0  0  0  0  0  0  0
   58.0740   27.3150   46.5920 N   0  0  0  0  0  0  0  0  0  0  0  0
   59.2200   27.8080   45.8340 C   0  0  0  0  0  0  0  0  0  0  0  0
   59.7684   26.9503   45.4172 H   0  0  0  0  0  0  0  0  0  0  0  0
   59.8596   28.3889   46.5148 H   0  0  0  0  0  0  0  0  0  0  0  0
   58.7810   28.7290   44.6810 C   0  0  0  0  0  0  0  0  0  0  0  0
   59.5996   28.7881   43.9486 H   0  0  0  0  0  0  0  0  0  0  0  0
   58.5472   29.7118   45.1161 H   0  0  0  0  0  0  0  0  0  0  0  0
   57.5520   28.2460   43.9830 N   0  0  0  0  0  0  0  0  0  0  0  0
   56.9530   27.7200   44.6630 H   0  0  0  0  0  0  0  0  0  0  0  0
   56.7570   29.3910   43.4640 C   0  0  0  0  0  0  0  0  0  0  0  0
   55.7192   29.0608   43.3096 H   0  0  0  0  0  0  0  0  0  0  0  0
   57.2162   29.7213   42.5206 H   0  0  0  0  0  0  0  0  0  0  0  0
   56.7580   30.5820   44.4310 C   0  0  0  0  0  0  0  0  0  0  0  0
   56.7577   30.2130   45.4672 H   0  0  0  0  0  0  0  0  0  0  0  0
   57.6567   31.1928   44.2596 H   0  0  0  0  0  0  0  0  0  0  0  0
   55.8604   31.1943   44.2596 H   0  0  0  0  0  0  0  0  0  0  0  0
   57.9160   27.3300   42.8670 C   0  0  0  0  0  0  0  0  0  0  0  0
   57.2594   27.5393   42.0096 H   0  0  0  0  0  0  0  0  0  0  0  0
   58.9726   27.5077   42.6180 H   0  0  0  0  0  0  0  0  0  0  0  0
   57.7680   25.8520   43.2520 C   0  0  0  0  0  0  0  0  0  0  0  0
   57.7586   25.7577   44.3479 H   0  0  0  0  0  0  0  0  0  0  0  0
   56.8260   25.4589   42.8420 H   0  0  0  0  0  0  0  0  0  0  0  0
   58.6133   25.2799   42.8420 H   0  0  0  0  0  0  0  0  0  0  0  0
   56.6120   25.3710   46.5760 C   0  0  0  0  0  0  0  0  0  0  0  0
   55.5120   26.0330   45.9840 C   0  0  0  0  0  0  0  0  0  0  0  0
   55.5820   27.3780   45.6390 O   0  0  0  0  0  0  0  0  0  0  0  0
   54.3810   25.3760   45.7440 O   0  0  0  0  0  0  0  0  0  0  0  0
   54.2130   24.0910   46.0370 C   0  0  0  0  0  0  0  0  0  0  0  0
   52.9080   23.4290   45.7330 C   0  0  0  0  0  0  0  0  0  0  0  0
   52.3997   23.1712   46.6738 H   0  0  0  0  0  0  0  0  0  0  0  0
   52.2756   24.1153   45.1507 H   0  0  0  0  0  0  0  0  0  0  0  0
   53.0882   22.5133   45.1507 H   0  0  0  0  0  0  0  0  0  0  0  0
   55.2520   23.3650   46.6240 C   0  0  0  0  0  0  0  0  0  0  0  0
   55.1204   22.3005   46.8681 H   0  0  0  0  0  0  0  0  0  0  0  0
   56.4580   24.0090   46.8960 C   0  0  0  0  0  0  0  0  0  0  0  0
   57.3970   23.3580   47.4300 O   0  0  0  0  0  0  0  0  0  0  0  0
  1  2  1  0
  2  3  2  0
  3  4  1  0
  4  5  1  0
  4  6  1  0
  4  7  1  0
  7  8  1  0
  7  9  1  0
  7 10  1  0
 10 11  1  0
 10 12  1  0
 12 13  1  0
 12 14  1  0
 12 15  1  0
 15 16  1  0
 15 17  1  0
 15 18  1  0
 10 19  1  0
 19 20  1  0
 19 21  1  0
 19 22  1  0
 22 23  1  0
 22 24  1  0
 22 25  1  0
  2 26  1  0
 26 27  2  0
 27 28  1  0
 27 29  1  0
 29 30  1  0
 30 31  1  0
 31 32  1  0
 31 33  1  0
 31 34  1  0
 30 35  2  0
 35 36  1  0
 35 37  1  0
 37 38  2  0
 37 26  1  0
M  CHG  2  10   1  28  -1
M  END
>  <UniqueID>  (13) 
13

>  <SMILES>  (13) 
CC[NH+](CC)CC/N=C/c1c([O-])oc(C)cc1=O

>  <Energy>  (13) 
38.915111928157536

>  <Genealogy>  (13) 
CC[NH+](CC)CCN=Cc1c([O-])oc(C)cc1=O (protonated)
CC[NH+](CC)CC/N=C/c1c([O-])oc(C)cc1=O (cis-trans isomerization)
CC[NH+](CC)CC/N=C/c1c([O-])oc(C)cc1=O (3D coordinates assigned)
CC[NH+](CC)CC/N=C/c1c([O-])oc(C)cc1=O (optimized conformer: 38.915111928157536 kcal/mol)

>  <smiles>  (13) 
CCN(CC)CCN=Cc1c(O)oc(C)cc1=O

>  <score_type>  (13) 
oracle

>  <origin>  (13) 
adg

>  <m_score__min__energy>  (13) 
-6.0999999999999996

>  <m_primary>  (13) 
energy

$$$$
13:0
     RDKit          3D

 45 48  0  0  0  0  0  0  0  0999 V2000
   57.8060   33.2410   44.4860 C   0  0  0  0  0  0  0  0  0  0  0  0
   57.4040   32.3140   45.6330 C   0  0  0  0  0  0  0  0  0  0  0  0
   57.3890   30.8940   45.2100 N   0  0  0  0  0  0  0  0  0  0  0  0
   57.1980   30.7760   43.7450 C   0  0  0  0  0  0  0  0  0  0  0  0
   55.9050   30.0370   43.4010 C   0  0  0  0  0  0  0  0  0  0  0  0
   58.5420   30.1060   45.7250 C   0  0  0  0  0  0  0  0  0  0  0  0
   58.2110   28.6750   46.1000 C   0  0  0  0  0  0  0  0  0  0  0  0
   59.1790   27.8610   46.7480 C   0  0  0  0  0  0  0  0  0  0  0  0
   58.8860   26.5260   47.0870 C   0  0  0  0  0  0  0  0  0  0  0  0
   57.6280   26.0360   46.7530 C   0  0  0  0  0  0  0  0  0  0  0  0
   57.1400   24.8090   46.9770 N   0  0  0  0  0  0  0  0  0  0  0  0
   55.8920   24.8800   46.4420 C   0  0  0  0  0  0  0  0  0  0  0  0
   54.9260   23.7650   46.4610 C   0  0  0  0  0  0  0  0  0  0  0  0
   55.2520   22.2790   47.2140 S   0  0  0  0  0  0  0  0  0  0  0  0
   53.7970   21.5600   46.7960 C   0  0  0  0  0  0  0  0  0  0  0  0
   53.3340   20.2820   47.0850 C   0  0  0  0  0  0  0  0  0  0  0  0
   52.0620   19.9260   46.6160 C   0  0  0  0  0  0  0  0  0  0  0  0
   51.3030   20.8580   45.8810 C   0  0  0  0  0  0  0  0  0  0  0  0
   51.7990   22.1040   45.6210 N   0  0  0  0  0  0  0  0  0  0  0  0
   53.0340   22.4540   46.0700 C   0  0  0  0  0  0  0  0  0  0  0  0
   53.6470   23.6990   45.8740 C   0  0  0  0  0  0  0  0  0  0  0  0
   52.9990   24.7740   45.1820 N   0  0  0  0  0  0  0  0  0  0  0  0
   55.5840   26.0920   45.9080 N   0  0  0  0  0  0  0  0  0  0  0  0
   56.7030   26.8010   46.1180 C   0  0  0  0  0  0  0  0  0  0  0  0
   56.9520   28.1230   45.7650 C   0  0  0  0  0  0  0  0  0  0  0  0
   58.2120   34.1773   44.8964 H   0  0  0  0  0  0  0  0  0  0  0  0
   58.5716   32.7491   43.8681 H   0  0  0  0  0  0  0  0  0  0  0  0
   56.9236   33.4637   43.8681 H   0  0  0  0  0  0  0  0  0  0  0  0
   58.1234   32.4331   46.4566 H   0  0  0  0  0  0  0  0  0  0  0  0
   56.3881   32.5869   45.9547 H   0  0  0  0  0  0  0  0  0  0  0  0
   57.1590   31.7848   43.3082 H   0  0  0  0  0  0  0  0  0  0  0  0
   58.0411   30.2010   43.3346 H   0  0  0  0  0  0  0  0  0  0  0  0
   55.3922   29.7439   44.3290 H   0  0  0  0  0  0  0  0  0  0  0  0
   55.2505   30.6974   42.8132 H   0  0  0  0  0  0  0  0  0  0  0  0
   56.1418   29.1379   42.8132 H   0  0  0  0  0  0  0  0  0  0  0  0
   59.3189   30.0858   44.9465 H   0  0  0  0  0  0  0  0  0  0  0  0
   58.8708   30.6026   46.6498 H   0  0  0  0  0  0  0  0  0  0  0  0
   60.1682   28.2784   46.9874 H   0  0  0  0  0  0  0  0  0  0  0  0
   59.6262   25.8929   47.5981 H   0  0  0  0  0  0  0  0  0  0  0  0
   53.9455   19.5732   47.6627 H   0  0  0  0  0  0  0  0  0  0  0  0
   51.6582   18.9235   46.8209 H   0  0  0  0  0  0  0  0  0  0  0  0
   50.3039   20.5804   45.5139 H   0  0  0  0  0  0  0  0  0  0  0  0
   53.4950   25.6810   45.0400 H   0  0  0  0  0  0  0  0  0  0  0  0
   52.0610   24.6700   44.7440 H   0  0  0  0  0  0  0  0  0  0  0  0
   56.1926   28.7218   45.2408 H   0  0  0  0  0  0  0  0  0  0  0  0
  1  2  1  0
  2  3  1  0
  3  4  1  0
  4  5  1  0
  3  6  1  0
  6  7  1  0
  7  8  2  0
  8  9  1  0
  9 10  2  0
 10 11  1  0
 11 12  1  0
 12 13  1  0
 13 14  1  0
 14 15  1  0
 15 16  2  0
 16 17  1  0
 17 18  2  0
 18 19  1  0
 19 20  2  0
 20 21  1  0
 21 22  1  0
 12 23  2  0
 23 24  1  0
 24 25  2  0
 25  7  1  0
 24 10  1  0
 21 13  2  0
 20 15  1  0
  1 26  1  0
  1 27  1  0
  1 28  1  0
  2 29  1  0
  2 30  1  0
  4 31  1  0
  4 32  1  0
  5 33  1  0
  5 34  1  0
  5 35  1  0
  6 36  1  0
  6 37  1  0
  8 38  1  0
  9 39  1  0
 16 40  1  0
 17 41  1  0
 18 42  1  0
 22 43  1  0
 22 44  1  0
 25 45  1  0
M  CHG  1  11  -1
M  END
>  <UniqueID>  (14) 
14

>  <SMILES>  (14) 
CCN(CC)Cc1ccc2[n-]c(-c3sc4cccnc4c3N)nc2c1

>  <Energy>  (14) 
119.71951336357722

>  <Genealogy>  (14) 
CCN(CC)Cc1ccc2[n-]c(-c3sc4cccnc4c3N)nc2c1 (protonated)
CCN(CC)Cc1ccc2[n-]c(-c3sc4cccnc4c3N)nc2c1 (3D coordinates assigned)
CCN(CC)Cc1ccc2[n-]c(-c3sc4cccnc4c3N)nc2c1 (optimized conformer: 119.71951336357722 kcal/mol)

>  <smiles>  (14) 
CCN(CC)Cc1ccc2[nH]c(-c3sc4cccnc4c3N)nc2c1

>  <score_type>  (14) 
oracle

>  <origin>  (14) 
adg

>  <m_score__min__energy>  (14) 
-9.2699999999999996

>  <m_primary>  (14) 
energy

$$$$
14:0
     RDKit          3D

 34 34  0  0  0  0  0  0  0  0999 V2000
   60.9470   33.7904   48.9573 H   0  0  0  0  0  0  0  0  0  0  0  0
   60.6860   33.0800   48.1590 C   0  0  0  0  0  0  0  0  0  0  0  0
   61.3220   31.8960   48.1410 C   0  0  0  0  0  0  0  0  0  0  0  0
   60.8100   30.5440   49.1520 Cl  0  0  0  0  0  0  0  0  0  0  0  0
   62.5860   31.7290   47.3300 C   0  0  0  0  0  0  0  0  0  0  0  0
   62.4486   32.2199   46.3552 H   0  0  0  0  0  0  0  0  0  0  0  0
   62.7719   30.6511   47.2135 H   0  0  0  0  0  0  0  0  0  0  0  0
   63.7690   32.3250   48.0030 N   0  0  0  0  0  0  0  0  0  0  0  0
   64.6220   31.9560   47.5180 H   0  0  0  0  0  0  0  0  0  0  0  0
   63.7980   31.9770   49.4580 C   0  0  0  0  0  0  0  0  0  0  0  0
   63.6250   30.8963   49.5687 H   0  0  0  0  0  0  0  0  0  0  0  0
   63.0125   32.5581   49.9633 H   0  0  0  0  0  0  0  0  0  0  0  0
   65.1400   32.3320   50.1030 C   0  0  0  0  0  0  0  0  0  0  0  0
   65.0390   32.3053   51.1980 H   0  0  0  0  0  0  0  0  0  0  0  0
   65.9024   31.6046   49.7872 H   0  0  0  0  0  0  0  0  0  0  0  0
   65.4430   33.3412   49.7872 H   0  0  0  0  0  0  0  0  0  0  0  0
   63.7570   33.7980   47.8050 C   0  0  0  0  0  0  0  0  0  0  0  0
   63.0267   34.2428   48.4970 H   0  0  0  0  0  0  0  0  0  0  0  0
   64.7723   34.1738   47.9997 H   0  0  0  0  0  0  0  0  0  0  0  0
   63.3780   34.1850   46.3710 C   0  0  0  0  0  0  0  0  0  0  0  0
   62.6085   34.9707   46.3945 H   0  0  0  0  0  0  0  0  0  0  0  0
   64.2684   34.5594   45.8447 H   0  0  0  0  0  0  0  0  0  0  0  0
   62.9851   33.3026   45.8447 H   0  0  0  0  0  0  0  0  0  0  0  0
   59.6590   33.4920   47.1780 C   0  0  0  0  0  0  0  0  0  0  0  0
   60.0440   34.2600   46.0680 C   0  0  0  0  0  0  0  0  0  0  0  0
   61.0929   34.5717   45.9557 H   0  0  0  0  0  0  0  0  0  0  0  0
   59.1010   34.6310   45.1040 C   0  0  0  0  0  0  0  0  0  0  0  0
   59.4059   35.2466   44.2449 H   0  0  0  0  0  0  0  0  0  0  0  0
   57.7720   34.2200   45.2320 C   0  0  0  0  0  0  0  0  0  0  0  0
   57.0294   34.5184   44.4773 H   0  0  0  0  0  0  0  0  0  0  0  0
   57.3850   33.4300   46.3180 C   0  0  0  0  0  0  0  0  0  0  0  0
   56.3398   33.1005   46.4132 H   0  0  0  0  0  0  0  0  0  0  0  0
   58.3260   33.0580   47.2840 C   0  0  0  0  0  0  0  0  0  0  0  0
   58.0218   32.4236   48.1296 H   0  0  0  0  0  0  0  0  0  0  0  0
  1  2  1  0
  2  3  2  0
  3  4  1  0
  3  5  1  0
  5  6  1  0
  5  7  1  0
  5  8  1  0
  8  9  1  0
  8 10  1  0
 10 11  1  0
 10 12  1  0
 10 13  1  0
 13 14  1  0
 13 15  1  0
 13 16  1  0
  8 17  1  0
 17 18  1  0
 17 19  1  0
 17 20  1  0
 20 21  1  0
 20 22  1  0
 20 23  1  0
  2 24  1  0
 24 25  2  0
 25 26  1  0
 25 27  1  0
 27 28  1  0
 27 29  2  0
 29 30  1  0
 29 31  1  0
 31 32  1  0
 31 33  2  0
 33 34  1  0
 33 24  1  0
M  CHG  1   8   1
M  END
>  <UniqueID>  (15) 
15

>  <SMILES>  (15) 
CC[NH+](CC)C/C(Cl)=C/c1ccccc1

>  <Energy>  (15) 
38.13488674137596

>  <Genealogy>  (15) 
CC[NH+](CC)CC(Cl)=Cc1ccccc1 (protonated)
CC[NH+](CC)C/C(Cl)=C/c1ccccc1 (cis-trans isomerization)
CC[NH+](CC)C/C(Cl)=C/c1ccccc1 (3D coordinates assigned)
CC[NH+](CC)C/C(Cl)=C/c1ccccc1 (optimized conformer: 38.13488674137596 kcal/mol)

>  <smiles>  (15) 
CCN(CC)CC(Cl)=Cc1ccccc1

>  <score_type>  (15) 
oracle

>  <origin>  (15) 
adg

>  <m_score__min__energy>  (15) 
-4.6200000000000001

>  <m_primary>  (15) 
energy

$$$$
15:0
     RDKit          3D

 36 38  0  0  0  0  0  0  0  0999 V2000
   56.8890   27.5940   45.5590 C   0  0  0  0  0  0  0  0  0  0  0  0
   56.1030   28.5960   44.9230 O   0  0  0  0  0  0  0  0  0  0  0  0
   56.6240   29.7640   44.3450 C   0  0  0  0  0  0  0  0  0  0  0  0
   56.5220   30.0320   42.9670 C   0  0  0  0  0  0  0  0  0  0  0  0
   57.0570   31.2090   42.4400 C   0  0  0  0  0  0  0  0  0  0  0  0
   57.6970   32.1270   43.2740 C   0  0  0  0  0  0  0  0  0  0  0  0
   57.8110   31.8790   44.6550 C   0  0  0  0  0  0  0  0  0  0  0  0
   58.4900   32.8520   45.5450 C   0  0  0  0  0  0  0  0  0  0  0  0
   59.0380   33.9880   45.0330 N   0  0  0  0  0  0  0  0  0  0  0  0
   59.6580   34.8910   45.8340 C   0  0  0  0  0  0  0  0  0  0  0  0
   59.7460   34.6640   47.2050 C   0  0  0  0  0  0  0  0  0  0  0  0
   59.1890   33.4870   47.7310 C   0  0  0  0  0  0  0  0  0  0  0  0
   59.2370   33.1770   49.1820 C   0  0  0  0  0  0  0  0  0  0  0  0
   60.2390   33.7510   49.9850 C   0  0  0  0  0  0  0  0  0  0  0  0
   60.2970   33.4750   51.3510 C   0  0  0  0  0  0  0  0  0  0  0  0
   59.3530   32.6320   51.9400 C   0  0  0  0  0  0  0  0  0  0  0  0
   58.3320   32.0560   51.1650 C   0  0  0  0  0  0  0  0  0  0  0  0
   57.3490   31.1950   51.7710 N   0  0  0  0  0  0  0  0  0  0  0  0
   56.4320   31.6710   52.4730 O   0  0  0  0  0  0  0  0  0  0  0  0
   57.4060   29.8320   51.5900 O   0  0  0  0  0  0  0  0  0  0  0  0
   58.2790   32.3370   49.7870 C   0  0  0  0  0  0  0  0  0  0  0  0
   58.5720   32.6190   46.8840 N   0  0  0  0  0  0  0  0  0  0  0  0
   57.2680   30.6880   45.1770 C   0  0  0  0  0  0  0  0  0  0  0  0
   56.8055   27.7005   46.6506 H   0  0  0  0  0  0  0  0  0  0  0  0
   56.5278   26.5993   45.2589 H   0  0  0  0  0  0  0  0  0  0  0  0
   57.9411   27.7079   45.2589 H   0  0  0  0  0  0  0  0  0  0  0  0
   56.0196   29.3125   42.3038 H   0  0  0  0  0  0  0  0  0  0  0  0
   56.9737   31.4138   41.3624 H   0  0  0  0  0  0  0  0  0  0  0  0
   58.1155   33.0513   42.8490 H   0  0  0  0  0  0  0  0  0  0  0  0
   60.0918   35.8038   45.3996 H   0  0  0  0  0  0  0  0  0  0  0  0
   60.2421   35.3924   47.8632 H   0  0  0  0  0  0  0  0  0  0  0  0
   60.9829   34.4230   49.5321 H   0  0  0  0  0  0  0  0  0  0  0  0
   61.0903   33.9237   51.9670 H   0  0  0  0  0  0  0  0  0  0  0  0
   59.4087   32.4173   53.0174 H   0  0  0  0  0  0  0  0  0  0  0  0
   57.4797   31.8956   49.1735 H   0  0  0  0  0  0  0  0  0  0  0  0
   57.3513   30.4811   46.2541 H   0  0  0  0  0  0  0  0  0  0  0  0
  1  2  1  0
  2  3  1  0
  3  4  2  0
  4  5  1  0
  5  6  2  0
  6  7  1  0
  7  8  1  0
  8  9  2  0
  9 10  1  0
 10 11  2  0
 11 12  1  0
 12 13  1  0
 13 14  2  0
 14 15  1  0
 15 16  2  0
 16 17  1  0
 17 18  1  0
 18 19  2  0
 18 20  1  0
 17 21  2  0
 12 22  2  0
  7 23  2  0
 23  3  1  0
 22  8  1  0
 21 13  1  0
  1 24  1  0
  1 25  1  0
  1 26  1  0
  4 27  1  0
  5 28  1  0
  6 29  1  0
 10 30  1  0
 11 31  1  0
 14 32  1  0
 15 33  1  0
 16 34  1  0
 21 35  1  0
 23 36  1  0
M  CHG  2  18   1  20  -1
M  END
>  <UniqueID>  (16) 
16

>  <SMILES>  (16) 
COc1cccc(-c2nccc(-c3cccc([N+](=O)[O-])c3)n2)c1

>  <Energy>  (16) 
45.703265465942636

>  <Genealogy>  (16) 
COc1cccc(-c2nccc(-c3cccc([N+](=O)[O-])c3)n2)c1 (3D coordinates assigned)
COc1cccc(-c2nccc(-c3cccc([N+](=O)[O-])c3)n2)c1 (optimized conformer: 45.703265465942636 kcal/mol)

>  <smiles>  (16) 
COc1cccc(-c2nccc(-c3cccc([N+](=O)[O-])c3)n2)c1

>  <score_type>  (16) 
oracle

>  <origin>  (16) 
adg

>  <m_score__min__energy>  (16) 
-8.2599999999999998

>  <m_primary>  (16) 
energy

$$$$
16:0
     RDKit          3D

 63 68  0  0  1  0  0  0  0  0999 V2000
   59.7100   28.1500   48.7180 O   0  0  0  0  0  0  0  0  0  0  0  0
   60.7420   28.9870   49.1230 C   0  0  0  0  0  0  0  0  0  0  0  0
   60.2100   30.2250   49.8110 C   0  0  0  0  0  0  0  0  0  0  0  0
   58.9200   30.6160   49.3230 N   0  0  0  0  0  0  0  0  0  0  0  0
   58.6530   31.0800   48.1540 C   0  0  0  0  0  0  0  0  0  0  0  0
   58.4990   32.4010   48.0200 N   0  0  0  0  0  0  0  0  0  0  0  0
   58.2220   32.8810   46.8000 C   0  0  0  0  0  0  0  0  0  0  0  0
   58.0570   34.1280   46.5750 N   0  0  0  0  0  0  0  0  0  0  0  0
   59.2050   34.9660   46.3240 C   0  0  0  0  0  0  0  0  0  0  0  0
   60.3810   34.4140   47.0500 C   0  0  0  0  0  0  0  0  0  0  0  0
   60.4150   34.5750   48.4240 C   0  0  0  0  0  0  0  0  0  0  0  0
   61.4860   34.0800   49.1430 C   0  0  0  0  0  0  0  0  0  0  0  0
   62.4940   33.4360   48.4620 C   0  0  0  0  0  0  0  0  0  0  0  0
   63.6440   32.9030   49.2320 C   0  0  0  0  0  0  0  0  0  0  0  0
   64.8680   33.4130   49.3970 C   0  0  0  0  0  0  0  0  0  0  0  0
   65.7670   32.7480   50.1520 C   0  0  0  0  0  0  0  0  0  0  0  0
   67.1010   33.0810   50.4650 C   0  0  0  0  0  0  0  0  0  0  0  0
   67.8420   32.2590   51.2540 C   0  0  0  0  0  0  0  0  0  0  0  0
   67.3950   31.0750   51.8020 C   0  0  0  0  0  0  0  0  0  0  0  0
   66.0880   30.7250   51.5080 C   0  0  0  0  0  0  0  0  0  0  0  0
   65.3430   31.5640   50.7070 C   0  0  0  0  0  0  0  0  0  0  0  0
   63.6020   31.3930   50.1360 S   0  0  0  0  0  0  0  0  0  0  0  0
   62.5080   33.2490   47.1010 C   0  0  0  0  0  0  0  0  0  0  0  0
   61.4150   33.7590   46.3960 C   0  0  0  0  0  0  0  0  0  0  0  0
   58.1040   32.0160   45.7330 C   0  0  0  0  0  0  0  0  0  0  0  0
   57.8430   32.1710   44.4260 N   0  0  0  0  0  0  0  0  0  0  0  0
   57.8340   31.0190   43.7860 C   0  0  0  0  0  0  0  0  0  0  0  0
   58.1030   30.0260   44.6970 N   0  0  0  0  0  0  0  0  0  0  0  0
   58.1690   28.6700   44.3530 C   0  0  0  0  0  0  0  0  0  0  0  0
   57.3940   27.6130   44.9000 C   0  0  0  0  0  0  0  0  0  0  0  0
   58.1000   27.1080   46.1410 C   0  0  0  0  0  0  0  0  0  0  0  0
   59.5300   27.0580   45.5810 C   0  0  0  0  0  0  0  0  0  0  0  0
   59.6090   28.2230   44.6220 C   0  0  0  0  0  0  0  0  0  0  0  0
   58.2680   30.6330   45.8840 C   0  0  0  0  0  0  0  0  0  0  0  0
   58.5430   30.2160   47.1280 N   0  0  0  0  0  0  0  0  0  0  0  0
   58.8320   28.5090   49.0230 H   0  0  0  0  0  0  0  0  0  0  0  0
   61.3927   28.4408   49.8217 H   0  0  0  0  0  0  0  0  0  0  0  0
   61.3040   29.3008   48.2310 H   0  0  0  0  0  0  0  0  0  0  0  0
   60.1321   30.0227   50.8894 H   0  0  0  0  0  0  0  0  0  0  0  0
   60.9087   31.0484   49.6019 H   0  0  0  0  0  0  0  0  0  0  0  0
   58.5930   33.0310   48.8400 H   0  0  0  0  0  0  0  0  0  0  0  0
   59.4158   34.9878   45.2446 H   0  0  0  0  0  0  0  0  0  0  0  0
   59.0004   35.9884   46.6746 H   0  0  0  0  0  0  0  0  0  0  0  0
   59.5942   35.0940   48.9407 H   0  0  0  0  0  0  0  0  0  0  0  0
   61.5321   34.1980   50.2357 H   0  0  0  0  0  0  0  0  0  0  0  0
   65.1403   34.3668   48.9214 H   0  0  0  0  0  0  0  0  0  0  0  0
   67.5427   34.0077   50.0699 H   0  0  0  0  0  0  0  0  0  0  0  0
   68.8770   32.5611   51.4721 H   0  0  0  0  0  0  0  0  0  0  0  0
   68.0384   30.4462   52.4349 H   0  0  0  0  0  0  0  0  0  0  0  0
   65.6529   29.7962   51.9055 H   0  0  0  0  0  0  0  0  0  0  0  0
   63.3334   32.7270   46.5948 H   0  0  0  0  0  0  0  0  0  0  0  0
   61.3733   33.6393   45.3033 H   0  0  0  0  0  0  0  0  0  0  0  0
   57.6445   30.8773   42.7117 H   0  0  0  0  0  0  0  0  0  0  0  0
   57.7351   28.7548   43.3458 H   0  0  0  0  0  0  0  0  0  0  0  0
   56.3925   27.9829   45.1649 H   0  0  0  0  0  0  0  0  0  0  0  0
   57.2838   26.8010   44.1662 H   0  0  0  0  0  0  0  0  0  0  0  0
   58.0088   27.8084   46.9843 H   0  0  0  0  0  0  0  0  0  0  0  0
   57.7166   26.1660   46.5602 H   0  0  0  0  0  0  0  0  0  0  0  0
   60.2671   27.1709   46.3896 H   0  0  0  0  0  0  0  0  0  0  0  0
   59.7504   26.0991   45.0891 H   0  0  0  0  0  0  0  0  0  0  0  0
   60.1837   29.0460   45.0719 H   0  0  0  0  0  0  0  0  0  0  0  0
   60.1144   27.9337   43.6888 H   0  0  0  0  0  0  0  0  0  0  0  0
   58.6710   29.2160   47.2880 H   0  0  0  0  0  0  0  0  0  0  0  0
  1  2  1  0
  2  3  1  0
  3  4  1  0
  4  5  2  0
  5  6  1  0
  6  7  1  0
  7  8  2  0
  8  9  1  0
  9 10  1  0
 10 11  2  0
 11 12  1  0
 12 13  2  0
 13 14  1  0
 14 15  2  0
 15 16  1  0
 16 17  2  0
 17 18  1  0
 18 19  2  0
 19 20  1  0
 20 21  2  0
 21 22  1  0
 13 23  1  0
 23 24  2  0
  7 25  1  0
 25 26  1  0
 26 27  2  0
 27 28  1  0
 28 29  1  0
 29 30  1  0
 30 31  1  0
 31 32  1  0
 32 33  1  0
 28 34  1  0
 34 35  1  0
 35  5  1  0
 24 10  1  0
 34 25  2  0
 22 14  1  0
 33 29  1  0
 21 16  1  0
  1 36  1  0
  2 37  1  0
  2 38  1  0
  3 39  1  0
  3 40  1  0
  6 41  1  0
  9 42  1  0
  9 43  1  0
 11 44  1  0
 12 45  1  0
 15 46  1  0
 17 47  1  0
 18 48  1  0
 19 49  1  0
 20 50  1  0
 23 51  1  0
 24 52  1  0
 27 53  1  0
 29 54  1  0
 30 55  1  0
 30 56  1  0
 31 57  1  0
 31 58  1  0
 32 59  1  0
 32 60  1  0
 33 61  1  0
 33 62  1  0
 35 63  1  0
M  END
>  <smiles>  (17) 
OCCN=c1[nH]c(=NCc2ccc(-c3cc4ccccc4s3)cc2)c2ncn(C3CCCC3)c2[nH]1

>  <score_type>  (17) 
oracle

>  <origin>  (17) 
adg

>  <m_score__min__energy>  (17) 
-10.140000000000001

>  <m_primary>  (17) 
energy

$$$$
17:0
     RDKit          3D

 60 62  0  0  1  0  0  0  0  0999 V2000
   57.7600   32.2920   42.2560 C   0  0  0  0  0  0  0  0  0  0  0  0
   58.1770   32.4870   43.6900 C   0  0  0  0  0  0  0  0  0  0  0  0
   58.2980   33.8180   44.1340 N   0  0  0  0  0  0  0  0  0  0  0  0
   59.6000   34.2050   44.6040 C   0  0  0  0  0  0  0  0  0  0  0  0
   59.6200   35.2710   45.6410 C   0  0  0  0  0  0  0  0  0  0  0  0
   57.2200   34.3320   44.9030 C   0  0  0  0  0  0  0  0  0  0  0  0
   56.6470   33.2360   45.7660 C   0  0  0  0  0  0  0  0  0  0  0  0
   57.4240   33.1930   46.9890 N   0  0  0  0  0  0  0  0  0  0  0  0
   58.4560   32.4250   47.0210 C   0  0  0  0  0  0  0  0  0  0  0  0
   58.2830   31.1910   46.4590 N   0  0  0  0  0  0  0  0  0  0  0  0
   59.2990   30.2860   46.4290 C   0  0  0  0  0  0  0  0  0  0  0  0
   59.1510   28.9950   45.8520 N   0  0  0  0  0  0  0  0  0  0  0  0
   59.5350   28.6060   44.5110 C   0  0  0  0  0  0  0  0  0  0  0  0
   58.5110   27.5360   44.1910 C   0  0  0  0  0  0  0  0  0  0  0  0
   58.4830   26.7580   45.5130 C   0  0  0  0  0  0  0  0  0  0  0  0
   58.5770   27.8640   46.5670 C   0  0  0  0  0  0  0  0  0  0  0  0
   60.4870   30.6430   46.9730 N   0  0  0  0  0  0  0  0  0  0  0  0
   60.6630   31.8670   47.5330 C   0  0  0  0  0  0  0  0  0  0  0  0
   61.9350   32.1820   48.0880 N   0  0  0  0  0  0  0  0  0  0  0  0
   62.6820   33.3540   47.6380 C   0  0  0  0  0  0  0  0  0  0  0  0
   64.1380   33.1710   47.9480 C   0  0  0  0  0  0  0  0  0  0  0  0
   64.3100   33.0530   49.3620 N   0  0  0  0  0  0  0  0  0  0  0  0
   65.6690   32.7170   49.7430 C   0  0  0  0  0  0  0  0  0  0  0  0
   63.3310   32.2640   50.0340 C   0  0  0  0  0  0  0  0  0  0  0  0
   62.5350   31.3710   49.1070 C   0  0  0  0  0  0  0  0  0  0  0  0
   59.6370   32.7660   47.5560 N   0  0  0  0  0  0  0  0  0  0  0  0
   56.7640   31.8262   42.2239 H   0  0  0  0  0  0  0  0  0  0  0  0
   57.7253   33.2673   41.7484 H   0  0  0  0  0  0  0  0  0  0  0  0
   58.4862   31.6401   41.7484 H   0  0  0  0  0  0  0  0  0  0  0  0
   57.4300   31.9892   44.3258 H   0  0  0  0  0  0  0  0  0  0  0  0
   59.1902   32.0641   43.7585 H   0  0  0  0  0  0  0  0  0  0  0  0
   60.0858   33.3131   45.0265 H   0  0  0  0  0  0  0  0  0  0  0  0
   60.1214   34.6253   43.7314 H   0  0  0  0  0  0  0  0  0  0  0  0
   59.6114   34.8108   46.6401 H   0  0  0  0  0  0  0  0  0  0  0  0
   60.5297   35.8784   45.5249 H   0  0  0  0  0  0  0  0  0  0  0  0
   58.7337   35.9121   45.5249 H   0  0  0  0  0  0  0  0  0  0  0  0
   57.5838   35.1495   45.5429 H   0  0  0  0  0  0  0  0  0  0  0  0
   56.4387   34.7123   44.2286 H   0  0  0  0  0  0  0  0  0  0  0  0
   55.5937   33.4524   45.9977 H   0  0  0  0  0  0  0  0  0  0  0  0
   56.6920   32.2686   45.2443 H   0  0  0  0  0  0  0  0  0  0  0  0
   59.4611   29.4523   43.8122 H   0  0  0  0  0  0  0  0  0  0  0  0
   60.5769   28.2630   44.4287 H   0  0  0  0  0  0  0  0  0  0  0  0
   57.5288   27.9729   43.9578 H   0  0  0  0  0  0  0  0  0  0  0  0
   58.7522   26.9250   43.3087 H   0  0  0  0  0  0  0  0  0  0  0  0
   57.5464   26.1908   45.6179 H   0  0  0  0  0  0  0  0  0  0  0  0
   59.2883   26.0130   45.5941 H   0  0  0  0  0  0  0  0  0  0  0  0
   57.5800   28.1155   46.9578 H   0  0  0  0  0  0  0  0  0  0  0  0
   59.1817   27.5658   47.4361 H   0  0  0  0  0  0  0  0  0  0  0  0
   61.3180   29.9860   46.9810 H   0  0  0  0  0  0  0  0  0  0  0  0
   62.5513   33.4772   46.5528 H   0  0  0  0  0  0  0  0  0  0  0  0
   62.3071   34.2482   48.1574 H   0  0  0  0  0  0  0  0  0  0  0  0
   64.5064   32.2588   47.4559 H   0  0  0  0  0  0  0  0  0  0  0  0
   64.7045   34.0390   47.5796 H   0  0  0  0  0  0  0  0  0  0  0  0
   65.7481   32.6975   50.8400 H   0  0  0  0  0  0  0  0  0  0  0  0
   65.9291   31.7275   49.3389 H   0  0  0  0  0  0  0  0  0  0  0  0
   66.3602   33.4713   49.3389 H   0  0  0  0  0  0  0  0  0  0  0  0
   63.8424   31.6304   50.7736 H   0  0  0  0  0  0  0  0  0  0  0  0
   62.6197   32.9606   50.5019 H   0  0  0  0  0  0  0  0  0  0  0  0
   63.2027   30.6295   48.6441 H   0  0  0  0  0  0  0  0  0  0  0  0
   61.7536   30.8444   49.6745 H   0  0  0  0  0  0  0  0  0  0  0  0
  1  2  1  0
  2  3  1  0
  3  4  1  0
  4  5  1  0
  3  6  1  0
  6  7  1  0
  7  8  1  0
  8  9  2  0
  9 10  1  0
 10 11  2  0
 11 12  1  0
 12 13  1  0
 13 14  1  0
 14 15  1  0
 15 16  1  0
 11 17  1  0
 17 18  1  0
 18 19  1  0
 19 20  1  0
 20 21  1  0
 21 22  1  0
 22 23  1  0
 22 24  1  0
 24 25  1  0
 18 26  2  0
 26  9  1  0
 16 12  1  0
 25 19  1  0
  1 27  1  0
  1 28  1  0
  1 29  1  0
  2 30  1  0
  2 31  1  0
  4 32  1  0
  4 33  1  0
  5 34  1  0
  5 35  1  0
  5 36  1  0
  6 37  1  0
  6 38  1  0
  7 39  1  0
  7 40  1  0
 13 41  1  0
 13 42  1  0
 14 43  1  0
 14 44  1  0
 15 45  1  0
 15 46  1  0
 16 47  1  0
 16 48  1  0
 17 49  1  0
 20 50  1  0
 20 51  1  0
 21 52  1  0
 21 53  1  0
 23 54  1  0
 23 55  1  0
 23 56  1  0
 24 57  1  0
 24 58  1  0
 25 59  1  0
 25 60  1  0
M  END
>  <smiles>  (18) 
CCN(CC)CCN=c1nc(N2CCCC2)[nH]c(N2CCN(C)CC2)n1

>  <score_type>  (18) 
oracle

>  <origin>  (18) 
adg

>  <m_score__min__energy>  (18) 
-6.6900000000000004

>  <m_primary>  (18) 
energy

$$$$
18:0
     RDKit          3D

 44 47  0  0  0  0  0  0  0  0999 V2000
   59.2660   35.0630   45.2470 C   0  0  0  0  0  0  0  0  0  0  0  0
   59.9430   34.0390   46.1140 C   0  0  0  0  0  0  0  0  0  0  0  0
   61.2740   34.2120   46.3640 N   0  0  0  0  0  0  0  0  0  0  0  0
   61.9470   33.2760   47.0650 C   0  0  0  0  0  0  0  0  0  0  0  0
   63.2560   33.3170   47.3650 N   0  0  0  0  0  0  0  0  0  0  0  0
   63.4070   32.1360   48.0200 C   0  0  0  0  0  0  0  0  0  0  0  0
   62.2590   31.4230   48.1030 N   0  0  0  0  0  0  0  0  0  0  0  0
   61.3540   32.1660   47.4950 N   0  0  0  0  0  0  0  0  0  0  0  0
   60.0370   31.8950   47.2940 C   0  0  0  0  0  0  0  0  0  0  0  0
   59.4680   30.5630   47.7170 C   0  0  0  0  0  0  0  0  0  0  0  0
   59.2660   32.8700   46.5930 C   0  0  0  0  0  0  0  0  0  0  0  0
   57.7700   32.6810   46.3850 C   0  0  0  0  0  0  0  0  0  0  0  0
   57.4140   32.3160   44.9340 C   0  0  0  0  0  0  0  0  0  0  0  0
   57.0670   30.8680   44.7720 C   0  0  0  0  0  0  0  0  0  0  0  0
   55.8690   30.5360   44.5640 O   0  0  0  0  0  0  0  0  0  0  0  0
   58.0980   29.8800   44.8880 N   0  0  0  0  0  0  0  0  0  0  0  0
   57.9730   28.5520   45.4200 C   0  0  0  0  0  0  0  0  0  0  0  0
   59.1390   27.8820   45.8200 C   0  0  0  0  0  0  0  0  0  0  0  0
   59.0740   26.5800   46.3280 C   0  0  0  0  0  0  0  0  0  0  0  0
   57.8400   25.9340   46.4270 C   0  0  0  0  0  0  0  0  0  0  0  0
   56.6760   26.5750   45.9860 C   0  0  0  0  0  0  0  0  0  0  0  0
   56.7350   27.8820   45.4930 C   0  0  0  0  0  0  0  0  0  0  0  0
   55.4590   25.8860   46.0410 O   0  0  0  0  0  0  0  0  0  0  0  0
   55.4180   24.4760   46.2760 C   0  0  0  0  0  0  0  0  0  0  0  0
   56.4820   24.0790   47.3070 C   0  0  0  0  0  0  0  0  0  0  0  0
   57.7480   24.6430   46.9560 O   0  0  0  0  0  0  0  0  0  0  0  0
   58.7709   35.8119   45.8826 H   0  0  0  0  0  0  0  0  0  0  0  0
   60.0150   35.5586   44.6119 H   0  0  0  0  0  0  0  0  0  0  0  0
   58.5166   34.5680   44.6119 H   0  0  0  0  0  0  0  0  0  0  0  0
   64.3644   31.7941   48.4400 H   0  0  0  0  0  0  0  0  0  0  0  0
   59.4439   30.5067   48.8153 H   0  0  0  0  0  0  0  0  0  0  0  0
   58.4467   30.4585   47.3220 H   0  0  0  0  0  0  0  0  0  0  0  0
   60.0986   29.7528   47.3220 H   0  0  0  0  0  0  0  0  0  0  0  0
   57.4219   31.8739   47.0464 H   0  0  0  0  0  0  0  0  0  0  0  0
   57.2788   33.6375   46.6171 H   0  0  0  0  0  0  0  0  0  0  0  0
   56.5514   32.9221   44.6199 H   0  0  0  0  0  0  0  0  0  0  0  0
   58.2995   32.5175   44.3133 H   0  0  0  0  0  0  0  0  0  0  0  0
   60.1134   28.3851   45.7334 H   0  0  0  0  0  0  0  0  0  0  0  0
   59.9925   26.0666   46.6486 H   0  0  0  0  0  0  0  0  0  0  0  0
   55.8156   28.3873   45.1622 H   0  0  0  0  0  0  0  0  0  0  0  0
   54.4233   24.1998   46.6558 H   0  0  0  0  0  0  0  0  0  0  0  0
   55.6194   23.9490   45.3317 H   0  0  0  0  0  0  0  0  0  0  0  0
   56.1823   24.4490   48.2986 H   0  0  0  0  0  0  0  0  0  0  0  0
   56.5713   22.9828   47.3250 H   0  0  0  0  0  0  0  0  0  0  0  0
  1  2  1  0
  2  3  2  0
  3  4  1  0
  4  5  2  0
  5  6  1  0
  6  7  2  0
  7  8  1  0
  8  9  1  0
  9 10  1  0
  9 11  2  0
 11 12  1  0
 12 13  1  0
 13 14  1  0
 14 15  2  0
 14 16  1  0
 16 17  1  0
 17 18  2  0
 18 19  1  0
 19 20  2  0
 20 21  1  0
 21 22  2  0
 21 23  1  0
 23 24  1  0
 24 25  1  0
 25 26  1  0
 11  2  1  0
 22 17  1  0
  8  4  1  0
 26 20  1  0
  1 27  1  0
  1 28  1  0
  1 29  1  0
  6 30  1  0
 10 31  1  0
 10 32  1  0
 10 33  1  0
 12 34  1  0
 12 35  1  0
 13 36  1  0
 13 37  1  0
 18 38  1  0
 19 39  1  0
 22 40  1  0
 24 41  1  0
 24 42  1  0
 25 43  1  0
 25 44  1  0
M  CHG  1  16  -1
M  END
>  <UniqueID>  (19) 
17

>  <SMILES>  (19) 
Cc1nc2ncnn2c(C)c1CCC(=O)[N-]c1ccc2c(c1)OCCO2

>  <Energy>  (19) 
90.42356769229207

>  <Genealogy>  (19) 
Cc1nc2ncnn2c(C)c1CCC(=O)[N-]c1ccc2c(c1)OCCO2 (protonated)
Cc1nc2ncnn2c(C)c1CCC(=O)[N-]c1ccc2c(c1)OCCO2 (3D coordinates assigned)
Cc1nc2ncnn2c(C)c1CCC(=O)[N-]c1ccc2c(c1)OCCO2 (nonaromatic ring conformer: 90.42356769229207 kcal/mol)

>  <smiles>  (19) 
Cc1nc2ncnn2c(C)c1CCC(=O)Nc1ccc2c(c1)OCCO2

>  <score_type>  (19) 
oracle

>  <origin>  (19) 
adg

>  <m_score__min__energy>  (19) 
-10.140000000000001

>  <m_primary>  (19) 
energy

$$$$
19:0
     RDKit          3D

 71 75  0  0  0  0  0  0  0  0999 V2000
   62.3888   30.2845   52.4317 H   0  0  0  0  0  0  0  0  0  0  0  0
   62.7200   29.3010   52.0670 C   0  0  0  0  0  0  0  0  0  0  0  0
   62.3810   28.9540   50.8580 N   0  0  0  0  0  0  0  0  0  0  0  0
   61.3890   27.9850   50.4980 C   0  0  0  0  0  0  0  0  0  0  0  0
   61.5490   26.7910   50.8650 O   0  0  0  0  0  0  0  0  0  0  0  0
   60.2270   28.3370   49.6520 C   0  0  0  0  0  0  0  0  0  0  0  0
   59.7790   27.6450   48.5330 C   0  0  0  0  0  0  0  0  0  0  0  0
   60.3810   26.4050   47.9440 C   0  0  0  0  0  0  0  0  0  0  0  0
   60.7062   25.7351   48.7536 H   0  0  0  0  0  0  0  0  0  0  0  0
   59.6313   25.8927   47.3231 H   0  0  0  0  0  0  0  0  0  0  0  0
   61.2472   26.6772   47.3231 H   0  0  0  0  0  0  0  0  0  0  0  0
   58.7140   28.3740   48.0230 C   0  0  0  0  0  0  0  0  0  0  0  0
   57.9760   28.1040   46.7400 C   0  0  0  0  0  0  0  0  0  0  0  0
   58.6229   27.5132   46.0748 H   0  0  0  0  0  0  0  0  0  0  0  0
   57.0543   27.5557   46.9849 H   0  0  0  0  0  0  0  0  0  0  0  0
   57.5890   29.3800   46.0370 C   0  0  0  0  0  0  0  0  0  0  0  0
   56.4700   29.5800   45.2400 C   0  0  0  0  0  0  0  0  0  0  0  0
   55.5190   28.6090   44.9520 O   0  0  0  0  0  0  0  0  0  0  0  0
   56.3970   30.8440   44.7590 N   0  0  0  0  0  0  0  0  0  0  0  0
   57.4850   31.4500   45.2690 C   0  0  0  0  0  0  0  0  0  0  0  0
   57.8780   32.7680   45.0500 C   0  0  0  0  0  0  0  0  0  0  0  0
   57.2727   33.4410   44.4249 H   0  0  0  0  0  0  0  0  0  0  0  0
   59.0690   33.2160   45.6490 C   0  0  0  0  0  0  0  0  0  0  0  0
   59.4040   34.2508   45.4847 H   0  0  0  0  0  0  0  0  0  0  0  0
   59.8440   32.3490   46.4630 C   0  0  0  0  0  0  0  0  0  0  0  0
   61.1270   32.7950   47.0560 C   0  0  0  0  0  0  0  0  0  0  0  0
   61.6300   32.4920   48.6370 S   0  0  0  0  0  0  0  0  0  0  0  0
   63.1090   33.2800   48.4650 C   0  0  0  0  0  0  0  0  0  0  0  0
   64.1350   33.4090   49.5310 C   0  0  0  0  0  0  0  0  0  0  0  0
   63.8400   34.1060   50.7190 C   0  0  0  0  0  0  0  0  0  0  0  0
   62.8466   34.5589   50.8532 H   0  0  0  0  0  0  0  0  0  0  0  0
   64.7990   34.2270   51.7290 C   0  0  0  0  0  0  0  0  0  0  0  0
   64.5589   34.7776   52.6505 H   0  0  0  0  0  0  0  0  0  0  0  0
   66.0600   33.6510   51.5710 C   0  0  0  0  0  0  0  0  0  0  0  0
   66.8129   33.7467   52.3673 H   0  0  0  0  0  0  0  0  0  0  0  0
   66.3650   32.9530   50.4010 C   0  0  0  0  0  0  0  0  0  0  0  0
   67.3590   32.4985   50.2768 H   0  0  0  0  0  0  0  0  0  0  0  0
   65.4100   32.8300   49.3860 C   0  0  0  0  0  0  0  0  0  0  0  0
   65.6572   32.2768   48.4679 H   0  0  0  0  0  0  0  0  0  0  0  0
   63.2230   33.7810   47.2100 N   0  0  0  0  0  0  0  0  0  0  0  0
   64.0360   34.3340   46.8620 H   0  0  0  0  0  0  0  0  0  0  0  0
   62.1410   33.5180   46.4280 C   0  0  0  0  0  0  0  0  0  0  0  0
   62.0714   33.8499   45.3816 H   0  0  0  0  0  0  0  0  0  0  0  0
   59.4000   31.0260   46.6800 C   0  0  0  0  0  0  0  0  0  0  0  0
   59.9684   30.3419   47.3272 H   0  0  0  0  0  0  0  0  0  0  0  0
   58.2250   30.6050   46.0560 C   0  0  0  0  0  0  0  0  0  0  0  0
   58.4780   29.4510   48.7960 N   0  0  0  0  0  0  0  0  0  0  0  0
   57.7540   30.1850   48.6310 H   0  0  0  0  0  0  0  0  0  0  0  0
   59.3980   29.4450   49.7790 C   0  0  0  0  0  0  0  0  0  0  0  0
   59.5080   30.5340   50.8010 C   0  0  0  0  0  0  0  0  0  0  0  0
   59.4638   30.0964   51.8093 H   0  0  0  0  0  0  0  0  0  0  0  0
   60.4641   31.0625   50.6722 H   0  0  0  0  0  0  0  0  0  0  0  0
   58.6769   31.2430   50.6722 H   0  0  0  0  0  0  0  0  0  0  0  0
   63.5370   28.4420   52.9990 C   0  0  0  0  0  0  0  0  0  0  0  0
   63.1797   27.4031   52.9446 H   0  0  0  0  0  0  0  0  0  0  0  0
   63.4293   28.8193   54.0266 H   0  0  0  0  0  0  0  0  0  0  0  0
   64.9620   28.4910   52.6100 N   0  0  0  0  0  0  0  0  0  0  0  0
   65.2540   29.6930   51.7920 C   0  0  0  0  0  0  0  0  0  0  0  0
   65.0514   30.5907   52.3945 H   0  0  0  0  0  0  0  0  0  0  0  0
   64.6126   29.6610   50.8989 H   0  0  0  0  0  0  0  0  0  0  0  0
   66.7090   29.7280   51.3280 C   0  0  0  0  0  0  0  0  0  0  0  0
   67.3732   29.7440   52.2047 H   0  0  0  0  0  0  0  0  0  0  0  0
   66.9224   28.8347   50.7226 H   0  0  0  0  0  0  0  0  0  0  0  0
   66.8792   30.6305   50.7226 H   0  0  0  0  0  0  0  0  0  0  0  0
   65.4150   27.2170   51.9970 C   0  0  0  0  0  0  0  0  0  0  0  0
   65.5478   27.3825   50.9177 H   0  0  0  0  0  0  0  0  0  0  0  0
   66.3495   26.9383   52.5060 H   0  0  0  0  0  0  0  0  0  0  0  0
   64.4450   26.0420   52.1870 C   0  0  0  0  0  0  0  0  0  0  0  0
   64.2951   25.8604   53.2615 H   0  0  0  0  0  0  0  0  0  0  0  0
   63.4799   26.2837   51.7178 H   0  0  0  0  0  0  0  0  0  0  0  0
   64.8651   25.1401   51.7178 H   0  0  0  0  0  0  0  0  0  0  0  0
  1  2  1  0
  2  3  2  0
  3  4  1  0
  4  5  2  0
  4  6  1  0
  6  7  1  0
  7  8  1  0
  8  9  1  0
  8 10  1  0
  8 11  1  0
  7 12  2  0
 12 13  1  0
 13 14  1  0
 13 15  1  0
 13 16  1  0
 16 17  2  0
 17 18  1  0
 17 19  1  0
 19 20  1  0
 20 21  2  0
 21 22  1  0
 21 23  1  0
 23 24  1  0
 23 25  2  0
 25 26  1  0
 26 27  1  0
 27 28  1  0
 28 29  1  0
 29 30  2  0
 30 31  1  0
 30 32  1  0
 32 33  1  0
 32 34  2  0
 34 35  1  0
 34 36  1  0
 36 37  1  0
 36 38  2  0
 38 39  1  0
 28 40  2  0
 40 41  1  0
 40 42  1  0
 42 43  1  0
 25 44  1  0
 44 45  1  0
 44 46  2  0
 12 47  1  0
 47 48  1  0
 47 49  1  0
 49 50  1  0
 50 51  1  0
 50 52  1  0
 50 53  1  0
  2 54  1  0
 54 55  1  0
 54 56  1  0
 54 57  1  0
 57 58  1  0
 58 59  1  0
 58 60  1  0
 58 61  1  0
 61 62  1  0
 61 63  1  0
 61 64  1  0
 57 65  1  0
 65 66  1  0
 65 67  1  0
 65 68  1  0
 68 69  1  0
 68 70  1  0
 68 71  1  0
 49  6  2  0
 46 16  1  0
 46 20  1  0
 42 26  2  0
 38 29  1  0
M  CHG  3  18  -1  19  -1  40   1
M  END
>  <UniqueID>  (20) 
18

>  <SMILES>  (20) 
CCN(CC)C/C=N\C(=O)c1c(C)[nH]c(Cc2c([O-])[n-]c3ccc(-c4c[nH+]c(-c5ccccc5)s4)cc23)c1C

>  <Energy>  (20) 
174.24937534503073

>  <Genealogy>  (20) 
CCN(CC)CC=NC(=O)c1c(C)[nH]c(Cc2c([O-])[n-]c3ccc(-c4c[nH+]c(-c5ccccc5)s4)cc23)c1C (protonated)
CCN(CC)C/C=N\C(=O)c1c(C)[nH]c(Cc2c([O-])[n-]c3ccc(-c4c[nH+]c(-c5ccccc5)s4)cc23)c1C (cis-trans isomerization)
CCN(CC)C/C=N\C(=O)c1c(C)[nH]c(Cc2c([O-])[n-]c3ccc(-c4c[nH+]c(-c5ccccc5)s4)cc23)c1C (3D coordinates assigned)
CCN(CC)C/C=N\C(=O)c1c(C)[nH]c(Cc2c([O-])[n-]c3ccc(-c4c[nH+]c(-c5ccccc5)s4)cc23)c1C (optimized conformer: 174.24937534503073 kcal/mol)

>  <smiles>  (20) 
CCN(CC)CC=NC(=O)c1c(C)[nH]c(Cc2c(O)[nH]c3ccc(-c4cnc(-c5ccccc5)s4)cc23)c1C

>  <score_type>  (20) 
oracle

>  <origin>  (20) 
adg

>  <m_score__min__energy>  (20) 
-11.85

>  <m_primary>  (20) 
energy

$$$$
20:0
     RDKit          3D

 48 51  0  0  0  0  0  0  0  0999 V2000
   66.1030   32.7070   50.1320 C   0  0  0  0  0  0  0  0  0  0  0  0
   64.7060   32.4320   49.6560 C   0  0  0  0  0  0  0  0  0  0  0  0
   64.1480   31.4000   50.0070 O   0  0  0  0  0  0  0  0  0  0  0  0
   64.0200   33.3810   48.8000 N   0  0  2  0  0  0  0  0  0  0  0  0
   63.0690   34.2160   49.5890 C   0  0  0  0  0  0  0  0  0  0  0  0
   61.6160   33.7390   49.4560 C   0  0  0  0  0  0  0  0  0  0  0  0
   61.1450   33.8050   47.9840 C   0  0  2  0  0  0  0  0  0  0  0  0
   60.0250   32.8780   47.7630 N   0  0  0  0  0  0  0  0  0  0  0  0
   59.1790   32.9400   46.6030 C   0  0  0  0  0  0  0  0  0  0  0  0
   58.8530   34.1820   46.0120 C   0  0  0  0  0  0  0  0  0  0  0  0
   57.9970   34.2510   44.8980 C   0  0  0  0  0  0  0  0  0  0  0  0
   57.4500   33.0860   44.3500 C   0  0  0  0  0  0  0  0  0  0  0  0
   57.7850   31.8720   44.9370 C   0  0  0  0  0  0  0  0  0  0  0  0
   57.3290   30.3290   44.5080 S   0  0  0  0  0  0  0  0  0  0  0  0
   58.1880   29.4910   45.6660 N   0  0  0  0  0  0  0  0  0  0  0  0
   58.2080   28.0580   45.8070 C   0  0  0  0  0  0  0  0  0  0  0  0
   59.4160   27.3720   46.0370 C   0  0  0  0  0  0  0  0  0  0  0  0
   59.4240   25.9790   46.1620 C   0  0  0  0  0  0  0  0  0  0  0  0
   58.2320   25.2580   46.0530 C   0  0  0  0  0  0  0  0  0  0  0  0
   58.2440   23.9080   46.1730 F   0  0  0  0  0  0  0  0  0  0  0  0
   57.0310   25.9290   45.8110 C   0  0  0  0  0  0  0  0  0  0  0  0
   57.0180   27.3210   45.6830 C   0  0  0  0  0  0  0  0  0  0  0  0
   58.8460   30.4200   46.4220 C   0  0  0  0  0  0  0  0  0  0  0  0
   59.5780   30.0930   47.3940 O   0  0  0  0  0  0  0  0  0  0  0  0
   58.6310   31.7690   46.0370 C   0  0  0  0  0  0  0  0  0  0  0  0
   62.3030   33.5120   46.9950 C   0  0  0  0  0  0  0  0  0  0  0  0
   63.4000   32.6680   47.6540 C   0  0  0  0  0  0  0  0  0  0  0  0
   66.1216   32.7107   51.2318 H   0  0  0  0  0  0  0  0  0  0  0  0
   66.7790   31.9247   49.7565 H   0  0  0  0  0  0  0  0  0  0  0  0
   66.4320   33.6872   49.7565 H   0  0  0  0  0  0  0  0  0  0  0  0
   64.7390   34.0330   48.4020 H   0  0  0  0  0  0  0  0  0  0  0  0
   63.3584   34.1733   50.6494 H   0  0  0  0  0  0  0  0  0  0  0  0
   63.1206   35.2421   49.1960 H   0  0  0  0  0  0  0  0  0  0  0  0
   61.5442   32.7002   49.8107 H   0  0  0  0  0  0  0  0  0  0  0  0
   60.9738   34.3969   50.0599 H   0  0  0  0  0  0  0  0  0  0  0  0
   60.8002   34.8313   47.7893 H   0  0  0  0  0  0  0  0  0  0  0  0
   59.8300   32.1320   48.4680 H   0  0  0  0  0  0  0  0  0  0  0  0
   59.2749   35.1081   46.4294 H   0  0  0  0  0  0  0  0  0  0  0  0
   57.7559   35.2283   44.4545 H   0  0  0  0  0  0  0  0  0  0  0  0
   56.7760   33.1296   43.4818 H   0  0  0  0  0  0  0  0  0  0  0  0
   60.3579   27.9343   46.1187 H   0  0  0  0  0  0  0  0  0  0  0  0
   60.3706   25.4499   46.3465 H   0  0  0  0  0  0  0  0  0  0  0  0
   56.0934   25.3608   45.7210 H   0  0  0  0  0  0  0  0  0  0  0  0
   56.0703   27.8427   45.4840 H   0  0  0  0  0  0  0  0  0  0  0  0
   61.9036   32.9660   46.1276 H   0  0  0  0  0  0  0  0  0  0  0  0
   62.7434   34.4705   46.6832 H   0  0  0  0  0  0  0  0  0  0  0  0
   62.9590   31.7270   48.0146 H   0  0  0  0  0  0  0  0  0  0  0  0
   64.1817   32.4721   46.9053 H   0  0  0  0  0  0  0  0  0  0  0  0
  1  2  1  0
  2  3  2  0
  2  4  1  0
  4  5  1  0
  5  6  1  0
  6  7  1  0
  7  8  1  0
  8  9  1  0
  9 10  2  0
 10 11  1  0
 11 12  2  0
 12 13  1  0
 13 14  1  0
 14 15  1  0
 15 16  1  0
 16 17  2  0
 17 18  1  0
 18 19  2  0
 19 20  1  0
 19 21  1  0
 21 22  2  0
 15 23  1  0
 23 24  2  0
 23 25  1  0
  7 26  1  0
 26 27  1  0
 27  4  1  0
 25  9  1  0
 25 13  2  0
 22 16  1  0
  1 28  1  0
  1 29  1  0
  1 30  1  0
  4 31  1  6
  5 32  1  0
  5 33  1  0
  6 34  1  0
  6 35  1  0
  7 36  1  6
  8 37  1  0
 10 38  1  0
 11 39  1  0
 12 40  1  0
 17 41  1  0
 18 42  1  0
 21 43  1  0
 22 44  1  0
 26 45  1  0
 26 46  1  0
 27 47  1  0
 27 48  1  0
M  CHG  1   4   1
M  END
>  <UniqueID>  (21) 
19

>  <SMILES>  (21) 
CC(=O)[NH+]1CCC(Nc2cccc3sn(-c4ccc(F)cc4)c(=O)c23)CC1

>  <Energy>  (21) 
107.34924103526275

>  <Genealogy>  (21) 
CC(=O)[NH+]1CCC(Nc2cccc3sn(-c4ccc(F)cc4)c(=O)c23)CC1 (protonated)
CC(=O)[NH+]1CCC(Nc2cccc3sn(-c4ccc(F)cc4)c(=O)c23)CC1 (3D coordinates assigned)
CC(=O)[NH+]1CCC(Nc2cccc3sn(-c4ccc(F)cc4)c(=O)c23)CC1 (nonaromatic ring conformer: 107.34924103526275 kcal/mol)

>  <smiles>  (21) 
CC(=O)N1CCC(Nc2cccc3sn(-c4ccc(F)cc4)c(=O)c23)CC1

>  <score_type>  (21) 
oracle

>  <origin>  (21) 
adg

>  <m_score__min__energy>  (21) 
-6.9500000000000002

>  <m_primary>  (21) 
energy

$$$$
21:0
     RDKit          3D

 49 51  0  0  0  0  0  0  0  0999 V2000
   60.7230   28.6590   45.5010 C   0  0  0  0  0  0  0  0  0  0  0  0
   59.5740   28.8780   44.5020 C   0  0  0  0  0  0  0  0  0  0  0  0
   58.2470   28.4110   44.9770 N   0  0  0  0  0  0  0  0  0  0  0  0
   57.8910   27.0800   44.4350 C   0  0  0  0  0  0  0  0  0  0  0  0
   58.1510   27.0150   42.9310 C   0  0  0  0  0  0  0  0  0  0  0  0
   57.1740   29.4100   44.7660 C   0  0  0  0  0  0  0  0  0  0  0  0
   57.7320   30.8230   44.7680 C   0  0  0  0  0  0  0  0  0  0  0  0
   57.6790   31.6820   43.6300 C   0  0  0  0  0  0  0  0  0  0  0  0
   57.0360   31.2520   42.3390 C   0  0  0  0  0  0  0  0  0  0  0  0
   58.2470   32.9810   43.7020 C   0  0  0  0  0  0  0  0  0  0  0  0
   58.8530   33.4430   44.8780 C   0  0  0  0  0  0  0  0  0  0  0  0
   58.8820   32.5930   45.9790 C   0  0  0  0  0  0  0  0  0  0  0  0
   58.3420   31.3330   45.9270 C   0  0  0  0  0  0  0  0  0  0  0  0
   58.5180   30.7670   47.1770 C   0  0  0  0  0  0  0  0  0  0  0  0
   59.1700   31.7280   47.9370 C   0  0  0  0  0  0  0  0  0  0  0  0
   59.3970   32.8400   47.2010 N   0  0  0  0  0  0  0  0  0  0  0  0
   60.0070   34.0790   47.6860 C   0  0  0  0  0  0  0  0  0  0  0  0
   61.4400   33.8380   48.0900 C   0  0  0  0  0  0  0  0  0  0  0  0
   62.3940   33.5300   47.1060 C   0  0  0  0  0  0  0  0  0  0  0  0
   63.7260   33.2920   47.4610 C   0  0  0  0  0  0  0  0  0  0  0  0
   64.1160   33.3630   48.8000 C   0  0  0  0  0  0  0  0  0  0  0  0
   65.4080   33.1320   49.1420 F   0  0  0  0  0  0  0  0  0  0  0  0
   63.1770   33.6770   49.7850 C   0  0  0  0  0  0  0  0  0  0  0  0
   61.8440   33.9180   49.4380 C   0  0  0  0  0  0  0  0  0  0  0  0
   60.9570   34.2340   50.4140 F   0  0  0  0  0  0  0  0  0  0  0  0
   60.3353   28.7329   46.5277 H   0  0  0  0  0  0  0  0  0  0  0  0
   61.1595   27.6615   45.3448 H   0  0  0  0  0  0  0  0  0  0  0  0
   61.4959   29.4260   45.3448 H   0  0  0  0  0  0  0  0  0  0  0  0
   59.5035   29.9551   44.2904 H   0  0  0  0  0  0  0  0  0  0  0  0
   59.8157   28.2793   43.6114 H   0  0  0  0  0  0  0  0  0  0  0  0
   58.4971   26.3125   44.9385 H   0  0  0  0  0  0  0  0  0  0  0  0
   56.8201   26.9033   44.6139 H   0  0  0  0  0  0  0  0  0  0  0  0
   59.2039   26.7518   42.7520 H   0  0  0  0  0  0  0  0  0  0  0  0
   57.5003   26.2519   42.4790 H   0  0  0  0  0  0  0  0  0  0  0  0
   57.9360   27.9945   42.4790 H   0  0  0  0  0  0  0  0  0  0  0  0
   56.6891   29.2169   43.7977 H   0  0  0  0  0  0  0  0  0  0  0  0
   56.4479   29.3207   45.5875 H   0  0  0  0  0  0  0  0  0  0  0  0
   56.1398   30.6527   42.5575 H   0  0  0  0  0  0  0  0  0  0  0  0
   56.7498   32.1411   41.7580 H   0  0  0  0  0  0  0  0  0  0  0  0
   57.7484   30.6479   41.7580 H   0  0  0  0  0  0  0  0  0  0  0  0
   58.2108   33.6363   42.8193 H   0  0  0  0  0  0  0  0  0  0  0  0
   59.2935   34.4497   44.9292 H   0  0  0  0  0  0  0  0  0  0  0  0
   58.2059   29.7633   47.5013 H   0  0  0  0  0  0  0  0  0  0  0  0
   59.4613   31.6029   48.9903 H   0  0  0  0  0  0  0  0  0  0  0  0
   59.9781   34.8340   46.8866 H   0  0  0  0  0  0  0  0  0  0  0  0
   59.4446   34.4337   48.5623 H   0  0  0  0  0  0  0  0  0  0  0  0
   62.0918   33.4756   46.0497 H   0  0  0  0  0  0  0  0  0  0  0  0
   64.4666   33.0488   46.6849 H   0  0  0  0  0  0  0  0  0  0  0  0
   63.4875   33.7350   50.8387 H   0  0  0  0  0  0  0  0  0  0  0  0
  1  2  1  0
  2  3  1  0
  3  4  1  0
  4  5  1  0
  3  6  1  0
  6  7  1  0
  7  8  2  0
  8  9  1  0
  8 10  1  0
 10 11  2  0
 11 12  1  0
 12 13  2  0
 13 14  1  0
 14 15  2  0
 15 16  1  0
 16 17  1  0
 17 18  1  0
 18 19  2  0
 19 20  1  0
 20 21  2  0
 21 22  1  0
 21 23  1  0
 23 24  2  0
 24 25  1  0
 13  7  1  0
 24 18  1  0
 16 12  1  0
  1 26  1  0
  1 27  1  0
  1 28  1  0
  2 29  1  0
  2 30  1  0
  4 31  1  0
  4 32  1  0
  5 33  1  0
  5 34  1  0
  5 35  1  0
  6 36  1  0
  6 37  1  0
  9 38  1  0
  9 39  1  0
  9 40  1  0
 10 41  1  0
 11 42  1  0
 14 43  1  0
 15 44  1  0
 17 45  1  0
 17 46  1  0
 19 47  1  0
 20 48  1  0
 23 49  1  0
M  END
>  <UniqueID>  (22) 
20

>  <SMILES>  (22) 
CCN(CC)Cc1c(C)ccc2c1ccn2Cc1ccc(F)cc1F

>  <Energy>  (22) 
84.97784177069875

>  <Genealogy>  (22) 
CCN(CC)Cc1c(C)ccc2c1ccn2Cc1ccc(F)cc1F (3D coordinates assigned)
CCN(CC)Cc1c(C)ccc2c1ccn2Cc1ccc(F)cc1F (optimized conformer: 84.97784177069875 kcal/mol)

>  <smiles>  (22) 
CCN(CC)Cc1c(C)ccc2c1ccn2Cc1ccc(F)cc1F

>  <score_type>  (22) 
oracle

>  <origin>  (22) 
adg

>  <m_score__min__energy>  (22) 
-7.4500000000000002

>  <m_primary>  (22) 
energy

$$$$
22:0
     RDKit          3D

 56 59  0  0  0  0  0  0  0  0999 V2000
   52.5310   30.5510   51.7740 C   0  0  0  0  0  0  0  0  0  0  0  0
   53.9280   30.2810   52.2500 C   0  0  0  0  0  0  0  0  0  0  0  0
   54.2130   29.1310   53.0030 C   0  0  0  0  0  0  0  0  0  0  0  0
   55.5130   28.8960   53.4740 C   0  0  0  0  0  0  0  0  0  0  0  0
   55.8260   27.6300   54.2160 C   0  0  0  0  0  0  0  0  0  0  0  0
   56.5310   29.8160   53.1830 C   0  0  0  0  0  0  0  0  0  0  0  0
   56.2480   30.9900   52.4680 C   0  0  0  0  0  0  0  0  0  0  0  0
   57.2890   31.9290   52.1580 N   0  0  0  0  0  0  0  0  0  0  0  0
   57.3930   33.1050   52.7590 N   0  0  0  0  0  0  0  0  0  0  0  0
   58.4110   33.7800   52.1890 C   0  0  0  0  0  0  0  0  0  0  0  0
   58.9670   32.9950   51.1990 C   0  0  0  0  0  0  0  0  0  0  0  0
   59.9820   33.3740   50.2600 N   0  0  0  0  0  0  0  0  0  0  0  0
   59.6500   33.9040   48.9350 C   0  0  0  0  0  0  0  0  0  0  0  0
   60.3780   33.1020   47.8210 C   0  0  2  0  0  0  0  0  0  0  0  0
   60.7750   31.8870   48.4220 O   0  0  0  0  0  0  0  0  0  0  0  0
   61.6740   33.8430   47.3520 C   0  0  0  0  0  0  0  0  0  0  0  0
   62.8290   33.6640   48.2320 N   0  0  0  0  0  0  0  0  0  0  0  0
   64.0620   33.2650   47.8720 C   0  0  0  0  0  0  0  0  0  0  0  0
   64.8600   33.1210   48.9470 N   0  0  0  0  0  0  0  0  0  0  0  0
   64.0330   33.4390   49.9680 C   0  0  0  0  0  0  0  0  0  0  0  0
   62.7940   33.7590   49.5490 N   0  0  0  0  0  0  0  0  0  0  0  0
   59.4170   32.8390   46.6380 C   0  0  0  0  0  0  0  0  0  0  0  0
   59.0510   31.5110   46.3170 C   0  0  0  0  0  0  0  0  0  0  0  0
   58.2490   31.2260   45.2100 C   0  0  0  0  0  0  0  0  0  0  0  0
   57.7980   32.2560   44.3900 C   0  0  0  0  0  0  0  0  0  0  0  0
   57.0420   31.9760   43.3010 F   0  0  0  0  0  0  0  0  0  0  0  0
   58.1380   33.5760   44.6820 C   0  0  0  0  0  0  0  0  0  0  0  0
   58.9360   33.8750   45.7910 C   0  0  0  0  0  0  0  0  0  0  0  0
   59.2540   35.1790   45.9880 F   0  0  0  0  0  0  0  0  0  0  0  0
   58.2540   31.8140   51.2150 C   0  0  0  0  0  0  0  0  0  0  0  0
   58.4660   30.6330   50.3120 C   0  0  0  0  0  0  0  0  0  0  0  0
   54.9470   31.2100   51.9940 C   0  0  0  0  0  0  0  0  0  0  0  0
   51.8665   30.6794   52.6412 H   0  0  0  0  0  0  0  0  0  0  0  0
   52.5215   31.4676   51.1659 H   0  0  0  0  0  0  0  0  0  0  0  0
   52.1807   29.7039   51.1659 H   0  0  0  0  0  0  0  0  0  0  0  0
   53.4123   28.4102   53.2249 H   0  0  0  0  0  0  0  0  0  0  0  0
   55.7794   27.8185   55.2987 H   0  0  0  0  0  0  0  0  0  0  0  0
   55.0921   26.8561   53.9466 H   0  0  0  0  0  0  0  0  0  0  0  0
   56.8359   27.2872   53.9466 H   0  0  0  0  0  0  0  0  0  0  0  0
   57.5595   29.6157   53.5179 H   0  0  0  0  0  0  0  0  0  0  0  0
   58.7441   34.7908   52.4672 H   0  0  0  0  0  0  0  0  0  0  0  0
   60.9490   33.0080   50.4000 H   0  0  0  0  0  0  0  0  0  0  0  0
   58.5634   33.8318   48.7797 H   0  0  0  0  0  0  0  0  0  0  0  0
   59.9755   34.9535   48.8836 H   0  0  0  0  0  0  0  0  0  0  0  0
   61.5890   32.0470   48.9690 H   0  0  0  0  0  0  0  0  0  0  0  0
   61.9418   33.4675   46.3534 H   0  0  0  0  0  0  0  0  0  0  0  0
   61.4393   34.9176   47.3596 H   0  0  0  0  0  0  0  0  0  0  0  0
   64.3774   33.0804   46.8345 H   0  0  0  0  0  0  0  0  0  0  0  0
   64.3386   33.4366   51.0247 H   0  0  0  0  0  0  0  0  0  0  0  0
   59.4054   30.6859   46.9523 H   0  0  0  0  0  0  0  0  0  0  0  0
   57.9731   30.1851   44.9856 H   0  0  0  0  0  0  0  0  0  0  0  0
   57.7759   34.3887   44.0352 H   0  0  0  0  0  0  0  0  0  0  0  0
   58.6279   29.7308   50.9202 H   0  0  0  0  0  0  0  0  0  0  0  0
   57.5787   30.4929   49.6772 H   0  0  0  0  0  0  0  0  0  0  0  0
   59.3467   30.8102   49.6772 H   0  0  0  0  0  0  0  0  0  0  0  0
   54.7236   32.1191   51.4164 H   0  0  0  0  0  0  0  0  0  0  0  0
  1  2  1  0
  2  3  2  0
  3  4  1  0
  4  5  1  0
  4  6  2  0
  6  7  1  0
  7  8  1  0
  8  9  1  0
  9 10  2  0
 10 11  1  0
 11 12  1  0
 12 13  1  0
 13 14  1  0
 14 15  1  1
 14 16  1  0
 16 17  1  0
 17 18  1  0
 18 19  2  0
 19 20  1  0
 20 21  2  0
 14 22  1  0
 22 23  2  0
 23 24  1  0
 24 25  2  0
 25 26  1  0
 25 27  1  0
 27 28  2  0
 28 29  1  0
 11 30  2  0
 30 31  1  0
  7 32  2  0
 32  2  1  0
 30  8  1  0
 21 17  1  0
 28 22  1  0
  1 33  1  0
  1 34  1  0
  1 35  1  0
  3 36  1  0
  5 37  1  0
  5 38  1  0
  5 39  1  0
  6 40  1  0
 10 41  1  0
 12 42  1  0
 13 43  1  0
 13 44  1  0
 15 45  1  0
 16 46  1  0
 16 47  1  0
 18 48  1  0
 20 49  1  0
 23 50  1  0
 24 51  1  0
 27 52  1  0
 31 53  1  0
 31 54  1  0
 31 55  1  0
 32 56  1  0
M  END
>  <UniqueID>  (23) 
21

>  <SMILES>  (23) 
Cc1cc(C)cc(-n2ncc(NC[C@](O)(Cn3cncn3)c3ccc(F)cc3F)c2C)c1

>  <Energy>  (23) 
132.0159637603806

>  <Genealogy>  (23) 
Cc1cc(C)cc(-n2ncc(NC[C@](O)(Cn3cncn3)c3ccc(F)cc3F)c2C)c1 (chirality)
Cc1cc(C)cc(-n2ncc(NC[C@](O)(Cn3cncn3)c3ccc(F)cc3F)c2C)c1 (3D coordinates assigned)
Cc1cc(C)cc(-n2ncc(NC[C@](O)(Cn3cncn3)c3ccc(F)cc3F)c2C)c1 (optimized conformer: 132.0159637603806 kcal/mol)

>  <smiles>  (23) 
Cc1cc(C)cc(-n2ncc(NCC(O)(Cn3cncn3)c3ccc(F)cc3F)c2C)c1

>  <score_type>  (23) 
oracle

>  <origin>  (23) 
adg

>  <m_score__min__energy>  (23) 
-9.4199999999999999

>  <m_primary>  (23) 
energy

$$$$
23:0
     RDKit          3D

 53 56  0  0  0  0  0  0  0  0999 V2000
   65.4920   32.7020   49.7380 C   0  0  0  0  0  0  0  0  0  0  0  0
   64.2630   33.4660   50.2180 C   0  0  0  0  0  0  0  0  0  0  0  0
   63.2540   33.6060   49.1100 C   0  0  0  0  0  0  0  0  0  0  0  0
   63.6290   33.3730   47.7780 C   0  0  0  0  0  0  0  0  0  0  0  0
   62.6840   33.4720   46.7540 C   0  0  0  0  0  0  0  0  0  0  0  0
   61.3550   33.8090   47.0400 C   0  0  0  0  0  0  0  0  0  0  0  0
   60.4170   33.8740   45.9560 N   0  0  0  0  0  0  0  0  0  0  0  0
   59.0040   34.0950   46.0500 C   0  0  0  0  0  0  0  0  0  0  0  0
   58.5450   35.0460   46.7360 O   0  0  0  0  0  0  0  0  0  0  0  0
   58.0660   33.2650   45.2270 C   0  0  0  0  0  0  0  0  0  0  0  0
   58.3530   31.8330   45.3990 N   0  0  0  0  0  0  0  0  0  0  0  0
   59.5090   31.4650   45.9890 N   0  0  0  0  0  0  0  0  0  0  0  0
   59.8270   30.1520   46.2300 C   0  0  0  0  0  0  0  0  0  0  0  0
   61.1250   29.8010   46.8980 C   0  0  0  0  0  0  0  0  0  0  0  0
   58.9040   29.1820   45.8240 C   0  0  0  0  0  0  0  0  0  0  0  0
   58.8500   27.7950   45.8770 C   0  0  0  0  0  0  0  0  0  0  0  0
   59.9190   26.8610   46.3710 C   0  0  0  0  0  0  0  0  0  0  0  0
   57.6500   27.4140   45.3590 N   0  0  0  0  0  0  0  0  0  0  0  0
   57.1260   26.0800   45.2490 C   0  0  0  0  0  0  0  0  0  0  0  0
   56.2380   25.5740   46.2150 C   0  0  0  0  0  0  0  0  0  0  0  0
   55.7150   24.2840   46.0840 C   0  0  0  0  0  0  0  0  0  0  0  0
   56.0620   23.4970   44.9840 C   0  0  0  0  0  0  0  0  0  0  0  0
   56.9270   24.0000   44.0070 C   0  0  0  0  0  0  0  0  0  0  0  0
   57.4520   25.2910   44.1350 C   0  0  0  0  0  0  0  0  0  0  0  0
   56.9700   28.4810   44.9560 N   0  0  0  0  0  0  0  0  0  0  0  0
   57.7300   29.5540   45.2390 C   0  0  0  0  0  0  0  0  0  0  0  0
   57.4280   30.8870   45.0220 C   0  0  0  0  0  0  0  0  0  0  0  0
   56.3270   31.2150   44.4980 O   0  0  0  0  0  0  0  0  0  0  0  0
   60.9680   34.0020   48.3800 C   0  0  0  0  0  0  0  0  0  0  0  0
   61.9140   33.9060   49.4050 C   0  0  0  0  0  0  0  0  0  0  0  0
   66.0649   32.3459   50.6069 H   0  0  0  0  0  0  0  0  0  0  0  0
   65.1747   31.8417   49.1304 H   0  0  0  0  0  0  0  0  0  0  0  0
   66.1231   33.3672   49.1304 H   0  0  0  0  0  0  0  0  0  0  0  0
   63.8045   32.9213   51.0565 H   0  0  0  0  0  0  0  0  0  0  0  0
   64.5756   34.4706   50.5391 H   0  0  0  0  0  0  0  0  0  0  0  0
   64.6705   33.1115   47.5394 H   0  0  0  0  0  0  0  0  0  0  0  0
   62.9865   33.2835   45.7133 H   0  0  0  0  0  0  0  0  0  0  0  0
   57.0322   33.4668   45.5439 H   0  0  0  0  0  0  0  0  0  0  0  0
   58.1980   33.5277   44.1670 H   0  0  0  0  0  0  0  0  0  0  0  0
   60.1880   32.2040   46.2860 H   0  0  0  0  0  0  0  0  0  0  0  0
   60.9966   29.8357   47.9899 H   0  0  0  0  0  0  0  0  0  0  0  0
   61.4303   28.7881   46.5967 H   0  0  0  0  0  0  0  0  0  0  0  0
   61.8992   30.5221   46.5967 H   0  0  0  0  0  0  0  0  0  0  0  0
   59.9231   26.8574   47.4710 H   0  0  0  0  0  0  0  0  0  0  0  0
   59.7172   25.8447   46.0018 H   0  0  0  0  0  0  0  0  0  0  0  0
   60.8991   27.1974   46.0018 H   0  0  0  0  0  0  0  0  0  0  0  0
   55.9538   26.1955   47.0770 H   0  0  0  0  0  0  0  0  0  0  0  0
   55.0296   23.8887   46.8482 H   0  0  0  0  0  0  0  0  0  0  0  0
   55.6544   22.4800   44.8858 H   0  0  0  0  0  0  0  0  0  0  0  0
   57.1947   23.3810   43.1380 H   0  0  0  0  0  0  0  0  0  0  0  0
   58.1229   25.6889   43.3594 H   0  0  0  0  0  0  0  0  0  0  0  0
   59.9190   34.2288   48.6210 H   0  0  0  0  0  0  0  0  0  0  0  0
   61.6069   34.0664   50.4490 H   0  0  0  0  0  0  0  0  0  0  0  0
  1  2  1  0
  2  3  1  0
  3  4  2  0
  4  5  1  0
  5  6  2  0
  6  7  1  0
  7  8  1  0
  8  9  2  0
  8 10  1  0
 10 11  1  0
 11 12  1  0
 12 13  2  0
 13 14  1  0
 13 15  1  0
 15 16  2  0
 16 17  1  0
 16 18  1  0
 18 19  1  0
 19 20  2  0
 20 21  1  0
 21 22  2  0
 22 23  1  0
 23 24  2  0
 18 25  1  0
 25 26  2  0
 26 27  1  0
 27 28  2  0
  6 29  1  0
 29 30  2  0
 30  3  1  0
 27 11  1  0
 26 15  1  0
 24 19  1  0
  1 31  1  0
  1 32  1  0
  1 33  1  0
  2 34  1  0
  2 35  1  0
  4 36  1  0
  5 37  1  0
 10 38  1  0
 10 39  1  0
 12 40  1  0
 14 41  1  0
 14 42  1  0
 14 43  1  0
 17 44  1  0
 17 45  1  0
 17 46  1  0
 20 47  1  0
 21 48  1  0
 22 49  1  0
 23 50  1  0
 24 51  1  0
 29 52  1  0
 30 53  1  0
M  CHG  2   7  -1  12   1
M  END
>  <UniqueID>  (24) 
22

>  <SMILES>  (24) 
CCc1ccc([N-]C(=O)Cn2[nH+]c(C)c3c(C)n(-c4ccccc4)nc3c2=O)cc1

>  <Energy>  (24) 
103.01775974302419

>  <Genealogy>  (24) 
CCc1ccc([N-]C(=O)Cn2[nH+]c(C)c3c(C)n(-c4ccccc4)nc3c2=O)cc1 (protonated)
CCc1ccc([N-]C(=O)Cn2[nH+]c(C)c3c(C)n(-c4ccccc4)nc3c2=O)cc1 (3D coordinates assigned)
CCc1ccc([N-]C(=O)Cn2[nH+]c(C)c3c(C)n(-c4ccccc4)nc3c2=O)cc1 (optimized conformer: 103.01775974302419 kcal/mol)

>  <smiles>  (24) 
CCc1ccc(NC(=O)Cn2nc(C)c3c(C)n(-c4ccccc4)nc3c2=O)cc1

>  <score_type>  (24) 
oracle

>  <origin>  (24) 
adg

>  <m_score__min__energy>  (24) 
-9.2100000000000009

>  <m_primary>  (24) 
energy

$$$$
24:0
     RDKit          3D

 44 46  0  0  0  0  0  0  0  0999 V2000
   59.7980   30.9650   48.1760 C   0  0  0  0  0  0  0  0  0  0  0  0
   61.0140   31.7970   47.8620 C   0  0  0  0  0  0  0  0  0  0  0  0
   62.1560   31.1380   47.5000 N   0  0  0  0  0  0  0  0  0  0  0  0
   63.2940   31.7940   47.1540 C   0  0  0  0  0  0  0  0  0  0  0  0
   63.3300   33.1820   47.1620 C   0  0  0  0  0  0  0  0  0  0  0  0
   62.1970   33.8900   47.5470 C   0  0  0  0  0  0  0  0  0  0  0  0
   61.0250   33.2200   47.9430 C   0  0  0  0  0  0  0  0  0  0  0  0
   59.8370   34.0690   48.3900 C   0  0  0  0  0  0  0  0  0  0  0  0
   58.9140   34.4700   47.2990 N   0  0  0  0  0  0  0  0  0  0  0  0
   57.8780   33.4650   46.9600 C   0  0  0  0  0  0  0  0  0  0  0  0
   57.2060   33.7920   45.6200 C   0  0  0  0  0  0  0  0  0  0  0  0
   58.1880   33.8330   44.5080 N   0  0  0  0  0  0  0  0  0  0  0  0
   58.1240   32.6760   43.5860 C   0  0  0  0  0  0  0  0  0  0  0  0
   57.7650   31.3670   44.2620 C   0  0  0  0  0  0  0  0  0  0  0  0
   58.7560   30.5860   44.8800 C   0  0  0  0  0  0  0  0  0  0  0  0
   58.4140   29.3880   45.5090 C   0  0  0  0  0  0  0  0  0  0  0  0
   57.0850   28.9680   45.5030 C   0  0  0  0  0  0  0  0  0  0  0  0
   56.1380   29.7160   44.8790 N   0  0  0  0  0  0  0  0  0  0  0  0
   56.4440   30.8880   44.2600 C   0  0  0  0  0  0  0  0  0  0  0  0
   59.5680   34.1910   44.9130 C   0  0  0  0  0  0  0  0  0  0  0  0
   59.5600   35.1160   46.1350 C   0  0  0  0  0  0  0  0  0  0  0  0
   59.6804   30.8846   49.2667 H   0  0  0  0  0  0  0  0  0  0  0  0
   58.9057   31.4427   47.7453 H   0  0  0  0  0  0  0  0  0  0  0  0
   59.9200   29.9602   47.7453 H   0  0  0  0  0  0  0  0  0  0  0  0
   62.1690   30.0930   47.4740 H   0  0  0  0  0  0  0  0  0  0  0  0
   64.1898   31.2239   46.8666 H   0  0  0  0  0  0  0  0  0  0  0  0
   64.2453   33.7159   46.8668 H   0  0  0  0  0  0  0  0  0  0  0  0
   62.2173   34.9898   47.5419 H   0  0  0  0  0  0  0  0  0  0  0  0
   59.2626   33.4917   49.1295 H   0  0  0  0  0  0  0  0  0  0  0  0
   60.2574   34.9999   48.7983 H   0  0  0  0  0  0  0  0  0  0  0  0
   58.3486   32.4730   46.8929 H   0  0  0  0  0  0  0  0  0  0  0  0
   57.1098   33.4771   47.7473 H   0  0  0  0  0  0  0  0  0  0  0  0
   56.4525   33.0209   45.4017 H   0  0  0  0  0  0  0  0  0  0  0  0
   56.7413   34.7855   45.7033 H   0  0  0  0  0  0  0  0  0  0  0  0
   57.3658   32.8877   42.8176 H   0  0  0  0  0  0  0  0  0  0  0  0
   59.1318   32.5498   43.1637 H   0  0  0  0  0  0  0  0  0  0  0  0
   59.8041   30.9196   44.8681 H   0  0  0  0  0  0  0  0  0  0  0  0
   59.1859   28.7811   46.0047 H   0  0  0  0  0  0  0  0  0  0  0  0
   56.8027   28.0302   46.0039 H   0  0  0  0  0  0  0  0  0  0  0  0
   55.6537   31.4634   43.7556 H   0  0  0  0  0  0  0  0  0  0  0  0
   60.1197   33.2723   45.1610 H   0  0  0  0  0  0  0  0  0  0  0  0
   60.0524   34.7182   44.0779 H   0  0  0  0  0  0  0  0  0  0  0  0
   60.5974   35.3706   46.3975 H   0  0  0  0  0  0  0  0  0  0  0  0
   58.9878   36.0202   45.8801 H   0  0  0  0  0  0  0  0  0  0  0  0
  1  2  1  0
  2  3  2  0
  3  4  1  0
  4  5  2  0
  5  6  1  0
  6  7  2  0
  7  8  1  0
  8  9  1  0
  9 10  1  0
 10 11  1  0
 11 12  1  0
 12 13  1  0
 13 14  1  0
 14 15  2  0
 15 16  1  0
 16 17  2  0
 17 18  1  0
 18 19  2  0
 12 20  1  0
 20 21  1  0
  7  2  1  0
 21  9  1  0
 19 14  1  0
  1 22  1  0
  1 23  1  0
  1 24  1  0
  3 25  1  0
  4 26  1  0
  5 27  1  0
  6 28  1  0
  8 29  1  0
  8 30  1  0
 10 31  1  0
 10 32  1  0
 11 33  1  0
 11 34  1  0
 13 35  1  0
 13 36  1  0
 15 37  1  0
 16 38  1  0
 17 39  1  0
 19 40  1  0
 20 41  1  0
 20 42  1  0
 21 43  1  0
 21 44  1  0
M  CHG  1   3   1
M  END
>  <UniqueID>  (25) 
23

>  <SMILES>  (25) 
Cc1[nH+]cccc1CN1CCN(Cc2cccnc2)CC1

>  <Energy>  (25) 
65.85853185839026

>  <Genealogy>  (25) 
Cc1[nH+]cccc1CN1CCN(Cc2cccnc2)CC1 (protonated)
Cc1[nH+]cccc1CN1CCN(Cc2cccnc2)CC1 (3D coordinates assigned)
Cc1[nH+]cccc1CN1CCN(Cc2cccnc2)CC1 (nonaromatic ring conformer: 65.85853185839026 kcal/mol)

>  <smiles>  (25) 
Cc1ncccc1CN1CCN(Cc2cccnc2)CC1

>  <score_type>  (25) 
oracle

>  <origin>  (25) 
adg

>  <m_score__min__energy>  (25) 
-6.4199999999999999

>  <m_primary>  (25) 
energy

$$$$
25:0
     RDKit          3D

 38 40  0  0  0  0  0  0  0  0999 V2000
   64.3570   33.0950   49.2260 C   0  0  0  0  0  0  0  0  0  0  0  0
   63.3800   34.0610   48.8510 O   0  0  0  0  0  0  0  0  0  0  0  0
   62.0970   33.7490   48.3770 C   0  0  0  0  0  0  0  0  0  0  0  0
   60.9270   34.2340   48.9910 C   0  0  0  0  0  0  0  0  0  0  0  0
   59.6710   33.8950   48.4780 C   0  0  0  0  0  0  0  0  0  0  0  0
   59.5620   33.0860   47.3420 C   0  0  0  0  0  0  0  0  0  0  0  0
   58.2520   32.7510   46.8600 N   0  0  0  0  0  0  0  0  0  0  0  0
   57.7660   32.9180   45.5220 C   0  0  0  0  0  0  0  0  0  0  0  0
   57.1510   33.9650   45.1840 O   0  0  0  0  0  0  0  0  0  0  0  0
   57.9130   31.7990   44.5420 C   0  0  0  0  0  0  0  0  0  0  0  0
   56.3270   30.9210   44.3180 S   0  0  0  0  0  0  0  0  0  0  0  0
   56.9520   29.3260   44.8590 C   0  0  0  0  0  0  0  0  0  0  0  0
   58.3430   29.1490   44.8490 C   0  0  0  0  0  0  0  0  0  0  0  0
   59.1170   28.0410   45.2220 C   0  0  0  0  0  0  0  0  0  0  0  0
   60.3680   28.1570   45.1280 O   0  0  0  0  0  0  0  0  0  0  0  0
   58.6380   26.8590   45.6710 N   0  0  0  0  0  0  0  0  0  0  0  0
   57.3650   26.4610   45.8640 C   0  0  0  0  0  0  0  0  0  0  0  0
   56.9750   25.2240   46.3250 C   0  0  0  0  0  0  0  0  0  0  0  0
   57.8720   24.1060   46.7440 C   0  0  0  0  0  0  0  0  0  0  0  0
   55.6310   25.1870   46.4090 N   0  0  0  0  0  0  0  0  0  0  0  0
   55.1550   26.3570   46.0010 N   0  0  0  0  0  0  0  0  0  0  0  0
   56.1940   27.1450   45.6650 C   0  0  0  0  0  0  0  0  0  0  0  0
   56.0290   28.4060   45.2230 N   0  0  0  0  0  0  0  0  0  0  0  0
   60.7290   32.5840   46.7420 C   0  0  0  0  0  0  0  0  0  0  0  0
   61.9850   32.9210   47.2550 C   0  0  0  0  0  0  0  0  0  0  0  0
   64.4144   33.0383   50.3230 H   0  0  0  0  0  0  0  0  0  0  0  0
   64.0742   32.1116   48.8223 H   0  0  0  0  0  0  0  0  0  0  0  0
   65.3371   33.3890   48.8223 H   0  0  0  0  0  0  0  0  0  0  0  0
   61.0008   34.8817   49.8771 H   0  0  0  0  0  0  0  0  0  0  0  0
   58.7614   34.2675   48.9718 H   0  0  0  0  0  0  0  0  0  0  0  0
   58.2389   32.2077   43.5741 H   0  0  0  0  0  0  0  0  0  0  0  0
   58.6584   31.0879   44.9277 H   0  0  0  0  0  0  0  0  0  0  0  0
   58.9177   30.0164   44.4922 H   0  0  0  0  0  0  0  0  0  0  0  0
   57.9101   24.0585   47.8423 H   0  0  0  0  0  0  0  0  0  0  0  0
   57.4828   23.1560   46.3492 H   0  0  0  0  0  0  0  0  0  0  0  0
   58.8838   24.2801   46.3492 H   0  0  0  0  0  0  0  0  0  0  0  0
   60.6541   31.9235   45.8656 H   0  0  0  0  0  0  0  0  0  0  0  0
   62.8934   32.5316   46.7721 H   0  0  0  0  0  0  0  0  0  0  0  0
  1  2  1  0
  2  3  1  0
  3  4  2  0
  4  5  1  0
  5  6  2  0
  6  7  1  0
  7  8  1  0
  8  9  2  0
  8 10  1  0
 10 11  1  0
 11 12  1  0
 12 13  2  0
 13 14  1  0
 14 15  2  0
 14 16  1  0
 16 17  2  0
 17 18  1  0
 18 19  1  0
 18 20  2  0
 20 21  1  0
 21 22  1  0
 22 23  2  0
  6 24  1  0
 24 25  2  0
 25  3  1  0
 23 12  1  0
 22 17  1  0
  1 26  1  0
  1 27  1  0
  1 28  1  0
  4 29  1  0
  5 30  1  0
 10 31  1  0
 10 32  1  0
 13 33  1  0
 19 34  1  0
 19 35  1  0
 19 36  1  0
 24 37  1  0
 25 38  1  0
M  CHG  2   7  -1  21  -1
M  END
>  <UniqueID>  (26) 
24

>  <SMILES>  (26) 
COc1ccc([N-]C(=O)CSc2cc(=O)nc3c(C)n[n-]c3n2)cc1

>  <Energy>  (26) 
84.4198942340436

>  <Genealogy>  (26) 
COc1ccc([N-]C(=O)CSc2cc(=O)nc3c(C)n[n-]c3n2)cc1 (protonated)
COc1ccc([N-]C(=O)CSc2cc(=O)nc3c(C)n[n-]c3n2)cc1 (3D coordinates assigned)
COc1ccc([N-]C(=O)CSc2cc(=O)nc3c(C)n[n-]c3n2)cc1 (optimized conformer: 84.4198942340436 kcal/mol)

>  <smiles>  (26) 
COc1ccc(NC(=O)CSc2cc(=O)nc3c(C)n[nH]c3n2)cc1

>  <score_type>  (26) 
oracle

>  <origin>  (26) 
adg

>  <m_score__min__energy>  (26) 
-11.74

>  <m_primary>  (26) 
energy

$$$$
26:0
     RDKit          3D

 56 58  0  0  0  0  0  0  0  0999 V2000
   60.3970   27.5840   47.1530 C   0  0  0  0  0  0  0  0  0  0  0  0
   60.0710   26.9160   45.9550 O   0  0  0  0  0  0  0  0  0  0  0  0
   59.7910   27.8650   44.9470 C   0  0  0  0  0  0  0  0  0  0  0  0
   58.5770   27.4380   44.1030 C   0  0  0  0  0  0  0  0  0  0  0  0
   57.2570   27.7200   44.7110 N   0  0  0  0  0  0  0  0  0  0  0  0
   57.1160   27.2600   46.1070 C   0  0  0  0  0  0  0  0  0  0  0  0
   56.3990   25.9150   46.1610 C   0  0  0  0  0  0  0  0  0  0  0  0
   55.0140   26.1190   45.9690 O   0  0  0  0  0  0  0  0  0  0  0  0
   54.4050   24.9020   45.6100 C   0  0  0  0  0  0  0  0  0  0  0  0
   56.6540   29.3440   44.4110 S   0  0  0  0  0  0  0  0  0  0  0  0
   56.6440   29.5910   42.9260 O   0  0  0  0  0  0  0  0  0  0  0  0
   55.2320   29.4430   44.8940 O   0  0  0  0  0  0  0  0  0  0  0  0
   57.5940   30.6220   45.1990 C   0  0  0  0  0  0  0  0  0  0  0  0
   58.3300   30.3450   46.3750 C   0  0  0  0  0  0  0  0  0  0  0  0
   59.0340   31.3660   47.0310 C   0  0  0  0  0  0  0  0  0  0  0  0
   59.0110   32.6560   46.4890 C   0  0  0  0  0  0  0  0  0  0  0  0
   58.3410   32.9140   45.3220 C   0  0  0  0  0  0  0  0  0  0  0  0
   57.6490   31.9140   44.6380 C   0  0  0  0  0  0  0  0  0  0  0  0
   58.4660   34.3410   44.9670 C   0  0  0  0  0  0  0  0  0  0  0  0
   59.0640   34.9330   46.2650 C   0  0  2  0  0  0  0  0  0  0  0  0
   60.0010   36.1210   45.9920 C   0  0  0  0  0  0  0  0  0  0  0  0
   59.6540   33.8050   47.0500 N   0  0  2  0  0  0  0  0  0  0  0  0
   61.0920   33.6560   46.9160 C   0  0  0  0  0  0  0  0  0  0  0  0
   61.6340   33.8130   45.8300 O   0  0  0  0  0  0  0  0  0  0  0  0
   61.9310   33.1990   48.0790 C   0  0  0  0  0  0  0  0  0  0  0  0
   63.3320   33.7770   48.1970 C   0  0  0  0  0  0  0  0  0  0  0  0
   63.1360   32.3700   47.6580 C   0  0  0  0  0  0  0  0  0  0  0  0
   60.0953   26.9658   48.0113 H   0  0  0  0  0  0  0  0  0  0  0  0
   61.4822   27.7598   47.1912 H   0  0  0  0  0  0  0  0  0  0  0  0
   59.8679   28.5476   47.1912 H   0  0  0  0  0  0  0  0  0  0  0  0
   59.5772   28.8360   45.4176 H   0  0  0  0  0  0  0  0  0  0  0  0
   60.6666   27.9393   44.2854 H   0  0  0  0  0  0  0  0  0  0  0  0
   58.6285   27.9676   43.1402 H   0  0  0  0  0  0  0  0  0  0  0  0
   58.6415   26.3442   44.0064 H   0  0  0  0  0  0  0  0  0  0  0  0
   58.1150   27.1550   46.5553 H   0  0  0  0  0  0  0  0  0  0  0  0
   56.5233   27.9997   46.6652 H   0  0  0  0  0  0  0  0  0  0  0  0
   56.7876   25.2588   45.3683 H   0  0  0  0  0  0  0  0  0  0  0  0
   56.5710   25.4434   47.1398 H   0  0  0  0  0  0  0  0  0  0  0  0
   54.1280   24.3484   46.5193 H   0  0  0  0  0  0  0  0  0  0  0  0
   53.5023   25.1052   45.0151 H   0  0  0  0  0  0  0  0  0  0  0  0
   55.1087   24.3013   45.0151 H   0  0  0  0  0  0  0  0  0  0  0  0
   58.3505   29.3217   46.7780 H   0  0  0  0  0  0  0  0  0  0  0  0
   59.5938   31.1564   47.9544 H   0  0  0  0  0  0  0  0  0  0  0  0
   57.1556   32.1298   43.6789 H   0  0  0  0  0  0  0  0  0  0  0  0
   59.1426   34.4841   44.1116 H   0  0  0  0  0  0  0  0  0  0  0  0
   57.5206   34.8092   44.6556 H   0  0  0  0  0  0  0  0  0  0  0  0
   58.2828   35.3939   46.8873 H   0  0  0  0  0  0  0  0  0  0  0  0
   60.3385   36.5489   46.9475 H   0  0  0  0  0  0  0  0  0  0  0  0
   60.8726   35.7758   45.4166 H   0  0  0  0  0  0  0  0  0  0  0  0
   59.4622   36.8882   45.4166 H   0  0  0  0  0  0  0  0  0  0  0  0
   59.3790   33.8850   48.0570 H   0  0  0  0  0  0  0  0  0  0  0  0
   61.0925   33.0980   48.7838 H   0  0  0  0  0  0  0  0  0  0  0  0
   63.6521   34.5846   47.5222 H   0  0  0  0  0  0  0  0  0  0  0  0
   63.9231   34.2222   49.0109 H   0  0  0  0  0  0  0  0  0  0  0  0
   63.3137   32.1592   46.5931 H   0  0  0  0  0  0  0  0  0  0  0  0
   63.5258   31.3753   47.9199 H   0  0  0  0  0  0  0  0  0  0  0  0
  1  2  1  0
  2  3  1  0
  3  4  1  0
  4  5  1  0
  5  6  1  0
  6  7  1  0
  7  8  1  0
  8  9  1  0
  5 10  1  0
 10 11  2  0
 10 12  2  0
 10 13  1  0
 13 14  2  0
 14 15  1  0
 15 16  2  0
 16 17  1  0
 17 18  2  0
 17 19  1  0
 19 20  1  0
 20 21  1  0
 20 22  1  0
 22 23  1  0
 23 24  2  0
 23 25  1  0
 25 26  1  0
 26 27  1  0
 18 13  1  0
 27 25  1  0
 22 16  1  0
  1 28  1  0
  1 29  1  0
  1 30  1  0
  3 31  1  0
  3 32  1  0
  4 33  1  0
  4 34  1  0
  6 35  1  0
  6 36  1  0
  7 37  1  0
  7 38  1  0
  9 39  1  0
  9 40  1  0
  9 41  1  0
 14 42  1  0
 15 43  1  0
 18 44  1  0
 19 45  1  0
 19 46  1  0
 20 47  1  1
 21 48  1  0
 21 49  1  0
 21 50  1  0
 22 51  1  1
 25 52  1  0
 26 53  1  0
 26 54  1  0
 27 55  1  0
 27 56  1  0
M  CHG  1  22   1
M  END
>  <UniqueID>  (27) 
25

>  <SMILES>  (27) 
COCCN(CCOC)S(=O)(=O)c1ccc2c(c1)C[C@H](C)[N@@H+]2C(=O)C1CC1

>  <Energy>  (27) 
337.94476588004875

>  <Genealogy>  (27) 
COCCN(CCOC)S(=O)(=O)c1ccc2c(c1)CC(C)[NH+]2C(=O)C1CC1 (protonated)
COCCN(CCOC)S(=O)(=O)c1ccc2c(c1)C[C@H](C)[N@@H+]2C(=O)C1CC1 (chirality)
COCCN(CCOC)S(=O)(=O)c1ccc2c(c1)C[C@H](C)[N@@H+]2C(=O)C1CC1 (3D coordinates assigned)
COCCN(CCOC)S(=O)(=O)c1ccc2c(c1)C[C@H](C)[N@@H+]2C(=O)C1CC1 (nonaromatic ring conformer: 337.94476588004875 kcal/mol)

>  <smiles>  (27) 
COCCN(CCOC)S(=O)(=O)c1ccc2c(c1)CC(C)N2C(=O)C1CC1

>  <score_type>  (27) 
oracle

>  <origin>  (27) 
adg

>  <m_score__min__energy>  (27) 
-7.2800000000000002

>  <m_primary>  (27) 
energy

$$$$
27:0
     RDKit          3D

 43 45  0  0  0  0  0  0  0  0999 V2000
   57.0310   24.4570   43.7330 C   0  0  0  0  0  0  0  0  0  0  0  0
   57.7970   24.8590   44.9920 C   0  0  0  0  0  0  0  0  0  0  0  0
   57.1480   26.0550   45.7050 C   0  0  0  0  0  0  0  0  0  0  0  0
   57.3950   27.3110   44.9880 N   0  0  0  0  0  0  0  0  0  0  0  0
   58.2200   28.3700   45.5110 C   0  0  0  0  0  0  0  0  0  0  0  0
   59.4090   28.0470   46.1730 C   0  0  0  0  0  0  0  0  0  0  0  0
   60.2320   29.0470   46.6880 C   0  0  0  0  0  0  0  0  0  0  0  0
   59.9060   30.4080   46.5200 C   0  0  0  0  0  0  0  0  0  0  0  0
   58.6820   30.7410   45.9070 C   0  0  0  0  0  0  0  0  0  0  0  0
   57.8580   29.7230   45.3890 C   0  0  0  0  0  0  0  0  0  0  0  0
   58.2580   32.1540   45.8350 C   0  0  0  0  0  0  0  0  0  0  0  0
   57.1020   32.4330   45.4090 O   0  0  0  0  0  0  0  0  0  0  0  0
   59.1510   33.2090   46.2490 N   0  0  0  0  0  0  0  0  0  0  0  0
   58.7610   34.5990   45.9600 C   0  0  0  0  0  0  0  0  0  0  0  0
   60.5790   32.8770   46.4530 C   0  0  1  0  0  0  0  0  0  0  0  0
   61.3200   33.9520   47.2910 C   0  0  0  0  0  0  0  0  0  0  0  0
   62.6370   33.4270   47.8930 C   0  0  0  0  0  0  0  0  0  0  0  0
   63.1650   32.3230   47.0890 N   0  0  0  0  0  0  0  0  0  0  0  0
   62.2860   31.1400   47.1500 C   0  0  0  0  0  0  0  0  0  0  0  0
   60.7670   31.5000   47.1410 C   0  0  2  0  0  0  0  0  0  0  0  0
   56.0903   23.9633   44.0181 H   0  0  0  0  0  0  0  0  0  0  0  0
   56.8082   25.3544   43.1371 H   0  0  0  0  0  0  0  0  0  0  0  0
   57.6429   23.7638   43.1371 H   0  0  0  0  0  0  0  0  0  0  0  0
   57.8186   24.0031   45.6827 H   0  0  0  0  0  0  0  0  0  0  0  0
   58.8130   25.1541   44.6911 H   0  0  0  0  0  0  0  0  0  0  0  0
   56.0627   25.8872   45.7674 H   0  0  0  0  0  0  0  0  0  0  0  0
   57.5912   26.1390   46.7083 H   0  0  0  0  0  0  0  0  0  0  0  0
   56.9410   27.4590   44.0580 H   0  0  0  0  0  0  0  0  0  0  0  0
   59.6978   26.9919   46.2885 H   0  0  0  0  0  0  0  0  0  0  0  0
   61.1471   28.7707   47.2322 H   0  0  0  0  0  0  0  0  0  0  0  0
   56.9189   29.9900   44.8823 H   0  0  0  0  0  0  0  0  0  0  0  0
   58.6089   35.1412   46.9049 H   0  0  0  0  0  0  0  0  0  0  0  0
   59.5561   35.0898   45.3796 H   0  0  0  0  0  0  0  0  0  0  0  0
   57.8266   34.6045   45.3796 H   0  0  0  0  0  0  0  0  0  0  0  0
   61.0154   32.8421   45.4439 H   0  0  0  0  0  0  0  0  0  0  0  0
   61.5465   34.8107   46.6420 H   0  0  0  0  0  0  0  0  0  0  0  0
   60.6620   34.2375   48.1250 H   0  0  0  0  0  0  0  0  0  0  0  0
   63.3747   34.2427   47.9164 H   0  0  0  0  0  0  0  0  0  0  0  0
   62.4415   33.0626   48.9123 H   0  0  0  0  0  0  0  0  0  0  0  0
   64.1010   32.0560   47.4740 H   0  0  0  0  0  0  0  0  0  0  0  0
   62.4989   30.5013   46.2801 H   0  0  0  0  0  0  0  0  0  0  0  0
   62.4943   30.6273   48.1006 H   0  0  0  0  0  0  0  0  0  0  0  0
   60.4149   31.5733   48.1805 H   0  0  0  0  0  0  0  0  0  0  0  0
  1  2  1  0
  2  3  1  0
  3  4  1  0
  4  5  1  0
  5  6  2  0
  6  7  1  0
  7  8  2  0
  8  9  1  0
  9 10  2  0
  9 11  1  0
 11 12  2  0
 11 13  1  0
 13 14  1  0
 13 15  1  0
 15 16  1  0
 16 17  1  0
 17 18  1  0
 18 19  1  0
 19 20  1  0
 10  5  1  0
 20 15  1  0
 20  8  1  0
  1 21  1  0
  1 22  1  0
  1 23  1  0
  2 24  1  0
  2 25  1  0
  3 26  1  0
  3 27  1  0
  4 28  1  0
  6 29  1  0
  7 30  1  0
 10 31  1  0
 14 32  1  0
 14 33  1  0
 14 34  1  0
 15 35  1  6
 16 36  1  0
 16 37  1  0
 17 38  1  0
 17 39  1  0
 18 40  1  0
 19 41  1  0
 19 42  1  0
 20 43  1  1
M  END
>  <UniqueID>  (28) 
26

>  <SMILES>  (28) 
CCCNc1ccc2c(c1)C(=O)N(C)[C@H]1CCNC[C@H]21

>  <Energy>  (28) 
52.510760489165364

>  <Genealogy>  (28) 
CCCNc1ccc2c(c1)C(=O)N(C)[C@H]1CCNC[C@H]21 (chirality)
CCCNc1ccc2c(c1)C(=O)N(C)[C@H]1CCNC[C@H]21 (3D coordinates assigned)
CCCNc1ccc2c(c1)C(=O)N(C)[C@H]1CCNC[C@H]21 (nonaromatic ring conformer: 52.510760489165364 kcal/mol)

>  <smiles>  (28) 
CCCNc1ccc2c(c1)C(=O)N(C)C1CCNCC21

>  <score_type>  (28) 
oracle

>  <origin>  (28) 
adg

>  <m_score__min__energy>  (28) 
-6.9100000000000001

>  <m_primary>  (28) 
energy

$$$$
28:0
     RDKit          3D

 38 41  0  0  0  0  0  0  0  0999 V2000
   60.5210   27.4760   48.4290 C   0  0  0  0  0  0  0  0  0  0  0  0
   60.3320   27.3030   47.0250 O   0  0  0  0  0  0  0  0  0  0  0  0
   59.1140   27.6570   46.4600 C   0  0  0  0  0  0  0  0  0  0  0  0
   58.1440   26.6970   46.1900 C   0  0  0  0  0  0  0  0  0  0  0  0
   56.9420   27.0790   45.6290 C   0  0  0  0  0  0  0  0  0  0  0  0
   56.7140   28.4260   45.3380 C   0  0  0  0  0  0  0  0  0  0  0  0
   55.6500   29.0430   44.8000 N   0  0  0  0  0  0  0  0  0  0  0  0
   55.9440   30.3290   44.7390 N   0  0  0  0  0  0  0  0  0  0  0  0
   57.1870   30.5700   45.2270 C   0  0  0  0  0  0  0  0  0  0  0  0
   57.8420   31.8720   45.3150 C   0  0  0  0  0  0  0  0  0  0  0  0
   57.2410   33.0450   44.8960 C   0  0  0  0  0  0  0  0  0  0  0  0
   57.9050   34.2630   44.9980 C   0  0  0  0  0  0  0  0  0  0  0  0
   59.1920   34.3310   45.5230 C   0  0  0  0  0  0  0  0  0  0  0  0
   59.8000   33.1650   45.9430 C   0  0  0  0  0  0  0  0  0  0  0  0
   61.1110   33.1320   46.4940 N   0  0  0  0  0  0  0  0  0  0  0  0
   61.4920   32.3720   47.5250 C   0  0  0  0  0  0  0  0  0  0  0  0
   62.8200   32.6410   47.7310 C   0  0  0  0  0  0  0  0  0  0  0  0
   63.7200   32.0580   48.7610 C   0  0  0  0  0  0  0  0  0  0  0  0
   63.2100   33.5520   46.8270 N   0  0  0  0  0  0  0  0  0  0  0  0
   62.1700   33.8310   46.0960 N   0  0  0  0  0  0  0  0  0  0  0  0
   59.1090   31.9680   45.8270 C   0  0  0  0  0  0  0  0  0  0  0  0
   57.7070   29.3460   45.6240 C   0  0  0  0  0  0  0  0  0  0  0  0
   58.9100   28.9900   46.1810 C   0  0  0  0  0  0  0  0  0  0  0  0
   59.8170   26.8316   48.9759 H   0  0  0  0  0  0  0  0  0  0  0  0
   61.5523   27.2024   48.6966 H   0  0  0  0  0  0  0  0  0  0  0  0
   60.3394   28.5274   48.6966 H   0  0  0  0  0  0  0  0  0  0  0  0
   58.3339   25.6387   46.4224 H   0  0  0  0  0  0  0  0  0  0  0  0
   56.1686   26.3274   45.4125 H   0  0  0  0  0  0  0  0  0  0  0  0
   54.7630   28.5690   44.4950 H   0  0  0  0  0  0  0  0  0  0  0  0
   56.2246   33.0144   44.4766 H   0  0  0  0  0  0  0  0  0  0  0  0
   57.4068   35.1835   44.6596 H   0  0  0  0  0  0  0  0  0  0  0  0
   59.7149   35.2956   45.6018 H   0  0  0  0  0  0  0  0  0  0  0  0
   60.8649   31.6705   48.0947 H   0  0  0  0  0  0  0  0  0  0  0  0
   63.3390   32.3048   49.7629 H   0  0  0  0  0  0  0  0  0  0  0  0
   63.7551   30.9651   48.6410 H   0  0  0  0  0  0  0  0  0  0  0  0
   64.7317   32.4727   48.6410 H   0  0  0  0  0  0  0  0  0  0  0  0
   59.6051   31.0460   46.1643 H   0  0  0  0  0  0  0  0  0  0  0  0
   59.6831   29.7422   46.3967 H   0  0  0  0  0  0  0  0  0  0  0  0
  1  2  1  0
  2  3  1  0
  3  4  2  0
  4  5  1  0
  5  6  2  0
  6  7  1  0
  7  8  1  0
  8  9  2  0
  9 10  1  0
 10 11  2  0
 11 12  1  0
 12 13  2  0
 13 14  1  0
 14 15  1  0
 15 16  1  0
 16 17  2  0
 17 18  1  0
 17 19  1  0
 19 20  2  0
 14 21  2  0
  9 22  1  0
 22 23  2  0
 23  3  1  0
 22  6  1  0
 21 10  1  0
 20 15  1  0
  1 24  1  0
  1 25  1  0
  1 26  1  0
  4 27  1  0
  5 28  1  0
  7 29  1  0
 11 30  1  0
 12 31  1  0
 13 32  1  0
 16 33  1  0
 18 34  1  0
 18 35  1  0
 18 36  1  0
 21 37  1  0
 23 38  1  0
M  END
>  <smiles>  (29) 
COc1ccc2[nH]nc(-c3cccc(-n4cc(C)nn4)c3)c2c1

>  <score_type>  (29) 
oracle

>  <origin>  (29) 
adg

>  <m_score__min__energy>  (29) 
-8.8699999999999992

>  <m_primary>  (29) 
energy

$$$$
29:0
     RDKit          3D

 40 42  0  0  0  0  0  0  0  0999 V2000
   56.3190   23.0060   48.1860 C   0  0  0  0  0  0  0  0  0  0  0  0
   57.3590   23.9630   48.0100 O   0  0  0  0  0  0  0  0  0  0  0  0
   57.5080   24.7770   46.8750 C   0  0  0  0  0  0  0  0  0  0  0  0
   57.2590   26.1620   46.9120 C   0  0  0  0  0  0  0  0  0  0  0  0
   57.4130   26.9450   45.7610 C   0  0  0  0  0  0  0  0  0  0  0  0
   57.8290   26.3490   44.5640 C   0  0  0  0  0  0  0  0  0  0  0  0
   58.0790   24.9680   44.5220 C   0  0  0  0  0  0  0  0  0  0  0  0
   57.9170   24.1770   45.6760 C   0  0  0  0  0  0  0  0  0  0  0  0
   58.1560   22.7940   45.6700 O   0  0  0  0  0  0  0  0  0  0  0  0
   58.5560   22.0460   44.5260 C   0  0  0  0  0  0  0  0  0  0  0  0
   58.0180   27.2030   43.3810 C   0  0  0  0  0  0  0  0  0  0  0  0
   58.4460   26.7200   42.2980 O   0  0  0  0  0  0  0  0  0  0  0  0
   57.7290   28.6010   43.4650 N   0  0  0  0  0  0  0  0  0  0  0  0
   57.0060   29.1780   44.6040 C   0  0  2  0  0  0  0  0  0  0  0  0
   57.5160   30.5750   44.8700 C   0  0  0  0  0  0  0  0  0  0  0  0
   58.1390   30.8790   46.0920 C   0  0  0  0  0  0  0  0  0  0  0  0
   58.6120   32.1690   46.3420 C   0  0  0  0  0  0  0  0  0  0  0  0
   58.4600   33.1780   45.3790 C   0  0  0  0  0  0  0  0  0  0  0  0
   59.0040   34.5530   45.6320 C   0  0  0  0  0  0  0  0  0  0  0  0
   57.8550   32.8730   44.1510 C   0  0  0  0  0  0  0  0  0  0  0  0
   57.3800   31.5810   43.9000 C   0  0  0  0  0  0  0  0  0  0  0  0
   57.1580   28.3580   45.8120 N   0  0  0  0  0  0  0  0  0  0  0  0
   56.1456   22.8464   49.2605 H   0  0  0  0  0  0  0  0  0  0  0  0
   55.3959   23.3771   47.7167 H   0  0  0  0  0  0  0  0  0  0  0  0
   56.6123   22.0553   47.7167 H   0  0  0  0  0  0  0  0  0  0  0  0
   56.9406   26.6336   47.8534 H   0  0  0  0  0  0  0  0  0  0  0  0
   58.4038   24.5004   43.5808 H   0  0  0  0  0  0  0  0  0  0  0  0
   59.0518   21.1188   44.8492 H   0  0  0  0  0  0  0  0  0  0  0  0
   57.6705   21.7972   43.9226 H   0  0  0  0  0  0  0  0  0  0  0  0
   59.2546   22.6443   43.9226 H   0  0  0  0  0  0  0  0  0  0  0  0
   57.8660   29.1880   42.6100 H   0  0  0  0  0  0  0  0  0  0  0  0
   55.9364   29.2091   44.3489 H   0  0  0  0  0  0  0  0  0  0  0  0
   58.2549   30.0964   46.8563 H   0  0  0  0  0  0  0  0  0  0  0  0
   59.1061   32.3951   47.2984 H   0  0  0  0  0  0  0  0  0  0  0  0
   59.0726   34.7264   46.7161 H   0  0  0  0  0  0  0  0  0  0  0  0
   60.0043   34.6400   45.1827 H   0  0  0  0  0  0  0  0  0  0  0  0
   58.3340   35.3008   45.1827 H   0  0  0  0  0  0  0  0  0  0  0  0
   57.7535   33.6528   43.3819 H   0  0  0  0  0  0  0  0  0  0  0  0
   56.8977   31.3524   42.9382 H   0  0  0  0  0  0  0  0  0  0  0  0
   56.8740   28.7800   46.7250 H   0  0  0  0  0  0  0  0  0  0  0  0
  1  2  1  0
  2  3  1  0
  3  4  2  0
  4  5  1  0
  5  6  2  0
  6  7  1  0
  7  8  2  0
  8  9  1  0
  9 10  1  0
  6 11  1  0
 11 12  2  0
 11 13  1  0
 13 14  1  0
 14 15  1  0
 15 16  2  0
 16 17  1  0
 17 18  2  0
 18 19  1  0
 18 20  1  0
 20 21  2  0
 14 22  1  0
  8  3  1  0
 21 15  1  0
 22  5  1  0
  1 23  1  0
  1 24  1  0
  1 25  1  0
  4 26  1  0
  7 27  1  0
 10 28  1  0
 10 29  1  0
 10 30  1  0
 13 31  1  0
 14 32  1  6
 16 33  1  0
 17 34  1  0
 19 35  1  0
 19 36  1  0
 19 37  1  0
 20 38  1  0
 21 39  1  0
 22 40  1  0
M  END
>  <UniqueID>  (30) 
27

>  <SMILES>  (30) 
COc1cc2c(cc1OC)C(=O)N[C@H](c1ccc(C)cc1)N2

>  <Energy>  (30) 
41.12150969710491

>  <Genealogy>  (30) 
COc1cc2c(cc1OC)C(=O)N[C@H](c1ccc(C)cc1)N2 (chirality)
COc1cc2c(cc1OC)C(=O)N[C@H](c1ccc(C)cc1)N2 (3D coordinates assigned)
COc1cc2c(cc1OC)C(=O)N[C@H](c1ccc(C)cc1)N2 (nonaromatic ring conformer: 41.12150969710491 kcal/mol)

>  <smiles>  (30) 
COc1cc2c(cc1OC)C(=O)NC(c1ccc(C)cc1)N2

>  <score_type>  (30) 
oracle

>  <origin>  (30) 
adg

>  <m_score__min__energy>  (30) 
-6.6399999999999997

>  <m_primary>  (30) 
energy

$$$$
30:0
     RDKit          3D

 44 45  0  0  0  0  0  0  0  0999 V2000
   60.7150   29.9600   46.3520 C   0  0  0  0  0  0  0  0  0  0  0  0
   59.3730   29.7760   47.0540 C   0  0  0  0  0  0  0  0  0  0  0  0
   58.5290   28.8250   46.3230 N   0  0  0  0  0  0  0  0  0  0  0  0
   58.1030   27.5810   46.9770 C   0  0  0  0  0  0  0  0  0  0  0  0
   59.2900   26.6480   47.1960 C   0  0  0  0  0  0  0  0  0  0  0  0
   57.8140   29.2710   45.1580 C   0  0  0  0  0  0  0  0  0  0  0  0
   57.0670   30.4060   45.2450 N   0  0  0  0  0  0  0  0  0  0  0  0
   56.3110   30.8570   44.2120 C   0  0  0  0  0  0  0  0  0  0  0  0
   56.2610   30.1390   43.0200 C   0  0  0  0  0  0  0  0  0  0  0  0
   57.0040   28.9650   42.8980 C   0  0  0  0  0  0  0  0  0  0  0  0
   57.8110   28.5200   43.9570 C   0  0  0  0  0  0  0  0  0  0  0  0
   58.6150   27.2440   43.7950 C   0  0  0  0  0  0  0  0  0  0  0  0
   57.7740   26.0930   43.4100 N   0  0  0  0  0  0  0  0  0  0  0  0
   57.4800   25.2010   44.5440 C   0  0  0  0  0  0  0  0  0  0  0  0
   57.3730   23.7710   44.0740 C   0  0  0  0  0  0  0  0  0  0  0  0
   56.4300   23.4250   43.0910 C   0  0  0  0  0  0  0  0  0  0  0  0
   56.3480   22.1100   42.6240 C   0  0  0  0  0  0  0  0  0  0  0  0
   57.2110   21.1340   43.1250 C   0  0  0  0  0  0  0  0  0  0  0  0
   58.1630   21.4720   44.0900 C   0  0  0  0  0  0  0  0  0  0  0  0
   58.2510   22.7860   44.5620 C   0  0  0  0  0  0  0  0  0  0  0  0
   59.1940   23.0960   45.4880 F   0  0  0  0  0  0  0  0  0  0  0  0
   61.5103   30.0690   47.1041 H   0  0  0  0  0  0  0  0  0  0  0  0
   60.9231   29.0820   45.7229 H   0  0  0  0  0  0  0  0  0  0  0  0
   60.6791   30.8616   45.7229 H   0  0  0  0  0  0  0  0  0  0  0  0
   59.5473   29.3955   48.0713 H   0  0  0  0  0  0  0  0  0  0  0  0
   58.8585   30.7476   47.0915 H   0  0  0  0  0  0  0  0  0  0  0  0
   57.6501   27.8223   47.9499 H   0  0  0  0  0  0  0  0  0  0  0  0
   57.3726   27.0749   46.3286 H   0  0  0  0  0  0  0  0  0  0  0  0
   59.4582   26.5158   48.2750 H   0  0  0  0  0  0  0  0  0  0  0  0
   59.0788   25.6716   46.7355 H   0  0  0  0  0  0  0  0  0  0  0  0
   60.1888   27.0839   46.7355 H   0  0  0  0  0  0  0  0  0  0  0  0
   55.7377   31.7899   44.3165 H   0  0  0  0  0  0  0  0  0  0  0  0
   55.6418   30.4941   42.1831 H   0  0  0  0  0  0  0  0  0  0  0  0
   56.9573   28.3836   41.9654 H   0  0  0  0  0  0  0  0  0  0  0  0
   59.3752   27.4022   43.0159 H   0  0  0  0  0  0  0  0  0  0  0  0
   59.0754   27.0124   44.7668 H   0  0  0  0  0  0  0  0  0  0  0  0
   58.2920   25.5490   42.6810 H   0  0  0  0  0  0  0  0  0  0  0  0
   56.8760   26.4230   42.9920 H   0  0  0  0  0  0  0  0  0  0  0  0
   58.2884   25.2792   45.2858 H   0  0  0  0  0  0  0  0  0  0  0  0
   56.5228   25.5010   44.9953 H   0  0  0  0  0  0  0  0  0  0  0  0
   55.7533   24.1925   42.6872 H   0  0  0  0  0  0  0  0  0  0  0  0
   55.6022   21.8439   41.8605 H   0  0  0  0  0  0  0  0  0  0  0  0
   57.1415   20.0987   42.7600 H   0  0  0  0  0  0  0  0  0  0  0  0
   58.8455   20.7025   44.4799 H   0  0  0  0  0  0  0  0  0  0  0  0
  1  2  1  0
  2  3  1  0
  3  4  1  0
  4  5  1  0
  3  6  1  0
  6  7  2  0
  7  8  1  0
  8  9  2  0
  9 10  1  0
 10 11  2  0
 11 12  1  0
 12 13  1  0
 13 14  1  0
 14 15  1  0
 15 16  2  0
 16 17  1  0
 17 18  2  0
 18 19  1  0
 19 20  2  0
 20 21  1  0
 11  6  1  0
 20 15  1  0
  1 22  1  0
  1 23  1  0
  1 24  1  0
  2 25  1  0
  2 26  1  0
  4 27  1  0
  4 28  1  0
  5 29  1  0
  5 30  1  0
  5 31  1  0
  8 32  1  0
  9 33  1  0
 10 34  1  0
 12 35  1  0
 12 36  1  0
 13 37  1  0
 13 38  1  0
 14 39  1  0
 14 40  1  0
 16 41  1  0
 17 42  1  0
 18 43  1  0
 19 44  1  0
M  CHG  1  13   1
M  END
>  <UniqueID>  (31) 
28

>  <SMILES>  (31) 
CCN(CC)c1ncccc1C[NH2+]Cc1ccccc1F

>  <Energy>  (31) 
44.63961319890127

>  <Genealogy>  (31) 
CCN(CC)c1ncccc1C[NH2+]Cc1ccccc1F (protonated)
CCN(CC)c1ncccc1C[NH2+]Cc1ccccc1F (3D coordinates assigned)
CCN(CC)c1ncccc1C[NH2+]Cc1ccccc1F (optimized conformer: 44.63961319890127 kcal/mol)

>  <smiles>  (31) 
CCN(CC)c1ncccc1CNCc1ccccc1F

>  <score_type>  (31) 
oracle

>  <origin>  (31) 
adg

>  <m_score__min__energy>  (31) 
-4.8499999999999996

>  <m_primary>  (31) 
energy

$$$$
31:0
     RDKit          3D

 41 44  0  0  0  0  0  0  0  0999 V2000
   57.6230   32.3240   42.1440 C   0  0  0  0  0  0  0  0  0  0  0  0
   58.0250   31.8690   43.5100 C   0  0  0  0  0  0  0  0  0  0  0  0
   58.6240   30.6930   43.7710 N   0  0  0  0  0  0  0  0  0  0  0  0
   58.9370   30.6500   45.0570 N   0  0  0  0  0  0  0  0  0  0  0  0
   59.6900   29.5550   45.6720 C   0  0  0  0  0  0  0  0  0  0  0  0
   58.7810   28.3860   45.9390 C   0  0  0  0  0  0  0  0  0  0  0  0
   59.2270   27.2930   46.6970 C   0  0  0  0  0  0  0  0  0  0  0  0
   58.3880   26.1980   46.9190 C   0  0  0  0  0  0  0  0  0  0  0  0
   57.0880   26.1760   46.3850 C   0  0  0  0  0  0  0  0  0  0  0  0
   56.1980   25.0160   46.6180 C   0  0  0  0  0  0  0  0  0  0  0  0
   56.5120   24.0030   47.4710 N   0  0  0  0  0  0  0  0  0  0  0  0
   55.4490   23.1940   47.3720 C   0  0  0  0  0  0  0  0  0  0  0  0
   55.2300   21.9880   48.0350 C   0  0  0  0  0  0  0  0  0  0  0  0
   54.0260   21.3080   47.7680 C   0  0  0  0  0  0  0  0  0  0  0  0
   53.0880   21.8440   46.8580 C   0  0  0  0  0  0  0  0  0  0  0  0
   53.3450   23.0660   46.2070 C   0  0  0  0  0  0  0  0  0  0  0  0
   54.5460   23.7100   46.4960 C   0  0  0  0  0  0  0  0  0  0  0  0
   54.9940   24.8710   45.9990 N   0  0  0  0  0  0  0  0  0  0  0  0
   56.6450   27.2720   45.6240 C   0  0  0  0  0  0  0  0  0  0  0  0
   57.4860   28.3660   45.4030 C   0  0  0  0  0  0  0  0  0  0  0  0
   58.5510   31.8090   45.6410 C   0  0  0  0  0  0  0  0  0  0  0  0
   58.8410   32.2080   47.0560 C   0  0  0  0  0  0  0  0  0  0  0  0
   57.9770   32.6160   44.6720 C   0  0  0  0  0  0  0  0  0  0  0  0
   57.4010   34.2650   44.8530 Cl  0  0  0  0  0  0  0  0  0  0  0  0
   56.8969   33.1458   42.2302 H   0  0  0  0  0  0  0  0  0  0  0  0
   58.5112   32.6752   41.5983 H   0  0  0  0  0  0  0  0  0  0  0  0
   57.1651   31.4858   41.5983 H   0  0  0  0  0  0  0  0  0  0  0  0
   58.8470   29.9440   43.0770 H   0  0  0  0  0  0  0  0  0  0  0  0
   60.4957   29.2411   44.9921 H   0  0  0  0  0  0  0  0  0  0  0  0
   60.1169   29.9029   46.6242 H   0  0  0  0  0  0  0  0  0  0  0  0
   60.2429   27.2981   47.1189 H   0  0  0  0  0  0  0  0  0  0  0  0
   58.7475   25.3469   47.5160 H   0  0  0  0  0  0  0  0  0  0  0  0
   55.9700   21.5823   48.7406 H   0  0  0  0  0  0  0  0  0  0  0  0
   53.8146   20.3531   48.2715 H   0  0  0  0  0  0  0  0  0  0  0  0
   52.1512   21.3037   46.6567 H   0  0  0  0  0  0  0  0  0  0  0  0
   52.6239   23.4962   45.4964 H   0  0  0  0  0  0  0  0  0  0  0  0
   55.6301   27.2684   45.1999 H   0  0  0  0  0  0  0  0  0  0  0  0
   57.1293   29.2171   44.8044 H   0  0  0  0  0  0  0  0  0  0  0  0
   58.3362   31.5135   47.7436 H   0  0  0  0  0  0  0  0  0  0  0  0
   59.9264   32.1737   47.2315 H   0  0  0  0  0  0  0  0  0  0  0  0
   58.4733   33.2298   47.2315 H   0  0  0  0  0  0  0  0  0  0  0  0
  1  2  1  0
  2  3  2  0
  3  4  1  0
  4  5  1  0
  5  6  1  0
  6  7  2  0
  7  8  1  0
  8  9  2  0
  9 10  1  0
 10 11  2  0
 11 12  1  0
 12 13  2  0
 13 14  1  0
 14 15  2  0
 15 16  1  0
 16 17  2  0
 17 18  1  0
  9 19  1  0
 19 20  2  0
  4 21  1  0
 21 22  1  0
 21 23  2  0
 23 24  1  0
 23  2  1  0
 20  6  1  0
 18 10  1  0
 17 12  1  0
  1 25  1  0
  1 26  1  0
  1 27  1  0
  3 28  1  0
  5 29  1  0
  5 30  1  0
  7 31  1  0
  8 32  1  0
 13 33  1  0
 14 34  1  0
 15 35  1  0
 16 36  1  0
 19 37  1  0
 20 38  1  0
 22 39  1  0
 22 40  1  0
 22 41  1  0
M  CHG  2   3   1  18  -1
M  END
>  <UniqueID>  (32) 
29

>  <SMILES>  (32) 
Cc1[nH+]n(Cc2ccc(-c3nc4ccccc4[n-]3)cc2)c(C)c1Cl

>  <Energy>  (32) 
108.24320236022928

>  <Genealogy>  (32) 
Cc1[nH+]n(Cc2ccc(-c3nc4ccccc4[n-]3)cc2)c(C)c1Cl (protonated)
Cc1[nH+]n(Cc2ccc(-c3nc4ccccc4[n-]3)cc2)c(C)c1Cl (3D coordinates assigned)
Cc1[nH+]n(Cc2ccc(-c3nc4ccccc4[n-]3)cc2)c(C)c1Cl (optimized conformer: 108.24320236022928 kcal/mol)

>  <smiles>  (32) 
Cc1nn(Cc2ccc(-c3nc4ccccc4[nH]3)cc2)c(C)c1Cl

>  <score_type>  (32) 
oracle

>  <origin>  (32) 
adg

>  <m_score__min__energy>  (32) 
-7.8200000000000003

>  <m_primary>  (32) 
energy

$$$$
32:0
     RDKit          3D

 49 51  0  0  0  0  0  0  0  0999 V2000
   58.9870   33.6540   47.0330 C   0  0  0  0  0  0  0  0  0  0  0  0
   57.7890   32.7320   47.2320 C   0  0  0  0  0  0  0  0  0  0  0  0
   57.8720   31.6000   46.3680 O   0  0  0  0  0  0  0  0  0  0  0  0
   57.7260   31.6210   44.9690 C   0  0  0  0  0  0  0  0  0  0  0  0
   58.1380   32.7170   44.1840 C   0  0  0  0  0  0  0  0  0  0  0  0
   57.9680   32.6940   42.7970 C   0  0  0  0  0  0  0  0  0  0  0  0
   57.3870   31.5860   42.1810 C   0  0  0  0  0  0  0  0  0  0  0  0
   56.9720   30.4970   42.9490 C   0  0  0  0  0  0  0  0  0  0  0  0
   57.1350   30.5080   44.3480 C   0  0  0  0  0  0  0  0  0  0  0  0
   56.7240   29.4360   45.1590 O   0  0  0  0  0  0  0  0  0  0  0  0
   57.0230   28.0590   44.9230 C   0  0  0  0  0  0  0  0  0  0  0  0
   56.9020   27.2670   46.1880 C   0  0  0  0  0  0  0  0  0  0  0  0
   55.8840   26.5510   46.3790 O   0  0  0  0  0  0  0  0  0  0  0  0
   57.9840   27.2670   47.1270 N   0  0  0  0  0  0  0  0  0  0  0  0
   58.9080   28.3420   47.3520 C   0  0  0  0  0  0  0  0  0  0  0  0
   58.9060   29.0860   48.5440 C   0  0  0  0  0  0  0  0  0  0  0  0
   59.8020   30.1450   48.7140 C   0  0  0  0  0  0  0  0  0  0  0  0
   60.7060   30.4860   47.6960 C   0  0  0  0  0  0  0  0  0  0  0  0
   61.6220   31.5820   47.8760 N   0  0  0  0  0  0  0  0  0  0  0  0
   61.4730   32.4780   49.0270 C   0  0  0  0  0  0  0  0  0  0  0  0
   62.0320   33.8610   48.6790 C   0  0  0  0  0  0  0  0  0  0  0  0
   63.3530   33.7600   48.1820 O   0  0  0  0  0  0  0  0  0  0  0  0
   63.3500   33.0560   46.9540 C   0  0  0  0  0  0  0  0  0  0  0  0
   62.9000   31.6060   47.1580 C   0  0  0  0  0  0  0  0  0  0  0  0
   60.6850   29.7570   46.4940 C   0  0  0  0  0  0  0  0  0  0  0  0
   59.7880   28.6980   46.3240 C   0  0  0  0  0  0  0  0  0  0  0  0
   59.3823   33.9583   48.0134 H   0  0  0  0  0  0  0  0  0  0  0  0
   59.7692   33.1227   46.4710 H   0  0  0  0  0  0  0  0  0  0  0  0
   58.6737   34.5462   46.4710 H   0  0  0  0  0  0  0  0  0  0  0  0
   57.7685   32.3877   48.2765 H   0  0  0  0  0  0  0  0  0  0  0  0
   56.8713   33.2901   46.9947 H   0  0  0  0  0  0  0  0  0  0  0  0
   58.5953   33.5941   44.6652 H   0  0  0  0  0  0  0  0  0  0  0  0
   58.2932   33.5517   42.1899 H   0  0  0  0  0  0  0  0  0  0  0  0
   57.2557   31.5703   41.0890 H   0  0  0  0  0  0  0  0  0  0  0  0
   56.5149   29.6248   42.4587 H   0  0  0  0  0  0  0  0  0  0  0  0
   56.3194   27.6592   44.1779 H   0  0  0  0  0  0  0  0  0  0  0  0
   58.0560   27.9796   44.5534 H   0  0  0  0  0  0  0  0  0  0  0  0
   58.1967   28.8340   49.3461 H   0  0  0  0  0  0  0  0  0  0  0  0
   59.7987   30.7163   49.6540 H   0  0  0  0  0  0  0  0  0  0  0  0
   60.4075   32.5684   49.2848 H   0  0  0  0  0  0  0  0  0  0  0  0
   62.0262   32.0661   49.8839 H   0  0  0  0  0  0  0  0  0  0  0  0
   61.3934   34.3256   47.9132 H   0  0  0  0  0  0  0  0  0  0  0  0
   62.0453   34.4751   49.5915 H   0  0  0  0  0  0  0  0  0  0  0  0
   62.6603   33.5525   46.2556 H   0  0  0  0  0  0  0  0  0  0  0  0
   64.3720   33.0536   46.5471 H   0  0  0  0  0  0  0  0  0  0  0  0
   62.7786   31.1196   46.1789 H   0  0  0  0  0  0  0  0  0  0  0  0
   63.6585   31.0683   47.7459 H   0  0  0  0  0  0  0  0  0  0  0  0
   61.3786   30.0214   45.6822 H   0  0  0  0  0  0  0  0  0  0  0  0
   59.7740   28.1409   45.3756 H   0  0  0  0  0  0  0  0  0  0  0  0
  1  2  1  0
  2  3  1  0
  3  4  1  0
  4  5  2  0
  5  6  1  0
  6  7  2  0
  7  8  1  0
  8  9  2  0
  9 10  1  0
 10 11  1  0
 11 12  1  0
 12 13  2  0
 12 14  1  0
 14 15  1  0
 15 16  2  0
 16 17  1  0
 17 18  2  0
 18 19  1  0
 19 20  1  0
 20 21  1  0
 21 22  1  0
 22 23  1  0
 23 24  1  0
 18 25  1  0
 25 26  2  0
  9  4  1  0
 26 15  1  0
 24 19  1  0
  1 27  1  0
  1 28  1  0
  1 29  1  0
  2 30  1  0
  2 31  1  0
  5 32  1  0
  6 33  1  0
  7 34  1  0
  8 35  1  0
 11 36  1  0
 11 37  1  0
 16 38  1  0
 17 39  1  0
 20 40  1  0
 20 41  1  0
 21 42  1  0
 21 43  1  0
 23 44  1  0
 23 45  1  0
 24 46  1  0
 24 47  1  0
 25 48  1  0
 26 49  1  0
M  CHG  1  14  -1
M  END
>  <UniqueID>  (33) 
30

>  <SMILES>  (33) 
CCOc1ccccc1OCC(=O)[N-]c1ccc(N2CCOCC2)cc1

>  <Energy>  (33) 
55.65253959491059

>  <Genealogy>  (33) 
CCOc1ccccc1OCC(=O)[N-]c1ccc(N2CCOCC2)cc1 (protonated)
CCOc1ccccc1OCC(=O)[N-]c1ccc(N2CCOCC2)cc1 (3D coordinates assigned)
CCOc1ccccc1OCC(=O)[N-]c1ccc(N2CCOCC2)cc1 (nonaromatic ring conformer: 55.65253959491059 kcal/mol)

>  <smiles>  (33) 
CCOc1ccccc1OCC(=O)Nc1ccc(N2CCOCC2)cc1

>  <score_type>  (33) 
oracle

>  <origin>  (33) 
adg

>  <m_score__min__energy>  (33) 
-9.8000000000000007

>  <m_primary>  (33) 
energy

$$$$
33:0
     RDKit          3D

 28 29  0  0  0  0  0  0  0  0999 V2000
   60.8153   34.3554   44.9472 H   0  0  0  0  0  0  0  0  0  0  0  0
   60.0050   34.2680   45.6860 C   0  0  0  0  0  0  0  0  0  0  0  0
   60.3720   34.3780   47.1150 C   0  0  0  0  0  0  0  0  0  0  0  0
   59.5730   34.9670   47.8920 O   0  0  0  0  0  0  0  0  0  0  0  0
   61.6490   33.8610   47.6570 C   0  0  0  0  0  0  0  0  0  0  0  0
   61.9090   33.8690   49.0370 C   0  0  0  0  0  0  0  0  0  0  0  0
   61.1503   34.2487   49.7371 H   0  0  0  0  0  0  0  0  0  0  0  0
   63.1280   33.3960   49.5200 C   0  0  0  0  0  0  0  0  0  0  0  0
   63.3404   33.4115   50.5992 H   0  0  0  0  0  0  0  0  0  0  0  0
   64.0760   32.9030   48.6240 C   0  0  0  0  0  0  0  0  0  0  0  0
   65.0428   32.5329   48.9959 H   0  0  0  0  0  0  0  0  0  0  0  0
   63.8070   32.8790   47.2900 N   0  0  0  0  0  0  0  0  0  0  0  0
   64.5260   32.5030   46.6310 H   0  0  0  0  0  0  0  0  0  0  0  0
   62.6250   33.3370   46.7940 C   0  0  0  0  0  0  0  0  0  0  0  0
   62.4334   33.2964   45.7116 H   0  0  0  0  0  0  0  0  0  0  0  0
   58.7620   34.0700   45.2190 C   0  0  0  0  0  0  0  0  0  0  0  0
   58.0737   34.9280   45.2182 H   0  0  0  0  0  0  0  0  0  0  0  0
   58.2530   32.7810   44.7060 C   0  0  0  0  0  0  0  0  0  0  0  0
   57.8330   32.7130   43.3670 C   0  0  0  0  0  0  0  0  0  0  0  0
   57.8610   33.6154   42.7386 H   0  0  0  0  0  0  0  0  0  0  0  0
   57.3800   31.5060   42.8290 C   0  0  0  0  0  0  0  0  0  0  0  0
   57.0709   31.4566   41.7745 H   0  0  0  0  0  0  0  0  0  0  0  0
   57.3190   30.3630   43.6270 C   0  0  0  0  0  0  0  0  0  0  0  0
   56.9754   29.4105   43.1972 H   0  0  0  0  0  0  0  0  0  0  0  0
   57.6940   30.4270   44.9720 C   0  0  0  0  0  0  0  0  0  0  0  0
   57.6301   29.5273   45.6016 H   0  0  0  0  0  0  0  0  0  0  0  0
   58.1510   31.6320   45.5220 C   0  0  0  0  0  0  0  0  0  0  0  0
   58.5250   31.6750   47.2410 Cl  0  0  0  0  0  0  0  0  0  0  0  0
  1  2  1  0
  2  3  1  0
  3  4  2  0
  3  5  1  0
  5  6  2  0
  6  7  1  0
  6  8  1  0
  8  9  1  0
  8 10  2  0
 10 11  1  0
 10 12  1  0
 12 13  1  0
 12 14  2  0
 14 15  1  0
  2 16  2  0
 16 17  1  0
 16 18  1  0
 18 19  2  0
 19 20  1  0
 19 21  1  0
 21 22  1  0
 21 23  2  0
 23 24  1  0
 23 25  1  0
 25 26  1  0
 25 27  2  0
 27 28  1  0
 14  5  1  0
 27 18  1  0
M  CHG  1  12   1
M  END
>  <UniqueID>  (34) 
31

>  <SMILES>  (34) 
O=C(/C=C\c1ccccc1Cl)c1ccc[nH+]c1

>  <Energy>  (34) 
40.93042274050467

>  <Genealogy>  (34) 
O=C(C=Cc1ccccc1Cl)c1ccc[nH+]c1 (protonated)
O=C(/C=C\c1ccccc1Cl)c1ccc[nH+]c1 (cis-trans isomerization)
O=C(/C=C\c1ccccc1Cl)c1ccc[nH+]c1 (3D coordinates assigned)
O=C(/C=C\c1ccccc1Cl)c1ccc[nH+]c1 (optimized conformer: 40.93042274050467 kcal/mol)

>  <smiles>  (34) 
O=C(C=Cc1ccccc1Cl)c1cccnc1

>  <score_type>  (34) 
oracle

>  <origin>  (34) 
adg

>  <m_score__min__energy>  (34) 
-5.5700000000000003

>  <m_primary>  (34) 
energy

$$$$
34:0
     RDKit          3D

 49 52  0  0  0  0  0  0  0  0999 V2000
   59.6947   32.3644   49.1116 H   0  0  0  0  0  0  0  0  0  0  0  0
   59.1790   31.9350   48.2400 C   0  0  0  0  0  0  0  0  0  0  0  0
   58.8940   30.6280   48.2550 C   0  0  0  0  0  0  0  0  0  0  0  0
   57.9885   30.2834   48.7758 H   0  0  0  0  0  0  0  0  0  0  0  0
   59.7810   29.6150   47.5770 C   0  0  0  0  0  0  0  0  0  0  0  0
   60.6291   29.3947   48.2420 H   0  0  0  0  0  0  0  0  0  0  0  0
   60.1026   30.0552   46.6216 H   0  0  0  0  0  0  0  0  0  0  0  0
   59.0900   28.3400   47.2590 N   0  0  0  0  0  0  0  0  0  0  0  0
   59.6730   27.2070   48.0010 C   0  0  0  0  0  0  0  0  0  0  0  0
   59.7364   27.4617   49.0692 H   0  0  0  0  0  0  0  0  0  0  0  0
   60.6809   26.9948   47.6150 H   0  0  0  0  0  0  0  0  0  0  0  0
   58.8500   26.0600   47.8350 O   0  0  0  0  0  0  0  0  0  0  0  0
   58.3240   25.7360   46.5850 C   0  0  0  0  0  0  0  0  0  0  0  0
   57.7470   24.4750   46.3790 C   0  0  0  0  0  0  0  0  0  0  0  0
   57.6790   23.5840   47.4620 O   0  0  0  0  0  0  0  0  0  0  0  0
   56.4710   23.1840   48.1010 C   0  0  0  0  0  0  0  0  0  0  0  0
   56.6018   23.2273   49.1923 H   0  0  0  0  0  0  0  0  0  0  0  0
   55.6567   23.8605   47.8021 H   0  0  0  0  0  0  0  0  0  0  0  0
   56.2214   22.1552   47.8021 H   0  0  0  0  0  0  0  0  0  0  0  0
   57.2690   24.1390   45.0980 C   0  0  0  0  0  0  0  0  0  0  0  0
   56.8068   23.1556   44.9265 H   0  0  0  0  0  0  0  0  0  0  0  0
   57.3790   25.0480   44.0450 C   0  0  0  0  0  0  0  0  0  0  0  0
   57.0200   24.7715   43.0427 H   0  0  0  0  0  0  0  0  0  0  0  0
   57.9430   26.3070   44.2590 C   0  0  0  0  0  0  0  0  0  0  0  0
   58.0429   27.0116   43.4202 H   0  0  0  0  0  0  0  0  0  0  0  0
   58.3840   26.6790   45.5410 C   0  0  0  0  0  0  0  0  0  0  0  0
   59.0010   28.0490   45.8010 C   0  0  1  0  0  0  0  0  0  0  0  0
   60.0217   28.0420   45.3909 H   0  0  0  0  0  0  0  0  0  0  0  0
   58.1790   29.1270   45.1130 C   0  0  0  0  0  0  0  0  0  0  0  0
   56.7780   29.1280   45.2030 C   0  0  0  0  0  0  0  0  0  0  0  0
   56.2647   28.3445   45.7798 H   0  0  0  0  0  0  0  0  0  0  0  0
   56.0540   30.0950   44.5790 N   0  0  0  0  0  0  0  0  0  0  0  0
   56.6480   31.0810   43.8560 C   0  0  0  0  0  0  0  0  0  0  0  0
   56.0329   31.8492   43.3645 H   0  0  0  0  0  0  0  0  0  0  0  0
   58.0390   31.1190   43.7370 C   0  0  0  0  0  0  0  0  0  0  0  0
   58.5249   31.9139   43.1522 H   0  0  0  0  0  0  0  0  0  0  0  0
   58.8060   30.1390   44.3670 C   0  0  0  0  0  0  0  0  0  0  0  0
   59.9024   30.1585   44.2797 H   0  0  0  0  0  0  0  0  0  0  0  0
   58.8380   32.8370   47.1130 C   0  0  0  0  0  0  0  0  0  0  0  0
   59.8840   33.4470   46.3980 C   0  0  0  0  0  0  0  0  0  0  0  0
   60.9276   33.2555   46.6882 H   0  0  0  0  0  0  0  0  0  0  0  0
   59.6080   34.2950   45.3210 C   0  0  0  0  0  0  0  0  0  0  0  0
   60.4333   34.7722   44.7722 H   0  0  0  0  0  0  0  0  0  0  0  0
   58.2860   34.5370   44.9410 C   0  0  0  0  0  0  0  0  0  0  0  0
   58.0699   35.2099   44.0981 H   0  0  0  0  0  0  0  0  0  0  0  0
   57.2390   33.9240   45.6320 C   0  0  0  0  0  0  0  0  0  0  0  0
   56.1985   34.1105   45.3279 H   0  0  0  0  0  0  0  0  0  0  0  0
   57.5080   33.0740   46.7090 C   0  0  0  0  0  0  0  0  0  0  0  0
   56.6785   32.5880   47.2435 H   0  0  0  0  0  0  0  0  0  0  0  0
  1  2  1  0
  2  3  2  0
  3  4  1  0
  3  5  1  0
  5  6  1  0
  5  7  1  0
  5  8  1  0
  8  9  1  0
  9 10  1  0
  9 11  1  0
  9 12  1  0
 12 13  1  0
 13 14  2  0
 14 15  1  0
 15 16  1  0
 16 17  1  0
 16 18  1  0
 16 19  1  0
 14 20  1  0
 20 21  1  0
 20 22  2  0
 22 23  1  0
 22 24  1  0
 24 25  1  0
 24 26  2  0
 26 27  1  0
 27 28  1  6
 27 29  1  0
 29 30  2  0
 30 31  1  0
 30 32  1  0
 32 33  2  0
 33 34  1  0
 33 35  1  0
 35 36  1  0
 35 37  2  0
 37 38  1  0
  2 39  1  0
 39 40  2  0
 40 41  1  0
 40 42  1  0
 42 43  1  0
 42 44  2  0
 44 45  1  0
 44 46  1  0
 46 47  1  0
 46 48  2  0
 48 49  1  0
 27  8  1  0
 37 29  1  0
 48 39  1  0
 26 13  1  0
M  END
>  <UniqueID>  (35) 
32

>  <SMILES>  (35) 
COc1cccc2c1OCN(C/C=C/c1ccccc1)[C@@H]2c1cccnc1

>  <Energy>  (35) 
62.40229536173731

>  <Genealogy>  (35) 
COc1cccc2c1OCN(CC=Cc1ccccc1)[C@@H]2c1cccnc1 (chirality)
COc1cccc2c1OCN(C/C=C/c1ccccc1)[C@@H]2c1cccnc1 (cis-trans isomerization)
COc1cccc2c1OCN(C/C=C/c1ccccc1)[C@@H]2c1cccnc1 (3D coordinates assigned)
COc1cccc2c1OCN(C/C=C/c1ccccc1)[C@@H]2c1cccnc1 (nonaromatic ring conformer: 62.40229536173731 kcal/mol)

>  <smiles>  (35) 
COc1cccc2c1OCN(CC=Cc1ccccc1)C2c1cccnc1

>  <score_type>  (35) 
oracle

>  <origin>  (35) 
adg

>  <m_score__min__energy>  (35) 
-8.0899999999999999

>  <m_primary>  (35) 
energy

$$$$
35:0
     RDKit          3D

 48 49  0  0  0  0  0  0  0  0999 V2000
   59.5663   29.7784   47.9264 H   0  0  0  0  0  0  0  0  0  0  0  0
   59.7920   30.8280   48.1660 C   0  0  0  0  0  0  0  0  0  0  0  0
   58.8940   31.7220   47.8510 N   0  0  0  0  0  0  0  0  0  0  0  0
   58.9890   32.7230   46.8260 C   0  0  0  0  0  0  0  0  0  0  0  0
   59.5870   33.9580   47.1170 C   0  0  0  0  0  0  0  0  0  0  0  0
   60.0059   34.1386   48.1179 H   0  0  0  0  0  0  0  0  0  0  0  0
   59.6550   34.9590   46.1480 C   0  0  0  0  0  0  0  0  0  0  0  0
   60.1528   35.9128   46.3772 H   0  0  0  0  0  0  0  0  0  0  0  0
   59.0930   34.7520   44.8900 C   0  0  0  0  0  0  0  0  0  0  0  0
   59.1570   35.5385   44.1236 H   0  0  0  0  0  0  0  0  0  0  0  0
   58.4490   33.5480   44.6010 C   0  0  0  0  0  0  0  0  0  0  0  0
   57.9819   33.4034   43.6157 H   0  0  0  0  0  0  0  0  0  0  0  0
   58.3910   32.5160   45.5580 C   0  0  0  0  0  0  0  0  0  0  0  0
   57.6530   31.2620   45.2480 C   0  0  0  0  0  0  0  0  0  0  0  0
   56.4560   31.3410   44.8600 O   0  0  0  0  0  0  0  0  0  0  0  0
   58.2830   29.9180   45.3440 C   0  0  0  0  0  0  0  0  0  0  0  0
   57.5310   28.7780   45.6880 C   0  0  0  0  0  0  0  0  0  0  0  0
   56.4574   28.8778   45.9057 H   0  0  0  0  0  0  0  0  0  0  0  0
   58.1380   27.5210   45.7550 C   0  0  0  0  0  0  0  0  0  0  0  0
   57.5421   26.6376   46.0280 H   0  0  0  0  0  0  0  0  0  0  0  0
   59.5000   27.3840   45.4760 C   0  0  0  0  0  0  0  0  0  0  0  0
   59.9768   26.3944   45.5343 H   0  0  0  0  0  0  0  0  0  0  0  0
   60.2560   28.5040   45.1230 C   0  0  0  0  0  0  0  0  0  0  0  0
   61.5770   28.3700   44.8470 F   0  0  0  0  0  0  0  0  0  0  0  0
   59.6520   29.7640   45.0520 C   0  0  0  0  0  0  0  0  0  0  0  0
   60.2511   30.6411   44.7659 H   0  0  0  0  0  0  0  0  0  0  0  0
   61.1220   31.1200   48.8360 C   0  0  1  0  0  0  0  0  0  0  0  0
   61.0234   32.0982   49.3294 H   0  0  0  0  0  0  0  0  0  0  0  0
   61.4170   30.1250   49.8780 C   0  0  0  0  0  0  0  0  0  0  0  0
   61.6610   29.3420   50.6950 N   0  0  0  0  0  0  0  0  0  0  0  0
   62.2650   31.2880   47.8490 C   0  0  0  0  0  0  0  0  0  0  0  0
   62.1840   30.7530   46.7500 O   0  0  0  0  0  0  0  0  0  0  0  0
   63.3770   32.1850   48.1370 N   0  0  0  0  0  0  0  0  0  0  0  0
   64.1720   31.9150   47.5100 H   0  0  0  0  0  0  0  0  0  0  0  0
   63.8620   31.9860   49.5240 C   0  0  0  0  0  0  0  0  0  0  0  0
   64.0051   30.9089   49.6955 H   0  0  0  0  0  0  0  0  0  0  0  0
   63.1078   32.4098   50.2034 H   0  0  0  0  0  0  0  0  0  0  0  0
   65.1870   32.7060   49.7970 C   0  0  0  0  0  0  0  0  0  0  0  0
   65.3417   32.7901   50.8828 H   0  0  0  0  0  0  0  0  0  0  0  0
   66.0140   32.1332   49.3521 H   0  0  0  0  0  0  0  0  0  0  0  0
   65.1564   33.7115   49.3521 H   0  0  0  0  0  0  0  0  0  0  0  0
   63.0300   33.5880   47.7910 C   0  0  0  0  0  0  0  0  0  0  0  0
   61.9490   33.7202   47.9458 H   0  0  0  0  0  0  0  0  0  0  0  0
   63.6459   34.2262   48.4417 H   0  0  0  0  0  0  0  0  0  0  0  0
   63.3590   34.0020   46.3480 C   0  0  0  0  0  0  0  0  0  0  0  0
   64.0433   34.8631   46.3606 H   0  0  0  0  0  0  0  0  0  0  0  0
   63.8377   33.1608   45.8253 H   0  0  0  0  0  0  0  0  0  0  0  0
   62.4314   34.2784   45.8253 H   0  0  0  0  0  0  0  0  0  0  0  0
  1  2  1  0
  2  3  2  0
  3  4  1  0
  4  5  2  0
  5  6  1  0
  5  7  1  0
  7  8  1  0
  7  9  2  0
  9 10  1  0
  9 11  1  0
 11 12  1  0
 11 13  2  0
 13 14  1  0
 14 15  2  0
 14 16  1  0
 16 17  2  0
 17 18  1  0
 17 19  1  0
 19 20  1  0
 19 21  2  0
 21 22  1  0
 21 23  1  0
 23 24  1  0
 23 25  2  0
 25 26  1  0
  2 27  1  0
 27 28  1  1
 27 29  1  0
 29 30  3  0
 27 31  1  0
 31 32  2  0
 31 33  1  0
 33 34  1  0
 33 35  1  0
 35 36  1  0
 35 37  1  0
 35 38  1  0
 38 39  1  0
 38 40  1  0
 38 41  1  0
 33 42  1  0
 42 43  1  0
 42 44  1  0
 42 45  1  0
 45 46  1  0
 45 47  1  0
 45 48  1  0
 13  4  1  0
 25 16  1  0
M  CHG  1  33   1
M  END
>  <UniqueID>  (36) 
33

>  <SMILES>  (36) 
CC[NH+](CC)C(=O)[C@H](C#N)/C=N\c1ccccc1C(=O)c1cccc(F)c1

>  <Energy>  (36) 
66.04932000308689

>  <Genealogy>  (36) 
CC[NH+](CC)C(=O)C(C#N)C=Nc1ccccc1C(=O)c1cccc(F)c1 (protonated)
CC[NH+](CC)C(=O)[C@H](C#N)C=Nc1ccccc1C(=O)c1cccc(F)c1 (chirality)
CC[NH+](CC)C(=O)[C@H](C#N)/C=N\c1ccccc1C(=O)c1cccc(F)c1 (cis-trans isomerization)
CC[NH+](CC)C(=O)[C@H](C#N)/C=N\c1ccccc1C(=O)c1cccc(F)c1 (3D coordinates assigned)
CC[NH+](CC)C(=O)[C@H](C#N)/C=N\c1ccccc1C(=O)c1cccc(F)c1 (optimized conformer: 66.04932000308689 kcal/mol)

>  <smiles>  (36) 
CCN(CC)C(=O)C(C#N)C=Nc1ccccc1C(=O)c1cccc(F)c1

>  <score_type>  (36) 
oracle

>  <origin>  (36) 
adg

>  <m_score__min__energy>  (36) 
-6.6600000000000001

>  <m_primary>  (36) 
energy

$$$$
36:0
     RDKit          3D

 46 48  0  0  0  0  0  0  0  0999 V2000
   56.5221   31.3489   44.7564 H   0  0  0  0  0  0  0  0  0  0  0  0
   57.1050   30.4200   44.8420 C   0  0  0  0  0  0  0  0  0  0  0  0
   57.8500   30.1870   45.9550 N   0  0  0  0  0  0  0  0  0  0  0  0
   58.5750   29.0480   46.1240 C   0  0  0  0  0  0  0  0  0  0  0  0
   59.2720   28.9160   47.2180 N   0  0  0  0  0  0  0  0  0  0  0  0
   60.2160   29.8450   47.7670 C   0  0  0  0  0  0  0  0  0  0  0  0
   61.1540   30.9250   46.8790 S   0  0  0  0  0  0  0  0  0  0  0  0
   62.0170   31.4460   48.2280 C   0  0  0  0  0  0  0  0  0  0  0  0
   63.2810   32.6760   48.1690 S   0  0  0  0  0  0  0  0  0  0  0  0
   63.8180   32.7320   46.7680 O   0  0  0  0  0  0  0  0  0  0  0  0
   64.4080   32.3230   49.0970 O   0  0  0  0  0  0  0  0  0  0  0  0
   62.6810   34.2560   48.6020 N   0  0  0  0  0  0  0  0  0  0  0  0
   61.3520   34.2020   49.2210 C   0  0  0  0  0  0  0  0  0  0  0  0
   61.1787   35.1390   49.7705 H   0  0  0  0  0  0  0  0  0  0  0  0
   61.3281   33.3328   49.8948 H   0  0  0  0  0  0  0  0  0  0  0  0
   60.2530   34.0270   48.1980 C   0  0  0  0  0  0  0  0  0  0  0  0
   60.3420   34.7080   46.9730 C   0  0  0  0  0  0  0  0  0  0  0  0
   61.2104   35.3514   46.7682 H   0  0  0  0  0  0  0  0  0  0  0  0
   59.3380   34.5750   46.0140 C   0  0  0  0  0  0  0  0  0  0  0  0
   59.4138   35.1184   45.0606 H   0  0  0  0  0  0  0  0  0  0  0  0
   58.2380   33.7540   46.2620 C   0  0  0  0  0  0  0  0  0  0  0  0
   57.4446   33.6561   45.5064 H   0  0  0  0  0  0  0  0  0  0  0  0
   58.1420   33.0560   47.4680 C   0  0  0  0  0  0  0  0  0  0  0  0
   57.2746   32.4060   47.6556 H   0  0  0  0  0  0  0  0  0  0  0  0
   59.1490   33.1790   48.4460 C   0  0  0  0  0  0  0  0  0  0  0  0
   59.0830   32.4790   49.6620 O   0  0  0  0  0  0  0  0  0  0  0  0
   58.8910   33.0810   50.9380 C   0  0  0  0  0  0  0  0  0  0  0  0
   59.1240   32.3506   51.7268 H   0  0  0  0  0  0  0  0  0  0  0  0
   59.5560   33.9517   51.0365 H   0  0  0  0  0  0  0  0  0  0  0  0
   57.8447   33.4058   51.0365 H   0  0  0  0  0  0  0  0  0  0  0  0
   61.5830   30.7120   49.3400 C   0  0  0  0  0  0  0  0  0  0  0  0
   62.1340   30.8670   50.7240 C   0  0  0  0  0  0  0  0  0  0  0  0
   61.3463   30.6454   51.4592 H   0  0  0  0  0  0  0  0  0  0  0  0
   62.9734   30.1701   50.8647 H   0  0  0  0  0  0  0  0  0  0  0  0
   62.4870   31.8993   50.8647 H   0  0  0  0  0  0  0  0  0  0  0  0
   60.5920   29.8180   49.0630 N   0  0  0  0  0  0  0  0  0  0  0  0
   60.1640   29.1820   49.7710 H   0  0  0  0  0  0  0  0  0  0  0  0
   58.5760   28.0820   45.0970 C   0  0  0  0  0  0  0  0  0  0  0  0
   59.1720   27.1633   45.2011 H   0  0  0  0  0  0  0  0  0  0  0  0
   57.8150   28.3000   43.9470 C   0  0  0  0  0  0  0  0  0  0  0  0
   57.7950   27.5412   43.1508 H   0  0  0  0  0  0  0  0  0  0  0  0
   57.0780   29.4800   43.8040 C   0  0  0  0  0  0  0  0  0  0  0  0
   56.2280   29.7100   42.5900 C   0  0  0  0  0  0  0  0  0  0  0  0
   55.2098   29.9855   42.9021 H   0  0  0  0  0  0  0  0  0  0  0  0
   56.6600   30.5236   41.9887 H   0  0  0  0  0  0  0  0  0  0  0  0
   56.1908   28.7896   41.9887 H   0  0  0  0  0  0  0  0  0  0  0  0
  1  2  1  0
  2  3  1  0
  3  4  1  0
  4  5  2  0
  5  6  1  0
  6  7  1  0
  7  8  1  0
  8  9  1  0
  9 10  2  0
  9 11  2  0
  9 12  1  0
 12 13  1  0
 13 14  1  0
 13 15  1  0
 13 16  1  0
 16 17  2  0
 17 18  1  0
 17 19  1  0
 19 20  1  0
 19 21  2  0
 21 22  1  0
 21 23  1  0
 23 24  1  0
 23 25  2  0
 25 26  1  0
 26 27  1  0
 27 28  1  0
 27 29  1  0
 27 30  1  0
  8 31  2  0
 31 32  1  0
 32 33  1  0
 32 34  1  0
 32 35  1  0
 31 36  1  0
 36 37  1  0
  4 38  1  0
 38 39  1  0
 38 40  2  0
 40 41  1  0
 40 42  1  0
 42 43  1  0
 43 44  1  0
 43 45  1  0
 43 46  1  0
 42  2  2  0
 36  6  2  0
 25 16  1  0
M  CHG  3   3  -1  12  -1  36   1
M  END
>  <UniqueID>  (37) 
34

>  <SMILES>  (37) 
COc1ccccc1C[N-]S(=O)(=O)c1sc(/N=c2\ccc(C)c[n-]2)[nH+]c1C

>  <Energy>  (37) 
83.22521923299962

>  <Genealogy>  (37) 
COc1ccccc1C[N-]S(=O)(=O)c1sc(N=c2ccc(C)c[n-]2)[nH+]c1C (protonated)
COc1ccccc1C[N-]S(=O)(=O)c1sc(/N=c2\ccc(C)c[n-]2)[nH+]c1C (cis-trans isomerization)
COc1ccccc1C[N-]S(=O)(=O)c1sc(/N=c2\ccc(C)c[n-]2)[nH+]c1C (3D coordinates assigned)
COc1ccccc1C[N-]S(=O)(=O)c1sc(/N=c2\ccc(C)c[n-]2)[nH+]c1C (optimized conformer: 83.22521923299962 kcal/mol)

>  <smiles>  (37) 
COc1ccccc1CNS(=O)(=O)c1sc(N=c2ccc(C)c[nH]2)nc1C

>  <score_type>  (37) 
oracle

>  <origin>  (37) 
adg

>  <m_score__min__energy>  (37) 
-9.2799999999999994

>  <m_primary>  (37) 
energy

$$$$
37:0
     RDKit          3D

 38 40  0  0  0  0  0  0  0  0999 V2000
   58.7840   32.5830   49.0220 C   0  0  0  0  0  0  0  0  0  0  0  0
   58.6150   33.0030   47.6020 C   0  0  0  0  0  0  0  0  0  0  0  0
   59.1270   34.1550   47.0370 C   0  0  0  0  0  0  0  0  0  0  0  0
   58.7230   34.1360   45.7190 C   0  0  0  0  0  0  0  0  0  0  0  0
   57.9850   32.9770   45.5700 C   0  0  0  0  0  0  0  0  0  0  0  0
   57.3570   32.4970   44.3010 C   0  0  0  0  0  0  0  0  0  0  0  0
   56.6440   31.2410   44.5500 N   0  0  0  0  0  0  0  0  0  0  0  0
   57.3180   30.1270   43.8700 C   0  0  0  0  0  0  0  0  0  0  0  0
   57.1780   28.8250   44.6790 C   0  0  1  0  0  0  0  0  0  0  0  0
   58.0570   27.7060   44.0590 C   0  0  0  0  0  0  0  0  0  0  0  0
   57.6930   26.3930   44.5940 N   0  0  0  0  0  0  0  0  0  0  0  0
   57.4210   25.2940   43.8690 C   0  0  0  0  0  0  0  0  0  0  0  0
   57.1820   24.2540   44.7410 C   0  0  0  0  0  0  0  0  0  0  0  0
   57.3150   24.6880   46.0110 N   0  0  0  0  0  0  0  0  0  0  0  0
   57.6430   25.9920   45.8840 C   0  0  0  0  0  0  0  0  0  0  0  0
   57.8640   26.8900   47.0660 C   0  0  0  0  0  0  0  0  0  0  0  0
   58.4380   28.2510   46.6430 C   0  0  0  0  0  0  0  0  0  0  0  0
   57.5030   29.1300   46.0310 O   0  0  0  0  0  0  0  0  0  0  0  0
   57.9400   32.3190   46.7060 O   0  0  0  0  0  0  0  0  0  0  0  0
   58.4567   33.3963   49.6864 H   0  0  0  0  0  0  0  0  0  0  0  0
   58.1768   31.6861   49.2138 H   0  0  0  0  0  0  0  0  0  0  0  0
   59.8432   32.3566   49.2138 H   0  0  0  0  0  0  0  0  0  0  0  0
   59.7315   34.9272   47.5353 H   0  0  0  0  0  0  0  0  0  0  0  0
   58.9425   34.8875   44.9463 H   0  0  0  0  0  0  0  0  0  0  0  0
   56.6481   33.2539   43.9342 H   0  0  0  0  0  0  0  0  0  0  0  0
   58.1397   32.3295   43.5465 H   0  0  0  0  0  0  0  0  0  0  0  0
   56.6750   31.0530   45.5810 H   0  0  0  0  0  0  0  0  0  0  0  0
   56.8662   29.9846   42.8772 H   0  0  0  0  0  0  0  0  0  0  0  0
   58.3869   30.3684   43.7743 H   0  0  0  0  0  0  0  0  0  0  0  0
   56.1511   28.4317   44.6504 H   0  0  0  0  0  0  0  0  0  0  0  0
   57.9159   27.7012   42.9681 H   0  0  0  0  0  0  0  0  0  0  0  0
   59.1085   27.9071   44.3118 H   0  0  0  0  0  0  0  0  0  0  0  0
   57.3939   25.2352   42.7709 H   0  0  0  0  0  0  0  0  0  0  0  0
   56.9223   23.2265   44.4462 H   0  0  0  0  0  0  0  0  0  0  0  0
   56.9031   27.0510   47.5766 H   0  0  0  0  0  0  0  0  0  0  0  0
   58.5885   26.4044   47.7362 H   0  0  0  0  0  0  0  0  0  0  0  0
   58.8374   28.7472   47.5398 H   0  0  0  0  0  0  0  0  0  0  0  0
   59.2060   28.0400   45.8843 H   0  0  0  0  0  0  0  0  0  0  0  0
  1  2  1  0
  2  3  2  0
  3  4  1  0
  4  5  2  0
  5  6  1  0
  6  7  1  0
  7  8  1  0
  8  9  1  0
  9 10  1  0
 10 11  1  0
 11 12  1  0
 12 13  2  0
 13 14  1  0
 14 15  2  0
 15 16  1  0
 16 17  1  0
 17 18  1  0
  5 19  1  0
 19  2  1  0
 18  9  1  0
 15 11  1  0
  1 20  1  0
  1 21  1  0
  1 22  1  0
  3 23  1  0
  4 24  1  0
  6 25  1  0
  6 26  1  0
  7 27  1  0
  8 28  1  0
  8 29  1  0
  9 30  1  1
 10 31  1  0
 10 32  1  0
 12 33  1  0
 13 34  1  0
 16 35  1  0
 16 36  1  0
 17 37  1  0
 17 38  1  0
M  END
>  <UniqueID>  (38) 
35

>  <SMILES>  (38) 
Cc1ccc(CNC[C@H]2Cn3ccnc3CCO2)o1

>  <Energy>  (38) 
100.46153871276327

>  <Genealogy>  (38) 
Cc1ccc(CNC[C@H]2Cn3ccnc3CCO2)o1 (chirality)
Cc1ccc(CNC[C@H]2Cn3ccnc3CCO2)o1 (3D coordinates assigned)
Cc1ccc(CNC[C@H]2Cn3ccnc3CCO2)o1 (nonaromatic ring conformer: 100.46153871276327 kcal/mol)

>  <smiles>  (38) 
Cc1ccc(CNCC2Cn3ccnc3CCO2)o1

>  <score_type>  (38) 
oracle

>  <origin>  (38) 
adg

>  <m_score__min__energy>  (38) 
-4.7300000000000004

>  <m_primary>  (38) 
energy

$$$$
38:0
     RDKit          3D

 44 46  0  0  0  0  0  0  0  0999 V2000
   60.4440   26.7640   46.9450 C   0  0  0  0  0  0  0  0  0  0  0  0
   59.5910   27.7240   46.1710 C   0  0  0  0  0  0  0  0  0  0  0  0
   58.1940   27.6980   46.3090 C   0  0  0  0  0  0  0  0  0  0  0  0
   57.4000   28.6160   45.6150 C   0  0  0  0  0  0  0  0  0  0  0  0
   57.9920   29.5880   44.7950 C   0  0  0  0  0  0  0  0  0  0  0  0
   57.1360   30.5490   44.0230 C   0  0  0  0  0  0  0  0  0  0  0  0
   56.6610   31.5960   44.9250 N   0  0  0  0  0  0  0  0  0  0  0  0
   57.5510   33.0610   44.6470 S   0  0  0  0  0  0  0  0  0  0  0  0
   58.0420   33.0980   43.2260 O   0  0  0  0  0  0  0  0  0  0  0  0
   56.6440   34.2390   44.8690 O   0  0  0  0  0  0  0  0  0  0  0  0
   58.9110   33.1660   45.7640 C   0  0  0  0  0  0  0  0  0  0  0  0
   59.8950   34.1460   45.6070 C   0  0  0  0  0  0  0  0  0  0  0  0
   60.9760   34.1970   46.4890 C   0  0  0  0  0  0  0  0  0  0  0  0
   61.0580   33.2660   47.5360 C   0  0  0  0  0  0  0  0  0  0  0  0
   62.1660   33.2620   48.4490 N   0  0  0  0  0  0  0  0  0  0  0  0
   62.1840   34.0080   49.5440 N   0  0  0  0  0  0  0  0  0  0  0  0
   63.3610   33.7930   50.1640 C   0  0  0  0  0  0  0  0  0  0  0  0
   63.7910   34.5020   51.4030 C   0  0  0  0  0  0  0  0  0  0  0  0
   64.1320   32.9130   49.4290 C   0  0  0  0  0  0  0  0  0  0  0  0
   63.3430   32.6020   48.3400 C   0  0  0  0  0  0  0  0  0  0  0  0
   63.7660   31.7230   47.2020 C   0  0  0  0  0  0  0  0  0  0  0  0
   60.1000   32.3030   47.6480 N   0  0  0  0  0  0  0  0  0  0  0  0
   59.0400   32.2360   46.7990 C   0  0  0  0  0  0  0  0  0  0  0  0
   59.3890   29.6150   44.6590 C   0  0  0  0  0  0  0  0  0  0  0  0
   60.1840   28.6970   45.3530 C   0  0  0  0  0  0  0  0  0  0  0  0
   60.2970   26.9294   48.0225 H   0  0  0  0  0  0  0  0  0  0  0  0
   60.1590   25.7326   46.6902 H   0  0  0  0  0  0  0  0  0  0  0  0
   61.5018   26.9257   46.6902 H   0  0  0  0  0  0  0  0  0  0  0  0
   57.7223   26.9523   46.9658 H   0  0  0  0  0  0  0  0  0  0  0  0
   56.3051   28.5758   45.7126 H   0  0  0  0  0  0  0  0  0  0  0  0
   57.7276   31.0008   43.2131 H   0  0  0  0  0  0  0  0  0  0  0  0
   56.2774   30.0152   43.5895 H   0  0  0  0  0  0  0  0  0  0  0  0
   59.8178   34.8770   44.7887 H   0  0  0  0  0  0  0  0  0  0  0  0
   61.7575   34.9610   46.3643 H   0  0  0  0  0  0  0  0  0  0  0  0
   63.4498   33.9394   52.2845 H   0  0  0  0  0  0  0  0  0  0  0  0
   64.8882   34.5791   51.4193 H   0  0  0  0  0  0  0  0  0  0  0  0
   63.3523   35.5106   51.4193 H   0  0  0  0  0  0  0  0  0  0  0  0
   65.1427   32.5447   49.6590 H   0  0  0  0  0  0  0  0  0  0  0  0
   64.2109   30.7985   47.5986 H   0  0  0  0  0  0  0  0  0  0  0  0
   62.8894   31.4733   46.5861 H   0  0  0  0  0  0  0  0  0  0  0  0
   64.5081   32.2522   46.5861 H   0  0  0  0  0  0  0  0  0  0  0  0
   58.2828   31.4485   46.9271 H   0  0  0  0  0  0  0  0  0  0  0  0
   59.8607   30.3618   44.0034 H   0  0  0  0  0  0  0  0  0  0  0  0
   61.2790   28.7383   45.2569 H   0  0  0  0  0  0  0  0  0  0  0  0
  1  2  1  0
  2  3  2  0
  3  4  1  0
  4  5  2  0
  5  6  1  0
  6  7  1  0
  7  8  1  0
  8  9  2  0
  8 10  2  0
  8 11  1  0
 11 12  2  0
 12 13  1  0
 13 14  2  0
 14 15  1  0
 15 16  1  0
 16 17  2  0
 17 18  1  0
 17 19  1  0
 19 20  2  0
 20 21  1  0
 14 22  1  0
 22 23  2  0
  5 24  1  0
 24 25  2  0
 25  2  1  0
 23 11  1  0
 20 15  1  0
  1 26  1  0
  1 27  1  0
  1 28  1  0
  3 29  1  0
  4 30  1  0
  6 31  1  0
  6 32  1  0
 12 33  1  0
 13 34  1  0
 18 35  1  0
 18 36  1  0
 18 37  1  0
 19 38  1  0
 21 39  1  0
 21 40  1  0
 21 41  1  0
 23 42  1  0
 24 43  1  0
 25 44  1  0
M  CHG  1   7  -1
M  END
>  <UniqueID>  (39) 
36

>  <SMILES>  (39) 
Cc1ccc(C[N-]S(=O)(=O)c2ccc(-n3nc(C)cc3C)nc2)cc1

>  <Energy>  (39) 
76.06449579486298

>  <Genealogy>  (39) 
Cc1ccc(C[N-]S(=O)(=O)c2ccc(-n3nc(C)cc3C)nc2)cc1 (protonated)
Cc1ccc(C[N-]S(=O)(=O)c2ccc(-n3nc(C)cc3C)nc2)cc1 (3D coordinates assigned)
Cc1ccc(C[N-]S(=O)(=O)c2ccc(-n3nc(C)cc3C)nc2)cc1 (optimized conformer: 76.06449579486298 kcal/mol)

>  <smiles>  (39) 
Cc1ccc(CNS(=O)(=O)c2ccc(-n3nc(C)cc3C)nc2)cc1

>  <score_type>  (39) 
oracle

>  <origin>  (39) 
adg

>  <m_score__min__energy>  (39) 
-9.8599999999999994

>  <m_primary>  (39) 
energy

$$$$
39:0
     RDKit          3D

 35 38  0  0  0  0  0  0  0  0999 V2000
   55.3310   26.6880   46.0010 O   0  0  0  0  0  0  0  0  0  0  0  0
   56.4410   26.1160   45.8370 C   0  0  0  0  0  0  0  0  0  0  0  0
   56.6400   24.7920   45.2580 C   0  0  0  0  0  0  0  0  0  0  0  0
   55.7230   23.8730   44.7510 C   0  0  0  0  0  0  0  0  0  0  0  0
   56.2150   22.6480   44.2660 C   0  0  0  0  0  0  0  0  0  0  0  0
   57.5990   22.3700   44.2990 C   0  0  0  0  0  0  0  0  0  0  0  0
   58.5040   23.3130   44.8180 C   0  0  0  0  0  0  0  0  0  0  0  0
   57.9920   24.5200   45.2890 C   0  0  0  0  0  0  0  0  0  0  0  0
   58.6610   25.6690   45.8880 C   0  0  0  0  0  0  0  0  0  0  0  0
   59.8980   25.7690   46.1040 O   0  0  0  0  0  0  0  0  0  0  0  0
   57.7000   26.6730   46.2230 N   0  0  0  0  0  0  0  0  0  0  0  0
   57.9180   27.8620   47.0410 C   0  0  0  0  0  0  0  0  0  0  0  0
   58.8850   29.1180   46.1290 S   0  0  0  0  0  0  0  0  0  0  0  0
   57.4670   29.8290   45.2850 C   0  0  0  0  0  0  0  0  0  0  0  0
   56.4280   29.1000   44.8370 N   0  0  0  0  0  0  0  0  0  0  0  0
   55.5560   29.9890   44.3820 N   0  0  0  0  0  0  0  0  0  0  0  0
   56.0280   31.2160   44.5470 N   0  0  0  0  0  0  0  0  0  0  0  0
   57.2260   31.1410   45.0990 N   0  0  0  0  0  0  0  0  0  0  0  0
   58.0180   32.2780   45.4770 C   0  0  0  0  0  0  0  0  0  0  0  0
   58.4160   32.4720   46.8110 C   0  0  0  0  0  0  0  0  0  0  0  0
   59.1910   33.5820   47.1620 C   0  0  0  0  0  0  0  0  0  0  0  0
   59.5840   34.5010   46.1850 C   0  0  0  0  0  0  0  0  0  0  0  0
   59.2080   34.3050   44.8540 C   0  0  0  0  0  0  0  0  0  0  0  0
   58.4330   33.1970   44.4980 C   0  0  0  0  0  0  0  0  0  0  0  0
   54.6467   24.0990   44.7308 H   0  0  0  0  0  0  0  0  0  0  0  0
   55.5172   21.9017   43.8584 H   0  0  0  0  0  0  0  0  0  0  0  0
   57.9720   21.4087   43.9159 H   0  0  0  0  0  0  0  0  0  0  0  0
   59.5834   23.1039   44.8511 H   0  0  0  0  0  0  0  0  0  0  0  0
   56.9439   28.2905   47.3193 H   0  0  0  0  0  0  0  0  0  0  0  0
   58.4820   27.5703   47.9393 H   0  0  0  0  0  0  0  0  0  0  0  0
   58.1165   31.7474   47.5825 H   0  0  0  0  0  0  0  0  0  0  0  0
   59.4919   33.7321   48.2093 H   0  0  0  0  0  0  0  0  0  0  0  0
   60.1882   35.3769   46.4637 H   0  0  0  0  0  0  0  0  0  0  0  0
   59.5226   35.0245   44.0837 H   0  0  0  0  0  0  0  0  0  0  0  0
   58.1468   33.0439   43.4470 H   0  0  0  0  0  0  0  0  0  0  0  0
  1  2  2  0
  2  3  1  0
  3  4  2  0
  4  5  1  0
  5  6  2  0
  6  7  1  0
  7  8  2  0
  8  9  1  0
  9 10  2  0
  9 11  1  0
 11 12  1  0
 12 13  1  0
 13 14  1  0
 14 15  2  0
 15 16  1  0
 16 17  2  0
 17 18  1  0
 18 19  1  0
 19 20  2  0
 20 21  1  0
 21 22  2  0
 22 23  1  0
 23 24  2  0
 11  2  1  0
 18 14  1  0
 24 19  1  0
  8  3  1  0
  4 25  1  0
  5 26  1  0
  6 27  1  0
  7 28  1  0
 12 29  1  0
 12 30  1  0
 20 31  1  0
 21 32  1  0
 22 33  1  0
 23 34  1  0
 24 35  1  0
M  END
>  <UniqueID>  (40) 
37

>  <SMILES>  (40) 
O=C1c2ccccc2C(=O)N1CSc1nnnn1-c1ccccc1

>  <Energy>  (40) 
111.56441056343593

>  <Genealogy>  (40) 
O=C1c2ccccc2C(=O)N1CSc1nnnn1-c1ccccc1 (3D coordinates assigned)
O=C1c2ccccc2C(=O)N1CSc1nnnn1-c1ccccc1 (nonaromatic ring conformer: 111.56441056343593 kcal/mol)

>  <smiles>  (40) 
O=C1c2ccccc2C(=O)N1CSc1nnnn1-c1ccccc1

>  <score_type>  (40) 
oracle

>  <origin>  (40) 
adg

>  <m_score__min__energy>  (40) 
-9.3699999999999992

>  <m_primary>  (40) 
energy

$$$$
40:0
     RDKit          3D

 42 44  0  0  0  0  0  0  0  0999 V2000
   56.9860   21.1460   42.9960 C   0  0  0  0  0  0  0  0  0  0  0  0
   55.9810   22.0950   43.3300 O   0  0  0  0  0  0  0  0  0  0  0  0
   56.2430   23.2300   44.1040 C   0  0  0  0  0  0  0  0  0  0  0  0
   57.7480   23.9560   44.3320 S   0  0  0  0  0  0  0  0  0  0  0  0
   57.1820   25.1810   45.3410 C   0  0  0  0  0  0  0  0  0  0  0  0
   58.0260   26.2870   45.9120 C   0  0  0  0  0  0  0  0  0  0  0  0
   58.2460   27.3790   44.9340 N   0  0  0  0  0  0  0  0  0  0  0  0
   59.5030   28.1180   45.2500 C   0  0  0  0  0  0  0  0  0  0  0  0
   59.2580   29.4240   46.0170 C   0  0  0  0  0  0  0  0  0  0  0  0
   58.3510   30.2920   45.2540 N   0  0  0  0  0  0  0  0  0  0  0  0
   58.4060   31.7280   45.4010 C   0  0  0  0  0  0  0  0  0  0  0  0
   59.3990   32.3310   46.1990 C   0  0  0  0  0  0  0  0  0  0  0  0
   59.4490   33.7210   46.3390 C   0  0  0  0  0  0  0  0  0  0  0  0
   58.5140   34.5260   45.6870 C   0  0  0  0  0  0  0  0  0  0  0  0
   57.5240   33.9420   44.8920 C   0  0  0  0  0  0  0  0  0  0  0  0
   57.4690   32.5530   44.7490 C   0  0  0  0  0  0  0  0  0  0  0  0
   57.3820   29.6690   44.3440 C   0  0  0  0  0  0  0  0  0  0  0  0
   57.0440   28.2550   44.8310 C   0  0  0  0  0  0  0  0  0  0  0  0
   55.8060   25.0430   45.5000 C   0  0  0  0  0  0  0  0  0  0  0  0
   55.2830   23.9440   44.8080 C   0  0  0  0  0  0  0  0  0  0  0  0
   53.8870   23.6000   44.8210 C   0  0  0  0  0  0  0  0  0  0  0  0
   52.7630   23.3230   44.8310 N   0  0  0  0  0  0  0  0  0  0  0  0
   57.4222   20.7341   43.9180 H   0  0  0  0  0  0  0  0  0  0  0  0
   56.5400   20.3319   42.4058 H   0  0  0  0  0  0  0  0  0  0  0  0
   57.7732   21.6379   42.4058 H   0  0  0  0  0  0  0  0  0  0  0  0
   57.5195   26.6996   46.7970 H   0  0  0  0  0  0  0  0  0  0  0  0
   59.0067   25.8644   46.1758 H   0  0  0  0  0  0  0  0  0  0  0  0
   58.3900   26.9320   43.9960 H   0  0  0  0  0  0  0  0  0  0  0  0
   60.1464   27.4684   45.8617 H   0  0  0  0  0  0  0  0  0  0  0  0
   59.9760   28.3839   44.2931 H   0  0  0  0  0  0  0  0  0  0  0  0
   58.8065   29.1939   46.9933 H   0  0  0  0  0  0  0  0  0  0  0  0
   60.2170   29.9427   46.1625 H   0  0  0  0  0  0  0  0  0  0  0  0
   60.1401   31.7033   46.7154 H   0  0  0  0  0  0  0  0  0  0  0  0
   60.2276   34.1815   46.9649 H   0  0  0  0  0  0  0  0  0  0  0  0
   58.5562   35.6195   45.7987 H   0  0  0  0  0  0  0  0  0  0  0  0
   56.7870   34.5766   44.3781 H   0  0  0  0  0  0  0  0  0  0  0  0
   56.6871   32.1000   44.1218 H   0  0  0  0  0  0  0  0  0  0  0  0
   56.4643   30.2749   44.3178 H   0  0  0  0  0  0  0  0  0  0  0  0
   57.8176   29.6105   43.3356 H   0  0  0  0  0  0  0  0  0  0  0  0
   56.5752   28.3273   45.8235 H   0  0  0  0  0  0  0  0  0  0  0  0
   56.3657   27.8027   44.0926 H   0  0  0  0  0  0  0  0  0  0  0  0
   55.1933   25.7264   46.1063 H   0  0  0  0  0  0  0  0  0  0  0  0
  1  2  1  0
  2  3  1  0
  3  4  1  0
  4  5  1  0
  5  6  1  0
  6  7  1  0
  7  8  1  0
  8  9  1  0
  9 10  1  0
 10 11  1  0
 11 12  2  0
 12 13  1  0
 13 14  2  0
 14 15  1  0
 15 16  2  0
 10 17  1  0
 17 18  1  0
  5 19  2  0
 19 20  1  0
 20 21  1  0
 21 22  3  0
 20  3  2  0
 18  7  1  0
 16 11  1  0
  1 23  1  0
  1 24  1  0
  1 25  1  0
  6 26  1  0
  6 27  1  0
  7 28  1  0
  8 29  1  0
  8 30  1  0
  9 31  1  0
  9 32  1  0
 12 33  1  0
 13 34  1  0
 14 35  1  0
 15 36  1  0
 16 37  1  0
 17 38  1  0
 17 39  1  0
 18 40  1  0
 18 41  1  0
 19 42  1  0
M  CHG  1   7   1
M  END
>  <UniqueID>  (41) 
38

>  <SMILES>  (41) 
COc1sc(C[NH+]2CCN(c3ccccc3)CC2)cc1C#N

>  <Energy>  (41) 
77.5721479519824

>  <Genealogy>  (41) 
COc1sc(C[NH+]2CCN(c3ccccc3)CC2)cc1C#N (protonated)
COc1sc(C[NH+]2CCN(c3ccccc3)CC2)cc1C#N (3D coordinates assigned)
COc1sc(C[NH+]2CCN(c3ccccc3)CC2)cc1C#N (nonaromatic ring conformer: 77.5721479519824 kcal/mol)

>  <smiles>  (41) 
COc1sc(CN2CCN(c3ccccc3)CC2)cc1C#N

>  <score_type>  (41) 
oracle

>  <origin>  (41) 
adg

>  <m_score__min__energy>  (41) 
-5.7000000000000002

>  <m_primary>  (41) 
energy

$$$$
41:0
     RDKit          3D

 27 27  0  0  0  0  0  0  0  0999 V2000
   58.1250   27.0920   42.5900 C   0  0  0  0  0  0  0  0  0  0  0  0
   57.7820   27.6480   43.9680 C   0  0  0  0  0  0  0  0  0  0  0  0
   58.2420   29.0290   44.0950 N   0  0  0  0  0  0  0  0  0  0  0  0
   57.4530   30.0500   44.7210 C   0  0  0  0  0  0  0  0  0  0  0  0
   56.3340   29.7690   45.2270 O   0  0  0  0  0  0  0  0  0  0  0  0
   57.9540   31.4410   44.7910 C   0  0  0  0  0  0  0  0  0  0  0  0
   58.4600   31.9650   46.0000 C   0  0  0  0  0  0  0  0  0  0  0  0
   58.5150   31.1390   47.2590 C   0  0  0  0  0  0  0  0  0  0  0  0
   58.9130   33.2890   46.0280 C   0  0  0  0  0  0  0  0  0  0  0  0
   58.8720   34.0490   44.8600 C   0  0  0  0  0  0  0  0  0  0  0  0
   59.2890   35.2370   44.8680 O   0  0  0  0  0  0  0  0  0  0  0  0
   58.3910   33.5280   43.7370 O   0  0  0  0  0  0  0  0  0  0  0  0
   57.9290   32.2840   43.6540 C   0  0  0  0  0  0  0  0  0  0  0  0
   57.3890   31.8230   42.3300 C   0  0  0  0  0  0  0  0  0  0  0  0
   58.6995   26.1608   42.7030 H   0  0  0  0  0  0  0  0  0  0  0  0
   57.1971   26.8855   42.0365 H   0  0  0  0  0  0  0  0  0  0  0  0
   58.7259   27.8287   42.0365 H   0  0  0  0  0  0  0  0  0  0  0  0
   56.6916   27.6158   44.1095 H   0  0  0  0  0  0  0  0  0  0  0  0
   58.2834   27.0358   44.7320 H   0  0  0  0  0  0  0  0  0  0  0  0
   59.1770   29.2770   43.7020 H   0  0  0  0  0  0  0  0  0  0  0  0
   58.4708   31.8026   48.1351 H   0  0  0  0  0  0  0  0  0  0  0  0
   57.6610   30.4460   47.2805 H   0  0  0  0  0  0  0  0  0  0  0  0
   59.4533   30.5654   47.2805 H   0  0  0  0  0  0  0  0  0  0  0  0
   59.2973   33.7253   46.9618 H   0  0  0  0  0  0  0  0  0  0  0  0
   56.5621   31.1171   42.4970 H   0  0  0  0  0  0  0  0  0  0  0  0
   57.0216   32.6903   41.7618 H   0  0  0  0  0  0  0  0  0  0  0  0
   58.1879   31.3241   41.7618 H   0  0  0  0  0  0  0  0  0  0  0  0
  1  2  1  0
  2  3  1  0
  3  4  1  0
  4  5  2  0
  4  6  1  0
  6  7  1  0
  7  8  1  0
  7  9  2  0
  9 10  1  0
 10 11  2  0
 10 12  1  0
 12 13  1  0
 13 14  1  0
 13  6  2  0
  1 15  1  0
  1 16  1  0
  1 17  1  0
  2 18  1  0
  2 19  1  0
  3 20  1  0
  8 21  1  0
  8 22  1  0
  8 23  1  0
  9 24  1  0
 14 25  1  0
 14 26  1  0
 14 27  1  0
M  END
>  <UniqueID>  (42) 
39

>  <SMILES>  (42) 
CCNC(=O)c1c(C)cc(=O)oc1C

>  <Energy>  (42) 
27.92040224282618

>  <Genealogy>  (42) 
CCNC(=O)c1c(C)cc(=O)oc1C (3D coordinates assigned)
CCNC(=O)c1c(C)cc(=O)oc1C (optimized conformer: 27.92040224282618 kcal/mol)

>  <smiles>  (42) 
CCNC(=O)c1c(C)cc(=O)oc1C

>  <score_type>  (42) 
oracle

>  <origin>  (42) 
adg

>  <m_score__min__energy>  (42) 
-5.3300000000000001

>  <m_primary>  (42) 
energy

$$$$
42:0
     RDKit          3D

 49 51  0  0  1  0  0  0  0  0999 V2000
   63.3960   33.8380   46.3910 C   0  0  0  0  0  0  0  0  0  0  0  0
   63.1020   33.3670   47.7990 C   0  0  0  0  0  0  0  0  0  0  0  0
   61.6560   33.0810   47.9260 N   0  0  0  0  0  0  0  0  0  0  0  0
   61.5700   31.6630   48.2500 C   0  0  0  0  0  0  0  0  0  0  0  0
   61.2220   30.8160   47.0350 C   0  0  0  0  0  0  0  0  0  0  0  0
   61.1750   33.7990   49.1230 C   0  0  0  0  0  0  0  0  0  0  0  0
   59.9480   34.5700   48.7530 C   0  0  0  0  0  0  0  0  0  0  0  0
   58.9060   33.7250   48.1960 N   0  0  0  0  0  0  0  0  0  0  0  0
   58.7690   33.5290   46.9170 C   0  0  0  0  0  0  0  0  0  0  0  0
   58.1380   32.3760   46.4230 C   0  0  0  0  0  0  0  0  0  0  0  0
   58.0100   32.2150   45.0770 C   0  0  0  0  0  0  0  0  0  0  0  0
   57.3940   31.1120   44.5680 C   0  0  0  0  0  0  0  0  0  0  0  0
   57.0480   30.1190   45.2250 N   0  0  0  0  0  0  0  0  0  0  0  0
   57.7330   28.9800   45.5500 C   0  0  0  0  0  0  0  0  0  0  0  0
   57.5280   27.8440   44.7230 C   0  0  0  0  0  0  0  0  0  0  0  0
   58.0840   26.6420   45.0040 C   0  0  0  0  0  0  0  0  0  0  0  0
   58.8760   26.5130   46.1290 C   0  0  0  0  0  0  0  0  0  0  0  0
   59.4230   25.3040   46.3920 F   0  0  0  0  0  0  0  0  0  0  0  0
   59.0840   27.6040   46.9430 C   0  0  0  0  0  0  0  0  0  0  0  0
   60.0900   27.4550   48.3810 Cl  0  0  0  0  0  0  0  0  0  0  0  0
   58.5410   28.8530   46.7010 C   0  0  0  0  0  0  0  0  0  0  0  0
   57.2750   31.0240   43.2120 N   0  0  0  0  0  0  0  0  0  0  0  0
   57.7410   31.9630   42.3740 C   0  0  0  0  0  0  0  0  0  0  0  0
   58.3560   33.0560   42.8510 N   0  0  0  0  0  0  0  0  0  0  0  0
   58.4790   33.1540   44.2030 C   0  0  0  0  0  0  0  0  0  0  0  0
   59.0890   34.2670   44.6890 C   0  0  0  0  0  0  0  0  0  0  0  0
   59.2070   34.4040   46.0160 N   0  0  0  0  0  0  0  0  0  0  0  0
   63.9781   34.7705   46.4304 H   0  0  0  0  0  0  0  0  0  0  0  0
   63.9737   33.0673   45.8597 H   0  0  0  0  0  0  0  0  0  0  0  0
   62.4499   34.0185   45.8597 H   0  0  0  0  0  0  0  0  0  0  0  0
   63.6773   32.4532   48.0086 H   0  0  0  0  0  0  0  0  0  0  0  0
   63.3877   34.1498   48.5170 H   0  0  0  0  0  0  0  0  0  0  0  0
   62.5405   31.3309   48.6472 H   0  0  0  0  0  0  0  0  0  0  0  0
   60.7685   31.5342   48.9923 H   0  0  0  0  0  0  0  0  0  0  0  0
   60.8234   29.8458   47.3664 H   0  0  0  0  0  0  0  0  0  0  0  0
   60.4647   31.3362   46.4301 H   0  0  0  0  0  0  0  0  0  0  0  0
   62.1263   30.6536   46.4301 H   0  0  0  0  0  0  0  0  0  0  0  0
   60.9340   33.0768   49.9170 H   0  0  0  0  0  0  0  0  0  0  0  0
   61.9538   34.4836   49.4901 H   0  0  0  0  0  0  0  0  0  0  0  0
   59.5569   35.0642   49.6545 H   0  0  0  0  0  0  0  0  0  0  0  0
   60.2329   35.3010   47.9819 H   0  0  0  0  0  0  0  0  0  0  0  0
   57.7520   31.6126   47.1145 H   0  0  0  0  0  0  0  0  0  0  0  0
   56.8982   27.9437   43.8267 H   0  0  0  0  0  0  0  0  0  0  0  0
   57.9075   25.7790   44.3451 H   0  0  0  0  0  0  0  0  0  0  0  0
   58.7292   29.7045   47.3715 H   0  0  0  0  0  0  0  0  0  0  0  0
   56.8070   30.2010   42.7630 H   0  0  0  0  0  0  0  0  0  0  0  0
   57.6179   31.8357   41.2884 H   0  0  0  0  0  0  0  0  0  0  0  0
   59.4772   35.0383   44.0075 H   0  0  0  0  0  0  0  0  0  0  0  0
   59.6840   35.2450   46.3600 H   0  0  0  0  0  0  0  0  0  0  0  0
  1  2  1  0
  2  3  1  0
  3  4  1  0
  4  5  1  0
  3  6  1  0
  6  7  1  0
  7  8  1  0
  8  9  2  0
  9 10  1  0
 10 11  2  0
 11 12  1  0
 12 13  2  0
 13 14  1  0
 14 15  2  0
 15 16  1  0
 16 17  2  0
 17 18  1  0
 17 19  1  0
 19 20  1  0
 19 21  2  0
 12 22  1  0
 22 23  1  0
 23 24  2  0
 24 25  1  0
 25 26  2  0
 26 27  1  0
 27  9  1  0
 25 11  1  0
 21 14  1  0
  1 28  1  0
  1 29  1  0
  1 30  1  0
  2 31  1  0
  2 32  1  0
  4 33  1  0
  4 34  1  0
  5 35  1  0
  5 36  1  0
  5 37  1  0
  6 38  1  0
  6 39  1  0
  7 40  1  0
  7 41  1  0
 10 42  1  0
 15 43  1  0
 16 44  1  0
 21 45  1  0
 22 46  1  0
 23 47  1  0
 26 48  1  0
 27 49  1  0
M  END
>  <smiles>  (43) 
CCN(CC)CCN=c1cc2c(=Nc3ccc(F)c(Cl)c3)[nH]cnc2c[nH]1

>  <score_type>  (43) 
oracle

>  <origin>  (43) 
adg

>  <m_score__min__energy>  (43) 
-7.8099999999999996

>  <m_primary>  (43) 
energy

$$$$
43:0
     RDKit          3D

 49 52  0  0  0  0  0  0  0  0999 V2000
   59.6680   27.3030   47.7390 C   0  0  0  0  0  0  0  0  0  0  0  0
   58.9520   27.7440   46.4880 C   0  0  0  0  0  0  0  0  0  0  0  0
   58.6140   26.8270   45.4490 C   0  0  0  0  0  0  0  0  0  0  0  0
   58.0640   27.3120   44.2400 C   0  0  0  0  0  0  0  0  0  0  0  0
   57.7840   28.6350   44.0770 N   0  0  0  0  0  0  0  0  0  0  0  0
   58.0290   29.4900   45.0950 C   0  0  0  0  0  0  0  0  0  0  0  0
   57.7650   30.8050   45.0890 N   0  0  0  0  0  0  0  0  0  0  0  0
   58.1310   31.2640   46.2790 N   0  0  0  0  0  0  0  0  0  0  0  0
   57.9580   32.6660   46.6660 C   0  0  0  0  0  0  0  0  0  0  0  0
   59.2340   33.2170   47.2470 C   0  0  0  0  0  0  0  0  0  0  0  0
   60.4010   33.2920   46.4670 C   0  0  0  0  0  0  0  0  0  0  0  0
   61.5810   33.8070   47.0140 C   0  0  0  0  0  0  0  0  0  0  0  0
   61.6040   34.2550   48.3370 C   0  0  0  0  0  0  0  0  0  0  0  0
   60.4450   34.1940   49.1150 C   0  0  0  0  0  0  0  0  0  0  0  0
   59.2630   33.6800   48.5740 C   0  0  0  0  0  0  0  0  0  0  0  0
   58.6130   30.2490   47.0490 C   0  0  0  0  0  0  0  0  0  0  0  0
   59.0780   30.3940   48.4700 C   0  0  0  0  0  0  0  0  0  0  0  0
   58.5770   29.0860   46.2840 C   0  0  0  0  0  0  0  0  0  0  0  0
   57.8100   26.3420   43.1340 C   0  0  0  0  0  0  0  0  0  0  0  0
   57.1080   25.0980   43.6930 C   0  0  0  0  0  0  0  0  0  0  0  0
   57.7290   24.5570   44.9340 N   0  0  0  0  0  0  0  0  0  0  0  0
   56.7350   24.0790   45.9210 C   0  0  0  0  0  0  0  0  0  0  0  0
   56.1490   25.2050   46.7930 C   0  0  0  0  0  0  0  0  0  0  0  0
   55.4580   26.1230   45.9910 O   0  0  0  0  0  0  0  0  0  0  0  0
   58.8470   25.3310   45.5340 C   0  0  0  0  0  0  0  0  0  0  0  0
   59.1093   27.6471   48.6219 H   0  0  0  0  0  0  0  0  0  0  0  0
   59.7376   26.2053   47.7540 H   0  0  0  0  0  0  0  0  0  0  0  0
   60.6796   27.7348   47.7540 H   0  0  0  0  0  0  0  0  0  0  0  0
   57.6811   33.2544   45.7788 H   0  0  0  0  0  0  0  0  0  0  0  0
   57.1659   32.7288   47.4267 H   0  0  0  0  0  0  0  0  0  0  0  0
   60.3863   32.9447   45.4234 H   0  0  0  0  0  0  0  0  0  0  0  0
   62.4929   33.8593   46.4010 H   0  0  0  0  0  0  0  0  0  0  0  0
   62.5342   34.6557   48.7661 H   0  0  0  0  0  0  0  0  0  0  0  0
   60.4627   34.5512   50.1553 H   0  0  0  0  0  0  0  0  0  0  0  0
   58.3520   33.6377   49.1891 H   0  0  0  0  0  0  0  0  0  0  0  0
   58.2549   30.1373   49.1531 H   0  0  0  0  0  0  0  0  0  0  0  0
   59.9272   29.7180   48.6487 H   0  0  0  0  0  0  0  0  0  0  0  0
   59.3924   31.4328   48.6487 H   0  0  0  0  0  0  0  0  0  0  0  0
   57.1699   26.8131   42.3735 H   0  0  0  0  0  0  0  0  0  0  0  0
   58.7671   26.0481   42.6783 H   0  0  0  0  0  0  0  0  0  0  0  0
   56.0634   25.3612   43.9156 H   0  0  0  0  0  0  0  0  0  0  0  0
   57.1937   24.3135   42.9267 H   0  0  0  0  0  0  0  0  0  0  0  0
   55.9106   23.5932   45.3784 H   0  0  0  0  0  0  0  0  0  0  0  0
   57.2556   23.3833   46.5955 H   0  0  0  0  0  0  0  0  0  0  0  0
   55.4567   24.7720   47.5300 H   0  0  0  0  0  0  0  0  0  0  0  0
   56.9690   25.7241   47.3108 H   0  0  0  0  0  0  0  0  0  0  0  0
   55.9850   26.2230   45.1550 H   0  0  0  0  0  0  0  0  0  0  0  0
   58.9476   25.0471   46.5920 H   0  0  0  0  0  0  0  0  0  0  0  0
   59.7621   25.0977   44.9699 H   0  0  0  0  0  0  0  0  0  0  0  0
  1  2  1  0
  2  3  2  0
  3  4  1  0
  4  5  2  0
  5  6  1  0
  6  7  2  0
  7  8  1  0
  8  9  1  0
  9 10  1  0
 10 11  2  0
 11 12  1  0
 12 13  2  0
 13 14  1  0
 14 15  2  0
  8 16  1  0
 16 17  1  0
 16 18  2  0
  4 19  1  0
 19 20  1  0
 20 21  1  0
 21 22  1  0
 22 23  1  0
 23 24  1  0
 21 25  1  0
 18  2  1  0
 25  3  1  0
 18  6  1  0
 15 10  1  0
  1 26  1  0
  1 27  1  0
  1 28  1  0
  9 29  1  0
  9 30  1  0
 11 31  1  0
 12 32  1  0
 13 33  1  0
 14 34  1  0
 15 35  1  0
 17 36  1  0
 17 37  1  0
 17 38  1  0
 19 39  1  0
 19 40  1  0
 20 41  1  0
 20 42  1  0
 22 43  1  0
 22 44  1  0
 23 45  1  0
 23 46  1  0
 24 47  1  0
 25 48  1  0
 25 49  1  0
M  END
>  <UniqueID>  (44) 
40

>  <SMILES>  (44) 
Cc1c2c(nc3nn(Cc4ccccc4)c(C)c13)CCN(CCO)C2

>  <Energy>  (44) 
105.69802812288478

>  <Genealogy>  (44) 
Cc1c2c(nc3nn(Cc4ccccc4)c(C)c13)CCN(CCO)C2 (3D coordinates assigned)
Cc1c2c(nc3nn(Cc4ccccc4)c(C)c13)CCN(CCO)C2 (nonaromatic ring conformer: 105.69802812288478 kcal/mol)

>  <smiles>  (44) 
Cc1c2c(nc3nn(Cc4ccccc4)c(C)c13)CCN(CCO)C2

>  <score_type>  (44) 
oracle

>  <origin>  (44) 
adg

>  <m_score__min__energy>  (44) 
-7.9800000000000004

>  <m_primary>  (44) 
energy

$$$$
44:0
     RDKit          3D

 28 30  0  0  0  0  0  0  0  0999 V2000
   65.8380   32.2150   50.1610 C   0  0  0  0  0  0  0  0  0  0  0  0
   64.5920   33.4210   50.7090 S   0  0  0  0  0  0  0  0  0  0  0  0
   63.7320   33.4210   49.1330 C   0  0  0  0  0  0  0  0  0  0  0  0
   64.4160   33.2480   47.9620 N   0  0  0  0  0  0  0  0  0  0  0  0
   63.7680   33.2690   46.7500 C   0  0  0  0  0  0  0  0  0  0  0  0
   62.4160   33.4580   46.6880 N   0  0  0  0  0  0  0  0  0  0  0  0
   61.7360   33.6100   47.8500 C   0  0  0  0  0  0  0  0  0  0  0  0
   62.3580   33.6100   49.0550 C   0  0  0  0  0  0  0  0  0  0  0  0
   61.3690   33.8570   49.9820 C   0  0  0  0  0  0  0  0  0  0  0  0
   60.1950   34.0040   49.3180 N   0  0  0  0  0  0  0  0  0  0  0  0
   60.4200   33.8470   48.0150 N   0  0  0  0  0  0  0  0  0  0  0  0
   59.3970   33.9560   47.0080 C   0  0  0  0  0  0  0  0  0  0  0  0
   59.6310   34.7270   45.8560 C   0  0  0  0  0  0  0  0  0  0  0  0
   58.6450   34.8510   44.8730 C   0  0  0  0  0  0  0  0  0  0  0  0
   57.4130   34.2150   45.0330 C   0  0  0  0  0  0  0  0  0  0  0  0
   57.1620   33.4580   46.1810 C   0  0  0  0  0  0  0  0  0  0  0  0
   58.1450   33.3310   47.1670 C   0  0  0  0  0  0  0  0  0  0  0  0
   66.3138   31.7545   51.0394 H   0  0  0  0  0  0  0  0  0  0  0  0
   65.3523   31.4352   49.5561 H   0  0  0  0  0  0  0  0  0  0  0  0
   66.6016   32.7259   49.5561 H   0  0  0  0  0  0  0  0  0  0  0  0
   65.4500   33.1040   47.9830 H   0  0  0  0  0  0  0  0  0  0  0  0
   64.3426   33.1325   45.8220 H   0  0  0  0  0  0  0  0  0  0  0  0
   61.5073   33.9235   51.0712 H   0  0  0  0  0  0  0  0  0  0  0  0
   60.5973   35.2365   45.7272 H   0  0  0  0  0  0  0  0  0  0  0  0
   58.8404   35.4508   43.9719 H   0  0  0  0  0  0  0  0  0  0  0  0
   56.6400   34.3094   44.2561 H   0  0  0  0  0  0  0  0  0  0  0  0
   56.1890   32.9612   46.3089 H   0  0  0  0  0  0  0  0  0  0  0  0
   57.9395   32.7399   48.0716 H   0  0  0  0  0  0  0  0  0  0  0  0
  1  2  1  0
  2  3  1  0
  3  4  2  0
  4  5  1  0
  5  6  2  0
  6  7  1  0
  7  8  2  0
  8  9  1  0
  9 10  2  0
 10 11  1  0
 11 12  1  0
 12 13  2  0
 13 14  1  0
 14 15  2  0
 15 16  1  0
 16 17  2  0
  8  3  1  0
 17 12  1  0
 11  7  1  0
  1 18  1  0
  1 19  1  0
  1 20  1  0
  4 21  1  0
  5 22  1  0
  9 23  1  0
 13 24  1  0
 14 25  1  0
 15 26  1  0
 16 27  1  0
 17 28  1  0
M  CHG  1   4   1
M  END
>  <UniqueID>  (45) 
41

>  <SMILES>  (45) 
CSc1[nH+]cnc2c1cnn2-c1ccccc1

>  <Energy>  (45) 
72.21682746155311

>  <Genealogy>  (45) 
CSc1[nH+]cnc2c1cnn2-c1ccccc1 (protonated)
CSc1[nH+]cnc2c1cnn2-c1ccccc1 (3D coordinates assigned)
CSc1[nH+]cnc2c1cnn2-c1ccccc1 (optimized conformer: 72.21682746155311 kcal/mol)

>  <smiles>  (45) 
CSc1ncnc2c1cnn2-c1ccccc1

>  <score_type>  (45) 
oracle

>  <origin>  (45) 
adg

>  <m_score__min__energy>  (45) 
-5.4800000000000004

>  <m_primary>  (45) 
energy

$$$$
45:0
     RDKit          3D

 64 67  0  0  0  0  0  0  0  0999 V2000
   58.2620   21.6250   45.6180 C   0  0  0  0  0  0  0  0  0  0  0  0
   58.3240   21.8640   44.1080 C   0  0  0  0  0  0  0  0  0  0  0  0
   57.0350   21.4520   43.3830 C   0  0  0  0  0  0  0  0  0  0  0  0
   56.1420   22.6550   43.0330 C   0  0  0  0  0  0  0  0  0  0  0  0
   56.4320   23.8820   43.9140 C   0  0  0  0  0  0  0  0  0  0  0  0
   57.3990   24.8800   43.2350 C   0  0  0  0  0  0  0  0  0  0  0  0
   57.7410   26.0560   44.0660 N   0  0  0  0  0  0  0  0  0  0  0  0
   58.3690   27.1600   43.3020 C   0  0  0  0  0  0  0  0  0  0  0  0
   58.3310   28.4660   44.1180 C   0  0  0  0  0  0  0  0  0  0  0  0
   58.7720   28.2040   45.5310 C   0  0  0  0  0  0  0  0  0  0  0  0
   58.7640   26.9460   46.0800 C   0  0  0  0  0  0  0  0  0  0  0  0
   59.0550   27.0700   47.4200 C   0  0  0  0  0  0  0  0  0  0  0  0
   59.2010   28.4330   47.6460 C   0  0  0  0  0  0  0  0  0  0  0  0
   59.5180   29.0320   48.9630 C   0  0  0  0  0  0  0  0  0  0  0  0
   58.5670   29.8270   49.6220 C   0  0  0  0  0  0  0  0  0  0  0  0
   58.8590   30.3970   50.8640 C   0  0  0  0  0  0  0  0  0  0  0  0
   60.0960   30.1590   51.4850 C   0  0  0  0  0  0  0  0  0  0  0  0
   60.4320   30.8150   52.8010 C   0  0  0  0  0  0  0  0  0  0  0  0
   61.7650   30.6250   53.1150 F   0  0  0  0  0  0  0  0  0  0  0  0
   60.1780   32.1710   52.7110 F   0  0  0  0  0  0  0  0  0  0  0  0
   59.6660   30.2800   53.8230 F   0  0  0  0  0  0  0  0  0  0  0  0
   61.0520   29.3730   50.8190 C   0  0  0  0  0  0  0  0  0  0  0  0
   60.7590   28.8020   49.5770 C   0  0  0  0  0  0  0  0  0  0  0  0
   59.0180   29.1240   46.4890 N   0  0  0  0  0  0  0  0  0  0  0  0
   58.9310   30.5500   46.3340 C   0  0  0  0  0  0  0  0  0  0  0  0
   57.8150   31.1250   45.7090 C   0  0  0  0  0  0  0  0  0  0  0  0
   57.7200   32.5130   45.5750 C   0  0  0  0  0  0  0  0  0  0  0  0
   58.7340   33.3460   46.0640 C   0  0  0  0  0  0  0  0  0  0  0  0
   58.5920   34.7330   45.9070 O   0  0  0  0  0  0  0  0  0  0  0  0
   59.6570   35.6690   46.0290 C   0  0  0  0  0  0  0  0  0  0  0  0
   59.8540   32.7680   46.6930 C   0  0  0  0  0  0  0  0  0  0  0  0
   59.9470   31.3800   46.8280 C   0  0  0  0  0  0  0  0  0  0  0  0
   58.5110   25.7060   45.2820 C   0  0  0  0  0  0  0  0  0  0  0  0
   58.5041   22.5584   46.1472 H   0  0  0  0  0  0  0  0  0  0  0  0
   57.2493   21.2979   45.8962 H   0  0  0  0  0  0  0  0  0  0  0  0
   58.9880   20.8468   45.8962 H   0  0  0  0  0  0  0  0  0  0  0  0
   58.4998   22.9351   43.9294 H   0  0  0  0  0  0  0  0  0  0  0  0
   59.1393   21.2425   43.7093 H   0  0  0  0  0  0  0  0  0  0  0  0
   57.3053   20.9315   42.4524 H   0  0  0  0  0  0  0  0  0  0  0  0
   56.4650   20.8005   44.0617 H   0  0  0  0  0  0  0  0  0  0  0  0
   56.3142   22.9276   41.9813 H   0  0  0  0  0  0  0  0  0  0  0  0
   55.0977   22.3575   43.2088 H   0  0  0  0  0  0  0  0  0  0  0  0
   55.4834   24.3974   44.1253 H   0  0  0  0  0  0  0  0  0  0  0  0
   56.9116   23.5259   44.8377 H   0  0  0  0  0  0  0  0  0  0  0  0
   58.3301   24.3469   42.9922 H   0  0  0  0  0  0  0  0  0  0  0  0
   56.8817   25.2635   42.3432 H   0  0  0  0  0  0  0  0  0  0  0  0
   59.4150   26.8999   43.0825 H   0  0  0  0  0  0  0  0  0  0  0  0
   57.8121   27.3079   42.3650 H   0  0  0  0  0  0  0  0  0  0  0  0
   59.0050   29.2030   43.6570 H   0  0  0  0  0  0  0  0  0  0  0  0
   57.3022   28.8552   44.1277 H   0  0  0  0  0  0  0  0  0  0  0  0
   59.1517   26.2595   48.1574 H   0  0  0  0  0  0  0  0  0  0  0  0
   57.5854   30.0024   49.1576 H   0  0  0  0  0  0  0  0  0  0  0  0
   58.1141   31.0372   51.3592 H   0  0  0  0  0  0  0  0  0  0  0  0
   62.0375   29.2060   51.2781 H   0  0  0  0  0  0  0  0  0  0  0  0
   61.5063   28.1680   49.0774 H   0  0  0  0  0  0  0  0  0  0  0  0
   57.0112   30.4811   45.3227 H   0  0  0  0  0  0  0  0  0  0  0  0
   56.8417   32.9546   45.0815 H   0  0  0  0  0  0  0  0  0  0  0  0
   59.8646   35.8515   47.0937 H   0  0  0  0  0  0  0  0  0  0  0  0
   60.5577   35.2649   45.5438 H   0  0  0  0  0  0  0  0  0  0  0  0
   59.3719   36.6141   45.5438 H   0  0  0  0  0  0  0  0  0  0  0  0
   60.6583   33.4113   47.0793 H   0  0  0  0  0  0  0  0  0  0  0  0
   60.8224   30.9363   47.3247 H   0  0  0  0  0  0  0  0  0  0  0  0
   59.4707   25.2534   44.9918 H   0  0  0  0  0  0  0  0  0  0  0  0
   57.9381   24.9882   45.8875 H   0  0  0  0  0  0  0  0  0  0  0  0
  1  2  1  0
  2  3  1  0
  3  4  1  0
  4  5  1  0
  5  6  1  0
  6  7  1  0
  7  8  1  0
  8  9  1  0
  9 10  1  0
 10 11  2  0
 11 12  1  0
 12 13  2  0
 13 14  1  0
 14 15  2  0
 15 16  1  0
 16 17  2  0
 17 18  1  0
 18 19  1  0
 18 20  1  0
 18 21  1  0
 17 22  1  0
 22 23  2  0
 13 24  1  0
 24 25  1  0
 25 26  2  0
 26 27  1  0
 27 28  2  0
 28 29  1  0
 29 30  1  0
 28 31  1  0
 31 32  2  0
 11 33  1  0
 33  7  1  0
 24 10  1  0
 32 25  1  0
 23 14  1  0
  1 34  1  0
  1 35  1  0
  1 36  1  0
  2 37  1  0
  2 38  1  0
  3 39  1  0
  3 40  1  0
  4 41  1  0
  4 42  1  0
  5 43  1  0
  5 44  1  0
  6 45  1  0
  6 46  1  0
  8 47  1  0
  8 48  1  0
  9 49  1  0
  9 50  1  0
 12 51  1  0
 15 52  1  0
 16 53  1  0
 22 54  1  0
 23 55  1  0
 26 56  1  0
 27 57  1  0
 30 58  1  0
 30 59  1  0
 30 60  1  0
 31 61  1  0
 32 62  1  0
 33 63  1  0
 33 64  1  0
M  END
>  <UniqueID>  (46) 
42

>  <SMILES>  (46) 
CCCCCCN1CCc2c(cc(-c3ccc(C(F)(F)F)cc3)n2-c2ccc(OC)cc2)C1

>  <Energy>  (46) 
102.25050279250964

>  <Genealogy>  (46) 
CCCCCCN1CCc2c(cc(-c3ccc(C(F)(F)F)cc3)n2-c2ccc(OC)cc2)C1 (3D coordinates assigned)
CCCCCCN1CCc2c(cc(-c3ccc(C(F)(F)F)cc3)n2-c2ccc(OC)cc2)C1 (nonaromatic ring conformer: 102.25050279250964 kcal/mol)

>  <smiles>  (46) 
CCCCCCN1CCc2c(cc(-c3ccc(C(F)(F)F)cc3)n2-c2ccc(OC)cc2)C1

>  <score_type>  (46) 
oracle

>  <origin>  (46) 
adg

>  <m_score__min__energy>  (46) 
-7.6100000000000003

>  <m_primary>  (46) 
energy

$$$$
46:0
     RDKit          3D

 38 41  0  0  0  0  0  0  0  0999 V2000
   64.6950   32.2140   49.7550 C   0  0  0  0  0  0  0  0  0  0  0  0
   63.6600   31.7480   48.8960 O   0  0  0  0  0  0  0  0  0  0  0  0
   62.6360   32.5570   48.3820 C   0  0  0  0  0  0  0  0  0  0  0  0
   62.6200   32.9960   47.0430 C   0  0  0  0  0  0  0  0  0  0  0  0
   61.5720   33.7960   46.5770 C   0  0  0  0  0  0  0  0  0  0  0  0
   60.5300   34.1740   47.4370 C   0  0  0  0  0  0  0  0  0  0  0  0
   59.3790   34.9950   46.9180 C   0  0  0  0  0  0  0  0  0  0  0  0
   58.4960   34.1770   46.0240 C   0  0  0  0  0  0  0  0  0  0  0  0
   57.6860   34.6900   45.0640 N   0  0  0  0  0  0  0  0  0  0  0  0
   57.0280   33.6740   44.5020 N   0  0  0  0  0  0  0  0  0  0  0  0
   57.4540   32.5710   45.1430 C   0  0  0  0  0  0  0  0  0  0  0  0
   57.0760   31.2950   44.9160 N   0  0  0  0  0  0  0  0  0  0  0  0
   57.6310   30.3320   45.6640 N   0  0  0  0  0  0  0  0  0  0  0  0
   58.5610   30.6200   46.6360 C   0  0  0  0  0  0  0  0  0  0  0  0
   59.1780   29.5380   47.4390 C   0  0  0  0  0  0  0  0  0  0  0  0
   59.0340   28.1900   47.0580 C   0  0  0  0  0  0  0  0  0  0  0  0
   59.6250   27.1730   47.8150 C   0  0  0  0  0  0  0  0  0  0  0  0
   60.3670   27.4870   48.9550 C   0  0  0  0  0  0  0  0  0  0  0  0
   60.5190   28.8210   49.3440 C   0  0  0  0  0  0  0  0  0  0  0  0
   61.4550   29.2170   50.7740 Cl  0  0  0  0  0  0  0  0  0  0  0  0
   59.9270   29.8420   48.5920 C   0  0  0  0  0  0  0  0  0  0  0  0
   58.9180   31.9230   46.8400 N   0  0  0  0  0  0  0  0  0  0  0  0
   58.3460   32.8480   46.0800 N   0  0  0  0  0  0  0  0  0  0  0  0
   60.5480   33.7370   48.7710 C   0  0  0  0  0  0  0  0  0  0  0  0
   61.5940   32.9350   49.2360 C   0  0  0  0  0  0  0  0  0  0  0  0
   64.3909   32.0771   50.8032 H   0  0  0  0  0  0  0  0  0  0  0  0
   65.6157   31.6435   49.5628 H   0  0  0  0  0  0  0  0  0  0  0  0
   64.8782   33.2815   49.5628 H   0  0  0  0  0  0  0  0  0  0  0  0
   63.4346   32.7084   46.3621 H   0  0  0  0  0  0  0  0  0  0  0  0
   61.5646   34.1311   45.5293 H   0  0  0  0  0  0  0  0  0  0  0  0
   58.7872   35.3632   47.7690 H   0  0  0  0  0  0  0  0  0  0  0  0
   59.7829   35.8369   46.3366 H   0  0  0  0  0  0  0  0  0  0  0  0
   58.4531   27.9352   46.1594 H   0  0  0  0  0  0  0  0  0  0  0  0
   59.5047   26.1227   47.5111 H   0  0  0  0  0  0  0  0  0  0  0  0
   60.8319   26.6849   49.5470 H   0  0  0  0  0  0  0  0  0  0  0  0
   60.0477   30.8899   48.9040 H   0  0  0  0  0  0  0  0  0  0  0  0
   59.7354   34.0270   49.4533 H   0  0  0  0  0  0  0  0  0  0  0  0
   61.5981   32.5978   50.2830 H   0  0  0  0  0  0  0  0  0  0  0  0
  1  2  1  0
  2  3  1  0
  3  4  2  0
  4  5  1  0
  5  6  2  0
  6  7  1  0
  7  8  1  0
  8  9  2  0
  9 10  1  0
 10 11  2  0
 11 12  1  0
 12 13  2  0
 13 14  1  0
 14 15  1  0
 15 16  2  0
 16 17  1  0
 17 18  2  0
 18 19  1  0
 19 20  1  0
 19 21  2  0
 14 22  2  0
 22 23  1  0
  6 24  1  0
 24 25  2  0
 25  3  1  0
 23  8  1  0
 23 11  1  0
 21 15  1  0
  1 26  1  0
  1 27  1  0
  1 28  1  0
  4 29  1  0
  5 30  1  0
  7 31  1  0
  7 32  1  0
 16 33  1  0
 17 34  1  0
 18 35  1  0
 21 36  1  0
 24 37  1  0
 25 38  1  0
M  END
>  <UniqueID>  (47) 
43

>  <SMILES>  (47) 
COc1ccc(Cc2nnc3nnc(-c4cccc(Cl)c4)nn23)cc1

>  <Energy>  (47) 
87.91528570034222

>  <Genealogy>  (47) 
COc1ccc(Cc2nnc3nnc(-c4cccc(Cl)c4)nn23)cc1 (3D coordinates assigned)
COc1ccc(Cc2nnc3nnc(-c4cccc(Cl)c4)nn23)cc1 (optimized conformer: 87.91528570034222 kcal/mol)

>  <smiles>  (47) 
COc1ccc(Cc2nnc3nnc(-c4cccc(Cl)c4)nn23)cc1

>  <score_type>  (47) 
oracle

>  <origin>  (47) 
adg

>  <m_score__min__energy>  (47) 
-8.2899999999999991

>  <m_primary>  (47) 
energy

$$$$
