0:0
     RDKit          3D

 52 53  0  0  0  0  0  0  0  0999 V2000
   57.4030   28.4170   44.6160 C   0  0  0  0  0  0  0  0  0  0  0  0
   56.5920   29.6370   44.1860 C   0  0  0  0  0  0  0  0  0  0  0  0
   57.4120   30.6460   43.4880 N   0  0  0  0  0  0  0  0  0  0  0  0
   58.1120   31.6490   44.3280 C   0  0  1  0  0  0  0  0  0  0  0  0
   57.8860   33.0950   43.7900 C   0  0  0  0  0  0  0  0  0  0  0  0
   57.7310   34.1720   44.8830 C   0  0  0  0  0  0  0  0  0  0  0  0
   58.5900   33.8820   46.0870 C   0  0  0  0  0  0  0  0  0  0  0  0
   59.2690   34.9060   46.7610 C   0  0  0  0  0  0  0  0  0  0  0  0
   60.0140   34.6160   47.9070 C   0  0  0  0  0  0  0  0  0  0  0  0
   60.0780   33.3100   48.4060 C   0  0  0  0  0  0  0  0  0  0  0  0
   60.8360   33.0750   49.5610 O   0  0  0  0  0  0  0  0  0  0  0  0
   61.2830   31.7910   49.9890 C   0  0  0  0  0  0  0  0  0  0  0  0
   62.6930   31.5030   49.4490 C   0  0  0  0  0  0  0  0  0  0  0  0
   63.3180   32.6570   48.7440 N   0  0  0  0  0  0  0  0  0  0  0  0
   64.6120   33.0890   49.3490 C   0  0  0  0  0  0  0  0  0  0  0  0
   65.3760   32.0030   50.1290 C   0  0  0  0  0  0  0  0  0  0  0  0
   63.3850   32.5250   47.2630 C   0  0  0  0  0  0  0  0  0  0  0  0
   63.3330   33.8460   46.4880 C   0  0  0  0  0  0  0  0  0  0  0  0
   59.3810   32.2820   47.7390 C   0  0  0  0  0  0  0  0  0  0  0  0
   58.6450   32.5690   46.5800 C   0  0  0  0  0  0  0  0  0  0  0  0
   57.8750   31.5010   45.8530 C   0  0  0  0  0  0  0  0  0  0  0  0
   57.4361   28.3673   45.7144 H   0  0  0  0  0  0  0  0  0  0  0  0
   56.9307   27.5052   44.2217 H   0  0  0  0  0  0  0  0  0  0  0  0
   58.4266   28.4996   44.2217 H   0  0  0  0  0  0  0  0  0  0  0  0
   55.7896   29.3063   43.5102 H   0  0  0  0  0  0  0  0  0  0  0  0
   56.1887   30.1065   45.0954 H   0  0  0  0  0  0  0  0  0  0  0  0
   58.1380   30.1220   42.9450 H   0  0  0  0  0  0  0  0  0  0  0  0
   59.1855   31.4315   44.2269 H   0  0  0  0  0  0  0  0  0  0  0  0
   58.7476   33.3656   43.1620 H   0  0  0  0  0  0  0  0  0  0  0  0
   56.9360   33.0755   43.2359 H   0  0  0  0  0  0  0  0  0  0  0  0
   58.0228   35.1468   44.4650 H   0  0  0  0  0  0  0  0  0  0  0  0
   56.6803   34.1771   45.2085 H   0  0  0  0  0  0  0  0  0  0  0  0
   59.2154   35.9392   46.3875 H   0  0  0  0  0  0  0  0  0  0  0  0
   60.5559   35.4227   48.4224 H   0  0  0  0  0  0  0  0  0  0  0  0
   61.3040   31.7632   51.0884 H   0  0  0  0  0  0  0  0  0  0  0  0
   60.5918   31.0273   49.6029 H   0  0  0  0  0  0  0  0  0  0  0  0
   63.3376   31.2243   50.2956 H   0  0  0  0  0  0  0  0  0  0  0  0
   62.5923   30.6945   48.7100 H   0  0  0  0  0  0  0  0  0  0  0  0
   62.6750   33.4700   48.9020 H   0  0  0  0  0  0  0  0  0  0  0  0
   65.2635   33.4444   48.5371 H   0  0  0  0  0  0  0  0  0  0  0  0
   64.3562   33.8652   50.0852 H   0  0  0  0  0  0  0  0  0  0  0  0
   65.2557   32.1741   51.2089 H   0  0  0  0  0  0  0  0  0  0  0  0
   64.9745   31.0128   49.8676 H   0  0  0  0  0  0  0  0  0  0  0  0
   66.4436   32.0464   49.8676 H   0  0  0  0  0  0  0  0  0  0  0  0
   64.3274   32.0179   47.0087 H   0  0  0  0  0  0  0  0  0  0  0  0
   62.4888   31.9607   46.9656 H   0  0  0  0  0  0  0  0  0  0  0  0
   63.2999   34.6862   47.1973 H   0  0  0  0  0  0  0  0  0  0  0  0
   64.2283   33.9354   45.8552 H   0  0  0  0  0  0  0  0  0  0  0  0
   62.4334   33.8647   45.8552 H   0  0  0  0  0  0  0  0  0  0  0  0
   59.4144   31.2536   48.1280 H   0  0  0  0  0  0  0  0  0  0  0  0
   58.2187   30.5099   46.1841 H   0  0  0  0  0  0  0  0  0  0  0  0
   56.8021   31.6058   46.0717 H   0  0  0  0  0  0  0  0  0  0  0  0
  1  2  1  0
  2  3  1  0
  3  4  1  0
  4  5  1  0
  5  6  1  0
  6  7  1  0
  7  8  2  0
  8  9  1  0
  9 10  2  0
 10 11  1  0
 11 12  1  0
 12 13  1  0
 13 14  1  0
 14 15  1  0
 15 16  1  0
 14 17  1  0
 17 18  1  0
 10 19  1  0
 19 20  2  0
 20 21  1  0
 21  4  1  0
 20  7  1  0
  1 22  1  0
  1 23  1  0
  1 24  1  0
  2 25  1  0
  2 26  1  0
  3 27  1  0
  4 28  1  1
  5 29  1  0
  5 30  1  0
  6 31  1  0
  6 32  1  0
  8 33  1  0
  9 34  1  0
 12 35  1  0
 12 36  1  0
 13 37  1  0
 13 38  1  0
 14 39  1  0
 15 40  1  0
 15 41  1  0
 16 42  1  0
 16 43  1  0
 16 44  1  0
 17 45  1  0
 17 46  1  0
 18 47  1  0
 18 48  1  0
 18 49  1  0
 19 50  1  0
 21 51  1  0
 21 52  1  0
M  CHG  1  14   1
M  END
>  <UniqueID>  (1) 
1

>  <SMILES>  (1) 
CCN[C@H]1CCc2ccc(OCC[NH+](CC)CC)cc2C1

>  <Energy>  (1) 
66.80754818163264

>  <Genealogy>  (1) 
CCNC1CCc2ccc(OCC[NH+](CC)CC)cc2C1 (protonated)
CCN[C@H]1CCc2ccc(OCC[NH+](CC)CC)cc2C1 (chirality)
CCN[C@H]1CCc2ccc(OCC[NH+](CC)CC)cc2C1 (3D coordinates assigned)
CCN[C@H]1CCc2ccc(OCC[NH+](CC)CC)cc2C1 (nonaromatic ring conformer: 66.80754818163264 kcal/mol)

>  <smiles>  (1) 
CCNC1CCc2ccc(OCCN(CC)CC)cc2C1

>  <score_type>  (1) 
oracle

>  <origin>  (1) 
adg

>  <m_score__min__energy>  (1) 
-5.2999999999999998

>  <m_primary>  (1) 
energy

$$$$
1:0
     RDKit          3D

 33 35  0  0  0  0  0  0  0  0999 V2000
   61.6990   31.2140   47.2850 C   0  0  0  0  0  0  0  0  0  0  0  0
   60.6270   30.9910   46.3760 O   0  0  0  0  0  0  0  0  0  0  0  0
   59.7450   29.8980   46.4250 C   0  0  0  0  0  0  0  0  0  0  0  0
   60.0600   28.7430   47.1670 C   0  0  0  0  0  0  0  0  0  0  0  0
   59.2190   27.6330   47.1440 C   0  0  0  0  0  0  0  0  0  0  0  0
   58.0680   27.6450   46.3610 C   0  0  0  0  0  0  0  0  0  0  0  0
   57.7280   28.7830   45.6250 C   0  0  0  0  0  0  0  0  0  0  0  0
   58.5250   29.9500   45.6990 C   0  0  0  0  0  0  0  0  0  0  0  0
   58.1360   31.1690   44.8530 C   0  0  2  0  0  0  0  0  0  0  0  0
   58.4980   32.4920   45.5080 C   0  0  0  0  0  0  0  0  0  0  0  0
   58.4160   32.6510   46.9050 C   0  0  0  0  0  0  0  0  0  0  0  0
   58.7470   33.8730   47.4960 C   0  0  0  0  0  0  0  0  0  0  0  0
   59.1540   34.9490   46.7040 C   0  0  0  0  0  0  0  0  0  0  0  0
   59.2250   34.8070   45.3160 C   0  0  0  0  0  0  0  0  0  0  0  0
   59.6140   35.8540   44.5470 F   0  0  0  0  0  0  0  0  0  0  0  0
   58.8950   33.5870   44.7180 C   0  0  0  0  0  0  0  0  0  0  0  0
   56.6330   31.2030   44.5020 C   0  0  0  0  0  0  0  0  0  0  0  0
   56.1280   29.8490   44.1260 C   0  0  0  0  0  0  0  0  0  0  0  0
   55.2100   29.7270   43.2740 O   0  0  0  0  0  0  0  0  0  0  0  0
   56.6080   28.7250   44.7930 O   0  0  0  0  0  0  0  0  0  0  0  0
   61.3266   31.1365   48.3172 H   0  0  0  0  0  0  0  0  0  0  0  0
   62.4824   30.4596   47.1202 H   0  0  0  0  0  0  0  0  0  0  0  0
   62.1166   32.2182   47.1202 H   0  0  0  0  0  0  0  0  0  0  0  0
   60.9793   28.7174   47.7706 H   0  0  0  0  0  0  0  0  0  0  0  0
   59.4647   26.7454   47.7455 H   0  0  0  0  0  0  0  0  0  0  0  0
   57.4233   26.7546   46.3216 H   0  0  0  0  0  0  0  0  0  0  0  0
   58.7242   31.0497   43.9312 H   0  0  0  0  0  0  0  0  0  0  0  0
   58.0899   31.8093   47.5336 H   0  0  0  0  0  0  0  0  0  0  0  0
   58.6869   33.9880   48.5883 H   0  0  0  0  0  0  0  0  0  0  0  0
   59.4186   35.9082   47.1731 H   0  0  0  0  0  0  0  0  0  0  0  0
   58.9459   33.4825   43.6242 H   0  0  0  0  0  0  0  0  0  0  0  0
   56.0701   31.5646   45.3752 H   0  0  0  0  0  0  0  0  0  0  0  0
   56.4947   31.8741   43.6415 H   0  0  0  0  0  0  0  0  0  0  0  0
  1  2  1  0
  2  3  1  0
  3  4  2  0
  4  5  1  0
  5  6  2  0
  6  7  1  0
  7  8  2  0
  8  9  1  0
  9 10  1  0
 10 11  2  0
 11 12  1  0
 12 13  2  0
 13 14  1  0
 14 15  1  0
 14 16  2  0
  9 17  1  0
 17 18  1  0
 18 19  2  0
 18 20  1  0
  8  3  1  0
 16 10  1  0
 20  7  1  0
  1 21  1  0
  1 22  1  0
  1 23  1  0
  4 24  1  0
  5 25  1  0
  6 26  1  0
  9 27  1  6
 11 28  1  0
 12 29  1  0
 13 30  1  0
 16 31  1  0
 17 32  1  0
 17 33  1  0
M  END
>  <UniqueID>  (2) 
2

>  <SMILES>  (2) 
COc1cccc2c1[C@H](c1cccc(F)c1)CC(=O)O2

>  <Energy>  (2) 
39.79903759106131

>  <Genealogy>  (2) 
COc1cccc2c1[C@H](c1cccc(F)c1)CC(=O)O2 (chirality)
COc1cccc2c1[C@H](c1cccc(F)c1)CC(=O)O2 (3D coordinates assigned)
COc1cccc2c1[C@H](c1cccc(F)c1)CC(=O)O2 (nonaromatic ring conformer: 39.79903759106131 kcal/mol)

>  <smiles>  (2) 
COc1cccc2c1C(c1cccc(F)c1)CC(=O)O2

>  <score_type>  (2) 
oracle

>  <origin>  (2) 
adg

>  <m_score__min__energy>  (2) 
-6.5300000000000002

>  <m_primary>  (2) 
energy

$$$$
2:0
     RDKit          3D

 73 76  0  0  0  0  0  0  0  0999 V2000
   57.3780   33.7010   45.9600 C   0  0  0  0  0  0  0  0  0  0  0  0
   58.5080   34.2110   46.8530 C   0  0  0  0  0  0  0  0  0  0  0  0
   58.6900   33.3320   48.0170 N   0  0  0  0  0  0  0  0  0  0  0  0
   60.0650   33.3800   48.5590 C   0  0  0  0  0  0  0  0  0  0  0  0
   60.5970   31.9870   48.9480 C   0  0  0  0  0  0  0  0  0  0  0  0
   59.5090   31.0020   49.0870 N   0  0  0  0  0  0  0  0  0  0  0  0
   59.2050   30.0180   48.0660 C   0  0  0  0  0  0  0  0  0  0  0  0
   58.3220   30.2750   47.2010 O   0  0  0  0  0  0  0  0  0  0  0  0
   59.9490   28.7070   47.9600 C   0  0  0  0  0  0  0  0  0  0  0  0
   60.2040   28.2900   46.5020 C   0  0  0  0  0  0  0  0  0  0  0  0
   59.2860   27.1670   46.0530 C   0  0  0  0  0  0  0  0  0  0  0  0
   59.6110   25.8520   46.4300 C   0  0  0  0  0  0  0  0  0  0  0  0
   58.7770   24.7830   46.0920 C   0  0  0  0  0  0  0  0  0  0  0  0
   57.5970   25.0040   45.3720 C   0  0  0  0  0  0  0  0  0  0  0  0
   56.7290   23.9050   45.0400 N   0  0  0  0  0  0  0  0  0  0  0  0
   56.8920   22.6130   45.7120 C   0  0  0  0  0  0  0  0  0  0  0  0
   56.1480   21.5040   44.9520 C   0  0  0  0  0  0  0  0  0  0  0  0
   56.2860   21.6530   43.4870 N   0  0  0  0  0  0  0  0  0  0  0  0
   57.6630   21.3920   43.0360 C   0  0  0  0  0  0  0  0  0  0  0  0
   55.7700   22.9490   42.9710 C   0  0  0  0  0  0  0  0  0  0  0  0
   55.6700   24.0580   44.0380 C   0  0  0  0  0  0  0  0  0  0  0  0
   57.2640   26.3090   44.9900 C   0  0  0  0  0  0  0  0  0  0  0  0
   58.0980   27.3930   45.3050 C   0  0  0  0  0  0  0  0  0  0  0  0
   57.7070   28.7300   44.8050 C   0  0  0  0  0  0  0  0  0  0  0  0
   58.6740   29.6070   44.2850 C   0  0  0  0  0  0  0  0  0  0  0  0
   58.2930   30.8500   43.7690 C   0  0  0  0  0  0  0  0  0  0  0  0
   56.9430   31.2150   43.7470 C   0  0  0  0  0  0  0  0  0  0  0  0
   55.9740   30.3380   44.2410 C   0  0  0  0  0  0  0  0  0  0  0  0
   56.3510   29.0960   44.7630 C   0  0  0  0  0  0  0  0  0  0  0  0
   58.7480   31.0110   50.3090 C   0  0  0  0  0  0  0  0  0  0  0  0
   58.9730   30.0360   51.2950 C   0  0  0  0  0  0  0  0  0  0  0  0
   58.2070   30.0500   52.4610 C   0  0  0  0  0  0  0  0  0  0  0  0
   57.2220   31.0240   52.6330 C   0  0  0  0  0  0  0  0  0  0  0  0
   57.0200   31.9780   51.6330 C   0  0  0  0  0  0  0  0  0  0  0  0
   57.7770   31.9520   50.5010 N   0  0  0  0  0  0  0  0  0  0  0  0
   56.5543   33.3293   46.5872 H   0  0  0  0  0  0  0  0  0  0  0  0
   57.0136   34.5219   45.3249 H   0  0  0  0  0  0  0  0  0  0  0  0
   57.7525   32.8847   45.3249 H   0  0  0  0  0  0  0  0  0  0  0  0
   59.4419   34.2388   46.2725 H   0  0  0  0  0  0  0  0  0  0  0  0
   58.2486   35.2189   47.2092 H   0  0  0  0  0  0  0  0  0  0  0  0
   58.4420   32.3550   47.7300 H   0  0  0  0  0  0  0  0  0  0  0  0
   60.7298   33.8106   47.7957 H   0  0  0  0  0  0  0  0  0  0  0  0
   60.0427   33.9949   49.4708 H   0  0  0  0  0  0  0  0  0  0  0  0
   61.2921   31.6414   48.1686 H   0  0  0  0  0  0  0  0  0  0  0  0
   61.1035   32.0749   49.9205 H   0  0  0  0  0  0  0  0  0  0  0  0
   60.9172   28.8086   48.4722 H   0  0  0  0  0  0  0  0  0  0  0  0
   59.3245   27.9301   48.4252 H   0  0  0  0  0  0  0  0  0  0  0  0
   60.0404   29.1617   45.8513 H   0  0  0  0  0  0  0  0  0  0  0  0
   61.2394   27.9250   46.4334 H   0  0  0  0  0  0  0  0  0  0  0  0
   60.5336   25.6623   46.9983 H   0  0  0  0  0  0  0  0  0  0  0  0
   59.0495   23.7609   46.3937 H   0  0  0  0  0  0  0  0  0  0  0  0
   57.9622   22.3630   45.7579 H   0  0  0  0  0  0  0  0  0  0  0  0
   56.4721   22.6879   46.7259 H   0  0  0  0  0  0  0  0  0  0  0  0
   56.5607   20.5292   45.2510 H   0  0  0  0  0  0  0  0  0  0  0  0
   55.0795   21.5755   45.2033 H   0  0  0  0  0  0  0  0  0  0  0  0
   58.3181   21.2678   43.9109 H   0  0  0  0  0  0  0  0  0  0  0  0
   57.6826   20.4741   42.4301 H   0  0  0  0  0  0  0  0  0  0  0  0
   58.0171   22.2390   42.4301 H   0  0  0  0  0  0  0  0  0  0  0  0
   56.4441   23.2963   42.1742 H   0  0  0  0  0  0  0  0  0  0  0  0
   54.7473   22.7621   42.6117 H   0  0  0  0  0  0  0  0  0  0  0  0
   55.7719   25.0390   43.5508 H   0  0  0  0  0  0  0  0  0  0  0  0
   54.6935   23.9822   44.5387 H   0  0  0  0  0  0  0  0  0  0  0  0
   56.3324   26.4880   44.4332 H   0  0  0  0  0  0  0  0  0  0  0  0
   59.7345   29.3149   44.2837 H   0  0  0  0  0  0  0  0  0  0  0  0
   59.0556   31.5409   43.3803 H   0  0  0  0  0  0  0  0  0  0  0  0
   56.6441   32.1926   43.3408 H   0  0  0  0  0  0  0  0  0  0  0  0
   54.9123   30.6248   44.2194 H   0  0  0  0  0  0  0  0  0  0  0  0
   55.5840   28.4043   45.1415 H   0  0  0  0  0  0  0  0  0  0  0  0
   59.7467   29.2679   51.1490 H   0  0  0  0  0  0  0  0  0  0  0  0
   58.3788   29.2954   53.2427 H   0  0  0  0  0  0  0  0  0  0  0  0
   56.6107   31.0401   53.5474 H   0  0  0  0  0  0  0  0  0  0  0  0
   56.2483   32.7516   51.7599 H   0  0  0  0  0  0  0  0  0  0  0  0
   57.6090   32.6800   49.7690 H   0  0  0  0  0  0  0  0  0  0  0  0
  1  2  1  0
  2  3  1  0
  3  4  1  0
  4  5  1  0
  5  6  1  0
  6  7  1  0
  7  8  2  0
  7  9  1  0
  9 10  1  0
 10 11  1  0
 11 12  2  0
 12 13  1  0
 13 14  2  0
 14 15  1  0
 15 16  1  0
 16 17  1  0
 17 18  1  0
 18 19  1  0
 18 20  1  0
 20 21  1  0
 14 22  1  0
 22 23  2  0
 23 24  1  0
 24 25  2  0
 25 26  1  0
 26 27  2  0
 27 28  1  0
 28 29  2  0
  6 30  1  0
 30 31  2  0
 31 32  1  0
 32 33  2  0
 33 34  1  0
 34 35  2  0
 23 11  1  0
 29 24  1  0
 35 30  1  0
 21 15  1  0
  1 36  1  0
  1 37  1  0
  1 38  1  0
  2 39  1  0
  2 40  1  0
  3 41  1  0
  4 42  1  0
  4 43  1  0
  5 44  1  0
  5 45  1  0
  9 46  1  0
  9 47  1  0
 10 48  1  0
 10 49  1  0
 12 50  1  0
 13 51  1  0
 16 52  1  0
 16 53  1  0
 17 54  1  0
 17 55  1  0
 19 56  1  0
 19 57  1  0
 19 58  1  0
 20 59  1  0
 20 60  1  0
 21 61  1  0
 21 62  1  0
 22 63  1  0
 25 64  1  0
 26 65  1  0
 27 66  1  0
 28 67  1  0
 29 68  1  0
 31 69  1  0
 32 70  1  0
 33 71  1  0
 34 72  1  0
 35 73  1  0
M  CHG  1  35   1
M  END
>  <UniqueID>  (3) 
3

>  <SMILES>  (3) 
CCNCCN(C(=O)CCc1ccc(N2CCN(C)CC2)cc1-c1ccccc1)c1cccc[nH+]1

>  <Energy>  (3) 
97.18205163136639

>  <Genealogy>  (3) 
CCNCCN(C(=O)CCc1ccc(N2CCN(C)CC2)cc1-c1ccccc1)c1cccc[nH+]1 (protonated)
CCNCCN(C(=O)CCc1ccc(N2CCN(C)CC2)cc1-c1ccccc1)c1cccc[nH+]1 (3D coordinates assigned)
CCNCCN(C(=O)CCc1ccc(N2CCN(C)CC2)cc1-c1ccccc1)c1cccc[nH+]1 (nonaromatic ring conformer: 97.18205163136639 kcal/mol)

>  <smiles>  (3) 
CCNCCN(C(=O)CCc1ccc(N2CCN(C)CC2)cc1-c1ccccc1)c1ccccn1

>  <score_type>  (3) 
oracle

>  <origin>  (3) 
adg

>  <m_score__min__energy>  (3) 
-7.4100000000000001

>  <m_primary>  (3) 
energy

$$$$
3:0
     RDKit          3D

 43 44  0  0  0  0  0  0  0  0999 V2000
   64.3130   33.1340   49.5160 C   0  0  0  0  0  0  0  0  0  0  0  0
   63.6110   32.0350   48.7150 C   0  0  0  0  0  0  0  0  0  0  0  0
   62.1670   32.3170   48.5600 N   0  0  0  0  0  0  0  0  0  0  0  0
   61.7700   33.5560   49.2800 C   0  0  0  0  0  0  0  0  0  0  0  0
   60.5150   34.1890   48.6710 C   0  0  0  0  0  0  0  0  0  0  0  0
   60.7670   34.6040   47.2740 N   0  0  0  0  0  0  0  0  0  0  0  0
   59.5380   34.9590   46.5260 C   0  0  0  0  0  0  0  0  0  0  0  0
   58.8380   33.7710   45.8950 C   0  0  0  0  0  0  0  0  0  0  0  0
   58.5780   33.7420   44.5150 C   0  0  0  0  0  0  0  0  0  0  0  0
   57.9500   32.6370   43.9360 C   0  0  0  0  0  0  0  0  0  0  0  0
   57.5530   31.5540   44.7310 C   0  0  0  0  0  0  0  0  0  0  0  0
   56.7950   30.1380   44.0060 S   0  0  0  0  0  0  0  0  0  0  0  0
   56.2550   30.4800   42.6440 O   0  0  0  0  0  0  0  0  0  0  0  0
   55.6530   29.6950   44.8740 O   0  0  0  0  0  0  0  0  0  0  0  0
   57.9500   28.8460   43.8730 N   0  0  0  0  0  0  0  0  0  0  0  0
   59.0100   29.0260   44.8620 C   0  0  0  0  0  0  0  0  0  0  0  0
   57.7840   31.5900   46.1110 C   0  0  0  0  0  0  0  0  0  0  0  0
   58.4110   32.6950   46.6920 C   0  0  0  0  0  0  0  0  0  0  0  0
   61.7100   33.7310   46.5350 C   0  0  0  0  0  0  0  0  0  0  0  0
   61.7650   32.3140   47.1280 C   0  0  0  0  0  0  0  0  0  0  0  0
   64.1890   32.9399   50.5916 H   0  0  0  0  0  0  0  0  0  0  0  0
   65.3842   33.1425   49.2661 H   0  0  0  0  0  0  0  0  0  0  0  0
   63.8704   34.1095   49.2661 H   0  0  0  0  0  0  0  0  0  0  0  0
   64.0716   31.9692   47.7182 H   0  0  0  0  0  0  0  0  0  0  0  0
   63.7213   31.0859   49.2601 H   0  0  0  0  0  0  0  0  0  0  0  0
   61.5688   33.3075   50.3325 H   0  0  0  0  0  0  0  0  0  0  0  0
   62.5939   34.2799   49.1959 H   0  0  0  0  0  0  0  0  0  0  0  0
   59.6955   33.4555   48.6880 H   0  0  0  0  0  0  0  0  0  0  0  0
   60.2434   35.0766   49.2612 H   0  0  0  0  0  0  0  0  0  0  0  0
   58.8375   35.4445   47.2213 H   0  0  0  0  0  0  0  0  0  0  0  0
   59.8449   35.6223   45.7039 H   0  0  0  0  0  0  0  0  0  0  0  0
   58.8710   34.5955   43.8859 H   0  0  0  0  0  0  0  0  0  0  0  0
   57.7664   32.6170   42.8516 H   0  0  0  0  0  0  0  0  0  0  0  0
   58.3840   28.9200   42.9240 H   0  0  0  0  0  0  0  0  0  0  0  0
   58.5838   28.9536   45.8735 H   0  0  0  0  0  0  0  0  0  0  0  0
   59.7725   28.2445   44.7286 H   0  0  0  0  0  0  0  0  0  0  0  0
   59.4718   30.0154   44.7286 H   0  0  0  0  0  0  0  0  0  0  0  0
   57.4705   30.7445   46.7409 H   0  0  0  0  0  0  0  0  0  0  0  0
   58.5715   32.7231   47.7799 H   0  0  0  0  0  0  0  0  0  0  0  0
   61.3857   33.6650   45.4860 H   0  0  0  0  0  0  0  0  0  0  0  0
   62.7147   34.1720   46.6128 H   0  0  0  0  0  0  0  0  0  0  0  0
   60.7691   31.8552   47.0411 H   0  0  0  0  0  0  0  0  0  0  0  0
   62.5202   31.7435   46.5675 H   0  0  0  0  0  0  0  0  0  0  0  0
  1  2  1  0
  2  3  1  0
  3  4  1  0
  4  5  1  0
  5  6  1  0
  6  7  1  0
  7  8  1  0
  8  9  2  0
  9 10  1  0
 10 11  2  0
 11 12  1  0
 12 13  2  0
 12 14  2  0
 12 15  1  0
 15 16  1  0
 11 17  1  0
 17 18  2  0
  6 19  1  0
 19 20  1  0
 20  3  1  0
 18  8  1  0
  1 21  1  0
  1 22  1  0
  1 23  1  0
  2 24  1  0
  2 25  1  0
  4 26  1  0
  4 27  1  0
  5 28  1  0
  5 29  1  0
  7 30  1  0
  7 31  1  0
  9 32  1  0
 10 33  1  0
 15 34  1  0
 16 35  1  0
 16 36  1  0
 16 37  1  0
 17 38  1  0
 18 39  1  0
 19 40  1  0
 19 41  1  0
 20 42  1  0
 20 43  1  0
M  END
>  <UniqueID>  (4) 
4

>  <SMILES>  (4) 
CCN1CCN(Cc2ccc(S(=O)(=O)NC)cc2)CC1

>  <Energy>  (4) 
52.63331193690099

>  <Genealogy>  (4) 
CCN1CCN(Cc2ccc(S(=O)(=O)NC)cc2)CC1 (3D coordinates assigned)
CCN1CCN(Cc2ccc(S(=O)(=O)NC)cc2)CC1 (nonaromatic ring conformer: 52.63331193690099 kcal/mol)

>  <smiles>  (4) 
CCN1CCN(Cc2ccc(S(=O)(=O)NC)cc2)CC1

>  <score_type>  (4) 
oracle

>  <origin>  (4) 
adg

>  <m_score__min__energy>  (4) 
-7.9400000000000004

>  <m_primary>  (4) 
energy

$$$$
4:0
     RDKit          3D

 37 39  0  0  0  0  0  0  0  0999 V2000
   58.1330   27.2450   43.3290 C   0  0  0  0  0  0  0  0  0  0  0  0
   58.6670   28.2370   44.3190 C   0  0  0  0  0  0  0  0  0  0  0  0
   59.8440   27.9620   45.0290 C   0  0  0  0  0  0  0  0  0  0  0  0
   60.3730   28.9110   45.9060 C   0  0  0  0  0  0  0  0  0  0  0  0
   59.7360   30.1430   46.0750 C   0  0  0  0  0  0  0  0  0  0  0  0
   58.5540   30.4340   45.3780 C   0  0  0  0  0  0  0  0  0  0  0  0
   57.9460   31.7270   45.5330 N   0  0  0  0  0  0  0  0  0  0  0  0
   57.9450   32.7460   44.5200 C   0  0  0  0  0  0  0  0  0  0  0  0
   58.1490   32.4500   43.3120 O   0  0  0  0  0  0  0  0  0  0  0  0
   57.7030   34.1760   44.8970 C   0  0  0  0  0  0  0  0  0  0  0  0
   59.2650   34.9900   45.3850 S   0  0  0  0  0  0  0  0  0  0  0  0
   59.5860   33.8990   46.7820 C   0  0  0  0  0  0  0  0  0  0  0  0
   58.5260   33.4820   47.5230 N   0  0  0  0  0  0  0  0  0  0  0  0
   58.6870   32.6760   48.6040 C   0  0  0  0  0  0  0  0  0  0  0  0
   59.9260   32.2630   48.9670 N   0  0  0  0  0  0  0  0  0  0  0  0
   61.0230   32.6390   48.2610 C   0  0  0  0  0  0  0  0  0  0  0  0
   62.2920   32.1980   48.6560 C   0  0  0  0  0  0  0  0  0  0  0  0
   63.4240   32.5820   47.9320 C   0  0  0  0  0  0  0  0  0  0  0  0
   63.2940   33.4070   46.8120 C   0  0  0  0  0  0  0  0  0  0  0  0
   62.0320   33.8540   46.4080 C   0  0  0  0  0  0  0  0  0  0  0  0
   60.8840   33.4750   47.1290 C   0  0  0  0  0  0  0  0  0  0  0  0
   58.0360   29.4810   44.4810 C   0  0  0  0  0  0  0  0  0  0  0  0
   57.6780   26.3997   43.8660 H   0  0  0  0  0  0  0  0  0  0  0  0
   57.3738   27.7296   42.6974 H   0  0  0  0  0  0  0  0  0  0  0  0
   58.9555   26.8782   42.6974 H   0  0  0  0  0  0  0  0  0  0  0  0
   60.3523   26.9958   44.8948 H   0  0  0  0  0  0  0  0  0  0  0  0
   61.2936   28.6881   46.4653 H   0  0  0  0  0  0  0  0  0  0  0  0
   60.1644   30.8900   46.7594 H   0  0  0  0  0  0  0  0  0  0  0  0
   57.4590   31.9340   46.4350 H   0  0  0  0  0  0  0  0  0  0  0  0
   57.2723   34.7083   44.0361 H   0  0  0  0  0  0  0  0  0  0  0  0
   57.0088   34.2038   45.7498 H   0  0  0  0  0  0  0  0  0  0  0  0
   57.8099   32.3575   49.1864 H   0  0  0  0  0  0  0  0  0  0  0  0
   62.3980   31.5484   49.5374 H   0  0  0  0  0  0  0  0  0  0  0  0
   64.4195   32.2339   48.2446 H   0  0  0  0  0  0  0  0  0  0  0  0
   64.1882   33.7062   46.2455 H   0  0  0  0  0  0  0  0  0  0  0  0
   61.9363   34.5030   45.5251 H   0  0  0  0  0  0  0  0  0  0  0  0
   57.1297   29.7125   43.9023 H   0  0  0  0  0  0  0  0  0  0  0  0
  1  2  1  0
  2  3  2  0
  3  4  1  0
  4  5  2  0
  5  6  1  0
  6  7  1  0
  7  8  1  0
  8  9  2  0
  8 10  1  0
 10 11  1  0
 11 12  1  0
 12 13  2  0
 13 14  1  0
 14 15  2  0
 15 16  1  0
 16 17  2  0
 17 18  1  0
 18 19  2  0
 19 20  1  0
 20 21  2  0
  6 22  2  0
 22  2  1  0
 21 12  1  0
 21 16  1  0
  1 23  1  0
  1 24  1  0
  1 25  1  0
  3 26  1  0
  4 27  1  0
  5 28  1  0
  7 29  1  0
 10 30  1  0
 10 31  1  0
 14 32  1  0
 17 33  1  0
 18 34  1  0
 19 35  1  0
 20 36  1  0
 22 37  1  0
M  END
>  <UniqueID>  (5) 
5

>  <SMILES>  (5) 
Cc1cccc(NC(=O)CSc2ncnc3ccccc23)c1

>  <Energy>  (5) 
40.58831214656399

>  <Genealogy>  (5) 
Cc1cccc(NC(=O)CSc2ncnc3ccccc23)c1 (3D coordinates assigned)
Cc1cccc(NC(=O)CSc2ncnc3ccccc23)c1 (optimized conformer: 40.58831214656399 kcal/mol)

>  <smiles>  (5) 
Cc1cccc(NC(=O)CSc2ncnc3ccccc23)c1

>  <score_type>  (5) 
oracle

>  <origin>  (5) 
adg

>  <m_score__min__energy>  (5) 
-7.5199999999999996

>  <m_primary>  (5) 
energy

$$$$
5:0
     RDKit          3D

 43 45  0  0  0  0  0  0  0  0999 V2000
   61.0180   30.8450   46.7400 C   0  0  0  0  0  0  0  0  0  0  0  0
   59.8570   29.8770   46.5230 C   0  0  0  0  0  0  0  0  0  0  0  0
   59.4360   29.7860   45.0480 C   0  0  0  0  0  0  0  0  0  0  0  0
   57.9760   29.8230   44.9090 N   0  0  0  0  0  0  0  0  0  0  0  0
   57.2390   30.8160   44.3660 C   0  0  0  0  0  0  0  0  0  0  0  0
   57.8970   32.2950   43.5860 S   0  0  0  0  0  0  0  0  0  0  0  0
   57.3730   33.4240   44.9240 C   0  0  0  0  0  0  0  0  0  0  0  0
   58.5710   34.0500   45.5910 C   0  0  0  0  0  0  0  0  0  0  0  0
   59.2520   34.8670   44.9150 O   0  0  0  0  0  0  0  0  0  0  0  0
   58.9440   33.7740   46.9650 N   0  0  0  0  0  0  0  0  0  0  0  0
   58.2690   32.7020   47.7180 C   0  0  0  0  0  0  0  0  0  0  0  0
   58.8880   32.4570   49.0960 C   0  0  0  0  0  0  0  0  0  0  0  0
   59.2620   33.6710   49.7040 O   0  0  0  0  0  0  0  0  0  0  0  0
   60.3510   34.2120   48.9940 C   0  0  0  0  0  0  0  0  0  0  0  0
   59.9200   34.6770   47.6000 C   0  0  0  0  0  0  0  0  0  0  0  0
   55.9230   30.5480   44.4220 N   0  0  0  0  0  0  0  0  0  0  0  0
   55.7980   29.3610   44.9930 N   0  0  0  0  0  0  0  0  0  0  0  0
   57.0380   28.9200   45.2910 C   0  0  0  0  0  0  0  0  0  0  0  0
   57.2580   27.5680   45.8550 C   0  0  0  0  0  0  0  0  0  0  0  0
   58.4200   27.0080   46.3900 C   0  0  0  0  0  0  0  0  0  0  0  0
   58.2470   25.6970   46.8520 C   0  0  0  0  0  0  0  0  0  0  0  0
   56.9570   25.2120   46.6990 C   0  0  0  0  0  0  0  0  0  0  0  0
   56.0350   26.4190   45.9890 S   0  0  0  0  0  0  0  0  0  0  0  0
   61.1836   30.9830   47.8187 H   0  0  0  0  0  0  0  0  0  0  0  0
   61.9285   30.4348   46.2788 H   0  0  0  0  0  0  0  0  0  0  0  0
   60.7782   31.8144   46.2788 H   0  0  0  0  0  0  0  0  0  0  0  0
   60.1624   28.8772   46.8652 H   0  0  0  0  0  0  0  0  0  0  0  0
   58.9958   30.2538   47.0942 H   0  0  0  0  0  0  0  0  0  0  0  0
   59.8702   30.6340   44.4981 H   0  0  0  0  0  0  0  0  0  0  0  0
   59.8003   28.8315   44.6404 H   0  0  0  0  0  0  0  0  0  0  0  0
   56.7399   34.2174   44.5001 H   0  0  0  0  0  0  0  0  0  0  0  0
   56.8110   32.8478   45.6738 H   0  0  0  0  0  0  0  0  0  0  0  0
   57.2132   32.9797   47.8525 H   0  0  0  0  0  0  0  0  0  0  0  0
   58.3793   31.7736   47.1384 H   0  0  0  0  0  0  0  0  0  0  0  0
   58.1527   31.9461   49.7350 H   0  0  0  0  0  0  0  0  0  0  0  0
   59.7872   31.8359   48.9710 H   0  0  0  0  0  0  0  0  0  0  0  0
   60.7531   35.0708   49.5515 H   0  0  0  0  0  0  0  0  0  0  0  0
   61.1187   33.4322   48.8818 H   0  0  0  0  0  0  0  0  0  0  0  0
   59.4669   35.6754   47.6886 H   0  0  0  0  0  0  0  0  0  0  0  0
   60.8185   34.6870   46.9655 H   0  0  0  0  0  0  0  0  0  0  0  0
   59.3787   27.5446   46.4435 H   0  0  0  0  0  0  0  0  0  0  0  0
   59.0612   25.1055   47.2962 H   0  0  0  0  0  0  0  0  0  0  0  0
   56.6017   24.2129   46.9915 H   0  0  0  0  0  0  0  0  0  0  0  0
  1  2  1  0
  2  3  1  0
  3  4  1  0
  4  5  1  0
  5  6  1  0
  6  7  1  0
  7  8  1  0
  8  9  2  0
  8 10  1  0
 10 11  1  0
 11 12  1  0
 12 13  1  0
 13 14  1  0
 14 15  1  0
  5 16  2  0
 16 17  1  0
 17 18  2  0
 18 19  1  0
 19 20  2  0
 20 21  1  0
 21 22  2  0
 22 23  1  0
 18  4  1  0
 23 19  1  0
 15 10  1  0
  1 24  1  0
  1 25  1  0
  1 26  1  0
  2 27  1  0
  2 28  1  0
  3 29  1  0
  3 30  1  0
  7 31  1  0
  7 32  1  0
 11 33  1  0
 11 34  1  0
 12 35  1  0
 12 36  1  0
 14 37  1  0
 14 38  1  0
 15 39  1  0
 15 40  1  0
 20 41  1  0
 21 42  1  0
 22 43  1  0
M  END
>  <UniqueID>  (6) 
6

>  <SMILES>  (6) 
CCCn1c(SCC(=O)N2CCOCC2)nnc1-c1cccs1

>  <Energy>  (6) 
100.3182178648273

>  <Genealogy>  (6) 
CCCn1c(SCC(=O)N2CCOCC2)nnc1-c1cccs1 (3D coordinates assigned)
CCCn1c(SCC(=O)N2CCOCC2)nnc1-c1cccs1 (nonaromatic ring conformer: 100.3182178648273 kcal/mol)

>  <smiles>  (6) 
CCCn1c(SCC(=O)N2CCOCC2)nnc1-c1cccs1

>  <score_type>  (6) 
oracle

>  <origin>  (6) 
adg

>  <m_score__min__energy>  (6) 
-7.9400000000000004

>  <m_primary>  (6) 
energy

$$$$
6:0
     RDKit          3D

 35 36  0  0  0  0  0  0  0  0999 V2000
   63.3820   32.0640   47.4940 C   0  0  0  0  0  0  0  0  0  0  0  0
   63.6880   33.5230   47.8110 C   0  0  0  0  0  0  0  0  0  0  0  0
   62.5100   34.2040   48.2440 O   0  0  0  0  0  0  0  0  0  0  0  0
   61.2160   34.0080   47.7330 C   0  0  0  0  0  0  0  0  0  0  0  0
   60.9120   34.1280   46.3630 C   0  0  0  0  0  0  0  0  0  0  0  0
   59.6060   33.9190   45.9110 C   0  0  0  0  0  0  0  0  0  0  0  0
   58.5830   33.5860   46.8140 C   0  0  0  0  0  0  0  0  0  0  0  0
   57.2420   33.3300   46.3410 N   0  0  0  0  0  0  0  0  0  0  0  0
   57.2090   33.1820   44.8770 C   0  0  0  0  0  0  0  0  0  0  0  0
   57.0940   31.7430   44.4700 C   0  0  0  0  0  0  0  0  0  0  0  0
   57.0770   31.2670   43.1730 C   0  0  0  0  0  0  0  0  0  0  0  0
   57.0120   29.8930   43.2790 C   0  0  0  0  0  0  0  0  0  0  0  0
   56.9920   29.6250   44.6340 C   0  0  0  0  0  0  0  0  0  0  0  0
   56.9570   28.2660   45.2500 C   0  0  0  0  0  0  0  0  0  0  0  0
   57.0470   30.7420   45.3190 O   0  0  0  0  0  0  0  0  0  0  0  0
   58.8910   33.4580   48.1780 C   0  0  0  0  0  0  0  0  0  0  0  0
   60.1970   33.6700   48.6300 C   0  0  0  0  0  0  0  0  0  0  0  0
   63.2641   31.5019   48.4321 H   0  0  0  0  0  0  0  0  0  0  0  0
   62.4515   32.0029   46.9105 H   0  0  0  0  0  0  0  0  0  0  0  0
   64.2095   31.6342   46.9105 H   0  0  0  0  0  0  0  0  0  0  0  0
   64.4446   33.5681   48.6082 H   0  0  0  0  0  0  0  0  0  0  0  0
   64.0636   34.0113   46.8997 H   0  0  0  0  0  0  0  0  0  0  0  0
   61.7052   34.3871   45.6462 H   0  0  0  0  0  0  0  0  0  0  0  0
   59.3775   34.0161   44.8394 H   0  0  0  0  0  0  0  0  0  0  0  0
   56.5940   34.0990   46.6360 H   0  0  0  0  0  0  0  0  0  0  0  0
   56.8880   32.4460   46.7750 H   0  0  0  0  0  0  0  0  0  0  0  0
   56.3442   33.7350   44.4817 H   0  0  0  0  0  0  0  0  0  0  0  0
   58.1498   33.5807   44.4696 H   0  0  0  0  0  0  0  0  0  0  0  0
   57.1087   31.8607   42.2475 H   0  0  0  0  0  0  0  0  0  0  0  0
   56.9823   29.1633   42.4564 H   0  0  0  0  0  0  0  0  0  0  0  0
   56.9594   28.3600   46.3460 H   0  0  0  0  0  0  0  0  0  0  0  0
   56.0450   27.7413   44.9290 H   0  0  0  0  0  0  0  0  0  0  0  0
   57.8407   27.6951   44.9290 H   0  0  0  0  0  0  0  0  0  0  0  0
   58.1008   33.1896   48.8946 H   0  0  0  0  0  0  0  0  0  0  0  0
   60.4255   33.5700   49.7014 H   0  0  0  0  0  0  0  0  0  0  0  0
  1  2  1  0
  2  3  1  0
  3  4  1  0
  4  5  2  0
  5  6  1  0
  6  7  2  0
  7  8  1  0
  8  9  1  0
  9 10  1  0
 10 11  2  0
 11 12  1  0
 12 13  2  0
 13 14  1  0
 13 15  1  0
  7 16  1  0
 16 17  2  0
 17  4  1  0
 15 10  1  0
  1 18  1  0
  1 19  1  0
  1 20  1  0
  2 21  1  0
  2 22  1  0
  5 23  1  0
  6 24  1  0
  8 25  1  0
  8 26  1  0
  9 27  1  0
  9 28  1  0
 11 29  1  0
 12 30  1  0
 14 31  1  0
 14 32  1  0
 14 33  1  0
 16 34  1  0
 17 35  1  0
M  CHG  1   8   1
M  END
>  <UniqueID>  (7) 
7

>  <SMILES>  (7) 
CCOc1ccc([NH2+]Cc2ccc(C)o2)cc1

>  <Energy>  (7) 
56.732212740982916

>  <Genealogy>  (7) 
CCOc1ccc([NH2+]Cc2ccc(C)o2)cc1 (protonated)
CCOc1ccc([NH2+]Cc2ccc(C)o2)cc1 (3D coordinates assigned)
CCOc1ccc([NH2+]Cc2ccc(C)o2)cc1 (optimized conformer: 56.732212740982916 kcal/mol)

>  <smiles>  (7) 
CCOc1ccc(NCc2ccc(C)o2)cc1

>  <score_type>  (7) 
oracle

>  <origin>  (7) 
adg

>  <m_score__min__energy>  (7) 
-4.6799999999999997

>  <m_primary>  (7) 
energy

$$$$
7:0
     RDKit          3D

 42 44  0  0  0  0  0  0  0  0999 V2000
   60.3590   26.7730   47.6670 C   0  0  0  0  0  0  0  0  0  0  0  0
   59.8230   28.1290   47.7470 N   0  0  0  0  0  0  0  0  0  0  0  0
   59.7210   28.8820   48.8590 C   0  0  0  0  0  0  0  0  0  0  0  0
   59.2710   30.1340   48.4940 C   0  0  0  0  0  0  0  0  0  0  0  0
   59.1090   30.1630   47.1580 N   0  0  0  0  0  0  0  0  0  0  0  0
   59.4550   28.9340   46.7260 C   0  0  0  0  0  0  0  0  0  0  0  0
   59.4850   28.5440   45.2740 C   0  0  0  0  0  0  0  0  0  0  0  0
   58.3340   29.1220   44.5540 N   0  0  0  0  0  0  0  0  0  0  0  0
   57.1040   28.9970   45.3580 C   0  0  0  0  0  0  0  0  0  0  0  0
   55.8680   29.3390   44.5030 C   0  0  0  0  0  0  0  0  0  0  0  0
   56.2150   30.2870   43.3450 C   0  0  0  0  0  0  0  0  0  0  0  0
   57.2940   31.3060   43.7670 C   0  0  1  0  0  0  0  0  0  0  0  0
   56.8360   32.1560   44.8920 N   0  0  0  0  0  0  0  0  0  0  0  0
   57.3910   33.5210   44.8920 C   0  0  0  0  0  0  0  0  0  0  0  0
   58.3060   33.7690   46.0530 C   0  0  0  0  0  0  0  0  0  0  0  0
   58.3220   33.0070   47.1680 N   0  0  0  0  0  0  0  0  0  0  0  0
   59.2680   33.4250   48.0520 C   0  0  0  0  0  0  0  0  0  0  0  0
   60.0150   34.5230   47.6430 C   0  0  0  0  0  0  0  0  0  0  0  0
   59.4700   34.9810   46.1200 S   0  0  0  0  0  0  0  0  0  0  0  0
   58.5870   30.5370   44.1730 C   0  0  0  0  0  0  0  0  0  0  0  0
   60.5145   26.3797   48.6824 H   0  0  0  0  0  0  0  0  0  0  0  0
   59.6479   26.1288   47.1291 H   0  0  0  0  0  0  0  0  0  0  0  0
   61.3184   26.7891   47.1291 H   0  0  0  0  0  0  0  0  0  0  0  0
   59.9561   28.5549   49.8826 H   0  0  0  0  0  0  0  0  0  0  0  0
   59.0766   30.9706   49.1813 H   0  0  0  0  0  0  0  0  0  0  0  0
   58.8010   30.9770   46.5810 H   0  0  0  0  0  0  0  0  0  0  0  0
   60.4167   28.9129   44.8204 H   0  0  0  0  0  0  0  0  0  0  0  0
   59.4327   27.4476   45.2015 H   0  0  0  0  0  0  0  0  0  0  0  0
   57.0153   27.9646   45.7271 H   0  0  0  0  0  0  0  0  0  0  0  0
   57.1577   29.6971   46.2048 H   0  0  0  0  0  0  0  0  0  0  0  0
   55.4542   28.4080   44.0882 H   0  0  0  0  0  0  0  0  0  0  0  0
   55.1365   29.8455   45.1498 H   0  0  0  0  0  0  0  0  0  0  0  0
   56.5909   29.6959   42.4969 H   0  0  0  0  0  0  0  0  0  0  0  0
   55.3065   30.8376   43.0594 H   0  0  0  0  0  0  0  0  0  0  0  0
   57.4981   31.9699   42.9140 H   0  0  0  0  0  0  0  0  0  0  0  0
   57.1230   31.7080   45.7950 H   0  0  0  0  0  0  0  0  0  0  0  0
   57.9550   33.6724   43.9598 H   0  0  0  0  0  0  0  0  0  0  0  0
   56.5489   34.2240   44.9742 H   0  0  0  0  0  0  0  0  0  0  0  0
   59.4298   32.9295   49.0206 H   0  0  0  0  0  0  0  0  0  0  0  0
   60.8206   35.0070   48.2147 H   0  0  0  0  0  0  0  0  0  0  0  0
   59.2832   30.5503   43.3214 H   0  0  0  0  0  0  0  0  0  0  0  0
   59.0035   31.0431   45.0564 H   0  0  0  0  0  0  0  0  0  0  0  0
  1  2  1  0
  2  3  1  0
  3  4  2  0
  4  5  1  0
  5  6  2  0
  6  7  1  0
  7  8  1  0
  8  9  1  0
  9 10  1  0
 10 11  1  0
 11 12  1  0
 12 13  1  0
 13 14  1  0
 14 15  1  0
 15 16  2  0
 16 17  1  0
 17 18  2  0
 18 19  1  0
 12 20  1  0
  6  2  1  0
 20  8  1  0
 19 15  1  0
  1 21  1  0
  1 22  1  0
  1 23  1  0
  3 24  1  0
  4 25  1  0
  5 26  1  0
  7 27  1  0
  7 28  1  0
  9 29  1  0
  9 30  1  0
 10 31  1  0
 10 32  1  0
 11 33  1  0
 11 34  1  0
 12 35  1  6
 13 36  1  0
 14 37  1  0
 14 38  1  0
 17 39  1  0
 18 40  1  0
 20 41  1  0
 20 42  1  0
M  CHG  1   5   1
M  END
>  <UniqueID>  (8) 
8

>  <SMILES>  (8) 
Cn1cc[nH+]c1CN1CCC[C@@H](NCc2nccs2)C1

>  <Energy>  (8) 
108.57920860609997

>  <Genealogy>  (8) 
Cn1cc[nH+]c1CN1CCCC(NCc2nccs2)C1 (protonated)
Cn1cc[nH+]c1CN1CCC[C@@H](NCc2nccs2)C1 (chirality)
Cn1cc[nH+]c1CN1CCC[C@@H](NCc2nccs2)C1 (3D coordinates assigned)
Cn1cc[nH+]c1CN1CCC[C@@H](NCc2nccs2)C1 (nonaromatic ring conformer: 108.57920860609997 kcal/mol)

>  <smiles>  (8) 
Cn1ccnc1CN1CCCC(NCc2nccs2)C1

>  <score_type>  (8) 
oracle

>  <origin>  (8) 
adg

>  <m_score__min__energy>  (8) 
-4.4900000000000002

>  <m_primary>  (8) 
energy

$$$$
8:0
     RDKit          3D

 46 48  0  0  0  0  0  0  0  0999 V2000
   57.3890   33.8100   44.6970 C   0  0  0  0  0  0  0  0  0  0  0  0
   58.5900   34.0510   45.6200 C   0  0  0  0  0  0  0  0  0  0  0  0
   59.3430   35.3310   45.2290 C   0  0  0  0  0  0  0  0  0  0  0  0
   58.1900   34.0360   47.1110 C   0  0  0  0  0  0  0  0  0  0  0  0
   58.5890   32.7970   47.8000 N   0  0  0  0  0  0  0  0  0  0  0  0
   58.9020   32.8570   49.2330 C   0  0  0  0  0  0  0  0  0  0  0  0
   58.9880   31.6420   47.0210 C   0  0  0  0  0  0  0  0  0  0  0  0
   58.0160   30.8460   46.4830 N   0  0  0  0  0  0  0  0  0  0  0  0
   58.3020   29.7660   45.7150 C   0  0  0  0  0  0  0  0  0  0  0  0
   57.2770   28.9910   45.1630 C   0  0  0  0  0  0  0  0  0  0  0  0
   57.5940   27.8970   44.3510 C   0  0  0  0  0  0  0  0  0  0  0  0
   58.9310   27.5700   44.0980 C   0  0  0  0  0  0  0  0  0  0  0  0
   59.9590   28.3370   44.6540 C   0  0  0  0  0  0  0  0  0  0  0  0
   59.6500   29.4440   45.4610 C   0  0  0  0  0  0  0  0  0  0  0  0
   60.6320   30.2230   45.9960 N   0  0  0  0  0  0  0  0  0  0  0  0
   60.3390   31.3170   46.7610 C   0  0  0  0  0  0  0  0  0  0  0  0
   61.4170   32.0950   47.2910 N   0  0  0  0  0  0  0  0  0  0  0  0
   62.6090   31.4580   47.8230 C   0  0  0  0  0  0  0  0  0  0  0  0
   63.7640   32.3750   47.4500 C   0  0  0  0  0  0  0  0  0  0  0  0
   63.1300   33.7300   47.1630 C   0  0  0  0  0  0  0  0  0  0  0  0
   61.6830   33.4380   46.7970 C   0  0  0  0  0  0  0  0  0  0  0  0
   56.4900   33.6296   45.3046 H   0  0  0  0  0  0  0  0  0  0  0  0
   57.2311   34.6944   44.0622 H   0  0  0  0  0  0  0  0  0  0  0  0
   57.5845   32.9332   44.0622 H   0  0  0  0  0  0  0  0  0  0  0  0
   59.2859   33.2103   45.4820 H   0  0  0  0  0  0  0  0  0  0  0  0
   59.6567   35.8642   46.1386 H   0  0  0  0  0  0  0  0  0  0  0  0
   60.2300   35.0674   44.6342 H   0  0  0  0  0  0  0  0  0  0  0  0
   58.6817   35.9782   44.6342 H   0  0  0  0  0  0  0  0  0  0  0  0
   58.6733   34.8875   47.6124 H   0  0  0  0  0  0  0  0  0  0  0  0
   57.0930   34.1011   47.1587 H   0  0  0  0  0  0  0  0  0  0  0  0
   57.9859   32.6814   49.8161 H   0  0  0  0  0  0  0  0  0  0  0  0
   59.6464   32.0852   49.4784 H   0  0  0  0  0  0  0  0  0  0  0  0
   59.3082   33.8494   49.4784 H   0  0  0  0  0  0  0  0  0  0  0  0
   56.2253   29.2409   45.3666 H   0  0  0  0  0  0  0  0  0  0  0  0
   56.7890   27.2912   43.9095 H   0  0  0  0  0  0  0  0  0  0  0  0
   59.1736   26.7073   43.4601 H   0  0  0  0  0  0  0  0  0  0  0  0
   61.0092   28.0736   44.4595 H   0  0  0  0  0  0  0  0  0  0  0  0
   61.6380   29.9830   45.8170 H   0  0  0  0  0  0  0  0  0  0  0  0
   62.5356   31.3580   48.9160 H   0  0  0  0  0  0  0  0  0  0  0  0
   62.7455   30.4453   47.4158 H   0  0  0  0  0  0  0  0  0  0  0  0
   64.4777   32.4531   48.2834 H   0  0  0  0  0  0  0  0  0  0  0  0
   64.3244   31.9944   46.5834 H   0  0  0  0  0  0  0  0  0  0  0  0
   63.1780   34.3725   48.0546 H   0  0  0  0  0  0  0  0  0  0  0  0
   63.6542   34.2605   46.3544 H   0  0  0  0  0  0  0  0  0  0  0  0
   61.0113   34.1641   47.2783 H   0  0  0  0  0  0  0  0  0  0  0  0
   61.5146   33.5133   45.7126 H   0  0  0  0  0  0  0  0  0  0  0  0
  1  2  1  0
  2  3  1  0
  2  4  1  0
  4  5  1  0
  5  6  1  0
  5  7  1  0
  7  8  2  0
  8  9  1  0
  9 10  2  0
 10 11  1  0
 11 12  2  0
 12 13  1  0
 13 14  2  0
 14 15  1  0
 15 16  2  0
 16 17  1  0
 17 18  1  0
 18 19  1  0
 19 20  1  0
 20 21  1  0
 16  7  1  0
 21 17  1  0
 14  9  1  0
  1 22  1  0
  1 23  1  0
  1 24  1  0
  2 25  1  0
  3 26  1  0
  3 27  1  0
  3 28  1  0
  4 29  1  0
  4 30  1  0
  6 31  1  0
  6 32  1  0
  6 33  1  0
 10 34  1  0
 11 35  1  0
 12 36  1  0
 13 37  1  0
 15 38  1  0
 18 39  1  0
 18 40  1  0
 19 41  1  0
 19 42  1  0
 20 43  1  0
 20 44  1  0
 21 45  1  0
 21 46  1  0
M  CHG  1  15   1
M  END
>  <UniqueID>  (9) 
9

>  <SMILES>  (9) 
CC(C)CN(C)c1nc2ccccc2[nH+]c1N1CCCC1

>  <Energy>  (9) 
55.121334029139994

>  <Genealogy>  (9) 
CC(C)CN(C)c1nc2ccccc2[nH+]c1N1CCCC1 (protonated)
CC(C)CN(C)c1nc2ccccc2[nH+]c1N1CCCC1 (3D coordinates assigned)
CC(C)CN(C)c1nc2ccccc2[nH+]c1N1CCCC1 (nonaromatic ring conformer: 55.121334029139994 kcal/mol)

>  <smiles>  (9) 
CC(C)CN(C)c1nc2ccccc2nc1N1CCCC1

>  <score_type>  (9) 
oracle

>  <origin>  (9) 
adg

>  <m_score__min__energy>  (9) 
-5.4900000000000002

>  <m_primary>  (9) 
energy

$$$$
9:0
     RDKit          3D

 57 60  0  0  0  0  0  0  0  0999 V2000
   56.8620   31.0760   51.6700 C   0  0  0  0  0  0  0  0  0  0  0  0
   57.9140   31.4670   52.6990 C   0  0  0  0  0  0  0  0  0  0  0  0
   58.9870   32.2250   52.0610 N   0  0  0  0  0  0  0  0  0  0  0  0
   60.1820   31.7370   51.6800 C   0  0  0  0  0  0  0  0  0  0  0  0
   60.8820   32.7520   51.0490 C   0  0  0  0  0  0  0  0  0  0  0  0
   62.2200   32.6640   50.4260 C   0  0  0  0  0  0  0  0  0  0  0  0
   63.3490   32.4750   51.2390 C   0  0  0  0  0  0  0  0  0  0  0  0
   64.5930   32.4740   50.6980 N   0  0  0  0  0  0  0  0  0  0  0  0
   64.7920   32.6380   49.3670 C   0  0  0  0  0  0  0  0  0  0  0  0
   63.7060   32.8050   48.5100 C   0  0  0  0  0  0  0  0  0  0  0  0
   62.4060   32.8130   49.0320 C   0  0  0  0  0  0  0  0  0  0  0  0
   61.2830   32.8980   48.1360 N   0  0  0  0  0  0  0  0  0  0  0  0
   60.2140   31.8950   48.2190 C   0  0  0  0  0  0  0  0  0  0  0  0
   59.5320   31.7230   46.8600 C   0  0  0  0  0  0  0  0  0  0  0  0
   59.1940   33.0320   46.2790 N   0  0  0  0  0  0  0  0  0  0  0  0
   57.9810   33.2370   45.5170 C   0  0  0  0  0  0  0  0  0  0  0  0
   57.6990   34.3900   45.0870 O   0  0  0  0  0  0  0  0  0  0  0  0
   57.0200   32.1150   45.2140 C   0  0  0  0  0  0  0  0  0  0  0  0
   57.6520   31.1300   44.3070 N   0  0  0  0  0  0  0  0  0  0  0  0
   58.0890   29.9030   45.0090 C   0  0  0  0  0  0  0  0  0  0  0  0
   56.9390   28.8910   45.2150 C   0  0  0  0  0  0  0  0  0  0  0  0
   55.6840   29.4440   44.8710 O   0  0  0  0  0  0  0  0  0  0  0  0
   55.6790   29.7920   43.5020 C   0  0  0  0  0  0  0  0  0  0  0  0
   56.7980   30.7980   43.1470 C   0  0  0  0  0  0  0  0  0  0  0  0
   60.2780   34.0250   46.1940 C   0  0  0  0  0  0  0  0  0  0  0  0
   60.9530   34.2030   47.5550 C   0  0  0  0  0  0  0  0  0  0  0  0
   60.0240   33.8420   51.0510 C   0  0  0  0  0  0  0  0  0  0  0  0
   58.8850   33.4880   51.6750 N   0  0  0  0  0  0  0  0  0  0  0  0
   55.9517   30.7377   52.1866 H   0  0  0  0  0  0  0  0  0  0  0  0
   56.6242   31.9458   51.0400 H   0  0  0  0  0  0  0  0  0  0  0  0
   57.2500   30.2621   51.0400 H   0  0  0  0  0  0  0  0  0  0  0  0
   57.4466   32.0855   53.4793 H   0  0  0  0  0  0  0  0  0  0  0  0
   58.3358   30.5544   53.1453 H   0  0  0  0  0  0  0  0  0  0  0  0
   60.5407   30.7098   51.8417 H   0  0  0  0  0  0  0  0  0  0  0  0
   63.2240   32.3268   52.3218 H   0  0  0  0  0  0  0  0  0  0  0  0
   65.8147   32.6392   48.9620 H   0  0  0  0  0  0  0  0  0  0  0  0
   63.8686   32.9299   47.4293 H   0  0  0  0  0  0  0  0  0  0  0  0
   60.6446   30.9324   48.5321 H   0  0  0  0  0  0  0  0  0  0  0  0
   59.4661   32.2328   48.9515 H   0  0  0  0  0  0  0  0  0  0  0  0
   60.2124   31.1905   46.1792 H   0  0  0  0  0  0  0  0  0  0  0  0
   58.6049   31.1477   46.9996 H   0  0  0  0  0  0  0  0  0  0  0  0
   56.7374   31.6155   46.1524 H   0  0  0  0  0  0  0  0  0  0  0  0
   56.1264   32.5305   44.7253 H   0  0  0  0  0  0  0  0  0  0  0  0
   58.8797   29.4209   44.4155 H   0  0  0  0  0  0  0  0  0  0  0  0
   58.4511   30.2010   46.0040 H   0  0  0  0  0  0  0  0  0  0  0  0
   57.1240   28.0088   44.5846 H   0  0  0  0  0  0  0  0  0  0  0  0
   56.9114   28.6175   46.2801 H   0  0  0  0  0  0  0  0  0  0  0  0
   55.8216   28.8794   42.9047 H   0  0  0  0  0  0  0  0  0  0  0  0
   54.7139   30.2711   43.2806 H   0  0  0  0  0  0  0  0  0  0  0  0
   57.4285   30.3603   42.3590 H   0  0  0  0  0  0  0  0  0  0  0  0
   56.3161   31.7279   42.8107 H   0  0  0  0  0  0  0  0  0  0  0  0
   61.0247   33.6833   45.4621 H   0  0  0  0  0  0  0  0  0  0  0  0
   59.8517   34.9894   45.8808 H   0  0  0  0  0  0  0  0  0  0  0  0
   61.8763   34.7872   47.4281 H   0  0  0  0  0  0  0  0  0  0  0  0
   60.2623   34.7298   48.2298 H   0  0  0  0  0  0  0  0  0  0  0  0
   60.2383   34.8293   50.6159 H   0  0  0  0  0  0  0  0  0  0  0  0
   58.0450   34.0930   51.8180 H   0  0  0  0  0  0  0  0  0  0  0  0
  1  2  1  0
  2  3  1  0
  3  4  1  0
  4  5  2  0
  5  6  1  0
  6  7  2  0
  7  8  1  0
  8  9  2  0
  9 10  1  0
 10 11  2  0
 11 12  1  0
 12 13  1  0
 13 14  1  0
 14 15  1  0
 15 16  1  0
 16 17  2  0
 16 18  1  0
 18 19  1  0
 19 20  1  0
 20 21  1  0
 21 22  1  0
 22 23  1  0
 23 24  1  0
 15 25  1  0
 25 26  1  0
  5 27  1  0
 27 28  2  0
 28  3  1  0
 11  6  1  0
 26 12  1  0
 24 19  1  0
  1 29  1  0
  1 30  1  0
  1 31  1  0
  2 32  1  0
  2 33  1  0
  4 34  1  0
  7 35  1  0
  9 36  1  0
 10 37  1  0
 13 38  1  0
 13 39  1  0
 14 40  1  0
 14 41  1  0
 18 42  1  0
 18 43  1  0
 20 44  1  0
 20 45  1  0
 21 46  1  0
 21 47  1  0
 23 48  1  0
 23 49  1  0
 24 50  1  0
 24 51  1  0
 25 52  1  0
 25 53  1  0
 26 54  1  0
 26 55  1  0
 27 56  1  0
 28 57  1  0
M  CHG  1  28   1
M  END
>  <UniqueID>  (10) 
10

>  <SMILES>  (10) 
CCn1cc(-c2cnccc2N2CCN(C(=O)CN3CCOCC3)CC2)c[nH+]1

>  <Energy>  (10) 
106.24651522333137

>  <Genealogy>  (10) 
CCn1cc(-c2cnccc2N2CCN(C(=O)CN3CCOCC3)CC2)c[nH+]1 (protonated)
CCn1cc(-c2cnccc2N2CCN(C(=O)CN3CCOCC3)CC2)c[nH+]1 (3D coordinates assigned)
CCn1cc(-c2cnccc2N2CCN(C(=O)CN3CCOCC3)CC2)c[nH+]1 (nonaromatic ring conformer: 106.24651522333137 kcal/mol)

>  <smiles>  (10) 
CCn1cc(-c2cnccc2N2CCN(C(=O)CN3CCOCC3)CC2)cn1

>  <score_type>  (10) 
oracle

>  <origin>  (10) 
adg

>  <m_score__min__energy>  (10) 
-6.9299999999999997

>  <m_primary>  (10) 
energy

$$$$
10:0
     RDKit          3D

 41 43  0  0  0  0  0  0  0  0999 V2000
   61.8010   33.8500   50.4480 C   0  0  0  0  0  0  0  0  0  0  0  0
   61.2990   34.5840   49.3370 O   0  0  0  0  0  0  0  0  0  0  0  0
   60.5480   34.0270   48.2890 C   0  0  0  0  0  0  0  0  0  0  0  0
   59.2660   34.4990   47.9540 C   0  0  0  0  0  0  0  0  0  0  0  0
   58.5490   33.9200   46.9060 C   0  0  0  0  0  0  0  0  0  0  0  0
   59.0980   32.8590   46.1720 C   0  0  0  0  0  0  0  0  0  0  0  0
   58.3410   32.2430   45.0620 C   0  0  0  0  0  0  0  0  0  0  0  0
   57.6640   31.0790   45.1690 N   0  0  0  0  0  0  0  0  0  0  0  0
   57.1360   30.9190   43.9410 C   0  0  0  0  0  0  0  0  0  0  0  0
   56.3390   29.7230   43.5190 C   0  0  0  0  0  0  0  0  0  0  0  0
   57.2240   28.5790   43.2620 N   0  0  0  0  0  0  0  0  0  0  0  0
   57.9650   28.2510   44.4540 C   0  0  0  0  0  0  0  0  0  0  0  0
   59.3610   28.4030   44.4950 C   0  0  0  0  0  0  0  0  0  0  0  0
   60.0690   28.0530   45.6460 C   0  0  0  0  0  0  0  0  0  0  0  0
   59.3770   27.5440   46.7470 C   0  0  0  0  0  0  0  0  0  0  0  0
   58.0280   27.3880   46.6900 N   0  0  0  0  0  0  0  0  0  0  0  0
   57.3150   27.7220   45.5810 C   0  0  0  0  0  0  0  0  0  0  0  0
   57.5200   31.9640   43.1330 C   0  0  0  0  0  0  0  0  0  0  0  0
   58.2570   32.7680   43.8570 O   0  0  0  0  0  0  0  0  0  0  0  0
   60.3770   32.3860   46.5030 C   0  0  0  0  0  0  0  0  0  0  0  0
   61.1070   32.9650   47.5600 C   0  0  0  0  0  0  0  0  0  0  0  0
   62.3880   32.5150   47.9160 O   0  0  0  0  0  0  0  0  0  0  0  0
   63.6000   32.9920   47.3420 C   0  0  0  0  0  0  0  0  0  0  0  0
   61.4733   34.3292   51.3823 H   0  0  0  0  0  0  0  0  0  0  0  0
   61.4175   32.8197   50.4102 H   0  0  0  0  0  0  0  0  0  0  0  0
   62.9002   33.8337   50.4102 H   0  0  0  0  0  0  0  0  0  0  0  0
   58.8251   35.3311   48.5226 H   0  0  0  0  0  0  0  0  0  0  0  0
   57.5472   34.2983   46.6543 H   0  0  0  0  0  0  0  0  0  0  0  0
   55.6304   29.4600   44.3182 H   0  0  0  0  0  0  0  0  0  0  0  0
   55.7950   29.9664   42.5944 H   0  0  0  0  0  0  0  0  0  0  0  0
   57.8890   28.8140   42.4870 H   0  0  0  0  0  0  0  0  0  0  0  0
   56.6540   27.7530   42.9620 H   0  0  0  0  0  0  0  0  0  0  0  0
   59.8967   28.7982   43.6193 H   0  0  0  0  0  0  0  0  0  0  0  0
   61.1613   28.1769   45.6854 H   0  0  0  0  0  0  0  0  0  0  0  0
   59.9240   27.2692   47.6609 H   0  0  0  0  0  0  0  0  0  0  0  0
   56.2247   27.5772   45.5667 H   0  0  0  0  0  0  0  0  0  0  0  0
   57.2563   32.0992   42.0737 H   0  0  0  0  0  0  0  0  0  0  0  0
   60.8144   31.5543   45.9312 H   0  0  0  0  0  0  0  0  0  0  0  0
   64.3014   33.2680   48.1432 H   0  0  0  0  0  0  0  0  0  0  0  0
   64.0466   32.2025   46.7196 H   0  0  0  0  0  0  0  0  0  0  0  0
   63.3887   33.8740   46.7196 H   0  0  0  0  0  0  0  0  0  0  0  0
  1  2  1  0
  2  3  1  0
  3  4  2  0
  4  5  1  0
  5  6  2  0
  6  7  1  0
  7  8  2  0
  8  9  1  0
  9 10  1  0
 10 11  1  0
 11 12  1  0
 12 13  2  0
 13 14  1  0
 14 15  2  0
 15 16  1  0
 16 17  2  0
  9 18  2  0
 18 19  1  0
  6 20  1  0
 20 21  2  0
 21 22  1  0
 22 23  1  0
 21  3  1  0
 19  7  1  0
 17 12  1  0
  1 24  1  0
  1 25  1  0
  1 26  1  0
  4 27  1  0
  5 28  1  0
 10 29  1  0
 10 30  1  0
 11 31  1  0
 11 32  1  0
 13 33  1  0
 14 34  1  0
 15 35  1  0
 17 36  1  0
 18 37  1  0
 20 38  1  0
 23 39  1  0
 23 40  1  0
 23 41  1  0
M  CHG  1  11   1
M  END
>  <UniqueID>  (11) 
11

>  <SMILES>  (11) 
COc1ccc(-c2nc(C[NH2+]c3cccnc3)co2)cc1OC

>  <Energy>  (11) 
72.27777252230888

>  <Genealogy>  (11) 
COc1ccc(-c2nc(C[NH2+]c3cccnc3)co2)cc1OC (protonated)
COc1ccc(-c2nc(C[NH2+]c3cccnc3)co2)cc1OC (3D coordinates assigned)
COc1ccc(-c2nc(C[NH2+]c3cccnc3)co2)cc1OC (optimized conformer: 72.27777252230888 kcal/mol)

>  <smiles>  (11) 
COc1ccc(-c2nc(CNc3cccnc3)co2)cc1OC

>  <score_type>  (11) 
oracle

>  <origin>  (11) 
adg

>  <m_score__min__energy>  (11) 
-5.0899999999999999

>  <m_primary>  (11) 
energy

$$$$
11:0
     RDKit          3D

 40 41  0  0  0  0  0  0  0  0999 V2000
   58.1480   28.1470   45.7380 C   0  0  0  0  0  0  0  0  0  0  0  0
   56.9940   28.9550   45.9330 O   0  0  0  0  0  0  0  0  0  0  0  0
   56.3330   29.5920   44.8780 C   0  0  0  0  0  0  0  0  0  0  0  0
   55.1570   29.2520   44.5730 O   0  0  0  0  0  0  0  0  0  0  0  0
   57.0330   30.6380   44.0970 C   0  0  0  0  0  0  0  0  0  0  0  0
   56.8090   30.7040   42.7100 C   0  0  0  0  0  0  0  0  0  0  0  0
   57.3740   31.7280   41.9460 C   0  0  0  0  0  0  0  0  0  0  0  0
   58.1660   32.6990   42.5550 C   0  0  0  0  0  0  0  0  0  0  0  0
   58.4160   32.6380   43.9260 C   0  0  0  0  0  0  0  0  0  0  0  0
   57.8790   31.6020   44.7050 C   0  0  0  0  0  0  0  0  0  0  0  0
   58.2320   31.5430   46.0960 N   0  0  0  0  0  0  0  0  0  0  0  0
   58.0550   32.6640   46.9770 C   0  0  0  0  0  0  0  0  0  0  0  0
   57.7650   33.8000   46.5130 O   0  0  0  0  0  0  0  0  0  0  0  0
   58.1900   32.4910   48.4700 C   0  0  0  0  0  0  0  0  0  0  0  0
   59.4570   33.0270   49.0170 N   0  0  0  0  0  0  0  0  0  0  0  0
   59.3180   33.4400   50.4260 C   0  0  0  0  0  0  0  0  0  0  0  0
   60.0160   34.1050   48.1780 C   0  0  0  0  0  0  0  0  0  0  0  0
   61.4630   33.8480   47.8900 C   0  0  0  0  0  0  0  0  0  0  0  0
   62.4490   33.5890   48.8320 C   0  0  0  0  0  0  0  0  0  0  0  0
   63.7040   33.3420   48.2610 C   0  0  0  0  0  0  0  0  0  0  0  0
   63.7050   33.3970   46.8720 C   0  0  0  0  0  0  0  0  0  0  0  0
   62.1440   33.7520   46.3550 S   0  0  0  0  0  0  0  0  0  0  0  0
   58.5620   27.8571   46.7150 H   0  0  0  0  0  0  0  0  0  0  0  0
   57.8721   27.2437   45.1741 H   0  0  0  0  0  0  0  0  0  0  0  0
   58.9024   28.7152   45.1741 H   0  0  0  0  0  0  0  0  0  0  0  0
   56.1831   29.9422   42.2223 H   0  0  0  0  0  0  0  0  0  0  0  0
   57.1933   31.7677   40.8617 H   0  0  0  0  0  0  0  0  0  0  0  0
   58.5946   33.5146   41.9541 H   0  0  0  0  0  0  0  0  0  0  0  0
   59.0400   33.4094   44.4009 H   0  0  0  0  0  0  0  0  0  0  0  0
   58.3510   30.5980   46.5240 H   0  0  0  0  0  0  0  0  0  0  0  0
   57.3528   33.0121   48.9575 H   0  0  0  0  0  0  0  0  0  0  0  0
   58.1840   31.4096   48.6711 H   0  0  0  0  0  0  0  0  0  0  0  0
   59.5995   32.6036   51.0827 H   0  0  0  0  0  0  0  0  0  0  0  0
   59.9766   34.2987   50.6231 H   0  0  0  0  0  0  0  0  0  0  0  0
   58.2742   33.7257   50.6231 H   0  0  0  0  0  0  0  0  0  0  0  0
   59.4606   34.1506   47.2296 H   0  0  0  0  0  0  0  0  0  0  0  0
   59.9244   35.0594   48.7171 H   0  0  0  0  0  0  0  0  0  0  0  0
   62.2638   33.5788   49.9162 H   0  0  0  0  0  0  0  0  0  0  0  0
   64.6037   33.1250   48.8555 H   0  0  0  0  0  0  0  0  0  0  0  0
   64.5776   33.2359   46.2219 H   0  0  0  0  0  0  0  0  0  0  0  0
  1  2  1  0
  2  3  1  0
  3  4  2  0
  3  5  1  0
  5  6  2  0
  6  7  1  0
  7  8  2  0
  8  9  1  0
  9 10  2  0
 10 11  1  0
 11 12  1  0
 12 13  2  0
 12 14  1  0
 14 15  1  0
 15 16  1  0
 15 17  1  0
 17 18  1  0
 18 19  2  0
 19 20  1  0
 20 21  2  0
 21 22  1  0
 10  5  1  0
 22 18  1  0
  1 23  1  0
  1 24  1  0
  1 25  1  0
  6 26  1  0
  7 27  1  0
  8 28  1  0
  9 29  1  0
 11 30  1  0
 14 31  1  0
 14 32  1  0
 16 33  1  0
 16 34  1  0
 16 35  1  0
 17 36  1  0
 17 37  1  0
 19 38  1  0
 20 39  1  0
 21 40  1  0
M  END
>  <UniqueID>  (12) 
12

>  <SMILES>  (12) 
COC(=O)c1ccccc1NC(=O)CN(C)Cc1cccs1

>  <Energy>  (12) 
72.80738138921403

>  <Genealogy>  (12) 
COC(=O)c1ccccc1NC(=O)CN(C)Cc1cccs1 (3D coordinates assigned)
COC(=O)c1ccccc1NC(=O)CN(C)Cc1cccs1 (optimized conformer: 72.80738138921403 kcal/mol)

>  <smiles>  (12) 
COC(=O)c1ccccc1NC(=O)CN(C)Cc1cccs1

>  <score_type>  (12) 
oracle

>  <origin>  (12) 
adg

>  <m_score__min__energy>  (12) 
-7.1399999999999997

>  <m_primary>  (12) 
energy

$$$$
12:0
     RDKit          3D

 67 71  0  0  0  0  0  0  0  0999 V2000
   59.5990   33.7010   48.8580 C   0  0  0  0  0  0  0  0  0  0  0  0
   58.5140   33.0580   48.1930 O   0  0  0  0  0  0  0  0  0  0  0  0
   58.3590   32.9970   46.8000 C   0  0  0  0  0  0  0  0  0  0  0  0
   58.6680   34.0800   45.9610 C   0  0  0  0  0  0  0  0  0  0  0  0
   58.4830   33.9740   44.5830 C   0  0  0  0  0  0  0  0  0  0  0  0
   57.9890   32.7950   44.0220 C   0  0  0  0  0  0  0  0  0  0  0  0
   57.8000   32.7270   42.6790 N   0  0  0  0  0  0  0  0  0  0  0  0
   57.3110   31.6150   42.0780 C   0  0  0  0  0  0  0  0  0  0  0  0
   56.9850   30.4960   42.8370 C   0  0  0  0  0  0  0  0  0  0  0  0
   57.1680   30.5010   44.2320 C   0  0  0  0  0  0  0  0  0  0  0  0
   56.7530   29.2550   45.0010 C   0  0  1  0  0  0  0  0  0  0  0  0
   55.3540   29.1370   45.0100 O   0  0  0  0  0  0  0  0  0  0  0  0
   57.4150   27.9840   44.4390 C   0  0  0  0  0  0  0  0  0  0  0  0
   57.9200   27.1370   45.5470 N   0  0  0  0  0  0  0  0  0  0  0  0
   57.5080   27.6070   46.8970 C   0  0  0  0  0  0  0  0  0  0  0  0
   58.6180   28.3580   47.6650 C   0  0  0  0  0  0  0  0  0  0  0  0
   59.5520   29.1100   46.7070 C   0  0  0  0  0  0  0  0  0  0  0  0
   60.5430   29.8690   47.4880 N   0  0  0  0  0  0  0  0  0  0  0  0
   60.9780   31.0860   46.7890 C   0  0  0  0  0  0  0  0  0  0  0  0
   62.1450   31.6950   47.5150 C   0  0  0  0  0  0  0  0  0  0  0  0
   62.7260   32.8790   47.0430 C   0  0  0  0  0  0  0  0  0  0  0  0
   63.7820   33.4510   47.7470 C   0  0  0  0  0  0  0  0  0  0  0  0
   64.2460   32.8480   48.9170 C   0  0  0  0  0  0  0  0  0  0  0  0
   63.6250   31.6810   49.3910 C   0  0  0  0  0  0  0  0  0  0  0  0
   62.5940   31.1340   48.6760 N   0  0  0  0  0  0  0  0  0  0  0  0
   64.0540   31.1220   50.6550 N   0  0  0  0  0  0  0  0  0  0  0  0
   63.3280   30.0030   51.2680 C   0  0  0  0  0  0  0  0  0  0  0  0
   65.1990   31.7040   51.3150 C   0  0  0  0  0  0  0  0  0  0  0  0
   65.5280   31.3400   52.4740 O   0  0  0  0  0  0  0  0  0  0  0  0
   66.0570   32.6980   50.5950 C   0  0  0  0  0  0  0  0  0  0  0  0
   65.3050   33.4220   49.6240 O   0  0  0  0  0  0  0  0  0  0  0  0
   60.2220   28.1230   45.7140 C   0  0  0  0  0  0  0  0  0  0  0  0
   59.3690   26.8640   45.4540 C   0  0  0  0  0  0  0  0  0  0  0  0
   57.6760   31.6830   44.8460 C   0  0  0  0  0  0  0  0  0  0  0  0
   57.8730   31.8090   46.2390 C   0  0  0  0  0  0  0  0  0  0  0  0
   59.4619   33.6198   49.9464 H   0  0  0  0  0  0  0  0  0  0  0  0
   60.5440   33.2170   48.5703 H   0  0  0  0  0  0  0  0  0  0  0  0
   59.6282   34.7623   48.5703 H   0  0  0  0  0  0  0  0  0  0  0  0
   59.0570   35.0143   46.3920 H   0  0  0  0  0  0  0  0  0  0  0  0
   58.7284   34.8265   43.9326 H   0  0  0  0  0  0  0  0  0  0  0  0
   57.1716   31.5974   40.9870 H   0  0  0  0  0  0  0  0  0  0  0  0
   56.5810   29.6002   42.3428 H   0  0  0  0  0  0  0  0  0  0  0  0
   57.1053   29.3642   46.0373 H   0  0  0  0  0  0  0  0  0  0  0  0
   55.1430   28.1730   44.9060 H   0  0  0  0  0  0  0  0  0  0  0  0
   56.6750   27.4163   43.8558 H   0  0  0  0  0  0  0  0  0  0  0  0
   58.2586   28.2733   43.7950 H   0  0  0  0  0  0  0  0  0  0  0  0
   56.6488   28.2839   46.7806 H   0  0  0  0  0  0  0  0  0  0  0  0
   57.2633   26.7107   47.4858 H   0  0  0  0  0  0  0  0  0  0  0  0
   58.1522   29.0805   48.3513 H   0  0  0  0  0  0  0  0  0  0  0  0
   59.2143   27.6196   48.2211 H   0  0  0  0  0  0  0  0  0  0  0  0
   58.9715   29.8242   46.1046 H   0  0  0  0  0  0  0  0  0  0  0  0
   61.3810   29.2670   47.6740 H   0  0  0  0  0  0  0  0  0  0  0  0
   61.2785   30.8307   45.7621 H   0  0  0  0  0  0  0  0  0  0  0  0
   60.1482   31.8076   46.7613 H   0  0  0  0  0  0  0  0  0  0  0  0
   62.3510   33.3528   46.1238 H   0  0  0  0  0  0  0  0  0  0  0  0
   64.2501   34.3770   47.3816 H   0  0  0  0  0  0  0  0  0  0  0  0
   62.1210   30.2710   49.0170 H   0  0  0  0  0  0  0  0  0  0  0  0
   63.3824   30.0868   52.3635 H   0  0  0  0  0  0  0  0  0  0  0  0
   62.2753   30.0307   50.9499 H   0  0  0  0  0  0  0  0  0  0  0  0
   63.7823   29.0530   50.9499 H   0  0  0  0  0  0  0  0  0  0  0  0
   66.4755   33.4061   51.3254 H   0  0  0  0  0  0  0  0  0  0  0  0
   66.8606   32.1536   50.0775 H   0  0  0  0  0  0  0  0  0  0  0  0
   60.3829   28.6420   44.7576 H   0  0  0  0  0  0  0  0  0  0  0  0
   61.1699   27.7932   46.1643 H   0  0  0  0  0  0  0  0  0  0  0  0
   59.5935   26.4872   44.4452 H   0  0  0  0  0  0  0  0  0  0  0  0
   59.6211   26.1224   46.2264 H   0  0  0  0  0  0  0  0  0  0  0  0
   57.6403   30.9579   46.8959 H   0  0  0  0  0  0  0  0  0  0  0  0
  1  2  1  0
  2  3  1  0
  3  4  2  0
  4  5  1  0
  5  6  2  0
  6  7  1  0
  7  8  2  0
  8  9  1  0
  9 10  2  0
 10 11  1  0
 11 12  1  0
 11 13  1  0
 13 14  1  0
 14 15  1  0
 15 16  1  0
 16 17  1  0
 17 18  1  0
 18 19  1  0
 19 20  1  0
 20 21  2  0
 21 22  1  0
 22 23  2  0
 23 24  1  0
 24 25  2  0
 24 26  1  0
 26 27  1  0
 26 28  1  0
 28 29  2  0
 28 30  1  0
 30 31  1  0
 17 32  1  0
 32 33  1  0
 10 34  1  0
 34 35  2  0
 35  3  1  0
 34  6  1  0
 33 14  1  0
 25 20  1  0
 31 23  1  0
  1 36  1  0
  1 37  1  0
  1 38  1  0
  4 39  1  0
  5 40  1  0
  8 41  1  0
  9 42  1  0
 11 43  1  1
 12 44  1  0
 13 45  1  0
 13 46  1  0
 15 47  1  0
 15 48  1  0
 16 49  1  0
 16 50  1  0
 17 51  1  0
 18 52  1  0
 19 53  1  0
 19 54  1  0
 21 55  1  0
 22 56  1  0
 25 57  1  0
 27 58  1  0
 27 59  1  0
 27 60  1  0
 30 61  1  0
 30 62  1  0
 32 63  1  0
 32 64  1  0
 33 65  1  0
 33 66  1  0
 35 67  1  0
M  CHG  1  25   1
M  END
>  <UniqueID>  (13) 
13

>  <SMILES>  (13) 
COc1ccc2nccc([C@@H](O)CN3CCC(NCc4ccc5c([nH+]4)N(C)C(=O)CO5)CC3)c2c1

>  <Energy>  (13) 
90.5041399122025

>  <Genealogy>  (13) 
COc1ccc2nccc(C(O)CN3CCC(NCc4ccc5c([nH+]4)N(C)C(=O)CO5)CC3)c2c1 (protonated)
COc1ccc2nccc([C@@H](O)CN3CCC(NCc4ccc5c([nH+]4)N(C)C(=O)CO5)CC3)c2c1 (chirality)
COc1ccc2nccc([C@@H](O)CN3CCC(NCc4ccc5c([nH+]4)N(C)C(=O)CO5)CC3)c2c1 (3D coordinates assigned)
COc1ccc2nccc([C@@H](O)CN3CCC(NCc4ccc5c([nH+]4)N(C)C(=O)CO5)CC3)c2c1 (nonaromatic ring conformer: 90.5041399122025 kcal/mol)

>  <smiles>  (13) 
COc1ccc2nccc(C(O)CN3CCC(NCc4ccc5c(n4)N(C)C(=O)CO5)CC3)c2c1

>  <score_type>  (13) 
oracle

>  <origin>  (13) 
adg

>  <m_score__min__energy>  (13) 
-9.25

>  <m_primary>  (13) 
energy

$$$$
13:0
     RDKit          3D

 47 48  0  0  0  0  0  0  0  0999 V2000
   55.2860   25.2070   45.6590 C   0  0  0  0  0  0  0  0  0  0  0  0
   55.4330   26.5940   45.9490 O   0  0  0  0  0  0  0  0  0  0  0  0
   56.6360   27.3110   45.8680 C   0  0  0  0  0  0  0  0  0  0  0  0
   57.8460   26.7370   46.3080 C   0  0  0  0  0  0  0  0  0  0  0  0
   59.0410   27.4460   46.2260 C   0  0  0  0  0  0  0  0  0  0  0  0
   59.0520   28.7390   45.7140 C   0  0  0  0  0  0  0  0  0  0  0  0
   57.8680   29.3370   45.2650 C   0  0  0  0  0  0  0  0  0  0  0  0
   57.9290   30.7610   44.7660 C   0  0  0  0  0  0  0  0  0  0  0  0
   57.7680   31.6920   45.8920 N   0  0  0  0  0  0  0  0  0  0  0  0
   57.1240   32.9440   45.4680 C   0  0  0  0  0  0  0  0  0  0  0  0
   58.0670   33.7500   44.5660 C   0  0  0  0  0  0  0  0  0  0  0  0
   59.0600   34.6080   45.3680 C   0  0  0  0  0  0  0  0  0  0  0  0
   59.6330   33.8610   46.5090 N   0  0  0  0  0  0  0  0  0  0  0  0
   59.2750   34.5120   47.7870 C   0  0  0  0  0  0  0  0  0  0  0  0
   60.1350   33.9800   48.9500 C   0  0  0  0  0  0  0  0  0  0  0  0
   60.7100   32.7350   48.6160 O   0  0  0  0  0  0  0  0  0  0  0  0
   61.6500   32.9010   47.5690 C   0  0  0  0  0  0  0  0  0  0  0  0
   61.0990   33.7400   46.3960 C   0  0  0  0  0  0  0  0  0  0  0  0
   56.6460   28.6300   45.3350 C   0  0  0  0  0  0  0  0  0  0  0  0
   55.4880   29.2820   44.8670 O   0  0  0  0  0  0  0  0  0  0  0  0
   55.2280   29.7070   43.5330 C   0  0  0  0  0  0  0  0  0  0  0  0
   55.2259   24.6401   46.5997 H   0  0  0  0  0  0  0  0  0  0  0  0
   54.3661   25.0496   45.0767 H   0  0  0  0  0  0  0  0  0  0  0  0
   56.1524   24.8603   45.0767 H   0  0  0  0  0  0  0  0  0  0  0  0
   57.8458   25.7174   46.7208 H   0  0  0  0  0  0  0  0  0  0  0  0
   59.9786   26.9826   46.5669 H   0  0  0  0  0  0  0  0  0  0  0  0
   59.9987   29.2967   45.6613 H   0  0  0  0  0  0  0  0  0  0  0  0
   58.9015   30.9371   44.2831 H   0  0  0  0  0  0  0  0  0  0  0  0
   57.1188   30.9260   44.0405 H   0  0  0  0  0  0  0  0  0  0  0  0
   58.7200   31.9300   46.2560 H   0  0  0  0  0  0  0  0  0  0  0  0
   56.2041   32.7087   44.9127 H   0  0  0  0  0  0  0  0  0  0  0  0
   56.8841   33.5422   46.3594 H   0  0  0  0  0  0  0  0  0  0  0  0
   58.6349   33.0505   43.9350 H   0  0  0  0  0  0  0  0  0  0  0  0
   57.4498   34.4309   43.9614 H   0  0  0  0  0  0  0  0  0  0  0  0
   59.8769   34.9234   44.7023 H   0  0  0  0  0  0  0  0  0  0  0  0
   58.5171   35.4779   45.7662 H   0  0  0  0  0  0  0  0  0  0  0  0
   59.4325   35.5966   47.6925 H   0  0  0  0  0  0  0  0  0  0  0  0
   58.2205   34.2880   48.0059 H   0  0  0  0  0  0  0  0  0  0  0  0
   60.9366   34.7017   49.1660 H   0  0  0  0  0  0  0  0  0  0  0  0
   59.4928   33.8476   49.8332 H   0  0  0  0  0  0  0  0  0  0  0  0
   62.5406   33.4046   47.9731 H   0  0  0  0  0  0  0  0  0  0  0  0
   61.8884   31.9012   47.1771 H   0  0  0  0  0  0  0  0  0  0  0  0
   61.5506   34.7427   46.4213 H   0  0  0  0  0  0  0  0  0  0  0  0
   61.3488   33.2430   45.4470 H   0  0  0  0  0  0  0  0  0  0  0  0
   54.6541   30.6452   43.5524 H   0  0  0  0  0  0  0  0  0  0  0  0
   56.1807   29.8708   43.0081 H   0  0  0  0  0  0  0  0  0  0  0  0
   54.6484   28.9334   43.0081 H   0  0  0  0  0  0  0  0  0  0  0  0
  1  2  1  0
  2  3  1  0
  3  4  2  0
  4  5  1  0
  5  6  2  0
  6  7  1  0
  7  8  1  0
  8  9  1  0
  9 10  1  0
 10 11  1  0
 11 12  1  0
 12 13  1  0
 13 14  1  0
 14 15  1  0
 15 16  1  0
 16 17  1  0
 17 18  1  0
  7 19  2  0
 19 20  1  0
 20 21  1  0
 19  3  1  0
 18 13  1  0
  1 22  1  0
  1 23  1  0
  1 24  1  0
  4 25  1  0
  5 26  1  0
  6 27  1  0
  8 28  1  0
  8 29  1  0
  9 30  1  0
 10 31  1  0
 10 32  1  0
 11 33  1  0
 11 34  1  0
 12 35  1  0
 12 36  1  0
 14 37  1  0
 14 38  1  0
 15 39  1  0
 15 40  1  0
 17 41  1  0
 17 42  1  0
 18 43  1  0
 18 44  1  0
 21 45  1  0
 21 46  1  0
 21 47  1  0
M  END
>  <UniqueID>  (14) 
14

>  <SMILES>  (14) 
COc1cccc(CNCCCN2CCOCC2)c1OC

>  <Energy>  (14) 
50.00104198929035

>  <Genealogy>  (14) 
COc1cccc(CNCCCN2CCOCC2)c1OC (3D coordinates assigned)
COc1cccc(CNCCCN2CCOCC2)c1OC (nonaromatic ring conformer: 50.00104198929035 kcal/mol)

>  <smiles>  (14) 
COc1cccc(CNCCCN2CCOCC2)c1OC

>  <score_type>  (14) 
oracle

>  <origin>  (14) 
adg

>  <m_score__min__energy>  (14) 
-7.4100000000000001

>  <m_primary>  (14) 
energy

$$$$
14:0
     RDKit          3D

 43 45  0  0  0  0  0  0  0  0999 V2000
   55.0750   29.3190   44.4030 O   0  0  0  0  0  0  0  0  0  0  0  0
   56.2680   29.1770   44.7770 C   0  0  0  0  0  0  0  0  0  0  0  0
   56.6840   27.8970   45.2700 N   0  0  0  0  0  0  0  0  0  0  0  0
   57.6510   27.6440   46.3380 C   0  0  0  0  0  0  0  0  0  0  0  0
   59.0800   27.5090   45.7940 C   0  0  0  0  0  0  0  0  0  0  0  0
   60.1210   28.1340   46.7380 C   0  0  0  0  0  0  0  0  0  0  0  0
   59.7330   29.5050   47.1410 N   0  0  0  0  0  0  0  0  0  0  0  0
   59.4040   29.5790   48.5910 C   0  0  0  0  0  0  0  0  0  0  0  0
   59.5710   30.9950   49.1560 C   0  0  0  0  0  0  0  0  0  0  0  0
   61.0270   31.4710   49.0270 C   0  0  0  0  0  0  0  0  0  0  0  0
   61.7430   30.8590   47.8110 C   0  0  0  0  0  0  0  0  0  0  0  0
   60.7430   30.5060   46.7010 C   0  0  0  0  0  0  0  0  0  0  0  0
   57.1830   30.3270   44.6650 C   0  0  0  0  0  0  0  0  0  0  0  0
   57.4350   31.2970   45.6190 C   0  0  0  0  0  0  0  0  0  0  0  0
   58.3080   32.1650   44.9870 C   0  0  0  0  0  0  0  0  0  0  0  0
   58.9050   33.3880   45.5500 C   0  0  0  0  0  0  0  0  0  0  0  0
   59.0570   34.5900   44.8370 C   0  0  0  0  0  0  0  0  0  0  0  0
   59.6420   35.6060   45.5800 C   0  0  0  0  0  0  0  0  0  0  0  0
   59.9680   35.0090   47.1160 S   0  0  0  0  0  0  0  0  0  0  0  0
   59.3720   33.4600   46.8580 C   0  0  0  0  0  0  0  0  0  0  0  0
   58.5260   31.7340   43.7650 O   0  0  0  0  0  0  0  0  0  0  0  0
   57.8590   30.6410   43.5430 N   0  0  0  0  0  0  0  0  0  0  0  0
   57.6195   28.4801   47.0521 H   0  0  0  0  0  0  0  0  0  0  0  0
   57.3804   26.6962   46.8263 H   0  0  0  0  0  0  0  0  0  0  0  0
   59.3119   26.4411   45.6678 H   0  0  0  0  0  0  0  0  0  0  0  0
   59.1287   28.0447   44.8345 H   0  0  0  0  0  0  0  0  0  0  0  0
   60.2088   27.5080   47.6382 H   0  0  0  0  0  0  0  0  0  0  0  0
   61.0816   28.1894   46.2049 H   0  0  0  0  0  0  0  0  0  0  0  0
   58.3601   29.2626   48.7331 H   0  0  0  0  0  0  0  0  0  0  0  0
   60.1014   28.9190   49.1276 H   0  0  0  0  0  0  0  0  0  0  0  0
   58.9169   31.6834   48.6008 H   0  0  0  0  0  0  0  0  0  0  0  0
   59.2997   30.9814   50.2219 H   0  0  0  0  0  0  0  0  0  0  0  0
   61.0320   32.5662   48.9246 H   0  0  0  0  0  0  0  0  0  0  0  0
   61.5654   31.1459   49.9295 H   0  0  0  0  0  0  0  0  0  0  0  0
   62.4719   31.5845   47.4206 H   0  0  0  0  0  0  0  0  0  0  0  0
   62.2494   29.9366   48.1314 H   0  0  0  0  0  0  0  0  0  0  0  0
   60.2197   31.4232   46.3929 H   0  0  0  0  0  0  0  0  0  0  0  0
   61.3101   30.0648   45.8681 H   0  0  0  0  0  0  0  0  0  0  0  0
   57.0347   31.3628   46.6415 H   0  0  0  0  0  0  0  0  0  0  0  0
   58.7424   34.7135   43.7902 H   0  0  0  0  0  0  0  0  0  0  0  0
   59.8551   36.6250   45.2248 H   0  0  0  0  0  0  0  0  0  0  0  0
   59.3542   32.6441   47.5956 H   0  0  0  0  0  0  0  0  0  0  0  0
   57.8620   30.1120   42.6440 H   0  0  0  0  0  0  0  0  0  0  0  0
  1  2  2  0
  2  3  1  0
  3  4  1  0
  4  5  1  0
  5  6  1  0
  6  7  1  0
  7  8  1  0
  8  9  1  0
  9 10  1  0
 10 11  1  0
 11 12  1  0
  2 13  1  0
 13 14  1  0
 14 15  2  0
 15 16  1  0
 16 17  1  0
 17 18  2  0
 18 19  1  0
 19 20  1  0
 15 21  1  0
 21 22  1  0
 12  7  1  0
 22 13  2  0
 20 16  2  0
  4 23  1  0
  4 24  1  0
  5 25  1  0
  5 26  1  0
  6 27  1  0
  6 28  1  0
  8 29  1  0
  8 30  1  0
  9 31  1  0
  9 32  1  0
 10 33  1  0
 10 34  1  0
 11 35  1  0
 11 36  1  0
 12 37  1  0
 12 38  1  0
 14 39  1  0
 17 40  1  0
 18 41  1  0
 20 42  1  0
 22 43  1  0
M  CHG  2   3  -1  22   1
M  END
>  <UniqueID>  (15) 
15

>  <SMILES>  (15) 
O=C([N-]CCCN1CCCCC1)c1cc(-c2ccsc2)o[nH+]1

>  <Energy>  (15) 
107.10844224260315

>  <Genealogy>  (15) 
O=C([N-]CCCN1CCCCC1)c1cc(-c2ccsc2)o[nH+]1 (protonated)
O=C([N-]CCCN1CCCCC1)c1cc(-c2ccsc2)o[nH+]1 (3D coordinates assigned)
O=C([N-]CCCN1CCCCC1)c1cc(-c2ccsc2)o[nH+]1 (nonaromatic ring conformer: 107.10844224260315 kcal/mol)

>  <smiles>  (15) 
O=C(NCCCN1CCCCC1)c1cc(-c2ccsc2)on1

>  <score_type>  (15) 
oracle

>  <origin>  (15) 
adg

>  <m_score__min__energy>  (15) 
-7.8099999999999996

>  <m_primary>  (15) 
energy

$$$$
15:0
     RDKit          3D

 60 62  0  0  0  0  0  0  0  0999 V2000
   62.5350   34.4230   49.2230 C   0  0  0  0  0  0  0  0  0  0  0  0
   62.0960   33.9940   47.8260 C   0  0  0  0  0  0  0  0  0  0  0  0
   60.8440   34.5840   47.4800 O   0  0  0  0  0  0  0  0  0  0  0  0
   59.7730   33.9180   46.8590 C   0  0  0  0  0  0  0  0  0  0  0  0
   58.7810   33.2240   47.5820 C   0  0  0  0  0  0  0  0  0  0  0  0
   57.7390   32.5800   46.9080 C   0  0  0  0  0  0  0  0  0  0  0  0
   57.6830   32.5990   45.5030 C   0  0  0  0  0  0  0  0  0  0  0  0
   56.6080   31.9780   44.7870 N   0  0  0  0  0  0  0  0  0  0  0  0
   56.7120   30.8300   43.9350 C   0  0  0  0  0  0  0  0  0  0  0  0
   56.6140   30.9900   42.6880 O   0  0  0  0  0  0  0  0  0  0  0  0
   57.0290   29.4580   44.4880 C   0  0  0  0  0  0  0  0  0  0  0  0
   58.3190   28.9210   43.9660 N   0  0  2  0  0  0  0  0  0  0  0  0
   58.2210   27.4560   43.6930 C   0  0  0  0  0  0  0  0  0  0  0  0
   58.1440   26.5630   44.9500 C   0  0  0  0  0  0  0  0  0  0  0  0
   59.2950   26.8470   45.9380 C   0  0  0  0  0  0  0  0  0  0  0  0
   59.0020   27.9240   46.9070 N   0  0  0  0  0  0  0  0  0  0  0  0
   59.6520   27.7400   48.2240 C   0  0  0  0  0  0  0  0  0  0  0  0
   59.8370   29.0780   48.8860 C   0  0  0  0  0  0  0  0  0  0  0  0
   58.7460   29.7110   49.5000 C   0  0  0  0  0  0  0  0  0  0  0  0
   58.9120   30.9480   50.1270 C   0  0  0  0  0  0  0  0  0  0  0  0
   60.1680   31.5580   50.1580 C   0  0  0  0  0  0  0  0  0  0  0  0
   61.2770   30.9270   49.5600 C   0  0  0  0  0  0  0  0  0  0  0  0
   62.5610   31.4930   49.5740 O   0  0  0  0  0  0  0  0  0  0  0  0
   63.5190   31.2900   50.6090 C   0  0  0  0  0  0  0  0  0  0  0  0
   61.1010   29.6890   48.9280 C   0  0  0  0  0  0  0  0  0  0  0  0
   59.1060   29.2920   46.3560 C   0  0  0  0  0  0  0  0  0  0  0  0
   59.4510   29.3130   44.8480 C   0  0  0  0  0  0  0  0  0  0  0  0
   58.6600   33.3010   44.7870 C   0  0  0  0  0  0  0  0  0  0  0  0
   59.7020   33.9470   45.4600 C   0  0  0  0  0  0  0  0  0  0  0  0
   61.9614   33.8625   49.9759 H   0  0  0  0  0  0  0  0  0  0  0  0
   63.6078   34.2155   49.3501 H   0  0  0  0  0  0  0  0  0  0  0  0
   62.3523   35.5002   49.3501 H   0  0  0  0  0  0  0  0  0  0  0  0
   62.8565   34.3104   47.0969 H   0  0  0  0  0  0  0  0  0  0  0  0
   61.9830   32.8999   47.8146 H   0  0  0  0  0  0  0  0  0  0  0  0
   58.8271   33.1892   48.6805 H   0  0  0  0  0  0  0  0  0  0  0  0
   56.9590   32.0558   47.4797 H   0  0  0  0  0  0  0  0  0  0  0  0
   57.0912   29.5243   45.5842 H   0  0  0  0  0  0  0  0  0  0  0  0
   56.2274   28.7744   44.1715 H   0  0  0  0  0  0  0  0  0  0  0  0
   58.5040   29.3940   43.0480 H   0  0  0  0  0  0  0  0  0  0  0  0
   57.3158   27.2802   43.0933 H   0  0  0  0  0  0  0  0  0  0  0  0
   59.1494   27.1768   43.1733 H   0  0  0  0  0  0  0  0  0  0  0  0
   57.1865   26.7490   45.4586 H   0  0  0  0  0  0  0  0  0  0  0  0
   58.2280   25.5153   44.6257 H   0  0  0  0  0  0  0  0  0  0  0  0
   59.5052   25.9244   46.4990 H   0  0  0  0  0  0  0  0  0  0  0  0
   60.1541   27.1825   45.3386 H   0  0  0  0  0  0  0  0  0  0  0  0
   59.0195   27.1018   48.8586 H   0  0  0  0  0  0  0  0  0  0  0  0
   60.6331   27.2626   48.0840 H   0  0  0  0  0  0  0  0  0  0  0  0
   57.7561   29.2314   49.4876 H   0  0  0  0  0  0  0  0  0  0  0  0
   58.0503   31.4436   50.5981 H   0  0  0  0  0  0  0  0  0  0  0  0
   60.2919   32.5337   50.6506 H   0  0  0  0  0  0  0  0  0  0  0  0
   63.0286   31.3939   51.5881 H   0  0  0  0  0  0  0  0  0  0  0  0
   63.9478   30.2810   50.5190 H   0  0  0  0  0  0  0  0  0  0  0  0
   64.3202   32.0383   50.5190 H   0  0  0  0  0  0  0  0  0  0  0  0
   61.9622   29.1901   48.4596 H   0  0  0  0  0  0  0  0  0  0  0  0
   58.1427   29.8027   46.5021 H   0  0  0  0  0  0  0  0  0  0  0  0
   59.9250   29.7988   46.8874 H   0  0  0  0  0  0  0  0  0  0  0  0
   59.7635   30.3326   44.5782 H   0  0  0  0  0  0  0  0  0  0  0  0
   60.2490   28.5721   44.6923 H   0  0  0  0  0  0  0  0  0  0  0  0
   58.6078   33.3447   43.6891 H   0  0  0  0  0  0  0  0  0  0  0  0
   60.4725   34.4825   44.8860 H   0  0  0  0  0  0  0  0  0  0  0  0
  1  2  1  0
  2  3  1  0
  3  4  1  0
  4  5  2  0
  5  6  1  0
  6  7  2  0
  7  8  1  0
  8  9  1  0
  9 10  2  0
  9 11  1  0
 11 12  1  0
 12 13  1  0
 13 14  1  0
 14 15  1  0
 15 16  1  0
 16 17  1  0
 17 18  1  0
 18 19  2  0
 19 20  1  0
 20 21  2  0
 21 22  1  0
 22 23  1  0
 23 24  1  0
 22 25  2  0
 16 26  1  0
 26 27  1  0
  7 28  1  0
 28 29  2  0
 29  4  1  0
 27 12  1  0
 25 18  1  0
  1 30  1  0
  1 31  1  0
  1 32  1  0
  2 33  1  0
  2 34  1  0
  5 35  1  0
  6 36  1  0
 11 37  1  0
 11 38  1  0
 12 39  1  6
 13 40  1  0
 13 41  1  0
 14 42  1  0
 14 43  1  0
 15 44  1  0
 15 45  1  0
 17 46  1  0
 17 47  1  0
 19 48  1  0
 20 49  1  0
 21 50  1  0
 24 51  1  0
 24 52  1  0
 24 53  1  0
 25 54  1  0
 26 55  1  0
 26 56  1  0
 27 57  1  0
 27 58  1  0
 28 59  1  0
 29 60  1  0
M  CHG  2   8  -1  12   1
M  END
>  <UniqueID>  (16) 
16

>  <SMILES>  (16) 
CCOc1ccc([N-]C(=O)C[N@@H+]2CCCN(Cc3cccc(OC)c3)CC2)cc1

>  <Energy>  (16) 
83.67264410871479

>  <Genealogy>  (16) 
CCOc1ccc([N-]C(=O)C[NH+]2CCCN(Cc3cccc(OC)c3)CC2)cc1 (protonated)
CCOc1ccc([N-]C(=O)C[N@@H+]2CCCN(Cc3cccc(OC)c3)CC2)cc1 (chirality)
CCOc1ccc([N-]C(=O)C[N@@H+]2CCCN(Cc3cccc(OC)c3)CC2)cc1 (3D coordinates assigned)
CCOc1ccc([N-]C(=O)C[N@@H+]2CCCN(Cc3cccc(OC)c3)CC2)cc1 (nonaromatic ring conformer: 83.67264410871479 kcal/mol)

>  <smiles>  (16) 
CCOc1ccc(NC(=O)CN2CCCN(Cc3cccc(OC)c3)CC2)cc1

>  <score_type>  (16) 
oracle

>  <origin>  (16) 
adg

>  <m_score__min__energy>  (16) 
-6.2199999999999998

>  <m_primary>  (16) 
energy

$$$$
16:0
     RDKit          3D

 42 43  0  0  0  0  0  0  0  0999 V2000
   59.4681   35.3511   47.2113 H   0  0  0  0  0  0  0  0  0  0  0  0
   59.0480   34.5850   46.5430 C   0  0  0  0  0  0  0  0  0  0  0  0
   59.4100   34.5600   45.1930 C   0  0  0  0  0  0  0  0  0  0  0  0
   60.1169   35.3056   44.8000 H   0  0  0  0  0  0  0  0  0  0  0  0
   58.8750   33.5890   44.3420 C   0  0  0  0  0  0  0  0  0  0  0  0
   59.1665   33.5702   43.2815 H   0  0  0  0  0  0  0  0  0  0  0  0
   57.9670   32.6370   44.8340 C   0  0  0  0  0  0  0  0  0  0  0  0
   57.3730   31.6080   43.9050 C   0  0  0  0  0  0  0  0  0  0  0  0
   57.5613   31.9129   42.8650 H   0  0  0  0  0  0  0  0  0  0  0  0
   56.2927   31.5444   44.1023 H   0  0  0  0  0  0  0  0  0  0  0  0
   57.9630   30.2850   44.1290 N   0  0  0  0  0  0  0  0  0  0  0  0
   58.5080   29.8780   43.3370 H   0  0  0  0  0  0  0  0  0  0  0  0
   57.4910   29.3650   45.1290 C   0  0  0  0  0  0  0  0  0  0  0  0
   57.5370   29.6440   46.4010 N   0  0  0  0  0  0  0  0  0  0  0  0
   58.4950   29.1220   47.3670 C   0  0  0  0  0  0  0  0  0  0  0  0
   58.9013   28.1667   47.0034 H   0  0  0  0  0  0  0  0  0  0  0  0
   57.9953   28.9589   48.3333 H   0  0  0  0  0  0  0  0  0  0  0  0
   59.6190   30.1180   47.5370 C   0  0  0  0  0  0  0  0  0  0  0  0
   60.6960   30.1360   46.6180 C   0  0  0  0  0  0  0  0  0  0  0  0
   60.8130   28.9100   45.1440 Br  0  0  0  0  0  0  0  0  0  0  0  0
   61.7400   31.0510   46.7750 C   0  0  0  0  0  0  0  0  0  0  0  0
   62.5705   31.0575   46.0538 H   0  0  0  0  0  0  0  0  0  0  0  0
   61.7410   31.9580   47.8380 C   0  0  0  0  0  0  0  0  0  0  0  0
   62.8840   32.9140   48.0140 C   0  0  0  0  0  0  0  0  0  0  0  0
   63.0700   33.0696   49.0869 H   0  0  0  0  0  0  0  0  0  0  0  0
   63.7862   32.4977   47.5420 H   0  0  0  0  0  0  0  0  0  0  0  0
   62.6337   33.8756   47.5420 H   0  0  0  0  0  0  0  0  0  0  0  0
   60.7100   31.9120   48.7830 C   0  0  0  0  0  0  0  0  0  0  0  0
   60.7254   32.6052   49.6370 H   0  0  0  0  0  0  0  0  0  0  0  0
   59.6560   30.9930   48.6560 C   0  0  0  0  0  0  0  0  0  0  0  0
   58.5770   30.9800   49.7100 C   0  0  0  0  0  0  0  0  0  0  0  0
   59.0393   30.9856   50.7081 H   0  0  0  0  0  0  0  0  0  0  0  0
   57.9416   31.8706   49.5953 H   0  0  0  0  0  0  0  0  0  0  0  0
   57.9632   30.0744   49.5953 H   0  0  0  0  0  0  0  0  0  0  0  0
   57.0150   28.0820   44.7060 N   0  0  0  0  0  0  0  0  0  0  0  0
   56.9930   27.8510   43.6880 H   0  0  0  0  0  0  0  0  0  0  0  0
   56.5390   27.1280   45.6190 C   0  0  0  0  0  0  0  0  0  0  0  0
   56.1450   26.3420   46.3710 N   0  0  0  0  0  0  0  0  0  0  0  0
   57.6140   32.6630   46.1950 C   0  0  0  0  0  0  0  0  0  0  0  0
   56.9124   31.9155   46.5938 H   0  0  0  0  0  0  0  0  0  0  0  0
   58.1520   33.6360   47.0430 C   0  0  0  0  0  0  0  0  0  0  0  0
   57.8694   33.6546   48.1059 H   0  0  0  0  0  0  0  0  0  0  0  0
  1  2  1  0
  2  3  2  0
  3  4  1  0
  3  5  1  0
  5  6  1  0
  5  7  2  0
  7  8  1  0
  8  9  1  0
  8 10  1  0
  8 11  1  0
 11 12  1  0
 11 13  1  0
 13 14  2  0
 14 15  1  0
 15 16  1  0
 15 17  1  0
 15 18  1  0
 18 19  2  0
 19 20  1  0
 19 21  1  0
 21 22  1  0
 21 23  2  0
 23 24  1  0
 24 25  1  0
 24 26  1  0
 24 27  1  0
 23 28  1  0
 28 29  1  0
 28 30  2  0
 30 31  1  0
 31 32  1  0
 31 33  1  0
 31 34  1  0
 13 35  1  0
 35 36  1  0
 35 37  1  0
 37 38  3  0
  7 39  1  0
 39 40  1  0
 39 41  2  0
 41 42  1  0
 41  2  1  0
 30 18  1  0
M  END
>  <UniqueID>  (17) 
17

>  <SMILES>  (17) 
Cc1cc(C)c(C/N=C(/NC#N)NCc2ccccc2)c(Br)c1

>  <Energy>  (17) 
44.11478729490761

>  <Genealogy>  (17) 
Cc1cc(C)c(C/N=C(/NC#N)NCc2ccccc2)c(Br)c1 (cis-trans isomerization)
Cc1cc(C)c(C/N=C(/NC#N)NCc2ccccc2)c(Br)c1 (3D coordinates assigned)
Cc1cc(C)c(C/N=C(/NC#N)NCc2ccccc2)c(Br)c1 (optimized conformer: 44.11478729490761 kcal/mol)

>  <smiles>  (17) 
Cc1cc(C)c(CN=C(NC#N)NCc2ccccc2)c(Br)c1

>  <score_type>  (17) 
oracle

>  <origin>  (17) 
adg

>  <m_score__min__energy>  (17) 
-8.5199999999999996

>  <m_primary>  (17) 
energy

$$$$
17:0
     RDKit          3D

 34 36  0  0  0  0  0  0  0  0999 V2000
   56.5230   30.3040   43.7510 C   0  0  0  0  0  0  0  0  0  0  0  0
   56.6070   31.1840   44.8660 O   0  0  0  0  0  0  0  0  0  0  0  0
   57.8080   31.6880   45.3900 C   0  0  0  0  0  0  0  0  0  0  0  0
   58.2510   33.0010   45.1290 C   0  0  0  0  0  0  0  0  0  0  0  0
   59.4540   33.4620   45.6730 C   0  0  0  0  0  0  0  0  0  0  0  0
   60.2410   32.6100   46.4590 C   0  0  0  0  0  0  0  0  0  0  0  0
   59.7870   31.3010   46.7470 C   0  0  0  0  0  0  0  0  0  0  0  0
   58.5820   30.8500   46.2010 C   0  0  0  0  0  0  0  0  0  0  0  0
   60.5570   30.4370   47.5550 O   0  0  0  0  0  0  0  0  0  0  0  0
   61.7860   30.8410   48.1820 C   0  0  0  0  0  0  0  0  0  0  0  0
   62.4480   31.9210   47.3130 C   0  0  1  0  0  0  0  0  0  0  0  0
   61.4910   33.0810   47.1550 C   0  0  1  0  0  0  0  0  0  0  0  0
   62.3730   34.1070   46.4730 C   0  0  0  0  0  0  0  0  0  0  0  0
   63.7680   33.8270   47.0680 C   0  0  0  0  0  0  0  0  0  0  0  0
   63.7320   32.5030   47.7420 N   0  0  1  0  0  0  0  0  0  0  0  0
   63.8720   32.6410   49.2060 C   0  0  0  0  0  0  0  0  0  0  0  0
   56.4241   29.2682   44.1080 H   0  0  0  0  0  0  0  0  0  0  0  0
   55.6459   30.5671   43.1415 H   0  0  0  0  0  0  0  0  0  0  0  0
   57.4340   30.3964   43.1415 H   0  0  0  0  0  0  0  0  0  0  0  0
   57.6472   33.6661   44.4942 H   0  0  0  0  0  0  0  0  0  0  0  0
   59.7827   34.4945   45.4836 H   0  0  0  0  0  0  0  0  0  0  0  0
   58.2385   29.8263   46.4108 H   0  0  0  0  0  0  0  0  0  0  0  0
   61.5755   31.2477   49.1821 H   0  0  0  0  0  0  0  0  0  0  0  0
   62.4581   29.9761   48.2832 H   0  0  0  0  0  0  0  0  0  0  0  0
   62.6827   31.3612   46.3956 H   0  0  0  0  0  0  0  0  0  0  0  0
   61.0593   33.5324   48.0604 H   0  0  0  0  0  0  0  0  0  0  0  0
   62.3737   33.9634   45.3824 H   0  0  0  0  0  0  0  0  0  0  0  0
   62.0353   35.1412   46.6356 H   0  0  0  0  0  0  0  0  0  0  0  0
   64.5192   33.8148   46.2645 H   0  0  0  0  0  0  0  0  0  0  0  0
   64.0360   34.6122   47.7903 H   0  0  0  0  0  0  0  0  0  0  0  0
   64.5200   31.9060   47.3920 H   0  0  0  0  0  0  0  0  0  0  0  0
   63.1747   31.9537   49.7074 H   0  0  0  0  0  0  0  0  0  0  0  0
   64.9033   32.3964   49.5004 H   0  0  0  0  0  0  0  0  0  0  0  0
   63.6423   33.6757   49.5004 H   0  0  0  0  0  0  0  0  0  0  0  0
  1  2  1  0
  2  3  1  0
  3  4  2  0
  4  5  1  0
  5  6  2  0
  6  7  1  0
  7  8  2  0
  7  9  1  0
  9 10  1  0
 10 11  1  0
 11 12  1  0
 12 13  1  0
 13 14  1  0
 14 15  1  0
 15 16  1  0
  8  3  1  0
 15 11  1  0
 12  6  1  0
  1 17  1  0
  1 18  1  0
  1 19  1  0
  4 20  1  0
  5 21  1  0
  8 22  1  0
 10 23  1  0
 10 24  1  0
 11 25  1  6
 12 26  1  1
 13 27  1  0
 13 28  1  0
 14 29  1  0
 14 30  1  0
 15 31  1  6
 16 32  1  0
 16 33  1  0
 16 34  1  0
M  CHG  1  15   1
M  END
>  <UniqueID>  (18) 
18

>  <SMILES>  (18) 
COc1ccc2c(c1)OC[C@H]1[C@H]2CC[NH+]1C

>  <Energy>  (18) 
51.839377623434615

>  <Genealogy>  (18) 
COc1ccc2c(c1)OCC1C2CC[NH+]1C (protonated)
COc1ccc2c(c1)OC[C@H]1[C@H]2CC[NH+]1C (chirality)
COc1ccc2c(c1)OC[C@H]1[C@H]2CC[NH+]1C (3D coordinates assigned)
COc1ccc2c(c1)OC[C@H]1[C@H]2CC[NH+]1C (nonaromatic ring conformer: 51.839377623434615 kcal/mol)

>  <smiles>  (18) 
COc1ccc2c(c1)OCC1C2CCN1C

>  <score_type>  (18) 
oracle

>  <origin>  (18) 
adg

>  <m_score__min__energy>  (18) 
-4.9000000000000004

>  <m_primary>  (18) 
energy

$$$$
18:0
     RDKit          3D

 47 49  0  0  0  0  0  0  0  0999 V2000
   59.9760   33.6770   50.0910 C   0  0  0  0  0  0  0  0  0  0  0  0
   59.6250   32.1920   49.9880 C   0  0  0  0  0  0  0  0  0  0  0  0
   60.7710   31.4180   49.4870 N   0  0  0  0  0  0  0  0  0  0  0  0
   60.3620   30.1490   48.8490 C   0  0  0  0  0  0  0  0  0  0  0  0
   60.7540   30.0510   47.3540 C   0  0  0  0  0  0  0  0  0  0  0  0
   59.7490   30.6750   46.4590 N   0  0  0  0  0  0  0  0  0  0  0  0
   58.9090   29.8230   45.7900 C   0  0  0  0  0  0  0  0  0  0  0  0
   57.7150   30.2710   45.2210 C   0  0  0  0  0  0  0  0  0  0  0  0
   56.8140   29.3210   44.5310 C   0  0  0  0  0  0  0  0  0  0  0  0
   56.8130   29.2800   43.2720 O   0  0  0  0  0  0  0  0  0  0  0  0
   55.9210   28.4600   45.2480 N   0  0  0  0  0  0  0  0  0  0  0  0
   56.2720   27.1280   45.7300 C   0  0  0  0  0  0  0  0  0  0  0  0
   57.4600   27.1020   46.6750 C   0  0  0  0  0  0  0  0  0  0  0  0
   57.6320   26.6840   45.2240 C   0  0  0  0  0  0  0  0  0  0  0  0
   57.3870   31.6280   45.3160 C   0  0  0  0  0  0  0  0  0  0  0  0
   56.2780   32.0390   44.8720 O   0  0  0  0  0  0  0  0  0  0  0  0
   58.3010   32.5280   45.8920 C   0  0  0  0  0  0  0  0  0  0  0  0
   57.9980   33.8990   45.9700 C   0  0  0  0  0  0  0  0  0  0  0  0
   58.9380   34.8010   46.4540 C   0  0  0  0  0  0  0  0  0  0  0  0
   60.2150   34.3650   46.7860 C   0  0  0  0  0  0  0  0  0  0  0  0
   60.5610   33.0020   46.6870 C   0  0  0  0  0  0  0  0  0  0  0  0
   61.9040   32.6050   46.8020 O   0  0  0  0  0  0  0  0  0  0  0  0
   63.0260   33.4830   46.7690 C   0  0  0  0  0  0  0  0  0  0  0  0
   59.5500   32.0440   46.3720 C   0  0  0  0  0  0  0  0  0  0  0  0
   60.0441   33.9650   51.1504 H   0  0  0  0  0  0  0  0  0  0  0  0
   60.9422   33.8604   49.5983 H   0  0  0  0  0  0  0  0  0  0  0  0
   59.1941   34.2736   49.5983 H   0  0  0  0  0  0  0  0  0  0  0  0
   59.3447   31.8178   50.9837 H   0  0  0  0  0  0  0  0  0  0  0  0
   58.7867   32.0757   49.2853 H   0  0  0  0  0  0  0  0  0  0  0  0
   61.4400   31.2320   50.2680 H   0  0  0  0  0  0  0  0  0  0  0  0
   61.2720   31.9870   48.7640 H   0  0  0  0  0  0  0  0  0  0  0  0
   60.8404   29.3185   49.3889 H   0  0  0  0  0  0  0  0  0  0  0  0
   59.2640   30.1031   48.8978 H   0  0  0  0  0  0  0  0  0  0  0  0
   61.7188   30.5589   47.2087 H   0  0  0  0  0  0  0  0  0  0  0  0
   60.8144   28.9837   47.0945 H   0  0  0  0  0  0  0  0  0  0  0  0
   59.1819   28.7613   45.6992 H   0  0  0  0  0  0  0  0  0  0  0  0
   55.2579   26.7028   45.7591 H   0  0  0  0  0  0  0  0  0  0  0  0
   57.9000   28.0449   47.0318 H   0  0  0  0  0  0  0  0  0  0  0  0
   57.6694   26.6360   47.6492 H   0  0  0  0  0  0  0  0  0  0  0  0
   58.1967   27.3243   44.5304 H   0  0  0  0  0  0  0  0  0  0  0  0
   58.0178   25.7898   44.7125 H   0  0  0  0  0  0  0  0  0  0  0  0
   57.0107   34.2598   45.6459 H   0  0  0  0  0  0  0  0  0  0  0  0
   58.6709   35.8613   46.5744 H   0  0  0  0  0  0  0  0  0  0  0  0
   60.9650   35.0923   47.1303 H   0  0  0  0  0  0  0  0  0  0  0  0
   63.3336   33.7237   47.7973 H   0  0  0  0  0  0  0  0  0  0  0  0
   63.8587   32.9942   46.2421 H   0  0  0  0  0  0  0  0  0  0  0  0
   62.7517   34.4088   46.2421 H   0  0  0  0  0  0  0  0  0  0  0  0
  1  2  1  0
  2  3  1  0
  3  4  1  0
  4  5  1  0
  5  6  1  0
  6  7  1  0
  7  8  2  0
  8  9  1  0
  9 10  2  0
  9 11  1  0
 11 12  1  0
 12 13  1  0
 13 14  1  0
  8 15  1  0
 15 16  2  0
 15 17  1  0
 17 18  2  0
 18 19  1  0
 19 20  2  0
 20 21  1  0
 21 22  1  0
 22 23  1  0
 21 24  2  0
 24  6  1  0
 14 12  1  0
 24 17  1  0
  1 25  1  0
  1 26  1  0
  1 27  1  0
  2 28  1  0
  2 29  1  0
  3 30  1  0
  3 31  1  0
  4 32  1  0
  4 33  1  0
  5 34  1  0
  5 35  1  0
  7 36  1  0
 12 37  1  0
 13 38  1  0
 13 39  1  0
 14 40  1  0
 14 41  1  0
 18 42  1  0
 19 43  1  0
 20 44  1  0
 23 45  1  0
 23 46  1  0
 23 47  1  0
M  CHG  2   3   1  11  -1
M  END
>  <UniqueID>  (19) 
19

>  <SMILES>  (19) 
CC[NH2+]CCn1cc(C(=O)[N-]C2CC2)c(=O)c2cccc(OC)c21

>  <Energy>  (19) 
332.57213457241335

>  <Genealogy>  (19) 
CC[NH2+]CCn1cc(C(=O)[N-]C2CC2)c(=O)c2cccc(OC)c21 (protonated)
CC[NH2+]CCn1cc(C(=O)[N-]C2CC2)c(=O)c2cccc(OC)c21 (3D coordinates assigned)
CC[NH2+]CCn1cc(C(=O)[N-]C2CC2)c(=O)c2cccc(OC)c21 (nonaromatic ring conformer: 332.57213457241335 kcal/mol)

>  <smiles>  (19) 
CCNCCn1cc(C(=O)NC2CC2)c(=O)c2cccc(OC)c21

>  <score_type>  (19) 
oracle

>  <origin>  (19) 
adg

>  <m_score__min__energy>  (19) 
-6.7599999999999998

>  <m_primary>  (19) 
energy

$$$$
19:0
     RDKit          3D

 43 45  0  0  0  0  0  0  0  0999 V2000
   59.3330   34.9180   44.8850 C   0  0  0  0  0  0  0  0  0  0  0  0
   60.0610   35.3760   46.1430 C   0  0  0  0  0  0  0  0  0  0  0  0
   60.7400   34.2220   46.7760 N   0  0  0  0  0  0  0  0  0  0  0  0
   62.1620   34.1180   46.3800 C   0  0  0  0  0  0  0  0  0  0  0  0
   62.9380   33.1580   47.2830 C   0  0  0  0  0  0  0  0  0  0  0  0
   60.4900   34.1490   48.2380 C   0  0  0  0  0  0  0  0  0  0  0  0
   59.2310   33.3490   48.6300 C   0  0  0  0  0  0  0  0  0  0  0  0
   58.5410   32.8880   47.4250 N   0  0  0  0  0  0  0  0  0  0  0  0
   57.4170   33.4200   46.9670 N   0  0  0  0  0  0  0  0  0  0  0  0
   57.0730   32.8010   45.8190 C   0  0  0  0  0  0  0  0  0  0  0  0
   58.0350   31.8520   45.5450 C   0  0  0  0  0  0  0  0  0  0  0  0
   58.9410   31.9200   46.5740 C   0  0  0  0  0  0  0  0  0  0  0  0
   60.1430   31.0770   46.7120 C   0  0  0  0  0  0  0  0  0  0  0  0
   60.1790   29.7690   46.4030 C   0  0  0  0  0  0  0  0  0  0  0  0
   58.9930   28.9410   46.0480 C   0  0  0  0  0  0  0  0  0  0  0  0
   58.8390   27.7090   46.7090 C   0  0  0  0  0  0  0  0  0  0  0  0
   57.7100   26.9180   46.4870 C   0  0  0  0  0  0  0  0  0  0  0  0
   56.7210   27.3410   45.5990 C   0  0  0  0  0  0  0  0  0  0  0  0
   56.8700   28.5470   44.9120 C   0  0  0  0  0  0  0  0  0  0  0  0
   58.0070   29.3400   45.1100 C   0  0  0  0  0  0  0  0  0  0  0  0
   58.1970   30.8150   44.1090 S   0  0  0  0  0  0  0  0  0  0  0  0
   58.4332   34.3519   45.1676 H   0  0  0  0  0  0  0  0  0  0  0  0
   59.0419   35.7960   44.2896 H   0  0  0  0  0  0  0  0  0  0  0  0
   59.9984   34.2755   44.2896 H   0  0  0  0  0  0  0  0  0  0  0  0
   60.8079   36.1381   45.8760 H   0  0  0  0  0  0  0  0  0  0  0  0
   59.3337   35.8025   46.8494 H   0  0  0  0  0  0  0  0  0  0  0  0
   62.2166   33.7534   45.3436 H   0  0  0  0  0  0  0  0  0  0  0  0
   62.6155   35.1157   46.4745 H   0  0  0  0  0  0  0  0  0  0  0  0
   62.7391   33.4040   48.3365 H   0  0  0  0  0  0  0  0  0  0  0  0
   62.6180   32.1251   47.0810 H   0  0  0  0  0  0  0  0  0  0  0  0
   64.0150   33.2544   47.0810 H   0  0  0  0  0  0  0  0  0  0  0  0
   61.3612   33.6738   48.7127 H   0  0  0  0  0  0  0  0  0  0  0  0
   60.3251   35.1813   48.5802 H   0  0  0  0  0  0  0  0  0  0  0  0
   59.5249   32.4802   49.2374 H   0  0  0  0  0  0  0  0  0  0  0  0
   58.5560   33.9956   49.2098 H   0  0  0  0  0  0  0  0  0  0  0  0
   56.8970   34.2040   47.4200 H   0  0  0  0  0  0  0  0  0  0  0  0
   56.1828   33.0153   45.2094 H   0  0  0  0  0  0  0  0  0  0  0  0
   61.0637   31.5456   47.0897 H   0  0  0  0  0  0  0  0  0  0  0  0
   61.1603   29.2720   46.4132 H   0  0  0  0  0  0  0  0  0  0  0  0
   59.6158   27.3652   47.4078 H   0  0  0  0  0  0  0  0  0  0  0  0
   57.6002   25.9586   47.0138 H   0  0  0  0  0  0  0  0  0  0  0  0
   55.8240   26.7245   45.4401 H   0  0  0  0  0  0  0  0  0  0  0  0
   56.0893   28.8765   44.2106 H   0  0  0  0  0  0  0  0  0  0  0  0
  1  2  1  0
  2  3  1  0
  3  4  1  0
  4  5  1  0
  3  6  1  0
  6  7  1  0
  7  8  1  0
  8  9  1  0
  9 10  2  0
 10 11  1  0
 11 12  2  0
 12 13  1  0
 13 14  2  0
 14 15  1  0
 15 16  2  0
 16 17  1  0
 17 18  2  0
 18 19  1  0
 19 20  2  0
 20 21  1  0
 12  8  1  0
 20 15  1  0
 21 11  1  0
  1 22  1  0
  1 23  1  0
  1 24  1  0
  2 25  1  0
  2 26  1  0
  4 27  1  0
  4 28  1  0
  5 29  1  0
  5 30  1  0
  5 31  1  0
  6 32  1  0
  6 33  1  0
  7 34  1  0
  7 35  1  0
  9 36  1  0
 10 37  1  0
 13 38  1  0
 14 39  1  0
 16 40  1  0
 17 41  1  0
 18 42  1  0
 19 43  1  0
M  CHG  1   9   1
M  END
>  <UniqueID>  (20) 
20

>  <SMILES>  (20) 
CCN(CC)CCn1[nH+]cc2c1C=Cc1ccccc1S2

>  <Energy>  (20) 
88.78931095615742

>  <Genealogy>  (20) 
CCN(CC)CCn1[nH+]cc2c1C=Cc1ccccc1S2 (protonated)
CCN(CC)CCn1[nH+]cc2c1C=Cc1ccccc1S2 (3D coordinates assigned)
CCN(CC)CCn1[nH+]cc2c1C=Cc1ccccc1S2 (nonaromatic ring conformer: 88.78931095615742 kcal/mol)

>  <smiles>  (20) 
CCN(CC)CCn1ncc2c1C=Cc1ccccc1S2

>  <score_type>  (20) 
oracle

>  <origin>  (20) 
adg

>  <m_score__min__energy>  (20) 
-3.8799999999999999

>  <m_primary>  (20) 
energy

$$$$
20:0
     RDKit          3D

 50 54  0  0  0  0  0  0  0  0999 V2000
   56.7472   26.8041   46.6678 H   0  0  0  0  0  0  0  0  0  0  0  0
   57.5760   27.4710   46.3880 C   0  0  0  0  0  0  0  0  0  0  0  0
   57.4820   28.1070   45.2100 C   0  0  0  0  0  0  0  0  0  0  0  0
   57.5846   27.5002   44.2982 H   0  0  0  0  0  0  0  0  0  0  0  0
   57.2520   29.5550   45.0390 C   0  0  0  0  0  0  0  0  0  0  0  0
   56.1190   30.1170   44.5500 N   0  0  0  0  0  0  0  0  0  0  0  0
   56.2190   31.4400   44.6240 N   0  0  0  0  0  0  0  0  0  0  0  0
   57.4130   31.7200   45.1750 C   0  0  0  0  0  0  0  0  0  0  0  0
   57.9470   32.9720   45.4630 C   0  0  0  0  0  0  0  0  0  0  0  0
   57.3962   33.8938   45.2244 H   0  0  0  0  0  0  0  0  0  0  0  0
   59.2180   33.0190   46.0710 C   0  0  0  0  0  0  0  0  0  0  0  0
   59.9520   34.6030   46.4810 S   0  0  0  0  0  0  0  0  0  0  0  0
   61.3730   33.8490   47.2930 C   0  0  0  0  0  0  0  0  0  0  0  0
   62.5130   33.6130   46.5120 C   0  0  0  0  0  0  0  0  0  0  0  0
   62.4918   33.8377   45.4354 H   0  0  0  0  0  0  0  0  0  0  0  0
   63.6740   33.0960   47.0870 C   0  0  0  0  0  0  0  0  0  0  0  0
   64.5619   32.9132   46.4640 H   0  0  0  0  0  0  0  0  0  0  0  0
   63.7090   32.8110   48.4510 C   0  0  0  0  0  0  0  0  0  0  0  0
   64.6272   32.4094   48.9045 H   0  0  0  0  0  0  0  0  0  0  0  0
   62.5820   33.0340   49.2420 C   0  0  0  0  0  0  0  0  0  0  0  0
   62.6214   32.8125   50.3188 H   0  0  0  0  0  0  0  0  0  0  0  0
   61.3950   33.5390   48.6790 C   0  0  0  0  0  0  0  0  0  0  0  0
   60.2220   33.7350   49.5640 C   0  0  0  0  0  0  0  0  0  0  0  0
   59.3420   34.5790   49.2450 O   0  0  0  0  0  0  0  0  0  0  0  0
   60.0800   32.9630   50.7640 N   0  0  0  0  0  0  0  0  0  0  0  0
   58.8910   32.3110   51.2310 C   0  0  0  0  0  0  0  0  0  0  0  0
   58.4930   31.1140   50.6230 C   0  0  0  0  0  0  0  0  0  0  0  0
   59.0834   30.6995   49.7925 H   0  0  0  0  0  0  0  0  0  0  0  0
   57.3800   30.4610   51.0540 N   0  0  0  0  0  0  0  0  0  0  0  0
   56.6310   30.9330   52.0860 C   0  0  0  0  0  0  0  0  0  0  0  0
   55.7309   30.3876   52.4060 H   0  0  0  0  0  0  0  0  0  0  0  0
   57.0030   32.1090   52.7400 C   0  0  0  0  0  0  0  0  0  0  0  0
   56.4056   32.4892   53.5818 H   0  0  0  0  0  0  0  0  0  0  0  0
   58.1410   32.7980   52.3150 C   0  0  0  0  0  0  0  0  0  0  0  0
   58.4498   33.7207   52.8281 H   0  0  0  0  0  0  0  0  0  0  0  0
   59.9170   31.8210   46.3580 C   0  0  0  0  0  0  0  0  0  0  0  0
   60.9130   31.8677   46.8225 H   0  0  0  0  0  0  0  0  0  0  0  0
   59.3460   30.5710   46.0530 C   0  0  0  0  0  0  0  0  0  0  0  0
   59.8756   29.6327   46.2749 H   0  0  0  0  0  0  0  0  0  0  0  0
   58.0860   30.5660   45.4600 C   0  0  0  0  0  0  0  0  0  0  0  0
   58.6980   27.5910   47.3400 C   0  0  0  0  0  0  0  0  0  0  0  0
   58.7100   28.5780   48.2790 N   0  0  0  0  0  0  0  0  0  0  0  0
   59.7050   28.6820   49.2020 C   0  0  0  0  0  0  0  0  0  0  0  0
   59.6892   29.4995   49.9379 H   0  0  0  0  0  0  0  0  0  0  0  0
   60.7450   27.7520   49.2150 C   0  0  0  0  0  0  0  0  0  0  0  0
   61.5554   27.8345   49.9542 H   0  0  0  0  0  0  0  0  0  0  0  0
   60.7460   26.7160   48.2800 C   0  0  0  0  0  0  0  0  0  0  0  0
   61.5569   25.9727   48.2817 H   0  0  0  0  0  0  0  0  0  0  0  0
   59.7150   26.6250   47.3420 C   0  0  0  0  0  0  0  0  0  0  0  0
   59.7008   25.8029   46.6112 H   0  0  0  0  0  0  0  0  0  0  0  0
  1  2  1  0
  2  3  2  0
  3  4  1  0
  3  5  1  0
  5  6  1  0
  6  7  1  0
  7  8  2  0
  8  9  1  0
  9 10  1  0
  9 11  2  0
 11 12  1  0
 12 13  1  0
 13 14  2  0
 14 15  1  0
 14 16  1  0
 16 17  1  0
 16 18  2  0
 18 19  1  0
 18 20  1  0
 20 21  1  0
 20 22  2  0
 22 23  1  0
 23 24  2  0
 23 25  1  0
 25 26  1  0
 26 27  2  0
 27 28  1  0
 27 29  1  0
 29 30  2  0
 30 31  1  0
 30 32  1  0
 32 33  1  0
 32 34  2  0
 34 35  1  0
 11 36  1  0
 36 37  1  0
 36 38  2  0
 38 39  1  0
 38 40  1  0
  2 41  1  0
 41 42  2  0
 42 43  1  0
 43 44  1  0
 43 45  2  0
 45 46  1  0
 45 47  1  0
 47 48  1  0
 47 49  2  0
 49 50  1  0
 40  5  2  0
 49 41  1  0
 40  8  1  0
 22 13  1  0
 34 26  1  0
M  CHG  2   6  -1  25  -1
M  END
>  <UniqueID>  (21) 
21

>  <SMILES>  (21) 
O=C([N-]c1cccnc1)c1ccccc1Sc1ccc2c(/C=C\c3ccccn3)[n-]nc2c1

>  <Energy>  (21) 
106.2970697411296

>  <Genealogy>  (21) 
O=C([N-]c1cccnc1)c1ccccc1Sc1ccc2c(C=Cc3ccccn3)[n-]nc2c1 (protonated)
O=C([N-]c1cccnc1)c1ccccc1Sc1ccc2c(/C=C\c3ccccn3)[n-]nc2c1 (cis-trans isomerization)
O=C([N-]c1cccnc1)c1ccccc1Sc1ccc2c(/C=C\c3ccccn3)[n-]nc2c1 (3D coordinates assigned)
O=C([N-]c1cccnc1)c1ccccc1Sc1ccc2c(/C=C\c3ccccn3)[n-]nc2c1 (optimized conformer: 106.2970697411296 kcal/mol)

>  <smiles>  (21) 
O=C(Nc1cccnc1)c1ccccc1Sc1ccc2c(C=Cc3ccccn3)[nH]nc2c1

>  <score_type>  (21) 
oracle

>  <origin>  (21) 
adg

>  <m_score__min__energy>  (21) 
-13.449999999999999

>  <m_primary>  (21) 
energy

$$$$
21:0
     RDKit          3D

 29 30  0  0  0  0  0  0  0  0999 V2000
   51.7510   28.9550   48.9890 C   0  0  0  0  0  0  0  0  0  0  0  0
   51.7820   30.3650   49.0260 O   0  0  0  0  0  0  0  0  0  0  0  0
   50.5930   30.8990   48.4740 C   0  0  0  0  0  0  0  0  0  0  0  0
   50.4860   32.3920   48.7920 C   0  0  0  0  0  0  0  0  0  0  0  0
   51.3950   32.7510   49.8760 N   0  0  0  0  0  0  0  0  0  0  0  0
   51.3710   32.1330   51.1670 C   0  0  0  0  0  0  0  0  0  0  0  0
   50.4150   32.3490   51.9590 O   0  0  0  0  0  0  0  0  0  0  0  0
   52.4650   31.2380   51.5660 C   0  0  0  0  0  0  0  0  0  0  0  0
   52.6130   30.6210   52.7950 C   0  0  0  0  0  0  0  0  0  0  0  0
   53.7860   29.9000   52.6590 C   0  0  0  0  0  0  0  0  0  0  0  0
   54.4150   29.0530   53.6800 C   0  0  0  0  0  0  0  0  0  0  0  0
   53.7470   28.3720   54.6890 C   0  0  0  0  0  0  0  0  0  0  0  0
   54.6030   27.6420   55.5210 C   0  0  0  0  0  0  0  0  0  0  0  0
   55.9440   27.7450   55.1720 C   0  0  0  0  0  0  0  0  0  0  0  0
   56.0620   28.7460   53.8260 S   0  0  0  0  0  0  0  0  0  0  0  0
   54.2680   30.0890   51.4520 O   0  0  0  0  0  0  0  0  0  0  0  0
   53.4950   30.8860   50.7750 N   0  0  0  0  0  0  0  0  0  0  0  0
   51.7423   28.5614   50.0161 H   0  0  0  0  0  0  0  0  0  0  0  0
   50.8453   28.6219   48.4610 H   0  0  0  0  0  0  0  0  0  0  0  0
   52.6412   28.5824   48.4610 H   0  0  0  0  0  0  0  0  0  0  0  0
   50.6047   30.7599   47.3829 H   0  0  0  0  0  0  0  0  0  0  0  0
   49.7289   30.3766   48.9103 H   0  0  0  0  0  0  0  0  0  0  0  0
   50.7459   32.9726   47.8946 H   0  0  0  0  0  0  0  0  0  0  0  0
   49.4551   32.6160   49.1037 H   0  0  0  0  0  0  0  0  0  0  0  0
   51.9538   30.6878   53.6731 H   0  0  0  0  0  0  0  0  0  0  0  0
   52.6554   28.4032   54.8209 H   0  0  0  0  0  0  0  0  0  0  0  0
   54.2475   27.0425   56.3720 H   0  0  0  0  0  0  0  0  0  0  0  0
   56.7838   27.2560   55.6874 H   0  0  0  0  0  0  0  0  0  0  0  0
   53.6680   31.1870   49.7910 H   0  0  0  0  0  0  0  0  0  0  0  0
  1  2  1  0
  2  3  1  0
  3  4  1  0
  4  5  1  0
  5  6  1  0
  6  7  2  0
  6  8  1  0
  8  9  1  0
  9 10  2  0
 10 11  1  0
 11 12  2  0
 12 13  1  0
 13 14  2  0
 14 15  1  0
 10 16  1  0
 16 17  1  0
 17  8  2  0
 15 11  1  0
  1 18  1  0
  1 19  1  0
  1 20  1  0
  3 21  1  0
  3 22  1  0
  4 23  1  0
  4 24  1  0
  9 25  1  0
 12 26  1  0
 13 27  1  0
 14 28  1  0
 17 29  1  0
M  CHG  2   5  -1  17   1
M  END
>  <UniqueID>  (22) 
22

>  <SMILES>  (22) 
COCC[N-]C(=O)c1cc(-c2cccs2)o[nH+]1

>  <Energy>  (22) 
82.35925002262195

>  <Genealogy>  (22) 
COCC[N-]C(=O)c1cc(-c2cccs2)o[nH+]1 (protonated)
COCC[N-]C(=O)c1cc(-c2cccs2)o[nH+]1 (3D coordinates assigned)
COCC[N-]C(=O)c1cc(-c2cccs2)o[nH+]1 (optimized conformer: 82.35925002262195 kcal/mol)

>  <smiles>  (22) 
COCCNC(=O)c1cc(-c2cccs2)on1

>  <score_type>  (22) 
oracle

>  <origin>  (22) 
adg

>  <m_score__min__energy>  (22) 
-7.1699999999999999

>  <m_primary>  (22) 
energy

$$$$
22:0
     RDKit          3D

 53 54  0  0  0  0  0  0  0  0999 V2000
   58.0300   32.3290   41.5610 C   0  0  0  0  0  0  0  0  0  0  0  0
   57.6230   31.6950   42.8850 C   0  0  0  0  0  0  0  0  0  0  0  0
   58.2460   32.4240   43.9970 N   0  0  0  0  0  0  0  0  0  0  0  0
   57.4060   33.5280   44.4860 C   0  0  0  0  0  0  0  0  0  0  0  0
   57.4410   33.6620   46.0270 C   0  0  0  0  0  0  0  0  0  0  0  0
   58.7610   33.2620   46.5890 N   0  0  2  0  0  0  0  0  0  0  0  0
   58.5750   32.4450   47.8200 C   0  0  0  0  0  0  0  0  0  0  0  0
   59.1760   31.0360   47.6750 C   0  0  0  0  0  0  0  0  0  0  0  0
   59.0840   30.5910   46.3230 O   0  0  0  0  0  0  0  0  0  0  0  0
   58.0690   29.7460   45.8540 C   0  0  0  0  0  0  0  0  0  0  0  0
   57.0150   30.2350   45.3620 O   0  0  0  0  0  0  0  0  0  0  0  0
   58.2410   28.2780   45.9310 C   0  0  0  0  0  0  0  0  0  0  0  0
   57.7960   27.4560   44.8830 C   0  0  0  0  0  0  0  0  0  0  0  0
   57.9560   26.0690   44.9510 C   0  0  0  0  0  0  0  0  0  0  0  0
   58.5660   25.4750   46.0680 C   0  0  0  0  0  0  0  0  0  0  0  0
   58.7300   24.0450   46.1340 N   0  0  0  0  0  0  0  0  0  0  0  0
   59.7360   23.4960   45.6390 O   0  0  0  0  0  0  0  0  0  0  0  0
   57.7800   23.2610   46.7460 O   0  0  0  0  0  0  0  0  0  0  0  0
   59.0110   26.2980   47.1170 C   0  0  0  0  0  0  0  0  0  0  0  0
   58.8510   27.6850   47.0490 C   0  0  0  0  0  0  0  0  0  0  0  0
   59.5810   34.4650   46.8930 C   0  0  0  0  0  0  0  0  0  0  0  0
   60.9680   34.0980   47.3740 C   0  0  0  0  0  0  0  0  0  0  0  0
   61.2800   34.1170   48.7440 C   0  0  0  0  0  0  0  0  0  0  0  0
   62.5690   33.7880   49.1780 C   0  0  0  0  0  0  0  0  0  0  0  0
   63.5520   33.4360   48.2500 C   0  0  0  0  0  0  0  0  0  0  0  0
   64.8000   33.1180   48.6730 F   0  0  0  0  0  0  0  0  0  0  0  0
   63.2490   33.4110   46.8860 C   0  0  0  0  0  0  0  0  0  0  0  0
   61.9620   33.7400   46.4480 C   0  0  0  0  0  0  0  0  0  0  0  0
   58.6149   33.2401   41.7552 H   0  0  0  0  0  0  0  0  0  0  0  0
   58.6403   31.6171   40.9859 H   0  0  0  0  0  0  0  0  0  0  0  0
   57.1287   32.5875   40.9859 H   0  0  0  0  0  0  0  0  0  0  0  0
   56.5287   31.7362   42.9887 H   0  0  0  0  0  0  0  0  0  0  0  0
   57.9575   30.6473   42.9044 H   0  0  0  0  0  0  0  0  0  0  0  0
   58.4350   31.7580   44.7820 H   0  0  0  0  0  0  0  0  0  0  0  0
   57.7654   34.4680   44.0420 H   0  0  0  0  0  0  0  0  0  0  0  0
   56.3678   33.3130   44.1929 H   0  0  0  0  0  0  0  0  0  0  0  0
   57.2419   34.7094   46.2976 H   0  0  0  0  0  0  0  0  0  0  0  0
   56.6752   32.9922   46.4451 H   0  0  0  0  0  0  0  0  0  0  0  0
   59.2660   32.6850   45.8730 H   0  0  0  0  0  0  0  0  0  0  0  0
   59.0658   32.9552   48.6620 H   0  0  0  0  0  0  0  0  0  0  0  0
   57.4944   32.3363   47.9947 H   0  0  0  0  0  0  0  0  0  0  0  0
   60.2335   31.0605   47.9770 H   0  0  0  0  0  0  0  0  0  0  0  0
   58.6145   30.3416   48.3173 H   0  0  0  0  0  0  0  0  0  0  0  0
   57.3176   27.9073   44.0013 H   0  0  0  0  0  0  0  0  0  0  0  0
   57.6013   25.4377   44.1230 H   0  0  0  0  0  0  0  0  0  0  0  0
   59.4892   25.8468   47.9989 H   0  0  0  0  0  0  0  0  0  0  0  0
   59.2053   28.3167   47.8769 H   0  0  0  0  0  0  0  0  0  0  0  0
   59.6707   35.0735   45.9811 H   0  0  0  0  0  0  0  0  0  0  0  0
   59.0794   35.0243   47.6964 H   0  0  0  0  0  0  0  0  0  0  0  0
   60.5081   34.3915   49.4780 H   0  0  0  0  0  0  0  0  0  0  0  0
   62.8086   33.8066   50.2514 H   0  0  0  0  0  0  0  0  0  0  0  0
   64.0234   33.1323   46.1561 H   0  0  0  0  0  0  0  0  0  0  0  0
   61.7271   33.7183   45.3736 H   0  0  0  0  0  0  0  0  0  0  0  0
  1  2  1  0
  2  3  1  0
  3  4  1  0
  4  5  1  0
  5  6  1  0
  6  7  1  0
  7  8  1  0
  8  9  1  0
  9 10  1  0
 10 11  2  0
 10 12  1  0
 12 13  2  0
 13 14  1  0
 14 15  2  0
 15 16  1  0
 16 17  2  0
 16 18  1  0
 15 19  1  0
 19 20  2  0
  6 21  1  0
 21 22  1  0
 22 23  2  0
 23 24  1  0
 24 25  2  0
 25 26  1  0
 25 27  1  0
 27 28  2  0
 20 12  1  0
 28 22  1  0
  1 29  1  0
  1 30  1  0
  1 31  1  0
  2 32  1  0
  2 33  1  0
  3 34  1  0
  4 35  1  0
  4 36  1  0
  5 37  1  0
  5 38  1  0
  6 39  1  6
  7 40  1  0
  7 41  1  0
  8 42  1  0
  8 43  1  0
 13 44  1  0
 14 45  1  0
 19 46  1  0
 20 47  1  0
 21 48  1  0
 21 49  1  0
 23 50  1  0
 24 51  1  0
 27 52  1  0
 28 53  1  0
M  CHG  3   6   1  16   1  18  -1
M  END
>  <UniqueID>  (23) 
23

>  <SMILES>  (23) 
CCNCC[N@H+](CCOC(=O)c1ccc([N+](=O)[O-])cc1)Cc1ccc(F)cc1

>  <Energy>  (23) 
53.571482735056605

>  <Genealogy>  (23) 
CCNCC[NH+](CCOC(=O)c1ccc([N+](=O)[O-])cc1)Cc1ccc(F)cc1 (protonated)
CCNCC[N@H+](CCOC(=O)c1ccc([N+](=O)[O-])cc1)Cc1ccc(F)cc1 (chirality)
CCNCC[N@H+](CCOC(=O)c1ccc([N+](=O)[O-])cc1)Cc1ccc(F)cc1 (3D coordinates assigned)
CCNCC[N@H+](CCOC(=O)c1ccc([N+](=O)[O-])cc1)Cc1ccc(F)cc1 (optimized conformer: 53.571482735056605 kcal/mol)

>  <smiles>  (23) 
CCNCCN(CCOC(=O)c1ccc([N+](=O)[O-])cc1)Cc1ccc(F)cc1

>  <score_type>  (23) 
oracle

>  <origin>  (23) 
adg

>  <m_score__min__energy>  (23) 
-5.0700000000000003

>  <m_primary>  (23) 
energy

$$$$
23:0
     RDKit          3D

 60 63  0  0  0  0  0  0  0  0999 V2000
   65.9910   32.1380   50.4200 C   0  0  0  0  0  0  0  0  0  0  0  0
   64.5320   31.9980   49.9910 C   0  0  0  0  0  0  0  0  0  0  0  0
   64.1260   33.0710   49.0580 N   0  0  0  0  0  0  0  0  0  0  0  0
   63.6240   32.6350   47.7320 C   0  0  0  0  0  0  0  0  0  0  0  0
   63.3810   33.7750   46.7410 C   0  0  0  0  0  0  0  0  0  0  0  0
   63.3680   34.1880   49.6750 C   0  0  0  0  0  0  0  0  0  0  0  0
   62.5910   33.8210   50.9640 C   0  0  0  0  0  0  0  0  0  0  0  0
   61.3600   33.0820   50.6750 N   0  0  0  0  0  0  0  0  0  0  0  0
   60.7370   33.0240   49.3760 C   0  0  0  0  0  0  0  0  0  0  0  0
   60.4340   34.2320   48.6650 C   0  0  0  0  0  0  0  0  0  0  0  0
   59.8490   34.2040   47.3780 C   0  0  0  0  0  0  0  0  0  0  0  0
   59.5750   32.9550   46.8280 C   0  0  0  0  0  0  0  0  0  0  0  0
   59.8640   31.8290   47.5060 C   0  0  0  0  0  0  0  0  0  0  0  0
   59.4910   30.7930   46.7190 C   0  0  0  0  0  0  0  0  0  0  0  0
   58.9800   31.2740   45.5600 N   0  0  0  0  0  0  0  0  0  0  0  0
   59.0260   32.6070   45.6410 N   0  0  0  0  0  0  0  0  0  0  0  0
   58.6130   33.5040   44.5650 C   0  0  0  0  0  0  0  0  0  0  0  0
   57.4020   32.9230   43.8310 C   0  0  0  0  0  0  0  0  0  0  0  0
   57.8220   31.8570   42.8970 N   0  0  0  0  0  0  0  0  0  0  0  0
   57.7540   32.3390   41.5080 C   0  0  0  0  0  0  0  0  0  0  0  0
   56.9700   30.6630   43.0410 C   0  0  0  0  0  0  0  0  0  0  0  0
   59.6710   29.4080   47.1710 C   0  0  0  0  0  0  0  0  0  0  0  0
   59.3090   28.3120   46.3830 C   0  0  0  0  0  0  0  0  0  0  0  0
   59.5080   27.0240   46.8830 C   0  0  0  0  0  0  0  0  0  0  0  0
   60.0460   26.8430   48.1190 N   0  0  0  0  0  0  0  0  0  0  0  0
   60.4080   27.8900   48.9100 C   0  0  0  0  0  0  0  0  0  0  0  0
   60.2320   29.2070   48.4600 C   0  0  0  0  0  0  0  0  0  0  0  0
   60.6180   30.3900   49.3120 C   0  0  0  0  0  0  0  0  0  0  0  0
   61.0640   30.2050   50.4750 O   0  0  0  0  0  0  0  0  0  0  0  0
   60.4340   31.7710   48.7610 C   0  0  0  0  0  0  0  0  0  0  0  0
   66.0513   32.1438   51.5183 H   0  0  0  0  0  0  0  0  0  0  0  0
   66.5721   31.2915   50.0253 H   0  0  0  0  0  0  0  0  0  0  0  0
   66.4005   33.0796   50.0253 H   0  0  0  0  0  0  0  0  0  0  0  0
   64.3992   31.0256   49.4941 H   0  0  0  0  0  0  0  0  0  0  0  0
   63.9035   32.0728   50.8907 H   0  0  0  0  0  0  0  0  0  0  0  0
   64.3636   31.9494   47.2928 H   0  0  0  0  0  0  0  0  0  0  0  0
   62.6481   32.1587   47.9074 H   0  0  0  0  0  0  0  0  0  0  0  0
   63.1827   34.7052   47.2936 H   0  0  0  0  0  0  0  0  0  0  0  0
   64.2712   33.9070   46.1084 H   0  0  0  0  0  0  0  0  0  0  0  0
   62.5144   33.5325   46.1084 H   0  0  0  0  0  0  0  0  0  0  0  0
   64.0812   34.9880   49.9229 H   0  0  0  0  0  0  0  0  0  0  0  0
   62.6111   34.4899   48.9362 H   0  0  0  0  0  0  0  0  0  0  0  0
   63.2363   33.1992   51.6019 H   0  0  0  0  0  0  0  0  0  0  0  0
   62.3126   34.7575   51.4693 H   0  0  0  0  0  0  0  0  0  0  0  0
   60.9560   32.5240   51.4580 H   0  0  0  0  0  0  0  0  0  0  0  0
   60.6617   35.2019   49.1312 H   0  0  0  0  0  0  0  0  0  0  0  0
   59.6197   35.1318   46.8334 H   0  0  0  0  0  0  0  0  0  0  0  0
   58.3457   34.4828   44.9899 H   0  0  0  0  0  0  0  0  0  0  0  0
   59.4440   33.6190   43.8535 H   0  0  0  0  0  0  0  0  0  0  0  0
   56.7005   32.5031   44.5669 H   0  0  0  0  0  0  0  0  0  0  0  0
   56.9162   33.7260   43.2573 H   0  0  0  0  0  0  0  0  0  0  0  0
   57.6003   33.4282   41.5050 H   0  0  0  0  0  0  0  0  0  0  0  0
   58.6948   32.1000   40.9905 H   0  0  0  0  0  0  0  0  0  0  0  0
   56.9161   31.8491   40.9905 H   0  0  0  0  0  0  0  0  0  0  0  0
   56.8169   30.4484   44.1090 H   0  0  0  0  0  0  0  0  0  0  0  0
   55.9975   30.8464   42.5608 H   0  0  0  0  0  0  0  0  0  0  0  0
   57.4597   29.8030   42.5608 H   0  0  0  0  0  0  0  0  0  0  0  0
   58.8739   28.4621   45.3839 H   0  0  0  0  0  0  0  0  0  0  0  0
   59.2284   26.1513   46.2745 H   0  0  0  0  0  0  0  0  0  0  0  0
   60.8395   27.7030   49.9044 H   0  0  0  0  0  0  0  0  0  0  0  0
  1  2  1  0
  2  3  1  0
  3  4  1  0
  4  5  1  0
  3  6  1  0
  6  7  1  0
  7  8  1  0
  8  9  1  0
  9 10  2  0
 10 11  1  0
 11 12  2  0
 12 13  1  0
 13 14  1  0
 14 15  2  0
 15 16  1  0
 16 17  1  0
 17 18  1  0
 18 19  1  0
 19 20  1  0
 19 21  1  0
 14 22  1  0
 22 23  2  0
 23 24  1  0
 24 25  2  0
 25 26  1  0
 26 27  2  0
 27 28  1  0
 28 29  2  0
 28 30  1  0
 30  9  1  0
 16 12  1  0
 27 22  1  0
 30 13  2  0
  1 31  1  0
  1 32  1  0
  1 33  1  0
  2 34  1  0
  2 35  1  0
  4 36  1  0
  4 37  1  0
  5 38  1  0
  5 39  1  0
  5 40  1  0
  6 41  1  0
  6 42  1  0
  7 43  1  0
  7 44  1  0
  8 45  1  0
 10 46  1  0
 11 47  1  0
 17 48  1  0
 17 49  1  0
 18 50  1  0
 18 51  1  0
 20 52  1  0
 20 53  1  0
 20 54  1  0
 21 55  1  0
 21 56  1  0
 21 57  1  0
 23 58  1  0
 24 59  1  0
 26 60  1  0
M  END
>  <UniqueID>  (24) 
24

>  <SMILES>  (24) 
CCN(CC)CCNc1ccc2c3c(nn2CCN(C)C)-c2ccncc2C(=O)c13

>  <Energy>  (24) 
122.29334358319574

>  <Genealogy>  (24) 
CCN(CC)CCNc1ccc2c3c(nn2CCN(C)C)-c2ccncc2C(=O)c13 (3D coordinates assigned)
CCN(CC)CCNc1ccc2c3c(nn2CCN(C)C)-c2ccncc2C(=O)c13 (nonaromatic ring conformer: 122.29334358319574 kcal/mol)

>  <smiles>  (24) 
CCN(CC)CCNc1ccc2c3c(nn2CCN(C)C)-c2ccncc2C(=O)c13

>  <score_type>  (24) 
oracle

>  <origin>  (24) 
adg

>  <m_score__min__energy>  (24) 
-7.2599999999999998

>  <m_primary>  (24) 
energy

$$$$
24:0
     RDKit          3D

 59 61  0  0  0  0  0  0  0  0999 V2000
   56.8070   30.4460   43.3440 C   0  0  0  0  0  0  0  0  0  0  0  0
   56.5810   31.1990   44.5340 O   0  0  0  0  0  0  0  0  0  0  0  0
   57.4160   32.2180   45.0140 C   0  0  0  0  0  0  0  0  0  0  0  0
   57.1450   33.5700   44.7170 C   0  0  0  0  0  0  0  0  0  0  0  0
   57.9620   34.5830   45.2050 C   0  0  0  0  0  0  0  0  0  0  0  0
   59.0510   34.2720   46.0140 C   0  0  0  0  0  0  0  0  0  0  0  0
   59.3490   32.9390   46.3300 C   0  0  0  0  0  0  0  0  0  0  0  0
   60.4990   32.6610   47.2670 C   0  0  0  0  0  0  0  0  0  0  0  0
   60.3420   31.3270   47.8670 N   0  0  0  0  0  0  0  0  0  0  0  0
   61.1740   31.1760   49.0700 C   0  0  0  0  0  0  0  0  0  0  0  0
   61.2800   29.7020   49.4650 C   0  0  0  0  0  0  0  0  0  0  0  0
   60.5700   28.8640   48.4950 N   0  0  0  0  0  0  0  0  0  0  0  0
   60.3450   27.4590   48.7080 C   0  0  0  0  0  0  0  0  0  0  0  0
   60.9690   26.8520   49.6260 O   0  0  0  0  0  0  0  0  0  0  0  0
   59.3050   26.7120   47.9110 C   0  0  0  0  0  0  0  0  0  0  0  0
   59.9170   25.9530   46.7190 C   0  0  0  0  0  0  0  0  0  0  0  0
   58.8460   25.0820   46.0450 C   0  0  0  0  0  0  0  0  0  0  0  0
   57.5440   25.7690   45.9870 N   0  0  0  0  0  0  0  0  0  0  0  0
   56.3550   25.0310   45.6530 C   0  0  0  0  0  0  0  0  0  0  0  0
   55.2410   25.3820   46.1360 O   0  0  0  0  0  0  0  0  0  0  0  0
   56.4250   23.8160   44.7650 C   0  0  0  0  0  0  0  0  0  0  0  0
   55.2990   23.7060   43.7480 C   0  0  0  0  0  0  0  0  0  0  0  0
   56.6850   24.1390   43.2980 C   0  0  0  0  0  0  0  0  0  0  0  0
   57.4760   27.2270   46.1630 C   0  0  0  0  0  0  0  0  0  0  0  0
   58.1820   27.6740   47.4560 C   0  0  0  0  0  0  0  0  0  0  0  0
   58.5440   31.8960   45.8170 C   0  0  0  0  0  0  0  0  0  0  0  0
   58.9110   30.5720   46.1350 O   0  0  0  0  0  0  0  0  0  0  0  0
   59.6340   29.6670   45.3100 C   0  0  0  0  0  0  0  0  0  0  0  0
   57.1138   29.4236   43.6097 H   0  0  0  0  0  0  0  0  0  0  0  0
   55.8805   30.4086   42.7522 H   0  0  0  0  0  0  0  0  0  0  0  0
   57.6010   30.9250   42.7522 H   0  0  0  0  0  0  0  0  0  0  0  0
   56.2768   33.8257   44.0918 H   0  0  0  0  0  0  0  0  0  0  0  0
   57.7477   35.6317   44.9515 H   0  0  0  0  0  0  0  0  0  0  0  0
   59.6841   35.0800   46.4093 H   0  0  0  0  0  0  0  0  0  0  0  0
   61.4445   32.7002   46.7063 H   0  0  0  0  0  0  0  0  0  0  0  0
   60.5091   33.4188   48.0643 H   0  0  0  0  0  0  0  0  0  0  0  0
   59.3410   31.2130   48.1550 H   0  0  0  0  0  0  0  0  0  0  0  0
   62.1807   31.5696   48.8659 H   0  0  0  0  0  0  0  0  0  0  0  0
   60.7098   31.7339   49.8966 H   0  0  0  0  0  0  0  0  0  0  0  0
   62.3398   29.4085   49.4912 H   0  0  0  0  0  0  0  0  0  0  0  0
   60.8264   29.5637   50.4575 H   0  0  0  0  0  0  0  0  0  0  0  0
   60.0380   29.3570   47.7400 H   0  0  0  0  0  0  0  0  0  0  0  0
   58.8640   25.9497   48.5701 H   0  0  0  0  0  0  0  0  0  0  0  0
   60.3102   26.6764   45.9896 H   0  0  0  0  0  0  0  0  0  0  0  0
   60.7314   25.3083   47.0811 H   0  0  0  0  0  0  0  0  0  0  0  0
   59.1708   24.8460   45.0209 H   0  0  0  0  0  0  0  0  0  0  0  0
   58.7243   24.1651   46.6404 H   0  0  0  0  0  0  0  0  0  0  0  0
   56.8662   23.1385   45.5108 H   0  0  0  0  0  0  0  0  0  0  0  0
   54.9121   22.7170   43.4613 H   0  0  0  0  0  0  0  0  0  0  0  0
   54.2869   24.1279   43.6609 H   0  0  0  0  0  0  0  0  0  0  0  0
   57.3011   23.4631   42.6867 H   0  0  0  0  0  0  0  0  0  0  0  0
   57.0911   25.0030   42.7516 H   0  0  0  0  0  0  0  0  0  0  0  0
   57.9617   27.7135   45.3043 H   0  0  0  0  0  0  0  0  0  0  0  0
   56.4171   27.5169   46.2307 H   0  0  0  0  0  0  0  0  0  0  0  0
   58.6224   28.6676   47.2864 H   0  0  0  0  0  0  0  0  0  0  0  0
   57.4228   27.6841   48.2519 H   0  0  0  0  0  0  0  0  0  0  0  0
   60.1959   28.9636   45.9420 H   0  0  0  0  0  0  0  0  0  0  0  0
   58.9309   29.1081   44.6749 H   0  0  0  0  0  0  0  0  0  0  0  0
   60.3344   30.2293   44.6749 H   0  0  0  0  0  0  0  0  0  0  0  0
  1  2  1  0
  2  3  1  0
  3  4  2  0
  4  5  1  0
  5  6  2  0
  6  7  1  0
  7  8  1  0
  8  9  1  0
  9 10  1  0
 10 11  1  0
 11 12  1  0
 12 13  1  0
 13 14  2  0
 13 15  1  0
 15 16  1  0
 16 17  1  0
 17 18  1  0
 18 19  1  0
 19 20  2  0
 19 21  1  0
 21 22  1  0
 22 23  1  0
 18 24  1  0
 24 25  1  0
  7 26  2  0
 26 27  1  0
 27 28  1  0
 26  3  1  0
 25 15  1  0
 23 21  1  0
  1 29  1  0
  1 30  1  0
  1 31  1  0
  4 32  1  0
  5 33  1  0
  6 34  1  0
  8 35  1  0
  8 36  1  0
  9 37  1  0
 10 38  1  0
 10 39  1  0
 11 40  1  0
 11 41  1  0
 12 42  1  0
 15 43  1  0
 16 44  1  0
 16 45  1  0
 17 46  1  0
 17 47  1  0
 21 48  1  0
 22 49  1  0
 22 50  1  0
 23 51  1  0
 23 52  1  0
 24 53  1  0
 24 54  1  0
 25 55  1  0
 25 56  1  0
 28 57  1  0
 28 58  1  0
 28 59  1  0
M  END
>  <UniqueID>  (25) 
25

>  <SMILES>  (25) 
COc1cccc(CNCCNC(=O)C2CCN(C(=O)C3CC3)CC2)c1OC

>  <Energy>  (25) 
318.9614473736497

>  <Genealogy>  (25) 
COc1cccc(CNCCNC(=O)C2CCN(C(=O)C3CC3)CC2)c1OC (3D coordinates assigned)
COc1cccc(CNCCNC(=O)C2CCN(C(=O)C3CC3)CC2)c1OC (nonaromatic ring conformer: 318.9614473736497 kcal/mol)

>  <smiles>  (25) 
COc1cccc(CNCCNC(=O)C2CCN(C(=O)C3CC3)CC2)c1OC

>  <score_type>  (25) 
oracle

>  <origin>  (25) 
adg

>  <m_score__min__energy>  (25) 
-9.3800000000000008

>  <m_primary>  (25) 
energy

$$$$
25:0
     RDKit          3D

 37 40  0  0  0  0  0  0  0  0999 V2000
   59.9960   28.8510   46.2660 C   0  0  0  0  0  0  0  0  0  0  0  0
   59.8510   30.3400   46.3110 C   0  0  0  0  0  0  0  0  0  0  0  0
   60.6600   31.1460   47.0330 N   0  0  0  0  0  0  0  0  0  0  0  0
   60.2100   32.3950   46.7980 C   0  0  0  0  0  0  0  0  0  0  0  0
   60.7130   33.5880   47.3460 C   0  0  0  0  0  0  0  0  0  0  0  0
   61.9060   33.6200   48.2220 C   0  0  0  0  0  0  0  0  0  0  0  0
   63.1180   33.0560   47.7960 C   0  0  0  0  0  0  0  0  0  0  0  0
   64.2320   33.0770   48.6360 C   0  0  0  0  0  0  0  0  0  0  0  0
   64.1230   33.6530   49.9030 C   0  0  0  0  0  0  0  0  0  0  0  0
   62.9400   34.1830   50.3100 N   0  0  0  0  0  0  0  0  0  0  0  0
   61.8400   34.1770   49.5090 C   0  0  0  0  0  0  0  0  0  0  0  0
   60.0340   34.7800   47.0200 C   0  0  0  0  0  0  0  0  0  0  0  0
   58.9120   34.7580   46.1730 C   0  0  0  0  0  0  0  0  0  0  0  0
   58.4640   33.5400   45.6490 C   0  0  0  0  0  0  0  0  0  0  0  0
   59.1400   32.4060   45.9780 N   0  0  0  0  0  0  0  0  0  0  0  0
   58.8930   31.1160   45.6620 C   0  0  0  0  0  0  0  0  0  0  0  0
   57.8140   30.6490   44.7650 C   0  0  0  0  0  0  0  0  0  0  0  0
   57.7640   31.0490   43.4200 C   0  0  0  0  0  0  0  0  0  0  0  0
   56.7280   30.5880   42.6060 C   0  0  0  0  0  0  0  0  0  0  0  0
   55.7570   29.7340   43.1310 C   0  0  0  0  0  0  0  0  0  0  0  0
   55.8400   29.3500   44.4700 C   0  0  0  0  0  0  0  0  0  0  0  0
   56.8570   29.8100   45.2480 N   0  0  0  0  0  0  0  0  0  0  0  0
   60.0345   28.4552   47.2916 H   0  0  0  0  0  0  0  0  0  0  0  0
   59.1361   28.4147   45.7367 H   0  0  0  0  0  0  0  0  0  0  0  0
   60.9239   28.5888   45.7367 H   0  0  0  0  0  0  0  0  0  0  0  0
   61.4490   30.8490   47.6490 H   0  0  0  0  0  0  0  0  0  0  0  0
   63.1901   32.5969   46.7990 H   0  0  0  0  0  0  0  0  0  0  0  0
   65.1868   32.6439   48.3031 H   0  0  0  0  0  0  0  0  0  0  0  0
   64.9956   33.6778   50.5723 H   0  0  0  0  0  0  0  0  0  0  0  0
   60.8959   34.6100   49.8711 H   0  0  0  0  0  0  0  0  0  0  0  0
   60.3858   35.7371   47.4326 H   0  0  0  0  0  0  0  0  0  0  0  0
   58.3891   35.6931   45.9235 H   0  0  0  0  0  0  0  0  0  0  0  0
   57.5864   33.5005   44.9870 H   0  0  0  0  0  0  0  0  0  0  0  0
   58.5343   31.7196   43.0115 H   0  0  0  0  0  0  0  0  0  0  0  0
   56.6769   30.8975   41.5517 H   0  0  0  0  0  0  0  0  0  0  0  0
   54.9361   29.3680   42.4969 H   0  0  0  0  0  0  0  0  0  0  0  0
   55.0831   28.6753   44.8966 H   0  0  0  0  0  0  0  0  0  0  0  0
  1  2  1  0
  2  3  1  0
  3  4  2  0
  4  5  1  0
  5  6  1  0
  6  7  2  0
  7  8  1  0
  8  9  2  0
  9 10  1  0
 10 11  2  0
  5 12  2  0
 12 13  1  0
 13 14  2  0
 14 15  1  0
 15 16  1  0
 16 17  1  0
 17 18  2  0
 18 19  1  0
 19 20  2  0
 20 21  1  0
 21 22  2  0
 16  2  2  0
 22 17  1  0
 15  4  1  0
 11  6  1  0
  1 23  1  0
  1 24  1  0
  1 25  1  0
  3 26  1  0
  7 27  1  0
  8 28  1  0
  9 29  1  0
 11 30  1  0
 12 31  1  0
 13 32  1  0
 14 33  1  0
 18 34  1  0
 19 35  1  0
 20 36  1  0
 21 37  1  0
M  CHG  1   3   1
M  END
>  <UniqueID>  (26) 
26

>  <SMILES>  (26) 
Cc1[nH+]c2c(-c3cccnc3)cccn2c1-c1ccccn1

>  <Energy>  (26) 
89.70906602245569

>  <Genealogy>  (26) 
Cc1[nH+]c2c(-c3cccnc3)cccn2c1-c1ccccn1 (protonated)
Cc1[nH+]c2c(-c3cccnc3)cccn2c1-c1ccccn1 (3D coordinates assigned)
Cc1[nH+]c2c(-c3cccnc3)cccn2c1-c1ccccn1 (optimized conformer: 89.70906602245569 kcal/mol)

>  <smiles>  (26) 
Cc1nc2c(-c3cccnc3)cccn2c1-c1ccccn1

>  <score_type>  (26) 
oracle

>  <origin>  (26) 
adg

>  <m_score__min__energy>  (26) 
-6.3899999999999997

>  <m_primary>  (26) 
energy

$$$$
26:0
     RDKit          3D

 35 38  0  0  0  0  0  0  0  0999 V2000
   57.3950   34.5380   44.8710 C   0  0  0  0  0  0  0  0  0  0  0  0
   58.5170   33.9250   45.6490 C   0  0  0  0  0  0  0  0  0  0  0  0
   59.6030   34.8030   46.5850 S   0  0  0  0  0  0  0  0  0  0  0  0
   60.5240   33.4520   46.9960 C   0  0  0  0  0  0  0  0  0  0  0  0
   61.7350   33.4560   47.8480 C   0  0  0  0  0  0  0  0  0  0  0  0
   62.9760   33.0640   47.3140 C   0  0  0  0  0  0  0  0  0  0  0  0
   64.1240   33.0650   48.1130 C   0  0  0  0  0  0  0  0  0  0  0  0
   64.0480   33.4570   49.4520 C   0  0  0  0  0  0  0  0  0  0  0  0
   65.4890   33.4570   50.4510 Cl  0  0  0  0  0  0  0  0  0  0  0  0
   62.8200   33.8480   49.9940 C   0  0  0  0  0  0  0  0  0  0  0  0
   61.6690   33.8480   49.1990 C   0  0  0  0  0  0  0  0  0  0  0  0
   60.0150   32.3330   46.4310 N   0  0  0  0  0  0  0  0  0  0  0  0
   58.8940   32.5800   45.6980 C   0  0  0  0  0  0  0  0  0  0  0  0
   58.2020   31.4880   44.9960 C   0  0  0  0  0  0  0  0  0  0  0  0
   57.0320   31.6120   44.2530 C   0  0  0  0  0  0  0  0  0  0  0  0
   56.6860   30.4210   43.7150 N   0  0  0  0  0  0  0  0  0  0  0  0
   57.6370   29.5510   44.0930 C   0  0  0  0  0  0  0  0  0  0  0  0
   57.7350   28.2040   43.7460 C   0  0  0  0  0  0  0  0  0  0  0  0
   58.8510   27.4840   44.2070 C   0  0  0  0  0  0  0  0  0  0  0  0
   59.8430   28.1220   44.9840 C   0  0  0  0  0  0  0  0  0  0  0  0
   59.7220   29.4840   45.3150 C   0  0  0  0  0  0  0  0  0  0  0  0
   58.5880   30.1660   44.8690 C   0  0  0  0  0  0  0  0  0  0  0  0
   56.6470   34.9467   45.5664 H   0  0  0  0  0  0  0  0  0  0  0  0
   57.7873   35.3471   44.2374 H   0  0  0  0  0  0  0  0  0  0  0  0
   56.9261   33.7708   44.2374 H   0  0  0  0  0  0  0  0  0  0  0  0
   63.0440   32.7545   46.2606 H   0  0  0  0  0  0  0  0  0  0  0  0
   65.0896   32.7563   47.6860 H   0  0  0  0  0  0  0  0  0  0  0  0
   62.7588   34.1564   51.0481 H   0  0  0  0  0  0  0  0  0  0  0  0
   60.7059   34.1562   49.6320 H   0  0  0  0  0  0  0  0  0  0  0  0
   56.4681   32.5473   44.1219 H   0  0  0  0  0  0  0  0  0  0  0  0
   55.8570   30.2250   43.1110 H   0  0  0  0  0  0  0  0  0  0  0  0
   56.9627   27.7196   43.1304 H   0  0  0  0  0  0  0  0  0  0  0  0
   58.9523   26.4167   43.9609 H   0  0  0  0  0  0  0  0  0  0  0  0
   60.7157   27.5503   45.3326 H   0  0  0  0  0  0  0  0  0  0  0  0
   60.4959   29.9953   45.9062 H   0  0  0  0  0  0  0  0  0  0  0  0
  1  2  1  0
  2  3  1  0
  3  4  1  0
  4  5  1  0
  5  6  2  0
  6  7  1  0
  7  8  2  0
  8  9  1  0
  8 10  1  0
 10 11  2  0
  4 12  2  0
 12 13  1  0
 13 14  1  0
 14 15  2  0
 15 16  1  0
 16 17  1  0
 17 18  2  0
 18 19  1  0
 19 20  2  0
 20 21  1  0
 21 22  2  0
 13  2  2  0
 22 14  1  0
 11  5  1  0
 22 17  1  0
  1 23  1  0
  1 24  1  0
  1 25  1  0
  6 26  1  0
  7 27  1  0
 10 28  1  0
 11 29  1  0
 15 30  1  0
 16 31  1  0
 18 32  1  0
 19 33  1  0
 20 34  1  0
 21 35  1  0
M  END
>  <UniqueID>  (27) 
27

>  <SMILES>  (27) 
Cc1sc(-c2ccc(Cl)cc2)nc1-c1c[nH]c2ccccc12

>  <Energy>  (27) 
107.44934087311869

>  <Genealogy>  (27) 
Cc1sc(-c2ccc(Cl)cc2)nc1-c1c[nH]c2ccccc12 (3D coordinates assigned)
Cc1sc(-c2ccc(Cl)cc2)nc1-c1c[nH]c2ccccc12 (optimized conformer: 107.44934087311869 kcal/mol)

>  <smiles>  (27) 
Cc1sc(-c2ccc(Cl)cc2)nc1-c1c[nH]c2ccccc12

>  <score_type>  (27) 
oracle

>  <origin>  (27) 
adg

>  <m_score__min__energy>  (27) 
-8.1999999999999993

>  <m_primary>  (27) 
energy

$$$$
27:0
     RDKit          3D

 38 40  0  0  0  0  0  0  0  0999 V2000
   63.7310   33.0940   47.0480 C   0  0  0  0  0  0  0  0  0  0  0  0
   62.7770   33.4750   48.1760 C   0  0  0  0  0  0  0  0  0  0  0  0
   61.3750   33.6390   47.6550 C   0  0  0  0  0  0  0  0  0  0  0  0
   61.1500   34.1860   46.3820 C   0  0  0  0  0  0  0  0  0  0  0  0
   59.8460   34.3680   45.9130 C   0  0  0  0  0  0  0  0  0  0  0  0
   58.7480   34.0210   46.7090 C   0  0  0  0  0  0  0  0  0  0  0  0
   57.4600   34.2320   46.1880 O   0  0  0  0  0  0  0  0  0  0  0  0
   57.0370   33.8880   44.8700 C   0  0  0  0  0  0  0  0  0  0  0  0
   57.4570   32.4930   44.5340 C   0  0  0  0  0  0  0  0  0  0  0  0
   57.8700   32.1020   43.3130 N   0  0  0  0  0  0  0  0  0  0  0  0
   58.1290   30.8100   43.4270 N   0  0  0  0  0  0  0  0  0  0  0  0
   57.8670   30.4520   44.7000 C   0  0  0  0  0  0  0  0  0  0  0  0
   58.0130   29.0910   45.2650 C   0  0  0  0  0  0  0  0  0  0  0  0
   56.9490   28.1700   45.2540 C   0  0  0  0  0  0  0  0  0  0  0  0
   57.1160   26.8920   45.7980 C   0  0  0  0  0  0  0  0  0  0  0  0
   58.3410   26.5210   46.3560 C   0  0  0  0  0  0  0  0  0  0  0  0
   59.4030   27.4270   46.3720 C   0  0  0  0  0  0  0  0  0  0  0  0
   59.2420   28.7050   45.8300 C   0  0  0  0  0  0  0  0  0  0  0  0
   57.4530   31.4920   45.3850 O   0  0  0  0  0  0  0  0  0  0  0  0
   58.9730   33.4790   47.9880 C   0  0  0  0  0  0  0  0  0  0  0  0
   60.2770   33.2970   48.4590 C   0  0  0  0  0  0  0  0  0  0  0  0
   64.6724   32.7181   47.4752 H   0  0  0  0  0  0  0  0  0  0  0  0
   63.2711   32.3105   46.4278 H   0  0  0  0  0  0  0  0  0  0  0  0
   63.9373   33.9787   46.4278 H   0  0  0  0  0  0  0  0  0  0  0  0
   62.7878   32.6842   48.9405 H   0  0  0  0  0  0  0  0  0  0  0  0
   63.1067   34.4304   48.6101 H   0  0  0  0  0  0  0  0  0  0  0  0
   62.0039   34.4727   45.7506 H   0  0  0  0  0  0  0  0  0  0  0  0
   59.6811   34.7876   44.9096 H   0  0  0  0  0  0  0  0  0  0  0  0
   55.9410   33.9605   44.8108 H   0  0  0  0  0  0  0  0  0  0  0  0
   57.5015   34.5821   44.1542 H   0  0  0  0  0  0  0  0  0  0  0  0
   58.4680   30.2130   42.6420 H   0  0  0  0  0  0  0  0  0  0  0  0
   55.9816   28.4563   44.8157 H   0  0  0  0  0  0  0  0  0  0  0  0
   56.2799   26.1773   45.7861 H   0  0  0  0  0  0  0  0  0  0  0  0
   58.4692   25.5153   46.7828 H   0  0  0  0  0  0  0  0  0  0  0  0
   60.3679   27.1345   46.8119 H   0  0  0  0  0  0  0  0  0  0  0  0
   60.0826   29.4144   45.8453 H   0  0  0  0  0  0  0  0  0  0  0  0
   58.1185   33.1970   48.6207 H   0  0  0  0  0  0  0  0  0  0  0  0
   60.4429   32.8837   49.4648 H   0  0  0  0  0  0  0  0  0  0  0  0
  1  2  1  0
  2  3  1  0
  3  4  2  0
  4  5  1  0
  5  6  2  0
  6  7  1  0
  7  8  1  0
  8  9  1  0
  9 10  2  0
 10 11  1  0
 11 12  2  0
 12 13  1  0
 13 14  2  0
 14 15  1  0
 15 16  2  0
 16 17  1  0
 17 18  2  0
 12 19  1  0
  6 20  1  0
 20 21  2  0
 21  3  1  0
 19  9  1  0
 18 13  1  0
  1 22  1  0
  1 23  1  0
  1 24  1  0
  2 25  1  0
  2 26  1  0
  4 27  1  0
  5 28  1  0
  8 29  1  0
  8 30  1  0
 11 31  1  0
 14 32  1  0
 15 33  1  0
 16 34  1  0
 17 35  1  0
 18 36  1  0
 20 37  1  0
 21 38  1  0
M  CHG  1  11   1
M  END
>  <UniqueID>  (28) 
28

>  <SMILES>  (28) 
CCc1ccc(OCc2n[nH+]c(-c3ccccc3)o2)cc1

>  <Energy>  (28) 
72.14852460324074

>  <Genealogy>  (28) 
CCc1ccc(OCc2n[nH+]c(-c3ccccc3)o2)cc1 (protonated)
CCc1ccc(OCc2n[nH+]c(-c3ccccc3)o2)cc1 (3D coordinates assigned)
CCc1ccc(OCc2n[nH+]c(-c3ccccc3)o2)cc1 (optimized conformer: 72.14852460324074 kcal/mol)

>  <smiles>  (28) 
CCc1ccc(OCc2nnc(-c3ccccc3)o2)cc1

>  <score_type>  (28) 
oracle

>  <origin>  (28) 
adg

>  <m_score__min__energy>  (28) 
-6.6699999999999999

>  <m_primary>  (28) 
energy

$$$$
28:0
     RDKit          3D

 46 47  0  0  0  0  0  0  0  0999 V2000
   58.1800   22.6200   44.5210 C   0  0  0  0  0  0  0  0  0  0  0  0
   57.0470   23.2830   43.7340 C   0  0  0  0  0  0  0  0  0  0  0  0
   56.6210   24.5880   44.2880 N   0  0  0  0  0  0  0  0  0  0  0  0
   55.6910   24.4850   45.4340 C   0  0  0  0  0  0  0  0  0  0  0  0
   56.2990   25.1100   46.6870 C   0  0  0  0  0  0  0  0  0  0  0  0
   57.6960   25.6090   44.3800 C   0  0  0  0  0  0  0  0  0  0  0  0
   57.7710   26.5830   43.1870 C   0  0  0  0  0  0  0  0  0  0  0  0
   58.0980   27.9300   43.6520 N   0  0  0  0  0  0  0  0  0  0  0  0
   57.3300   28.6020   44.6640 C   0  0  0  0  0  0  0  0  0  0  0  0
   56.3680   28.0080   45.2220 O   0  0  0  0  0  0  0  0  0  0  0  0
   57.6560   29.9830   45.0640 C   0  0  0  0  0  0  0  0  0  0  0  0
   58.4520   30.3420   46.1500 C   0  0  0  0  0  0  0  0  0  0  0  0
   58.5760   31.7290   46.3040 C   0  0  0  0  0  0  0  0  0  0  0  0
   57.9160   32.4540   45.3200 C   0  0  0  0  0  0  0  0  0  0  0  0
   57.1220   31.3880   44.2940 S   0  0  0  0  0  0  0  0  0  0  0  0
   57.8150   33.9490   45.2950 C   0  0  0  0  0  0  0  0  0  0  0  0
   58.9150   34.5850   46.1620 C   0  0  0  0  0  0  0  0  0  0  0  0
   59.0320   33.8780   47.5330 C   0  0  2  0  0  0  0  0  0  0  0  0
   60.0480   34.5950   48.4270 C   0  0  0  0  0  0  0  0  0  0  0  0
   59.4220   32.3930   47.3540 C   0  0  0  0  0  0  0  0  0  0  0  0
   57.9912   22.7305   45.5990 H   0  0  0  0  0  0  0  0  0  0  0  0
   58.2279   21.5513   44.2648 H   0  0  0  0  0  0  0  0  0  0  0  0
   59.1352   23.1017   44.2648 H   0  0  0  0  0  0  0  0  0  0  0  0
   57.3879   23.4395   42.6999 H   0  0  0  0  0  0  0  0  0  0  0  0
   56.1787   22.6103   43.7928 H   0  0  0  0  0  0  0  0  0  0  0  0
   54.7561   25.0095   45.1873 H   0  0  0  0  0  0  0  0  0  0  0  0
   55.4940   23.4211   45.6322 H   0  0  0  0  0  0  0  0  0  0  0  0
   55.8515   24.6499   47.5803 H   0  0  0  0  0  0  0  0  0  0  0  0
   57.3856   24.9389   46.6918 H   0  0  0  0  0  0  0  0  0  0  0  0
   56.0980   26.1915   46.6918 H   0  0  0  0  0  0  0  0  0  0  0  0
   57.5291   26.1994   45.2930 H   0  0  0  0  0  0  0  0  0  0  0  0
   58.6467   25.0558   44.3865 H   0  0  0  0  0  0  0  0  0  0  0  0
   58.5487   26.2416   42.4880 H   0  0  0  0  0  0  0  0  0  0  0  0
   56.7942   26.6060   42.6817 H   0  0  0  0  0  0  0  0  0  0  0  0
   58.9510   28.3880   43.2610 H   0  0  0  0  0  0  0  0  0  0  0  0
   58.9332   29.6119   46.8173 H   0  0  0  0  0  0  0  0  0  0  0  0
   57.9243   34.3006   44.2585 H   0  0  0  0  0  0  0  0  0  0  0  0
   56.8344   34.2431   45.6975 H   0  0  0  0  0  0  0  0  0  0  0  0
   59.8772   34.5052   45.6349 H   0  0  0  0  0  0  0  0  0  0  0  0
   58.6522   35.6387   46.3370 H   0  0  0  0  0  0  0  0  0  0  0  0
   58.0480   33.9196   48.0230 H   0  0  0  0  0  0  0  0  0  0  0  0
   59.7966   34.4176   49.4831 H   0  0  0  0  0  0  0  0  0  0  0  0
   61.0564   34.2074   48.2200 H   0  0  0  0  0  0  0  0  0  0  0  0
   60.0207   35.6750   48.2200 H   0  0  0  0  0  0  0  0  0  0  0  0
   60.4784   32.3337   47.0533 H   0  0  0  0  0  0  0  0  0  0  0  0
   59.2598   31.8737   48.3101 H   0  0  0  0  0  0  0  0  0  0  0  0
  1  2  1  0
  2  3  1  0
  3  4  1  0
  4  5  1  0
  3  6  1  0
  6  7  1  0
  7  8  1  0
  8  9  1  0
  9 10  2  0
  9 11  1  0
 11 12  2  0
 12 13  1  0
 13 14  2  0
 14 15  1  0
 14 16  1  0
 16 17  1  0
 17 18  1  0
 18 19  1  0
 18 20  1  0
 15 11  1  0
 20 13  1  0
  1 21  1  0
  1 22  1  0
  1 23  1  0
  2 24  1  0
  2 25  1  0
  4 26  1  0
  4 27  1  0
  5 28  1  0
  5 29  1  0
  5 30  1  0
  6 31  1  0
  6 32  1  0
  7 33  1  0
  7 34  1  0
  8 35  1  0
 12 36  1  0
 16 37  1  0
 16 38  1  0
 17 39  1  0
 17 40  1  0
 18 41  1  1
 19 42  1  0
 19 43  1  0
 19 44  1  0
 20 45  1  0
 20 46  1  0
M  END
>  <UniqueID>  (29) 
29

>  <SMILES>  (29) 
CCN(CC)CCNC(=O)c1cc2c(s1)CC[C@H](C)C2

>  <Energy>  (29) 
68.80525415498214

>  <Genealogy>  (29) 
CCN(CC)CCNC(=O)c1cc2c(s1)CC[C@H](C)C2 (chirality)
CCN(CC)CCNC(=O)c1cc2c(s1)CC[C@H](C)C2 (3D coordinates assigned)
CCN(CC)CCNC(=O)c1cc2c(s1)CC[C@H](C)C2 (nonaromatic ring conformer: 68.80525415498214 kcal/mol)

>  <smiles>  (29) 
CCN(CC)CCNC(=O)c1cc2c(s1)CCC(C)C2

>  <score_type>  (29) 
oracle

>  <origin>  (29) 
adg

>  <m_score__min__energy>  (29) 
-7.21

>  <m_primary>  (29) 
energy

$$$$
29:0
     RDKit          3D

 60 63  0  0  0  0  0  0  0  0999 V2000
   59.1290   33.4780   51.6140 C   0  0  0  0  0  0  0  0  0  0  0  0
   60.5620   33.1770   51.1880 C   0  0  0  0  0  0  0  0  0  0  0  0
   60.9820   34.0720   50.1600 O   0  0  0  0  0  0  0  0  0  0  0  0
   61.8990   33.7770   49.1350 C   0  0  0  0  0  0  0  0  0  0  0  0
   63.2600   33.5160   49.3970 C   0  0  0  0  0  0  0  0  0  0  0  0
   64.1450   33.2570   48.3480 C   0  0  0  0  0  0  0  0  0  0  0  0
   63.6880   33.2540   47.0310 C   0  0  0  0  0  0  0  0  0  0  0  0
   62.3440   33.5090   46.7570 C   0  0  0  0  0  0  0  0  0  0  0  0
   61.4410   33.7690   47.8010 C   0  0  0  0  0  0  0  0  0  0  0  0
   60.0530   33.9980   47.5000 N   0  0  0  0  0  0  0  0  0  0  0  0
   59.0200   33.1240   48.0690 C   0  0  0  0  0  0  0  0  0  0  0  0
   57.7720   33.1130   47.1820 C   0  0  0  0  0  0  0  0  0  0  0  0
   58.1830   33.0870   45.7640 N   0  0  0  0  0  0  0  0  0  0  0  0
   57.0280   32.7800   44.8900 C   0  0  0  0  0  0  0  0  0  0  0  0
   57.3520   31.6920   43.8410 C   0  0  1  0  0  0  0  0  0  0  0  0
   58.7150   31.3530   43.8770 O   0  0  0  0  0  0  0  0  0  0  0  0
   56.5110   30.4190   44.0340 C   0  0  0  0  0  0  0  0  0  0  0  0
   56.8440   29.7680   45.2480 O   0  0  0  0  0  0  0  0  0  0  0  0
   57.8250   28.7700   45.0380 C   0  0  2  0  0  0  0  0  0  0  0  0
   57.5860   27.6300   46.0410 C   0  0  0  0  0  0  0  0  0  0  0  0
   57.9060   28.0580   47.3690 O   0  0  0  0  0  0  0  0  0  0  0  0
   59.0120   28.8790   47.6120 C   0  0  0  0  0  0  0  0  0  0  0  0
   59.4830   29.0790   48.9130 C   0  0  0  0  0  0  0  0  0  0  0  0
   60.6090   29.8820   49.1280 C   0  0  0  0  0  0  0  0  0  0  0  0
   61.2590   30.4860   48.0450 C   0  0  0  0  0  0  0  0  0  0  0  0
   60.7800   30.2950   46.7430 C   0  0  0  0  0  0  0  0  0  0  0  0
   59.6470   29.5040   46.5310 C   0  0  0  0  0  0  0  0  0  0  0  0
   59.1300   29.3240   45.2440 O   0  0  0  0  0  0  0  0  0  0  0  0
   58.8590   34.3510   45.3640 C   0  0  0  0  0  0  0  0  0  0  0  0
   59.6590   35.0040   46.5080 C   0  0  0  0  0  0  0  0  0  0  0  0
   59.0680   33.4908   52.7122 H   0  0  0  0  0  0  0  0  0  0  0  0
   58.8273   34.4591   51.2185 H   0  0  0  0  0  0  0  0  0  0  0  0
   58.4581   32.7012   51.2185 H   0  0  0  0  0  0  0  0  0  0  0  0
   61.2275   33.2875   52.0568 H   0  0  0  0  0  0  0  0  0  0  0  0
   60.6067   32.1484   50.8007 H   0  0  0  0  0  0  0  0  0  0  0  0
   63.6268   33.5164   50.4340 H   0  0  0  0  0  0  0  0  0  0  0  0
   65.2050   33.0549   48.5615 H   0  0  0  0  0  0  0  0  0  0  0  0
   64.3877   33.0504   46.2070 H   0  0  0  0  0  0  0  0  0  0  0  0
   61.9889   33.5064   45.7159 H   0  0  0  0  0  0  0  0  0  0  0  0
   59.4160   32.1008   48.1479 H   0  0  0  0  0  0  0  0  0  0  0  0
   58.7437   33.5039   49.0636 H   0  0  0  0  0  0  0  0  0  0  0  0
   57.1692   32.2207   47.4065 H   0  0  0  0  0  0  0  0  0  0  0  0
   57.1732   34.0151   47.3762 H   0  0  0  0  0  0  0  0  0  0  0  0
   56.1950   32.4288   45.5167 H   0  0  0  0  0  0  0  0  0  0  0  0
   56.7659   33.7001   44.3471 H   0  0  0  0  0  0  0  0  0  0  0  0
   57.0997   32.1232   42.8610 H   0  0  0  0  0  0  0  0  0  0  0  0
   58.9600   31.2490   44.8330 H   0  0  0  0  0  0  0  0  0  0  0  0
   55.4455   30.6915   44.0528 H   0  0  0  0  0  0  0  0  0  0  0  0
   56.7192   29.7324   43.2002 H   0  0  0  0  0  0  0  0  0  0  0  0
   57.7572   28.3883   44.0086 H   0  0  0  0  0  0  0  0  0  0  0  0
   56.5287   27.3289   46.0022 H   0  0  0  0  0  0  0  0  0  0  0  0
   58.2313   26.7798   45.7751 H   0  0  0  0  0  0  0  0  0  0  0  0
   58.9706   28.6071   49.7644 H   0  0  0  0  0  0  0  0  0  0  0  0
   60.9841   30.0389   50.1501 H   0  0  0  0  0  0  0  0  0  0  0  0
   62.1473   31.1115   48.2171 H   0  0  0  0  0  0  0  0  0  0  0  0
   61.2929   30.7652   45.8910 H   0  0  0  0  0  0  0  0  0  0  0  0
   59.5497   34.1307   44.5367 H   0  0  0  0  0  0  0  0  0  0  0  0
   58.0725   35.0617   45.0700 H   0  0  0  0  0  0  0  0  0  0  0  0
   60.5618   35.4770   46.0941 H   0  0  0  0  0  0  0  0  0  0  0  0
   59.0262   35.7582   46.9987 H   0  0  0  0  0  0  0  0  0  0  0  0
  1  2  1  0
  2  3  1  0
  3  4  1  0
  4  5  2  0
  5  6  1  0
  6  7  2  0
  7  8  1  0
  8  9  2  0
  9 10  1  0
 10 11  1  0
 11 12  1  0
 12 13  1  0
 13 14  1  0
 14 15  1  0
 15 16  1  0
 15 17  1  0
 17 18  1  0
 18 19  1  0
 19 20  1  0
 20 21  1  0
 21 22  1  0
 22 23  2  0
 23 24  1  0
 24 25  2  0
 25 26  1  0
 26 27  2  0
 27 28  1  0
 13 29  1  0
 29 30  1  0
  9  4  1  0
 30 10  1  0
 28 19  1  0
 27 22  1  0
  1 31  1  0
  1 32  1  0
  1 33  1  0
  2 34  1  0
  2 35  1  0
  5 36  1  0
  6 37  1  0
  7 38  1  0
  8 39  1  0
 11 40  1  0
 11 41  1  0
 12 42  1  0
 12 43  1  0
 14 44  1  0
 14 45  1  0
 15 46  1  6
 16 47  1  0
 17 48  1  0
 17 49  1  0
 19 50  1  6
 20 51  1  0
 20 52  1  0
 23 53  1  0
 24 54  1  0
 25 55  1  0
 26 56  1  0
 29 57  1  0
 29 58  1  0
 30 59  1  0
 30 60  1  0
M  END
>  <UniqueID>  (30) 
30

>  <SMILES>  (30) 
CCOc1ccccc1N1CCN(C[C@@H](O)CO[C@@H]2COc3ccccc3O2)CC1

>  <Energy>  (30) 
73.82929662394261

>  <Genealogy>  (30) 
CCOc1ccccc1N1CCN(C[C@@H](O)CO[C@@H]2COc3ccccc3O2)CC1 (chirality)
CCOc1ccccc1N1CCN(C[C@@H](O)CO[C@@H]2COc3ccccc3O2)CC1 (3D coordinates assigned)
CCOc1ccccc1N1CCN(C[C@@H](O)CO[C@@H]2COc3ccccc3O2)CC1 (nonaromatic ring conformer: 73.82929662394261 kcal/mol)

>  <smiles>  (30) 
CCOc1ccccc1N1CCN(CC(O)COC2COc3ccccc3O2)CC1

>  <score_type>  (30) 
oracle

>  <origin>  (30) 
adg

>  <m_score__min__energy>  (30) 
-7.5800000000000001

>  <m_primary>  (30) 
energy

$$$$
30:0
     RDKit          3D

 23 24  0  0  0  0  0  0  0  0999 V2000
   57.8120   27.7990   44.9500 C   0  0  0  0  0  0  0  0  0  0  0  0
   57.4340   29.2050   44.6360 C   0  0  0  0  0  0  0  0  0  0  0  0
   56.2180   29.7330   44.8760 N   0  0  0  0  0  0  0  0  0  0  0  0
   56.2830   31.0000   44.4970 N   0  0  0  0  0  0  0  0  0  0  0  0
   57.5370   31.1920   44.0490 C   0  0  0  0  0  0  0  0  0  0  0  0
   58.1560   32.7550   43.4320 S   0  0  0  0  0  0  0  0  0  0  0  0
   57.3580   33.7530   44.7380 C   0  0  0  0  0  0  0  0  0  0  0  0
   58.1630   33.7150   46.0040 C   0  0  0  0  0  0  0  0  0  0  0  0
   59.2510   34.5800   46.1870 C   0  0  0  0  0  0  0  0  0  0  0  0
   60.0030   34.4960   47.3600 C   0  0  0  0  0  0  0  0  0  0  0  0
   59.6690   33.5530   48.3330 C   0  0  0  0  0  0  0  0  0  0  0  0
   58.5830   32.7030   48.1150 C   0  0  0  0  0  0  0  0  0  0  0  0
   57.8610   32.8000   46.9660 N   0  0  0  0  0  0  0  0  0  0  0  0
   58.2510   30.0970   44.1310 O   0  0  0  0  0  0  0  0  0  0  0  0
   57.8483   27.6640   46.0411 H   0  0  0  0  0  0  0  0  0  0  0  0
   57.0661   27.1141   44.5204 H   0  0  0  0  0  0  0  0  0  0  0  0
   58.8008   27.5805   44.5204 H   0  0  0  0  0  0  0  0  0  0  0  0
   57.2739   34.7948   44.3951 H   0  0  0  0  0  0  0  0  0  0  0  0
   56.3609   33.3354   44.9414 H   0  0  0  0  0  0  0  0  0  0  0  0
   59.5097   35.3180   45.4134 H   0  0  0  0  0  0  0  0  0  0  0  0
   60.8568   35.1715   47.5170 H   0  0  0  0  0  0  0  0  0  0  0  0
   60.2547   33.4802   49.2612 H   0  0  0  0  0  0  0  0  0  0  0  0
   58.3108   31.9540   48.8732 H   0  0  0  0  0  0  0  0  0  0  0  0
  1  2  1  0
  2  3  2  0
  3  4  1  0
  4  5  2  0
  5  6  1  0
  6  7  1  0
  7  8  1  0
  8  9  2  0
  9 10  1  0
 10 11  2  0
 11 12  1  0
 12 13  2  0
  5 14  1  0
 14  2  1  0
 13  8  1  0
  1 15  1  0
  1 16  1  0
  1 17  1  0
  7 18  1  0
  7 19  1  0
  9 20  1  0
 10 21  1  0
 11 22  1  0
 12 23  1  0
M  END
>  <UniqueID>  (31) 
31

>  <SMILES>  (31) 
Cc1nnc(SCc2ccccn2)o1

>  <Energy>  (31) 
52.201489174218246

>  <Genealogy>  (31) 
Cc1nnc(SCc2ccccn2)o1 (3D coordinates assigned)
Cc1nnc(SCc2ccccn2)o1 (optimized conformer: 52.201489174218246 kcal/mol)

>  <smiles>  (31) 
Cc1nnc(SCc2ccccn2)o1

>  <score_type>  (31) 
oracle

>  <origin>  (31) 
adg

>  <m_score__min__energy>  (31) 
-6

>  <m_primary>  (31) 
energy

$$$$
31:0
     RDKit          3D

 28 28  0  0  0  0  0  0  0  0999 V2000
   59.9150   27.7160   46.7930 C   0  0  0  0  0  0  0  0  0  0  0  0
   58.9690   27.3880   46.1210 C   0  0  0  0  0  0  0  0  0  0  0  0
   57.8110   26.9820   45.3020 C   0  0  0  0  0  0  0  0  0  0  0  0
   57.6450   27.8030   44.0750 N   0  0  2  0  0  0  0  0  0  0  0  0
   58.1450   27.0840   42.8870 C   0  0  0  0  0  0  0  0  0  0  0  0
   58.2790   29.1410   44.1710 C   0  0  0  0  0  0  0  0  0  0  0  0
   57.3210   30.1780   44.7080 C   0  0  0  0  0  0  0  0  0  0  0  0
   56.1180   29.8420   44.8850 O   0  0  0  0  0  0  0  0  0  0  0  0
   57.7590   31.5360   45.1190 C   0  0  0  0  0  0  0  0  0  0  0  0
   57.7520   32.5800   44.1740 C   0  0  0  0  0  0  0  0  0  0  0  0
   58.1470   33.8710   44.5380 C   0  0  0  0  0  0  0  0  0  0  0  0
   58.5600   34.1340   45.8450 C   0  0  0  0  0  0  0  0  0  0  0  0
   58.5850   33.1060   46.7890 C   0  0  0  0  0  0  0  0  0  0  0  0
   58.1920   31.8120   46.4300 C   0  0  0  0  0  0  0  0  0  0  0  0
   60.7780   28.0152   47.4060 H   0  0  0  0  0  0  0  0  0  0  0  0
   57.9445   25.9315   45.0043 H   0  0  0  0  0  0  0  0  0  0  0  0
   56.9098   27.1262   45.9161 H   0  0  0  0  0  0  0  0  0  0  0  0
   56.6160   27.9410   43.9310 H   0  0  0  0  0  0  0  0  0  0  0  0
   58.7458   26.2200   43.2072 H   0  0  0  0  0  0  0  0  0  0  0  0
   57.2935   26.7353   42.2842 H   0  0  0  0  0  0  0  0  0  0  0  0
   58.7683   27.7608   42.2842 H   0  0  0  0  0  0  0  0  0  0  0  0
   59.1473   29.0763   44.8433 H   0  0  0  0  0  0  0  0  0  0  0  0
   58.5842   29.4483   43.1598 H   0  0  0  0  0  0  0  0  0  0  0  0
   57.4331   32.3782   43.1408 H   0  0  0  0  0  0  0  0  0  0  0  0
   58.1322   34.6804   43.7933 H   0  0  0  0  0  0  0  0  0  0  0  0
   58.8657   35.1512   46.1311 H   0  0  0  0  0  0  0  0  0  0  0  0
   58.9145   33.3137   47.8177 H   0  0  0  0  0  0  0  0  0  0  0  0
   58.2215   31.0050   47.1769 H   0  0  0  0  0  0  0  0  0  0  0  0
  1  2  3  0
  2  3  1  0
  3  4  1  0
  4  5  1  0
  4  6  1  0
  6  7  1  0
  7  8  2  0
  7  9  1  0
  9 10  2  0
 10 11  1  0
 11 12  2  0
 12 13  1  0
 13 14  2  0
 14  9  1  0
  1 15  1  0
  3 16  1  0
  3 17  1  0
  4 18  1  6
  5 19  1  0
  5 20  1  0
  5 21  1  0
  6 22  1  0
  6 23  1  0
 10 24  1  0
 11 25  1  0
 12 26  1  0
 13 27  1  0
 14 28  1  0
M  CHG  1   4   1
M  END
>  <UniqueID>  (32) 
32

>  <SMILES>  (32) 
C#CC[N@H+](C)CC(=O)c1ccccc1

>  <Energy>  (32) 
30.082329565280645

>  <Genealogy>  (32) 
C#CC[NH+](C)CC(=O)c1ccccc1 (protonated)
C#CC[N@H+](C)CC(=O)c1ccccc1 (chirality)
C#CC[N@H+](C)CC(=O)c1ccccc1 (3D coordinates assigned)
C#CC[N@H+](C)CC(=O)c1ccccc1 (optimized conformer: 30.082329565280645 kcal/mol)

>  <smiles>  (32) 
C#CCN(C)CC(=O)c1ccccc1

>  <score_type>  (32) 
oracle

>  <origin>  (32) 
adg

>  <m_score__min__energy>  (32) 
-3.9700000000000002

>  <m_primary>  (32) 
energy

$$$$
32:0
     RDKit          3D

 53 54  0  0  0  0  0  0  0  0999 V2000
   57.1638   28.4637   42.3359 H   0  0  0  0  0  0  0  0  0  0  0  0
   57.3610   28.7860   43.3690 C   0  0  0  0  0  0  0  0  0  0  0  0
   56.6930   29.9950   43.8750 C   0  0  0  0  0  0  0  0  0  0  0  0
   56.2020   30.0210   45.0380 O   0  0  0  0  0  0  0  0  0  0  0  0
   56.6190   31.1210   43.0470 O   0  0  0  0  0  0  0  0  0  0  0  0
   57.7670   31.7860   42.5230 C   0  0  0  0  0  0  0  0  0  0  0  0
   57.5184   32.2181   41.5425 H   0  0  0  0  0  0  0  0  0  0  0  0
   58.5839   31.0565   42.4210 H   0  0  0  0  0  0  0  0  0  0  0  0
   58.2200   32.9080   43.4690 C   0  0  0  0  0  0  0  0  0  0  0  0
   57.6383   33.8155   43.2497 H   0  0  0  0  0  0  0  0  0  0  0  0
   59.2945   33.0792   43.3074 H   0  0  0  0  0  0  0  0  0  0  0  0
   58.0180   32.5380   44.9050 N   0  0  0  0  0  0  0  0  0  0  0  0
   57.6250   31.5690   44.9870 H   0  0  0  0  0  0  0  0  0  0  0  0
   59.3040   32.5510   45.6500 C   0  0  0  0  0  0  0  0  0  0  0  0
   59.9737   31.7948   45.2145 H   0  0  0  0  0  0  0  0  0  0  0  0
   59.0859   32.3311   46.7055 H   0  0  0  0  0  0  0  0  0  0  0  0
   59.9950   33.9190   45.5860 C   0  0  0  0  0  0  0  0  0  0  0  0
   60.1797   34.2846   46.6069 H   0  0  0  0  0  0  0  0  0  0  0  0
   60.9521   33.8217   45.0526 H   0  0  0  0  0  0  0  0  0  0  0  0
   59.3487   34.6316   45.0526 H   0  0  0  0  0  0  0  0  0  0  0  0
   57.0540   33.4530   45.5690 C   0  0  0  0  0  0  0  0  0  0  0  0
   57.2149   34.4725   45.1885 H   0  0  0  0  0  0  0  0  0  0  0  0
   56.0394   33.0939   45.3419 H   0  0  0  0  0  0  0  0  0  0  0  0
   57.2160   33.4650   47.0950 C   0  0  0  0  0  0  0  0  0  0  0  0
   56.2263   33.3917   47.5694 H   0  0  0  0  0  0  0  0  0  0  0  0
   57.8353   32.6103   47.4047 H   0  0  0  0  0  0  0  0  0  0  0  0
   57.7026   34.4017   47.4047 H   0  0  0  0  0  0  0  0  0  0  0  0
   58.2020   28.0630   44.1230 C   0  0  0  0  0  0  0  0  0  0  0  0
   58.3287   26.9974   43.8812 H   0  0  0  0  0  0  0  0  0  0  0  0
   58.9720   28.6170   45.2650 C   0  0  0  0  0  0  0  0  0  0  0  0
   58.3660   28.6500   46.5300 C   0  0  0  0  0  0  0  0  0  0  0  0
   57.3443   28.2618   46.6543 H   0  0  0  0  0  0  0  0  0  0  0  0
   59.0470   29.1710   47.6340 C   0  0  0  0  0  0  0  0  0  0  0  0
   58.5589   29.1890   48.6196 H   0  0  0  0  0  0  0  0  0  0  0  0
   60.3500   29.6710   47.4910 C   0  0  0  0  0  0  0  0  0  0  0  0
   61.0680   30.2690   48.6700 C   0  0  0  0  0  0  0  0  0  0  0  0
   60.3402   30.4906   49.4645 H   0  0  0  0  0  0  0  0  0  0  0  0
   61.8167   29.5512   49.0363 H   0  0  0  0  0  0  0  0  0  0  0  0
   61.7640   31.5410   48.2640 C   0  0  0  0  0  0  0  0  0  0  0  0
   61.2200   32.7890   48.6120 C   0  0  0  0  0  0  0  0  0  0  0  0
   60.2663   32.8378   49.1580 H   0  0  0  0  0  0  0  0  0  0  0  0
   61.8860   33.9690   48.2670 C   0  0  0  0  0  0  0  0  0  0  0  0
   61.4528   34.9436   48.5364 H   0  0  0  0  0  0  0  0  0  0  0  0
   63.1020   33.9110   47.5800 C   0  0  0  0  0  0  0  0  0  0  0  0
   63.6237   34.8399   47.3062 H   0  0  0  0  0  0  0  0  0  0  0  0
   63.6550   32.6730   47.2410 C   0  0  0  0  0  0  0  0  0  0  0  0
   64.6133   32.6285   46.7027 H   0  0  0  0  0  0  0  0  0  0  0  0
   62.9920   31.4910   47.5850 C   0  0  0  0  0  0  0  0  0  0  0  0
   63.4340   30.5185   47.3228 H   0  0  0  0  0  0  0  0  0  0  0  0
   60.9500   29.6680   46.2230 C   0  0  0  0  0  0  0  0  0  0  0  0
   61.9623   30.0795   46.0969 H   0  0  0  0  0  0  0  0  0  0  0  0
   60.2710   29.1460   45.1190 C   0  0  0  0  0  0  0  0  0  0  0  0
   60.7526   29.1477   44.1300 H   0  0  0  0  0  0  0  0  0  0  0  0
  1  2  1  0
  2  3  1  0
  3  4  2  0
  3  5  1  0
  5  6  1  0
  6  7  1  0
  6  8  1  0
  6  9  1  0
  9 10  1  0
  9 11  1  0
  9 12  1  0
 12 13  1  0
 12 14  1  0
 14 15  1  0
 14 16  1  0
 14 17  1  0
 17 18  1  0
 17 19  1  0
 17 20  1  0
 12 21  1  0
 21 22  1  0
 21 23  1  0
 21 24  1  0
 24 25  1  0
 24 26  1  0
 24 27  1  0
  2 28  2  0
 28 29  1  0
 28 30  1  0
 30 31  2  0
 31 32  1  0
 31 33  1  0
 33 34  1  0
 33 35  2  0
 35 36  1  0
 36 37  1  0
 36 38  1  0
 36 39  1  0
 39 40  2  0
 40 41  1  0
 40 42  1  0
 42 43  1  0
 42 44  2  0
 44 45  1  0
 44 46  1  0
 46 47  1  0
 46 48  2  0
 48 49  1  0
 35 50  1  0
 50 51  1  0
 50 52  2  0
 52 53  1  0
 52 30  1  0
 48 39  1  0
M  CHG  1  12   1
M  END
>  <UniqueID>  (33) 
33

>  <SMILES>  (33) 
CC[NH+](CC)CCOC(=O)/C=C/c1ccc(Cc2ccccc2)cc1

>  <Energy>  (33) 
52.41494705941952

>  <Genealogy>  (33) 
CC[NH+](CC)CCOC(=O)C=Cc1ccc(Cc2ccccc2)cc1 (protonated)
CC[NH+](CC)CCOC(=O)/C=C/c1ccc(Cc2ccccc2)cc1 (cis-trans isomerization)
CC[NH+](CC)CCOC(=O)/C=C/c1ccc(Cc2ccccc2)cc1 (3D coordinates assigned)
CC[NH+](CC)CCOC(=O)/C=C/c1ccc(Cc2ccccc2)cc1 (optimized conformer: 52.41494705941952 kcal/mol)

>  <smiles>  (33) 
CCN(CC)CCOC(=O)C=Cc1ccc(Cc2ccccc2)cc1

>  <score_type>  (33) 
oracle

>  <origin>  (33) 
adg

>  <m_score__min__energy>  (33) 
-6.5999999999999996

>  <m_primary>  (33) 
energy

$$$$
33:0
     RDKit          3D

 53 55  0  0  0  0  0  0  0  0999 V2000
   57.5340   34.0760   44.9160 C   0  0  0  0  0  0  0  0  0  0  0  0
   58.2390   34.5500   45.9460 C   0  0  0  0  0  0  0  0  0  0  0  0
   59.7330   34.7270   45.8740 C   0  0  0  0  0  0  0  0  0  0  0  0
   60.3580   34.4020   47.1750 N   0  0  0  0  0  0  0  0  0  0  0  0
   61.6250   33.6410   47.0250 C   0  0  0  0  0  0  0  0  0  0  0  0
   61.4420   32.1130   47.1370 C   0  0  0  0  0  0  0  0  0  0  0  0
   60.0770   31.7420   46.7370 N   0  0  0  0  0  0  0  0  0  0  0  0
   59.9050   30.2950   46.4830 C   0  0  0  0  0  0  0  0  0  0  0  0
   58.6600   29.9520   45.6890 C   0  0  0  0  0  0  0  0  0  0  0  0
   58.2550   30.7610   44.6150 C   0  0  0  0  0  0  0  0  0  0  0  0
   57.0990   30.4490   43.8930 C   0  0  0  0  0  0  0  0  0  0  0  0
   56.3430   29.3250   44.2320 C   0  0  0  0  0  0  0  0  0  0  0  0
   56.7390   28.5000   45.2890 C   0  0  0  0  0  0  0  0  0  0  0  0
   55.9400   27.3560   45.6220 N   0  0  0  0  0  0  0  0  0  0  0  0
   56.4420   26.1210   46.1480 C   0  0  0  0  0  0  0  0  0  0  0  0
   56.9470   26.1150   47.3020 O   0  0  0  0  0  0  0  0  0  0  0  0
   56.3440   24.8520   45.3930 C   0  0  0  0  0  0  0  0  0  0  0  0
   56.0980   23.6420   46.0600 C   0  0  0  0  0  0  0  0  0  0  0  0
   56.0380   22.4530   45.3330 C   0  0  0  0  0  0  0  0  0  0  0  0
   56.2160   22.4710   43.9400 C   0  0  0  0  0  0  0  0  0  0  0  0
   56.1710   21.3100   43.1540 O   0  0  0  0  0  0  0  0  0  0  0  0
   56.2520   19.9850   43.6710 C   0  0  0  0  0  0  0  0  0  0  0  0
   56.4550   23.6970   43.3130 C   0  0  0  0  0  0  0  0  0  0  0  0
   56.5240   24.8460   44.0390 N   0  0  0  0  0  0  0  0  0  0  0  0
   57.8830   28.8340   46.0350 C   0  0  0  0  0  0  0  0  0  0  0  0
   59.0680   32.2980   47.6620 C   0  0  0  0  0  0  0  0  0  0  0  0
   59.4280   33.7310   48.1090 C   0  0  0  0  0  0  0  0  0  0  0  0
   56.4437   33.9595   45.0030 H   0  0  0  0  0  0  0  0  0  0  0  0
   58.0435   33.8020   43.9804 H   0  0  0  0  0  0  0  0  0  0  0  0
   57.7135   34.8191   46.8741 H   0  0  0  0  0  0  0  0  0  0  0  0
   60.1395   34.0589   45.1005 H   0  0  0  0  0  0  0  0  0  0  0  0
   59.9549   35.7753   45.6255 H   0  0  0  0  0  0  0  0  0  0  0  0
   62.0533   33.8690   46.0378 H   0  0  0  0  0  0  0  0  0  0  0  0
   62.2868   33.9488   47.8480 H   0  0  0  0  0  0  0  0  0  0  0  0
   62.1647   31.6098   46.4779 H   0  0  0  0  0  0  0  0  0  0  0  0
   61.6108   31.8034   48.1789 H   0  0  0  0  0  0  0  0  0  0  0  0
   60.7816   29.9353   45.9242 H   0  0  0  0  0  0  0  0  0  0  0  0
   59.8001   29.8099   47.4647 H   0  0  0  0  0  0  0  0  0  0  0  0
   58.8501   31.6444   44.3404 H   0  0  0  0  0  0  0  0  0  0  0  0
   56.7845   31.0902   43.0564 H   0  0  0  0  0  0  0  0  0  0  0  0
   55.4312   29.0874   43.6645 H   0  0  0  0  0  0  0  0  0  0  0  0
   55.9533   23.6312   47.1504 H   0  0  0  0  0  0  0  0  0  0  0  0
   55.8512   21.5008   45.8510 H   0  0  0  0  0  0  0  0  0  0  0  0
   56.2499   20.0196   44.7705 H   0  0  0  0  0  0  0  0  0  0  0  0
   55.3879   19.4013   43.3209 H   0  0  0  0  0  0  0  0  0  0  0  0
   57.1808   19.5109   43.3209 H   0  0  0  0  0  0  0  0  0  0  0  0
   56.5887   23.7336   42.2218 H   0  0  0  0  0  0  0  0  0  0  0  0
   56.7070   25.7420   43.5330 H   0  0  0  0  0  0  0  0  0  0  0  0
   58.1720   28.2146   46.8969 H   0  0  0  0  0  0  0  0  0  0  0  0
   58.0923   32.3179   47.1544 H   0  0  0  0  0  0  0  0  0  0  0  0
   59.0353   31.6588   48.5566 H   0  0  0  0  0  0  0  0  0  0  0  0
   58.5032   34.3233   48.1713 H   0  0  0  0  0  0  0  0  0  0  0  0
   59.9306   33.6590   49.0848 H   0  0  0  0  0  0  0  0  0  0  0  0
  1  2  2  0
  2  3  1  0
  3  4  1  0
  4  5  1  0
  5  6  1  0
  6  7  1  0
  7  8  1  0
  8  9  1  0
  9 10  2  0
 10 11  1  0
 11 12  2  0
 12 13  1  0
 13 14  1  0
 14 15  1  0
 15 16  2  0
 15 17  1  0
 17 18  2  0
 18 19  1  0
 19 20  2  0
 20 21  1  0
 21 22  1  0
 20 23  1  0
 23 24  2  0
 13 25  2  0
  7 26  1  0
 26 27  1  0
 27  4  1  0
 25  9  1  0
 24 17  1  0
  1 28  1  0
  1 29  1  0
  2 30  1  0
  3 31  1  0
  3 32  1  0
  5 33  1  0
  5 34  1  0
  6 35  1  0
  6 36  1  0
  8 37  1  0
  8 38  1  0
 10 39  1  0
 11 40  1  0
 12 41  1  0
 18 42  1  0
 19 43  1  0
 22 44  1  0
 22 45  1  0
 22 46  1  0
 23 47  1  0
 24 48  1  0
 25 49  1  0
 26 50  1  0
 26 51  1  0
 27 52  1  0
 27 53  1  0
M  CHG  2  14  -1  24   1
M  END
>  <UniqueID>  (34) 
34

>  <SMILES>  (34) 
C=CCN1CCN(Cc2cccc([N-]C(=O)c3ccc(OC)c[nH+]3)c2)CC1

>  <Energy>  (34) 
68.99043878851113

>  <Genealogy>  (34) 
C=CCN1CCN(Cc2cccc([N-]C(=O)c3ccc(OC)c[nH+]3)c2)CC1 (protonated)
C=CCN1CCN(Cc2cccc([N-]C(=O)c3ccc(OC)c[nH+]3)c2)CC1 (3D coordinates assigned)
C=CCN1CCN(Cc2cccc([N-]C(=O)c3ccc(OC)c[nH+]3)c2)CC1 (nonaromatic ring conformer: 68.99043878851113 kcal/mol)

>  <smiles>  (34) 
C=CCN1CCN(Cc2cccc(NC(=O)c3ccc(OC)cn3)c2)CC1

>  <score_type>  (34) 
oracle

>  <origin>  (34) 
adg

>  <m_score__min__energy>  (34) 
-8.3499999999999996

>  <m_primary>  (34) 
energy

$$$$
34:0
     RDKit          3D

 67 70  0  0  0  0  0  0  0  0999 V2000
   60.0214   26.3652   45.4615 H   0  0  0  0  0  0  0  0  0  0  0  0
   59.5850   27.3560   45.6560 C   0  0  0  0  0  0  0  0  0  0  0  0
   60.1860   28.2060   46.5860 C   0  0  0  0  0  0  0  0  0  0  0  0
   61.0833   27.8722   47.1276 H   0  0  0  0  0  0  0  0  0  0  0  0
   59.6570   29.4840   46.8380 C   0  0  0  0  0  0  0  0  0  0  0  0
   60.2910   30.4160   47.8110 C   0  0  0  0  0  0  0  0  0  0  0  0
   59.6790   30.6400   49.0060 N   0  0  0  0  0  0  0  0  0  0  0  0
   60.1720   31.4860   49.9540 C   0  0  0  0  0  0  0  0  0  0  0  0
   59.5240   31.6540   51.0720 N   0  0  0  0  0  0  0  0  0  0  0  0
   58.2550   32.3700   51.2170 C   0  0  0  0  0  0  0  0  0  0  0  0
   57.9837   32.8345   50.2575 H   0  0  0  0  0  0  0  0  0  0  0  0
   58.3850   33.4810   52.2630 C   0  0  0  0  0  0  0  0  0  0  0  0
   58.3338   33.0434   53.2709 H   0  0  0  0  0  0  0  0  0  0  0  0
   59.3493   33.9944   52.1347 H   0  0  0  0  0  0  0  0  0  0  0  0
   57.5652   34.2032   52.1347 H   0  0  0  0  0  0  0  0  0  0  0  0
   57.1700   31.3760   51.6310 C   0  0  0  0  0  0  0  0  0  0  0  0
   57.1169   31.3273   52.7286 H   0  0  0  0  0  0  0  0  0  0  0  0
   56.1995   31.7050   51.2311 H   0  0  0  0  0  0  0  0  0  0  0  0
   57.4129   30.3805   51.2311 H   0  0  0  0  0  0  0  0  0  0  0  0
   61.3880   32.1720   49.7070 C   0  0  0  0  0  0  0  0  0  0  0  0
   61.9950   33.0680   50.6210 C   0  0  0  0  0  0  0  0  0  0  0  0
   61.4600   33.2970   51.7420 O   0  0  0  0  0  0  0  0  0  0  0  0
   63.1710   33.6910   50.2930 N   0  0  0  0  0  0  0  0  0  0  0  0
   63.8040   34.6170   51.2400 C   0  0  0  0  0  0  0  0  0  0  0  0
   63.5846   34.2960   52.2690 H   0  0  0  0  0  0  0  0  0  0  0  0
   64.8923   34.6176   51.0803 H   0  0  0  0  0  0  0  0  0  0  0  0
   63.4094   35.6313   51.0803 H   0  0  0  0  0  0  0  0  0  0  0  0
   63.7600   33.4560   49.0840 C   0  0  0  0  0  0  0  0  0  0  0  0
   64.7028   33.9620   48.8290 H   0  0  0  0  0  0  0  0  0  0  0  0
   63.1930   32.6050   48.1960 N   0  0  0  0  0  0  0  0  0  0  0  0
   62.0340   31.9610   48.4730 C   0  0  0  0  0  0  0  0  0  0  0  0
   61.4850   31.0950   47.5260 C   0  0  0  0  0  0  0  0  0  0  0  0
   61.9872   30.9453   46.5588 H   0  0  0  0  0  0  0  0  0  0  0  0
   58.4870   29.8730   46.1610 C   0  0  0  0  0  0  0  0  0  0  0  0
   58.0553   30.8662   46.3541 H   0  0  0  0  0  0  0  0  0  0  0  0
   57.8610   29.0150   45.2430 C   0  0  0  0  0  0  0  0  0  0  0  0
   56.6280   29.4930   44.5180 C   0  0  0  0  0  0  0  0  0  0  0  0
   56.6985   29.2190   43.4550 H   0  0  0  0  0  0  0  0  0  0  0  0
   55.7375   29.0223   44.9601 H   0  0  0  0  0  0  0  0  0  0  0  0
   56.5220   30.9510   44.6410 N   0  0  0  0  0  0  0  0  0  0  0  0
   56.7700   31.2330   45.6190 H   0  0  0  0  0  0  0  0  0  0  0  0
   57.3900   31.6550   43.6850 C   0  0  0  0  0  0  0  0  0  0  0  0
   58.2550   31.0149   43.4567 H   0  0  0  0  0  0  0  0  0  0  0  0
   56.7932   31.8659   42.7853 H   0  0  0  0  0  0  0  0  0  0  0  0
   57.9030   33.0020   44.2320 C   0  0  0  0  0  0  0  0  0  0  0  0
   58.5931   33.4471   43.5001 H   0  0  0  0  0  0  0  0  0  0  0  0
   57.0387   33.6612   44.4009 H   0  0  0  0  0  0  0  0  0  0  0  0
   58.6130   32.8220   45.5170 N   0  0  0  0  0  0  0  0  0  0  0  0
   59.8590   33.6260   45.5720 C   0  0  0  0  0  0  0  0  0  0  0  0
   60.6546   33.0180   46.0274 H   0  0  0  0  0  0  0  0  0  0  0  0
   60.1216   33.9181   44.5445 H   0  0  0  0  0  0  0  0  0  0  0  0
   59.6780   34.9100   46.4010 C   0  0  0  0  0  0  0  0  0  0  0  0
   60.6304   35.4604   46.4024 H   0  0  0  0  0  0  0  0  0  0  0  0
   58.8643   35.4842   45.9338 H   0  0  0  0  0  0  0  0  0  0  0  0
   59.2970   34.6670   47.7490 O   0  0  0  0  0  0  0  0  0  0  0  0
   58.5290   33.4830   47.9200 C   0  0  0  0  0  0  0  0  0  0  0  0
   59.2132   32.6588   48.1702 H   0  0  0  0  0  0  0  0  0  0  0  0
   57.8027   33.6849   48.7211 H   0  0  0  0  0  0  0  0  0  0  0  0
   57.7220   33.0820   46.6740 C   0  0  0  0  0  0  0  0  0  0  0  0
   57.1481   32.1703   46.8966 H   0  0  0  0  0  0  0  0  0  0  0  0
   57.0480   33.9117   46.4143 H   0  0  0  0  0  0  0  0  0  0  0  0
   58.4260   27.7550   44.9650 C   0  0  0  0  0  0  0  0  0  0  0  0
   57.8160   26.9280   44.0060 O   0  0  0  0  0  0  0  0  0  0  0  0
   58.1380   26.9240   42.6200 C   0  0  0  0  0  0  0  0  0  0  0  0
   59.2311   26.9104   42.4976 H   0  0  0  0  0  0  0  0  0  0  0  0
   57.7048   26.0312   42.1455 H   0  0  0  0  0  0  0  0  0  0  0  0
   57.7271   27.8273   42.1455 H   0  0  0  0  0  0  0  0  0  0  0  0
  1  2  1  0
  2  3  2  0
  3  4  1  0
  3  5  1  0
  5  6  1  0
  6  7  1  0
  7  8  1  0
  8  9  2  0
  9 10  1  0
 10 11  1  0
 10 12  1  0
 12 13  1  0
 12 14  1  0
 12 15  1  0
 10 16  1  0
 16 17  1  0
 16 18  1  0
 16 19  1  0
  8 20  1  0
 20 21  1  0
 21 22  2  0
 21 23  1  0
 23 24  1  0
 24 25  1  0
 24 26  1  0
 24 27  1  0
 23 28  1  0
 28 29  1  0
 28 30  2  0
 30 31  1  0
 31 32  1  0
 32 33  1  0
  5 34  2  0
 34 35  1  0
 34 36  1  0
 36 37  1  0
 37 38  1  0
 37 39  1  0
 37 40  1  0
 40 41  1  0
 40 42  1  0
 42 43  1  0
 42 44  1  0
 42 45  1  0
 45 46  1  0
 45 47  1  0
 45 48  1  0
 48 49  1  0
 49 50  1  0
 49 51  1  0
 49 52  1  0
 52 53  1  0
 52 54  1  0
 52 55  1  0
 55 56  1  0
 56 57  1  0
 56 58  1  0
 56 59  1  0
 59 60  1  0
 59 61  1  0
 36 62  2  0
 62 63  1  0
 63 64  1  0
 64 65  1  0
 64 66  1  0
 64 67  1  0
 62  2  1  0
 32  6  2  0
 59 48  1  0
 31 20  2  0
M  CHG  1   7  -1
M  END
>  <UniqueID>  (35) 
35

>  <SMILES>  (35) 
COc1ccc(-c2cc3ncn(C)c(=O)c3/c(=N/C(C)C)[n-]2)cc1CNCCN1CCOCC1

>  <Energy>  (35) 
90.45589610244643

>  <Genealogy>  (35) 
COc1ccc(-c2cc3ncn(C)c(=O)c3c(=NC(C)C)[n-]2)cc1CNCCN1CCOCC1 (protonated)
COc1ccc(-c2cc3ncn(C)c(=O)c3/c(=N/C(C)C)[n-]2)cc1CNCCN1CCOCC1 (cis-trans isomerization)
COc1ccc(-c2cc3ncn(C)c(=O)c3/c(=N/C(C)C)[n-]2)cc1CNCCN1CCOCC1 (3D coordinates assigned)
COc1ccc(-c2cc3ncn(C)c(=O)c3/c(=N/C(C)C)[n-]2)cc1CNCCN1CCOCC1 (nonaromatic ring conformer: 90.45589610244643 kcal/mol)

>  <smiles>  (35) 
COc1ccc(-c2cc3ncn(C)c(=O)c3c(=NC(C)C)[nH]2)cc1CNCCN1CCOCC1

>  <score_type>  (35) 
oracle

>  <origin>  (35) 
adg

>  <m_score__min__energy>  (35) 
-9.6500000000000004

>  <m_primary>  (35) 
energy

$$$$
35:0
     RDKit          3D

 42 44  0  0  0  0  0  0  0  0999 V2000
   60.3040   26.7840   48.5820 C   0  0  0  0  0  0  0  0  0  0  0  0
   59.5000   27.7140   47.7480 N   0  0  0  0  0  0  0  0  0  0  0  0
   58.2210   27.0380   47.4180 C   0  0  0  0  0  0  0  0  0  0  0  0
   59.2300   28.9330   48.5470 C   0  0  0  0  0  0  0  0  0  0  0  0
   60.2940   28.0230   46.5180 C   0  0  0  0  0  0  0  0  0  0  0  0
   59.5010   28.4750   45.2600 C   0  0  0  0  0  0  0  0  0  0  0  0
   58.9030   29.8190   45.3880 N   0  0  0  0  0  0  0  0  0  0  0  0
   57.6500   30.0370   44.8640 C   0  0  0  0  0  0  0  0  0  0  0  0
   57.0590   31.2610   44.9450 N   0  0  0  0  0  0  0  0  0  0  0  0
   57.7310   32.2760   45.5310 C   0  0  0  0  0  0  0  0  0  0  0  0
   57.1840   33.8430   45.7550 S   0  0  0  0  0  0  0  0  0  0  0  0
   58.5960   34.3750   46.5200 C   0  0  0  0  0  0  0  0  0  0  0  0
   59.5080   33.3180   46.5910 C   0  0  0  0  0  0  0  0  0  0  0  0
   60.8410   33.4730   47.1990 C   0  0  0  0  0  0  0  0  0  0  0  0
   61.9510   33.6890   46.3680 C   0  0  0  0  0  0  0  0  0  0  0  0
   63.2250   33.8450   46.9200 C   0  0  0  0  0  0  0  0  0  0  0  0
   63.4010   33.7770   48.3030 C   0  0  0  0  0  0  0  0  0  0  0  0
   62.3040   33.5490   49.1390 C   0  0  0  0  0  0  0  0  0  0  0  0
   61.0230   33.3940   48.5950 C   0  0  0  0  0  0  0  0  0  0  0  0
   59.5610   33.0420   49.7870 Br  0  0  0  0  0  0  0  0  0  0  0  0
   59.0020   32.1250   46.0340 C   0  0  0  0  0  0  0  0  0  0  0  0
   59.6030   30.8610   45.9580 C   0  0  0  0  0  0  0  0  0  0  0  0
   60.7630   30.6830   46.4210 O   0  0  0  0  0  0  0  0  0  0  0  0
   60.1217   26.9949   49.6461 H   0  0  0  0  0  0  0  0  0  0  0  0
   60.0134   25.7468   48.3587 H   0  0  0  0  0  0  0  0  0  0  0  0
   61.3723   26.9216   48.3587 H   0  0  0  0  0  0  0  0  0  0  0  0
   57.7010   26.7632   48.3476 H   0  0  0  0  0  0  0  0  0  0  0  0
   57.5872   27.7189   46.8309 H   0  0  0  0  0  0  0  0  0  0  0  0
   58.4266   26.1308   46.8309 H   0  0  0  0  0  0  0  0  0  0  0  0
   59.2841   28.6887   49.6182 H   0  0  0  0  0  0  0  0  0  0  0  0
   59.9797   29.7017   48.3079 H   0  0  0  0  0  0  0  0  0  0  0  0
   58.2259   29.3132   48.3079 H   0  0  0  0  0  0  0  0  0  0  0  0
   60.9995   28.8278   46.7722 H   0  0  0  0  0  0  0  0  0  0  0  0
   60.7612   27.0688   46.2330 H   0  0  0  0  0  0  0  0  0  0  0  0
   60.1870   28.4803   44.4001 H   0  0  0  0  0  0  0  0  0  0  0  0
   58.6714   27.7645   45.1298 H   0  0  0  0  0  0  0  0  0  0  0  0
   57.1173   29.2099   44.3720 H   0  0  0  0  0  0  0  0  0  0  0  0
   58.7691   35.3922   46.9014 H   0  0  0  0  0  0  0  0  0  0  0  0
   61.8175   33.7357   45.2771 H   0  0  0  0  0  0  0  0  0  0  0  0
   64.0902   34.0216   46.2640 H   0  0  0  0  0  0  0  0  0  0  0  0
   64.4044   33.9030   48.7357 H   0  0  0  0  0  0  0  0  0  0  0  0
   62.4476   33.4911   50.2281 H   0  0  0  0  0  0  0  0  0  0  0  0
  1  2  1  0
  2  3  1  0
  2  4  1  0
  2  5  1  0
  5  6  1  0
  6  7  1  0
  7  8  1  0
  8  9  2  0
  9 10  1  0
 10 11  1  0
 11 12  1  0
 12 13  2  0
 13 14  1  0
 14 15  2  0
 15 16  1  0
 16 17  2  0
 17 18  1  0
 18 19  2  0
 19 20  1  0
 13 21  1  0
 21 22  1  0
 22 23  2  0
 22  7  1  0
 21 10  2  0
 19 14  1  0
  1 24  1  0
  1 25  1  0
  1 26  1  0
  3 27  1  0
  3 28  1  0
  3 29  1  0
  4 30  1  0
  4 31  1  0
  4 32  1  0
  5 33  1  0
  5 34  1  0
  6 35  1  0
  6 36  1  0
  8 37  1  0
 12 38  1  0
 15 39  1  0
 16 40  1  0
 17 41  1  0
 18 42  1  0
M  CHG  1   2   1
M  END
>  <UniqueID>  (36) 
36

>  <SMILES>  (36) 
C[N+](C)(C)CCn1cnc2scc(-c3ccccc3Br)c2c1=O

>  <Energy>  (36) 
95.94610709600529

>  <Genealogy>  (36) 
C[N+](C)(C)CCn1cnc2scc(-c3ccccc3Br)c2c1=O (3D coordinates assigned)
C[N+](C)(C)CCn1cnc2scc(-c3ccccc3Br)c2c1=O (optimized conformer: 95.94610709600529 kcal/mol)

>  <smiles>  (36) 
C[N+](C)(C)CCn1cnc2scc(-c3ccccc3Br)c2c1=O

>  <score_type>  (36) 
oracle

>  <origin>  (36) 
adg

>  <m_score__min__energy>  (36) 
-6.1100000000000003

>  <m_primary>  (36) 
energy

$$$$
36:0
     RDKit          3D

 45 47  0  0  0  0  0  0  0  0999 V2000
   63.3220   33.8380   46.4160 C   0  0  0  0  0  0  0  0  0  0  0  0
   62.5580   33.8040   47.7330 C   0  0  0  0  0  0  0  0  0  0  0  0
   61.6620   32.6470   47.7730 N   0  0  0  0  0  0  0  0  0  0  0  0
   62.0030   31.3880   47.4520 C   0  0  0  0  0  0  0  0  0  0  0  0
   60.8710   30.6080   47.5030 C   0  0  0  0  0  0  0  0  0  0  0  0
   59.8130   31.3710   47.8420 N   0  0  0  0  0  0  0  0  0  0  0  0
   60.3260   32.6110   47.9980 C   0  0  0  0  0  0  0  0  0  0  0  0
   59.4740   33.7960   48.3900 C   0  0  0  0  0  0  0  0  0  0  0  0
   58.6430   34.3140   47.2800 N   0  0  0  0  0  0  0  0  0  0  0  0
   57.6560   33.3270   46.7910 C   0  0  0  0  0  0  0  0  0  0  0  0
   57.0830   33.7470   45.4330 C   0  0  0  0  0  0  0  0  0  0  0  0
   58.1420   33.8390   44.4010 N   0  0  0  0  0  0  0  0  0  0  0  0
   58.1410   32.7260   43.4230 C   0  0  0  0  0  0  0  0  0  0  0  0
   57.6450   31.4070   43.9870 C   0  0  0  0  0  0  0  0  0  0  0  0
   56.4340   30.8440   43.5390 C   0  0  0  0  0  0  0  0  0  0  0  0
   55.9640   29.6500   44.0920 C   0  0  0  0  0  0  0  0  0  0  0  0
   56.7060   28.9920   45.0780 C   0  0  0  0  0  0  0  0  0  0  0  0
   56.2440   27.8380   45.6170 F   0  0  0  0  0  0  0  0  0  0  0  0
   57.9270   29.5220   45.4990 C   0  0  0  0  0  0  0  0  0  0  0  0
   58.3980   30.7190   44.9540 C   0  0  0  0  0  0  0  0  0  0  0  0
   59.4890   34.1670   44.9220 C   0  0  0  0  0  0  0  0  0  0  0  0
   59.4130   35.0000   46.2120 C   0  0  0  0  0  0  0  0  0  0  0  0
   64.4019   33.8861   46.6197 H   0  0  0  0  0  0  0  0  0  0  0  0
   63.0979   32.9290   45.8385 H   0  0  0  0  0  0  0  0  0  0  0  0
   63.0180   34.7235   45.8385 H   0  0  0  0  0  0  0  0  0  0  0  0
   63.2737   33.7372   48.5657 H   0  0  0  0  0  0  0  0  0  0  0  0
   61.9593   34.7225   47.8222 H   0  0  0  0  0  0  0  0  0  0  0  0
   63.0139   31.0404   47.1928 H   0  0  0  0  0  0  0  0  0  0  0  0
   60.8349   29.5278   47.2986 H   0  0  0  0  0  0  0  0  0  0  0  0
   58.8086   33.4909   49.2110 H   0  0  0  0  0  0  0  0  0  0  0  0
   60.1582   34.6039   48.6885 H   0  0  0  0  0  0  0  0  0  0  0  0
   58.1477   32.3486   46.6865 H   0  0  0  0  0  0  0  0  0  0  0  0
   56.8307   33.2692   47.5160 H   0  0  0  0  0  0  0  0  0  0  0  0
   56.3373   33.0037   45.1145 H   0  0  0  0  0  0  0  0  0  0  0  0
   56.6234   34.7401   45.5449 H   0  0  0  0  0  0  0  0  0  0  0  0
   57.4925   33.0072   42.5801 H   0  0  0  0  0  0  0  0  0  0  0  0
   59.1866   32.5686   43.1199 H   0  0  0  0  0  0  0  0  0  0  0  0
   55.8555   31.3468   42.7500 H   0  0  0  0  0  0  0  0  0  0  0  0
   55.0078   29.2265   43.7509 H   0  0  0  0  0  0  0  0  0  0  0  0
   58.5197   28.9958   46.2618 H   0  0  0  0  0  0  0  0  0  0  0  0
   59.3652   31.1260   45.2841 H   0  0  0  0  0  0  0  0  0  0  0  0
   60.0270   33.2311   45.1333 H   0  0  0  0  0  0  0  0  0  0  0  0
   60.0155   34.7614   44.1608 H   0  0  0  0  0  0  0  0  0  0  0  0
   60.4349   35.1842   46.5751 H   0  0  0  0  0  0  0  0  0  0  0  0
   58.8955   35.9414   45.9752 H   0  0  0  0  0  0  0  0  0  0  0  0
  1  2  1  0
  2  3  1  0
  3  4  1  0
  4  5  2  0
  5  6  1  0
  6  7  2  0
  7  8  1  0
  8  9  1  0
  9 10  1  0
 10 11  1  0
 11 12  1  0
 12 13  1  0
 13 14  1  0
 14 15  2  0
 15 16  1  0
 16 17  2  0
 17 18  1  0
 17 19  1  0
 19 20  2  0
 12 21  1  0
 21 22  1  0
  7  3  1  0
 22  9  1  0
 20 14  1  0
  1 23  1  0
  1 24  1  0
  1 25  1  0
  2 26  1  0
  2 27  1  0
  4 28  1  0
  5 29  1  0
  8 30  1  0
  8 31  1  0
 10 32  1  0
 10 33  1  0
 11 34  1  0
 11 35  1  0
 13 36  1  0
 13 37  1  0
 15 38  1  0
 16 39  1  0
 19 40  1  0
 20 41  1  0
 21 42  1  0
 21 43  1  0
 22 44  1  0
 22 45  1  0
M  END
>  <UniqueID>  (37) 
37

>  <SMILES>  (37) 
CCn1ccnc1CN1CCN(Cc2ccc(F)cc2)CC1

>  <Energy>  (37) 
85.13449895570909

>  <Genealogy>  (37) 
CCn1ccnc1CN1CCN(Cc2ccc(F)cc2)CC1 (3D coordinates assigned)
CCn1ccnc1CN1CCN(Cc2ccc(F)cc2)CC1 (nonaromatic ring conformer: 85.13449895570909 kcal/mol)

>  <smiles>  (37) 
CCn1ccnc1CN1CCN(Cc2ccc(F)cc2)CC1

>  <score_type>  (37) 
oracle

>  <origin>  (37) 
adg

>  <m_score__min__energy>  (37) 
-7.1200000000000001

>  <m_primary>  (37) 
energy

$$$$
37:0
     RDKit          3D

 50 53  0  0  0  0  0  0  0  0999 V2000
   60.6710   34.2210   46.0370 C   0  0  0  0  0  0  0  0  0  0  0  0
   59.2910   34.7490   45.6580 C   0  0  0  0  0  0  0  0  0  0  0  0
   58.2320   34.3180   46.6780 C   0  0  0  0  0  0  0  0  0  0  0  0
   58.4800   32.9310   47.1200 N   0  0  0  0  0  0  0  0  0  0  0  0
   58.1210   31.8530   46.3200 C   0  0  0  0  0  0  0  0  0  0  0  0
   57.3150   32.0700   44.7250 S   0  0  0  0  0  0  0  0  0  0  0  0
   57.8810   30.4720   44.0340 C   0  0  0  0  0  0  0  0  0  0  0  0
   56.9730   29.3280   44.4320 C   0  0  0  0  0  0  0  0  0  0  0  0
   55.8640   29.5960   44.8730 O   0  0  0  0  0  0  0  0  0  0  0  0
   57.3850   27.9310   44.3530 N   0  0  0  0  0  0  0  0  0  0  0  0
   57.1430   27.1750   45.6140 C   0  0  0  0  0  0  0  0  0  0  0  0
   58.4400   26.6740   46.2620 C   0  0  0  0  0  0  0  0  0  0  0  0
   59.4110   27.6910   46.2320 O   0  0  0  0  0  0  0  0  0  0  0  0
   59.8590   27.9140   44.9070 C   0  0  0  0  0  0  0  0  0  0  0  0
   58.7590   27.7870   43.8220 C   0  0  0  0  0  0  0  0  0  0  0  0
   58.3910   30.5730   46.7130 N   0  0  0  0  0  0  0  0  0  0  0  0
   59.0030   30.3630   47.8980 C   0  0  0  0  0  0  0  0  0  0  0  0
   59.3160   29.1620   48.4240 N   0  0  0  0  0  0  0  0  0  0  0  0
   59.9020   29.4580   49.6050 C   0  0  0  0  0  0  0  0  0  0  0  0
   60.4060   28.5580   50.5430 C   0  0  0  0  0  0  0  0  0  0  0  0
   60.9760   29.0810   51.7180 C   0  0  0  0  0  0  0  0  0  0  0  0
   61.0300   30.4770   51.9310 C   0  0  0  0  0  0  0  0  0  0  0  0
   60.5150   31.3680   50.9720 C   0  0  0  0  0  0  0  0  0  0  0  0
   59.9560   30.8230   49.8170 C   0  0  0  0  0  0  0  0  0  0  0  0
   59.3720   31.3990   48.7080 C   0  0  0  0  0  0  0  0  0  0  0  0
   59.1240   32.7090   48.3210 C   0  0  0  0  0  0  0  0  0  0  0  0
   59.4860   33.6670   49.0580 O   0  0  0  0  0  0  0  0  0  0  0  0
   60.7621   34.1862   47.1327 H   0  0  0  0  0  0  0  0  0  0  0  0
   60.8021   33.2092   45.6258 H   0  0  0  0  0  0  0  0  0  0  0  0
   61.4440   34.8869   45.6258 H   0  0  0  0  0  0  0  0  0  0  0  0
   59.3256   35.8478   45.6196 H   0  0  0  0  0  0  0  0  0  0  0  0
   59.0175   34.3344   44.6765 H   0  0  0  0  0  0  0  0  0  0  0  0
   58.2727   34.9890   47.5487 H   0  0  0  0  0  0  0  0  0  0  0  0
   57.2393   34.3712   46.2070 H   0  0  0  0  0  0  0  0  0  0  0  0
   57.8986   30.5460   42.9366 H   0  0  0  0  0  0  0  0  0  0  0  0
   58.8840   30.2648   44.4353 H   0  0  0  0  0  0  0  0  0  0  0  0
   56.7640   27.4890   43.6310 H   0  0  0  0  0  0  0  0  0  0  0  0
   56.6258   27.8348   46.3262 H   0  0  0  0  0  0  0  0  0  0  0  0
   56.5356   26.2933   45.3615 H   0  0  0  0  0  0  0  0  0  0  0  0
   58.2407   26.3900   47.3059 H   0  0  0  0  0  0  0  0  0  0  0  0
   58.8109   25.8011   45.7048 H   0  0  0  0  0  0  0  0  0  0  0  0
   60.2779   28.9297   44.8532 H   0  0  0  0  0  0  0  0  0  0  0  0
   60.5992   27.1291   44.6928 H   0  0  0  0  0  0  0  0  0  0  0  0
   58.9237   28.5691   43.0663 H   0  0  0  0  0  0  0  0  0  0  0  0
   58.8375   26.7745   43.3993 H   0  0  0  0  0  0  0  0  0  0  0  0
   59.1410   28.2170   48.0120 H   0  0  0  0  0  0  0  0  0  0  0  0
   60.3594   27.4727   50.3697 H   0  0  0  0  0  0  0  0  0  0  0  0
   61.3832   28.3974   52.4775 H   0  0  0  0  0  0  0  0  0  0  0  0
   61.4788   30.8704   52.8550 H   0  0  0  0  0  0  0  0  0  0  0  0
   60.5520   32.4563   51.1279 H   0  0  0  0  0  0  0  0  0  0  0  0
  1  2  1  0
  2  3  1  0
  3  4  1  0
  4  5  1  0
  5  6  1  0
  6  7  1  0
  7  8  1  0
  8  9  2  0
  8 10  1  0
 10 11  1  0
 11 12  1  0
 12 13  1  0
 13 14  1  0
 14 15  1  0
  5 16  2  0
 16 17  1  0
 17 18  1  0
 18 19  1  0
 19 20  2  0
 20 21  1  0
 21 22  2  0
 22 23  1  0
 23 24  2  0
 24 25  1  0
 25 26  1  0
 26 27  2  0
 26  4  1  0
 15 10  1  0
 25 17  2  0
 24 19  1  0
  1 28  1  0
  1 29  1  0
  1 30  1  0
  2 31  1  0
  2 32  1  0
  3 33  1  0
  3 34  1  0
  7 35  1  0
  7 36  1  0
 10 37  1  0
 11 38  1  0
 11 39  1  0
 12 40  1  0
 12 41  1  0
 14 42  1  0
 14 43  1  0
 15 44  1  0
 15 45  1  0
 18 46  1  0
 20 47  1  0
 21 48  1  0
 22 49  1  0
 23 50  1  0
M  CHG  1  10   1
M  END
>  <UniqueID>  (38) 
38

>  <SMILES>  (38) 
CCCn1c(SCC(=O)[NH+]2CCOCC2)nc2[nH]c3ccccc3c2c1=O

>  <Energy>  (38) 
105.63174596291957

>  <Genealogy>  (38) 
CCCn1c(SCC(=O)[NH+]2CCOCC2)nc2[nH]c3ccccc3c2c1=O (protonated)
CCCn1c(SCC(=O)[NH+]2CCOCC2)nc2[nH]c3ccccc3c2c1=O (3D coordinates assigned)
CCCn1c(SCC(=O)[NH+]2CCOCC2)nc2[nH]c3ccccc3c2c1=O (nonaromatic ring conformer: 105.63174596291957 kcal/mol)

>  <smiles>  (38) 
CCCn1c(SCC(=O)N2CCOCC2)nc2[nH]c3ccccc3c2c1=O

>  <score_type>  (38) 
oracle

>  <origin>  (38) 
adg

>  <m_score__min__energy>  (38) 
-6.1900000000000004

>  <m_primary>  (38) 
energy

$$$$
38:0
     RDKit          3D

 30 32  0  0  0  0  0  0  0  0999 V2000
   63.6240   33.4760   46.7960 C   0  0  0  0  0  0  0  0  0  0  0  0
   62.3080   33.8280   47.4800 C   0  0  0  0  0  0  0  0  0  0  0  0
   61.2830   32.8440   47.1420 N   0  0  0  0  0  0  0  0  0  0  0  0
   61.3200   31.5160   47.4030 C   0  0  0  0  0  0  0  0  0  0  0  0
   60.1830   30.8870   46.8990 C   0  0  0  0  0  0  0  0  0  0  0  0
   59.4480   31.8890   46.2890 C   0  0  0  0  0  0  0  0  0  0  0  0
   58.2120   31.9110   45.6350 C   0  0  0  0  0  0  0  0  0  0  0  0
   57.4300   30.7300   45.4080 N   0  0  0  0  0  0  0  0  0  0  0  0
   57.6090   29.5180   45.9690 C   0  0  0  0  0  0  0  0  0  0  0  0
   56.6860   28.6540   45.4180 C   0  0  0  0  0  0  0  0  0  0  0  0
   56.5190   27.2250   45.7110 C   0  0  0  0  0  0  0  0  0  0  0  0
   55.2250   26.6960   45.9840 N   0  0  0  0  0  0  0  0  0  0  0  0
   57.5210   26.4610   45.7200 O   0  0  0  0  0  0  0  0  0  0  0  0
   55.9750   29.4120   44.5070 C   0  0  0  0  0  0  0  0  0  0  0  0
   56.4550   30.6700   44.5120 N   0  0  0  0  0  0  0  0  0  0  0  0
   57.7440   33.1250   45.2170 N   0  0  0  0  0  0  0  0  0  0  0  0
   58.4590   34.2770   45.4030 C   0  0  0  0  0  0  0  0  0  0  0  0
   59.6700   34.2470   46.0320 N   0  0  0  0  0  0  0  0  0  0  0  0
   60.1420   33.0520   46.4640 C   0  0  0  0  0  0  0  0  0  0  0  0
   64.3901   33.2711   47.5583 H   0  0  0  0  0  0  0  0  0  0  0  0
   63.4837   32.5838   46.1681 H   0  0  0  0  0  0  0  0  0  0  0  0
   63.9478   34.3191   46.1681 H   0  0  0  0  0  0  0  0  0  0  0  0
   62.4566   33.8377   48.5699 H   0  0  0  0  0  0  0  0  0  0  0  0
   61.9796   34.8199   47.1360 H   0  0  0  0  0  0  0  0  0  0  0  0
   62.1338   31.0048   47.9381 H   0  0  0  0  0  0  0  0  0  0  0  0
   59.9244   29.8202   46.9707 H   0  0  0  0  0  0  0  0  0  0  0  0
   58.3591   29.2627   46.7320 H   0  0  0  0  0  0  0  0  0  0  0  0
   54.6330   27.0930   46.7470 H   0  0  0  0  0  0  0  0  0  0  0  0
   55.1495   29.0463   43.8787 H   0  0  0  0  0  0  0  0  0  0  0  0
   58.0546   35.2345   45.0428 H   0  0  0  0  0  0  0  0  0  0  0  0
  1  2  1  0
  2  3  1  0
  3  4  1  0
  4  5  2  0
  5  6  1  0
  6  7  2  0
  7  8  1  0
  8  9  1  0
  9 10  2  0
 10 11  1  0
 11 12  1  0
 11 13  2  0
 10 14  1  0
 14 15  2  0
  7 16  1  0
 16 17  2  0
 17 18  1  0
 18 19  2  0
 19  3  1  0
 19  6  1  0
 15  8  1  0
  1 20  1  0
  1 21  1  0
  1 22  1  0
  2 23  1  0
  2 24  1  0
  4 25  1  0
  5 26  1  0
  9 27  1  0
 12 28  1  0
 14 29  1  0
 17 30  1  0
M  CHG  1  12  -1
M  END
>  <UniqueID>  (39) 
39

>  <SMILES>  (39) 
CCn1ccc2c(-n3cc(C([NH-])=O)cn3)ncnc21

>  <Energy>  (39) 
97.69697369852035

>  <Genealogy>  (39) 
CCn1ccc2c(-n3cc(C([NH-])=O)cn3)ncnc21 (protonated)
CCn1ccc2c(-n3cc(C([NH-])=O)cn3)ncnc21 (3D coordinates assigned)
CCn1ccc2c(-n3cc(C([NH-])=O)cn3)ncnc21 (optimized conformer: 97.69697369852035 kcal/mol)

>  <smiles>  (39) 
CCn1ccc2c(-n3cc(C(N)=O)cn3)ncnc21

>  <score_type>  (39) 
oracle

>  <origin>  (39) 
adg

>  <m_score__min__energy>  (39) 
-9.6199999999999992

>  <m_primary>  (39) 
energy

$$$$
39:0
     RDKit          3D

 44 47  0  0  0  0  0  0  0  0999 V2000
   56.3030   23.0610   42.9930 C   0  0  0  0  0  0  0  0  0  0  0  0
   57.2770   23.4080   44.0410 N   0  0  0  0  0  0  0  0  0  0  0  0
   58.2280   22.3090   44.2690 C   0  0  0  0  0  0  0  0  0  0  0  0
   56.6390   23.8890   45.2870 C   0  0  0  0  0  0  0  0  0  0  0  0
   56.6750   25.4230   45.4720 C   0  0  0  0  0  0  0  0  0  0  0  0
   57.4180   26.0560   44.3740 N   0  0  0  0  0  0  0  0  0  0  0  0
   58.0880   27.2430   44.8500 C   0  0  0  0  0  0  0  0  0  0  0  0
   59.3260   27.1480   45.4960 C   0  0  0  0  0  0  0  0  0  0  0  0
   59.9620   28.2890   45.9850 C   0  0  0  0  0  0  0  0  0  0  0  0
   59.3720   29.5670   45.8500 C   0  0  0  0  0  0  0  0  0  0  0  0
   58.1120   29.6580   45.2130 C   0  0  0  0  0  0  0  0  0  0  0  0
   57.4810   28.5000   44.7230 C   0  0  0  0  0  0  0  0  0  0  0  0
   57.4550   30.9730   45.0670 C   0  0  0  0  0  0  0  0  0  0  0  0
   56.3310   31.0650   44.5010 O   0  0  0  0  0  0  0  0  0  0  0  0
   58.1220   32.1810   45.5910 C   0  0  0  0  0  0  0  0  0  0  0  0
   57.5120   33.4430   45.4680 C   0  0  0  0  0  0  0  0  0  0  0  0
   58.1440   34.5860   45.9590 C   0  0  0  0  0  0  0  0  0  0  0  0
   59.3890   34.4880   46.5780 C   0  0  0  0  0  0  0  0  0  0  0  0
   60.0110   33.2430   46.7100 C   0  0  0  0  0  0  0  0  0  0  0  0
   61.2240   33.1630   47.3110 N   0  0  0  0  0  0  0  0  0  0  0  0
   61.8690   31.9820   47.4620 C   0  0  0  0  0  0  0  0  0  0  0  0
   61.2950   30.7990   46.9960 C   0  0  0  0  0  0  0  0  0  0  0  0
   60.0320   30.8190   46.3640 C   0  0  0  0  0  0  0  0  0  0  0  0
   59.3820   32.0720   46.2180 C   0  0  0  0  0  0  0  0  0  0  0  0
   55.3650   22.7268   43.4604 H   0  0  0  0  0  0  0  0  0  0  0  0
   56.1067   23.9445   42.3678 H   0  0  0  0  0  0  0  0  0  0  0  0
   56.7096   22.2524   42.3678 H   0  0  0  0  0  0  0  0  0  0  0  0
   58.3599   22.1566   45.3504 H   0  0  0  0  0  0  0  0  0  0  0  0
   57.8385   21.3866   43.8135 H   0  0  0  0  0  0  0  0  0  0  0  0
   59.1968   22.5620   43.8135 H   0  0  0  0  0  0  0  0  0  0  0  0
   55.5869   23.5678   45.2809 H   0  0  0  0  0  0  0  0  0  0  0  0
   57.2140   23.4588   46.1203 H   0  0  0  0  0  0  0  0  0  0  0  0
   55.6456   25.8106   45.4833 H   0  0  0  0  0  0  0  0  0  0  0  0
   57.1779   25.6552   46.4224 H   0  0  0  0  0  0  0  0  0  0  0  0
   56.7590   26.3110   43.6010 H   0  0  0  0  0  0  0  0  0  0  0  0
   58.1240   25.3850   43.9890 H   0  0  0  0  0  0  0  0  0  0  0  0
   59.8020   26.1640   45.6192 H   0  0  0  0  0  0  0  0  0  0  0  0
   60.9379   28.1932   46.4835 H   0  0  0  0  0  0  0  0  0  0  0  0
   56.4990   28.5821   44.2341 H   0  0  0  0  0  0  0  0  0  0  0  0
   56.5294   33.5292   44.9811 H   0  0  0  0  0  0  0  0  0  0  0  0
   57.6581   35.5676   45.8572 H   0  0  0  0  0  0  0  0  0  0  0  0
   59.8831   35.3921   46.9634 H   0  0  0  0  0  0  0  0  0  0  0  0
   62.8518   31.9553   47.9553 H   0  0  0  0  0  0  0  0  0  0  0  0
   61.8289   29.8455   47.1214 H   0  0  0  0  0  0  0  0  0  0  0  0
  1  2  1  0
  2  3  1  0
  2  4  1  0
  4  5  1  0
  5  6  1  0
  6  7  1  0
  7  8  2  0
  8  9  1  0
  9 10  2  0
 10 11  1  0
 11 12  2  0
 11 13  1  0
 13 14  2  0
 13 15  1  0
 15 16  1  0
 16 17  2  0
 17 18  1  0
 18 19  2  0
 19 20  1  0
 20 21  2  0
 21 22  1  0
 22 23  2  0
 23 24  1  0
 12  7  1  0
 24 15  2  0
 23 10  1  0
 24 19  1  0
  1 25  1  0
  1 26  1  0
  1 27  1  0
  3 28  1  0
  3 29  1  0
  3 30  1  0
  4 31  1  0
  4 32  1  0
  5 33  1  0
  5 34  1  0
  6 35  1  0
  6 36  1  0
  8 37  1  0
  9 38  1  0
 12 39  1  0
 16 40  1  0
 17 41  1  0
 18 42  1  0
 21 43  1  0
 22 44  1  0
M  CHG  1   6   1
M  END
>  <UniqueID>  (40) 
40

>  <SMILES>  (40) 
CN(C)CC[NH2+]c1ccc2c(c1)C(=O)c1cccc3nccc-2c13

>  <Energy>  (40) 
61.98738447196892

>  <Genealogy>  (40) 
CN(C)CC[NH2+]c1ccc2c(c1)C(=O)c1cccc3nccc-2c13 (protonated)
CN(C)CC[NH2+]c1ccc2c(c1)C(=O)c1cccc3nccc-2c13 (3D coordinates assigned)
CN(C)CC[NH2+]c1ccc2c(c1)C(=O)c1cccc3nccc-2c13 (nonaromatic ring conformer: 61.98738447196892 kcal/mol)

>  <smiles>  (40) 
CN(C)CCNc1ccc2c(c1)C(=O)c1cccc3nccc-2c13

>  <score_type>  (40) 
oracle

>  <origin>  (40) 
adg

>  <m_score__min__energy>  (40) 
-7.1100000000000003

>  <m_primary>  (40) 
energy

$$$$
40:0
     RDKit          3D

 44 46  0  0  1  0  0  0  0  0999 V2000
   59.6450   33.4840   50.5290 C   0  0  0  0  0  0  0  0  0  0  0  0
   59.8210   33.2960   49.1500 O   0  0  0  0  0  0  0  0  0  0  0  0
   61.1110   33.1670   48.6570 C   0  0  0  0  0  0  0  0  0  0  0  0
   62.1320   34.0060   49.0560 C   0  0  0  0  0  0  0  0  0  0  0  0
   63.4240   33.9060   48.5860 C   0  0  0  0  0  0  0  0  0  0  0  0
   63.7350   32.9070   47.6560 C   0  0  0  0  0  0  0  0  0  0  0  0
   62.7220   32.0620   47.2480 C   0  0  0  0  0  0  0  0  0  0  0  0
   61.4380   32.1870   47.7370 C   0  0  0  0  0  0  0  0  0  0  0  0
   60.3870   31.2800   47.2890 C   0  0  0  0  0  0  0  0  0  0  0  0
   59.3360   30.8230   47.9940 N   0  0  0  0  0  0  0  0  0  0  0  0
   58.6610   30.0280   47.1640 N   0  0  0  0  0  0  0  0  0  0  0  0
   59.2820   29.9930   45.9620 C   0  0  0  0  0  0  0  0  0  0  0  0
   58.8550   29.3040   44.9580 N   0  0  0  0  0  0  0  0  0  0  0  0
   57.4610   29.2750   44.6940 C   0  0  0  0  0  0  0  0  0  0  0  0
   56.7160   28.8480   45.6100 O   0  0  0  0  0  0  0  0  0  0  0  0
   56.9840   29.7430   43.3750 C   0  0  0  0  0  0  0  0  0  0  0  0
   56.7110   31.2110   43.2960 C   0  0  0  0  0  0  0  0  0  0  0  0
   57.9290   32.0720   43.1700 C   0  0  0  0  0  0  0  0  0  0  0  0
   58.1240   32.8980   44.4170 C   0  0  0  0  0  0  0  0  0  0  0  0
   59.1230   33.8410   44.5030 C   0  0  0  0  0  0  0  0  0  0  0  0
   59.2910   34.5910   45.6520 C   0  0  0  0  0  0  0  0  0  0  0  0
   58.4220   34.3690   46.7170 C   0  0  0  0  0  0  0  0  0  0  0  0
   57.4230   33.4380   46.6510 C   0  0  0  0  0  0  0  0  0  0  0  0
   57.2740   32.7030   45.5010 C   0  0  0  0  0  0  0  0  0  0  0  0
   60.3360   30.7680   46.0670 O   0  0  0  0  0  0  0  0  0  0  0  0
   60.2957   32.7889   51.0798 H   0  0  0  0  0  0  0  0  0  0  0  0
   59.9063   34.5191   50.7942 H   0  0  0  0  0  0  0  0  0  0  0  0
   58.5950   33.2914   50.7942 H   0  0  0  0  0  0  0  0  0  0  0  0
   61.9027   34.7954   49.7870 H   0  0  0  0  0  0  0  0  0  0  0  0
   64.2002   34.6019   48.9370 H   0  0  0  0  0  0  0  0  0  0  0  0
   64.7562   32.7984   47.2619 H   0  0  0  0  0  0  0  0  0  0  0  0
   62.9438   31.2711   46.5164 H   0  0  0  0  0  0  0  0  0  0  0  0
   57.7790   29.5130   47.4180 H   0  0  0  0  0  0  0  0  0  0  0  0
   57.7505   29.4959   42.6257 H   0  0  0  0  0  0  0  0  0  0  0  0
   56.0240   29.2375   43.1937 H   0  0  0  0  0  0  0  0  0  0  0  0
   56.0715   31.3931   42.4197 H   0  0  0  0  0  0  0  0  0  0  0  0
   56.2341   31.4881   44.2477 H   0  0  0  0  0  0  0  0  0  0  0  0
   58.8106   31.4318   43.0184 H   0  0  0  0  0  0  0  0  0  0  0  0
   57.7991   32.7483   42.3123 H   0  0  0  0  0  0  0  0  0  0  0  0
   59.7957   33.9997   43.6472 H   0  0  0  0  0  0  0  0  0  0  0  0
   60.0902   35.3434   45.7231 H   0  0  0  0  0  0  0  0  0  0  0  0
   58.5426   34.9593   47.6373 H   0  0  0  0  0  0  0  0  0  0  0  0
   56.7491   33.2803   47.5060 H   0  0  0  0  0  0  0  0  0  0  0  0
   56.4735   31.9514   45.4359 H   0  0  0  0  0  0  0  0  0  0  0  0
  1  2  1  0
  2  3  1  0
  3  4  2  0
  4  5  1  0
  5  6  2  0
  6  7  1  0
  7  8  2  0
  8  9  1  0
  9 10  2  0
 10 11  1  0
 11 12  1  0
 12 13  2  0
 13 14  1  0
 14 15  2  0
 14 16  1  0
 16 17  1  0
 17 18  1  0
 18 19  1  0
 19 20  2  0
 20 21  1  0
 21 22  2  0
 22 23  1  0
 23 24  2  0
 12 25  1  0
  8  3  1  0
 25  9  1  0
 24 19  1  0
  1 26  1  0
  1 27  1  0
  1 28  1  0
  4 29  1  0
  5 30  1  0
  6 31  1  0
  7 32  1  0
 11 33  1  0
 16 34  1  0
 16 35  1  0
 17 36  1  0
 17 37  1  0
 18 38  1  0
 18 39  1  0
 20 40  1  0
 21 41  1  0
 22 42  1  0
 23 43  1  0
 24 44  1  0
M  END
>  <smiles>  (41) 
COc1ccccc1-c1n[nH]c(=NC(=O)CCCc2ccccc2)o1

>  <score_type>  (41) 
oracle

>  <origin>  (41) 
adg

>  <m_score__min__energy>  (41) 
-8.8699999999999992

>  <m_primary>  (41) 
energy

$$$$
41:0
     RDKit          3D

 38 40  0  0  0  0  0  0  0  0999 V2000
   58.1500   34.1160   45.8430 C   0  0  0  0  0  0  0  0  0  0  0  0
   58.2110   33.1840   47.0480 C   0  0  0  0  0  0  0  0  0  0  0  0
   59.3600   32.2800   46.9350 N   0  0  0  0  0  0  0  0  0  0  0  0
   59.3640   30.9290   46.7380 C   0  0  0  0  0  0  0  0  0  0  0  0
   58.1380   30.0830   46.4670 C   0  0  0  0  0  0  0  0  0  0  0  0
   57.4030   30.4690   45.2420 N   0  0  0  0  0  0  0  0  0  0  0  0
   58.2580   31.1150   44.2330 C   0  0  0  0  0  0  0  0  0  0  0  0
   57.4020   31.5430   43.0330 C   0  0  0  0  0  0  0  0  0  0  0  0
   56.7170   30.4350   42.4790 O   0  0  0  0  0  0  0  0  0  0  0  0
   55.8460   29.8760   43.4450 C   0  0  0  0  0  0  0  0  0  0  0  0
   56.6410   29.3570   44.6470 C   0  0  0  0  0  0  0  0  0  0  0  0
   60.6090   30.3960   46.8400 N   0  0  0  0  0  0  0  0  0  0  0  0
   61.4030   31.4440   47.1100 C   0  0  0  0  0  0  0  0  0  0  0  0
   62.7760   31.4440   47.3390 C   0  0  0  0  0  0  0  0  0  0  0  0
   63.3860   32.6740   47.6460 C   0  0  0  0  0  0  0  0  0  0  0  0
   62.6140   33.8560   47.7220 C   0  0  0  0  0  0  0  0  0  0  0  0
   61.2260   33.8190   47.4910 C   0  0  0  0  0  0  0  0  0  0  0  0
   60.6530   32.5830   47.1760 C   0  0  0  0  0  0  0  0  0  0  0  0
   58.0818   35.1581   46.1885 H   0  0  0  0  0  0  0  0  0  0  0  0
   59.0583   33.9898   45.2355 H   0  0  0  0  0  0  0  0  0  0  0  0
   57.2659   33.8725   45.2355 H   0  0  0  0  0  0  0  0  0  0  0  0
   58.3095   33.7830   47.9653 H   0  0  0  0  0  0  0  0  0  0  0  0
   57.2881   32.5865   47.0851 H   0  0  0  0  0  0  0  0  0  0  0  0
   58.4559   29.0349   46.3646 H   0  0  0  0  0  0  0  0  0  0  0  0
   57.4515   30.2348   47.3129 H   0  0  0  0  0  0  0  0  0  0  0  0
   58.7399   32.0002   44.6736 H   0  0  0  0  0  0  0  0  0  0  0  0
   59.0290   30.4054   43.8981 H   0  0  0  0  0  0  0  0  0  0  0  0
   56.6672   32.2917   43.3638 H   0  0  0  0  0  0  0  0  0  0  0  0
   58.0637   31.9671   42.2634 H   0  0  0  0  0  0  0  0  0  0  0  0
   55.1388   30.6472   43.7843 H   0  0  0  0  0  0  0  0  0  0  0  0
   55.3010   29.0362   42.9893 H   0  0  0  0  0  0  0  0  0  0  0  0
   55.9485   28.9439   45.3952 H   0  0  0  0  0  0  0  0  0  0  0  0
   57.3343   28.5687   44.3184 H   0  0  0  0  0  0  0  0  0  0  0  0
   60.8860   29.3930   46.7560 H   0  0  0  0  0  0  0  0  0  0  0  0
   63.3631   30.5155   47.2820 H   0  0  0  0  0  0  0  0  0  0  0  0
   64.4700   32.7163   47.8280 H   0  0  0  0  0  0  0  0  0  0  0  0
   63.1018   34.8119   47.9635 H   0  0  0  0  0  0  0  0  0  0  0  0
   60.6136   34.7304   47.5560 H   0  0  0  0  0  0  0  0  0  0  0  0
  1  2  1  0
  2  3  1  0
  3  4  1  0
  4  5  1  0
  5  6  1  0
  6  7  1  0
  7  8  1  0
  8  9  1  0
  9 10  1  0
 10 11  1  0
  4 12  2  0
 12 13  1  0
 13 14  2  0
 14 15  1  0
 15 16  2  0
 16 17  1  0
 17 18  2  0
 18  3  1  0
 11  6  1  0
 18 13  1  0
  1 19  1  0
  1 20  1  0
  1 21  1  0
  2 22  1  0
  2 23  1  0
  5 24  1  0
  5 25  1  0
  7 26  1  0
  7 27  1  0
  8 28  1  0
  8 29  1  0
 10 30  1  0
 10 31  1  0
 11 32  1  0
 11 33  1  0
 12 34  1  0
 14 35  1  0
 15 36  1  0
 16 37  1  0
 17 38  1  0
M  CHG  1  12   1
M  END
>  <UniqueID>  (42) 
41

>  <SMILES>  (42) 
CCn1c(CN2CCOCC2)[nH+]c2ccccc21

>  <Energy>  (42) 
78.63913672825211

>  <Genealogy>  (42) 
CCn1c(CN2CCOCC2)[nH+]c2ccccc21 (protonated)
CCn1c(CN2CCOCC2)[nH+]c2ccccc21 (3D coordinates assigned)
CCn1c(CN2CCOCC2)[nH+]c2ccccc21 (nonaromatic ring conformer: 78.63913672825211 kcal/mol)

>  <smiles>  (42) 
CCn1c(CN2CCOCC2)nc2ccccc21

>  <score_type>  (42) 
oracle

>  <origin>  (42) 
adg

>  <m_score__min__energy>  (42) 
-4.7000000000000002

>  <m_primary>  (42) 
energy

$$$$
42:0
     RDKit          3D

 62 64  0  0  0  0  0  0  0  0999 V2000
   63.1460   33.8790   46.3530 C   0  0  0  0  0  0  0  0  0  0  0  0
   61.6800   33.7790   46.8000 C   0  0  0  0  0  0  0  0  0  0  0  0
   61.4340   34.1060   48.2290 N   0  0  0  0  0  0  0  0  0  0  0  0
   62.0450   33.1640   49.1930 C   0  0  0  0  0  0  0  0  0  0  0  0
   62.5870   31.8870   48.5450 C   0  0  0  0  0  0  0  0  0  0  0  0
   60.0660   34.5370   48.5940 C   0  0  0  0  0  0  0  0  0  0  0  0
   59.3350   35.1270   47.3810 C   0  0  0  0  0  0  0  0  0  0  0  0
   58.1880   34.2950   47.0110 N   0  0  0  0  0  0  0  0  0  0  0  0
   58.2550   33.1960   46.0770 C   0  0  0  0  0  0  0  0  0  0  0  0
   57.9420   33.3960   44.7300 C   0  0  0  0  0  0  0  0  0  0  0  0
   57.9370   32.3300   43.8430 C   0  0  0  0  0  0  0  0  0  0  0  0
   58.2510   31.0240   44.2630 C   0  0  0  0  0  0  0  0  0  0  0  0
   57.8910   29.9240   43.3800 N   0  0  0  0  0  0  0  0  0  0  0  0
   56.6800   29.2270   43.8610 C   0  0  0  0  0  0  0  0  0  0  0  0
   57.0280   28.0120   44.7630 C   0  0  0  0  0  0  0  0  0  0  0  0
   58.1820   27.2040   44.3090 N   0  0  0  0  0  0  0  0  0  0  0  0
   58.4710   26.0580   45.1870 C   0  0  0  0  0  0  0  0  0  0  0  0
   58.0850   26.7910   42.9010 C   0  0  0  0  0  0  0  0  0  0  0  0
   58.8060   30.8350   45.5740 C   0  0  0  0  0  0  0  0  0  0  0  0
   59.5240   29.6370   45.9340 C   0  0  0  0  0  0  0  0  0  0  0  0
   59.9790   28.9140   45.0050 O   0  0  0  0  0  0  0  0  0  0  0  0
   59.8370   29.2370   47.2700 C   0  0  0  0  0  0  0  0  0  0  0  0
   60.4030   27.9610   47.5100 C   0  0  0  0  0  0  0  0  0  0  0  0
   60.7210   27.5440   48.8070 C   0  0  0  0  0  0  0  0  0  0  0  0
   60.4930   28.3900   49.8910 C   0  0  0  0  0  0  0  0  0  0  0  0
   59.9520   29.6590   49.6820 C   0  0  0  0  0  0  0  0  0  0  0  0
   59.6280   30.0730   48.3860 C   0  0  0  0  0  0  0  0  0  0  0  0
   59.0550   31.6260   48.1160 S   0  0  0  0  0  0  0  0  0  0  0  0
   58.6880   31.9170   46.4920 C   0  0  0  0  0  0  0  0  0  0  0  0
   63.7971   33.9234   47.2385 H   0  0  0  0  0  0  0  0  0  0  0  0
   63.4065   32.9965   45.7502 H   0  0  0  0  0  0  0  0  0  0  0  0
   63.2843   34.7887   45.7502 H   0  0  0  0  0  0  0  0  0  0  0  0
   61.0878   34.4724   46.1847 H   0  0  0  0  0  0  0  0  0  0  0  0
   61.3914   32.7252   46.6723 H   0  0  0  0  0  0  0  0  0  0  0  0
   62.8761   33.6761   49.7000 H   0  0  0  0  0  0  0  0  0  0  0  0
   61.2520   32.8589   49.8916 H   0  0  0  0  0  0  0  0  0  0  0  0
   62.8883   31.1772   49.3295 H   0  0  0  0  0  0  0  0  0  0  0  0
   61.8043   31.4323   47.9200 H   0  0  0  0  0  0  0  0  0  0  0  0
   63.4578   32.1341   47.9200 H   0  0  0  0  0  0  0  0  0  0  0  0
   59.5025   33.6689   48.9667 H   0  0  0  0  0  0  0  0  0  0  0  0
   60.1377   35.3117   49.3716 H   0  0  0  0  0  0  0  0  0  0  0  0
   58.9817   36.1386   47.6296 H   0  0  0  0  0  0  0  0  0  0  0  0
   60.0331   35.1637   46.5317 H   0  0  0  0  0  0  0  0  0  0  0  0
   57.2680   34.5530   47.4300 H   0  0  0  0  0  0  0  0  0  0  0  0
   57.6978   34.4065   44.3705 H   0  0  0  0  0  0  0  0  0  0  0  0
   57.6820   32.5091   42.7881 H   0  0  0  0  0  0  0  0  0  0  0  0
   58.6290   29.1930   43.3330 H   0  0  0  0  0  0  0  0  0  0  0  0
   57.7370   30.3050   42.4190 H   0  0  0  0  0  0  0  0  0  0  0  0
   56.0687   29.9353   44.4395 H   0  0  0  0  0  0  0  0  0  0  0  0
   56.1321   28.8530   42.9836 H   0  0  0  0  0  0  0  0  0  0  0  0
   57.2518   28.3893   45.7717 H   0  0  0  0  0  0  0  0  0  0  0  0
   56.1542   27.3447   44.7292 H   0  0  0  0  0  0  0  0  0  0  0  0
   58.3917   26.3723   46.2382 H   0  0  0  0  0  0  0  0  0  0  0  0
   57.7477   25.2531   44.9894 H   0  0  0  0  0  0  0  0  0  0  0  0
   59.4895   25.6924   44.9894 H   0  0  0  0  0  0  0  0  0  0  0  0
   57.8338   25.7213   42.8491 H   0  0  0  0  0  0  0  0  0  0  0  0
   57.3000   27.3767   42.4003 H   0  0  0  0  0  0  0  0  0  0  0  0
   59.0487   26.9660   42.4003 H   0  0  0  0  0  0  0  0  0  0  0  0
   60.5957   27.2867   46.6625 H   0  0  0  0  0  0  0  0  0  0  0  0
   61.1522   26.5456   48.9718 H   0  0  0  0  0  0  0  0  0  0  0  0
   60.7393   28.0575   50.9102 H   0  0  0  0  0  0  0  0  0  0  0  0
   59.7807   30.3324   50.5347 H   0  0  0  0  0  0  0  0  0  0  0  0
  1  2  1  0
  2  3  1  0
  3  4  1  0
  4  5  1  0
  3  6  1  0
  6  7  1  0
  7  8  1  0
  8  9  1  0
  9 10  2  0
 10 11  1  0
 11 12  2  0
 12 13  1  0
 13 14  1  0
 14 15  1  0
 15 16  1  0
 16 17  1  0
 16 18  1  0
 12 19  1  0
 19 20  1  0
 20 21  2  0
 20 22  1  0
 22 23  2  0
 23 24  1  0
 24 25  2  0
 25 26  1  0
 26 27  2  0
 27 28  1  0
 28 29  1  0
 29  9  1  0
 29 19  2  0
 27 22  1  0
  1 30  1  0
  1 31  1  0
  1 32  1  0
  2 33  1  0
  2 34  1  0
  4 35  1  0
  4 36  1  0
  5 37  1  0
  5 38  1  0
  5 39  1  0
  6 40  1  0
  6 41  1  0
  7 42  1  0
  7 43  1  0
  8 44  1  0
 10 45  1  0
 11 46  1  0
 13 47  1  0
 13 48  1  0
 14 49  1  0
 14 50  1  0
 15 51  1  0
 15 52  1  0
 17 53  1  0
 17 54  1  0
 17 55  1  0
 18 56  1  0
 18 57  1  0
 18 58  1  0
 23 59  1  0
 24 60  1  0
 25 61  1  0
 26 62  1  0
M  CHG  1  13   1
M  END
>  <UniqueID>  (43) 
42

>  <SMILES>  (43) 
CCN(CC)CCNc1ccc([NH2+]CCN(C)C)c2c(=O)c3ccccc3sc12

>  <Energy>  (43) 
102.97316103375145

>  <Genealogy>  (43) 
CCN(CC)CCNc1ccc([NH2+]CCN(C)C)c2c(=O)c3ccccc3sc12 (protonated)
CCN(CC)CCNc1ccc([NH2+]CCN(C)C)c2c(=O)c3ccccc3sc12 (3D coordinates assigned)
CCN(CC)CCNc1ccc([NH2+]CCN(C)C)c2c(=O)c3ccccc3sc12 (optimized conformer: 102.97316103375145 kcal/mol)

>  <smiles>  (43) 
CCN(CC)CCNc1ccc(NCCN(C)C)c2c(=O)c3ccccc3sc12

>  <score_type>  (43) 
oracle

>  <origin>  (43) 
adg

>  <m_score__min__energy>  (43) 
-5.5999999999999996

>  <m_primary>  (43) 
energy

$$$$
43:0
     RDKit          3D

 46 50  0  0  0  0  0  0  0  0999 V2000
   59.7700   27.3860   47.9310 C   0  0  0  0  0  0  0  0  0  0  0  0
   58.4810   26.9670   47.5900 C   0  0  0  0  0  0  0  0  0  0  0  0
   57.8270   27.5350   46.4930 C   0  0  0  0  0  0  0  0  0  0  0  0
   58.4700   28.5150   45.7160 C   0  0  0  0  0  0  0  0  0  0  0  0
   57.7840   29.1280   44.5620 C   0  0  0  0  0  0  0  0  0  0  0  0
   57.1760   28.4060   43.6000 N   0  0  0  0  0  0  0  0  0  0  0  0
   56.8260   29.2240   42.6180 N   0  0  0  0  0  0  0  0  0  0  0  0
   57.2300   30.4490   43.0040 C   0  0  0  0  0  0  0  0  0  0  0  0
   57.8030   30.4350   44.2190 N   0  0  0  0  0  0  0  0  0  0  0  0
   58.2540   31.6340   44.8770 C   0  0  0  0  0  0  0  0  0  0  0  0
   58.4320   31.7090   46.2680 C   0  0  0  0  0  0  0  0  0  0  0  0
   58.8620   32.9050   46.8690 C   0  0  0  0  0  0  0  0  0  0  0  0
   59.0820   32.9670   48.2950 N   0  0  0  0  0  0  0  0  0  0  0  0
   59.6660   34.1760   48.8950 C   0  0  0  0  0  0  0  0  0  0  0  0
   60.4550   33.8420   50.1610 C   0  0  0  0  0  0  0  0  0  0  0  0
   59.3910   33.1890   51.5000 S   0  0  0  0  0  0  0  0  0  0  0  0
   58.1480   32.3080   50.4810 C   0  0  0  0  0  0  0  0  0  0  0  0
   58.7110   31.8250   49.1460 C   0  0  0  0  0  0  0  0  0  0  0  0
   59.0710   34.0380   46.0650 C   0  0  0  0  0  0  0  0  0  0  0  0
   58.8340   33.9870   44.6900 C   0  0  0  0  0  0  0  0  0  0  0  0
   58.3970   32.7970   44.0920 C   0  0  0  0  0  0  0  0  0  0  0  0
   58.1480   32.7300   42.5960 C   0  0  0  0  0  0  0  0  0  0  0  0
   57.0410   31.7170   42.2290 C   0  0  0  0  0  0  0  0  0  0  0  0
   59.7550   28.9470   46.0780 C   0  0  0  0  0  0  0  0  0  0  0  0
   60.4050   28.3790   47.1780 C   0  0  0  0  0  0  0  0  0  0  0  0
   60.2852   26.9347   48.7918 H   0  0  0  0  0  0  0  0  0  0  0  0
   57.9806   26.1893   48.1856 H   0  0  0  0  0  0  0  0  0  0  0  0
   56.8064   27.2145   46.2367 H   0  0  0  0  0  0  0  0  0  0  0  0
   57.0410   27.3710   43.5810 H   0  0  0  0  0  0  0  0  0  0  0  0
   58.2335   30.8252   46.8921 H   0  0  0  0  0  0  0  0  0  0  0  0
   60.3413   34.6476   48.1659 H   0  0  0  0  0  0  0  0  0  0  0  0
   58.8476   34.8592   49.1660 H   0  0  0  0  0  0  0  0  0  0  0  0
   61.2146   33.0858   49.9138 H   0  0  0  0  0  0  0  0  0  0  0  0
   60.9140   34.7736   50.5237 H   0  0  0  0  0  0  0  0  0  0  0  0
   57.7852   31.4363   51.0453 H   0  0  0  0  0  0  0  0  0  0  0  0
   57.3373   33.0182   50.2607 H   0  0  0  0  0  0  0  0  0  0  0  0
   59.6027   31.2083   49.3319 H   0  0  0  0  0  0  0  0  0  0  0  0
   57.9399   31.2345   48.6295 H   0  0  0  0  0  0  0  0  0  0  0  0
   59.4245   34.9736   46.5229 H   0  0  0  0  0  0  0  0  0  0  0  0
   58.9909   34.8844   44.0735 H   0  0  0  0  0  0  0  0  0  0  0  0
   57.8458   33.7270   42.2430 H   0  0  0  0  0  0  0  0  0  0  0  0
   59.0799   32.3980   42.1150 H   0  0  0  0  0  0  0  0  0  0  0  0
   56.0581   32.1482   42.4699 H   0  0  0  0  0  0  0  0  0  0  0  0
   57.0971   31.4946   41.1532 H   0  0  0  0  0  0  0  0  0  0  0  0
   60.2528   29.7354   45.4943 H   0  0  0  0  0  0  0  0  0  0  0  0
   61.4166   28.7134   47.4514 H   0  0  0  0  0  0  0  0  0  0  0  0
  1  2  2  0
  2  3  1  0
  3  4  2  0
  4  5  1  0
  5  6  2  0
  6  7  1  0
  7  8  2  0
  8  9  1  0
  9 10  1  0
 10 11  2  0
 11 12  1  0
 12 13  1  0
 13 14  1  0
 14 15  1  0
 15 16  1  0
 16 17  1  0
 17 18  1  0
 12 19  2  0
 19 20  1  0
 20 21  2  0
 21 22  1  0
 22 23  1  0
  4 24  1  0
 24 25  2  0
 25  1  1  0
  9  5  1  0
 21 10  1  0
 23  8  1  0
 18 13  1  0
  1 26  1  0
  2 27  1  0
  3 28  1  0
  6 29  1  0
 11 30  1  0
 14 31  1  0
 14 32  1  0
 15 33  1  0
 15 34  1  0
 17 35  1  0
 17 36  1  0
 18 37  1  0
 18 38  1  0
 19 39  1  0
 20 40  1  0
 22 41  1  0
 22 42  1  0
 23 43  1  0
 23 44  1  0
 24 45  1  0
 25 46  1  0
M  CHG  1   6   1
M  END
>  <UniqueID>  (44) 
43

>  <SMILES>  (44) 
c1ccc(-c2[nH+]nc3n2-c2cc(N4CCSCC4)ccc2CC3)cc1

>  <Energy>  (44) 
101.69000634150729

>  <Genealogy>  (44) 
c1ccc(-c2[nH+]nc3n2-c2cc(N4CCSCC4)ccc2CC3)cc1 (protonated)
c1ccc(-c2[nH+]nc3n2-c2cc(N4CCSCC4)ccc2CC3)cc1 (3D coordinates assigned)
c1ccc(-c2[nH+]nc3n2-c2cc(N4CCSCC4)ccc2CC3)cc1 (nonaromatic ring conformer: 101.69000634150729 kcal/mol)

>  <smiles>  (44) 
c1ccc(-c2nnc3n2-c2cc(N4CCSCC4)ccc2CC3)cc1

>  <score_type>  (44) 
oracle

>  <origin>  (44) 
adg

>  <m_score__min__energy>  (44) 
-7.2599999999999998

>  <m_primary>  (44) 
energy

$$$$
44:0
     RDKit          3D

 47 50  0  0  0  0  0  0  0  0999 V2000
   67.5720   34.1940   51.3990 C   0  0  0  0  0  0  0  0  0  0  0  0
   66.1950   34.2000   51.7630 O   0  0  0  0  0  0  0  0  0  0  0  0
   65.1480   33.8210   50.9110 C   0  0  0  0  0  0  0  0  0  0  0  0
   63.8480   34.2210   51.2350 C   0  0  0  0  0  0  0  0  0  0  0  0
   62.7700   33.8690   50.4180 C   0  0  0  0  0  0  0  0  0  0  0  0
   62.9770   33.1020   49.2600 C   0  0  0  0  0  0  0  0  0  0  0  0
   61.8310   32.7350   48.3890 C   0  0  0  0  0  0  0  0  0  0  0  0
   61.7980   31.4760   47.7680 C   0  0  0  0  0  0  0  0  0  0  0  0
   60.7820   31.1240   46.9910 O   0  0  0  0  0  0  0  0  0  0  0  0
   59.7480   31.9250   46.7530 C   0  0  0  0  0  0  0  0  0  0  0  0
   58.7110   31.4880   45.9240 C   0  0  0  0  0  0  0  0  0  0  0  0
   57.6160   32.3170   45.6510 C   0  0  0  0  0  0  0  0  0  0  0  0
   56.6120   31.8230   44.8030 O   0  0  0  0  0  0  0  0  0  0  0  0
   56.8280   31.0770   43.6050 C   0  0  0  0  0  0  0  0  0  0  0  0
   56.1600   29.6910   43.6690 C   0  0  0  0  0  0  0  0  0  0  0  0
   55.8910   29.2530   45.0460 N   0  0  0  0  0  0  0  0  0  0  0  0
   57.0630   28.5810   45.6300 C   0  0  0  0  0  0  0  0  0  0  0  0
   57.0360   27.0570   45.6200 C   0  0  0  0  0  0  0  0  0  0  0  0
   57.8650   27.8110   44.5930 C   0  0  0  0  0  0  0  0  0  0  0  0
   57.5630   33.5990   46.2310 C   0  0  0  0  0  0  0  0  0  0  0  0
   58.5950   34.0430   47.0620 C   0  0  0  0  0  0  0  0  0  0  0  0
   59.6970   33.2120   47.3310 C   0  0  0  0  0  0  0  0  0  0  0  0
   60.7600   33.6190   48.1550 C   0  0  0  0  0  0  0  0  0  0  0  0
   60.7640   34.7740   48.6650 O   0  0  0  0  0  0  0  0  0  0  0  0
   64.2840   32.7050   48.9290 C   0  0  0  0  0  0  0  0  0  0  0  0
   65.3610   33.0590   49.7470 C   0  0  0  0  0  0  0  0  0  0  0  0
   68.1915   34.1913   52.3079 H   0  0  0  0  0  0  0  0  0  0  0  0
   67.7901   33.2949   50.8040 H   0  0  0  0  0  0  0  0  0  0  0  0
   67.7979   35.0912   50.8040 H   0  0  0  0  0  0  0  0  0  0  0  0
   63.6720   34.8185   52.1417 H   0  0  0  0  0  0  0  0  0  0  0  0
   61.7534   34.1947   50.6836 H   0  0  0  0  0  0  0  0  0  0  0  0
   62.6271   30.7710   47.9282 H   0  0  0  0  0  0  0  0  0  0  0  0
   58.7555   30.4820   45.4813 H   0  0  0  0  0  0  0  0  0  0  0  0
   56.4079   31.6364   42.7561 H   0  0  0  0  0  0  0  0  0  0  0  0
   57.9113   30.9303   43.4830 H   0  0  0  0  0  0  0  0  0  0  0  0
   55.2071   29.7342   43.1211 H   0  0  0  0  0  0  0  0  0  0  0  0
   56.8554   28.9664   43.2202 H   0  0  0  0  0  0  0  0  0  0  0  0
   55.5750   30.0710   45.6200 H   0  0  0  0  0  0  0  0  0  0  0  0
   57.2681   29.3323   46.4069 H   0  0  0  0  0  0  0  0  0  0  0  0
   57.5341   26.4926   46.4221 H   0  0  0  0  0  0  0  0  0  0  0  0
   56.2461   26.2929   45.5733 H   0  0  0  0  0  0  0  0  0  0  0  0
   58.9633   27.7910   44.6516 H   0  0  0  0  0  0  0  0  0  0  0  0
   57.9230   27.8170   43.4945 H   0  0  0  0  0  0  0  0  0  0  0  0
   56.7037   34.2552   46.0286 H   0  0  0  0  0  0  0  0  0  0  0  0
   58.5451   35.0474   47.5078 H   0  0  0  0  0  0  0  0  0  0  0  0
   64.4607   32.1115   48.0198 H   0  0  0  0  0  0  0  0  0  0  0  0
   66.3794   32.7406   49.4797 H   0  0  0  0  0  0  0  0  0  0  0  0
  1  2  1  0
  2  3  1  0
  3  4  2  0
  4  5  1  0
  5  6  2  0
  6  7  1  0
  7  8  2  0
  8  9  1  0
  9 10  1  0
 10 11  2  0
 11 12  1  0
 12 13  1  0
 13 14  1  0
 14 15  1  0
 15 16  1  0
 16 17  1  0
 17 18  1  0
 18 19  1  0
 12 20  2  0
 20 21  1  0
 21 22  2  0
 22 23  1  0
 23 24  2  0
  6 25  1  0
 25 26  2  0
 26  3  1  0
 23  7  1  0
 22 10  1  0
 19 17  1  0
  1 27  1  0
  1 28  1  0
  1 29  1  0
  4 30  1  0
  5 31  1  0
  8 32  1  0
 11 33  1  0
 14 34  1  0
 14 35  1  0
 15 36  1  0
 15 37  1  0
 16 38  1  0
 17 39  1  0
 18 40  1  0
 18 41  1  0
 19 42  1  0
 19 43  1  0
 20 44  1  0
 21 45  1  0
 25 46  1  0
 26 47  1  0
M  END
>  <UniqueID>  (45) 
44

>  <SMILES>  (45) 
COc1ccc(-c2coc3cc(OCCNC4CC4)ccc3c2=O)cc1

>  <Energy>  (45) 
326.1187963720244

>  <Genealogy>  (45) 
COc1ccc(-c2coc3cc(OCCNC4CC4)ccc3c2=O)cc1 (3D coordinates assigned)
COc1ccc(-c2coc3cc(OCCNC4CC4)ccc3c2=O)cc1 (nonaromatic ring conformer: 326.1187963720244 kcal/mol)

>  <smiles>  (45) 
COc1ccc(-c2coc3cc(OCCNC4CC4)ccc3c2=O)cc1

>  <score_type>  (45) 
oracle

>  <origin>  (45) 
adg

>  <m_score__min__energy>  (45) 
-7.46

>  <m_primary>  (45) 
energy

$$$$
45:0
     RDKit          3D

 42 45  0  0  0  0  0  0  0  0999 V2000
   55.7550   29.1200   44.4980 C   0  0  0  0  0  0  0  0  0  0  0  0
   57.0110   29.7150   45.0560 C   0  0  0  0  0  0  0  0  0  0  0  0
   57.1950   31.0630   45.0720 N   0  0  0  0  0  0  0  0  0  0  0  0
   58.3610   31.4230   45.6560 C   0  0  0  0  0  0  0  0  0  0  0  0
   58.7980   32.8300   45.8090 C   0  0  0  0  0  0  0  0  0  0  0  0
   59.2370   33.3010   47.0600 C   0  0  0  0  0  0  0  0  0  0  0  0
   59.6510   34.6280   47.2130 C   0  0  0  0  0  0  0  0  0  0  0  0
   59.6310   35.4980   46.1200 C   0  0  0  0  0  0  0  0  0  0  0  0
   59.1970   35.0430   44.8730 C   0  0  0  0  0  0  0  0  0  0  0  0
   58.7820   33.7170   44.7160 C   0  0  0  0  0  0  0  0  0  0  0  0
   59.2110   30.0650   46.1820 S   0  0  0  0  0  0  0  0  0  0  0  0
   58.0600   28.9800   45.6160 C   0  0  0  0  0  0  0  0  0  0  0  0
   58.1490   27.5200   45.7820 C   0  0  0  0  0  0  0  0  0  0  0  0
   57.4260   26.6700   45.0030 N   0  0  0  0  0  0  0  0  0  0  0  0
   57.6190   25.3700   45.3270 C   0  0  0  0  0  0  0  0  0  0  0  0
   56.9860   24.2660   44.6440 N   0  0  0  0  0  0  0  0  0  0  0  0
   55.5250   24.1020   44.6720 C   0  0  0  0  0  0  0  0  0  0  0  0
   54.9900   23.5200   43.3440 C   0  0  0  0  0  0  0  0  0  0  0  0
   55.9220   22.6100   42.6480 N   0  0  0  0  0  0  0  0  0  0  0  0
   56.9530   22.0560   43.5320 C   0  0  0  0  0  0  0  0  0  0  0  0
   57.8180   23.1820   44.1060 C   0  0  0  0  0  0  0  0  0  0  0  0
   58.6920   25.2310   46.6210 S   0  0  0  0  0  0  0  0  0  0  0  0
   58.9220   26.8910   46.7590 C   0  0  0  0  0  0  0  0  0  0  0  0
   59.9400   27.7170   48.1510 Br  0  0  0  0  0  0  0  0  0  0  0  0
   55.0983   28.8089   45.3238 H   0  0  0  0  0  0  0  0  0  0  0  0
   55.2376   29.8687   43.8802 H   0  0  0  0  0  0  0  0  0  0  0  0
   56.0066   28.2454   43.8802 H   0  0  0  0  0  0  0  0  0  0  0  0
   59.2547   32.6205   47.9240 H   0  0  0  0  0  0  0  0  0  0  0  0
   59.9928   34.9872   48.1949 H   0  0  0  0  0  0  0  0  0  0  0  0
   59.9571   36.5415   46.2417 H   0  0  0  0  0  0  0  0  0  0  0  0
   59.1816   35.7288   44.0131 H   0  0  0  0  0  0  0  0  0  0  0  0
   58.4406   33.3645   43.7315 H   0  0  0  0  0  0  0  0  0  0  0  0
   56.7950   27.0000   44.2390 H   0  0  0  0  0  0  0  0  0  0  0  0
   55.2584   23.4203   45.4931 H   0  0  0  0  0  0  0  0  0  0  0  0
   55.0713   25.0931   44.8197 H   0  0  0  0  0  0  0  0  0  0  0  0
   54.0664   22.9635   43.5614 H   0  0  0  0  0  0  0  0  0  0  0  0
   54.8320   24.3760   42.6715 H   0  0  0  0  0  0  0  0  0  0  0  0
   56.3970   23.1350   41.8770 H   0  0  0  0  0  0  0  0  0  0  0  0
   56.4701   21.5120   44.3572 H   0  0  0  0  0  0  0  0  0  0  0  0
   57.5916   21.3717   42.9541 H   0  0  0  0  0  0  0  0  0  0  0  0
   58.4460   22.7768   44.9131 H   0  0  0  0  0  0  0  0  0  0  0  0
   58.4427   23.5894   43.2975 H   0  0  0  0  0  0  0  0  0  0  0  0
  1  2  1  0
  2  3  1  0
  3  4  2  0
  4  5  1  0
  5  6  2  0
  6  7  1  0
  7  8  2  0
  8  9  1  0
  9 10  2  0
  4 11  1  0
 11 12  1  0
 12 13  1  0
 13 14  1  0
 14 15  2  0
 15 16  1  0
 16 17  1  0
 17 18  1  0
 18 19  1  0
 19 20  1  0
 20 21  1  0
 15 22  1  0
 22 23  1  0
 23 24  1  0
 12  2  2  0
 23 13  2  0
 10  5  1  0
 21 16  1  0
  1 25  1  0
  1 26  1  0
  1 27  1  0
  6 28  1  0
  7 29  1  0
  8 30  1  0
  9 31  1  0
 10 32  1  0
 14 33  1  0
 17 34  1  0
 17 35  1  0
 18 36  1  0
 18 37  1  0
 19 38  1  0
 20 39  1  0
 20 40  1  0
 21 41  1  0
 21 42  1  0
M  CHG  1  14   1
M  END
>  <UniqueID>  (46) 
45

>  <SMILES>  (46) 
Cc1nc(-c2ccccc2)sc1-c1[nH+]c(N2CCNCC2)sc1Br

>  <Energy>  (46) 
115.66387883410286

>  <Genealogy>  (46) 
Cc1nc(-c2ccccc2)sc1-c1[nH+]c(N2CCNCC2)sc1Br (protonated)
Cc1nc(-c2ccccc2)sc1-c1[nH+]c(N2CCNCC2)sc1Br (3D coordinates assigned)
Cc1nc(-c2ccccc2)sc1-c1[nH+]c(N2CCNCC2)sc1Br (nonaromatic ring conformer: 115.66387883410286 kcal/mol)

>  <smiles>  (46) 
Cc1nc(-c2ccccc2)sc1-c1nc(N2CCNCC2)sc1Br

>  <score_type>  (46) 
oracle

>  <origin>  (46) 
adg

>  <m_score__min__energy>  (46) 
-7.7000000000000002

>  <m_primary>  (46) 
energy

$$$$
46:0
     RDKit          3D

 50 54  0  0  0  0  0  0  0  0999 V2000
   60.7490   25.7690   51.7280 C   0  0  0  0  0  0  0  0  0  0  0  0
   60.9850   26.0880   50.3600 O   0  0  0  0  0  0  0  0  0  0  0  0
   60.7330   27.3400   49.7770 C   0  0  0  0  0  0  0  0  0  0  0  0
   59.9340   27.4810   48.6270 C   0  0  0  0  0  0  0  0  0  0  0  0
   59.6960   28.7500   48.0650 C   0  0  0  0  0  0  0  0  0  0  0  0
   60.3340   29.8760   48.6120 C   0  0  0  0  0  0  0  0  0  0  0  0
   61.0810   29.7390   49.7970 C   0  0  0  0  0  0  0  0  0  0  0  0
   61.2950   28.4750   50.3720 C   0  0  0  0  0  0  0  0  0  0  0  0
   62.0630   28.3050   51.5360 O   0  0  0  0  0  0  0  0  0  0  0  0
   63.2600   29.0190   51.8260 C   0  0  0  0  0  0  0  0  0  0  0  0
   60.0680   31.2330   47.9760 C   0  0  1  0  0  0  0  0  0  0  0  0
   61.1460   32.2600   48.2940 C   0  0  0  0  0  0  0  0  0  0  0  0
   62.3640   32.2700   47.5870 C   0  0  0  0  0  0  0  0  0  0  0  0
   63.3460   33.2210   47.8820 C   0  0  0  0  0  0  0  0  0  0  0  0
   63.1210   34.1740   48.8790 C   0  0  0  0  0  0  0  0  0  0  0  0
   61.9140   34.1780   49.5820 C   0  0  0  0  0  0  0  0  0  0  0  0
   60.9290   33.2290   49.2920 C   0  0  0  0  0  0  0  0  0  0  0  0
   59.9150   31.1180   46.5080 N   0  0  0  0  0  0  0  0  0  0  0  0
   58.9330   30.1220   46.1170 C   0  0  0  0  0  0  0  0  0  0  0  0
   58.8020   28.9410   46.8900 C   0  0  0  0  0  0  0  0  0  0  0  0
   57.8000   28.0090   46.5720 C   0  0  0  0  0  0  0  0  0  0  0  0
   56.9890   28.1890   45.4580 C   0  0  0  0  0  0  0  0  0  0  0  0
   57.1790   29.2850   44.6140 C   0  0  0  0  0  0  0  0  0  0  0  0
   56.3910   29.4170   43.4580 C   0  0  0  0  0  0  0  0  0  0  0  0
   56.5990   30.4810   42.5830 C   0  0  0  0  0  0  0  0  0  0  0  0
   57.6000   31.4130   42.8440 C   0  0  0  0  0  0  0  0  0  0  0  0
   58.3880   31.3030   43.9920 C   0  0  0  0  0  0  0  0  0  0  0  0
   58.1740   30.2520   44.9160 C   0  0  0  0  0  0  0  0  0  0  0  0
   61.2806   26.4876   52.3691 H   0  0  0  0  0  0  0  0  0  0  0  0
   59.6700   25.8207   51.9357 H   0  0  0  0  0  0  0  0  0  0  0  0
   61.1141   24.7524   51.9357 H   0  0  0  0  0  0  0  0  0  0  0  0
   59.4899   26.5888   48.1614 H   0  0  0  0  0  0  0  0  0  0  0  0
   61.5028   30.6332   50.2792 H   0  0  0  0  0  0  0  0  0  0  0  0
   63.3869   29.0947   52.9160 H   0  0  0  0  0  0  0  0  0  0  0  0
   64.1191   28.4857   51.3930 H   0  0  0  0  0  0  0  0  0  0  0  0
   63.1989   30.0284   51.3930 H   0  0  0  0  0  0  0  0  0  0  0  0
   59.1255   31.5893   48.4172 H   0  0  0  0  0  0  0  0  0  0  0  0
   62.5440   31.5251   46.7978 H   0  0  0  0  0  0  0  0  0  0  0  0
   64.2966   33.2189   47.3286 H   0  0  0  0  0  0  0  0  0  0  0  0
   63.8945   34.9211   49.1102 H   0  0  0  0  0  0  0  0  0  0  0  0
   61.7380   34.9296   50.3657 H   0  0  0  0  0  0  0  0  0  0  0  0
   59.9792   33.2396   49.8467 H   0  0  0  0  0  0  0  0  0  0  0  0
   60.8260   30.8680   46.0570 H   0  0  0  0  0  0  0  0  0  0  0  0
   59.6180   32.0650   46.1830 H   0  0  0  0  0  0  0  0  0  0  0  0
   57.6557   27.1263   47.2124 H   0  0  0  0  0  0  0  0  0  0  0  0
   56.1919   27.4631   45.2396 H   0  0  0  0  0  0  0  0  0  0  0  0
   55.6063   28.6768   43.2430 H   0  0  0  0  0  0  0  0  0  0  0  0
   55.9719   30.5849   41.6852 H   0  0  0  0  0  0  0  0  0  0  0  0
   57.7714   32.2417   42.1412 H   0  0  0  0  0  0  0  0  0  0  0  0
   59.1825   32.0401   44.1800 H   0  0  0  0  0  0  0  0  0  0  0  0
  1  2  1  0
  2  3  1  0
  3  4  2  0
  4  5  1  0
  5  6  2  0
  6  7  1  0
  7  8  2  0
  8  9  1  0
  9 10  1  0
  6 11  1  0
 11 12  1  0
 12 13  2  0
 13 14  1  0
 14 15  2  0
 15 16  1  0
 16 17  2  0
 11 18  1  0
 18 19  1  0
 19 20  2  0
 20 21  1  0
 21 22  2  0
 22 23  1  0
 23 24  2  0
 24 25  1  0
 25 26  2  0
 26 27  1  0
 27 28  2  0
  8  3  1  0
 17 12  1  0
 28 19  1  0
 20  5  1  0
 28 23  1  0
  1 29  1  0
  1 30  1  0
  1 31  1  0
  4 32  1  0
  7 33  1  0
 10 34  1  0
 10 35  1  0
 10 36  1  0
 11 37  1  1
 13 38  1  0
 14 39  1  0
 15 40  1  0
 16 41  1  0
 17 42  1  0
 18 43  1  0
 18 44  1  0
 21 45  1  0
 22 46  1  0
 24 47  1  0
 25 48  1  0
 26 49  1  0
 27 50  1  0
M  CHG  1  18   1
M  END
>  <UniqueID>  (47) 
46

>  <SMILES>  (47) 
COc1cc2c(cc1OC)[C@@H](c1ccccc1)[NH2+]c1c-2ccc2ccccc12

>  <Energy>  (47) 
75.33057114084609

>  <Genealogy>  (47) 
COc1cc2c(cc1OC)C(c1ccccc1)[NH2+]c1c-2ccc2ccccc12 (protonated)
COc1cc2c(cc1OC)[C@@H](c1ccccc1)[NH2+]c1c-2ccc2ccccc12 (chirality)
COc1cc2c(cc1OC)[C@@H](c1ccccc1)[NH2+]c1c-2ccc2ccccc12 (3D coordinates assigned)
COc1cc2c(cc1OC)[C@@H](c1ccccc1)[NH2+]c1c-2ccc2ccccc12 (nonaromatic ring conformer: 75.33057114084609 kcal/mol)

>  <smiles>  (47) 
COc1cc2c(cc1OC)C(c1ccccc1)Nc1c-2ccc2ccccc12

>  <score_type>  (47) 
oracle

>  <origin>  (47) 
adg

>  <m_score__min__energy>  (47) 
-6.0599999999999996

>  <m_primary>  (47) 
energy

$$$$
47:0
     RDKit          3D

 27 29  0  0  0  0  0  0  0  0999 V2000
   59.6561   34.7653   47.8913 H   0  0  0  0  0  0  0  0  0  0  0  0
   59.3040   34.2820   46.9680 C   0  0  0  0  0  0  0  0  0  0  0  0
   59.5950   34.8570   45.7250 C   0  0  0  0  0  0  0  0  0  0  0  0
   60.1748   35.7905   45.6760 H   0  0  0  0  0  0  0  0  0  0  0  0
   59.1520   34.2500   44.5450 C   0  0  0  0  0  0  0  0  0  0  0  0
   59.3832   34.7039   43.5701 H   0  0  0  0  0  0  0  0  0  0  0  0
   58.4110   33.0590   44.6100 C   0  0  0  0  0  0  0  0  0  0  0  0
   58.1190   32.4790   45.8670 C   0  0  0  0  0  0  0  0  0  0  0  0
   57.3970   31.3200   45.9230 N   0  0  0  0  0  0  0  0  0  0  0  0
   56.9400   30.6820   44.8060 C   0  0  0  0  0  0  0  0  0  0  0  0
   56.2600   29.5780   44.9580 N   0  0  0  0  0  0  0  0  0  0  0  0
   56.7490   28.2290   45.2460 C   0  0  0  0  0  0  0  0  0  0  0  0
   55.9436   27.5049   45.0539 H   0  0  0  0  0  0  0  0  0  0  0  0
   57.0607   28.1846   46.3000 H   0  0  0  0  0  0  0  0  0  0  0  0
   57.9480   27.8880   44.3670 C   0  0  0  0  0  0  0  0  0  0  0  0
   58.8111   27.6425   45.0033 H   0  0  0  0  0  0  0  0  0  0  0  0
   57.7031   27.0239   43.7319 H   0  0  0  0  0  0  0  0  0  0  0  0
   58.1945   28.7517   43.7319 H   0  0  0  0  0  0  0  0  0  0  0  0
   57.2370   31.2750   43.5610 C   0  0  0  0  0  0  0  0  0  0  0  0
   56.8870   30.8540   42.3290 N   0  0  0  0  0  0  0  0  0  0  0  0
   57.3910   31.7450   41.4850 N   0  0  0  0  0  0  0  0  0  0  0  0
   57.2920   31.7020   40.4470 H   0  0  0  0  0  0  0  0  0  0  0  0
   58.0350   32.6940   42.1930 C   0  0  0  0  0  0  0  0  0  0  0  0
   58.5535   33.5634   41.7626 H   0  0  0  0  0  0  0  0  0  0  0  0
   57.9470   32.4160   43.5060 N   0  0  0  0  0  0  0  0  0  0  0  0
   58.5670   33.0950   47.0400 C   0  0  0  0  0  0  0  0  0  0  0  0
   58.3401   32.6465   48.0185 H   0  0  0  0  0  0  0  0  0  0  0  0
  1  2  1  0
  2  3  2  0
  3  4  1  0
  3  5  1  0
  5  6  1  0
  5  7  2  0
  7  8  1  0
  8  9  1  0
  9 10  1  0
 10 11  2  0
 11 12  1  0
 12 13  1  0
 12 14  1  0
 12 15  1  0
 15 16  1  0
 15 17  1  0
 15 18  1  0
 10 19  1  0
 19 20  2  0
 20 21  1  0
 21 22  1  0
 21 23  2  0
 23 24  1  0
 23 25  1  0
  8 26  2  0
 26 27  1  0
 26  2  1  0
 25  7  1  0
 25 19  1  0
M  CHG  2   9  -1  21   1
M  END
>  <UniqueID>  (48) 
47

>  <SMILES>  (48) 
CC/N=c1/[n-]c2ccccc2n2c[nH+]nc12

>  <Energy>  (48) 
77.24735579447103

>  <Genealogy>  (48) 
CCN=c1[n-]c2ccccc2n2c[nH+]nc12 (protonated)
CC/N=c1/[n-]c2ccccc2n2c[nH+]nc12 (cis-trans isomerization)
CC/N=c1/[n-]c2ccccc2n2c[nH+]nc12 (3D coordinates assigned)
CC/N=c1/[n-]c2ccccc2n2c[nH+]nc12 (optimized conformer: 77.24735579447103 kcal/mol)

>  <smiles>  (48) 
CCN=c1[nH]c2ccccc2n2cnnc12

>  <score_type>  (48) 
oracle

>  <origin>  (48) 
adg

>  <m_score__min__energy>  (48) 
-6.5

>  <m_primary>  (48) 
energy

$$$$
