0:0
     RDKit          3D

 34 35  0  0  0  0  0  0  0  0999 V2000
   57.8050   32.3190   41.5790 C   0  0  0  0  0  0  0  0  0  0  0  0
   57.4580   31.5830   42.8710 C   0  0  0  0  0  0  0  0  0  0  0  0
   56.5960   30.3350   42.6270 C   0  0  0  0  0  0  0  0  0  0  0  0
   55.8820   29.8540   43.8970 C   0  0  0  0  0  0  0  0  0  0  0  0
   56.6770   30.1310   45.0510 O   0  0  0  0  0  0  0  0  0  0  0  0
   57.9120   29.5360   45.3640 C   0  0  0  0  0  0  0  0  0  0  0  0
   58.1240   28.1470   45.2300 C   0  0  0  0  0  0  0  0  0  0  0  0
   59.3740   27.5890   45.5030 C   0  0  0  0  0  0  0  0  0  0  0  0
   60.4280   28.4030   45.9110 C   0  0  0  0  0  0  0  0  0  0  0  0
   60.2350   29.7760   46.0620 C   0  0  0  0  0  0  0  0  0  0  0  0
   58.9770   30.3540   45.8080 C   0  0  0  0  0  0  0  0  0  0  0  0
   58.8050   31.8140   45.9930 C   0  0  0  0  0  0  0  0  0  0  0  0
   59.8000   32.6070   46.2000 N   0  0  0  0  0  0  0  0  0  0  0  0
   59.3200   33.9730   46.3700 C   0  0  0  0  0  0  0  0  0  0  0  0
   57.7900   33.8730   46.2790 C   0  0  0  0  0  0  0  0  0  0  0  0
   57.5490   32.4690   46.0170 N   0  0  0  0  0  0  0  0  0  0  0  0
   58.2626   33.2895   41.8214 H   0  0  0  0  0  0  0  0  0  0  0  0
   58.5136   31.7159   40.9924 H   0  0  0  0  0  0  0  0  0  0  0  0
   56.8888   32.4819   40.9924 H   0  0  0  0  0  0  0  0  0  0  0  0
   58.3925   31.2750   43.3628 H   0  0  0  0  0  0  0  0  0  0  0  0
   56.8759   32.2719   43.5007 H   0  0  0  0  0  0  0  0  0  0  0  0
   55.8386   30.5732   41.8657 H   0  0  0  0  0  0  0  0  0  0  0  0
   57.2650   29.5276   42.2946 H   0  0  0  0  0  0  0  0  0  0  0  0
   54.9167   30.3734   43.9888 H   0  0  0  0  0  0  0  0  0  0  0  0
   55.7220   28.7680   43.8265 H   0  0  0  0  0  0  0  0  0  0  0  0
   57.2964   27.4982   44.9074 H   0  0  0  0  0  0  0  0  0  0  0  0
   59.5269   26.5050   45.3958 H   0  0  0  0  0  0  0  0  0  0  0  0
   61.4149   27.9619   46.1146 H   0  0  0  0  0  0  0  0  0  0  0  0
   61.0730   30.4125   46.3823 H   0  0  0  0  0  0  0  0  0  0  0  0
   59.6236   34.3700   47.3499 H   0  0  0  0  0  0  0  0  0  0  0  0
   59.7347   34.6532   45.6115 H   0  0  0  0  0  0  0  0  0  0  0  0
   57.3205   34.1811   47.2248 H   0  0  0  0  0  0  0  0  0  0  0  0
   57.3668   34.5285   45.5036 H   0  0  0  0  0  0  0  0  0  0  0  0
   56.6100   32.0120   46.0200 H   0  0  0  0  0  0  0  0  0  0  0  0
  1  2  1  0
  2  3  1  0
  3  4  1  0
  4  5  1  0
  5  6  1  0
  6  7  2  0
  7  8  1  0
  8  9  2  0
  9 10  1  0
 10 11  2  0
 11 12  1  0
 12 13  2  0
 13 14  1  0
 14 15  1  0
 15 16  1  0
 11  6  1  0
 16 12  1  0
  1 17  1  0
  1 18  1  0
  1 19  1  0
  2 20  1  0
  2 21  1  0
  3 22  1  0
  3 23  1  0
  4 24  1  0
  4 25  1  0
  7 26  1  0
  8 27  1  0
  9 28  1  0
 10 29  1  0
 14 30  1  0
 14 31  1  0
 15 32  1  0
 15 33  1  0
 16 34  1  0
M  END
>  <UniqueID>  (1) 
1

>  <SMILES>  (1) 
CCCCOc1ccccc1C1=NCCN1

>  <Energy>  (1) 
43.21411867960632

>  <Genealogy>  (1) 
CCCCOc1ccccc1C1=NCCN1 (3D coordinates assigned)
CCCCOc1ccccc1C1=NCCN1 (nonaromatic ring conformer: 43.21411867960632 kcal/mol)

>  <smiles>  (1) 
CCCCOc1ccccc1C1=NCCN1

>  <score_type>  (1) 
oracle

>  <origin>  (1) 
adg

>  <m_score__min__energy>  (1) 
-5.79

>  <m_primary>  (1) 
energy

$$$$
1:0
     RDKit          3D

 37 37  0  0  0  0  0  0  0  0999 V2000
   59.5590   35.1710   45.3550 C   0  0  0  0  0  0  0  0  0  0  0  0
   58.5730   34.1140   44.8690 C   0  0  0  0  0  0  0  0  0  0  0  0
   58.3420   33.1120   45.9160 N   0  0  0  0  0  0  0  0  0  0  0  0
   58.0680   33.5430   47.2930 C   0  0  0  0  0  0  0  0  0  0  0  0
   59.3250   33.4220   48.1470 C   0  0  0  0  0  0  0  0  0  0  0  0
   58.1290   31.7400   45.5420 C   0  0  0  0  0  0  0  0  0  0  0  0
   56.9910   31.3970   44.8940 N   0  0  0  0  0  0  0  0  0  0  0  0
   56.7560   30.1210   44.5190 C   0  0  0  0  0  0  0  0  0  0  0  0
   55.2680   29.7210   43.6850 Cl  0  0  0  0  0  0  0  0  0  0  0  0
   57.7000   29.1320   44.8010 C   0  0  0  0  0  0  0  0  0  0  0  0
   58.8790   29.4330   45.4500 N   0  0  0  0  0  0  0  0  0  0  0  0
   59.9040   28.3690   45.7510 C   0  0  0  0  0  0  0  0  0  0  0  0
   59.4010   26.9280   45.4540 C   0  0  0  0  0  0  0  0  0  0  0  0
   61.1660   28.5850   44.8830 C   0  0  0  0  0  0  0  0  0  0  0  0
   60.2820   28.3970   47.2530 C   0  0  0  0  0  0  0  0  0  0  0  0
   59.0980   30.7540   45.8070 C   0  0  0  0  0  0  0  0  0  0  0  0
   60.1750   31.1100   46.3550 O   0  0  0  0  0  0  0  0  0  0  0  0
   59.5706   35.1835   46.4549 H   0  0  0  0  0  0  0  0  0  0  0  0
   60.5656   34.9333   44.9803 H   0  0  0  0  0  0  0  0  0  0  0  0
   59.2520   36.1586   44.9803 H   0  0  0  0  0  0  0  0  0  0  0  0
   57.6189   34.5982   44.6135 H   0  0  0  0  0  0  0  0  0  0  0  0
   58.9920   33.6149   43.9828 H   0  0  0  0  0  0  0  0  0  0  0  0
   57.7344   34.5912   47.2853 H   0  0  0  0  0  0  0  0  0  0  0  0
   57.2836   32.9002   47.7190 H   0  0  0  0  0  0  0  0  0  0  0  0
   59.0490   33.4486   49.2115 H   0  0  0  0  0  0  0  0  0  0  0  0
   59.8304   32.4711   47.9229 H   0  0  0  0  0  0  0  0  0  0  0  0
   60.0025   34.2591   47.9229 H   0  0  0  0  0  0  0  0  0  0  0  0
   57.4997   28.0931   44.4999 H   0  0  0  0  0  0  0  0  0  0  0  0
   59.2171   26.4012   46.4020 H   0  0  0  0  0  0  0  0  0  0  0  0
   58.4671   26.9777   44.8750 H   0  0  0  0  0  0  0  0  0  0  0  0
   60.1630   26.3857   44.8750 H   0  0  0  0  0  0  0  0  0  0  0  0
   62.0388   28.7344   45.5357 H   0  0  0  0  0  0  0  0  0  0  0  0
   61.3299   27.7018   44.2480 H   0  0  0  0  0  0  0  0  0  0  0  0
   61.0268   29.4724   44.2480 H   0  0  0  0  0  0  0  0  0  0  0  0
   59.3687   28.3293   47.8623 H   0  0  0  0  0  0  0  0  0  0  0  0
   60.9392   27.5451   47.4816 H   0  0  0  0  0  0  0  0  0  0  0  0
   60.8065   29.3365   47.4816 H   0  0  0  0  0  0  0  0  0  0  0  0
  1  2  1  0
  2  3  1  0
  3  4  1  0
  4  5  1  0
  3  6  1  0
  6  7  2  0
  7  8  1  0
  8  9  1  0
  8 10  2  0
 10 11  1  0
 11 12  1  0
 12 13  1  0
 12 14  1  0
 12 15  1  0
 11 16  1  0
 16 17  2  0
 16  6  1  0
  1 18  1  0
  1 19  1  0
  1 20  1  0
  2 21  1  0
  2 22  1  0
  4 23  1  0
  4 24  1  0
  5 25  1  0
  5 26  1  0
  5 27  1  0
 10 28  1  0
 13 29  1  0
 13 30  1  0
 13 31  1  0
 14 32  1  0
 14 33  1  0
 14 34  1  0
 15 35  1  0
 15 36  1  0
 15 37  1  0
M  END
>  <UniqueID>  (2) 
2

>  <SMILES>  (2) 
CCN(CC)c1nc(Cl)cn(C(C)(C)C)c1=O

>  <Energy>  (2) 
42.662248415375316

>  <Genealogy>  (2) 
CCN(CC)c1nc(Cl)cn(C(C)(C)C)c1=O (3D coordinates assigned)
CCN(CC)c1nc(Cl)cn(C(C)(C)C)c1=O (optimized conformer: 42.662248415375316 kcal/mol)

>  <smiles>  (2) 
CCN(CC)c1nc(Cl)cn(C(C)(C)C)c1=O

>  <score_type>  (2) 
oracle

>  <origin>  (2) 
adg

>  <m_score__min__energy>  (2) 
-5.5499999999999998

>  <m_primary>  (2) 
energy

$$$$
2:0
     RDKit          3D

 53 56  0  0  0  0  0  0  0  0999 V2000
   60.8730   30.3340   49.5950 C   0  0  0  0  0  0  0  0  0  0  0  0
   60.4930   28.9630   49.5220 O   0  0  0  0  0  0  0  0  0  0  0  0
   60.2340   28.2750   48.3280 C   0  0  0  0  0  0  0  0  0  0  0  0
   60.6850   26.9620   48.1010 C   0  0  0  0  0  0  0  0  0  0  0  0
   60.4040   26.3220   46.8920 C   0  0  0  0  0  0  0  0  0  0  0  0
   59.6730   26.9800   45.9020 C   0  0  0  0  0  0  0  0  0  0  0  0
   59.2120   28.2910   46.1110 C   0  0  0  0  0  0  0  0  0  0  0  0
   58.4320   28.9970   45.0630 C   0  0  0  0  0  0  0  0  0  0  0  0
   57.7360   28.2780   44.0870 C   0  0  0  0  0  0  0  0  0  0  0  0
   57.0230   28.9650   43.1140 C   0  0  0  0  0  0  0  0  0  0  0  0
   57.0250   30.3570   43.1170 C   0  0  0  0  0  0  0  0  0  0  0  0
   56.3560   30.9720   42.2440 O   0  0  0  0  0  0  0  0  0  0  0  0
   57.7390   31.0360   44.0720 N   0  0  0  0  0  0  0  0  0  0  0  0
   57.7690   32.5150   44.0950 C   0  0  0  0  0  0  0  0  0  0  0  0
   58.5940   33.0560   45.2000 N   0  0  0  0  0  0  0  0  0  0  0  0
   57.8880   33.0920   46.4890 C   0  0  0  0  0  0  0  0  0  0  0  0
   58.9130   33.2310   47.6220 C   0  0  0  0  0  0  0  0  0  0  0  0
   60.1100   33.9540   47.1700 N   0  0  0  0  0  0  0  0  0  0  0  0
   61.3190   33.8750   47.9430 C   0  0  0  0  0  0  0  0  0  0  0  0
   62.5400   33.5630   47.3220 C   0  0  0  0  0  0  0  0  0  0  0  0
   63.7170   33.4890   48.0750 C   0  0  0  0  0  0  0  0  0  0  0  0
   63.6840   33.7310   49.4500 C   0  0  0  0  0  0  0  0  0  0  0  0
   62.4750   34.0510   50.0750 C   0  0  0  0  0  0  0  0  0  0  0  0
   61.2960   34.1250   49.3270 C   0  0  0  0  0  0  0  0  0  0  0  0
   60.1380   34.4690   49.9440 F   0  0  0  0  0  0  0  0  0  0  0  0
   60.0070   34.9290   46.0750 C   0  0  0  0  0  0  0  0  0  0  0  0
   59.1930   34.3700   44.8890 C   0  0  0  0  0  0  0  0  0  0  0  0
   58.3970   30.3620   45.0290 N   0  0  0  0  0  0  0  0  0  0  0  0
   59.5000   28.9290   47.3310 C   0  0  0  0  0  0  0  0  0  0  0  0
   60.9566   30.6357   50.6495 H   0  0  0  0  0  0  0  0  0  0  0  0
   61.8434   30.4726   49.0959 H   0  0  0  0  0  0  0  0  0  0  0  0
   60.1124   30.9524   49.0959 H   0  0  0  0  0  0  0  0  0  0  0  0
   61.2607   26.4379   48.8781 H   0  0  0  0  0  0  0  0  0  0  0  0
   60.7601   25.2956   46.7195 H   0  0  0  0  0  0  0  0  0  0  0  0
   59.4563   26.4693   44.9521 H   0  0  0  0  0  0  0  0  0  0  0  0
   57.7531   27.1781   44.0899 H   0  0  0  0  0  0  0  0  0  0  0  0
   56.4606   28.4134   42.3463 H   0  0  0  0  0  0  0  0  0  0  0  0
   58.1821   32.8729   43.1404 H   0  0  0  0  0  0  0  0  0  0  0  0
   56.7376   32.8645   44.2504 H   0  0  0  0  0  0  0  0  0  0  0  0
   57.2001   33.9502   46.5079 H   0  0  0  0  0  0  0  0  0  0  0  0
   57.3139   32.1631   46.6220 H   0  0  0  0  0  0  0  0  0  0  0  0
   58.4539   33.7828   48.4555 H   0  0  0  0  0  0  0  0  0  0  0  0
   59.2154   32.2235   47.9437 H   0  0  0  0  0  0  0  0  0  0  0  0
   62.5708   33.3760   46.2385 H   0  0  0  0  0  0  0  0  0  0  0  0
   64.6691   33.2400   47.5835 H   0  0  0  0  0  0  0  0  0  0  0  0
   64.6094   33.6698   50.0415 H   0  0  0  0  0  0  0  0  0  0  0  0
   62.4513   34.2450   51.1575 H   0  0  0  0  0  0  0  0  0  0  0  0
   59.5121   35.8366   46.4510 H   0  0  0  0  0  0  0  0  0  0  0  0
   61.0231   35.1535   45.7185 H   0  0  0  0  0  0  0  0  0  0  0  0
   58.3878   35.0787   44.6454 H   0  0  0  0  0  0  0  0  0  0  0  0
   59.8780   34.2386   44.0384 H   0  0  0  0  0  0  0  0  0  0  0  0
   58.8920   30.8940   45.7800 H   0  0  0  0  0  0  0  0  0  0  0  0
   59.1439   29.9553   47.5041 H   0  0  0  0  0  0  0  0  0  0  0  0
  1  2  1  0
  2  3  1  0
  3  4  2  0
  4  5  1  0
  5  6  2  0
  6  7  1  0
  7  8  1  0
  8  9  1  0
  9 10  2  0
 10 11  1  0
 11 12  2  0
 11 13  1  0
 13 14  1  0
 14 15  1  0
 15 16  1  0
 16 17  1  0
 17 18  1  0
 18 19  1  0
 19 20  2  0
 20 21  1  0
 21 22  2  0
 22 23  1  0
 23 24  2  0
 24 25  1  0
 18 26  1  0
 26 27  1  0
 13 28  1  0
  7 29  2  0
 29  3  1  0
 28  8  2  0
 27 15  1  0
 24 19  1  0
  1 30  1  0
  1 31  1  0
  1 32  1  0
  4 33  1  0
  5 34  1  0
  6 35  1  0
  9 36  1  0
 10 37  1  0
 14 38  1  0
 14 39  1  0
 16 40  1  0
 16 41  1  0
 17 42  1  0
 17 43  1  0
 20 44  1  0
 21 45  1  0
 22 46  1  0
 23 47  1  0
 26 48  1  0
 26 49  1  0
 27 50  1  0
 27 51  1  0
 28 52  1  0
 29 53  1  0
M  CHG  1  28   1
M  END
>  <UniqueID>  (3) 
3

>  <SMILES>  (3) 
COc1cccc(-c2ccc(=O)n(CN3CCN(c4ccccc4F)CC3)[nH+]2)c1

>  <Energy>  (3) 
76.11027867067104

>  <Genealogy>  (3) 
COc1cccc(-c2ccc(=O)n(CN3CCN(c4ccccc4F)CC3)[nH+]2)c1 (protonated)
COc1cccc(-c2ccc(=O)n(CN3CCN(c4ccccc4F)CC3)[nH+]2)c1 (3D coordinates assigned)
COc1cccc(-c2ccc(=O)n(CN3CCN(c4ccccc4F)CC3)[nH+]2)c1 (nonaromatic ring conformer: 76.11027867067104 kcal/mol)

>  <smiles>  (3) 
COc1cccc(-c2ccc(=O)n(CN3CCN(c4ccccc4F)CC3)n2)c1

>  <score_type>  (3) 
oracle

>  <origin>  (3) 
adg

>  <m_score__min__energy>  (3) 
-7.3899999999999997

>  <m_primary>  (3) 
energy

$$$$
3:0
     RDKit          3D

 59 63  0  0  0  0  0  0  0  0999 V2000
   58.0653   33.0968   41.4807 H   0  0  0  0  0  0  0  0  0  0  0  0
   57.7230   32.3900   42.2510 C   0  0  0  0  0  0  0  0  0  0  0  0
   57.0530   31.2240   41.8790 C   0  0  0  0  0  0  0  0  0  0  0  0
   56.8755   31.0088   40.8150 H   0  0  0  0  0  0  0  0  0  0  0  0
   56.6070   30.3290   42.8550 C   0  0  0  0  0  0  0  0  0  0  0  0
   56.0709   29.4160   42.5567 H   0  0  0  0  0  0  0  0  0  0  0  0
   56.8410   30.5910   44.2200 C   0  0  0  0  0  0  0  0  0  0  0  0
   56.3960   29.7260   45.2320 O   0  0  0  0  0  0  0  0  0  0  0  0
   57.0610   28.5280   45.6190 C   0  0  0  0  0  0  0  0  0  0  0  0
   57.0954   28.4660   46.7167 H   0  0  0  0  0  0  0  0  0  0  0  0
   56.5154   27.6603   45.2196 H   0  0  0  0  0  0  0  0  0  0  0  0
   58.0859   28.5321   45.2196 H   0  0  0  0  0  0  0  0  0  0  0  0
   57.5460   31.7490   44.5880 C   0  0  0  0  0  0  0  0  0  0  0  0
   57.7350   32.0450   45.9810 N   0  0  0  0  0  0  0  0  0  0  0  0
   58.8630   32.0970   46.6340 C   0  0  0  0  0  0  0  0  0  0  0  0
   59.0130   31.2880   47.7620 C   0  0  0  0  0  0  0  0  0  0  0  0
   58.1888   30.6299   48.0743 H   0  0  0  0  0  0  0  0  0  0  0  0
   60.2030   31.3070   48.4990 C   0  0  0  0  0  0  0  0  0  0  0  0
   60.3150   30.4030   49.6680 C   0  0  0  0  0  0  0  0  0  0  0  0
   61.1540   29.4620   49.6350 O   0  0  0  0  0  0  0  0  0  0  0  0
   59.4320   30.5320   50.8010 N   0  0  0  0  0  0  0  0  0  0  0  0
   59.1210   29.3360   51.6010 C   0  0  0  0  0  0  0  0  0  0  0  0
   58.6737   28.5741   50.9457 H   0  0  0  0  0  0  0  0  0  0  0  0
   60.0558   28.9676   52.0486 H   0  0  0  0  0  0  0  0  0  0  0  0
   58.1400   29.6570   52.7330 C   0  0  0  0  0  0  0  0  0  0  0  0
   57.7044   28.7221   53.1153 H   0  0  0  0  0  0  0  0  0  0  0  0
   58.6754   30.1738   53.5431 H   0  0  0  0  0  0  0  0  0  0  0  0
   57.0670   30.5250   52.2280 N   0  0  0  0  0  0  0  0  0  0  0  0
   55.6840   30.1510   52.3820 C   0  0  0  0  0  0  0  0  0  0  0  0
   54.6770   30.8490   51.6920 C   0  0  0  0  0  0  0  0  0  0  0  0
   54.9473   31.6790   51.0226 H   0  0  0  0  0  0  0  0  0  0  0  0
   53.3340   30.4940   51.8520 C   0  0  0  0  0  0  0  0  0  0  0  0
   52.5520   31.0430   51.3070 H   0  0  0  0  0  0  0  0  0  0  0  0
   52.9840   29.4420   52.7040 C   0  0  0  0  0  0  0  0  0  0  0  0
   51.2990   28.9970   52.9030 Cl  0  0  0  0  0  0  0  0  0  0  0  0
   53.9790   28.7460   53.3980 C   0  0  0  0  0  0  0  0  0  0  0  0
   53.7039   27.9182   54.0681 H   0  0  0  0  0  0  0  0  0  0  0  0
   55.3220   29.1000   53.2420 C   0  0  0  0  0  0  0  0  0  0  0  0
   56.0998   28.5532   53.7952 H   0  0  0  0  0  0  0  0  0  0  0  0
   57.4100   31.7530   51.4920 C   0  0  0  0  0  0  0  0  0  0  0  0
   56.8751   31.7551   50.5308 H   0  0  0  0  0  0  0  0  0  0  0  0
   57.1153   32.6172   52.1054 H   0  0  0  0  0  0  0  0  0  0  0  0
   58.9170   31.8440   51.2240 C   0  0  0  0  0  0  0  0  0  0  0  0
   59.1020   32.5816   50.4292 H   0  0  0  0  0  0  0  0  0  0  0  0
   59.4302   32.1536   52.1464 H   0  0  0  0  0  0  0  0  0  0  0  0
   61.2550   32.1570   48.0880 C   0  0  0  0  0  0  0  0  0  0  0  0
   62.4620   32.2720   48.8100 C   0  0  0  0  0  0  0  0  0  0  0  0
   62.6023   31.6925   49.7344 H   0  0  0  0  0  0  0  0  0  0  0  0
   63.4800   33.1160   48.3600 C   0  0  0  0  0  0  0  0  0  0  0  0
   64.4192   33.1925   48.9274 H   0  0  0  0  0  0  0  0  0  0  0  0
   63.3100   33.8620   47.1940 C   0  0  0  0  0  0  0  0  0  0  0  0
   64.1186   34.5180   46.8394 H   0  0  0  0  0  0  0  0  0  0  0  0
   62.1160   33.7780   46.4760 C   0  0  0  0  0  0  0  0  0  0  0  0
   61.9861   34.3718   45.5592 H   0  0  0  0  0  0  0  0  0  0  0  0
   61.0790   32.9390   46.9180 C   0  0  0  0  0  0  0  0  0  0  0  0
   59.9050   32.8820   46.2220 N   0  0  0  0  0  0  0  0  0  0  0  0
   59.8300   33.4360   45.3400 H   0  0  0  0  0  0  0  0  0  0  0  0
   57.9590   32.6600   43.5990 C   0  0  0  0  0  0  0  0  0  0  0  0
   58.4703   33.5895   43.8899 H   0  0  0  0  0  0  0  0  0  0  0  0
  1  2  1  0
  2  3  2  0
  3  4  1  0
  3  5  1  0
  5  6  1  0
  5  7  2  0
  7  8  1  0
  8  9  1  0
  9 10  1  0
  9 11  1  0
  9 12  1  0
  7 13  1  0
 13 14  1  0
 14 15  2  0
 15 16  1  0
 16 17  1  0
 16 18  2  0
 18 19  1  0
 19 20  2  0
 19 21  1  0
 21 22  1  0
 22 23  1  0
 22 24  1  0
 22 25  1  0
 25 26  1  0
 25 27  1  0
 25 28  1  0
 28 29  1  0
 29 30  2  0
 30 31  1  0
 30 32  1  0
 32 33  1  0
 32 34  2  0
 34 35  1  0
 34 36  1  0
 36 37  1  0
 36 38  2  0
 38 39  1  0
 28 40  1  0
 40 41  1  0
 40 42  1  0
 40 43  1  0
 43 44  1  0
 43 45  1  0
 18 46  1  0
 46 47  2  0
 47 48  1  0
 47 49  1  0
 49 50  1  0
 49 51  2  0
 51 52  1  0
 51 53  1  0
 53 54  1  0
 53 55  2  0
 55 56  1  0
 56 57  1  0
 13 58  2  0
 58 59  1  0
 58  2  1  0
 56 15  1  0
 43 21  1  0
 55 46  1  0
 38 29  1  0
M  END
>  <UniqueID>  (4) 
4

>  <SMILES>  (4) 
COc1ccccc1/N=c1/cc(C(=O)N2CCN(c3ccc(Cl)cc3)CC2)c2ccccc2[nH]1

>  <Energy>  (4) 
89.35005486495486

>  <Genealogy>  (4) 
COc1ccccc1/N=c1/cc(C(=O)N2CCN(c3ccc(Cl)cc3)CC2)c2ccccc2[nH]1 (cis-trans isomerization)
COc1ccccc1/N=c1/cc(C(=O)N2CCN(c3ccc(Cl)cc3)CC2)c2ccccc2[nH]1 (3D coordinates assigned)
COc1ccccc1/N=c1/cc(C(=O)N2CCN(c3ccc(Cl)cc3)CC2)c2ccccc2[nH]1 (nonaromatic ring conformer: 89.35005486495486 kcal/mol)

>  <smiles>  (4) 
COc1ccccc1N=c1cc(C(=O)N2CCN(c3ccc(Cl)cc3)CC2)c2ccccc2[nH]1

>  <score_type>  (4) 
oracle

>  <origin>  (4) 
adg

>  <m_score__min__energy>  (4) 
-9.4299999999999997

>  <m_primary>  (4) 
energy

$$$$
4:0
     RDKit          3D

 44 46  0  0  0  0  0  0  0  0999 V2000
   61.3890   32.6910   47.1290 C   0  0  0  0  0  0  0  0  0  0  0  0
   61.5300   31.1700   47.1810 C   0  0  0  0  0  0  0  0  0  0  0  0
   60.5460   30.5050   48.1550 C   0  0  0  0  0  0  0  0  0  0  0  0
   60.2330   29.0280   47.8520 C   0  0  0  0  0  0  0  0  0  0  0  0
   58.8370   28.7900   47.4680 N   0  0  0  0  0  0  0  0  0  0  0  0
   58.2910   28.9060   46.1390 C   0  0  0  0  0  0  0  0  0  0  0  0
   57.7330   27.8570   45.4020 C   0  0  0  0  0  0  0  0  0  0  0  0
   57.5990   26.4310   45.7910 C   0  0  0  0  0  0  0  0  0  0  0  0
   58.6850   25.5580   45.6140 C   0  0  0  0  0  0  0  0  0  0  0  0
   58.5850   24.2150   45.9860 C   0  0  0  0  0  0  0  0  0  0  0  0
   57.4040   23.7180   46.5480 C   0  0  0  0  0  0  0  0  0  0  0  0
   57.3530   22.3610   46.9030 O   0  0  0  0  0  0  0  0  0  0  0  0
   57.3850   21.2860   45.9700 C   0  0  0  0  0  0  0  0  0  0  0  0
   56.3170   24.5900   46.7370 C   0  0  0  0  0  0  0  0  0  0  0  0
   56.4170   25.9330   46.3640 C   0  0  0  0  0  0  0  0  0  0  0  0
   57.2480   28.3570   44.2430 N   0  0  0  0  0  0  0  0  0  0  0  0
   57.4940   29.6780   44.2990 C   0  0  0  0  0  0  0  0  0  0  0  0
   57.1250   30.6130   43.3330 C   0  0  0  0  0  0  0  0  0  0  0  0
   57.3990   31.9630   43.5910 C   0  0  0  0  0  0  0  0  0  0  0  0
   58.0070   32.3410   44.8010 C   0  0  0  0  0  0  0  0  0  0  0  0
   58.3440   34.1850   45.1690 Br  0  0  0  0  0  0  0  0  0  0  0  0
   58.3520   31.3590   45.7410 C   0  0  0  0  0  0  0  0  0  0  0  0
   58.1100   30.0510   45.4390 N   0  0  0  0  0  0  0  0  0  0  0  0
   61.3519   33.0910   48.1530 H   0  0  0  0  0  0  0  0  0  0  0  0
   62.2511   33.1212   46.5983 H   0  0  0  0  0  0  0  0  0  0  0  0
   60.4625   32.9554   46.5983 H   0  0  0  0  0  0  0  0  0  0  0  0
   61.3505   30.7674   46.1732 H   0  0  0  0  0  0  0  0  0  0  0  0
   62.5459   30.9475   47.5394 H   0  0  0  0  0  0  0  0  0  0  0  0
   60.9744   30.5631   49.1665 H   0  0  0  0  0  0  0  0  0  0  0  0
   59.5955   31.0492   48.0531 H   0  0  0  0  0  0  0  0  0  0  0  0
   60.8817   28.6971   47.0275 H   0  0  0  0  0  0  0  0  0  0  0  0
   60.4133   28.4635   48.7787 H   0  0  0  0  0  0  0  0  0  0  0  0
   58.2200   28.3820   48.2050 H   0  0  0  0  0  0  0  0  0  0  0  0
   59.6223   25.9349   45.1788 H   0  0  0  0  0  0  0  0  0  0  0  0
   59.4423   23.5424   45.8357 H   0  0  0  0  0  0  0  0  0  0  0  0
   57.4135   20.3299   46.5131 H   0  0  0  0  0  0  0  0  0  0  0  0
   56.4854   21.3221   45.3380 H   0  0  0  0  0  0  0  0  0  0  0  0
   58.2809   21.3755   45.3380 H   0  0  0  0  0  0  0  0  0  0  0  0
   55.3836   24.2131   47.1806 H   0  0  0  0  0  0  0  0  0  0  0  0
   55.5618   26.6068   46.5206 H   0  0  0  0  0  0  0  0  0  0  0  0
   56.7700   27.8380   43.4740 H   0  0  0  0  0  0  0  0  0  0  0  0
   56.6348   30.3014   42.3989 H   0  0  0  0  0  0  0  0  0  0  0  0
   57.1378   32.7284   42.8453 H   0  0  0  0  0  0  0  0  0  0  0  0
   58.8084   31.6379   46.7022 H   0  0  0  0  0  0  0  0  0  0  0  0
  1  2  1  0
  2  3  1  0
  3  4  1  0
  4  5  1  0
  5  6  1  0
  6  7  2  0
  7  8  1  0
  8  9  2  0
  9 10  1  0
 10 11  2  0
 11 12  1  0
 12 13  1  0
 11 14  1  0
 14 15  2  0
  7 16  1  0
 16 17  2  0
 17 18  1  0
 18 19  2  0
 19 20  1  0
 20 21  1  0
 20 22  2  0
 22 23  1  0
 23  6  1  0
 15  8  1  0
 23 17  1  0
  1 24  1  0
  1 25  1  0
  1 26  1  0
  2 27  1  0
  2 28  1  0
  3 29  1  0
  3 30  1  0
  4 31  1  0
  4 32  1  0
  5 33  1  0
  9 34  1  0
 10 35  1  0
 13 36  1  0
 13 37  1  0
 13 38  1  0
 14 39  1  0
 15 40  1  0
 16 41  1  0
 18 42  1  0
 19 43  1  0
 22 44  1  0
M  CHG  1  16   1
M  END
>  <UniqueID>  (5) 
5

>  <SMILES>  (5) 
CCCCNc1c(-c2ccc(OC)cc2)[nH+]c2ccc(Br)cn12

>  <Energy>  (5) 
84.53589387931015

>  <Genealogy>  (5) 
CCCCNc1c(-c2ccc(OC)cc2)[nH+]c2ccc(Br)cn12 (protonated)
CCCCNc1c(-c2ccc(OC)cc2)[nH+]c2ccc(Br)cn12 (3D coordinates assigned)
CCCCNc1c(-c2ccc(OC)cc2)[nH+]c2ccc(Br)cn12 (optimized conformer: 84.53589387931015 kcal/mol)

>  <smiles>  (5) 
CCCCNc1c(-c2ccc(OC)cc2)nc2ccc(Br)cn12

>  <score_type>  (5) 
oracle

>  <origin>  (5) 
adg

>  <m_score__min__energy>  (5) 
-5.8799999999999999

>  <m_primary>  (5) 
energy

$$$$
5:0
     RDKit          3D

 50 51  0  0  0  0  0  0  0  0999 V2000
   59.0120   27.7220   45.2330 C   0  0  0  0  0  0  0  0  0  0  0  0
   59.9690   28.2440   46.3010 C   0  0  0  0  0  0  0  0  0  0  0  0
   60.8810   29.3360   45.7370 C   0  0  0  0  0  0  0  0  0  0  0  0
   61.2060   30.5900   46.9660 S   0  0  0  0  0  0  0  0  0  0  0  0
   60.7450   30.1210   48.3180 O   0  0  0  0  0  0  0  0  0  0  0  0
   62.6850   30.8460   47.0290 O   0  0  0  0  0  0  0  0  0  0  0  0
   60.3470   32.0410   46.5350 N   0  0  0  0  0  0  0  0  0  0  0  0
   60.7740   33.3290   46.6280 C   0  0  0  0  0  0  0  0  0  0  0  0
   62.3780   33.8520   47.2460 S   0  0  0  0  0  0  0  0  0  0  0  0
   61.8010   34.1720   48.9560 C   0  0  0  0  0  0  0  0  0  0  0  0
   61.5770   32.8680   49.7570 C   0  0  0  0  0  0  0  0  0  0  0  0
   62.6470   31.8490   49.6230 N   0  0  0  0  0  0  0  0  0  0  0  0
   63.9970   32.4420   49.5740 C   0  0  0  0  0  0  0  0  0  0  0  0
   62.5710   30.7980   50.6510 C   0  0  0  0  0  0  0  0  0  0  0  0
   59.8180   34.2060   46.1290 C   0  0  0  0  0  0  0  0  0  0  0  0
   58.7760   33.4000   45.7230 C   0  0  0  0  0  0  0  0  0  0  0  0
   57.5550   33.7000   45.1280 C   0  0  0  0  0  0  0  0  0  0  0  0
   57.2250   34.8920   44.8860 O   0  0  0  0  0  0  0  0  0  0  0  0
   56.7330   32.6960   44.8120 O   0  0  0  0  0  0  0  0  0  0  0  0
   57.0300   31.4070   45.0380 C   0  0  0  0  0  0  0  0  0  0  0  0
   56.0910   30.4370   44.6580 O   0  0  0  0  0  0  0  0  0  0  0  0
   56.1540   29.6870   43.4480 C   0  0  0  0  0  0  0  0  0  0  0  0
   56.6480   30.5800   42.3220 C   0  0  0  0  0  0  0  0  0  0  0  0
   58.2640   31.0590   45.6400 C   0  0  0  0  0  0  0  0  0  0  0  0
   59.1220   32.1060   45.9760 C   0  0  0  0  0  0  0  0  0  0  0  0
   58.1449   27.2490   45.7172 H   0  0  0  0  0  0  0  0  0  0  0  0
   58.6706   28.5588   44.6060 H   0  0  0  0  0  0  0  0  0  0  0  0
   59.5307   26.9819   44.6060 H   0  0  0  0  0  0  0  0  0  0  0  0
   59.3845   28.6594   47.1351 H   0  0  0  0  0  0  0  0  0  0  0  0
   60.5961   27.4090   46.6466 H   0  0  0  0  0  0  0  0  0  0  0  0
   61.8333   28.8837   45.4231 H   0  0  0  0  0  0  0  0  0  0  0  0
   60.3784   29.8060   44.8788 H   0  0  0  0  0  0  0  0  0  0  0  0
   62.5561   34.7803   49.4755 H   0  0  0  0  0  0  0  0  0  0  0  0
   60.8358   34.6957   48.8916 H   0  0  0  0  0  0  0  0  0  0  0  0
   61.4920   33.1334   50.8211 H   0  0  0  0  0  0  0  0  0  0  0  0
   60.6671   32.4094   49.3426 H   0  0  0  0  0  0  0  0  0  0  0  0
   62.4940   31.3780   48.6980 H   0  0  0  0  0  0  0  0  0  0  0  0
   64.3641   32.6032   50.5983 H   0  0  0  0  0  0  0  0  0  0  0  0
   64.6780   31.7601   49.0436 H   0  0  0  0  0  0  0  0  0  0  0  0
   63.9556   33.4048   49.0436 H   0  0  0  0  0  0  0  0  0  0  0  0
   62.6043   31.2586   51.6494 H   0  0  0  0  0  0  0  0  0  0  0  0
   61.6301   30.2398   50.5359 H   0  0  0  0  0  0  0  0  0  0  0  0
   63.4218   30.1103   50.5359 H   0  0  0  0  0  0  0  0  0  0  0  0
   59.8795   35.3027   46.0708 H   0  0  0  0  0  0  0  0  0  0  0  0
   56.8466   28.8421   43.5763 H   0  0  0  0  0  0  0  0  0  0  0  0
   55.1520   29.3064   43.2006 H   0  0  0  0  0  0  0  0  0  0  0  0
   57.1392   31.4679   42.7468 H   0  0  0  0  0  0  0  0  0  0  0  0
   57.3671   30.0245   41.7021 H   0  0  0  0  0  0  0  0  0  0  0  0
   55.7953   30.8940   41.7021 H   0  0  0  0  0  0  0  0  0  0  0  0
   58.5335   30.0103   45.8338 H   0  0  0  0  0  0  0  0  0  0  0  0
  1  2  1  0
  2  3  1  0
  3  4  1  0
  4  5  2  0
  4  6  2  0
  4  7  1  0
  7  8  1  0
  8  9  1  0
  9 10  1  0
 10 11  1  0
 11 12  1  0
 12 13  1  0
 12 14  1  0
  8 15  2  0
 15 16  1  0
 16 17  1  0
 17 18  2  0
 17 19  1  0
 19 20  1  0
 20 21  1  0
 21 22  1  0
 22 23  1  0
 20 24  2  0
 24 25  1  0
 25  7  1  0
 25 16  2  0
  1 26  1  0
  1 27  1  0
  1 28  1  0
  2 29  1  0
  2 30  1  0
  3 31  1  0
  3 32  1  0
 10 33  1  0
 10 34  1  0
 11 35  1  0
 11 36  1  0
 12 37  1  0
 13 38  1  0
 13 39  1  0
 13 40  1  0
 14 41  1  0
 14 42  1  0
 14 43  1  0
 15 44  1  0
 22 45  1  0
 22 46  1  0
 23 47  1  0
 23 48  1  0
 23 49  1  0
 24 50  1  0
M  CHG  1  12   1
M  END
>  <UniqueID>  (6) 
6

>  <SMILES>  (6) 
CCCS(=O)(=O)n1c(SCC[NH+](C)C)cc2c(=O)oc(OCC)cc21

>  <Energy>  (6) 
75.98513204978978

>  <Genealogy>  (6) 
CCCS(=O)(=O)n1c(SCC[NH+](C)C)cc2c(=O)oc(OCC)cc21 (protonated)
CCCS(=O)(=O)n1c(SCC[NH+](C)C)cc2c(=O)oc(OCC)cc21 (3D coordinates assigned)
CCCS(=O)(=O)n1c(SCC[NH+](C)C)cc2c(=O)oc(OCC)cc21 (optimized conformer: 75.98513204978978 kcal/mol)

>  <smiles>  (6) 
CCCS(=O)(=O)n1c(SCCN(C)C)cc2c(=O)oc(OCC)cc21

>  <score_type>  (6) 
oracle

>  <origin>  (6) 
adg

>  <m_score__min__energy>  (6) 
-4.7800000000000002

>  <m_primary>  (6) 
energy

$$$$
6:0
     RDKit          3D

 42 44  0  0  0  0  0  0  0  0999 V2000
   56.7020   29.4120   43.6420 C   0  0  0  0  0  0  0  0  0  0  0  0
   56.7530   30.1170   44.8790 O   0  0  0  0  0  0  0  0  0  0  0  0
   57.3900   31.3530   45.0600 C   0  0  0  0  0  0  0  0  0  0  0  0
   57.5000   32.3030   44.0280 C   0  0  0  0  0  0  0  0  0  0  0  0
   58.1400   33.5220   44.2570 C   0  0  0  0  0  0  0  0  0  0  0  0
   58.6770   33.8110   45.5200 C   0  0  0  0  0  0  0  0  0  0  0  0
   58.5860   32.8650   46.5600 C   0  0  0  0  0  0  0  0  0  0  0  0
   57.9320   31.6420   46.3190 C   0  0  0  0  0  0  0  0  0  0  0  0
   59.1750   33.1750   47.8470 N   0  0  0  0  0  0  0  0  0  0  0  0
   59.7090   32.1290   48.7360 C   0  0  0  0  0  0  0  0  0  0  0  0
   61.1250   32.4740   49.2480 C   0  0  0  0  0  0  0  0  0  0  0  0
   61.8870   33.3800   48.3440 N   0  0  0  0  0  0  0  0  0  0  0  0
   62.3180   32.6780   47.1060 C   0  0  0  0  0  0  0  0  0  0  0  0
   63.7180   32.0400   47.2350 C   0  0  0  0  0  0  0  0  0  0  0  0
   64.0270   31.7730   48.5840 O   0  0  0  0  0  0  0  0  0  0  0  0
   64.1760   32.9870   49.3000 C   0  0  0  0  0  0  0  0  0  0  0  0
   63.0540   34.0100   49.0020 C   0  0  0  0  0  0  0  0  0  0  0  0
   59.2710   34.5890   48.2410 C   0  0  0  0  0  0  0  0  0  0  0  0
   59.7680   35.3880   47.1260 N   0  0  0  0  0  0  0  0  0  0  0  0
   59.3710   35.0840   45.7900 C   0  0  0  0  0  0  0  0  0  0  0  0
   59.6400   35.8910   44.8600 O   0  0  0  0  0  0  0  0  0  0  0  0
   56.6239   28.3325   43.8382 H   0  0  0  0  0  0  0  0  0  0  0  0
   55.8256   29.7444   43.0664 H   0  0  0  0  0  0  0  0  0  0  0  0
   57.6172   29.6148   43.0664 H   0  0  0  0  0  0  0  0  0  0  0  0
   57.0794   32.0838   43.0355 H   0  0  0  0  0  0  0  0  0  0  0  0
   58.2235   34.2585   43.4442 H   0  0  0  0  0  0  0  0  0  0  0  0
   57.8454   30.9037   47.1298 H   0  0  0  0  0  0  0  0  0  0  0  0
   59.0361   32.0186   49.5992 H   0  0  0  0  0  0  0  0  0  0  0  0
   59.7737   31.1937   48.1606 H   0  0  0  0  0  0  0  0  0  0  0  0
   61.0296   32.9627   50.2288 H   0  0  0  0  0  0  0  0  0  0  0  0
   61.6855   31.5290   49.3012 H   0  0  0  0  0  0  0  0  0  0  0  0
   61.2440   34.1490   48.0410 H   0  0  0  0  0  0  0  0  0  0  0  0
   61.5900   31.8848   46.8805 H   0  0  0  0  0  0  0  0  0  0  0  0
   62.3688   33.4269   46.3019 H   0  0  0  0  0  0  0  0  0  0  0  0
   63.7380   31.0978   46.6677 H   0  0  0  0  0  0  0  0  0  0  0  0
   64.4631   32.7444   46.8367 H   0  0  0  0  0  0  0  0  0  0  0  0
   64.1672   32.7616   50.3766 H   0  0  0  0  0  0  0  0  0  0  0  0
   65.1261   33.4407   48.9816 H   0  0  0  0  0  0  0  0  0  0  0  0
   62.7257   34.4625   49.9493 H   0  0  0  0  0  0  0  0  0  0  0  0
   63.4604   34.7689   48.3172 H   0  0  0  0  0  0  0  0  0  0  0  0
   58.2753   34.9533   48.5342 H   0  0  0  0  0  0  0  0  0  0  0  0
   59.9674   34.6802   49.0876 H   0  0  0  0  0  0  0  0  0  0  0  0
  1  2  1  0
  2  3  1  0
  3  4  2  0
  4  5  1  0
  5  6  2  0
  6  7  1  0
  7  8  2  0
  7  9  1  0
  9 10  1  0
 10 11  1  0
 11 12  1  0
 12 13  1  0
 13 14  1  0
 14 15  1  0
 15 16  1  0
 16 17  1  0
  9 18  1  0
 18 19  1  0
 19 20  1  0
 20 21  2  0
  8  3  1  0
 17 12  1  0
 20  6  1  0
  1 22  1  0
  1 23  1  0
  1 24  1  0
  4 25  1  0
  5 26  1  0
  8 27  1  0
 10 28  1  0
 10 29  1  0
 11 30  1  0
 11 31  1  0
 12 32  1  0
 13 33  1  0
 13 34  1  0
 14 35  1  0
 14 36  1  0
 16 37  1  0
 16 38  1  0
 17 39  1  0
 17 40  1  0
 18 41  1  0
 18 42  1  0
M  CHG  2  12   1  19  -1
M  END
>  <UniqueID>  (7) 
7

>  <SMILES>  (7) 
COc1ccc2c(c1)N(CC[NH+]1CCOCC1)C[N-]C2=O

>  <Energy>  (7) 
57.26017020647314

>  <Genealogy>  (7) 
COc1ccc2c(c1)N(CC[NH+]1CCOCC1)C[N-]C2=O (protonated)
COc1ccc2c(c1)N(CC[NH+]1CCOCC1)C[N-]C2=O (3D coordinates assigned)
COc1ccc2c(c1)N(CC[NH+]1CCOCC1)C[N-]C2=O (nonaromatic ring conformer: 57.26017020647314 kcal/mol)

>  <smiles>  (7) 
COc1ccc2c(c1)N(CCN1CCOCC1)CNC2=O

>  <score_type>  (7) 
oracle

>  <origin>  (7) 
adg

>  <m_score__min__energy>  (7) 
-6.0099999999999998

>  <m_primary>  (7) 
energy

$$$$
7:0
     RDKit          3D

 57 60  0  0  0  0  0  0  0  0999 V2000
   55.8730   22.2400   49.2090 C   0  0  0  0  0  0  0  0  0  0  0  0
   54.7620   22.9760   48.4990 C   0  0  0  0  0  0  0  0  0  0  0  0
   55.3980   23.7650   47.4260 N   0  0  0  0  0  0  0  0  0  0  0  0
   56.7900   23.4280   47.3340 C   0  0  0  0  0  0  0  0  0  0  0  0
   57.1920   22.7420   46.0690 C   0  0  0  0  0  0  0  0  0  0  0  0
   54.6310   23.7090   46.2340 C   0  0  0  0  0  0  0  0  0  0  0  0
   54.4470   25.0500   45.6010 C   0  0  0  0  0  0  0  0  0  0  0  0
   55.3210   26.0890   46.0870 N   0  0  0  0  0  0  0  0  0  0  0  0
   56.5980   25.9770   45.3660 C   0  0  0  0  0  0  0  0  0  0  0  0
   57.4210   27.1520   45.7440 C   0  0  0  0  0  0  0  0  0  0  0  0
   57.1700   28.4330   45.2760 C   0  0  0  0  0  0  0  0  0  0  0  0
   57.9730   29.4930   45.6660 C   0  0  0  0  0  0  0  0  0  0  0  0
   59.0330   29.2790   46.5270 C   0  0  0  0  0  0  0  0  0  0  0  0
   59.8910   30.3560   46.9560 C   0  0  0  0  0  0  0  0  0  0  0  0
   59.9920   31.6410   46.5900 C   0  0  0  0  0  0  0  0  0  0  0  0
   60.9100   32.4240   47.1830 C   0  0  0  0  0  0  0  0  0  0  0  0
   61.7030   31.8530   48.1440 C   0  0  0  0  0  0  0  0  0  0  0  0
   62.7630   32.4190   48.9490 C   0  0  0  0  0  0  0  0  0  0  0  0
   62.5920   33.2470   50.0030 N   0  0  0  0  0  0  0  0  0  0  0  0
   63.8190   33.5720   50.5070 C   0  0  0  0  0  0  0  0  0  0  0  0
   64.1830   34.3770   51.5680 C   0  0  0  0  0  0  0  0  0  0  0  0
   65.5310   34.5430   51.8750 C   0  0  0  0  0  0  0  0  0  0  0  0
   66.4640   33.8800   51.0870 C   0  0  0  0  0  0  0  0  0  0  0  0
   66.0880   33.0750   50.0230 C   0  0  0  0  0  0  0  0  0  0  0  0
   64.7440   32.9100   49.7190 C   0  0  0  0  0  0  0  0  0  0  0  0
   64.0580   32.2190   48.7810 N   0  0  0  0  0  0  0  0  0  0  0  0
   61.1720   30.1430   48.2500 S   0  0  0  0  0  0  0  0  0  0  0  0
   59.2480   27.9910   46.9680 C   0  0  0  0  0  0  0  0  0  0  0  0
   58.4780   26.9160   46.6080 C   0  0  0  0  0  0  0  0  0  0  0  0
   55.7363   22.3306   50.2967 H   0  0  0  0  0  0  0  0  0  0  0  0
   55.8500   21.1779   48.9238 H   0  0  0  0  0  0  0  0  0  0  0  0
   56.8421   22.6754   48.9238 H   0  0  0  0  0  0  0  0  0  0  0  0
   54.0457   22.2598   48.0700 H   0  0  0  0  0  0  0  0  0  0  0  0
   54.2083   23.6247   49.1937 H   0  0  0  0  0  0  0  0  0  0  0  0
   57.3723   24.3575   47.4179 H   0  0  0  0  0  0  0  0  0  0  0  0
   56.9874   22.7137   48.1469 H   0  0  0  0  0  0  0  0  0  0  0  0
   57.7346   21.8161   46.3105 H   0  0  0  0  0  0  0  0  0  0  0  0
   56.2938   22.4983   45.4826 H   0  0  0  0  0  0  0  0  0  0  0  0
   57.8436   23.4065   45.4826 H   0  0  0  0  0  0  0  0  0  0  0  0
   55.1423   23.0492   45.5176 H   0  0  0  0  0  0  0  0  0  0  0  0
   53.6337   23.3280   46.4991 H   0  0  0  0  0  0  0  0  0  0  0  0
   54.6178   24.9411   44.5198 H   0  0  0  0  0  0  0  0  0  0  0  0
   53.4259   25.3685   45.8576 H   0  0  0  0  0  0  0  0  0  0  0  0
   55.5250   25.9650   47.1170 H   0  0  0  0  0  0  0  0  0  0  0  0
   57.1127   25.0484   45.6536 H   0  0  0  0  0  0  0  0  0  0  0  0
   56.4312   25.9511   44.2790 H   0  0  0  0  0  0  0  0  0  0  0  0
   56.3278   28.6090   44.5906 H   0  0  0  0  0  0  0  0  0  0  0  0
   57.7666   30.5059   45.2899 H   0  0  0  0  0  0  0  0  0  0  0  0
   59.3307   32.0510   45.8124 H   0  0  0  0  0  0  0  0  0  0  0  0
   61.0205   33.4831   46.9073 H   0  0  0  0  0  0  0  0  0  0  0  0
   63.4126   34.8843   52.1673 H   0  0  0  0  0  0  0  0  0  0  0  0
   65.8474   35.1790   52.7149 H   0  0  0  0  0  0  0  0  0  0  0  0
   67.5338   33.9976   51.3145 H   0  0  0  0  0  0  0  0  0  0  0  0
   66.8548   32.5670   49.4197 H   0  0  0  0  0  0  0  0  0  0  0  0
   64.4960   31.6250   48.0480 H   0  0  0  0  0  0  0  0  0  0  0  0
   60.0910   27.8147   47.6523 H   0  0  0  0  0  0  0  0  0  0  0  0
   58.6906   25.9065   46.9897 H   0  0  0  0  0  0  0  0  0  0  0  0
  1  2  1  0
  2  3  1  0
  3  4  1  0
  4  5  1  0
  3  6  1  0
  6  7  1  0
  7  8  1  0
  8  9  1  0
  9 10  1  0
 10 11  2  0
 11 12  1  0
 12 13  2  0
 13 14  1  0
 14 15  2  0
 15 16  1  0
 16 17  2  0
 17 18  1  0
 18 19  2  0
 19 20  1  0
 20 21  2  0
 21 22  1  0
 22 23  2  0
 23 24  1  0
 24 25  2  0
 25 26  1  0
 17 27  1  0
 13 28  1  0
 28 29  2  0
 29 10  1  0
 27 14  1  0
 26 18  1  0
 25 20  1  0
  1 30  1  0
  1 31  1  0
  1 32  1  0
  2 33  1  0
  2 34  1  0
  4 35  1  0
  4 36  1  0
  5 37  1  0
  5 38  1  0
  5 39  1  0
  6 40  1  0
  6 41  1  0
  7 42  1  0
  7 43  1  0
  8 44  1  0
  9 45  1  0
  9 46  1  0
 11 47  1  0
 12 48  1  0
 15 49  1  0
 16 50  1  0
 21 51  1  0
 22 52  1  0
 23 53  1  0
 24 54  1  0
 26 55  1  0
 28 56  1  0
 29 57  1  0
M  END
>  <smiles>  (8) 
CCN(CC)CCNCc1ccc(-c2ccc(-c3nc4ccccc4[nH]3)s2)cc1

>  <score_type>  (8) 
oracle

>  <origin>  (8) 
adg

>  <m_score__min__energy>  (8) 
-7.9100000000000001

>  <m_primary>  (8) 
energy

$$$$
8:0
     RDKit          3D

 52 53  0  0  0  0  0  0  0  0999 V2000
   62.4420   31.5590   47.5530 C   0  0  0  0  0  0  0  0  0  0  0  0
   63.5680   32.5270   47.1930 C   0  0  0  0  0  0  0  0  0  0  0  0
   63.4430   33.8890   47.8970 C   0  0  0  0  0  0  0  0  0  0  0  0
   62.6850   33.8200   49.2250 C   0  0  0  0  0  0  0  0  0  0  0  0
   61.4180   34.4600   49.1010 O   0  0  0  0  0  0  0  0  0  0  0  0
   60.4210   34.0900   48.1850 C   0  0  0  0  0  0  0  0  0  0  0  0
   60.3920   34.5880   46.8700 C   0  0  0  0  0  0  0  0  0  0  0  0
   59.3840   34.1950   45.9890 C   0  0  0  0  0  0  0  0  0  0  0  0
   58.3860   33.2980   46.4010 C   0  0  0  0  0  0  0  0  0  0  0  0
   57.3150   32.8800   45.4680 C   0  0  0  0  0  0  0  0  0  0  0  0
   56.6270   33.7470   44.8620 O   0  0  0  0  0  0  0  0  0  0  0  0
   57.0660   31.5190   45.2580 O   0  0  0  0  0  0  0  0  0  0  0  0
   56.6980   30.9890   43.9880 C   0  0  0  0  0  0  0  0  0  0  0  0
   55.7310   29.8500   44.1560 C   0  0  0  0  0  0  0  0  0  0  0  0
   54.7580   29.7380   43.3650 O   0  0  0  0  0  0  0  0  0  0  0  0
   55.8480   28.9160   45.2380 N   0  0  0  0  0  0  0  0  0  0  0  0
   57.0120   28.0790   45.5140 C   0  0  0  0  0  0  0  0  0  0  0  0
   58.2520   28.9470   45.7610 C   0  0  2  0  0  0  0  0  0  0  0  0
   59.5360   28.1350   45.6660 C   0  0  0  0  0  0  0  0  0  0  0  0
   60.4300   28.8210   46.6500 C   0  0  0  0  0  0  0  0  0  0  0  0
   59.4490   29.4100   47.6440 C   0  0  0  0  0  0  0  0  0  0  0  0
   58.1890   29.5560   47.0310 O   0  0  0  0  0  0  0  0  0  0  0  0
   58.4150   32.8010   47.7140 C   0  0  0  0  0  0  0  0  0  0  0  0
   59.4300   33.1920   48.6100 C   0  0  0  0  0  0  0  0  0  0  0  0
   59.4900   32.7120   49.9270 O   0  0  0  0  0  0  0  0  0  0  0  0
   58.8920   31.4990   50.3730 C   0  0  0  0  0  0  0  0  0  0  0  0
   62.3571   31.4860   48.6473 H   0  0  0  0  0  0  0  0  0  0  0  0
   61.4936   31.9281   47.1354 H   0  0  0  0  0  0  0  0  0  0  0  0
   62.6646   30.5660   47.1354 H   0  0  0  0  0  0  0  0  0  0  0  0
   64.5267   32.0710   47.4810 H   0  0  0  0  0  0  0  0  0  0  0  0
   63.5075   32.7114   46.1103 H   0  0  0  0  0  0  0  0  0  0  0  0
   64.4545   34.2745   48.0926 H   0  0  0  0  0  0  0  0  0  0  0  0
   62.8686   34.5480   47.2293 H   0  0  0  0  0  0  0  0  0  0  0  0
   62.5345   32.7665   49.5034 H   0  0  0  0  0  0  0  0  0  0  0  0
   63.2722   34.3327   50.0011 H   0  0  0  0  0  0  0  0  0  0  0  0
   61.1683   35.2912   46.5342 H   0  0  0  0  0  0  0  0  0  0  0  0
   59.3713   34.5914   44.9630 H   0  0  0  0  0  0  0  0  0  0  0  0
   56.2251   31.7805   43.3881 H   0  0  0  0  0  0  0  0  0  0  0  0
   57.6010   30.6187   43.4805 H   0  0  0  0  0  0  0  0  0  0  0  0
   56.8146   27.4676   46.4068 H   0  0  0  0  0  0  0  0  0  0  0  0
   57.1986   27.4317   44.6444 H   0  0  0  0  0  0  0  0  0  0  0  0
   58.2632   29.7191   44.9775 H   0  0  0  0  0  0  0  0  0  0  0  0
   59.3643   27.0861   45.9496 H   0  0  0  0  0  0  0  0  0  0  0  0
   59.9539   28.0950   44.6493 H   0  0  0  0  0  0  0  0  0  0  0  0
   61.1057   28.1034   47.1384 H   0  0  0  0  0  0  0  0  0  0  0  0
   61.0870   29.5736   46.1895 H   0  0  0  0  0  0  0  0  0  0  0  0
   59.3591   28.7396   48.5115 H   0  0  0  0  0  0  0  0  0  0  0  0
   59.8108   30.3941   47.9766 H   0  0  0  0  0  0  0  0  0  0  0  0
   57.6367   32.0986   48.0469 H   0  0  0  0  0  0  0  0  0  0  0  0
   58.8816   31.4780   51.4728 H   0  0  0  0  0  0  0  0  0  0  0  0
   57.8606   31.4381   49.9954 H   0  0  0  0  0  0  0  0  0  0  0  0
   59.4718   30.6439   49.9954 H   0  0  0  0  0  0  0  0  0  0  0  0
  1  2  1  0
  2  3  1  0
  3  4  1  0
  4  5  1  0
  5  6  1  0
  6  7  2  0
  7  8  1  0
  8  9  2  0
  9 10  1  0
 10 11  2  0
 10 12  1  0
 12 13  1  0
 13 14  1  0
 14 15  2  0
 14 16  1  0
 16 17  1  0
 17 18  1  0
 18 19  1  0
 19 20  1  0
 20 21  1  0
 21 22  1  0
  9 23  1  0
 23 24  2  0
 24 25  1  0
 25 26  1  0
 24  6  1  0
 22 18  1  0
  1 27  1  0
  1 28  1  0
  1 29  1  0
  2 30  1  0
  2 31  1  0
  3 32  1  0
  3 33  1  0
  4 34  1  0
  4 35  1  0
  7 36  1  0
  8 37  1  0
 13 38  1  0
 13 39  1  0
 17 40  1  0
 17 41  1  0
 18 42  1  6
 19 43  1  0
 19 44  1  0
 20 45  1  0
 20 46  1  0
 21 47  1  0
 21 48  1  0
 23 49  1  0
 26 50  1  0
 26 51  1  0
 26 52  1  0
M  CHG  1  16  -1
M  END
>  <UniqueID>  (9) 
8

>  <SMILES>  (9) 
CCCCOc1ccc(C(=O)OCC(=O)[N-]C[C@@H]2CCCO2)cc1OC

>  <Energy>  (9) 
39.488352279781765

>  <Genealogy>  (9) 
CCCCOc1ccc(C(=O)OCC(=O)[N-]CC2CCCO2)cc1OC (protonated)
CCCCOc1ccc(C(=O)OCC(=O)[N-]C[C@@H]2CCCO2)cc1OC (chirality)
CCCCOc1ccc(C(=O)OCC(=O)[N-]C[C@@H]2CCCO2)cc1OC (3D coordinates assigned)
CCCCOc1ccc(C(=O)OCC(=O)[N-]C[C@@H]2CCCO2)cc1OC (nonaromatic ring conformer: 39.488352279781765 kcal/mol)

>  <smiles>  (9) 
CCCCOc1ccc(C(=O)OCC(=O)NCC2CCCO2)cc1OC

>  <score_type>  (9) 
oracle

>  <origin>  (9) 
adg

>  <m_score__min__energy>  (9) 
-9.9199999999999999

>  <m_primary>  (9) 
energy

$$$$
9:0
     RDKit          3D

 51 54  0  0  0  0  0  0  0  0999 V2000
   58.1640   23.3550   44.8970 C   0  0  0  0  0  0  0  0  0  0  0  0
   58.6000   24.0090   46.0840 O   0  0  0  0  0  0  0  0  0  0  0  0
   58.6680   25.4010   46.2400 C   0  0  0  0  0  0  0  0  0  0  0  0
   57.5220   26.2000   46.4120 C   0  0  0  0  0  0  0  0  0  0  0  0
   57.6430   27.5840   46.5660 C   0  0  0  0  0  0  0  0  0  0  0  0
   58.9090   28.1860   46.5710 C   0  0  0  0  0  0  0  0  0  0  0  0
   59.0240   29.6500   46.7070 C   0  0  0  0  0  0  0  0  0  0  0  0
   58.4060   30.4100   45.7670 N   0  0  0  0  0  0  0  0  0  0  0  0
   58.4430   31.7610   45.8010 C   0  0  0  0  0  0  0  0  0  0  0  0
   57.7920   32.5040   44.8100 C   0  0  0  0  0  0  0  0  0  0  0  0
   57.8340   33.9000   44.8420 C   0  0  0  0  0  0  0  0  0  0  0  0
   58.5240   34.5570   45.8650 C   0  0  0  0  0  0  0  0  0  0  0  0
   59.1760   33.8200   46.8580 C   0  0  0  0  0  0  0  0  0  0  0  0
   59.1390   32.4120   46.8320 C   0  0  0  0  0  0  0  0  0  0  0  0
   59.7700   31.6240   47.8110 C   0  0  0  0  0  0  0  0  0  0  0  0
   60.3970   32.1930   48.7480 O   0  0  0  0  0  0  0  0  0  0  0  0
   59.6980   30.2500   47.7530 N   0  0  0  0  0  0  0  0  0  0  0  0
   60.2940   29.4380   48.8400 C   0  0  0  0  0  0  0  0  0  0  0  0
   59.3750   29.3420   50.0780 C   0  0  0  0  0  0  0  0  0  0  0  0
   59.3550   30.5920   50.8930 N   0  0  0  0  0  0  0  0  0  0  0  0
   58.1490   31.4210   50.6260 C   0  0  0  0  0  0  0  0  0  0  0  0
   56.9650   31.0600   51.5470 C   0  0  0  0  0  0  0  0  0  0  0  0
   57.0720   29.7290   52.0030 O   0  0  0  0  0  0  0  0  0  0  0  0
   58.1820   29.6030   52.8760 C   0  0  0  0  0  0  0  0  0  0  0  0
   59.4570   30.2980   52.3390 C   0  0  0  0  0  0  0  0  0  0  0  0
   60.0500   27.3960   46.3740 C   0  0  0  0  0  0  0  0  0  0  0  0
   59.9280   26.0120   46.2190 C   0  0  0  0  0  0  0  0  0  0  0  0
   57.5721   22.4671   45.1639 H   0  0  0  0  0  0  0  0  0  0  0  0
   57.5442   24.0445   44.3050 H   0  0  0  0  0  0  0  0  0  0  0  0
   59.0388   23.0481   44.3050 H   0  0  0  0  0  0  0  0  0  0  0  0
   56.5262   25.7329   46.4253 H   0  0  0  0  0  0  0  0  0  0  0  0
   56.7414   28.2031   46.6837 H   0  0  0  0  0  0  0  0  0  0  0  0
   57.2469   31.9887   44.0054 H   0  0  0  0  0  0  0  0  0  0  0  0
   57.3235   34.4830   44.0613 H   0  0  0  0  0  0  0  0  0  0  0  0
   58.5540   35.6563   45.8887 H   0  0  0  0  0  0  0  0  0  0  0  0
   59.7188   34.3403   47.6609 H   0  0  0  0  0  0  0  0  0  0  0  0
   60.4813   28.4228   48.4600 H   0  0  0  0  0  0  0  0  0  0  0  0
   61.2263   29.9308   49.1530 H   0  0  0  0  0  0  0  0  0  0  0  0
   58.3507   29.1301   49.7376 H   0  0  0  0  0  0  0  0  0  0  0  0
   59.7715   28.5403   50.7183 H   0  0  0  0  0  0  0  0  0  0  0  0
   60.1980   31.1640   50.6540 H   0  0  0  0  0  0  0  0  0  0  0  0
   58.4070   32.4788   50.7822 H   0  0  0  0  0  0  0  0  0  0  0  0
   57.8354   31.2286   49.5894 H   0  0  0  0  0  0  0  0  0  0  0  0
   56.9617   31.7386   52.4128 H   0  0  0  0  0  0  0  0  0  0  0  0
   56.0304   31.1628   50.9761 H   0  0  0  0  0  0  0  0  0  0  0  0
   57.9189   30.0534   53.8445 H   0  0  0  0  0  0  0  0  0  0  0  0
   58.4068   28.5303   52.9690 H   0  0  0  0  0  0  0  0  0  0  0  0
   59.6047   31.2417   52.8846 H   0  0  0  0  0  0  0  0  0  0  0  0
   60.3072   29.6165   52.4901 H   0  0  0  0  0  0  0  0  0  0  0  0
   61.0439   27.8662   46.3413 H   0  0  0  0  0  0  0  0  0  0  0  0
   60.8296   25.3975   46.0793 H   0  0  0  0  0  0  0  0  0  0  0  0
  1  2  1  0
  2  3  1  0
  3  4  2  0
  4  5  1  0
  5  6  2  0
  6  7  1  0
  7  8  2  0
  8  9  1  0
  9 10  2  0
 10 11  1  0
 11 12  2  0
 12 13  1  0
 13 14  2  0
 14 15  1  0
 15 16  2  0
 15 17  1  0
 17 18  1  0
 18 19  1  0
 19 20  1  0
 20 21  1  0
 21 22  1  0
 22 23  1  0
 23 24  1  0
 24 25  1  0
  6 26  1  0
 26 27  2  0
 27  3  1  0
 17  7  1  0
 25 20  1  0
 14  9  1  0
  1 28  1  0
  1 29  1  0
  1 30  1  0
  4 31  1  0
  5 32  1  0
 10 33  1  0
 11 34  1  0
 12 35  1  0
 13 36  1  0
 18 37  1  0
 18 38  1  0
 19 39  1  0
 19 40  1  0
 20 41  1  0
 21 42  1  0
 21 43  1  0
 22 44  1  0
 22 45  1  0
 24 46  1  0
 24 47  1  0
 25 48  1  0
 25 49  1  0
 26 50  1  0
 27 51  1  0
M  CHG  1  20   1
M  END
>  <UniqueID>  (10) 
9

>  <SMILES>  (10) 
COc1ccc(-c2nc3ccccc3c(=O)n2CC[NH+]2CCOCC2)cc1

>  <Energy>  (10) 
81.09340175964512

>  <Genealogy>  (10) 
COc1ccc(-c2nc3ccccc3c(=O)n2CC[NH+]2CCOCC2)cc1 (protonated)
COc1ccc(-c2nc3ccccc3c(=O)n2CC[NH+]2CCOCC2)cc1 (3D coordinates assigned)
COc1ccc(-c2nc3ccccc3c(=O)n2CC[NH+]2CCOCC2)cc1 (nonaromatic ring conformer: 81.09340175964512 kcal/mol)

>  <smiles>  (10) 
COc1ccc(-c2nc3ccccc3c(=O)n2CCN2CCOCC2)cc1

>  <score_type>  (10) 
oracle

>  <origin>  (10) 
adg

>  <m_score__min__energy>  (10) 
-6.0700000000000003

>  <m_primary>  (10) 
energy

$$$$
10:0
     RDKit          3D

 64 67  0  0  0  0  0  0  0  0999 V2000
   56.6340   34.5890   44.8040 C   0  0  0  0  0  0  0  0  0  0  0  0
   57.9720   34.9130   45.1700 O   0  0  0  0  0  0  0  0  0  0  0  0
   58.5970   34.4780   46.3470 C   0  0  0  0  0  0  0  0  0  0  0  0
   59.8130   35.0240   46.8040 C   0  0  0  0  0  0  0  0  0  0  0  0
   60.4050   34.5430   47.9760 C   0  0  0  0  0  0  0  0  0  0  0  0
   59.8040   33.4990   48.6960 C   0  0  0  0  0  0  0  0  0  0  0  0
   60.5480   32.8940   50.1740 S   0  0  0  0  0  0  0  0  0  0  0  0
   60.6970   34.0360   51.1420 O   0  0  0  0  0  0  0  0  0  0  0  0
   59.6390   31.8760   50.8060 O   0  0  0  0  0  0  0  0  0  0  0  0
   62.1200   32.1740   49.8910 N   0  0  0  0  0  0  0  0  0  0  0  0
   63.1440   33.1320   49.4200 C   0  0  0  0  0  0  0  0  0  0  0  0
   63.7820   32.7410   48.0880 C   0  0  0  0  0  0  0  0  0  0  0  0
   62.7220   32.1910   47.1460 C   0  0  0  0  0  0  0  0  0  0  0  0
   62.1690   30.8470   47.6730 C   0  0  2  0  0  0  0  0  0  0  0  0
   60.8790   30.4390   47.0280 N   0  0  0  0  0  0  0  0  0  0  0  0
   59.9680   29.8050   48.0290 C   0  0  0  0  0  0  0  0  0  0  0  0
   59.1720   28.5980   47.4950 C   0  0  0  0  0  0  0  0  0  0  0  0
   58.6760   28.8230   46.1250 N   0  0  0  0  0  0  0  0  0  0  0  0
   57.5620   29.7940   46.0590 C   0  0  0  0  0  0  0  0  0  0  0  0
   57.4840   30.4510   44.7050 C   0  0  0  0  0  0  0  0  0  0  0  0
   58.1950   31.6360   44.4560 C   0  0  0  0  0  0  0  0  0  0  0  0
   58.1420   32.2380   43.1960 C   0  0  0  0  0  0  0  0  0  0  0  0
   57.3900   31.6550   42.1650 C   0  0  0  0  0  0  0  0  0  0  0  0
   57.3050   32.3220   40.8250 C   0  0  0  0  0  0  0  0  0  0  0  0
   56.6680   30.4780   42.4160 C   0  0  0  0  0  0  0  0  0  0  0  0
   56.7180   29.8760   43.6770 C   0  0  0  0  0  0  0  0  0  0  0  0
   59.7690   29.1600   45.1820 C   0  0  0  0  0  0  0  0  0  0  0  0
   61.0980   29.5460   45.8630 C   0  0  0  0  0  0  0  0  0  0  0  0
   62.0720   30.8450   49.2410 C   0  0  0  0  0  0  0  0  0  0  0  0
   58.5840   32.9710   48.2540 C   0  0  0  0  0  0  0  0  0  0  0  0
   57.9840   33.4620   47.0910 C   0  0  0  0  0  0  0  0  0  0  0  0
   56.0306   34.4429   45.7121 H   0  0  0  0  0  0  0  0  0  0  0  0
   56.2077   35.4099   44.2087 H   0  0  0  0  0  0  0  0  0  0  0  0
   56.6305   33.6640   44.2087 H   0  0  0  0  0  0  0  0  0  0  0  0
   60.2984   35.8317   46.2366 H   0  0  0  0  0  0  0  0  0  0  0  0
   61.3461   34.9850   48.3352 H   0  0  0  0  0  0  0  0  0  0  0  0
   62.6699   34.1176   49.3023 H   0  0  0  0  0  0  0  0  0  0  0  0
   63.9471   33.1406   50.1717 H   0  0  0  0  0  0  0  0  0  0  0  0
   64.2490   33.6272   47.6335 H   0  0  0  0  0  0  0  0  0  0  0  0
   64.5441   31.9679   48.2654 H   0  0  0  0  0  0  0  0  0  0  0  0
   61.8976   32.9150   47.0675 H   0  0  0  0  0  0  0  0  0  0  0  0
   63.1776   32.0239   46.1588 H   0  0  0  0  0  0  0  0  0  0  0  0
   62.8983   30.0774   47.3800 H   0  0  0  0  0  0  0  0  0  0  0  0
   60.5761   29.4658   48.8805 H   0  0  0  0  0  0  0  0  0  0  0  0
   59.2276   30.5698   48.3065 H   0  0  0  0  0  0  0  0  0  0  0  0
   59.8263   27.7138   47.4946 H   0  0  0  0  0  0  0  0  0  0  0  0
   58.3011   28.4498   48.1505 H   0  0  0  0  0  0  0  0  0  0  0  0
   56.6165   29.2677   46.2563 H   0  0  0  0  0  0  0  0  0  0  0  0
   57.7389   30.5752   46.8129 H   0  0  0  0  0  0  0  0  0  0  0  0
   58.7962   32.0924   45.2562 H   0  0  0  0  0  0  0  0  0  0  0  0
   58.6920   33.1726   43.0118 H   0  0  0  0  0  0  0  0  0  0  0  0
   57.1670   33.4046   40.9624 H   0  0  0  0  0  0  0  0  0  0  0  0
   58.2337   32.1389   40.2647 H   0  0  0  0  0  0  0  0  0  0  0  0
   56.4519   31.9118   40.2647 H   0  0  0  0  0  0  0  0  0  0  0  0
   56.0603   30.0273   41.6175 H   0  0  0  0  0  0  0  0  0  0  0  0
   56.1559   28.9493   43.8648 H   0  0  0  0  0  0  0  0  0  0  0  0
   59.9520   28.2857   44.5400 H   0  0  0  0  0  0  0  0  0  0  0  0
   59.4364   30.0431   44.6168 H   0  0  0  0  0  0  0  0  0  0  0  0
   61.6021   28.6303   46.2056 H   0  0  0  0  0  0  0  0  0  0  0  0
   61.7153   30.0850   45.1292 H   0  0  0  0  0  0  0  0  0  0  0  0
   61.1213   30.3671   49.5197 H   0  0  0  0  0  0  0  0  0  0  0  0
   62.9638   30.3069   49.5948 H   0  0  0  0  0  0  0  0  0  0  0  0
   58.0963   32.1668   48.8245 H   0  0  0  0  0  0  0  0  0  0  0  0
   57.0217   33.0467   46.7571 H   0  0  0  0  0  0  0  0  0  0  0  0
  1  2  1  0
  2  3  1  0
  3  4  2  0
  4  5  1  0
  5  6  2  0
  6  7  1  0
  7  8  2  0
  7  9  2  0
  7 10  1  0
 10 11  1  0
 11 12  1  0
 12 13  1  0
 13 14  1  0
 14 15  1  0
 15 16  1  0
 16 17  1  0
 17 18  1  0
 18 19  1  0
 19 20  1  0
 20 21  2  0
 21 22  1  0
 22 23  2  0
 23 24  1  0
 23 25  1  0
 25 26  2  0
 18 27  1  0
 27 28  1  0
 14 29  1  0
  6 30  1  0
 30 31  2  0
 31  3  1  0
 29 10  1  0
 28 15  1  0
 26 20  1  0
  1 32  1  0
  1 33  1  0
  1 34  1  0
  4 35  1  0
  5 36  1  0
 11 37  1  0
 11 38  1  0
 12 39  1  0
 12 40  1  0
 13 41  1  0
 13 42  1  0
 14 43  1  1
 16 44  1  0
 16 45  1  0
 17 46  1  0
 17 47  1  0
 19 48  1  0
 19 49  1  0
 21 50  1  0
 22 51  1  0
 24 52  1  0
 24 53  1  0
 24 54  1  0
 25 55  1  0
 26 56  1  0
 27 57  1  0
 27 58  1  0
 28 59  1  0
 28 60  1  0
 29 61  1  0
 29 62  1  0
 30 63  1  0
 31 64  1  0
M  END
>  <UniqueID>  (11) 
10

>  <SMILES>  (11) 
COc1ccc(S(=O)(=O)N2CCC[C@H](N3CCN(Cc4ccc(C)cc4)CC3)C2)cc1

>  <Energy>  (11) 
92.18389989887946

>  <Genealogy>  (11) 
COc1ccc(S(=O)(=O)N2CCC[C@H](N3CCN(Cc4ccc(C)cc4)CC3)C2)cc1 (chirality)
COc1ccc(S(=O)(=O)N2CCC[C@H](N3CCN(Cc4ccc(C)cc4)CC3)C2)cc1 (3D coordinates assigned)
COc1ccc(S(=O)(=O)N2CCC[C@H](N3CCN(Cc4ccc(C)cc4)CC3)C2)cc1 (nonaromatic ring conformer: 92.18389989887946 kcal/mol)

>  <smiles>  (11) 
COc1ccc(S(=O)(=O)N2CCCC(N3CCN(Cc4ccc(C)cc4)CC3)C2)cc1

>  <score_type>  (11) 
oracle

>  <origin>  (11) 
adg

>  <m_score__min__energy>  (11) 
-9.7300000000000004

>  <m_primary>  (11) 
energy

$$$$
11:0
     RDKit          3D

 43 45  0  0  0  0  0  0  0  0999 V2000
   57.1430   25.7330   45.3320 C   0  0  0  0  0  0  0  0  0  0  0  0
   56.4180   26.9260   45.6050 O   0  0  0  0  0  0  0  0  0  0  0  0
   56.9880   28.2080   45.6450 C   0  0  0  0  0  0  0  0  0  0  0  0
   56.5320   29.1670   44.7340 C   0  0  0  0  0  0  0  0  0  0  0  0
   57.0680   30.4580   44.7330 C   0  0  0  0  0  0  0  0  0  0  0  0
   58.0720   30.8140   45.6500 C   0  0  0  0  0  0  0  0  0  0  0  0
   58.6430   32.1850   45.6580 C   0  0  0  0  0  0  0  0  0  0  0  0
   58.0050   33.2250   44.9630 C   0  0  0  0  0  0  0  0  0  0  0  0
   58.5540   34.5050   44.9830 C   0  0  0  0  0  0  0  0  0  0  0  0
   59.7320   34.7460   45.6870 C   0  0  0  0  0  0  0  0  0  0  0  0
   60.3590   33.6920   46.3670 C   0  0  0  0  0  0  0  0  0  0  0  0
   61.5730   33.9250   47.1060 N   0  0  0  0  0  0  0  0  0  0  0  0
   62.8820   33.8380   46.4560 C   0  0  0  0  0  0  0  0  0  0  0  0
   63.7740   32.8140   47.1840 C   0  0  0  0  0  0  0  0  0  0  0  0
   63.5130   32.7170   48.6440 N   0  0  0  0  0  0  0  0  0  0  0  0
   62.7660   31.4940   48.9870 C   0  0  0  0  0  0  0  0  0  0  0  0
   62.8760   33.9280   49.2080 C   0  0  0  0  0  0  0  0  0  0  0  0
   61.5210   34.2230   48.5410 C   0  0  0  0  0  0  0  0  0  0  0  0
   59.7970   32.4470   46.3430 N   0  0  0  0  0  0  0  0  0  0  0  0
   58.5270   29.8510   46.5670 C   0  0  0  0  0  0  0  0  0  0  0  0
   57.9930   28.5600   46.5650 C   0  0  0  0  0  0  0  0  0  0  0  0
   57.4332   25.2554   46.2794 H   0  0  0  0  0  0  0  0  0  0  0  0
   56.5107   25.0441   44.7527 H   0  0  0  0  0  0  0  0  0  0  0  0
   58.0457   25.9770   44.7527 H   0  0  0  0  0  0  0  0  0  0  0  0
   55.7450   28.9028   44.0124 H   0  0  0  0  0  0  0  0  0  0  0  0
   56.7014   31.2008   44.0092 H   0  0  0  0  0  0  0  0  0  0  0  0
   57.0768   33.0300   44.4058 H   0  0  0  0  0  0  0  0  0  0  0  0
   58.0578   35.3251   44.4433 H   0  0  0  0  0  0  0  0  0  0  0  0
   60.1671   35.7560   45.7092 H   0  0  0  0  0  0  0  0  0  0  0  0
   62.7477   33.5236   45.4105 H   0  0  0  0  0  0  0  0  0  0  0  0
   63.3664   34.8249   46.4937 H   0  0  0  0  0  0  0  0  0  0  0  0
   63.6023   31.8245   46.7352 H   0  0  0  0  0  0  0  0  0  0  0  0
   64.8128   33.1565   47.0678 H   0  0  0  0  0  0  0  0  0  0  0  0
   62.7060   31.3957   50.0810 H   0  0  0  0  0  0  0  0  0  0  0  0
   61.7507   31.5548   48.5680 H   0  0  0  0  0  0  0  0  0  0  0  0
   63.2837   30.6185   48.5680 H   0  0  0  0  0  0  0  0  0  0  0  0
   62.7172   33.7778   50.2861 H   0  0  0  0  0  0  0  0  0  0  0  0
   63.5423   34.7833   49.0225 H   0  0  0  0  0  0  0  0  0  0  0  0
   60.7445   33.6015   49.0108 H   0  0  0  0  0  0  0  0  0  0  0  0
   61.2875   35.2899   48.6721 H   0  0  0  0  0  0  0  0  0  0  0  0
   60.2420   31.6850   46.9040 H   0  0  0  0  0  0  0  0  0  0  0  0
   59.3102   30.1160   47.2925 H   0  0  0  0  0  0  0  0  0  0  0  0
   58.3600   27.8149   47.2862 H   0  0  0  0  0  0  0  0  0  0  0  0
  1  2  1  0
  2  3  1  0
  3  4  2  0
  4  5  1  0
  5  6  2  0
  6  7  1  0
  7  8  2  0
  8  9  1  0
  9 10  2  0
 10 11  1  0
 11 12  1  0
 12 13  1  0
 13 14  1  0
 14 15  1  0
 15 16  1  0
 15 17  1  0
 17 18  1  0
 11 19  2  0
  6 20  1  0
 20 21  2  0
 21  3  1  0
 19  7  1  0
 18 12  1  0
  1 22  1  0
  1 23  1  0
  1 24  1  0
  4 25  1  0
  5 26  1  0
  8 27  1  0
  9 28  1  0
 10 29  1  0
 13 30  1  0
 13 31  1  0
 14 32  1  0
 14 33  1  0
 16 34  1  0
 16 35  1  0
 16 36  1  0
 17 37  1  0
 17 38  1  0
 18 39  1  0
 18 40  1  0
 19 41  1  0
 20 42  1  0
 21 43  1  0
M  CHG  1  19   1
M  END
>  <UniqueID>  (12) 
11

>  <SMILES>  (12) 
COc1ccc(-c2cccc(N3CCN(C)CC3)[nH+]2)cc1

>  <Energy>  (12) 
59.422736224087664

>  <Genealogy>  (12) 
COc1ccc(-c2cccc(N3CCN(C)CC3)[nH+]2)cc1 (protonated)
COc1ccc(-c2cccc(N3CCN(C)CC3)[nH+]2)cc1 (3D coordinates assigned)
COc1ccc(-c2cccc(N3CCN(C)CC3)[nH+]2)cc1 (nonaromatic ring conformer: 59.422736224087664 kcal/mol)

>  <smiles>  (12) 
COc1ccc(-c2cccc(N3CCN(C)CC3)n2)cc1

>  <score_type>  (12) 
oracle

>  <origin>  (12) 
adg

>  <m_score__min__energy>  (12) 
-5.5199999999999996

>  <m_primary>  (12) 
energy

$$$$
12:0
     RDKit          3D

 43 45  0  0  0  0  0  0  0  0999 V2000
   56.1304   34.1356   44.7172 H   0  0  0  0  0  0  0  0  0  0  0  0
   57.0650   33.9390   45.2630 C   0  0  0  0  0  0  0  0  0  0  0  0
   58.2960   34.1610   44.6420 C   0  0  0  0  0  0  0  0  0  0  0  0
   58.3298   34.5334   43.6075 H   0  0  0  0  0  0  0  0  0  0  0  0
   59.4840   33.9110   45.3320 C   0  0  0  0  0  0  0  0  0  0  0  0
   60.4505   34.0929   44.8393 H   0  0  0  0  0  0  0  0  0  0  0  0
   59.4530   33.4270   46.6560 C   0  0  0  0  0  0  0  0  0  0  0  0
   60.7400   33.1490   47.4150 C   0  0  1  0  0  0  0  0  0  0  0  0
   60.6840   33.6851   48.3739 H   0  0  0  0  0  0  0  0  0  0  0  0
   60.9080   31.6790   47.7780 C   0  0  0  0  0  0  0  0  0  0  0  0
   59.8630   30.8960   47.7530 N   0  0  0  0  0  0  0  0  0  0  0  0
   59.4550   30.0130   46.6970 C   0  0  0  0  0  0  0  0  0  0  0  0
   58.8810   30.5230   45.5220 C   0  0  0  0  0  0  0  0  0  0  0  0
   58.7066   31.6046   45.4238 H   0  0  0  0  0  0  0  0  0  0  0  0
   58.5300   29.6660   44.4770 C   0  0  0  0  0  0  0  0  0  0  0  0
   58.0747   30.0751   43.5630 H   0  0  0  0  0  0  0  0  0  0  0  0
   58.7550   28.2870   44.5870 C   0  0  0  0  0  0  0  0  0  0  0  0
   58.4120   27.3710   43.4500 C   0  0  0  0  0  0  0  0  0  0  0  0
   58.0524   26.4108   43.8484 H   0  0  0  0  0  0  0  0  0  0  0  0
   57.6249   27.8302   42.8339 H   0  0  0  0  0  0  0  0  0  0  0  0
   59.3071   27.2002   42.8339 H   0  0  0  0  0  0  0  0  0  0  0  0
   59.3760   27.7800   45.7380 C   0  0  0  0  0  0  0  0  0  0  0  0
   59.5838   26.7026   45.8152 H   0  0  0  0  0  0  0  0  0  0  0  0
   59.7350   28.6350   46.7930 C   0  0  0  0  0  0  0  0  0  0  0  0
   60.3970   28.0790   48.0240 C   0  0  0  0  0  0  0  0  0  0  0  0
   59.9085   28.4893   48.9201 H   0  0  0  0  0  0  0  0  0  0  0  0
   60.3057   26.9828   48.0260 H   0  0  0  0  0  0  0  0  0  0  0  0
   61.4609   28.3583   48.0260 H   0  0  0  0  0  0  0  0  0  0  0  0
   62.2470   31.2260   48.3380 C   0  0  0  0  0  0  0  0  0  0  0  0
   62.3334   31.5747   49.3777 H   0  0  0  0  0  0  0  0  0  0  0  0
   62.2847   30.1281   48.2821 H   0  0  0  0  0  0  0  0  0  0  0  0
   63.4250   31.7820   47.5300 C   0  0  0  0  0  0  0  0  0  0  0  0
   64.3540   31.6426   48.1023 H   0  0  0  0  0  0  0  0  0  0  0  0
   63.4842   31.2439   46.5724 H   0  0  0  0  0  0  0  0  0  0  0  0
   63.2310   33.2430   47.2530 C   0  0  0  0  0  0  0  0  0  0  0  0
   64.1160   34.0480   47.4940 O   0  0  0  0  0  0  0  0  0  0  0  0
   61.9460   33.6830   46.6160 C   0  0  0  0  0  0  0  0  0  0  0  0
   61.9093   34.7822   46.5955 H   0  0  0  0  0  0  0  0  0  0  0  0
   61.9004   33.2844   45.5918 H   0  0  0  0  0  0  0  0  0  0  0  0
   58.2070   33.2120   47.2730 C   0  0  0  0  0  0  0  0  0  0  0  0
   58.1659   32.8413   48.3078 H   0  0  0  0  0  0  0  0  0  0  0  0
   57.0200   33.4670   46.5780 C   0  0  0  0  0  0  0  0  0  0  0  0
   56.0497   33.2958   47.0671 H   0  0  0  0  0  0  0  0  0  0  0  0
  1  2  1  0
  2  3  2  0
  3  4  1  0
  3  5  1  0
  5  6  1  0
  5  7  2  0
  7  8  1  0
  8  9  1  1
  8 10  1  0
 10 11  2  0
 11 12  1  0
 12 13  2  0
 13 14  1  0
 13 15  1  0
 15 16  1  0
 15 17  2  0
 17 18  1  0
 18 19  1  0
 18 20  1  0
 18 21  1  0
 17 22  1  0
 22 23  1  0
 22 24  2  0
 24 25  1  0
 25 26  1  0
 25 27  1  0
 25 28  1  0
 10 29  1  0
 29 30  1  0
 29 31  1  0
 29 32  1  0
 32 33  1  0
 32 34  1  0
 32 35  1  0
 35 36  2  0
 35 37  1  0
 37 38  1  0
 37 39  1  0
  7 40  1  0
 40 41  1  0
 40 42  2  0
 42 43  1  0
 42  2  1  0
 37  8  1  0
 24 12  1  0
M  END
>  <UniqueID>  (13) 
12

>  <SMILES>  (13) 
Cc1ccc(/N=C2\CCC(=O)C[C@H]2c2ccccc2)c(C)c1

>  <Energy>  (13) 
52.21794815802731

>  <Genealogy>  (13) 
Cc1ccc(N=C2CCC(=O)C[C@H]2c2ccccc2)c(C)c1 (chirality)
Cc1ccc(/N=C2\CCC(=O)C[C@H]2c2ccccc2)c(C)c1 (cis-trans isomerization)
Cc1ccc(/N=C2\CCC(=O)C[C@H]2c2ccccc2)c(C)c1 (3D coordinates assigned)
Cc1ccc(/N=C2\CCC(=O)C[C@H]2c2ccccc2)c(C)c1 (nonaromatic ring conformer: 52.21794815802731 kcal/mol)

>  <smiles>  (13) 
Cc1ccc(N=C2CCC(=O)CC2c2ccccc2)c(C)c1

>  <score_type>  (13) 
oracle

>  <origin>  (13) 
adg

>  <m_score__min__energy>  (13) 
-7.8799999999999999

>  <m_primary>  (13) 
energy

$$$$
13:0
     RDKit          3D

 34 36  0  0  0  0  0  0  0  0999 V2000
   58.0200   32.3420   41.4230 C   0  0  0  0  0  0  0  0  0  0  0  0
   57.2320   31.1530   42.5520 S   0  0  0  0  0  0  0  0  0  0  0  0
   57.8180   31.9890   44.0210 C   0  0  0  0  0  0  0  0  0  0  0  0
   58.3790   33.2220   43.9990 N   0  0  0  0  0  0  0  0  0  0  0  0
   58.7320   33.6110   45.2510 C   0  0  0  0  0  0  0  0  0  0  0  0
   59.3390   34.8290   45.5550 C   0  0  0  0  0  0  0  0  0  0  0  0
   59.6600   35.1090   46.8930 C   0  0  0  0  0  0  0  0  0  0  0  0
   59.3720   34.1740   47.9190 C   0  0  0  0  0  0  0  0  0  0  0  0
   59.7470   34.4530   49.2850 N   0  0  0  0  0  0  0  0  0  0  0  0
   60.6940   33.4490   49.7980 C   0  0  0  0  0  0  0  0  0  0  0  0
   61.7910   33.1530   48.8020 C   0  0  0  0  0  0  0  0  0  0  0  0
   62.7370   34.1380   48.4780 C   0  0  0  0  0  0  0  0  0  0  0  0
   63.7260   33.8790   47.5250 C   0  0  0  0  0  0  0  0  0  0  0  0
   63.7720   32.6370   46.8830 C   0  0  0  0  0  0  0  0  0  0  0  0
   62.8290   31.6550   47.1940 C   0  0  0  0  0  0  0  0  0  0  0  0
   61.8390   31.9100   48.1480 C   0  0  0  0  0  0  0  0  0  0  0  0
   58.7590   32.9470   47.5880 C   0  0  0  0  0  0  0  0  0  0  0  0
   58.4520   32.6980   46.2540 C   0  0  0  0  0  0  0  0  0  0  0  0
   57.7350   31.3380   45.5810 S   0  0  0  0  0  0  0  0  0  0  0  0
   58.5344   33.1182   42.0086 H   0  0  0  0  0  0  0  0  0  0  0  0
   58.7497   31.8172   40.7888 H   0  0  0  0  0  0  0  0  0  0  0  0
   57.2524   32.8096   40.7888 H   0  0  0  0  0  0  0  0  0  0  0  0
   59.5623   35.5571   44.7613 H   0  0  0  0  0  0  0  0  0  0  0  0
   60.1406   36.0650   47.1481 H   0  0  0  0  0  0  0  0  0  0  0  0
   60.1640   35.4100   49.3650 H   0  0  0  0  0  0  0  0  0  0  0  0
   58.8880   34.4400   49.8840 H   0  0  0  0  0  0  0  0  0  0  0  0
   61.1478   33.8285   50.7254 H   0  0  0  0  0  0  0  0  0  0  0  0
   60.1387   32.5175   49.9824 H   0  0  0  0  0  0  0  0  0  0  0  0
   62.6998   35.1180   48.9763 H   0  0  0  0  0  0  0  0  0  0  0  0
   64.4688   34.6524   47.2796 H   0  0  0  0  0  0  0  0  0  0  0  0
   64.5509   32.4339   46.1333 H   0  0  0  0  0  0  0  0  0  0  0  0
   62.8651   30.6792   46.6876 H   0  0  0  0  0  0  0  0  0  0  0  0
   61.0956   31.1354   48.3873 H   0  0  0  0  0  0  0  0  0  0  0  0
   58.5292   32.2046   48.3665 H   0  0  0  0  0  0  0  0  0  0  0  0
  1  2  1  0
  2  3  1  0
  3  4  2  0
  4  5  1  0
  5  6  2  0
  6  7  1  0
  7  8  2  0
  8  9  1  0
  9 10  1  0
 10 11  1  0
 11 12  2  0
 12 13  1  0
 13 14  2  0
 14 15  1  0
 15 16  2  0
  8 17  1  0
 17 18  2  0
 18 19  1  0
 19  3  1  0
 18  5  1  0
 16 11  1  0
  1 20  1  0
  1 21  1  0
  1 22  1  0
  6 23  1  0
  7 24  1  0
  9 25  1  0
  9 26  1  0
 10 27  1  0
 10 28  1  0
 12 29  1  0
 13 30  1  0
 14 31  1  0
 15 32  1  0
 16 33  1  0
 17 34  1  0
M  CHG  1   9   1
M  END
>  <UniqueID>  (14) 
13

>  <SMILES>  (14) 
CSc1nc2ccc([NH2+]Cc3ccccc3)cc2s1

>  <Energy>  (14) 
66.49728016910724

>  <Genealogy>  (14) 
CSc1nc2ccc([NH2+]Cc3ccccc3)cc2s1 (protonated)
CSc1nc2ccc([NH2+]Cc3ccccc3)cc2s1 (3D coordinates assigned)
CSc1nc2ccc([NH2+]Cc3ccccc3)cc2s1 (optimized conformer: 66.49728016910724 kcal/mol)

>  <smiles>  (14) 
CSc1nc2ccc(NCc3ccccc3)cc2s1

>  <score_type>  (14) 
oracle

>  <origin>  (14) 
adg

>  <m_score__min__energy>  (14) 
-5.7400000000000002

>  <m_primary>  (14) 
energy

$$$$
14:0
     RDKit          3D

 58 61  0  0  0  0  0  0  0  0999 V2000
   62.1300   30.1350   50.5590 C   0  0  0  0  0  0  0  0  0  0  0  0
   60.8630   29.9100   49.8660 N   0  0  0  0  0  0  0  0  0  0  0  0
   60.7840   28.8790   48.8190 C   0  0  0  0  0  0  0  0  0  0  0  0
   59.9130   29.3450   47.6810 C   0  0  0  0  0  0  0  0  0  0  0  0
   58.6430   28.7850   47.4840 C   0  0  0  0  0  0  0  0  0  0  0  0
   57.8100   29.2660   46.4680 C   0  0  0  0  0  0  0  0  0  0  0  0
   58.2380   30.3130   45.6370 C   0  0  0  0  0  0  0  0  0  0  0  0
   57.3430   30.8690   44.6060 C   0  0  0  0  0  0  0  0  0  0  0  0
   56.1650   30.4200   44.5000 O   0  0  0  0  0  0  0  0  0  0  0  0
   57.7990   31.9850   43.7050 C   0  0  0  0  0  0  0  0  0  0  0  0
   57.3890   33.3700   44.2450 C   0  0  0  0  0  0  0  0  0  0  0  0
   58.2350   33.7600   45.4350 C   0  0  0  0  0  0  0  0  0  0  0  0
   57.8610   33.3690   46.7320 C   0  0  0  0  0  0  0  0  0  0  0  0
   58.6760   33.6710   47.8250 C   0  0  0  0  0  0  0  0  0  0  0  0
   59.8760   34.3690   47.6460 C   0  0  0  0  0  0  0  0  0  0  0  0
   60.7060   34.5570   48.7640 O   0  0  0  0  0  0  0  0  0  0  0  0
   61.9340   33.9100   48.9980 C   0  0  0  0  0  0  0  0  0  0  0  0
   62.5970   34.1620   50.2080 C   0  0  0  0  0  0  0  0  0  0  0  0
   63.8200   33.5350   50.4920 C   0  0  0  0  0  0  0  0  0  0  0  0
   64.3970   32.6600   49.5570 C   0  0  0  0  0  0  0  0  0  0  0  0
   63.7580   32.4270   48.3320 C   0  0  0  0  0  0  0  0  0  0  0  0
   62.5360   33.0570   48.0450 C   0  0  0  0  0  0  0  0  0  0  0  0
   60.2440   34.7840   46.3520 C   0  0  0  0  0  0  0  0  0  0  0  0
   59.4190   34.4970   45.2580 C   0  0  0  0  0  0  0  0  0  0  0  0
   59.5100   30.8700   45.8310 C   0  0  0  0  0  0  0  0  0  0  0  0
   60.3440   30.3870   46.8450 C   0  0  0  0  0  0  0  0  0  0  0  0
   59.6530   30.4930   50.3890 C   0  0  0  0  0  0  0  0  0  0  0  0
   59.5390   31.8860   50.5400 C   0  0  0  0  0  0  0  0  0  0  0  0
   58.3730   32.4370   51.0810 C   0  0  0  0  0  0  0  0  0  0  0  0
   57.3210   31.5890   51.4550 C   0  0  0  0  0  0  0  0  0  0  0  0
   57.4360   30.2410   51.2790 N   0  0  0  0  0  0  0  0  0  0  0  0
   58.5640   29.6800   50.7570 C   0  0  0  0  0  0  0  0  0  0  0  0
   61.9637   30.1055   51.6460 H   0  0  0  0  0  0  0  0  0  0  0  0
   62.8470   29.3501   50.2763 H   0  0  0  0  0  0  0  0  0  0  0  0
   62.5329   31.1187   50.2763 H   0  0  0  0  0  0  0  0  0  0  0  0
   61.7952   28.6714   48.4389 H   0  0  0  0  0  0  0  0  0  0  0  0
   60.3456   27.9674   49.2511 H   0  0  0  0  0  0  0  0  0  0  0  0
   58.3000   27.9641   48.1309 H   0  0  0  0  0  0  0  0  0  0  0  0
   56.8148   28.8214   46.3198 H   0  0  0  0  0  0  0  0  0  0  0  0
   58.8951   31.9474   43.6205 H   0  0  0  0  0  0  0  0  0  0  0  0
   57.3185   31.8474   42.7251 H   0  0  0  0  0  0  0  0  0  0  0  0
   57.5195   34.1190   43.4500 H   0  0  0  0  0  0  0  0  0  0  0  0
   56.3370   33.3245   44.5630 H   0  0  0  0  0  0  0  0  0  0  0  0
   56.9198   32.8213   46.8873 H   0  0  0  0  0  0  0  0  0  0  0  0
   58.3725   33.3578   48.8348 H   0  0  0  0  0  0  0  0  0  0  0  0
   62.1556   34.8554   50.9390 H   0  0  0  0  0  0  0  0  0  0  0  0
   64.3275   33.7291   51.4484 H   0  0  0  0  0  0  0  0  0  0  0  0
   65.3489   32.1585   49.7860 H   0  0  0  0  0  0  0  0  0  0  0  0
   64.2138   31.7501   47.5944 H   0  0  0  0  0  0  0  0  0  0  0  0
   62.0457   32.8861   47.0753 H   0  0  0  0  0  0  0  0  0  0  0  0
   61.1833   35.3359   46.2000 H   0  0  0  0  0  0  0  0  0  0  0  0
   59.6987   34.8501   44.2545 H   0  0  0  0  0  0  0  0  0  0  0  0
   59.8535   31.6900   45.1833 H   0  0  0  0  0  0  0  0  0  0  0  0
   61.3425   30.8259   46.9879 H   0  0  0  0  0  0  0  0  0  0  0  0
   60.3666   32.5423   50.2328 H   0  0  0  0  0  0  0  0  0  0  0  0
   58.2821   33.5254   51.2119 H   0  0  0  0  0  0  0  0  0  0  0  0
   56.4029   32.0105   51.8903 H   0  0  0  0  0  0  0  0  0  0  0  0
   58.6232   28.5898   50.6231 H   0  0  0  0  0  0  0  0  0  0  0  0
  1  2  1  0
  2  3  1  0
  3  4  1  0
  4  5  2  0
  5  6  1  0
  6  7  2  0
  7  8  1  0
  8  9  2  0
  8 10  1  0
 10 11  1  0
 11 12  1  0
 12 13  2  0
 13 14  1  0
 14 15  2  0
 15 16  1  0
 16 17  1  0
 17 18  2  0
 18 19  1  0
 19 20  2  0
 20 21  1  0
 21 22  2  0
 15 23  1  0
 23 24  2  0
  7 25  1  0
 25 26  2  0
  2 27  1  0
 27 28  2  0
 28 29  1  0
 29 30  2  0
 30 31  1  0
 31 32  2  0
 26  4  1  0
 32 27  1  0
 24 12  1  0
 22 17  1  0
  1 33  1  0
  1 34  1  0
  1 35  1  0
  3 36  1  0
  3 37  1  0
  5 38  1  0
  6 39  1  0
 10 40  1  0
 10 41  1  0
 11 42  1  0
 11 43  1  0
 13 44  1  0
 14 45  1  0
 18 46  1  0
 19 47  1  0
 20 48  1  0
 21 49  1  0
 22 50  1  0
 23 51  1  0
 24 52  1  0
 25 53  1  0
 26 54  1  0
 28 55  1  0
 29 56  1  0
 30 57  1  0
 32 58  1  0
M  END
>  <UniqueID>  (15) 
14

>  <SMILES>  (15) 
CN(Cc1ccc(C(=O)CCc2ccc(Oc3ccccc3)cc2)cc1)c1cccnc1

>  <Energy>  (15) 
79.21464219365609

>  <Genealogy>  (15) 
CN(Cc1ccc(C(=O)CCc2ccc(Oc3ccccc3)cc2)cc1)c1cccnc1 (3D coordinates assigned)
CN(Cc1ccc(C(=O)CCc2ccc(Oc3ccccc3)cc2)cc1)c1cccnc1 (optimized conformer: 79.21464219365609 kcal/mol)

>  <smiles>  (15) 
CN(Cc1ccc(C(=O)CCc2ccc(Oc3ccccc3)cc2)cc1)c1cccnc1

>  <score_type>  (15) 
oracle

>  <origin>  (15) 
adg

>  <m_score__min__energy>  (15) 
-10.220000000000001

>  <m_primary>  (15) 
energy

$$$$
15:0
     RDKit          3D

 40 42  0  0  0  0  0  0  0  0999 V2000
   57.1435   30.6877   41.3106 H   0  0  0  0  0  0  0  0  0  0  0  0
   56.9980   30.7520   42.3990 C   0  0  0  0  0  0  0  0  0  0  0  0
   57.2880   31.9040   43.0560 N   0  0  0  0  0  0  0  0  0  0  0  0
   57.1090   32.0100   44.4030 C   0  0  0  0  0  0  0  0  0  0  0  0
   57.4090   33.1040   45.0410 N   0  0  0  0  0  0  0  0  0  0  0  0
   58.2190   33.2210   46.2230 C   0  0  0  0  0  0  0  0  0  0  0  0
   58.7890   34.4620   46.5270 C   0  0  0  0  0  0  0  0  0  0  0  0
   58.5911   35.3273   45.8772 H   0  0  0  0  0  0  0  0  0  0  0  0
   59.6080   34.6110   47.6500 C   0  0  0  0  0  0  0  0  0  0  0  0
   60.0439   35.5940   47.8816 H   0  0  0  0  0  0  0  0  0  0  0  0
   59.8780   33.5150   48.4840 C   0  0  0  0  0  0  0  0  0  0  0  0
   60.7550   33.6770   49.6660 C   0  0  0  0  0  0  0  0  0  0  0  0
   60.2260   33.8080   50.8030 O   0  0  0  0  0  0  0  0  0  0  0  0
   62.1910   33.6740   49.5520 N   0  0  0  0  0  0  0  0  0  0  0  0
   62.8780   32.8480   48.5540 C   0  0  0  0  0  0  0  0  0  0  0  0
   62.2111   32.0364   48.2276 H   0  0  0  0  0  0  0  0  0  0  0  0
   63.1500   33.4690   47.6878 H   0  0  0  0  0  0  0  0  0  0  0  0
   64.1460   32.2500   49.1730 C   0  0  0  0  0  0  0  0  0  0  0  0
   63.8609   31.5271   49.9515 H   0  0  0  0  0  0  0  0  0  0  0  0
   64.7239   31.7515   48.3808 H   0  0  0  0  0  0  0  0  0  0  0  0
   64.9480   33.2620   49.7510 O   0  0  0  0  0  0  0  0  0  0  0  0
   64.2640   33.8520   50.8420 C   0  0  0  0  0  0  0  0  0  0  0  0
   63.9773   33.0654   51.5555 H   0  0  0  0  0  0  0  0  0  0  0  0
   64.9320   34.5815   51.3232 H   0  0  0  0  0  0  0  0  0  0  0  0
   63.0040   34.5810   50.3660 C   0  0  0  0  0  0  0  0  0  0  0  0
   62.4212   34.9126   51.2380 H   0  0  0  0  0  0  0  0  0  0  0  0
   63.2925   35.4546   49.7630 H   0  0  0  0  0  0  0  0  0  0  0  0
   59.3480   32.2570   48.1500 C   0  0  0  0  0  0  0  0  0  0  0  0
   59.5792   31.3829   48.7765 H   0  0  0  0  0  0  0  0  0  0  0  0
   58.5290   32.1090   47.0270 C   0  0  0  0  0  0  0  0  0  0  0  0
   58.1250   31.1185   46.7707 H   0  0  0  0  0  0  0  0  0  0  0  0
   56.6500   30.9400   45.1040 N   0  0  0  0  0  0  0  0  0  0  0  0
   56.3480   29.7650   44.4840 C   0  0  0  0  0  0  0  0  0  0  0  0
   55.8720   28.6720   45.2130 O   0  0  0  0  0  0  0  0  0  0  0  0
   56.7090   27.5970   45.6240 C   0  0  0  0  0  0  0  0  0  0  0  0
   56.7406   27.5564   46.7228 H   0  0  0  0  0  0  0  0  0  0  0  0
   56.3080   26.6501   45.2335 H   0  0  0  0  0  0  0  0  0  0  0  0
   57.7253   27.7536   45.2335 H   0  0  0  0  0  0  0  0  0  0  0  0
   56.5160   29.6510   43.1040 C   0  0  0  0  0  0  0  0  0  0  0  0
   56.2733   28.7127   42.5838 H   0  0  0  0  0  0  0  0  0  0  0  0
  1  2  1  0
  2  3  1  0
  3  4  1  0
  4  5  2  0
  5  6  1  0
  6  7  2  0
  7  8  1  0
  7  9  1  0
  9 10  1  0
  9 11  2  0
 11 12  1  0
 12 13  2  0
 12 14  1  0
 14 15  1  0
 15 16  1  0
 15 17  1  0
 15 18  1  0
 18 19  1  0
 18 20  1  0
 18 21  1  0
 21 22  1  0
 22 23  1  0
 22 24  1  0
 22 25  1  0
 25 26  1  0
 25 27  1  0
 11 28  1  0
 28 29  1  0
 28 30  2  0
 30 31  1  0
  4 32  1  0
 32 33  2  0
 33 34  1  0
 34 35  1  0
 35 36  1  0
 35 37  1  0
 35 38  1  0
 33 39  1  0
 39 40  1  0
 39  2  2  0
 30  6  1  0
 25 14  1  0
M  CHG  1   3  -1
M  END
>  <UniqueID>  (16) 
15

>  <SMILES>  (16) 
COc1cc[n-]/c(=N\c2ccc(C(=O)N3CCOCC3)cc2)n1

>  <Energy>  (16) 
53.3104620484966

>  <Genealogy>  (16) 
COc1cc[n-]c(=Nc2ccc(C(=O)N3CCOCC3)cc2)n1 (protonated)
COc1cc[n-]/c(=N\c2ccc(C(=O)N3CCOCC3)cc2)n1 (cis-trans isomerization)
COc1cc[n-]/c(=N\c2ccc(C(=O)N3CCOCC3)cc2)n1 (3D coordinates assigned)
COc1cc[n-]/c(=N\c2ccc(C(=O)N3CCOCC3)cc2)n1 (nonaromatic ring conformer: 53.3104620484966 kcal/mol)

>  <smiles>  (16) 
COc1cc[nH]c(=Nc2ccc(C(=O)N3CCOCC3)cc2)n1

>  <score_type>  (16) 
oracle

>  <origin>  (16) 
adg

>  <m_score__min__energy>  (16) 
-8.9600000000000009

>  <m_primary>  (16) 
energy

$$$$
16:0
     RDKit          3D

 54 56  0  0  0  0  0  0  0  0999 V2000
   56.4230   29.6120   42.7430 C   0  0  0  0  0  0  0  0  0  0  0  0
   55.4180   29.8020   43.8660 C   0  0  0  0  0  0  0  0  0  0  0  0
   55.6340   28.8090   44.8700 O   0  0  0  0  0  0  0  0  0  0  0  0
   56.8210   28.6590   45.6100 C   0  0  0  0  0  0  0  0  0  0  0  0
   57.8260   29.6500   45.6280 C   0  0  0  0  0  0  0  0  0  0  0  0
   58.9880   29.4770   46.3940 C   0  0  0  0  0  0  0  0  0  0  0  0
   59.1600   28.2950   47.1290 C   0  0  0  0  0  0  0  0  0  0  0  0
   58.1710   27.2990   47.0990 C   0  0  0  0  0  0  0  0  0  0  0  0
   56.9930   27.4800   46.3500 C   0  0  0  0  0  0  0  0  0  0  0  0
   55.9770   26.5090   46.3080 O   0  0  0  0  0  0  0  0  0  0  0  0
   56.1070   25.2240   45.7060 C   0  0  0  0  0  0  0  0  0  0  0  0
   60.4260   28.0910   47.9080 C   0  0  0  0  0  0  0  0  0  0  0  0
   60.8630   29.4070   48.5510 C   0  0  0  0  0  0  0  0  0  0  0  0
   60.9530   30.4880   47.5540 N   0  0  0  0  0  0  0  0  0  0  0  0
   61.8850   31.5690   47.7880 C   0  0  0  0  0  0  0  0  0  0  0  0
   62.9930   31.5850   47.1760 O   0  0  0  0  0  0  0  0  0  0  0  0
   61.4970   32.7700   48.6100 C   0  0  0  0  0  0  0  0  0  0  0  0
   60.6780   33.7290   47.8320 N   0  0  0  0  0  0  0  0  0  0  0  0
   59.2510   33.6970   48.2460 C   0  0  0  0  0  0  0  0  0  0  0  0
   58.3850   32.8710   47.2840 C   0  0  0  0  0  0  0  0  0  0  0  0
   58.4360   33.3930   45.8970 N   0  0  0  0  0  0  0  0  0  0  0  0
   57.2610   34.2340   45.5980 C   0  0  0  0  0  0  0  0  0  0  0  0
   59.6870   34.1190   45.5760 C   0  0  0  0  0  0  0  0  0  0  0  0
   60.8760   33.5600   46.3720 C   0  0  0  0  0  0  0  0  0  0  0  0
   60.0670   30.5340   46.3730 C   0  0  0  0  0  0  0  0  0  0  0  0
   57.4190   29.4237   43.1702 H   0  0  0  0  0  0  0  0  0  0  0  0
   56.1221   28.7548   42.1227 H   0  0  0  0  0  0  0  0  0  0  0  0
   56.4557   30.5199   42.1227 H   0  0  0  0  0  0  0  0  0  0  0  0
   55.5443   30.8022   44.3061 H   0  0  0  0  0  0  0  0  0  0  0  0
   54.3979   29.7041   43.4662 H   0  0  0  0  0  0  0  0  0  0  0  0
   57.6965   30.5674   45.0351 H   0  0  0  0  0  0  0  0  0  0  0  0
   58.3181   26.3681   47.6663 H   0  0  0  0  0  0  0  0  0  0  0  0
   56.1845   24.4574   46.4911 H   0  0  0  0  0  0  0  0  0  0  0  0
   55.2248   25.0209   45.0811 H   0  0  0  0  0  0  0  0  0  0  0  0
   57.0120   25.2017   45.0811 H   0  0  0  0  0  0  0  0  0  0  0  0
   60.2530   27.3414   48.6942 H   0  0  0  0  0  0  0  0  0  0  0  0
   61.2164   27.7423   47.2270 H   0  0  0  0  0  0  0  0  0  0  0  0
   60.1300   29.6901   49.3208 H   0  0  0  0  0  0  0  0  0  0  0  0
   61.8588   29.2617   48.9952 H   0  0  0  0  0  0  0  0  0  0  0  0
   60.9174   32.4324   49.4818 H   0  0  0  0  0  0  0  0  0  0  0  0
   62.4189   33.2826   48.9220 H   0  0  0  0  0  0  0  0  0  0  0  0
   59.1838   33.2550   49.2510 H   0  0  0  0  0  0  0  0  0  0  0  0
   58.8739   34.7303   48.2363 H   0  0  0  0  0  0  0  0  0  0  0  0
   58.7463   31.8320   47.2851 H   0  0  0  0  0  0  0  0  0  0  0  0
   57.3427   32.9323   47.6301 H   0  0  0  0  0  0  0  0  0  0  0  0
   56.7981   34.5653   46.5393 H   0  0  0  0  0  0  0  0  0  0  0  0
   57.5772   35.1122   45.0159 H   0  0  0  0  0  0  0  0  0  0  0  0
   56.5317   33.6515   45.0159 H   0  0  0  0  0  0  0  0  0  0  0  0
   59.8953   34.0161   44.5008 H   0  0  0  0  0  0  0  0  0  0  0  0
   59.5541   35.1768   45.8469 H   0  0  0  0  0  0  0  0  0  0  0  0
   60.9849   32.4887   46.1474 H   0  0  0  0  0  0  0  0  0  0  0  0
   61.7797   34.1145   46.0790 H   0  0  0  0  0  0  0  0  0  0  0  0
   59.5865   31.5228   46.3353 H   0  0  0  0  0  0  0  0  0  0  0  0
   60.6927   30.3433   45.4886 H   0  0  0  0  0  0  0  0  0  0  0  0
  1  2  1  0
  2  3  1  0
  3  4  1  0
  4  5  2  0
  5  6  1  0
  6  7  2  0
  7  8  1  0
  8  9  2  0
  9 10  1  0
 10 11  1  0
  7 12  1  0
 12 13  1  0
 13 14  1  0
 14 15  1  0
 15 16  2  0
 15 17  1  0
 17 18  1  0
 18 19  1  0
 19 20  1  0
 20 21  1  0
 21 22  1  0
 21 23  1  0
 23 24  1  0
 14 25  1  0
  9  4  1  0
 24 18  1  0
 25  6  1  0
  1 26  1  0
  1 27  1  0
  1 28  1  0
  2 29  1  0
  2 30  1  0
  5 31  1  0
  8 32  1  0
 11 33  1  0
 11 34  1  0
 11 35  1  0
 12 36  1  0
 12 37  1  0
 13 38  1  0
 13 39  1  0
 17 40  1  0
 17 41  1  0
 19 42  1  0
 19 43  1  0
 20 44  1  0
 20 45  1  0
 22 46  1  0
 22 47  1  0
 22 48  1  0
 23 49  1  0
 23 50  1  0
 24 51  1  0
 24 52  1  0
 25 53  1  0
 25 54  1  0
M  END
>  <UniqueID>  (17) 
16

>  <SMILES>  (17) 
CCOc1cc2c(cc1OC)CCN(C(=O)CN1CCN(C)CC1)C2

>  <Energy>  (17) 
66.51739360494989

>  <Genealogy>  (17) 
CCOc1cc2c(cc1OC)CCN(C(=O)CN1CCN(C)CC1)C2 (3D coordinates assigned)
CCOc1cc2c(cc1OC)CCN(C(=O)CN1CCN(C)CC1)C2 (nonaromatic ring conformer: 66.51739360494989 kcal/mol)

>  <smiles>  (17) 
CCOc1cc2c(cc1OC)CCN(C(=O)CN1CCN(C)CC1)C2

>  <score_type>  (17) 
oracle

>  <origin>  (17) 
adg

>  <m_score__min__energy>  (17) 
-7.5300000000000002

>  <m_primary>  (17) 
energy

$$$$
17:0
     RDKit          3D

 55 58  0  0  0  0  0  0  0  0999 V2000
   55.3930   30.4750   52.4420 C   0  0  0  0  0  0  0  0  0  0  0  0
   56.6890   30.0890   51.9960 O   0  0  0  0  0  0  0  0  0  0  0  0
   57.6410   30.9760   51.4740 C   0  0  0  0  0  0  0  0  0  0  0  0
   57.7530   32.3090   51.9120 C   0  0  0  0  0  0  0  0  0  0  0  0
   58.7060   33.1600   51.3470 C   0  0  0  0  0  0  0  0  0  0  0  0
   59.5450   32.7030   50.3130 C   0  0  0  0  0  0  0  0  0  0  0  0
   60.4710   33.5290   49.6540 O   0  0  0  0  0  0  0  0  0  0  0  0
   60.2130   34.3400   48.5030 C   0  0  0  0  0  0  0  0  0  0  0  0
   60.8150   33.7260   47.2190 C   0  0  2  0  0  0  0  0  0  0  0  0
   59.7910   32.8590   46.5080 C   0  0  0  0  0  0  0  0  0  0  0  0
   58.7350   33.4650   45.8070 C   0  0  0  0  0  0  0  0  0  0  0  0
   57.7090   32.6880   45.2630 C   0  0  0  0  0  0  0  0  0  0  0  0
   57.7150   31.2990   45.4100 C   0  0  0  0  0  0  0  0  0  0  0  0
   56.6350   30.5700   44.8910 O   0  0  0  0  0  0  0  0  0  0  0  0
   56.5660   30.0700   43.5600 C   0  0  0  0  0  0  0  0  0  0  0  0
   58.7910   30.6820   46.0740 C   0  0  0  0  0  0  0  0  0  0  0  0
   59.8390   31.4540   46.6000 C   0  0  0  0  0  0  0  0  0  0  0  0
   60.9820   30.7880   47.3100 C   0  0  0  0  0  0  0  0  0  0  0  0
   62.2610   31.5950   47.1160 C   0  0  0  0  0  0  0  0  0  0  0  0
   62.0630   32.9910   47.5310 N   0  0  0  0  0  0  0  0  0  0  0  0
   63.1680   33.6750   48.1490 C   0  0  0  0  0  0  0  0  0  0  0  0
   63.7770   34.5690   47.5000 O   0  0  0  0  0  0  0  0  0  0  0  0
   63.6040   33.3500   49.5240 C   0  0  0  0  0  0  0  0  0  0  0  0
   63.2540   34.1910   50.5950 C   0  0  0  0  0  0  0  0  0  0  0  0
   63.6590   33.8820   51.8970 C   0  0  0  0  0  0  0  0  0  0  0  0
   64.4060   32.7260   52.1430 C   0  0  0  0  0  0  0  0  0  0  0  0
   64.7420   31.8750   51.0880 C   0  0  0  0  0  0  0  0  0  0  0  0
   64.3400   32.1800   49.7850 C   0  0  0  0  0  0  0  0  0  0  0  0
   59.4550   31.3670   49.9090 C   0  0  0  0  0  0  0  0  0  0  0  0
   58.5100   30.5120   50.4810 C   0  0  0  0  0  0  0  0  0  0  0  0
   55.3706   30.4817   53.5418 H   0  0  0  0  0  0  0  0  0  0  0  0
   55.1600   31.4815   52.0644 H   0  0  0  0  0  0  0  0  0  0  0  0
   54.6472   29.7600   52.0644 H   0  0  0  0  0  0  0  0  0  0  0  0
   57.0866   32.6826   52.7034 H   0  0  0  0  0  0  0  0  0  0  0  0
   58.8014   34.1932   51.7122 H   0  0  0  0  0  0  0  0  0  0  0  0
   59.1250   34.4384   48.3739 H   0  0  0  0  0  0  0  0  0  0  0  0
   60.6834   35.3211   48.6648 H   0  0  0  0  0  0  0  0  0  0  0  0
   61.0831   34.5365   46.5253 H   0  0  0  0  0  0  0  0  0  0  0  0
   58.7158   34.5581   45.6856 H   0  0  0  0  0  0  0  0  0  0  0  0
   56.8893   33.1745   44.7141 H   0  0  0  0  0  0  0  0  0  0  0  0
   56.4157   28.9806   43.5849 H   0  0  0  0  0  0  0  0  0  0  0  0
   55.7248   30.5443   43.0333 H   0  0  0  0  0  0  0  0  0  0  0  0
   57.5042   30.2987   43.0333 H   0  0  0  0  0  0  0  0  0  0  0  0
   58.8113   29.5875   46.1817 H   0  0  0  0  0  0  0  0  0  0  0  0
   60.7536   30.7208   48.3839 H   0  0  0  0  0  0  0  0  0  0  0  0
   61.1258   29.7799   46.8941 H   0  0  0  0  0  0  0  0  0  0  0  0
   63.0644   31.1491   47.7207 H   0  0  0  0  0  0  0  0  0  0  0  0
   62.5313   31.5781   46.0499 H   0  0  0  0  0  0  0  0  0  0  0  0
   62.6585   35.0967   50.4076 H   0  0  0  0  0  0  0  0  0  0  0  0
   63.3896   34.5493   52.7290 H   0  0  0  0  0  0  0  0  0  0  0  0
   64.7289   32.4870   53.1670 H   0  0  0  0  0  0  0  0  0  0  0  0
   65.3244   30.9625   51.2832 H   0  0  0  0  0  0  0  0  0  0  0  0
   64.6004   31.5017   48.9591 H   0  0  0  0  0  0  0  0  0  0  0  0
   60.1352   30.9858   49.1331 H   0  0  0  0  0  0  0  0  0  0  0  0
   58.4487   29.4654   50.1479 H   0  0  0  0  0  0  0  0  0  0  0  0
  1  2  1  0
  2  3  1  0
  3  4  2  0
  4  5  1  0
  5  6  2  0
  6  7  1  0
  7  8  1  0
  8  9  1  0
  9 10  1  0
 10 11  2  0
 11 12  1  0
 12 13  2  0
 13 14  1  0
 14 15  1  0
 13 16  1  0
 16 17  2  0
 17 18  1  0
 18 19  1  0
 19 20  1  0
 20 21  1  0
 21 22  2  0
 21 23  1  0
 23 24  2  0
 24 25  1  0
 25 26  2  0
 26 27  1  0
 27 28  2  0
  6 29  1  0
 29 30  2  0
 30  3  1  0
 20  9  1  0
 28 23  1  0
 17 10  1  0
  1 31  1  0
  1 32  1  0
  1 33  1  0
  4 34  1  0
  5 35  1  0
  8 36  1  0
  8 37  1  0
  9 38  1  6
 11 39  1  0
 12 40  1  0
 15 41  1  0
 15 42  1  0
 15 43  1  0
 16 44  1  0
 18 45  1  0
 18 46  1  0
 19 47  1  0
 19 48  1  0
 24 49  1  0
 25 50  1  0
 26 51  1  0
 27 52  1  0
 28 53  1  0
 29 54  1  0
 30 55  1  0
M  END
>  <UniqueID>  (18) 
17

>  <SMILES>  (18) 
COc1ccc(OC[C@@H]2c3ccc(OC)cc3CCN2C(=O)c2ccccc2)cc1

>  <Energy>  (18) 
63.20896591686374

>  <Genealogy>  (18) 
COc1ccc(OC[C@@H]2c3ccc(OC)cc3CCN2C(=O)c2ccccc2)cc1 (chirality)
COc1ccc(OC[C@@H]2c3ccc(OC)cc3CCN2C(=O)c2ccccc2)cc1 (3D coordinates assigned)
COc1ccc(OC[C@@H]2c3ccc(OC)cc3CCN2C(=O)c2ccccc2)cc1 (nonaromatic ring conformer: 63.20896591686374 kcal/mol)

>  <smiles>  (18) 
COc1ccc(OCC2c3ccc(OC)cc3CCN2C(=O)c2ccccc2)cc1

>  <score_type>  (18) 
oracle

>  <origin>  (18) 
adg

>  <m_score__min__energy>  (18) 
-8.0899999999999999

>  <m_primary>  (18) 
energy

$$$$
18:0
     RDKit          3D

 55 57  0  0  0  0  0  0  0  0999 V2000
   58.0980   24.5620   45.5630 C   0  0  0  0  0  0  0  0  0  0  0  0
   58.4300   25.6760   46.3880 O   0  0  0  0  0  0  0  0  0  0  0  0
   58.4590   27.0100   45.9510 C   0  0  0  0  0  0  0  0  0  0  0  0
   59.6610   27.7080   45.7410 C   0  0  0  0  0  0  0  0  0  0  0  0
   59.6380   29.0380   45.3140 C   0  0  0  0  0  0  0  0  0  0  0  0
   58.4180   29.6920   45.0760 C   0  0  0  0  0  0  0  0  0  0  0  0
   58.4150   31.1430   44.6270 C   0  0  0  0  0  0  0  0  0  0  0  0
   57.5940   32.0130   45.5100 N   0  0  0  0  0  0  0  0  0  0  0  0
   57.3650   33.3580   44.9150 C   0  0  0  0  0  0  0  0  0  0  0  0
   58.5240   34.3340   45.2070 C   0  0  0  0  0  0  0  0  0  0  0  0
   58.8250   34.4780   46.6590 N   0  0  0  0  0  0  0  0  0  0  0  0
   60.2860   34.4830   46.9230 C   0  0  0  0  0  0  0  0  0  0  0  0
   60.5740   34.5870   48.4240 C   0  0  0  0  0  0  0  0  0  0  0  0
   61.2920   33.4370   48.8780 O   0  0  0  0  0  0  0  0  0  0  0  0
   60.7850   32.1270   48.9510 C   0  0  0  0  0  0  0  0  0  0  0  0
   61.3350   31.1600   48.0990 C   0  0  0  0  0  0  0  0  0  0  0  0
   60.8660   29.8420   48.1210 C   0  0  0  0  0  0  0  0  0  0  0  0
   59.8410   29.4780   49.0020 C   0  0  0  0  0  0  0  0  0  0  0  0
   59.3830   28.2030   49.0220 F   0  0  0  0  0  0  0  0  0  0  0  0
   59.2890   30.4320   49.8610 C   0  0  0  0  0  0  0  0  0  0  0  0
   59.7570   31.7520   49.8410 C   0  0  0  0  0  0  0  0  0  0  0  0
   58.1270   33.4770   47.5010 C   0  0  0  0  0  0  0  0  0  0  0  0
   58.2000   32.0760   46.8730 C   0  0  0  0  0  0  0  0  0  0  0  0
   57.2050   28.9990   45.2790 C   0  0  0  0  0  0  0  0  0  0  0  0
   55.9920   29.6650   45.0370 O   0  0  0  0  0  0  0  0  0  0  0  0
   55.4740   29.9620   43.7440 C   0  0  0  0  0  0  0  0  0  0  0  0
   57.2410   27.6600   45.7190 C   0  0  0  0  0  0  0  0  0  0  0  0
   57.8412   23.7002   46.1965 H   0  0  0  0  0  0  0  0  0  0  0  0
   57.2376   24.8196   44.9279 H   0  0  0  0  0  0  0  0  0  0  0  0
   58.9590   24.3065   44.9279 H   0  0  0  0  0  0  0  0  0  0  0  0
   60.6238   27.2048   45.9136 H   0  0  0  0  0  0  0  0  0  0  0  0
   60.5843   29.5781   45.1628 H   0  0  0  0  0  0  0  0  0  0  0  0
   59.4502   31.5148   44.6299 H   0  0  0  0  0  0  0  0  0  0  0  0
   57.9738   31.1793   43.6200 H   0  0  0  0  0  0  0  0  0  0  0  0
   56.6490   31.5670   45.6130 H   0  0  0  0  0  0  0  0  0  0  0  0
   57.2603   33.2494   43.8254 H   0  0  0  0  0  0  0  0  0  0  0  0
   56.4529   33.7746   45.3673 H   0  0  0  0  0  0  0  0  0  0  0  0
   59.4270   33.9650   44.6987 H   0  0  0  0  0  0  0  0  0  0  0  0
   58.2152   35.3238   44.8398 H   0  0  0  0  0  0  0  0  0  0  0  0
   60.7242   33.5510   46.5367 H   0  0  0  0  0  0  0  0  0  0  0  0
   60.7292   35.3554   46.4206 H   0  0  0  0  0  0  0  0  0  0  0  0
   61.1755   35.4879   48.6154 H   0  0  0  0  0  0  0  0  0  0  0  0
   59.6185   34.6461   48.9658 H   0  0  0  0  0  0  0  0  0  0  0  0
   62.1427   31.4396   47.4066 H   0  0  0  0  0  0  0  0  0  0  0  0
   61.3029   29.0916   47.4457 H   0  0  0  0  0  0  0  0  0  0  0  0
   58.4848   30.1456   50.5547 H   0  0  0  0  0  0  0  0  0  0  0  0
   59.3215   32.4985   50.5215 H   0  0  0  0  0  0  0  0  0  0  0  0
   58.6000   33.4505   48.4937 H   0  0  0  0  0  0  0  0  0  0  0  0
   57.0693   33.7675   47.5835 H   0  0  0  0  0  0  0  0  0  0  0  0
   59.2568   31.7795   46.8003 H   0  0  0  0  0  0  0  0  0  0  0  0
   57.6252   31.3964   47.5193 H   0  0  0  0  0  0  0  0  0  0  0  0
   54.5238   30.5068   43.8459 H   0  0  0  0  0  0  0  0  0  0  0  0
   56.1958   30.5835   43.1937 H   0  0  0  0  0  0  0  0  0  0  0  0
   55.3023   29.0251   43.1937 H   0  0  0  0  0  0  0  0  0  0  0  0
   56.2979   27.1179   45.8825 H   0  0  0  0  0  0  0  0  0  0  0  0
  1  2  1  0
  2  3  1  0
  3  4  2  0
  4  5  1  0
  5  6  2  0
  6  7  1  0
  7  8  1  0
  8  9  1  0
  9 10  1  0
 10 11  1  0
 11 12  1  0
 12 13  1  0
 13 14  1  0
 14 15  1  0
 15 16  2  0
 16 17  1  0
 17 18  2  0
 18 19  1  0
 18 20  1  0
 20 21  2  0
 11 22  1  0
 22 23  1  0
  6 24  1  0
 24 25  1  0
 25 26  1  0
 24 27  2  0
 27  3  1  0
 23  8  1  0
 21 15  1  0
  1 28  1  0
  1 29  1  0
  1 30  1  0
  4 31  1  0
  5 32  1  0
  7 33  1  0
  7 34  1  0
  8 35  1  0
  9 36  1  0
  9 37  1  0
 10 38  1  0
 10 39  1  0
 12 40  1  0
 12 41  1  0
 13 42  1  0
 13 43  1  0
 16 44  1  0
 17 45  1  0
 20 46  1  0
 21 47  1  0
 22 48  1  0
 22 49  1  0
 23 50  1  0
 23 51  1  0
 26 52  1  0
 26 53  1  0
 26 54  1  0
 27 55  1  0
M  CHG  1   8   1
M  END
>  <UniqueID>  (19) 
18

>  <SMILES>  (19) 
COc1ccc(C[NH+]2CCN(CCOc3ccc(F)cc3)CC2)c(OC)c1

>  <Energy>  (19) 
71.02610429842515

>  <Genealogy>  (19) 
COc1ccc(C[NH+]2CCN(CCOc3ccc(F)cc3)CC2)c(OC)c1 (protonated)
COc1ccc(C[NH+]2CCN(CCOc3ccc(F)cc3)CC2)c(OC)c1 (3D coordinates assigned)
COc1ccc(C[NH+]2CCN(CCOc3ccc(F)cc3)CC2)c(OC)c1 (nonaromatic ring conformer: 71.02610429842515 kcal/mol)

>  <smiles>  (19) 
COc1ccc(CN2CCN(CCOc3ccc(F)cc3)CC2)c(OC)c1

>  <score_type>  (19) 
oracle

>  <origin>  (19) 
adg

>  <m_score__min__energy>  (19) 
-5.6100000000000003

>  <m_primary>  (19) 
energy

$$$$
19:0
     RDKit          3D

 54 56  0  0  0  0  0  0  0  0999 V2000
   64.4370   31.5270   50.7530 C   0  0  0  0  0  0  0  0  0  0  0  0
   65.5160   32.3590   50.0690 C   0  0  0  0  0  0  0  0  0  0  0  0
   64.9430   33.4660   49.3700 O   0  0  0  0  0  0  0  0  0  0  0  0
   63.6560   33.4940   48.8060 C   0  0  0  0  0  0  0  0  0  0  0  0
   63.4320   32.7810   47.6280 C   0  0  0  0  0  0  0  0  0  0  0  0
   62.1700   32.7730   47.0310 C   0  0  0  0  0  0  0  0  0  0  0  0
   61.1220   33.4970   47.6250 C   0  0  0  0  0  0  0  0  0  0  0  0
   59.7990   33.5080   47.0540 N   0  0  0  0  0  0  0  0  0  0  0  0
   58.6060   33.2440   47.8380 C   0  0  0  0  0  0  0  0  0  0  0  0
   57.4630   33.1390   46.8370 C   0  0  0  0  0  0  0  0  0  0  0  0
   57.9810   33.7490   45.5330 C   0  0  2  0  0  0  0  0  0  0  0  0
   57.5510   32.9660   44.4190 O   0  0  0  0  0  0  0  0  0  0  0  0
   57.7030   31.5770   44.2920 C   0  0  0  0  0  0  0  0  0  0  0  0
   58.8010   30.9740   44.9120 C   0  0  0  0  0  0  0  0  0  0  0  0
   59.0010   29.5940   44.8220 C   0  0  0  0  0  0  0  0  0  0  0  0
   58.0880   28.7860   44.1190 C   0  0  0  0  0  0  0  0  0  0  0  0
   58.2950   27.2890   44.0090 C   0  0  2  0  0  0  0  0  0  0  0  0
   58.1430   26.8010   42.5650 C   0  0  0  0  0  0  0  0  0  0  0  0
   57.3440   26.5900   44.8800 N   0  0  0  0  0  0  0  0  0  0  0  0
   57.7500   25.8000   46.0050 C   0  0  0  0  0  0  0  0  0  0  0  0
   56.7150   25.2000   46.9020 C   0  0  0  0  0  0  0  0  0  0  0  0
   58.9710   25.6110   46.2500 O   0  0  0  0  0  0  0  0  0  0  0  0
   56.9840   29.3930   43.4940 C   0  0  0  0  0  0  0  0  0  0  0  0
   56.7910   30.7750   43.5800 C   0  0  0  0  0  0  0  0  0  0  0  0
   59.5050   33.7610   45.6540 C   0  0  0  0  0  0  0  0  0  0  0  0
   61.3650   34.1940   48.7690 N   0  0  0  0  0  0  0  0  0  0  0  0
   62.5850   34.2140   49.3680 C   0  0  0  0  0  0  0  0  0  0  0  0
   64.5460   31.6110   51.8444 H   0  0  0  0  0  0  0  0  0  0  0  0
   63.4448   31.8961   50.4541 H   0  0  0  0  0  0  0  0  0  0  0  0
   64.5417   30.4736   50.4541 H   0  0  0  0  0  0  0  0  0  0  0  0
   66.2151   32.7368   50.8296 H   0  0  0  0  0  0  0  0  0  0  0  0
   66.0430   31.7215   49.3438 H   0  0  0  0  0  0  0  0  0  0  0  0
   64.2573   32.2200   47.1653 H   0  0  0  0  0  0  0  0  0  0  0  0
   61.9975   32.2055   46.1046 H   0  0  0  0  0  0  0  0  0  0  0  0
   58.7148   32.3015   48.3946 H   0  0  0  0  0  0  0  0  0  0  0  0
   58.4242   34.0387   48.5765 H   0  0  0  0  0  0  0  0  0  0  0  0
   57.1872   32.0855   46.6821 H   0  0  0  0  0  0  0  0  0  0  0  0
   56.5655   33.6637   47.1965 H   0  0  0  0  0  0  0  0  0  0  0  0
   57.5944   34.7657   45.3692 H   0  0  0  0  0  0  0  0  0  0  0  0
   59.5148   31.5920   45.4764 H   0  0  0  0  0  0  0  0  0  0  0  0
   59.8776   29.1363   45.3037 H   0  0  0  0  0  0  0  0  0  0  0  0
   59.3229   27.0648   44.3302 H   0  0  0  0  0  0  0  0  0  0  0  0
   57.8159   25.7508   42.5654 H   0  0  0  0  0  0  0  0  0  0  0  0
   57.3945   27.4180   42.0463 H   0  0  0  0  0  0  0  0  0  0  0  0
   59.1095   26.8838   42.0463 H   0  0  0  0  0  0  0  0  0  0  0  0
   56.3190   26.7190   44.7050 H   0  0  0  0  0  0  0  0  0  0  0  0
   56.9994   25.3649   47.9517 H   0  0  0  0  0  0  0  0  0  0  0  0
   55.7416   25.6739   46.7071 H   0  0  0  0  0  0  0  0  0  0  0  0
   56.6425   24.1198   46.7071 H   0  0  0  0  0  0  0  0  0  0  0  0
   56.2668   28.7756   42.9332 H   0  0  0  0  0  0  0  0  0  0  0  0
   55.9223   31.2379   43.0890 H   0  0  0  0  0  0  0  0  0  0  0  0
   59.9444   32.9742   45.0232 H   0  0  0  0  0  0  0  0  0  0  0  0
   59.9274   34.7206   45.3213 H   0  0  0  0  0  0  0  0  0  0  0  0
   62.7352   34.7925   50.2914 H   0  0  0  0  0  0  0  0  0  0  0  0
  1  2  1  0
  2  3  1  0
  3  4  1  0
  4  5  2  0
  5  6  1  0
  6  7  2  0
  7  8  1  0
  8  9  1  0
  9 10  1  0
 10 11  1  0
 11 12  1  0
 12 13  1  0
 13 14  2  0
 14 15  1  0
 15 16  2  0
 16 17  1  0
 17 18  1  0
 17 19  1  0
 19 20  1  0
 20 21  1  0
 20 22  2  0
 16 23  1  0
 23 24  2  0
 11 25  1  0
  7 26  1  0
 26 27  2  0
 27  4  1  0
 25  8  1  0
 24 13  1  0
  1 28  1  0
  1 29  1  0
  1 30  1  0
  2 31  1  0
  2 32  1  0
  5 33  1  0
  6 34  1  0
  9 35  1  0
  9 36  1  0
 10 37  1  0
 10 38  1  0
 11 39  1  6
 14 40  1  0
 15 41  1  0
 17 42  1  1
 18 43  1  0
 18 44  1  0
 18 45  1  0
 19 46  1  0
 21 47  1  0
 21 48  1  0
 21 49  1  0
 23 50  1  0
 24 51  1  0
 25 52  1  0
 25 53  1  0
 27 54  1  0
M  END
>  <UniqueID>  (20) 
19

>  <SMILES>  (20) 
CCOc1ccc(N2CC[C@H](Oc3ccc([C@H](C)NC(C)=O)cc3)C2)nc1

>  <Energy>  (20) 
50.1050202918306

>  <Genealogy>  (20) 
CCOc1ccc(N2CC[C@H](Oc3ccc([C@H](C)NC(C)=O)cc3)C2)nc1 (chirality)
CCOc1ccc(N2CC[C@H](Oc3ccc([C@H](C)NC(C)=O)cc3)C2)nc1 (3D coordinates assigned)
CCOc1ccc(N2CC[C@H](Oc3ccc([C@H](C)NC(C)=O)cc3)C2)nc1 (nonaromatic ring conformer: 50.1050202918306 kcal/mol)

>  <smiles>  (20) 
CCOc1ccc(N2CCC(Oc3ccc(C(C)NC(C)=O)cc3)C2)nc1

>  <score_type>  (20) 
oracle

>  <origin>  (20) 
adg

>  <m_score__min__energy>  (20) 
-7.8200000000000003

>  <m_primary>  (20) 
energy

$$$$
20:0
     RDKit          3D

 41 42  0  0  0  0  0  0  0  0999 V2000
   56.5410   30.2960   43.7140 C   0  0  0  0  0  0  0  0  0  0  0  0
   56.6860   30.8460   45.0190 O   0  0  0  0  0  0  0  0  0  0  0  0
   57.9170   31.0670   45.6590 C   0  0  0  0  0  0  0  0  0  0  0  0
   58.6400   30.0170   46.2550 C   0  0  0  0  0  0  0  0  0  0  0  0
   59.8590   30.2690   46.8820 C   0  0  0  0  0  0  0  0  0  0  0  0
   60.3710   31.5640   46.9260 C   0  0  0  0  0  0  0  0  0  0  0  0
   59.6710   32.6320   46.3400 C   0  0  0  0  0  0  0  0  0  0  0  0
   60.2650   34.0210   46.4380 C   0  0  0  0  0  0  0  0  0  0  0  0
   59.4240   34.9560   47.3290 C   0  0  0  0  0  0  0  0  0  0  0  0
   59.6150   34.7150   48.7730 N   0  0  0  0  0  0  0  0  0  0  0  0
   60.9790   34.2570   49.0810 C   0  0  0  0  0  0  0  0  0  0  0  0
   61.0080   33.4880   50.4070 C   0  0  0  0  0  0  0  0  0  0  0  0
   59.7180   33.4910   51.0190 O   0  0  0  0  0  0  0  0  0  0  0  0
   58.8890   32.3690   51.1810 C   0  0  0  0  0  0  0  0  0  0  0  0
   59.2620   31.1760   50.5520 C   0  0  0  0  0  0  0  0  0  0  0  0
   58.4620   30.0390   50.6920 C   0  0  0  0  0  0  0  0  0  0  0  0
   57.3280   30.0910   51.4370 N   0  0  0  0  0  0  0  0  0  0  0  0
   56.9390   31.2330   52.0630 C   0  0  0  0  0  0  0  0  0  0  0  0
   57.7100   32.3930   51.9500 C   0  0  0  0  0  0  0  0  0  0  0  0
   58.4320   32.3750   45.7010 C   0  0  0  0  0  0  0  0  0  0  0  0
   57.4080   33.7770   44.8690 Br  0  0  0  0  0  0  0  0  0  0  0  0
   56.2613   29.2350   43.7923 H   0  0  0  0  0  0  0  0  0  0  0  0
   55.7564   30.8429   43.1707 H   0  0  0  0  0  0  0  0  0  0  0  0
   57.4933   30.3850   43.1707 H   0  0  0  0  0  0  0  0  0  0  0  0
   58.2411   28.9923   46.2259 H   0  0  0  0  0  0  0  0  0  0  0  0
   60.4189   29.4424   47.3438 H   0  0  0  0  0  0  0  0  0  0  0  0
   61.3332   31.7522   47.4247 H   0  0  0  0  0  0  0  0  0  0  0  0
   61.2769   33.9437   46.8625 H   0  0  0  0  0  0  0  0  0  0  0  0
   60.2855   34.4501   45.4254 H   0  0  0  0  0  0  0  0  0  0  0  0
   59.7066   35.9959   47.1083 H   0  0  0  0  0  0  0  0  0  0  0  0
   58.3661   34.7568   47.1028 H   0  0  0  0  0  0  0  0  0  0  0  0
   59.3890   35.5770   49.3210 H   0  0  0  0  0  0  0  0  0  0  0  0
   58.9450   33.9660   49.0660 H   0  0  0  0  0  0  0  0  0  0  0  0
   61.3289   33.5970   48.2735 H   0  0  0  0  0  0  0  0  0  0  0  0
   61.6350   35.1357   49.1683 H   0  0  0  0  0  0  0  0  0  0  0  0
   61.3147   32.4491   50.2156 H   0  0  0  0  0  0  0  0  0  0  0  0
   61.7228   33.9775   51.0848 H   0  0  0  0  0  0  0  0  0  0  0  0
   60.1814   31.1334   49.9497 H   0  0  0  0  0  0  0  0  0  0  0  0
   58.7515   29.0999   50.1977 H   0  0  0  0  0  0  0  0  0  0  0  0
   56.0151   31.2442   52.6600 H   0  0  0  0  0  0  0  0  0  0  0  0
   57.3982   33.3176   52.4579 H   0  0  0  0  0  0  0  0  0  0  0  0
  1  2  1  0
  2  3  1  0
  3  4  2  0
  4  5  1  0
  5  6  2  0
  6  7  1  0
  7  8  1  0
  8  9  1  0
  9 10  1  0
 10 11  1  0
 11 12  1  0
 12 13  1  0
 13 14  1  0
 14 15  2  0
 15 16  1  0
 16 17  2  0
 17 18  1  0
 18 19  2  0
  7 20  2  0
 20 21  1  0
 20  3  1  0
 19 14  1  0
  1 22  1  0
  1 23  1  0
  1 24  1  0
  4 25  1  0
  5 26  1  0
  6 27  1  0
  8 28  1  0
  8 29  1  0
  9 30  1  0
  9 31  1  0
 10 32  1  0
 10 33  1  0
 11 34  1  0
 11 35  1  0
 12 36  1  0
 12 37  1  0
 15 38  1  0
 16 39  1  0
 18 40  1  0
 19 41  1  0
M  CHG  1  10   1
M  END
>  <UniqueID>  (21) 
20

>  <SMILES>  (21) 
COc1cccc(CC[NH2+]CCOc2ccncc2)c1Br

>  <Energy>  (21) 
40.83219503145884

>  <Genealogy>  (21) 
COc1cccc(CC[NH2+]CCOc2ccncc2)c1Br (protonated)
COc1cccc(CC[NH2+]CCOc2ccncc2)c1Br (3D coordinates assigned)
COc1cccc(CC[NH2+]CCOc2ccncc2)c1Br (optimized conformer: 40.83219503145884 kcal/mol)

>  <smiles>  (21) 
COc1cccc(CCNCCOc2ccncc2)c1Br

>  <score_type>  (21) 
oracle

>  <origin>  (21) 
adg

>  <m_score__min__energy>  (21) 
-4.6900000000000004

>  <m_primary>  (21) 
energy

$$$$
21:0
     RDKit          3D

 26 26  0  0  0  0  0  0  0  0999 V2000
   58.9450   28.4940   44.9910 C   0  0  0  0  0  0  0  0  0  0  0  0
   57.6640   28.4600   45.8160 C   0  0  0  0  0  0  0  0  0  0  0  0
   56.8530   29.6520   45.5700 N   0  0  0  0  0  0  0  0  0  0  0  0
   57.2690   30.6960   44.6760 C   0  0  0  0  0  0  0  0  0  0  0  0
   56.9930   30.5890   43.2930 C   0  0  0  0  0  0  0  0  0  0  0  0
   56.2890   29.3830   42.7290 C   0  0  0  0  0  0  0  0  0  0  0  0
   57.4460   31.5860   42.4150 C   0  0  0  0  0  0  0  0  0  0  0  0
   58.1330   32.6970   42.9020 C   0  0  0  0  0  0  0  0  0  0  0  0
   58.3680   32.8320   44.2680 C   0  0  0  0  0  0  0  0  0  0  0  0
   57.9230   31.8520   45.1690 C   0  0  0  0  0  0  0  0  0  0  0  0
   58.1730   32.0590   46.6390 C   0  0  0  0  0  0  0  0  0  0  0  0
   59.8144   28.5171   45.6645 H   0  0  0  0  0  0  0  0  0  0  0  0
   58.9964   27.5969   44.3565 H   0  0  0  0  0  0  0  0  0  0  0  0
   58.9488   29.3926   44.3565 H   0  0  0  0  0  0  0  0  0  0  0  0
   57.0833   27.5666   45.5428 H   0  0  0  0  0  0  0  0  0  0  0  0
   57.9333   28.4320   46.8822 H   0  0  0  0  0  0  0  0  0  0  0  0
   55.8990   29.7040   45.9940 H   0  0  0  0  0  0  0  0  0  0  0  0
   55.9218   28.7540   43.5533 H   0  0  0  0  0  0  0  0  0  0  0  0
   55.4398   29.7099   42.1109 H   0  0  0  0  0  0  0  0  0  0  0  0
   56.9912   28.8043   42.1109 H   0  0  0  0  0  0  0  0  0  0  0  0
   57.2577   31.4901   41.3355 H   0  0  0  0  0  0  0  0  0  0  0  0
   58.4906   33.4694   42.2052 H   0  0  0  0  0  0  0  0  0  0  0  0
   58.9069   33.7141   44.6441 H   0  0  0  0  0  0  0  0  0  0  0  0
   57.4539   31.4636   47.2206 H   0  0  0  0  0  0  0  0  0  0  0  0
   59.1967   31.7406   46.8852 H   0  0  0  0  0  0  0  0  0  0  0  0
   58.0511   33.1241   46.8852 H   0  0  0  0  0  0  0  0  0  0  0  0
  1  2  1  0
  2  3  1  0
  3  4  1  0
  4  5  2  0
  5  6  1  0
  5  7  1  0
  7  8  2  0
  8  9  1  0
  9 10  2  0
 10 11  1  0
 10  4  1  0
  1 12  1  0
  1 13  1  0
  1 14  1  0
  2 15  1  0
  2 16  1  0
  3 17  1  0
  6 18  1  0
  6 19  1  0
  6 20  1  0
  7 21  1  0
  8 22  1  0
  9 23  1  0
 11 24  1  0
 11 25  1  0
 11 26  1  0
M  END
>  <UniqueID>  (22) 
21

>  <SMILES>  (22) 
CCNc1c(C)cccc1C

>  <Energy>  (22) 
26.109559240788016

>  <Genealogy>  (22) 
CCNc1c(C)cccc1C (3D coordinates assigned)
CCNc1c(C)cccc1C (optimized conformer: 26.109559240788016 kcal/mol)

>  <smiles>  (22) 
CCNc1c(C)cccc1C

>  <score_type>  (22) 
oracle

>  <origin>  (22) 
adg

>  <m_score__min__energy>  (22) 
-4.7699999999999996

>  <m_primary>  (22) 
energy

$$$$
22:0
     RDKit          3D

 50 52  0  0  0  0  0  0  0  0999 V2000
   56.5340   30.1300   43.2950 C   0  0  0  0  0  0  0  0  0  0  0  0
   56.5970   30.8800   44.5030 O   0  0  0  0  0  0  0  0  0  0  0  0
   57.7240   30.9590   45.3390 C   0  0  0  0  0  0  0  0  0  0  0  0
   58.3020   29.8090   45.9030 C   0  0  0  0  0  0  0  0  0  0  0  0
   59.4270   29.9110   46.7170 C   0  0  0  0  0  0  0  0  0  0  0  0
   59.9690   31.1600   47.0100 C   0  0  0  0  0  0  0  0  0  0  0  0
   59.3800   32.3390   46.5140 C   0  0  0  0  0  0  0  0  0  0  0  0
   58.2880   32.2250   45.6110 C   0  0  0  0  0  0  0  0  0  0  0  0
   57.6920   33.4500   44.9570 C   0  0  0  0  0  0  0  0  0  0  0  0
   58.7010   34.5910   44.8780 C   0  0  0  0  0  0  0  0  0  0  0  0
   59.2340   34.8930   46.2720 C   0  0  0  0  0  0  0  0  0  0  0  0
   60.0080   33.6900   46.8640 C   0  0  1  0  0  0  0  0  0  0  0  0
   60.1330   33.8670   48.4020 C   0  0  0  0  0  0  0  0  0  0  0  0
   61.4480   33.4270   48.9230 N   0  0  0  0  0  0  0  0  0  0  0  0
   61.3370   32.1050   49.5630 C   0  0  0  0  0  0  0  0  0  0  0  0
   62.5580   33.4730   47.9380 C   0  0  0  0  0  0  0  0  0  0  0  0
   63.7550   32.5610   48.2750 C   0  0  0  0  0  0  0  0  0  0  0  0
   64.4660   33.0680   49.5010 C   0  0  0  0  0  0  0  0  0  0  0  0
   65.7990   32.7020   49.7460 C   0  0  0  0  0  0  0  0  0  0  0  0
   66.4320   33.1550   50.9050 C   0  0  0  0  0  0  0  0  0  0  0  0
   65.7350   33.9570   51.8090 C   0  0  0  0  0  0  0  0  0  0  0  0
   64.4060   34.2920   51.5410 C   0  0  0  0  0  0  0  0  0  0  0  0
   63.8000   33.8420   50.4080 N   0  0  0  0  0  0  0  0  0  0  0  0
   56.4441   29.0597   43.5322 H   0  0  0  0  0  0  0  0  0  0  0  0
   55.6596   30.4505   42.7096 H   0  0  0  0  0  0  0  0  0  0  0  0
   57.4496   30.3002   42.7096 H   0  0  0  0  0  0  0  0  0  0  0  0
   57.8626   28.8212   45.7000 H   0  0  0  0  0  0  0  0  0  0  0  0
   59.8891   29.0022   47.1300 H   0  0  0  0  0  0  0  0  0  0  0  0
   60.8699   31.2265   47.6377 H   0  0  0  0  0  0  0  0  0  0  0  0
   57.3677   33.1890   43.9388 H   0  0  0  0  0  0  0  0  0  0  0  0
   56.8401   33.7855   45.5666 H   0  0  0  0  0  0  0  0  0  0  0  0
   59.5343   34.2991   44.2219 H   0  0  0  0  0  0  0  0  0  0  0  0
   58.2106   35.4872   44.4703 H   0  0  0  0  0  0  0  0  0  0  0  0
   59.9105   35.7585   46.2149 H   0  0  0  0  0  0  0  0  0  0  0  0
   58.3766   35.1044   46.9278 H   0  0  0  0  0  0  0  0  0  0  0  0
   61.0085   33.6801   46.4069 H   0  0  0  0  0  0  0  0  0  0  0  0
   59.9958   34.9308   48.6461 H   0  0  0  0  0  0  0  0  0  0  0  0
   59.3621   33.2390   48.8725 H   0  0  0  0  0  0  0  0  0  0  0  0
   61.3471   32.2250   50.6564 H   0  0  0  0  0  0  0  0  0  0  0  0
   60.3955   31.6265   49.2553 H   0  0  0  0  0  0  0  0  0  0  0  0
   62.1855   31.4762   49.2553 H   0  0  0  0  0  0  0  0  0  0  0  0
   62.1602   33.1688   46.9586 H   0  0  0  0  0  0  0  0  0  0  0  0
   62.9401   34.5044   47.9476 H   0  0  0  0  0  0  0  0  0  0  0  0
   63.3922   31.5395   48.4618 H   0  0  0  0  0  0  0  0  0  0  0  0
   64.4563   32.5615   47.4275 H   0  0  0  0  0  0  0  0  0  0  0  0
   66.3398   32.0642   49.0314 H   0  0  0  0  0  0  0  0  0  0  0  0
   67.4782   32.8801   51.1050 H   0  0  0  0  0  0  0  0  0  0  0  0
   66.2269   34.3215   52.7229 H   0  0  0  0  0  0  0  0  0  0  0  0
   63.8466   34.9220   52.2482 H   0  0  0  0  0  0  0  0  0  0  0  0
   62.8010   34.1000   50.2380 H   0  0  0  0  0  0  0  0  0  0  0  0
  1  2  1  0
  2  3  1  0
  3  4  2  0
  4  5  1  0
  5  6  2  0
  6  7  1  0
  7  8  2  0
  8  9  1  0
  9 10  1  0
 10 11  1  0
 11 12  1  0
 12 13  1  0
 13 14  1  0
 14 15  1  0
 14 16  1  0
 16 17  1  0
 17 18  1  0
 18 19  2  0
 19 20  1  0
 20 21  2  0
 21 22  1  0
 22 23  2  0
  8  3  1  0
 23 18  1  0
 12  7  1  0
  1 24  1  0
  1 25  1  0
  1 26  1  0
  4 27  1  0
  5 28  1  0
  6 29  1  0
  9 30  1  0
  9 31  1  0
 10 32  1  0
 10 33  1  0
 11 34  1  0
 11 35  1  0
 12 36  1  6
 13 37  1  0
 13 38  1  0
 15 39  1  0
 15 40  1  0
 15 41  1  0
 16 42  1  0
 16 43  1  0
 17 44  1  0
 17 45  1  0
 19 46  1  0
 20 47  1  0
 21 48  1  0
 22 49  1  0
 23 50  1  0
M  CHG  1  23   1
M  END
>  <UniqueID>  (23) 
22

>  <SMILES>  (23) 
COc1cccc2c1CCC[C@H]2CN(C)CCc1cccc[nH+]1

>  <Energy>  (23) 
55.152184919350915

>  <Genealogy>  (23) 
COc1cccc2c1CCCC2CN(C)CCc1cccc[nH+]1 (protonated)
COc1cccc2c1CCC[C@H]2CN(C)CCc1cccc[nH+]1 (chirality)
COc1cccc2c1CCC[C@H]2CN(C)CCc1cccc[nH+]1 (3D coordinates assigned)
COc1cccc2c1CCC[C@H]2CN(C)CCc1cccc[nH+]1 (nonaromatic ring conformer: 55.152184919350915 kcal/mol)

>  <smiles>  (23) 
COc1cccc2c1CCCC2CN(C)CCc1ccccn1

>  <score_type>  (23) 
oracle

>  <origin>  (23) 
adg

>  <m_score__min__energy>  (23) 
-6.9500000000000002

>  <m_primary>  (23) 
energy

$$$$
23:0
     RDKit          3D

 53 56  0  0  0  0  0  0  0  0999 V2000
   60.6220   28.6930   48.7050 C   0  0  0  0  0  0  0  0  0  0  0  0
   60.3300   28.7770   47.3140 O   0  0  0  0  0  0  0  0  0  0  0  0
   59.5260   29.7680   46.7250 C   0  0  0  0  0  0  0  0  0  0  0  0
   59.7220   31.1380   46.9840 C   0  0  0  0  0  0  0  0  0  0  0  0
   58.9190   32.1090   46.3550 C   0  0  0  0  0  0  0  0  0  0  0  0
   57.9320   31.6950   45.4460 C   0  0  0  0  0  0  0  0  0  0  0  0
   57.7240   30.3360   45.1980 C   0  0  0  0  0  0  0  0  0  0  0  0
   58.5100   29.3700   45.8380 C   0  0  0  0  0  0  0  0  0  0  0  0
   58.2850   27.9770   45.5730 N   0  0  0  0  0  0  0  0  0  0  0  0
   58.1130   27.0460   46.6940 C   0  0  0  0  0  0  0  0  0  0  0  0
   57.1380   25.8990   46.3420 C   0  0  0  0  0  0  0  0  0  0  0  0
   56.9060   25.7450   44.8840 N   0  0  0  0  0  0  0  0  0  0  0  0
   56.3730   24.4030   44.5900 C   0  0  0  0  0  0  0  0  0  0  0  0
   58.1420   25.9860   44.1150 C   0  0  0  0  0  0  0  0  0  0  0  0
   58.5440   27.4620   44.2230 C   0  0  0  0  0  0  0  0  0  0  0  0
   57.1150   32.6710   44.7920 N   0  0  0  0  0  0  0  0  0  0  0  0
   57.3570   33.9440   44.8730 C   0  0  0  0  0  0  0  0  0  0  0  0
   58.5860   34.4670   45.5670 C   0  0  0  0  0  0  0  0  0  0  0  0
   59.0710   33.5270   46.5930 N   0  0  0  0  0  0  0  0  0  0  0  0
   59.6250   34.0730   47.8430 C   0  0  0  0  0  0  0  0  0  0  0  0
   61.1190   33.8800   47.8900 C   0  0  0  0  0  0  0  0  0  0  0  0
   61.8610   33.8130   46.6960 C   0  0  0  0  0  0  0  0  0  0  0  0
   63.2430   33.6020   46.7360 C   0  0  0  0  0  0  0  0  0  0  0  0
   63.8940   33.4500   47.9620 C   0  0  0  0  0  0  0  0  0  0  0  0
   63.1640   33.5090   49.1520 C   0  0  0  0  0  0  0  0  0  0  0  0
   61.7820   33.7210   49.1170 C   0  0  0  0  0  0  0  0  0  0  0  0
   59.7235   28.9515   49.2845 H   0  0  0  0  0  0  0  0  0  0  0  0
   60.9358   27.6682   48.9526 H   0  0  0  0  0  0  0  0  0  0  0  0
   61.4324   29.3945   48.9526 H   0  0  0  0  0  0  0  0  0  0  0  0
   60.5097   31.4529   47.6842 H   0  0  0  0  0  0  0  0  0  0  0  0
   56.9377   30.0228   44.4954 H   0  0  0  0  0  0  0  0  0  0  0  0
   59.0915   26.6151   46.9525 H   0  0  0  0  0  0  0  0  0  0  0  0
   57.6914   27.6055   47.5421 H   0  0  0  0  0  0  0  0  0  0  0  0
   57.5539   24.9573   46.7297 H   0  0  0  0  0  0  0  0  0  0  0  0
   56.1687   26.1468   46.7993 H   0  0  0  0  0  0  0  0  0  0  0  0
   56.1810   26.4410   44.5850 H   0  0  0  0  0  0  0  0  0  0  0  0
   56.1640   23.8768   45.5331 H   0  0  0  0  0  0  0  0  0  0  0  0
   55.4438   24.4967   44.0087 H   0  0  0  0  0  0  0  0  0  0  0  0
   57.1133   23.8337   44.0087 H   0  0  0  0  0  0  0  0  0  0  0  0
   58.9502   25.3574   44.5171 H   0  0  0  0  0  0  0  0  0  0  0  0
   57.9663   25.7347   43.0586 H   0  0  0  0  0  0  0  0  0  0  0  0
   59.6165   27.5607   43.9993 H   0  0  0  0  0  0  0  0  0  0  0  0
   57.9471   28.0428   43.5043 H   0  0  0  0  0  0  0  0  0  0  0  0
   56.6484   34.6559   44.4246 H   0  0  0  0  0  0  0  0  0  0  0  0
   59.3791   34.6211   44.8205 H   0  0  0  0  0  0  0  0  0  0  0  0
   58.3245   35.4132   46.0633 H   0  0  0  0  0  0  0  0  0  0  0  0
   59.3973   35.1477   47.9003 H   0  0  0  0  0  0  0  0  0  0  0  0
   59.1720   33.5422   48.6933 H   0  0  0  0  0  0  0  0  0  0  0  0
   61.3520   33.9270   45.7275 H   0  0  0  0  0  0  0  0  0  0  0  0
   63.8184   33.5557   45.7996 H   0  0  0  0  0  0  0  0  0  0  0  0
   64.9810   33.2839   47.9909 H   0  0  0  0  0  0  0  0  0  0  0  0
   63.6769   33.3885   50.1176 H   0  0  0  0  0  0  0  0  0  0  0  0
   61.2113   33.7634   50.0564 H   0  0  0  0  0  0  0  0  0  0  0  0
  1  2  1  0
  2  3  1  0
  3  4  2  0
  4  5  1  0
  5  6  2  0
  6  7  1  0
  7  8  2  0
  8  9  1  0
  9 10  1  0
 10 11  1  0
 11 12  1  0
 12 13  1  0
 12 14  1  0
 14 15  1  0
  6 16  1  0
 16 17  2  0
 17 18  1  0
 18 19  1  0
 19 20  1  0
 20 21  1  0
 21 22  2  0
 22 23  1  0
 23 24  2  0
 24 25  1  0
 25 26  2  0
  8  3  1  0
 15  9  1  0
 26 21  1  0
 19  5  1  0
  1 27  1  0
  1 28  1  0
  1 29  1  0
  4 30  1  0
  7 31  1  0
 10 32  1  0
 10 33  1  0
 11 34  1  0
 11 35  1  0
 12 36  1  0
 13 37  1  0
 13 38  1  0
 13 39  1  0
 14 40  1  0
 14 41  1  0
 15 42  1  0
 15 43  1  0
 17 44  1  0
 18 45  1  0
 18 46  1  0
 20 47  1  0
 20 48  1  0
 22 49  1  0
 23 50  1  0
 24 51  1  0
 25 52  1  0
 26 53  1  0
M  CHG  1  12   1
M  END
>  <UniqueID>  (24) 
23

>  <SMILES>  (24) 
COc1cc2c(cc1N1CC[NH+](C)CC1)N=CCN2Cc1ccccc1

>  <Energy>  (24) 
69.65907592548321

>  <Genealogy>  (24) 
COc1cc2c(cc1N1CC[NH+](C)CC1)N=CCN2Cc1ccccc1 (protonated)
COc1cc2c(cc1N1CC[NH+](C)CC1)N=CCN2Cc1ccccc1 (3D coordinates assigned)
COc1cc2c(cc1N1CC[NH+](C)CC1)N=CCN2Cc1ccccc1 (nonaromatic ring conformer: 69.65907592548321 kcal/mol)

>  <smiles>  (24) 
COc1cc2c(cc1N1CCN(C)CC1)N=CCN2Cc1ccccc1

>  <score_type>  (24) 
oracle

>  <origin>  (24) 
adg

>  <m_score__min__energy>  (24) 
-6.0199999999999996

>  <m_primary>  (24) 
energy

$$$$
24:0
     RDKit          3D

 51 53  0  0  0  0  0  0  0  0999 V2000
   60.0010   35.2800   46.0940 C   0  0  0  0  0  0  0  0  0  0  0  0
   58.9410   34.9240   47.1340 C   0  0  0  0  0  0  0  0  0  0  0  0
   58.8560   33.4540   47.3140 N   0  0  0  0  0  0  0  0  0  0  0  0
   59.3220   32.9090   48.4890 C   0  0  0  0  0  0  0  0  0  0  0  0
   59.8350   33.6610   49.3680 O   0  0  0  0  0  0  0  0  0  0  0  0
   59.2450   31.5600   48.7260 N   0  0  0  0  0  0  0  0  0  0  0  0
   59.7950   31.0050   49.9840 C   0  0  0  0  0  0  0  0  0  0  0  0
   61.2680   30.5960   49.8250 C   0  0  0  0  0  0  0  0  0  0  0  0
   62.2200   31.5150   50.6170 C   0  0  0  0  0  0  0  0  0  0  0  0
   62.3200   32.8710   50.0130 N   0  0  0  0  0  0  0  0  0  0  0  0
   63.0060   32.8540   48.6900 C   0  0  0  0  0  0  0  0  0  0  0  0
   64.5270   33.0970   48.7850 C   0  0  0  0  0  0  0  0  0  0  0  0
   65.0310   32.6600   50.0950 N   0  0  0  0  0  0  0  0  0  0  0  0
   66.5000   32.7010   50.1280 C   0  0  0  0  0  0  0  0  0  0  0  0
   64.4620   33.4870   51.1790 C   0  0  0  0  0  0  0  0  0  0  0  0
   62.9740   33.8270   50.9340 C   0  0  0  0  0  0  0  0  0  0  0  0
   58.7030   30.7260   47.7850 C   0  0  0  0  0  0  0  0  0  0  0  0
   58.6200   29.4850   48.0090 O   0  0  0  0  0  0  0  0  0  0  0  0
   58.2600   31.2390   46.5600 C   0  0  0  0  0  0  0  0  0  0  0  0
   57.7370   30.3860   45.5660 C   0  0  0  0  0  0  0  0  0  0  0  0
   57.3290   30.9010   44.3360 C   0  0  0  0  0  0  0  0  0  0  0  0
   56.6310   29.7330   42.9940 Br  0  0  0  0  0  0  0  0  0  0  0  0
   57.4450   32.2640   44.0820 C   0  0  0  0  0  0  0  0  0  0  0  0
   57.9560   33.1220   45.0570 C   0  0  0  0  0  0  0  0  0  0  0  0
   58.3620   32.6290   46.3240 C   0  0  0  0  0  0  0  0  0  0  0  0
   60.9251   35.5903   46.6037 H   0  0  0  0  0  0  0  0  0  0  0  0
   60.2067   34.4016   45.4646 H   0  0  0  0  0  0  0  0  0  0  0  0
   59.6348   36.1045   45.4646 H   0  0  0  0  0  0  0  0  0  0  0  0
   59.2061   35.3906   48.0942 H   0  0  0  0  0  0  0  0  0  0  0  0
   57.9656   35.2947   46.7860 H   0  0  0  0  0  0  0  0  0  0  0  0
   59.7193   31.7670   50.7737 H   0  0  0  0  0  0  0  0  0  0  0  0
   59.2151   30.1080   50.2471 H   0  0  0  0  0  0  0  0  0  0  0  0
   61.3897   29.5645   50.1872 H   0  0  0  0  0  0  0  0  0  0  0  0
   61.5275   30.6813   48.7595 H   0  0  0  0  0  0  0  0  0  0  0  0
   61.8445   31.6120   51.6464 H   0  0  0  0  0  0  0  0  0  0  0  0
   63.2219   31.0613   50.5987 H   0  0  0  0  0  0  0  0  0  0  0  0
   61.3480   33.2330   49.8620 H   0  0  0  0  0  0  0  0  0  0  0  0
   62.8383   31.8723   48.2229 H   0  0  0  0  0  0  0  0  0  0  0  0
   62.5825   33.6759   48.0941 H   0  0  0  0  0  0  0  0  0  0  0  0
   65.0358   32.5290   47.9922 H   0  0  0  0  0  0  0  0  0  0  0  0
   64.7265   34.1720   48.6645 H   0  0  0  0  0  0  0  0  0  0  0  0
   66.8432   32.7106   51.1731 H   0  0  0  0  0  0  0  0  0  0  0  0
   66.9031   31.8138   49.6178 H   0  0  0  0  0  0  0  0  0  0  0  0
   66.8530   33.6093   49.6178 H   0  0  0  0  0  0  0  0  0  0  0  0
   64.5481   32.9362   52.1273 H   0  0  0  0  0  0  0  0  0  0  0  0
   65.0234   34.4323   51.2129 H   0  0  0  0  0  0  0  0  0  0  0  0
   62.4441   33.8075   51.8977 H   0  0  0  0  0  0  0  0  0  0  0  0
   62.9302   34.8231   50.4693 H   0  0  0  0  0  0  0  0  0  0  0  0
   57.6503   29.3071   45.7623 H   0  0  0  0  0  0  0  0  0  0  0  0
   57.1323   32.6675   43.1076 H   0  0  0  0  0  0  0  0  0  0  0  0
   58.0453   34.1967   44.8399 H   0  0  0  0  0  0  0  0  0  0  0  0
  1  2  1  0
  2  3  1  0
  3  4  1  0
  4  5  2  0
  4  6  1  0
  6  7  1  0
  7  8  1  0
  8  9  1  0
  9 10  1  0
 10 11  1  0
 11 12  1  0
 12 13  1  0
 13 14  1  0
 13 15  1  0
 15 16  1  0
  6 17  1  0
 17 18  2  0
 17 19  1  0
 19 20  2  0
 20 21  1  0
 21 22  1  0
 21 23  2  0
 23 24  1  0
 24 25  2  0
 25  3  1  0
 16 10  1  0
 25 19  1  0
  1 26  1  0
  1 27  1  0
  1 28  1  0
  2 29  1  0
  2 30  1  0
  7 31  1  0
  7 32  1  0
  8 33  1  0
  8 34  1  0
  9 35  1  0
  9 36  1  0
 10 37  1  0
 11 38  1  0
 11 39  1  0
 12 40  1  0
 12 41  1  0
 14 42  1  0
 14 43  1  0
 14 44  1  0
 15 45  1  0
 15 46  1  0
 16 47  1  0
 16 48  1  0
 20 49  1  0
 23 50  1  0
 24 51  1  0
M  CHG  1  10   1
M  END
>  <UniqueID>  (25) 
24

>  <SMILES>  (25) 
CCn1c(=O)n(CCC[NH+]2CCN(C)CC2)c(=O)c2cc(Br)ccc21

>  <Energy>  (25) 
72.54967909832159

>  <Genealogy>  (25) 
CCn1c(=O)n(CCC[NH+]2CCN(C)CC2)c(=O)c2cc(Br)ccc21 (protonated)
CCn1c(=O)n(CCC[NH+]2CCN(C)CC2)c(=O)c2cc(Br)ccc21 (3D coordinates assigned)
CCn1c(=O)n(CCC[NH+]2CCN(C)CC2)c(=O)c2cc(Br)ccc21 (nonaromatic ring conformer: 72.54967909832159 kcal/mol)

>  <smiles>  (25) 
CCn1c(=O)n(CCCN2CCN(C)CC2)c(=O)c2cc(Br)ccc21

>  <score_type>  (25) 
oracle

>  <origin>  (25) 
adg

>  <m_score__min__energy>  (25) 
-5.9100000000000001

>  <m_primary>  (25) 
energy

$$$$
25:0
     RDKit          3D

 38 40  0  0  0  0  0  0  0  0999 V2000
   55.7210   29.3030   44.1830 O   0  0  0  0  0  0  0  0  0  0  0  0
   56.4630   30.0570   44.8650 C   0  0  0  0  0  0  0  0  0  0  0  0
   57.5090   29.4580   45.7890 C   0  0  0  0  0  0  0  0  0  0  0  0
   58.9070   29.6210   45.3210 N   0  0  0  0  0  0  0  0  0  0  0  0
   59.8400   29.9290   46.4250 C   0  0  0  0  0  0  0  0  0  0  0  0
   59.6490   28.9510   47.5770 C   0  0  0  0  0  0  0  0  0  0  0  0
   59.9730   27.6140   47.2060 O   0  0  0  0  0  0  0  0  0  0  0  0
   59.1470   26.8370   46.3880 C   0  0  0  0  0  0  0  0  0  0  0  0
   58.5600   25.6880   46.9320 C   0  0  0  0  0  0  0  0  0  0  0  0
   57.7610   24.8600   46.1430 C   0  0  0  0  0  0  0  0  0  0  0  0
   57.5300   25.1810   44.8030 C   0  0  0  0  0  0  0  0  0  0  0  0
   56.5250   24.1390   43.8120 Cl  0  0  0  0  0  0  0  0  0  0  0  0
   58.0860   26.3420   44.2580 C   0  0  0  0  0  0  0  0  0  0  0  0
   58.8900   27.1860   45.0450 C   0  0  0  0  0  0  0  0  0  0  0  0
   59.3760   28.4960   44.4840 C   0  0  0  0  0  0  0  0  0  0  0  0
   56.4240   31.4650   44.5990 N   0  0  0  0  0  0  0  0  0  0  0  0
   57.3620   32.4450   45.0630 C   0  0  0  0  0  0  0  0  0  0  0  0
   58.1710   33.1090   44.1320 C   0  0  0  0  0  0  0  0  0  0  0  0
   59.0670   34.0970   44.5530 C   0  0  0  0  0  0  0  0  0  0  0  0
   59.1410   34.4430   45.9050 C   0  0  0  0  0  0  0  0  0  0  0  0
   58.3130   33.8090   46.8360 C   0  0  0  0  0  0  0  0  0  0  0  0
   57.4180   32.8200   46.4160 C   0  0  0  0  0  0  0  0  0  0  0  0
   57.4169   29.9423   46.7723 H   0  0  0  0  0  0  0  0  0  0  0  0
   57.3141   28.3759   45.8233 H   0  0  0  0  0  0  0  0  0  0  0  0
   60.8736   29.8554   46.0559 H   0  0  0  0  0  0  0  0  0  0  0  0
   59.6369   30.9476   46.7872 H   0  0  0  0  0  0  0  0  0  0  0  0
   60.2986   29.2547   48.4112 H   0  0  0  0  0  0  0  0  0  0  0  0
   58.5883   28.9737   47.8675 H   0  0  0  0  0  0  0  0  0  0  0  0
   58.7301   25.4363   47.9892 H   0  0  0  0  0  0  0  0  0  0  0  0
   57.3126   23.9538   46.5763 H   0  0  0  0  0  0  0  0  0  0  0  0
   57.8932   26.5974   43.2056 H   0  0  0  0  0  0  0  0  0  0  0  0
   60.4758   28.4949   44.4615 H   0  0  0  0  0  0  0  0  0  0  0  0
   58.9772   28.6181   43.4662 H   0  0  0  0  0  0  0  0  0  0  0  0
   58.1013   32.8522   43.0647 H   0  0  0  0  0  0  0  0  0  0  0  0
   59.7134   34.6017   43.8199 H   0  0  0  0  0  0  0  0  0  0  0  0
   59.8512   35.2147   46.2368 H   0  0  0  0  0  0  0  0  0  0  0  0
   58.3655   34.0880   47.8987 H   0  0  0  0  0  0  0  0  0  0  0  0
   56.7555   32.3339   47.1474 H   0  0  0  0  0  0  0  0  0  0  0  0
  1  2  2  0
  2  3  1  0
  3  4  1  0
  4  5  1  0
  5  6  1  0
  6  7  1  0
  7  8  1  0
  8  9  2  0
  9 10  1  0
 10 11  2  0
 11 12  1  0
 11 13  1  0
 13 14  2  0
 14 15  1  0
  2 16  1  0
 16 17  1  0
 17 18  2  0
 18 19  1  0
 19 20  2  0
 20 21  1  0
 21 22  2  0
 15  4  1  0
 22 17  1  0
 14  8  1  0
  3 23  1  0
  3 24  1  0
  5 25  1  0
  5 26  1  0
  6 27  1  0
  6 28  1  0
  9 29  1  0
 10 30  1  0
 13 31  1  0
 15 32  1  0
 15 33  1  0
 18 34  1  0
 19 35  1  0
 20 36  1  0
 21 37  1  0
 22 38  1  0
M  CHG  1  16  -1
M  END
>  <UniqueID>  (26) 
25

>  <SMILES>  (26) 
O=C(CN1CCOc2ccc(Cl)cc2C1)[N-]c1ccccc1

>  <Energy>  (26) 
58.935781157115095

>  <Genealogy>  (26) 
O=C(CN1CCOc2ccc(Cl)cc2C1)[N-]c1ccccc1 (protonated)
O=C(CN1CCOc2ccc(Cl)cc2C1)[N-]c1ccccc1 (3D coordinates assigned)
O=C(CN1CCOc2ccc(Cl)cc2C1)[N-]c1ccccc1 (nonaromatic ring conformer: 58.935781157115095 kcal/mol)

>  <smiles>  (26) 
O=C(CN1CCOc2ccc(Cl)cc2C1)Nc1ccccc1

>  <score_type>  (26) 
oracle

>  <origin>  (26) 
adg

>  <m_score__min__energy>  (26) 
-7.21

>  <m_primary>  (26) 
energy

$$$$
26:0
     RDKit          3D

 44 46  0  0  0  0  0  0  0  0999 V2000
   58.8820   34.2710   47.0740 C   0  0  0  0  0  0  0  0  0  0  0  0
   58.2030   34.1120   45.7780 N   0  0  0  0  0  0  0  0  0  0  0  0
   59.2120   33.9780   44.7110 C   0  0  0  0  0  0  0  0  0  0  0  0
   57.3050   32.9360   45.8170 C   0  0  0  0  0  0  0  0  0  0  0  0
   57.5770   31.9910   44.6440 C   0  0  0  0  0  0  0  0  0  0  0  0
   56.4770   31.0430   44.5020 N   0  0  0  0  0  0  0  0  0  0  0  0
   56.4840   29.7190   45.0490 C   0  0  0  0  0  0  0  0  0  0  0  0
   55.4820   28.9780   44.8740 O   0  0  0  0  0  0  0  0  0  0  0  0
   57.6240   29.2100   45.8310 C   0  0  0  0  0  0  0  0  0  0  0  0
   58.4290   30.1120   46.4460 N   0  0  0  0  0  0  0  0  0  0  0  0
   59.4980   29.7590   47.1650 N   0  0  0  0  0  0  0  0  0  0  0  0
   60.2790   30.8090   47.7670 C   0  0  0  0  0  0  0  0  0  0  0  0
   59.8630   31.3870   48.9790 C   0  0  0  0  0  0  0  0  0  0  0  0
   60.6250   32.3900   49.5830 C   0  0  0  0  0  0  0  0  0  0  0  0
   61.8180   32.8180   48.9900 C   0  0  0  0  0  0  0  0  0  0  0  0
   62.8600   34.1880   49.8190 Br  0  0  0  0  0  0  0  0  0  0  0  0
   62.2490   32.2380   47.7940 C   0  0  0  0  0  0  0  0  0  0  0  0
   61.4880   31.2330   47.1860 C   0  0  0  0  0  0  0  0  0  0  0  0
   59.8440   28.4390   47.2960 C   0  0  0  0  0  0  0  0  0  0  0  0
   60.8900   28.1140   47.9240 O   0  0  0  0  0  0  0  0  0  0  0  0
   59.0380   27.4470   46.7090 C   0  0  0  0  0  0  0  0  0  0  0  0
   59.3440   26.0780   46.8450 C   0  0  0  0  0  0  0  0  0  0  0  0
   58.5190   25.1100   46.2710 C   0  0  0  0  0  0  0  0  0  0  0  0
   57.3810   25.4900   45.5610 C   0  0  0  0  0  0  0  0  0  0  0  0
   57.0640   26.8420   45.4150 C   0  0  0  0  0  0  0  0  0  0  0  0
   57.8960   27.8350   45.9720 C   0  0  0  0  0  0  0  0  0  0  0  0
   58.1620   34.1024   47.8883 H   0  0  0  0  0  0  0  0  0  0  0  0
   59.7006   33.5402   47.1512 H   0  0  0  0  0  0  0  0  0  0  0  0
   59.2910   35.2892   47.1512 H   0  0  0  0  0  0  0  0  0  0  0  0
   60.2068   33.8459   45.1615 H   0  0  0  0  0  0  0  0  0  0  0  0
   58.9727   33.1037   44.0878 H   0  0  0  0  0  0  0  0  0  0  0  0
   59.2092   34.8844   44.0878 H   0  0  0  0  0  0  0  0  0  0  0  0
   57.4663   32.3928   46.7599 H   0  0  0  0  0  0  0  0  0  0  0  0
   56.2658   33.2895   45.7450 H   0  0  0  0  0  0  0  0  0  0  0  0
   57.6742   32.5776   43.7185 H   0  0  0  0  0  0  0  0  0  0  0  0
   58.5085   31.4377   44.8344 H   0  0  0  0  0  0  0  0  0  0  0  0
   58.9313   31.0473   49.4549 H   0  0  0  0  0  0  0  0  0  0  0  0
   60.2867   32.8440   50.5261 H   0  0  0  0  0  0  0  0  0  0  0  0
   63.1884   32.5720   47.3294 H   0  0  0  0  0  0  0  0  0  0  0  0
   61.8367   30.7727   46.2498 H   0  0  0  0  0  0  0  0  0  0  0  0
   60.2384   25.7708   47.4069 H   0  0  0  0  0  0  0  0  0  0  0  0
   58.7673   24.0439   46.3791 H   0  0  0  0  0  0  0  0  0  0  0  0
   56.7312   24.7228   45.1147 H   0  0  0  0  0  0  0  0  0  0  0  0
   56.1593   27.1344   44.8618 H   0  0  0  0  0  0  0  0  0  0  0  0
  1  2  1  0
  2  3  1  0
  2  4  1  0
  4  5  1  0
  5  6  1  0
  6  7  1  0
  7  8  2  0
  7  9  1  0
  9 10  2  0
 10 11  1  0
 11 12  1  0
 12 13  2  0
 13 14  1  0
 14 15  2  0
 15 16  1  0
 15 17  1  0
 17 18  2  0
 11 19  1  0
 19 20  2  0
 19 21  1  0
 21 22  2  0
 22 23  1  0
 23 24  2  0
 24 25  1  0
 25 26  2  0
 26  9  1  0
 18 12  1  0
 26 21  1  0
  1 27  1  0
  1 28  1  0
  1 29  1  0
  3 30  1  0
  3 31  1  0
  3 32  1  0
  4 33  1  0
  4 34  1  0
  5 35  1  0
  5 36  1  0
 13 37  1  0
 14 38  1  0
 17 39  1  0
 18 40  1  0
 22 41  1  0
 23 42  1  0
 24 43  1  0
 25 44  1  0
M  CHG  1   6  -1
M  END
>  <UniqueID>  (27) 
26

>  <SMILES>  (27) 
CN(C)CC[N-]C(=O)c1nn(-c2ccc(Br)cc2)c(=O)c2ccccc12

>  <Energy>  (27) 
62.529894145499384

>  <Genealogy>  (27) 
CN(C)CC[N-]C(=O)c1nn(-c2ccc(Br)cc2)c(=O)c2ccccc12 (protonated)
CN(C)CC[N-]C(=O)c1nn(-c2ccc(Br)cc2)c(=O)c2ccccc12 (3D coordinates assigned)
CN(C)CC[N-]C(=O)c1nn(-c2ccc(Br)cc2)c(=O)c2ccccc12 (optimized conformer: 62.529894145499384 kcal/mol)

>  <smiles>  (27) 
CN(C)CCNC(=O)c1nn(-c2ccc(Br)cc2)c(=O)c2ccccc12

>  <score_type>  (27) 
oracle

>  <origin>  (27) 
adg

>  <m_score__min__energy>  (27) 
-9.2799999999999994

>  <m_primary>  (27) 
energy

$$$$
27:0
     RDKit          3D

 48 50  0  0  0  0  0  0  0  0999 V2000
   56.5940   29.4850   43.0200 C   0  0  0  0  0  0  0  0  0  0  0  0
   56.5900   29.8830   44.4920 C   0  0  0  0  0  0  0  0  0  0  0  0
   56.6020   31.3490   44.6230 N   0  0  0  0  0  0  0  0  0  0  0  0
   57.7160   31.9750   43.8910 C   0  0  0  0  0  0  0  0  0  0  0  0
   58.7640   32.5870   44.8430 C   0  0  0  0  0  0  0  0  0  0  0  0
   58.1350   33.2300   46.0230 N   0  0  0  0  0  0  0  0  0  0  0  0
   58.7070   34.5710   46.2890 C   0  0  0  0  0  0  0  0  0  0  0  0
   59.8810   34.5790   47.2990 C   0  0  0  0  0  0  0  0  0  0  0  0
   60.4480   33.2410   47.5140 N   0  0  0  0  0  0  0  0  0  0  0  0
   61.8550   33.0750   47.7600 C   0  0  0  0  0  0  0  0  0  0  0  0
   62.8170   33.2770   46.8370 N   0  0  0  0  0  0  0  0  0  0  0  0
   63.9540   33.0200   47.4620 N   0  0  0  0  0  0  0  0  0  0  0  0
   63.6570   32.6810   48.7320 C   0  0  0  0  0  0  0  0  0  0  0  0
   64.6510   32.2980   49.7620 C   0  0  0  0  0  0  0  0  0  0  0  0
   65.9170   32.9110   49.7410 C   0  0  0  0  0  0  0  0  0  0  0  0
   66.9090   32.5280   50.6460 C   0  0  0  0  0  0  0  0  0  0  0  0
   66.6520   31.5280   51.5810 C   0  0  0  0  0  0  0  0  0  0  0  0
   65.3980   30.9160   51.6250 C   0  0  0  0  0  0  0  0  0  0  0  0
   64.3840   31.2990   50.7320 C   0  0  0  0  0  0  0  0  0  0  0  0
   63.0880   30.6980   50.8680 N   0  0  0  0  0  0  0  0  0  0  0  0
   62.3590   32.7100   48.9180 O   0  0  0  0  0  0  0  0  0  0  0  0
   59.5650   32.0870   47.7120 C   0  0  0  0  0  0  0  0  0  0  0  0
   58.1380   32.3980   47.2440 C   0  0  0  0  0  0  0  0  0  0  0  0
   56.6050   28.3882   42.9367 H   0  0  0  0  0  0  0  0  0  0  0  0
   55.6918   29.8808   42.5307 H   0  0  0  0  0  0  0  0  0  0  0  0
   57.4880   29.8989   42.5307 H   0  0  0  0  0  0  0  0  0  0  0  0
   55.6859   29.4827   44.9740 H   0  0  0  0  0  0  0  0  0  0  0  0
   57.4878   29.4723   44.9770 H   0  0  0  0  0  0  0  0  0  0  0  0
   56.6590   31.6030   45.6380 H   0  0  0  0  0  0  0  0  0  0  0  0
   58.2052   31.2113   43.2686 H   0  0  0  0  0  0  0  0  0  0  0  0
   57.3028   32.7870   43.2747 H   0  0  0  0  0  0  0  0  0  0  0  0
   59.4372   31.7893   45.1900 H   0  0  0  0  0  0  0  0  0  0  0  0
   59.3159   33.3604   44.2886 H   0  0  0  0  0  0  0  0  0  0  0  0
   59.0701   34.9848   45.3367 H   0  0  0  0  0  0  0  0  0  0  0  0
   57.9024   35.1708   46.7394 H   0  0  0  0  0  0  0  0  0  0  0  0
   60.6721   35.2397   46.9149 H   0  0  0  0  0  0  0  0  0  0  0  0
   59.4894   34.9347   48.2634 H   0  0  0  0  0  0  0  0  0  0  0  0
   64.8990   33.0950   47.0250 H   0  0  0  0  0  0  0  0  0  0  0  0
   66.1276   33.7001   49.0041 H   0  0  0  0  0  0  0  0  0  0  0  0
   67.8943   33.0164   50.6205 H   0  0  0  0  0  0  0  0  0  0  0  0
   67.4384   31.2200   52.2858 H   0  0  0  0  0  0  0  0  0  0  0  0
   65.2024   30.1267   52.3658 H   0  0  0  0  0  0  0  0  0  0  0  0
   62.2590   31.0420   50.3380 H   0  0  0  0  0  0  0  0  0  0  0  0
   62.9150   29.9780   51.6050 H   0  0  0  0  0  0  0  0  0  0  0  0
   59.9540   31.2339   47.1368 H   0  0  0  0  0  0  0  0  0  0  0  0
   59.5368   31.8483   48.7854 H   0  0  0  0  0  0  0  0  0  0  0  0
   57.6176   31.4522   47.0327 H   0  0  0  0  0  0  0  0  0  0  0  0
   57.6283   32.9571   48.0425 H   0  0  0  0  0  0  0  0  0  0  0  0
  1  2  1  0
  2  3  1  0
  3  4  1  0
  4  5  1  0
  5  6  1  0
  6  7  1  0
  7  8  1  0
  8  9  1  0
  9 10  1  0
 10 11  2  0
 11 12  1  0
 12 13  2  0
 13 14  1  0
 14 15  2  0
 15 16  1  0
 16 17  2  0
 17 18  1  0
 18 19  2  0
 19 20  1  0
 13 21  1  0
  9 22  1  0
 22 23  1  0
 23  6  1  0
 21 10  1  0
 19 14  1  0
  1 24  1  0
  1 25  1  0
  1 26  1  0
  2 27  1  0
  2 28  1  0
  3 29  1  0
  4 30  1  0
  4 31  1  0
  5 32  1  0
  5 33  1  0
  7 34  1  0
  7 35  1  0
  8 36  1  0
  8 37  1  0
 12 38  1  0
 15 39  1  0
 16 40  1  0
 17 41  1  0
 18 42  1  0
 20 43  1  0
 20 44  1  0
 22 45  1  0
 22 46  1  0
 23 47  1  0
 23 48  1  0
M  CHG  1  12   1
M  END
>  <UniqueID>  (28) 
27

>  <SMILES>  (28) 
CCNCCN1CCN(c2n[nH+]c(-c3ccccc3N)o2)CC1

>  <Energy>  (28) 
95.48510711477263

>  <Genealogy>  (28) 
CCNCCN1CCN(c2n[nH+]c(-c3ccccc3N)o2)CC1 (protonated)
CCNCCN1CCN(c2n[nH+]c(-c3ccccc3N)o2)CC1 (3D coordinates assigned)
CCNCCN1CCN(c2n[nH+]c(-c3ccccc3N)o2)CC1 (nonaromatic ring conformer: 95.48510711477263 kcal/mol)

>  <smiles>  (28) 
CCNCCN1CCN(c2nnc(-c3ccccc3N)o2)CC1

>  <score_type>  (28) 
oracle

>  <origin>  (28) 
adg

>  <m_score__min__energy>  (28) 
-6.2400000000000002

>  <m_primary>  (28) 
energy

$$$$
28:0
     RDKit          3D

 51 53  0  0  0  0  0  0  0  0999 V2000
   63.3710   33.4690   47.0150 C   0  0  0  0  0  0  0  0  0  0  0  0
   62.1030   33.7770   46.7320 C   0  0  0  0  0  0  0  0  0  0  0  0
   61.0410   33.8580   47.8060 C   0  0  0  0  0  0  0  0  0  0  0  0
   59.6850   34.0720   47.2580 N   0  0  0  0  0  0  0  0  0  0  0  0
   58.9820   32.8010   46.9790 C   0  0  0  0  0  0  0  0  0  0  0  0
   57.7220   33.0440   46.1400 C   0  0  0  0  0  0  0  0  0  0  0  0
   58.0310   33.6860   44.8380 N   0  0  0  0  0  0  0  0  0  0  0  0
   57.8400   32.7950   43.6730 C   0  0  0  0  0  0  0  0  0  0  0  0
   57.4050   31.4040   44.0610 C   0  0  0  0  0  0  0  0  0  0  0  0
   56.2680   31.2370   44.5790 O   0  0  0  0  0  0  0  0  0  0  0  0
   58.2990   30.2940   43.8780 N   0  0  0  0  0  0  0  0  0  0  0  0
   58.1700   29.0490   44.5830 C   0  0  0  0  0  0  0  0  0  0  0  0
   56.9200   28.5800   45.0220 C   0  0  0  0  0  0  0  0  0  0  0  0
   56.8280   27.3760   45.7270 C   0  0  0  0  0  0  0  0  0  0  0  0
   57.9800   26.6270   45.9910 C   0  0  0  0  0  0  0  0  0  0  0  0
   57.8630   25.1110   46.9420 S   0  0  0  0  0  0  0  0  0  0  0  0
   57.1360   24.2050   45.5740 C   0  0  0  0  0  0  0  0  0  0  0  0
   57.9260   23.3190   44.8270 C   0  0  0  0  0  0  0  0  0  0  0  0
   57.3760   22.6320   43.7420 C   0  0  0  0  0  0  0  0  0  0  0  0
   56.0320   22.8210   43.4030 C   0  0  0  0  0  0  0  0  0  0  0  0
   55.2370   23.6940   44.1520 C   0  0  0  0  0  0  0  0  0  0  0  0
   55.7860   24.3860   45.2380 C   0  0  0  0  0  0  0  0  0  0  0  0
   55.0070   25.2350   45.9530 F   0  0  0  0  0  0  0  0  0  0  0  0
   59.2200   27.0680   45.5210 C   0  0  0  0  0  0  0  0  0  0  0  0
   59.3140   28.2710   44.8170 C   0  0  0  0  0  0  0  0  0  0  0  0
   59.3210   34.4130   44.7980 C   0  0  0  0  0  0  0  0  0  0  0  0
   59.6330   35.0640   46.1530 C   0  0  0  0  0  0  0  0  0  0  0  0
   64.1179   33.4189   46.2090 H   0  0  0  0  0  0  0  0  0  0  0  0
   63.6688   33.2654   48.0542 H   0  0  0  0  0  0  0  0  0  0  0  0
   61.8225   33.9777   45.6875 H   0  0  0  0  0  0  0  0  0  0  0  0
   61.0451   32.9169   48.3755 H   0  0  0  0  0  0  0  0  0  0  0  0
   61.2803   34.7224   48.4428 H   0  0  0  0  0  0  0  0  0  0  0  0
   59.6572   32.1296   46.4282 H   0  0  0  0  0  0  0  0  0  0  0  0
   58.6844   32.3472   47.9358 H   0  0  0  0  0  0  0  0  0  0  0  0
   57.2305   32.0782   45.9510 H   0  0  0  0  0  0  0  0  0  0  0  0
   57.0661   33.7232   46.7044 H   0  0  0  0  0  0  0  0  0  0  0  0
   57.0718   33.2330   43.0188 H   0  0  0  0  0  0  0  0  0  0  0  0
   58.8108   32.7064   43.1634 H   0  0  0  0  0  0  0  0  0  0  0  0
   59.2110   30.4830   43.4020 H   0  0  0  0  0  0  0  0  0  0  0  0
   56.0109   29.1621   44.8103 H   0  0  0  0  0  0  0  0  0  0  0  0
   55.8481   27.0170   46.0747 H   0  0  0  0  0  0  0  0  0  0  0  0
   58.9813   23.1647   45.0961 H   0  0  0  0  0  0  0  0  0  0  0  0
   57.9998   21.9425   43.1543 H   0  0  0  0  0  0  0  0  0  0  0  0
   55.6003   22.2824   42.5465 H   0  0  0  0  0  0  0  0  0  0  0  0
   54.1789   23.8372   43.8875 H   0  0  0  0  0  0  0  0  0  0  0  0
   60.1229   26.4673   45.7055 H   0  0  0  0  0  0  0  0  0  0  0  0
   60.2914   28.6106   44.4436 H   0  0  0  0  0  0  0  0  0  0  0  0
   60.1244   33.7049   44.5465 H   0  0  0  0  0  0  0  0  0  0  0  0
   59.2511   35.2055   44.0384 H   0  0  0  0  0  0  0  0  0  0  0  0
   60.6074   35.5700   46.0861 H   0  0  0  0  0  0  0  0  0  0  0  0
   58.8247   35.7754   46.3780 H   0  0  0  0  0  0  0  0  0  0  0  0
  1  2  2  0
  2  3  1  0
  3  4  1  0
  4  5  1  0
  5  6  1  0
  6  7  1  0
  7  8  1  0
  8  9  1  0
  9 10  2  0
  9 11  1  0
 11 12  1  0
 12 13  2  0
 13 14  1  0
 14 15  2  0
 15 16  1  0
 16 17  1  0
 17 18  2  0
 18 19  1  0
 19 20  2  0
 20 21  1  0
 21 22  2  0
 22 23  1  0
 15 24  1  0
 24 25  2  0
  7 26  1  0
 26 27  1  0
 27  4  1  0
 25 12  1  0
 22 17  1  0
  1 28  1  0
  1 29  1  0
  2 30  1  0
  3 31  1  0
  3 32  1  0
  5 33  1  0
  5 34  1  0
  6 35  1  0
  6 36  1  0
  8 37  1  0
  8 38  1  0
 11 39  1  0
 13 40  1  0
 14 41  1  0
 18 42  1  0
 19 43  1  0
 20 44  1  0
 21 45  1  0
 24 46  1  0
 25 47  1  0
 26 48  1  0
 26 49  1  0
 27 50  1  0
 27 51  1  0
M  END
>  <UniqueID>  (29) 
28

>  <SMILES>  (29) 
C=CCN1CCN(CC(=O)Nc2ccc(Sc3ccccc3F)cc2)CC1

>  <Energy>  (29) 
61.7901476816074

>  <Genealogy>  (29) 
C=CCN1CCN(CC(=O)Nc2ccc(Sc3ccccc3F)cc2)CC1 (3D coordinates assigned)
C=CCN1CCN(CC(=O)Nc2ccc(Sc3ccccc3F)cc2)CC1 (nonaromatic ring conformer: 61.7901476816074 kcal/mol)

>  <smiles>  (29) 
C=CCN1CCN(CC(=O)Nc2ccc(Sc3ccccc3F)cc2)CC1

>  <score_type>  (29) 
oracle

>  <origin>  (29) 
adg

>  <m_score__min__energy>  (29) 
-9.1500000000000004

>  <m_primary>  (29) 
energy

$$$$
29:0
     RDKit          3D

 66 68  0  0  0  0  0  0  0  0999 V2000
   61.0610   25.7900   51.6520 C   0  0  0  0  0  0  0  0  0  0  0  0
   61.1520   27.1990   51.0680 C   0  0  0  0  0  0  0  0  0  0  0  0
   60.7400   27.2460   49.5860 C   0  0  0  0  0  0  0  0  0  0  0  0
   60.1160   28.5310   49.2000 N   0  0  0  0  0  0  0  0  0  0  0  0
   60.1010   29.6190   50.2040 C   0  0  0  0  0  0  0  0  0  0  0  0
   60.4580   30.9890   49.6010 C   0  0  0  0  0  0  0  0  0  0  0  0
   59.4820   32.0970   49.9840 C   0  0  0  0  0  0  0  0  0  0  0  0
   59.2050   28.6330   48.0670 C   0  0  0  0  0  0  0  0  0  0  0  0
   58.5130   29.6800   47.9320 O   0  0  0  0  0  0  0  0  0  0  0  0
   59.0590   27.5380   47.0130 C   0  0  0  0  0  0  0  0  0  0  0  0
   60.0670   27.7310   45.8650 C   0  0  0  0  0  0  0  0  0  0  0  0
   59.7550   28.9760   45.0020 C   0  0  0  0  0  0  0  0  0  0  0  0
   58.3880   29.4940   45.2320 N   0  0  0  0  0  0  0  0  0  0  0  0
   58.0510   30.5270   44.2330 C   0  0  0  0  0  0  0  0  0  0  0  0
   58.1920   31.8980   44.8380 C   0  0  0  0  0  0  0  0  0  0  0  0
   57.3960   32.9530   44.3700 C   0  0  0  0  0  0  0  0  0  0  0  0
   57.5430   34.2350   44.9020 C   0  0  0  0  0  0  0  0  0  0  0  0
   58.4780   34.4740   45.9120 C   0  0  0  0  0  0  0  0  0  0  0  0
   59.2720   33.4230   46.4070 C   0  0  0  0  0  0  0  0  0  0  0  0
   60.2570   33.6470   47.4290 N   0  0  0  0  0  0  0  0  0  0  0  0
   61.6750   33.6060   47.1960 C   0  0  0  0  0  0  0  0  0  0  0  0
   62.1200   33.7640   46.0260 O   0  0  0  0  0  0  0  0  0  0  0  0
   62.6280   33.4320   48.3190 C   0  0  0  0  0  0  0  0  0  0  0  0
   62.5190   34.2120   49.4870 C   0  0  0  0  0  0  0  0  0  0  0  0
   63.4200   34.0390   50.5420 C   0  0  0  0  0  0  0  0  0  0  0  0
   64.4370   33.0840   50.4460 C   0  0  0  0  0  0  0  0  0  0  0  0
   65.5680   32.8700   51.7710 Cl  0  0  0  0  0  0  0  0  0  0  0  0
   64.5490   32.2990   49.2970 C   0  0  0  0  0  0  0  0  0  0  0  0
   63.6490   32.4670   48.2410 C   0  0  0  0  0  0  0  0  0  0  0  0
   59.1350   32.1410   45.8500 C   0  0  0  0  0  0  0  0  0  0  0  0
   57.4040   28.3930   45.2240 C   0  0  0  0  0  0  0  0  0  0  0  0
   57.6250   27.4520   46.4280 C   0  0  0  0  0  0  0  0  0  0  0  0
   61.0647   25.8474   52.7505 H   0  0  0  0  0  0  0  0  0  0  0  0
   60.1301   25.3120   51.3130 H   0  0  0  0  0  0  0  0  0  0  0  0
   61.9227   25.1962   51.3130 H   0  0  0  0  0  0  0  0  0  0  0  0
   60.4876   27.8627   51.6408 H   0  0  0  0  0  0  0  0  0  0  0  0
   62.2008   27.5236   51.1356 H   0  0  0  0  0  0  0  0  0  0  0  0
   61.6367   27.0921   48.9678 H   0  0  0  0  0  0  0  0  0  0  0  0
   59.9914   26.4558   49.4273 H   0  0  0  0  0  0  0  0  0  0  0  0
   59.0940   29.6792   50.6425 H   0  0  0  0  0  0  0  0  0  0  0  0
   60.8616   29.3816   50.9623 H   0  0  0  0  0  0  0  0  0  0  0  0
   61.4613   31.2726   49.9516 H   0  0  0  0  0  0  0  0  0  0  0  0
   60.4122   30.8822   48.5072 H   0  0  0  0  0  0  0  0  0  0  0  0
   59.4195   32.1679   51.0799 H   0  0  0  0  0  0  0  0  0  0  0  0
   59.8353   33.0547   49.5741 H   0  0  0  0  0  0  0  0  0  0  0  0
   58.4874   31.8674   49.5741 H   0  0  0  0  0  0  0  0  0  0  0  0
   59.2686   26.5915   47.5329 H   0  0  0  0  0  0  0  0  0  0  0  0
   61.0732   27.8436   46.2950 H   0  0  0  0  0  0  0  0  0  0  0  0
   60.0011   26.8482   45.2121 H   0  0  0  0  0  0  0  0  0  0  0  0
   60.4786   29.7670   45.2485 H   0  0  0  0  0  0  0  0  0  0  0  0
   59.8274   28.6783   43.9455 H   0  0  0  0  0  0  0  0  0  0  0  0
   58.7312   30.4371   43.3732 H   0  0  0  0  0  0  0  0  0  0  0  0
   57.0110   30.3840   43.9044 H   0  0  0  0  0  0  0  0  0  0  0  0
   56.6525   32.7696   43.5803 H   0  0  0  0  0  0  0  0  0  0  0  0
   56.9206   35.0598   44.5247 H   0  0  0  0  0  0  0  0  0  0  0  0
   58.5941   35.4881   46.3221 H   0  0  0  0  0  0  0  0  0  0  0  0
   59.9250   33.9760   48.3640 H   0  0  0  0  0  0  0  0  0  0  0  0
   61.7192   34.9626   49.5696 H   0  0  0  0  0  0  0  0  0  0  0  0
   63.3288   34.6549   51.4488 H   0  0  0  0  0  0  0  0  0  0  0  0
   65.3477   31.5463   49.2226 H   0  0  0  0  0  0  0  0  0  0  0  0
   63.7396   31.8399   47.3418 H   0  0  0  0  0  0  0  0  0  0  0  0
   59.7722   31.3197   46.2097 H   0  0  0  0  0  0  0  0  0  0  0  0
   56.3897   28.8153   45.2777 H   0  0  0  0  0  0  0  0  0  0  0  0
   57.5292   27.8147   44.2967 H   0  0  0  0  0  0  0  0  0  0  0  0
   56.9081   27.7202   47.2180 H   0  0  0  0  0  0  0  0  0  0  0  0
   57.4781   26.4222   46.0704 H   0  0  0  0  0  0  0  0  0  0  0  0
  1  2  1  0
  2  3  1  0
  3  4  1  0
  4  5  1  0
  5  6  1  0
  6  7  1  0
  4  8  1  0
  8  9  2  0
  8 10  1  0
 10 11  1  0
 11 12  1  0
 12 13  1  0
 13 14  1  0
 14 15  1  0
 15 16  2  0
 16 17  1  0
 17 18  2  0
 18 19  1  0
 19 20  1  0
 20 21  1  0
 21 22  2  0
 21 23  1  0
 23 24  2  0
 24 25  1  0
 25 26  2  0
 26 27  1  0
 26 28  1  0
 28 29  2  0
 19 30  2  0
 13 31  1  0
 31 32  1  0
 32 10  1  0
 30 15  1  0
 29 23  1  0
  1 33  1  0
  1 34  1  0
  1 35  1  0
  2 36  1  0
  2 37  1  0
  3 38  1  0
  3 39  1  0
  5 40  1  0
  5 41  1  0
  6 42  1  0
  6 43  1  0
  7 44  1  0
  7 45  1  0
  7 46  1  0
 10 47  1  0
 11 48  1  0
 11 49  1  0
 12 50  1  0
 12 51  1  0
 14 52  1  0
 14 53  1  0
 16 54  1  0
 17 55  1  0
 18 56  1  0
 20 57  1  0
 24 58  1  0
 25 59  1  0
 28 60  1  0
 29 61  1  0
 30 62  1  0
 31 63  1  0
 31 64  1  0
 32 65  1  0
 32 66  1  0
M  END
>  <UniqueID>  (30) 
29

>  <SMILES>  (30) 
CCCN(CCC)C(=O)C1CCN(Cc2cccc(NC(=O)c3ccc(Cl)cc3)c2)CC1

>  <Energy>  (30) 
72.88793985333281

>  <Genealogy>  (30) 
CCCN(CCC)C(=O)C1CCN(Cc2cccc(NC(=O)c3ccc(Cl)cc3)c2)CC1 (3D coordinates assigned)
CCCN(CCC)C(=O)C1CCN(Cc2cccc(NC(=O)c3ccc(Cl)cc3)c2)CC1 (nonaromatic ring conformer: 72.88793985333281 kcal/mol)

>  <smiles>  (30) 
CCCN(CCC)C(=O)C1CCN(Cc2cccc(NC(=O)c3ccc(Cl)cc3)c2)CC1

>  <score_type>  (30) 
oracle

>  <origin>  (30) 
adg

>  <m_score__min__energy>  (30) 
-9.3000000000000007

>  <m_primary>  (30) 
energy

$$$$
30:0
     RDKit          3D

 45 48  0  0  0  0  0  0  0  0999 V2000
   58.6720   33.1850   48.5380 O   0  0  0  0  0  0  0  0  0  0  0  0
   58.9530   33.7030   47.4240 C   0  0  0  0  0  0  0  0  0  0  0  0
   59.6960   34.8840   47.3800 C   0  0  0  0  0  0  0  0  0  0  0  0
   60.0030   35.4470   46.1400 C   0  0  0  0  0  0  0  0  0  0  0  0
   59.5930   34.8700   45.0140 O   0  0  0  0  0  0  0  0  0  0  0  0
   58.8830   33.7450   45.0050 C   0  0  0  0  0  0  0  0  0  0  0  0
   58.4820   33.1880   43.7890 C   0  0  0  0  0  0  0  0  0  0  0  0
   57.7390   32.0050   43.7670 C   0  0  0  0  0  0  0  0  0  0  0  0
   57.3850   31.3620   44.9600 C   0  0  0  0  0  0  0  0  0  0  0  0
   56.6450   30.1710   44.8720 O   0  0  0  0  0  0  0  0  0  0  0  0
   57.0280   29.0140   44.1270 C   0  0  0  0  0  0  0  0  0  0  0  0
   57.7800   28.0380   44.9950 C   0  0  0  0  0  0  0  0  0  0  0  0
   58.0260   26.7310   44.5460 C   0  0  0  0  0  0  0  0  0  0  0  0
   58.7320   25.8340   45.3500 C   0  0  0  0  0  0  0  0  0  0  0  0
   59.2080   26.2360   46.6000 C   0  0  0  0  0  0  0  0  0  0  0  0
   58.9890   27.5400   47.0580 C   0  0  0  0  0  0  0  0  0  0  0  0
   59.4980   27.8950   48.3180 O   0  0  0  0  0  0  0  0  0  0  0  0
   59.2550   29.1310   48.9890 C   0  0  0  0  0  0  0  0  0  0  0  0
   60.2600   30.1740   48.5740 C   0  0  0  0  0  0  0  0  0  0  0  0
   60.6350   30.3090   47.2280 C   0  0  0  0  0  0  0  0  0  0  0  0
   61.5650   31.2830   46.8490 C   0  0  0  0  0  0  0  0  0  0  0  0
   62.1180   32.1350   47.8100 C   0  0  0  0  0  0  0  0  0  0  0  0
   63.3870   33.4630   47.2910 Br  0  0  0  0  0  0  0  0  0  0  0  0
   61.7380   32.0150   49.1500 C   0  0  0  0  0  0  0  0  0  0  0  0
   60.8100   31.0420   49.5320 C   0  0  0  0  0  0  0  0  0  0  0  0
   58.2730   28.4420   46.2460 C   0  0  0  0  0  0  0  0  0  0  0  0
   57.7790   31.9230   46.1900 C   0  0  0  0  0  0  0  0  0  0  0  0
   58.5310   33.1110   46.2200 C   0  0  0  0  0  0  0  0  0  0  0  0
   60.0349   35.3644   48.3097 H   0  0  0  0  0  0  0  0  0  0  0  0
   60.5895   36.3765   46.0938 H   0  0  0  0  0  0  0  0  0  0  0  0
   58.7522   33.6827   42.8444 H   0  0  0  0  0  0  0  0  0  0  0  0
   57.4290   31.5744   42.8034 H   0  0  0  0  0  0  0  0  0  0  0  0
   56.1251   28.5241   43.7336 H   0  0  0  0  0  0  0  0  0  0  0  0
   57.6851   29.3291   43.3030 H   0  0  0  0  0  0  0  0  0  0  0  0
   57.6616   26.4126   43.5581 H   0  0  0  0  0  0  0  0  0  0  0  0
   58.9138   24.8078   44.9980 H   0  0  0  0  0  0  0  0  0  0  0  0
   59.7594   25.5220   47.2294 H   0  0  0  0  0  0  0  0  0  0  0  0
   58.2441   29.4846   48.7378 H   0  0  0  0  0  0  0  0  0  0  0  0
   59.3459   28.9666   50.0728 H   0  0  0  0  0  0  0  0  0  0  0  0
   60.1957   29.6461   46.4680 H   0  0  0  0  0  0  0  0  0  0  0  0
   61.8615   31.3787   45.7940 H   0  0  0  0  0  0  0  0  0  0  0  0
   62.1702   32.6877   49.9054 H   0  0  0  0  0  0  0  0  0  0  0  0
   60.5093   30.9556   50.5866 H   0  0  0  0  0  0  0  0  0  0  0  0
   58.0990   29.4706   46.5949 H   0  0  0  0  0  0  0  0  0  0  0  0
   57.4972   31.4296   47.1319 H   0  0  0  0  0  0  0  0  0  0  0  0
  1  2  2  0
  2  3  1  0
  3  4  2  0
  4  5  1  0
  5  6  1  0
  6  7  2  0
  7  8  1  0
  8  9  2  0
  9 10  1  0
 10 11  1  0
 11 12  1  0
 12 13  2  0
 13 14  1  0
 14 15  2  0
 15 16  1  0
 16 17  1  0
 17 18  1  0
 18 19  1  0
 19 20  2  0
 20 21  1  0
 21 22  2  0
 22 23  1  0
 22 24  1  0
 24 25  2  0
 16 26  2  0
  9 27  1  0
 27 28  2  0
 28  2  1  0
 28  6  1  0
 26 12  1  0
 25 19  1  0
  3 29  1  0
  4 30  1  0
  7 31  1  0
  8 32  1  0
 11 33  1  0
 11 34  1  0
 13 35  1  0
 14 36  1  0
 15 37  1  0
 18 38  1  0
 18 39  1  0
 20 40  1  0
 21 41  1  0
 24 42  1  0
 25 43  1  0
 26 44  1  0
 27 45  1  0
M  END
>  <UniqueID>  (31) 
30

>  <SMILES>  (31) 
O=c1ccoc2ccc(OCc3cccc(OCc4ccc(Br)cc4)c3)cc12

>  <Energy>  (31) 
53.961411393405214

>  <Genealogy>  (31) 
O=c1ccoc2ccc(OCc3cccc(OCc4ccc(Br)cc4)c3)cc12 (3D coordinates assigned)
O=c1ccoc2ccc(OCc3cccc(OCc4ccc(Br)cc4)c3)cc12 (optimized conformer: 53.961411393405214 kcal/mol)

>  <smiles>  (31) 
O=c1ccoc2ccc(OCc3cccc(OCc4ccc(Br)cc4)c3)cc12

>  <score_type>  (31) 
oracle

>  <origin>  (31) 
adg

>  <m_score__min__energy>  (31) 
-8.5399999999999991

>  <m_primary>  (31) 
energy

$$$$
31:0
     RDKit          3D

 57 59  0  0  0  0  0  0  0  0999 V2000
   58.1000   33.2750   45.4090 C   0  0  0  0  0  0  0  0  0  0  0  0
   57.6880   32.4740   44.3060 O   0  0  0  0  0  0  0  0  0  0  0  0
   57.6860   31.0710   44.3040 C   0  0  0  0  0  0  0  0  0  0  0  0
   56.4680   30.4080   44.4910 C   0  0  0  0  0  0  0  0  0  0  0  0
   56.4150   29.0120   44.5050 C   0  0  0  0  0  0  0  0  0  0  0  0
   57.5830   28.2540   44.3350 C   0  0  0  0  0  0  0  0  0  0  0  0
   57.5170   26.7490   44.3430 C   0  0  0  0  0  0  0  0  0  0  0  0
   58.4620   26.1980   45.3470 N   0  0  0  0  0  0  0  0  0  0  0  0
   58.3950   24.7220   45.4300 C   0  0  0  0  0  0  0  0  0  0  0  0
   57.0940   24.1670   44.8230 C   0  0  0  0  0  0  0  0  0  0  0  0
   55.9580   24.0040   45.8570 C   0  0  1  0  0  0  0  0  0  0  0  0
   56.3710   24.5720   47.1430 N   0  0  0  0  0  0  0  0  0  0  0  0
   54.6990   24.6810   45.3910 C   0  0  0  0  0  0  0  0  0  0  0  0
   53.8640   24.0570   44.6840 O   0  0  0  0  0  0  0  0  0  0  0  0
   54.4420   25.9960   45.7550 O   0  0  0  0  0  0  0  0  0  0  0  0
   58.1390   26.8810   46.9280 S   0  0  0  0  0  0  0  0  0  0  0  0
   56.6700   27.1740   47.0680 O   0  0  0  0  0  0  0  0  0  0  0  0
   58.5360   25.9090   48.0050 O   0  0  0  0  0  0  0  0  0  0  0  0
   59.0730   28.3570   47.1520 C   0  0  0  0  0  0  0  0  0  0  0  0
   60.3440   28.4920   46.5790 C   0  0  0  0  0  0  0  0  0  0  0  0
   61.0970   29.6500   46.7990 C   0  0  0  0  0  0  0  0  0  0  0  0
   60.5880   30.6910   47.5960 C   0  0  0  0  0  0  0  0  0  0  0  0
   61.3920   31.9150   47.8420 C   0  0  0  0  0  0  0  0  0  0  0  0
   62.7450   31.9720   47.4570 C   0  0  0  0  0  0  0  0  0  0  0  0
   63.5000   33.1260   47.6920 C   0  0  0  0  0  0  0  0  0  0  0  0
   62.9150   34.2320   48.3130 C   0  0  0  0  0  0  0  0  0  0  0  0
   61.5730   34.1870   48.7000 C   0  0  0  0  0  0  0  0  0  0  0  0
   60.8140   33.0360   48.4670 C   0  0  0  0  0  0  0  0  0  0  0  0
   59.3070   30.5510   48.1610 C   0  0  0  0  0  0  0  0  0  0  0  0
   58.5560   29.3930   47.9390 C   0  0  0  0  0  0  0  0  0  0  0  0
   58.8040   28.9170   44.1300 C   0  0  0  0  0  0  0  0  0  0  0  0
   58.8580   30.3140   44.1200 C   0  0  0  0  0  0  0  0  0  0  0  0
   57.8387   32.7669   46.3490 H   0  0  0  0  0  0  0  0  0  0  0  0
   59.1885   33.4276   45.3650 H   0  0  0  0  0  0  0  0  0  0  0  0
   57.5911   34.2492   45.3650 H   0  0  0  0  0  0  0  0  0  0  0  0
   55.5450   30.9905   44.6281 H   0  0  0  0  0  0  0  0  0  0  0  0
   55.4504   28.5036   44.6504 H   0  0  0  0  0  0  0  0  0  0  0  0
   56.4942   26.4318   44.5947 H   0  0  0  0  0  0  0  0  0  0  0  0
   57.7933   26.3730   43.3469 H   0  0  0  0  0  0  0  0  0  0  0  0
   59.2505   24.2968   44.8848 H   0  0  0  0  0  0  0  0  0  0  0  0
   58.4200   24.4408   46.4932 H   0  0  0  0  0  0  0  0  0  0  0  0
   56.7538   24.8566   44.0364 H   0  0  0  0  0  0  0  0  0  0  0  0
   57.3203   23.1659   44.4273 H   0  0  0  0  0  0  0  0  0  0  0  0
   55.7531   22.9295   45.9728 H   0  0  0  0  0  0  0  0  0  0  0  0
   57.2650   25.0970   47.0000 H   0  0  0  0  0  0  0  0  0  0  0  0
   55.6660   25.2880   47.4310 H   0  0  0  0  0  0  0  0  0  0  0  0
   60.7516   27.6841   45.9535 H   0  0  0  0  0  0  0  0  0  0  0  0
   62.0944   29.7472   46.3454 H   0  0  0  0  0  0  0  0  0  0  0  0
   63.2113   31.1038   46.9684 H   0  0  0  0  0  0  0  0  0  0  0  0
   64.5563   33.1625   47.3872 H   0  0  0  0  0  0  0  0  0  0  0  0
   63.5106   35.1382   48.4974 H   0  0  0  0  0  0  0  0  0  0  0  0
   61.1130   35.0585   49.1887 H   0  0  0  0  0  0  0  0  0  0  0  0
   59.7582   33.0064   48.7742 H   0  0  0  0  0  0  0  0  0  0  0  0
   58.8933   31.3590   48.7822 H   0  0  0  0  0  0  0  0  0  0  0  0
   57.5550   29.2954   48.3844 H   0  0  0  0  0  0  0  0  0  0  0  0
   59.7237   28.3334   43.9763 H   0  0  0  0  0  0  0  0  0  0  0  0
   59.8208   30.8237   43.9676 H   0  0  0  0  0  0  0  0  0  0  0  0
  1  2  1  0
  2  3  1  0
  3  4  2  0
  4  5  1  0
  5  6  2  0
  6  7  1  0
  7  8  1  0
  8  9  1  0
  9 10  1  0
 10 11  1  0
 11 12  1  0
 11 13  1  0
 13 14  2  0
 13 15  1  0
  8 16  1  0
 16 17  2  0
 16 18  2  0
 16 19  1  0
 19 20  2  0
 20 21  1  0
 21 22  2  0
 22 23  1  0
 23 24  2  0
 24 25  1  0
 25 26  2  0
 26 27  1  0
 27 28  2  0
 22 29  1  0
 29 30  2  0
  6 31  1  0
 31 32  2  0
 32  3  1  0
 30 19  1  0
 28 23  1  0
  1 33  1  0
  1 34  1  0
  1 35  1  0
  4 36  1  0
  5 37  1  0
  7 38  1  0
  7 39  1  0
  9 40  1  0
  9 41  1  0
 10 42  1  0
 10 43  1  0
 11 44  1  1
 12 45  1  0
 12 46  1  0
 20 47  1  0
 21 48  1  0
 24 49  1  0
 25 50  1  0
 26 51  1  0
 27 52  1  0
 28 53  1  0
 29 54  1  0
 30 55  1  0
 31 56  1  0
 32 57  1  0
M  CHG  1  15  -1
M  END
>  <UniqueID>  (32) 
31

>  <SMILES>  (32) 
COc1ccc(CN(CC[C@@H](N)C(=O)[O-])S(=O)(=O)c2ccc(-c3ccccc3)cc2)cc1

>  <Energy>  (32) 
59.770399921349245

>  <Genealogy>  (32) 
COc1ccc(CN(CCC(N)C(=O)[O-])S(=O)(=O)c2ccc(-c3ccccc3)cc2)cc1 (protonated)
COc1ccc(CN(CC[C@@H](N)C(=O)[O-])S(=O)(=O)c2ccc(-c3ccccc3)cc2)cc1 (chirality)
COc1ccc(CN(CC[C@@H](N)C(=O)[O-])S(=O)(=O)c2ccc(-c3ccccc3)cc2)cc1 (3D coordinates assigned)
COc1ccc(CN(CC[C@@H](N)C(=O)[O-])S(=O)(=O)c2ccc(-c3ccccc3)cc2)cc1 (optimized conformer: 59.770399921349245 kcal/mol)

>  <smiles>  (32) 
COc1ccc(CN(CCC(N)C(=O)O)S(=O)(=O)c2ccc(-c3ccccc3)cc2)cc1

>  <score_type>  (32) 
oracle

>  <origin>  (32) 
adg

>  <m_score__min__energy>  (32) 
-11.84

>  <m_primary>  (32) 
energy

$$$$
32:0
     RDKit          3D

 55 58  0  0  0  0  0  0  0  0999 V2000
   59.4260   22.4650   44.8850 C   0  0  0  0  0  0  0  0  0  0  0  0
   58.0030   22.8670   45.2620 C   0  0  0  0  0  0  0  0  0  0  0  0
   57.6190   24.1260   44.6020 N   0  0  0  0  0  0  0  0  0  0  0  0
   56.7420   24.0310   43.4220 C   0  0  0  0  0  0  0  0  0  0  0  0
   56.5310   22.5730   43.0170 C   0  0  0  0  0  0  0  0  0  0  0  0
   58.0840   25.4160   45.0970 C   0  0  0  0  0  0  0  0  0  0  0  0
   58.1340   26.5460   44.2540 C   0  0  0  0  0  0  0  0  0  0  0  0
   58.5810   27.7820   44.7310 C   0  0  0  0  0  0  0  0  0  0  0  0
   59.0020   27.9270   46.0610 C   0  0  0  0  0  0  0  0  0  0  0  0
   59.4660   29.2510   46.5500 C   0  0  0  0  0  0  0  0  0  0  0  0
   60.4550   29.3700   47.5400 C   0  0  0  0  0  0  0  0  0  0  0  0
   60.8510   30.6510   47.9580 C   0  0  0  0  0  0  0  0  0  0  0  0
   61.8920   30.8460   49.0010 C   0  0  0  0  0  0  0  0  0  0  0  0
   62.9260   31.7770   48.7930 C   0  0  0  0  0  0  0  0  0  0  0  0
   63.8980   31.9650   49.7770 C   0  0  0  0  0  0  0  0  0  0  0  0
   63.8410   31.2600   50.9370 N   0  0  0  0  0  0  0  0  0  0  0  0
   62.8510   30.3620   51.1750 C   0  0  0  0  0  0  0  0  0  0  0  0
   61.8580   30.1400   50.2170 C   0  0  0  0  0  0  0  0  0  0  0  0
   60.2830   31.7390   47.3740 N   0  0  0  0  0  0  0  0  0  0  0  0
   59.3360   31.6190   46.4070 C   0  0  0  0  0  0  0  0  0  0  0  0
   58.7600   32.7900   45.8110 N   0  0  0  0  0  0  0  0  0  0  0  0
   59.4600   34.0560   45.6970 C   0  0  0  0  0  0  0  0  0  0  0  0
   58.5460   34.9550   44.8740 C   0  0  0  0  0  0  0  0  0  0  0  0
   57.1720   34.2900   44.8950 C   0  0  0  0  0  0  0  0  0  0  0  0
   57.4170   32.8330   45.2640 C   0  0  0  0  0  0  0  0  0  0  0  0
   58.9390   30.3830   46.0070 N   0  0  0  0  0  0  0  0  0  0  0  0
   58.9440   26.8110   46.9120 C   0  0  0  0  0  0  0  0  0  0  0  0
   58.4960   25.5760   46.4370 C   0  0  0  0  0  0  0  0  0  0  0  0
   60.0145   22.2988   45.7994 H   0  0  0  0  0  0  0  0  0  0  0  0
   59.4005   21.5389   44.2919 H   0  0  0  0  0  0  0  0  0  0  0  0
   59.8888   23.2676   44.2919 H   0  0  0  0  0  0  0  0  0  0  0  0
   57.3099   22.0715   44.9508 H   0  0  0  0  0  0  0  0  0  0  0  0
   57.9567   23.0135   46.3512 H   0  0  0  0  0  0  0  0  0  0  0  0
   55.7680   24.4836   43.6595 H   0  0  0  0  0  0  0  0  0  0  0  0
   57.2185   24.5632   42.5855 H   0  0  0  0  0  0  0  0  0  0  0  0
   56.4410   21.9510   43.9198 H   0  0  0  0  0  0  0  0  0  0  0  0
   55.6112   22.4878   42.4198 H   0  0  0  0  0  0  0  0  0  0  0  0
   57.3889   22.2305   42.4198 H   0  0  0  0  0  0  0  0  0  0  0  0
   57.8163   26.4533   43.2050 H   0  0  0  0  0  0  0  0  0  0  0  0
   58.6027   28.6501   44.0558 H   0  0  0  0  0  0  0  0  0  0  0  0
   60.9129   28.4727   47.9817 H   0  0  0  0  0  0  0  0  0  0  0  0
   62.9684   32.3549   47.8580 H   0  0  0  0  0  0  0  0  0  0  0  0
   64.7124   32.6860   49.6128 H   0  0  0  0  0  0  0  0  0  0  0  0
   62.8304   29.8075   52.1248 H   0  0  0  0  0  0  0  0  0  0  0  0
   61.0532   29.4162   50.4131 H   0  0  0  0  0  0  0  0  0  0  0  0
   59.6319   34.4910   46.6926 H   0  0  0  0  0  0  0  0  0  0  0  0
   60.4462   33.9355   45.2248 H   0  0  0  0  0  0  0  0  0  0  0  0
   58.4920   35.9581   45.3221 H   0  0  0  0  0  0  0  0  0  0  0  0
   58.9192   35.0766   43.8464 H   0  0  0  0  0  0  0  0  0  0  0  0
   56.5260   34.7707   45.6444 H   0  0  0  0  0  0  0  0  0  0  0  0
   56.6657   34.3799   43.9226 H   0  0  0  0  0  0  0  0  0  0  0  0
   56.6857   32.4987   46.0146 H   0  0  0  0  0  0  0  0  0  0  0  0
   57.3104   32.1690   44.3935 H   0  0  0  0  0  0  0  0  0  0  0  0
   59.2543   26.9105   47.9626 H   0  0  0  0  0  0  0  0  0  0  0  0
   58.4639   24.7137   47.1192 H   0  0  0  0  0  0  0  0  0  0  0  0
  1  2  1  0
  2  3  1  0
  3  4  1  0
  4  5  1  0
  3  6  1  0
  6  7  2  0
  7  8  1  0
  8  9  2  0
  9 10  1  0
 10 11  2  0
 11 12  1  0
 12 13  1  0
 13 14  2  0
 14 15  1  0
 15 16  2  0
 16 17  1  0
 17 18  2  0
 12 19  2  0
 19 20  1  0
 20 21  1  0
 21 22  1  0
 22 23  1  0
 23 24  1  0
 24 25  1  0
 20 26  2  0
  9 27  1  0
 27 28  2  0
 28  6  1  0
 26 10  1  0
 18 13  1  0
 25 21  1  0
  1 29  1  0
  1 30  1  0
  1 31  1  0
  2 32  1  0
  2 33  1  0
  4 34  1  0
  4 35  1  0
  5 36  1  0
  5 37  1  0
  5 38  1  0
  7 39  1  0
  8 40  1  0
 11 41  1  0
 14 42  1  0
 15 43  1  0
 17 44  1  0
 18 45  1  0
 22 46  1  0
 22 47  1  0
 23 48  1  0
 23 49  1  0
 24 50  1  0
 24 51  1  0
 25 52  1  0
 25 53  1  0
 27 54  1  0
 28 55  1  0
M  END
>  <UniqueID>  (33) 
32

>  <SMILES>  (33) 
CCN(CC)c1ccc(-c2cc(-c3ccncc3)nc(N3CCCC3)n2)cc1

>  <Energy>  (33) 
64.39598363804402

>  <Genealogy>  (33) 
CCN(CC)c1ccc(-c2cc(-c3ccncc3)nc(N3CCCC3)n2)cc1 (3D coordinates assigned)
CCN(CC)c1ccc(-c2cc(-c3ccncc3)nc(N3CCCC3)n2)cc1 (nonaromatic ring conformer: 64.39598363804402 kcal/mol)

>  <smiles>  (33) 
CCN(CC)c1ccc(-c2cc(-c3ccncc3)nc(N3CCCC3)n2)cc1

>  <score_type>  (33) 
oracle

>  <origin>  (33) 
adg

>  <m_score__min__energy>  (33) 
-6.7800000000000002

>  <m_primary>  (33) 
energy

$$$$
33:0
     RDKit          3D

 41 43  0  0  0  0  0  0  0  0999 V2000
   63.7440   32.5150   47.2170 C   0  0  0  0  0  0  0  0  0  0  0  0
   62.2530   32.6480   47.1270 C   0  0  0  0  0  0  0  0  0  0  0  0
   61.6700   33.8870   46.8180 C   0  0  0  0  0  0  0  0  0  0  0  0
   60.2740   34.0190   46.7550 C   0  0  0  0  0  0  0  0  0  0  0  0
   59.6550   35.3480   46.4430 C   0  0  0  0  0  0  0  0  0  0  0  0
   59.4620   32.9150   47.0560 C   0  0  0  0  0  0  0  0  0  0  0  0
   60.0310   31.6850   47.4020 C   0  0  0  0  0  0  0  0  0  0  0  0
   59.1810   30.6070   47.6830 O   0  0  0  0  0  0  0  0  0  0  0  0
   58.5640   29.8030   46.7170 C   0  0  0  0  0  0  0  0  0  0  0  0
   58.4250   28.4230   46.7840 C   0  0  0  0  0  0  0  0  0  0  0  0
   58.9050   27.5630   47.9150 C   0  0  0  0  0  0  0  0  0  0  0  0
   57.8090   27.9580   45.6650 N   0  0  0  0  0  0  0  0  0  0  0  0
   57.4460   26.5690   45.3680 C   0  0  0  0  0  0  0  0  0  0  0  0
   56.2620   26.1620   46.1840 C   0  0  0  0  0  0  0  0  0  0  0  0
   55.1450   26.7100   45.9960 O   0  0  0  0  0  0  0  0  0  0  0  0
   56.3820   25.1540   47.1330 O   0  0  0  0  0  0  0  0  0  0  0  0
   57.5560   29.0440   44.9000 C   0  0  0  0  0  0  0  0  0  0  0  0
   56.9430   29.0860   43.6420 C   0  0  0  0  0  0  0  0  0  0  0  0
   56.8240   30.3330   43.0050 C   0  0  0  0  0  0  0  0  0  0  0  0
   57.3220   31.5010   43.6180 C   0  0  0  0  0  0  0  0  0  0  0  0
   57.9350   31.4360   44.8810 C   0  0  0  0  0  0  0  0  0  0  0  0
   58.0160   30.1900   45.5060 C   0  0  0  0  0  0  0  0  0  0  0  0
   61.4300   31.5520   47.4210 C   0  0  0  0  0  0  0  0  0  0  0  0
   64.0466   32.4880   48.2742 H   0  0  0  0  0  0  0  0  0  0  0  0
   64.0598   31.5851   46.7214 H   0  0  0  0  0  0  0  0  0  0  0  0
   64.2194   33.3743   46.7214 H   0  0  0  0  0  0  0  0  0  0  0  0
   62.3110   34.7597   46.6241 H   0  0  0  0  0  0  0  0  0  0  0  0
   59.4124   35.8688   47.3811 H   0  0  0  0  0  0  0  0  0  0  0  0
   60.3633   35.9545   45.8595 H   0  0  0  0  0  0  0  0  0  0  0  0
   58.7350   35.1961   45.8595 H   0  0  0  0  0  0  0  0  0  0  0  0
   58.3674   33.0178   47.0195 H   0  0  0  0  0  0  0  0  0  0  0  0
   58.6412   28.0357   48.8726 H   0  0  0  0  0  0  0  0  0  0  0  0
   58.4287   26.5735   47.8510 H   0  0  0  0  0  0  0  0  0  0  0  0
   59.9972   27.4490   47.8510 H   0  0  0  0  0  0  0  0  0  0  0  0
   57.2004   26.4776   44.2997 H   0  0  0  0  0  0  0  0  0  0  0  0
   58.2951   25.9144   45.6141 H   0  0  0  0  0  0  0  0  0  0  0  0
   56.5653   28.1692   43.1658 H   0  0  0  0  0  0  0  0  0  0  0  0
   56.3384   30.3984   42.0202 H   0  0  0  0  0  0  0  0  0  0  0  0
   57.2301   32.4694   43.1044 H   0  0  0  0  0  0  0  0  0  0  0  0
   58.3386   32.3390   45.3624 H   0  0  0  0  0  0  0  0  0  0  0  0
   61.8826   30.5804   47.6685 H   0  0  0  0  0  0  0  0  0  0  0  0
  1  2  1  0
  2  3  2  0
  3  4  1  0
  4  5  1  0
  4  6  2  0
  6  7  1  0
  7  8  1  0
  8  9  1  0
  9 10  2  0
 10 11  1  0
 10 12  1  0
 12 13  1  0
 13 14  1  0
 14 15  2  0
 14 16  1  0
 12 17  1  0
 17 18  2  0
 18 19  1  0
 19 20  2  0
 20 21  1  0
 21 22  2  0
  7 23  2  0
 23  2  1  0
 22  9  1  0
 22 17  1  0
  1 24  1  0
  1 25  1  0
  1 26  1  0
  3 27  1  0
  5 28  1  0
  5 29  1  0
  5 30  1  0
  6 31  1  0
 11 32  1  0
 11 33  1  0
 11 34  1  0
 13 35  1  0
 13 36  1  0
 18 37  1  0
 19 38  1  0
 20 39  1  0
 21 40  1  0
 23 41  1  0
M  CHG  1  16  -1
M  END
>  <UniqueID>  (34) 
33

>  <SMILES>  (34) 
Cc1cc(C)cc(Oc2c(C)n(CC(=O)[O-])c3ccccc23)c1

>  <Energy>  (34) 
80.37317118400503

>  <Genealogy>  (34) 
Cc1cc(C)cc(Oc2c(C)n(CC(=O)[O-])c3ccccc23)c1 (protonated)
Cc1cc(C)cc(Oc2c(C)n(CC(=O)[O-])c3ccccc23)c1 (3D coordinates assigned)
Cc1cc(C)cc(Oc2c(C)n(CC(=O)[O-])c3ccccc23)c1 (optimized conformer: 80.37317118400503 kcal/mol)

>  <smiles>  (34) 
Cc1cc(C)cc(Oc2c(C)n(CC(=O)O)c3ccccc23)c1

>  <score_type>  (34) 
oracle

>  <origin>  (34) 
adg

>  <m_score__min__energy>  (34) 
-11.02

>  <m_primary>  (34) 
energy

$$$$
34:0
     RDKit          3D

 51 53  0  0  0  0  0  0  0  0999 V2000
   56.6000   23.6880   43.0270 C   0  0  0  0  0  0  0  0  0  0  0  0
   56.5810   22.4100   43.8610 C   0  0  0  0  0  0  0  0  0  0  0  0
   57.0050   22.6960   45.2520 N   0  0  0  0  0  0  0  0  0  0  0  0
   56.4180   21.7230   46.2020 C   0  0  0  0  0  0  0  0  0  0  0  0
   55.8700   22.4520   47.4250 C   0  0  0  0  0  0  0  0  0  0  0  0
   58.4810   22.7370   45.3640 C   0  0  0  0  0  0  0  0  0  0  0  0
   58.9640   24.1190   45.8330 C   0  0  0  0  0  0  0  0  0  0  0  0
   57.8390   25.0360   46.0330 N   0  0  0  0  0  0  0  0  0  0  0  0
   57.8490   26.4150   45.6190 C   0  0  0  0  0  0  0  0  0  0  0  0
   59.0320   27.0220   45.1600 C   0  0  0  0  0  0  0  0  0  0  0  0
   59.0290   28.3510   44.7380 C   0  0  0  0  0  0  0  0  0  0  0  0
   57.8490   29.1050   44.7780 C   0  0  0  0  0  0  0  0  0  0  0  0
   57.8340   30.4680   44.3220 N   0  0  0  0  0  0  0  0  0  0  0  0
   57.6630   30.8420   43.0560 N   0  0  0  0  0  0  0  0  0  0  0  0
   57.7000   32.1660   42.9190 N   0  0  0  0  0  0  0  0  0  0  0  0
   57.8990   32.6430   44.1610 C   0  0  0  0  0  0  0  0  0  0  0  0
   57.9810   33.9670   44.5780 C   0  0  0  0  0  0  0  0  0  0  0  0
   58.1470   34.2040   45.9570 C   0  0  0  0  0  0  0  0  0  0  0  0
   58.2110   33.1240   46.8680 C   0  0  0  0  0  0  0  0  0  0  0  0
   58.1190   31.7950   46.4110 C   0  0  0  0  0  0  0  0  0  0  0  0
   57.9810   31.5990   45.0360 C   0  0  0  0  0  0  0  0  0  0  0  0
   56.6640   28.5040   45.2270 C   0  0  0  0  0  0  0  0  0  0  0  0
   56.6550   27.1620   45.6530 C   0  0  0  0  0  0  0  0  0  0  0  0
   55.4790   26.5320   46.0910 O   0  0  0  0  0  0  0  0  0  0  0  0
   55.0140   25.2700   45.6230 C   0  0  0  0  0  0  0  0  0  0  0  0
   56.6130   24.5617   43.6952 H   0  0  0  0  0  0  0  0  0  0  0  0
   57.4984   23.6984   42.3924 H   0  0  0  0  0  0  0  0  0  0  0  0
   55.7023   23.7251   42.3924 H   0  0  0  0  0  0  0  0  0  0  0  0
   55.5611   21.9980   43.8702 H   0  0  0  0  0  0  0  0  0  0  0  0
   57.2775   21.6833   43.4173 H   0  0  0  0  0  0  0  0  0  0  0  0
   55.6010   21.1780   45.7066 H   0  0  0  0  0  0  0  0  0  0  0  0
   57.1978   21.0165   46.5226 H   0  0  0  0  0  0  0  0  0  0  0  0
   56.2379   21.9626   48.3389 H   0  0  0  0  0  0  0  0  0  0  0  0
   56.2064   23.4992   47.4090 H   0  0  0  0  0  0  0  0  0  0  0  0
   54.7706   22.4198   47.4090 H   0  0  0  0  0  0  0  0  0  0  0  0
   58.8071   21.9775   46.0898 H   0  0  0  0  0  0  0  0  0  0  0  0
   58.9116   22.5353   44.3721 H   0  0  0  0  0  0  0  0  0  0  0  0
   59.5071   24.0055   46.7828 H   0  0  0  0  0  0  0  0  0  0  0  0
   59.6209   24.5391   45.0571 H   0  0  0  0  0  0  0  0  0  0  0  0
   56.9460   24.6210   46.3830 H   0  0  0  0  0  0  0  0  0  0  0  0
   59.9672   26.4435   45.1337 H   0  0  0  0  0  0  0  0  0  0  0  0
   59.9589   28.8102   44.3714 H   0  0  0  0  0  0  0  0  0  0  0  0
   57.5300   30.1830   42.2570 H   0  0  0  0  0  0  0  0  0  0  0  0
   57.9187   34.7972   43.8591 H   0  0  0  0  0  0  0  0  0  0  0  0
   58.2274   35.2365   46.3277 H   0  0  0  0  0  0  0  0  0  0  0  0
   58.3337   33.3238   47.9427 H   0  0  0  0  0  0  0  0  0  0  0  0
   58.1545   30.9459   47.1094 H   0  0  0  0  0  0  0  0  0  0  0  0
   55.7316   29.0873   45.2466 H   0  0  0  0  0  0  0  0  0  0  0  0
   54.7764   24.6252   46.4820 H   0  0  0  0  0  0  0  0  0  0  0  0
   54.1104   25.4155   45.0128 H   0  0  0  0  0  0  0  0  0  0  0  0
   55.7959   24.7944   45.0128 H   0  0  0  0  0  0  0  0  0  0  0  0
  1  2  1  0
  2  3  1  0
  3  4  1  0
  4  5  1  0
  3  6  1  0
  6  7  1  0
  7  8  1  0
  8  9  1  0
  9 10  2  0
 10 11  1  0
 11 12  2  0
 12 13  1  0
 13 14  1  0
 14 15  2  0
 15 16  1  0
 16 17  2  0
 17 18  1  0
 18 19  2  0
 19 20  1  0
 20 21  2  0
 12 22  1  0
 22 23  2  0
 23 24  1  0
 24 25  1  0
 23  9  1  0
 21 13  1  0
 21 16  1  0
  1 26  1  0
  1 27  1  0
  1 28  1  0
  2 29  1  0
  2 30  1  0
  4 31  1  0
  4 32  1  0
  5 33  1  0
  5 34  1  0
  5 35  1  0
  6 36  1  0
  6 37  1  0
  7 38  1  0
  7 39  1  0
  8 40  1  0
 10 41  1  0
 11 42  1  0
 14 43  1  0
 17 44  1  0
 18 45  1  0
 19 46  1  0
 20 47  1  0
 22 48  1  0
 25 49  1  0
 25 50  1  0
 25 51  1  0
M  CHG  1  14   1
M  END
>  <UniqueID>  (35) 
34

>  <SMILES>  (35) 
CCN(CC)CCNc1ccc(-n2[nH+]nc3ccccc32)cc1OC

>  <Energy>  (35) 
97.35948824357996

>  <Genealogy>  (35) 
CCN(CC)CCNc1ccc(-n2[nH+]nc3ccccc32)cc1OC (protonated)
CCN(CC)CCNc1ccc(-n2[nH+]nc3ccccc32)cc1OC (3D coordinates assigned)
CCN(CC)CCNc1ccc(-n2[nH+]nc3ccccc32)cc1OC (optimized conformer: 97.35948824357996 kcal/mol)

>  <smiles>  (35) 
CCN(CC)CCNc1ccc(-n2nnc3ccccc32)cc1OC

>  <score_type>  (35) 
oracle

>  <origin>  (35) 
adg

>  <m_score__min__energy>  (35) 
-6.0199999999999996

>  <m_primary>  (35) 
energy

$$$$
35:0
     RDKit          3D

 48 47  0  0  0  0  0  0  0  0999 V2000
   60.0578   35.9377   46.7112 H   0  0  0  0  0  0  0  0  0  0  0  0
   59.9940   35.0260   46.0990 C   0  0  0  0  0  0  0  0  0  0  0  0
   63.4130   32.9760   47.4950 Br  0  0  0  0  0  0  0  0  0  0  0  0
   59.0390   34.9190   45.1700 C   0  0  0  0  0  0  0  0  0  0  0  0
   58.9011   35.7477   44.4599 H   0  0  0  0  0  0  0  0  0  0  0  0
   61.6850   33.8030   47.4280 C   0  0  0  0  0  0  0  0  0  0  0  0
   61.2622   34.1926   48.3658 H   0  0  0  0  0  0  0  0  0  0  0  0
   60.9630   33.9350   46.3120 C   0  0  0  0  0  0  0  0  0  0  0  0
   61.0980   33.1926   45.5116 H   0  0  0  0  0  0  0  0  0  0  0  0
   58.1540   33.7280   45.0540 C   0  0  0  0  0  0  0  0  0  0  0  0
   58.1270   32.6680   43.4500 Br  0  0  0  0  0  0  0  0  0  0  0  0
   57.3390   33.3330   46.0470 C   0  0  0  0  0  0  0  0  0  0  0  0
   56.2774   33.1791   45.8035 H   0  0  0  0  0  0  0  0  0  0  0  0
   57.7700   33.0860   47.4650 C   0  0  0  0  0  0  0  0  0  0  0  0
   56.8816   32.8900   48.0833 H   0  0  0  0  0  0  0  0  0  0  0  0
   58.3026   33.9756   47.8324 H   0  0  0  0  0  0  0  0  0  0  0  0
   58.6720   31.9330   47.5400 C   0  0  0  0  0  0  0  0  0  0  0  0
   59.4020   30.9740   47.6010 C   0  0  0  0  0  0  0  0  0  0  0  0
   60.2730   29.7910   47.6900 C   0  0  0  0  0  0  0  0  0  0  0  0
   60.2673   29.4189   48.7252 H   0  0  0  0  0  0  0  0  0  0  0  0
   61.2890   30.0844   47.3874 H   0  0  0  0  0  0  0  0  0  0  0  0
   59.8090   28.7110   46.7860 N   0  0  2  0  0  0  0  0  0  0  0  0
   58.7680   28.6370   46.8700 H   0  0  0  0  0  0  0  0  0  0  0  0
   60.3790   27.4230   47.2280 C   0  0  0  0  0  0  0  0  0  0  0  0
   60.3949   27.3870   48.3273 H   0  0  0  0  0  0  0  0  0  0  0  0
   59.7621   26.5976   46.8430 H   0  0  0  0  0  0  0  0  0  0  0  0
   61.4047   27.3246   46.8430 H   0  0  0  0  0  0  0  0  0  0  0  0
   60.1930   28.9940   45.3770 C   0  0  0  0  0  0  0  0  0  0  0  0
   60.6752   28.0987   44.9575 H   0  0  0  0  0  0  0  0  0  0  0  0
   60.8742   29.8577   45.3863 H   0  0  0  0  0  0  0  0  0  0  0  0
   58.9860   29.3640   44.4920 C   0  0  0  0  0  0  0  0  0  0  0  0
   59.0975   28.8910   43.5052 H   0  0  0  0  0  0  0  0  0  0  0  0
   58.9415   30.4568   44.3749 H   0  0  0  0  0  0  0  0  0  0  0  0
   57.7320   28.8860   45.1300 N   0  0  0  0  0  0  0  0  0  0  0  0
   57.4860   27.4460   44.8890 C   0  0  0  0  0  0  0  0  0  0  0  0
   58.4194   26.9673   44.5581 H   0  0  0  0  0  0  0  0  0  0  0  0
   56.7150   27.3363   44.1122 H   0  0  0  0  0  0  0  0  0  0  0  0
   57.0030   26.7780   46.1720 C   0  0  0  0  0  0  0  0  0  0  0  0
   57.3981   27.3244   47.0411 H   0  0  0  0  0  0  0  0  0  0  0  0
   55.9034   26.7901   46.2002 H   0  0  0  0  0  0  0  0  0  0  0  0
   57.3591   25.7376   46.2002 H   0  0  0  0  0  0  0  0  0  0  0  0
   56.5600   29.6990   44.7300 C   0  0  0  0  0  0  0  0  0  0  0  0
   55.6543   29.2760   45.1892 H   0  0  0  0  0  0  0  0  0  0  0  0
   56.7160   30.7331   45.0712 H   0  0  0  0  0  0  0  0  0  0  0  0
   56.3950   29.7050   43.2110 C   0  0  0  0  0  0  0  0  0  0  0  0
   55.3251   29.7439   42.9586 H   0  0  0  0  0  0  0  0  0  0  0  0
   56.9032   30.5853   42.7904 H   0  0  0  0  0  0  0  0  0  0  0  0
   56.8379   28.7902   42.7904 H   0  0  0  0  0  0  0  0  0  0  0  0
  1  2  1  0
  2  3  1  0
  2  4  2  0
  4  5  1  0
  4  6  1  0
  6  7  1  0
  6  8  2  0
  8  9  1  0
  8 10  1  0
 10 11  1  0
 10 12  2  0
 12 13  1  0
 12 14  1  0
 14 15  1  0
 14 16  1  0
 14 17  1  0
 17 18  3  0
 18 19  1  0
 19 20  1  0
 19 21  1  0
 19 22  1  0
 22 23  1  6
 22 24  1  0
 24 25  1  0
 24 26  1  0
 24 27  1  0
 22 28  1  0
 28 29  1  0
 28 30  1  0
 28 31  1  0
 31 32  1  0
 31 33  1  0
 31 34  1  0
 34 35  1  0
 35 36  1  0
 35 37  1  0
 35 38  1  0
 38 39  1  0
 38 40  1  0
 38 41  1  0
 34 42  1  0
 42 43  1  0
 42 44  1  0
 42 45  1  0
 45 46  1  0
 45 47  1  0
 45 48  1  0
M  CHG  1  22   1
M  END
>  <UniqueID>  (36) 
35

>  <SMILES>  (36) 
CCN(CC)CC[N@@H+](C)CC#CC/C=C(Br)\C=C\C=C/Br

>  <Energy>  (36) 
34.58338511704301

>  <Genealogy>  (36) 
CCN(CC)CC[NH+](C)CC#CCC=C(Br)C=CC=CBr (protonated)
CCN(CC)CC[N@@H+](C)CC#CCC=C(Br)C=CC=CBr (chirality)
CCN(CC)CC[N@@H+](C)CC#CC/C=C(Br)\C=C\C=C/Br (cis-trans isomerization)
CCN(CC)CC[N@@H+](C)CC#CC/C=C(Br)\C=C\C=C/Br (3D coordinates assigned)
CCN(CC)CC[N@@H+](C)CC#CC/C=C(Br)\C=C\C=C/Br (optimized conformer: 34.58338511704301 kcal/mol)

>  <smiles>  (36) 
CCN(CC)CCN(C)CC#CCC=C(Br)C=CC=CBr

>  <score_type>  (36) 
oracle

>  <origin>  (36) 
adg

>  <m_score__min__energy>  (36) 
-4.6200000000000001

>  <m_primary>  (36) 
energy

$$$$
36:0
     RDKit          3D

 50 53  0  0  0  0  0  0  0  0999 V2000
   57.9230   32.8860   45.4030 C   0  0  0  0  0  0  0  0  0  0  0  0
   57.6650   31.6170   45.9970 O   0  0  0  0  0  0  0  0  0  0  0  0
   57.9530   30.3800   45.3950 C   0  0  0  0  0  0  0  0  0  0  0  0
   57.1260   29.8350   44.3910 C   0  0  0  0  0  0  0  0  0  0  0  0
   57.4430   28.6100   43.8020 C   0  0  0  0  0  0  0  0  0  0  0  0
   58.5790   27.9100   44.2070 C   0  0  0  0  0  0  0  0  0  0  0  0
   59.4050   28.4350   45.2020 C   0  0  0  0  0  0  0  0  0  0  0  0
   59.1070   29.6740   45.7980 C   0  0  0  0  0  0  0  0  0  0  0  0
   59.9780   30.2070   46.8740 C   0  0  0  0  0  0  0  0  0  0  0  0
   61.1490   30.8050   46.5330 N   0  0  0  0  0  0  0  0  0  0  0  0
   61.9750   31.3240   47.4710 C   0  0  0  0  0  0  0  0  0  0  0  0
   63.1740   31.9370   47.1120 C   0  0  0  0  0  0  0  0  0  0  0  0
   63.9820   32.4600   48.0730 N   0  0  0  0  0  0  0  0  0  0  0  0
   63.6320   32.4020   49.3910 C   0  0  0  0  0  0  0  0  0  0  0  0
   64.4910   32.9560   50.4050 N   0  0  0  0  0  0  0  0  0  0  0  0
   65.9460   32.8200   50.2900 C   0  0  0  0  0  0  0  0  0  0  0  0
   66.5900   32.9490   51.6750 C   0  0  0  0  0  0  0  0  0  0  0  0
   66.1640   34.1360   52.3170 O   0  0  0  0  0  0  0  0  0  0  0  0
   64.7750   34.0690   52.5740 C   0  0  0  0  0  0  0  0  0  0  0  0
   63.9800   34.0280   51.2650 C   0  0  0  0  0  0  0  0  0  0  0  0
   62.4700   31.7900   49.7520 N   0  0  0  0  0  0  0  0  0  0  0  0
   61.6300   31.2500   48.8280 C   0  0  0  0  0  0  0  0  0  0  0  0
   60.4590   30.6370   49.2020 N   0  0  0  0  0  0  0  0  0  0  0  0
   60.0840   30.5720   50.6320 C   0  0  0  0  0  0  0  0  0  0  0  0
   58.8980   31.4930   50.9390 C   0  0  0  0  0  0  0  0  0  0  0  0
   57.7090   30.7240   51.3230 C   0  0  0  0  0  0  0  0  0  0  0  0
   56.7710   30.1170   51.6260 N   0  0  0  0  0  0  0  0  0  0  0  0
   59.6290   30.1120   48.2390 C   0  0  0  0  0  0  0  0  0  0  0  0
   58.5590   29.5260   48.5690 O   0  0  0  0  0  0  0  0  0  0  0  0
   58.0755   33.6363   46.1928 H   0  0  0  0  0  0  0  0  0  0  0  0
   58.8265   32.8218   44.7788 H   0  0  0  0  0  0  0  0  0  0  0  0
   57.0662   33.1797   44.7788 H   0  0  0  0  0  0  0  0  0  0  0  0
   56.2253   30.3789   44.0700 H   0  0  0  0  0  0  0  0  0  0  0  0
   56.7947   28.1955   43.0159 H   0  0  0  0  0  0  0  0  0  0  0  0
   58.8242   26.9437   43.7421 H   0  0  0  0  0  0  0  0  0  0  0  0
   60.2961   27.8755   45.5227 H   0  0  0  0  0  0  0  0  0  0  0  0
   63.4664   31.9978   46.0533 H   0  0  0  0  0  0  0  0  0  0  0  0
   64.8910   32.8800   47.7810 H   0  0  0  0  0  0  0  0  0  0  0  0
   66.1883   31.8349   49.8648 H   0  0  0  0  0  0  0  0  0  0  0  0
   66.3343   33.6125   49.6334 H   0  0  0  0  0  0  0  0  0  0  0  0
   66.3018   32.0831   52.2891 H   0  0  0  0  0  0  0  0  0  0  0  0
   67.6828   32.9852   51.5545 H   0  0  0  0  0  0  0  0  0  0  0  0
   64.5594   33.1604   53.1553 H   0  0  0  0  0  0  0  0  0  0  0  0
   64.4777   34.9649   53.1387 H   0  0  0  0  0  0  0  0  0  0  0  0
   62.9190   33.8423   51.4882 H   0  0  0  0  0  0  0  0  0  0  0  0
   64.0872   34.9916   50.7455 H   0  0  0  0  0  0  0  0  0  0  0  0
   59.8086   29.5372   50.8836 H   0  0  0  0  0  0  0  0  0  0  0  0
   60.9447   30.9024   51.2320 H   0  0  0  0  0  0  0  0  0  0  0  0
   59.1716   32.1656   51.7653 H   0  0  0  0  0  0  0  0  0  0  0  0
   58.6610   32.0669   50.0310 H   0  0  0  0  0  0  0  0  0  0  0  0
  1  2  1  0
  2  3  1  0
  3  4  2  0
  4  5  1  0
  5  6  2  0
  6  7  1  0
  7  8  2  0
  8  9  1  0
  9 10  2  0
 10 11  1  0
 11 12  2  0
 12 13  1  0
 13 14  2  0
 14 15  1  0
 15 16  1  0
 16 17  1  0
 17 18  1  0
 18 19  1  0
 19 20  1  0
 14 21  1  0
 21 22  2  0
 22 23  1  0
 23 24  1  0
 24 25  1  0
 25 26  1  0
 26 27  3  0
 23 28  1  0
 28 29  2  0
  8  3  1  0
 28  9  1  0
 22 11  1  0
 20 15  1  0
  1 30  1  0
  1 31  1  0
  1 32  1  0
  4 33  1  0
  5 34  1  0
  6 35  1  0
  7 36  1  0
 12 37  1  0
 13 38  1  0
 16 39  1  0
 16 40  1  0
 17 41  1  0
 17 42  1  0
 19 43  1  0
 19 44  1  0
 20 45  1  0
 20 46  1  0
 24 47  1  0
 24 48  1  0
 25 49  1  0
 25 50  1  0
M  CHG  1  13   1
M  END
>  <UniqueID>  (37) 
36

>  <SMILES>  (37) 
COc1ccccc1-c1nc2c[nH+]c(N3CCOCC3)nc2n(CCC#N)c1=O

>  <Energy>  (37) 
67.24848722003527

>  <Genealogy>  (37) 
COc1ccccc1-c1nc2c[nH+]c(N3CCOCC3)nc2n(CCC#N)c1=O (protonated)
COc1ccccc1-c1nc2c[nH+]c(N3CCOCC3)nc2n(CCC#N)c1=O (3D coordinates assigned)
COc1ccccc1-c1nc2c[nH+]c(N3CCOCC3)nc2n(CCC#N)c1=O (nonaromatic ring conformer: 67.24848722003527 kcal/mol)

>  <smiles>  (37) 
COc1ccccc1-c1nc2cnc(N3CCOCC3)nc2n(CCC#N)c1=O

>  <score_type>  (37) 
oracle

>  <origin>  (37) 
adg

>  <m_score__min__energy>  (37) 
-5.75

>  <m_primary>  (37) 
energy

$$$$
37:0
     RDKit          3D

 63 66  0  0  0  0  0  0  0  0999 V2000
   56.0220   29.4200   52.7170 C   0  0  0  0  0  0  0  0  0  0  0  0
   57.0640   29.3040   51.7530 O   0  0  0  0  0  0  0  0  0  0  0  0
   57.8160   30.3830   51.2590 C   0  0  0  0  0  0  0  0  0  0  0  0
   57.8400   31.6320   51.9190 C   0  0  0  0  0  0  0  0  0  0  0  0
   58.6800   32.6580   51.4740 C   0  0  0  0  0  0  0  0  0  0  0  0
   59.5250   32.4520   50.3750 C   0  0  0  0  0  0  0  0  0  0  0  0
   60.6490   33.7160   49.8650 S   0  0  0  0  0  0  0  0  0  0  0  0
   61.3850   34.2100   51.0770 O   0  0  0  0  0  0  0  0  0  0  0  0
   59.8600   34.8570   49.2850 O   0  0  0  0  0  0  0  0  0  0  0  0
   61.7650   33.0870   48.6630 N   0  0  0  0  0  0  0  0  0  0  0  0
   61.6380   33.8270   47.3910 C   0  0  0  0  0  0  0  0  0  0  0  0
   62.7820   33.4740   46.4140 C   0  0  0  0  0  0  0  0  0  0  0  0
   63.4940   32.3300   46.8500 O   0  0  0  0  0  0  0  0  0  0  0  0
   64.1370   32.6060   48.0800 C   0  0  0  0  0  0  0  0  0  0  0  0
   63.1580   33.1520   49.1430 C   0  0  0  0  0  0  0  0  0  0  0  0
   59.4810   31.2280   49.6980 C   0  0  0  0  0  0  0  0  0  0  0  0
   58.6010   30.2120   50.0970 C   0  0  0  0  0  0  0  0  0  0  0  0
   58.5880   29.0060   49.3170 N   0  0  0  0  0  0  0  0  0  0  0  0
   59.6340   28.4760   48.4900 C   0  0  0  0  0  0  0  0  0  0  0  0
   60.8470   28.6900   48.7690 O   0  0  0  0  0  0  0  0  0  0  0  0
   59.2800   27.5650   47.3350 C   0  0  0  0  0  0  0  0  0  0  0  0
   57.7490   27.5690   47.0700 C   0  0  0  0  0  0  0  0  0  0  0  0
   57.3370   28.2610   45.7560 C   0  0  0  0  0  0  0  0  0  0  0  0
   58.2040   29.4130   45.4590 N   0  0  0  0  0  0  0  0  0  0  0  0
   57.6180   30.5770   44.8540 C   0  0  0  0  0  0  0  0  0  0  0  0
   56.7390   30.4370   43.9650 O   0  0  0  0  0  0  0  0  0  0  0  0
   57.9410   31.9400   45.3290 C   0  0  0  0  0  0  0  0  0  0  0  0
   58.0540   32.2410   46.6950 C   0  0  0  0  0  0  0  0  0  0  0  0
   58.3230   33.5500   47.1070 C   0  0  0  0  0  0  0  0  0  0  0  0
   58.5080   34.5590   46.1620 C   0  0  0  0  0  0  0  0  0  0  0  0
   58.4290   34.2600   44.7990 C   0  0  0  0  0  0  0  0  0  0  0  0
   58.1510   32.9560   44.3840 C   0  0  0  0  0  0  0  0  0  0  0  0
   59.6680   29.2590   45.4770 C   0  0  0  0  0  0  0  0  0  0  0  0
   60.0930   27.9080   46.0700 C   0  0  0  0  0  0  0  0  0  0  0  0
   56.4514   29.3722   53.7286 H   0  0  0  0  0  0  0  0  0  0  0  0
   55.5043   30.3813   52.5835 H   0  0  0  0  0  0  0  0  0  0  0  0
   55.3056   28.5961   52.5835 H   0  0  0  0  0  0  0  0  0  0  0  0
   57.1915   31.7992   52.7916 H   0  0  0  0  0  0  0  0  0  0  0  0
   58.6774   33.6302   51.9885 H   0  0  0  0  0  0  0  0  0  0  0  0
   61.5120   32.0840   48.4930 H   0  0  0  0  0  0  0  0  0  0  0  0
   60.6762   33.5706   46.9228 H   0  0  0  0  0  0  0  0  0  0  0  0
   61.6918   34.9034   47.6110 H   0  0  0  0  0  0  0  0  0  0  0  0
   62.3557   33.2739   45.4199 H   0  0  0  0  0  0  0  0  0  0  0  0
   63.4796   34.3235   46.3734 H   0  0  0  0  0  0  0  0  0  0  0  0
   64.5892   31.6776   48.4590 H   0  0  0  0  0  0  0  0  0  0  0  0
   64.8990   33.3776   47.8960 H   0  0  0  0  0  0  0  0  0  0  0  0
   63.2508   32.5511   50.0597 H   0  0  0  0  0  0  0  0  0  0  0  0
   63.4103   34.2037   49.3438 H   0  0  0  0  0  0  0  0  0  0  0  0
   60.1475   31.0603   48.8391 H   0  0  0  0  0  0  0  0  0  0  0  0
   59.5582   26.5388   47.6171 H   0  0  0  0  0  0  0  0  0  0  0  0
   57.4025   26.5256   47.0338 H   0  0  0  0  0  0  0  0  0  0  0  0
   57.2883   28.1430   47.8874 H   0  0  0  0  0  0  0  0  0  0  0  0
   57.4106   27.5362   44.9318 H   0  0  0  0  0  0  0  0  0  0  0  0
   56.3047   28.6248   45.8660 H   0  0  0  0  0  0  0  0  0  0  0  0
   57.9306   31.4449   47.4439 H   0  0  0  0  0  0  0  0  0  0  0  0
   58.3889   33.7846   48.1797 H   0  0  0  0  0  0  0  0  0  0  0  0
   58.7158   35.5885   46.4889 H   0  0  0  0  0  0  0  0  0  0  0  0
   58.5860   35.0526   44.0525 H   0  0  0  0  0  0  0  0  0  0  0  0
   58.0963   32.7238   43.3102 H   0  0  0  0  0  0  0  0  0  0  0  0
   60.0460   29.3300   44.4464 H   0  0  0  0  0  0  0  0  0  0  0  0
   60.0875   30.0562   46.1083 H   0  0  0  0  0  0  0  0  0  0  0  0
   59.9329   27.1213   45.3180 H   0  0  0  0  0  0  0  0  0  0  0  0
   61.1550   27.9725   46.3493 H   0  0  0  0  0  0  0  0  0  0  0  0
  1  2  1  0
  2  3  1  0
  3  4  2  0
  4  5  1  0
  5  6  2  0
  6  7  1  0
  7  8  2  0
  7  9  2  0
  7 10  1  0
 10 11  1  0
 11 12  1  0
 12 13  1  0
 13 14  1  0
 14 15  1  0
  6 16  1  0
 16 17  2  0
 17 18  1  0
 18 19  1  0
 19 20  2  0
 19 21  1  0
 21 22  1  0
 22 23  1  0
 23 24  1  0
 24 25  1  0
 25 26  2  0
 25 27  1  0
 27 28  2  0
 28 29  1  0
 29 30  2  0
 30 31  1  0
 31 32  2  0
 24 33  1  0
 33 34  1  0
 17  3  1  0
 34 21  1  0
 15 10  1  0
 32 27  1  0
  1 35  1  0
  1 36  1  0
  1 37  1  0
  4 38  1  0
  5 39  1  0
 10 40  1  0
 11 41  1  0
 11 42  1  0
 12 43  1  0
 12 44  1  0
 14 45  1  0
 14 46  1  0
 15 47  1  0
 15 48  1  0
 16 49  1  0
 21 50  1  0
 22 51  1  0
 22 52  1  0
 23 53  1  0
 23 54  1  0
 28 55  1  0
 29 56  1  0
 30 57  1  0
 31 58  1  0
 32 59  1  0
 33 60  1  0
 33 61  1  0
 34 62  1  0
 34 63  1  0
M  CHG  2  10   1  18  -1
M  END
>  <UniqueID>  (38) 
37

>  <SMILES>  (38) 
COc1ccc(S(=O)(=O)[NH+]2CCOCC2)cc1[N-]C(=O)C1CCN(C(=O)c2ccccc2)CC1

>  <Energy>  (38) 
89.72835888268354

>  <Genealogy>  (38) 
COc1ccc(S(=O)(=O)[NH+]2CCOCC2)cc1[N-]C(=O)C1CCN(C(=O)c2ccccc2)CC1 (protonated)
COc1ccc(S(=O)(=O)[NH+]2CCOCC2)cc1[N-]C(=O)C1CCN(C(=O)c2ccccc2)CC1 (3D coordinates assigned)
COc1ccc(S(=O)(=O)[NH+]2CCOCC2)cc1[N-]C(=O)C1CCN(C(=O)c2ccccc2)CC1 (nonaromatic ring conformer: 89.72835888268354 kcal/mol)

>  <smiles>  (38) 
COc1ccc(S(=O)(=O)N2CCOCC2)cc1NC(=O)C1CCN(C(=O)c2ccccc2)CC1

>  <score_type>  (38) 
oracle

>  <origin>  (38) 
adg

>  <m_score__min__energy>  (38) 
-9.4199999999999999

>  <m_primary>  (38) 
energy

$$$$
38:0
     RDKit          3D

 55 58  0  0  1  0  0  0  0  0999 V2000
   57.7310   33.1360   46.8080 C   0  0  0  0  0  0  0  0  0  0  0  0
   59.0110   33.6690   46.2110 C   0  0  0  0  0  0  0  0  0  0  0  0
   59.5350   34.7970   47.0740 C   0  0  0  0  0  0  0  0  0  0  0  0
   59.6530   34.3700   48.4880 C   0  0  0  0  0  0  0  0  0  0  0  0
   59.7320   34.0320   49.6510 C   0  0  0  0  0  0  0  0  0  0  0  0
   59.8030   33.6220   51.0470 C   0  0  0  0  0  0  0  0  0  0  0  0
   58.7750   32.6700   51.3340 N   0  0  0  0  0  0  0  0  0  0  0  0
   57.6920   33.1140   52.0290 C   0  0  0  0  0  0  0  0  0  0  0  0
   56.6510   32.2750   52.3710 C   0  0  0  0  0  0  0  0  0  0  0  0
   56.7030   30.9530   52.0040 C   0  0  0  0  0  0  0  0  0  0  0  0
   55.5780   30.0520   52.3760 C   0  0  0  0  0  0  0  0  0  0  0  0
   57.7890   30.4760   51.2990 C   0  0  0  0  0  0  0  0  0  0  0  0
   58.8540   31.3510   50.9520 C   0  0  0  0  0  0  0  0  0  0  0  0
   59.9480   30.8390   50.3510 N   0  0  0  0  0  0  0  0  0  0  0  0
   60.3760   30.8590   49.2000 C   0  0  0  0  0  0  0  0  0  0  0  0
   59.6330   30.2350   48.2390 N   0  0  0  0  0  0  0  0  0  0  0  0
   60.0100   30.2200   46.9610 C   0  0  0  0  0  0  0  0  0  0  0  0
   59.1400   29.5200   46.0090 C   0  0  0  0  0  0  0  0  0  0  0  0
   59.6650   28.6610   45.0400 C   0  0  0  0  0  0  0  0  0  0  0  0
   58.8630   27.9960   44.1370 C   0  0  0  0  0  0  0  0  0  0  0  0
   57.4950   28.1590   44.1640 C   0  0  0  0  0  0  0  0  0  0  0  0
   56.9450   28.9990   45.1080 C   0  0  0  0  0  0  0  0  0  0  0  0
   55.5980   29.1770   45.1530 F   0  0  0  0  0  0  0  0  0  0  0  0
   57.7710   29.6580   46.0040 C   0  0  0  0  0  0  0  0  0  0  0  0
   61.1460   30.8310   46.6000 N   0  0  0  0  0  0  0  0  0  0  0  0
   61.8930   31.4520   47.5330 C   0  0  0  0  0  0  0  0  0  0  0  0
   63.0410   32.0550   47.1190 C   0  0  0  0  0  0  0  0  0  0  0  0
   63.8070   32.6860   48.0690 C   0  0  0  0  0  0  0  0  0  0  0  0
   63.5100   32.7550   49.3950 C   0  0  0  0  0  0  0  0  0  0  0  0
   62.3160   32.1220   49.7940 C   0  0  0  0  0  0  0  0  0  0  0  0
   61.5440   31.4950   48.8740 C   0  0  0  0  0  0  0  0  0  0  0  0
   57.7987   33.1642   47.9055 H   0  0  0  0  0  0  0  0  0  0  0  0
   56.8855   33.7568   46.4767 H   0  0  0  0  0  0  0  0  0  0  0  0
   57.5760   32.0986   46.4767 H   0  0  0  0  0  0  0  0  0  0  0  0
   59.7586   32.8633   46.1659 H   0  0  0  0  0  0  0  0  0  0  0  0
   58.8156   34.0430   45.1952 H   0  0  0  0  0  0  0  0  0  0  0  0
   60.5258   35.1017   46.7059 H   0  0  0  0  0  0  0  0  0  0  0  0
   58.8291   35.6388   47.0188 H   0  0  0  0  0  0  0  0  0  0  0  0
   60.7850   33.1667   51.2427 H   0  0  0  0  0  0  0  0  0  0  0  0
   59.6644   34.5049   51.6884 H   0  0  0  0  0  0  0  0  0  0  0  0
   57.6453   34.1720   52.3266 H   0  0  0  0  0  0  0  0  0  0  0  0
   55.7877   32.6618   52.9323 H   0  0  0  0  0  0  0  0  0  0  0  0
   55.5032   29.9921   53.4718 H   0  0  0  0  0  0  0  0  0  0  0  0
   54.6383   30.4501   51.9655 H   0  0  0  0  0  0  0  0  0  0  0  0
   55.7612   29.0480   51.9655 H   0  0  0  0  0  0  0  0  0  0  0  0
   57.8306   29.4168   51.0050 H   0  0  0  0  0  0  0  0  0  0  0  0
   60.7538   28.5104   44.9962 H   0  0  0  0  0  0  0  0  0  0  0  0
   59.3187   27.3302   43.3893 H   0  0  0  0  0  0  0  0  0  0  0  0
   56.8535   27.6283   43.4451 H   0  0  0  0  0  0  0  0  0  0  0  0
   57.3098   30.3242   46.7479 H   0  0  0  0  0  0  0  0  0  0  0  0
   61.4510   30.8300   45.6220 H   0  0  0  0  0  0  0  0  0  0  0  0
   63.3445   32.0377   46.0618 H   0  0  0  0  0  0  0  0  0  0  0  0
   64.7332   33.1738   47.7311 H   0  0  0  0  0  0  0  0  0  0  0  0
   64.1628   33.2738   50.1125 H   0  0  0  0  0  0  0  0  0  0  0  0
   62.0112   32.1369   50.8508 H   0  0  0  0  0  0  0  0  0  0  0  0
  1  2  1  0
  2  3  1  0
  3  4  1  0
  4  5  3  0
  5  6  1  0
  6  7  1  0
  7  8  2  0
  8  9  1  0
  9 10  2  0
 10 11  1  0
 10 12  1  0
 12 13  2  0
 13 14  1  0
 14 15  2  0
 15 16  1  0
 16 17  2  0
 17 18  1  0
 18 19  2  0
 19 20  1  0
 20 21  2  0
 21 22  1  0
 22 23  1  0
 22 24  2  0
 17 25  1  0
 25 26  1  0
 26 27  2  0
 27 28  1  0
 28 29  2  0
 29 30  1  0
 30 31  2  0
 13  7  1  0
 31 15  1  0
 24 18  1  0
 31 26  1  0
  1 32  1  0
  1 33  1  0
  1 34  1  0
  2 35  1  0
  2 36  1  0
  3 37  1  0
  3 38  1  0
  6 39  1  0
  6 40  1  0
  8 41  1  0
  9 42  1  0
 11 43  1  0
 11 44  1  0
 11 45  1  0
 12 46  1  0
 19 47  1  0
 20 48  1  0
 21 49  1  0
 24 50  1  0
 25 51  1  0
 27 52  1  0
 28 53  1  0
 29 54  1  0
 30 55  1  0
M  CHG  1   7   1
M  END
>  <smiles>  (39) 
CCCC#CC[n+]1ccc(C)cc1N=c1nc(-c2cccc(F)c2)[nH]c2ccccc12

>  <score_type>  (39) 
oracle

>  <origin>  (39) 
adg

>  <m_score__min__energy>  (39) 
-6.5800000000000001

>  <m_primary>  (39) 
energy

$$$$
39:0
     RDKit          3D

 42 44  0  0  0  0  0  0  0  0999 V2000
   58.7500   32.5700   51.2620 C   0  0  0  0  0  0  0  0  0  0  0  0
   59.6000   33.8360   51.2510 C   0  0  0  0  0  0  0  0  0  0  0  0
   60.5610   33.7920   50.1500 N   0  0  0  0  0  0  0  0  0  0  0  0
   61.9080   33.8320   50.2520 C   0  0  0  0  0  0  0  0  0  0  0  0
   62.5280   33.8620   49.0480 N   0  0  0  0  0  0  0  0  0  0  0  0
   61.5070   33.8640   48.1670 C   0  0  0  0  0  0  0  0  0  0  0  0
   60.3120   33.8090   48.8300 C   0  0  0  0  0  0  0  0  0  0  0  0
   58.9760   33.8390   48.1490 C   0  0  0  0  0  0  0  0  0  0  0  0
   59.1510   33.7090   46.6910 N   0  0  0  0  0  0  0  0  0  0  0  0
   58.0630   33.1940   45.9010 C   0  0  0  0  0  0  0  0  0  0  0  0
   56.8920   33.6250   46.0960 O   0  0  0  0  0  0  0  0  0  0  0  0
   58.2940   32.1560   44.8360 C   0  0  0  0  0  0  0  0  0  0  0  0
   57.2640   31.0990   44.9020 N   0  0  0  0  0  0  0  0  0  0  0  0
   56.5680   30.9770   43.6040 C   0  0  0  0  0  0  0  0  0  0  0  0
   55.6930   29.7080   43.5620 C   0  0  0  0  0  0  0  0  0  0  0  0
   55.5090   29.1790   44.8590 O   0  0  0  0  0  0  0  0  0  0  0  0
   56.7500   28.7250   45.3730 C   0  0  0  0  0  0  0  0  0  0  0  0
   57.8540   29.8010   45.2780 C   0  0  0  0  0  0  0  0  0  0  0  0
   60.3170   34.3520   46.0490 C   0  0  0  0  0  0  0  0  0  0  0  0
   61.6280   33.8510   46.6780 C   0  0  0  0  0  0  0  0  0  0  0  0
   58.5498   32.2718   52.3017 H   0  0  0  0  0  0  0  0  0  0  0  0
   57.7979   32.7631   50.7461 H   0  0  0  0  0  0  0  0  0  0  0  0
   59.2892   31.7618   50.7461 H   0  0  0  0  0  0  0  0  0  0  0  0
   58.9456   34.7114   51.1268 H   0  0  0  0  0  0  0  0  0  0  0  0
   60.1482   33.9074   52.2020 H   0  0  0  0  0  0  0  0  0  0  0  0
   62.4447   33.8394   51.2122 H   0  0  0  0  0  0  0  0  0  0  0  0
   58.3602   33.0055   48.5179 H   0  0  0  0  0  0  0  0  0  0  0  0
   58.4794   34.7954   48.3695 H   0  0  0  0  0  0  0  0  0  0  0  0
   58.2536   32.6378   43.8479 H   0  0  0  0  0  0  0  0  0  0  0  0
   59.2807   31.6977   44.9982 H   0  0  0  0  0  0  0  0  0  0  0  0
   55.9287   31.8596   43.4545 H   0  0  0  0  0  0  0  0  0  0  0  0
   57.3231   30.9080   42.8071 H   0  0  0  0  0  0  0  0  0  0  0  0
   54.7119   29.9611   43.1338 H   0  0  0  0  0  0  0  0  0  0  0  0
   56.1992   28.9526   42.9430 H   0  0  0  0  0  0  0  0  0  0  0  0
   56.6154   28.4489   46.4292 H   0  0  0  0  0  0  0  0  0  0  0  0
   57.0685   27.8625   44.7691 H   0  0  0  0  0  0  0  0  0  0  0  0
   58.3536   29.8971   46.2533 H   0  0  0  0  0  0  0  0  0  0  0  0
   58.5843   29.5015   44.5119 H   0  0  0  0  0  0  0  0  0  0  0  0
   60.3164   34.1117   44.9756 H   0  0  0  0  0  0  0  0  0  0  0  0
   60.2469   35.4398   46.1963 H   0  0  0  0  0  0  0  0  0  0  0  0
   61.8293   32.8251   46.3361 H   0  0  0  0  0  0  0  0  0  0  0  0
   62.4544   34.5098   46.3731 H   0  0  0  0  0  0  0  0  0  0  0  0
  1  2  1  0
  2  3  1  0
  3  4  1  0
  4  5  2  0
  5  6  1  0
  6  7  2  0
  7  8  1  0
  8  9  1  0
  9 10  1  0
 10 11  2  0
 10 12  1  0
 12 13  1  0
 13 14  1  0
 14 15  1  0
 15 16  1  0
 16 17  1  0
 17 18  1  0
  9 19  1  0
 19 20  1  0
  7  3  1  0
 18 13  1  0
 20  6  1  0
  1 21  1  0
  1 22  1  0
  1 23  1  0
  2 24  1  0
  2 25  1  0
  4 26  1  0
  8 27  1  0
  8 28  1  0
 12 29  1  0
 12 30  1  0
 14 31  1  0
 14 32  1  0
 15 33  1  0
 15 34  1  0
 17 35  1  0
 17 36  1  0
 18 37  1  0
 18 38  1  0
 19 39  1  0
 19 40  1  0
 20 41  1  0
 20 42  1  0
M  END
>  <UniqueID>  (40) 
38

>  <SMILES>  (40) 
CCn1cnc2c1CN(C(=O)CN1CCOCC1)CC2

>  <Energy>  (40) 
81.19869453603111

>  <Genealogy>  (40) 
CCn1cnc2c1CN(C(=O)CN1CCOCC1)CC2 (3D coordinates assigned)
CCn1cnc2c1CN(C(=O)CN1CCOCC1)CC2 (nonaromatic ring conformer: 81.19869453603111 kcal/mol)

>  <smiles>  (40) 
CCn1cnc2c1CN(C(=O)CN1CCOCC1)CC2

>  <score_type>  (40) 
oracle

>  <origin>  (40) 
adg

>  <m_score__min__energy>  (40) 
-6.9299999999999997

>  <m_primary>  (40) 
energy

$$$$
40:0
     RDKit          3D

 66 69  0  0  0  0  0  0  0  0999 V2000
   62.4560   29.3590   51.9460 C   0  0  0  0  0  0  0  0  0  0  0  0
   63.0440   30.3660   51.1280 O   0  0  0  0  0  0  0  0  0  0  0  0
   64.4000   30.7310   51.1740 C   0  0  0  0  0  0  0  0  0  0  0  0
   65.3250   30.0630   52.0030 C   0  0  0  0  0  0  0  0  0  0  0  0
   66.6710   30.4450   52.0130 C   0  0  0  0  0  0  0  0  0  0  0  0
   67.1120   31.4860   51.1950 C   0  0  0  0  0  0  0  0  0  0  0  0
   66.2070   32.1520   50.3680 C   0  0  0  0  0  0  0  0  0  0  0  0
   64.8510   31.7880   50.3590 C   0  0  0  0  0  0  0  0  0  0  0  0
   63.9270   32.5090   49.5280 N   0  0  0  0  0  0  0  0  0  0  0  0
   63.2500   33.6810   50.1010 C   0  0  0  0  0  0  0  0  0  0  0  0
   62.6480   34.5740   49.0110 C   0  0  0  0  0  0  0  0  0  0  0  0
   61.9370   33.7560   48.0270 N   0  0  0  0  0  0  0  0  0  0  0  0
   60.7170   34.2350   47.4400 C   0  0  0  0  0  0  0  0  0  0  0  0
   60.6590   34.4230   46.1930 O   0  0  0  0  0  0  0  0  0  0  0  0
   59.4890   34.4550   48.2860 C   0  0  0  0  0  0  0  0  0  0  0  0
   58.9050   33.1570   48.8850 C   0  0  0  0  0  0  0  0  0  0  0  0
   58.9340   31.9620   47.9250 C   0  0  0  0  0  0  0  0  0  0  0  0
   59.7210   30.8230   48.2330 C   0  0  0  0  0  0  0  0  0  0  0  0
   60.4700   30.6960   49.5410 C   0  0  0  0  0  0  0  0  0  0  0  0
   59.8680   29.8300   47.3160 N   0  0  0  0  0  0  0  0  0  0  0  0
   59.1620   29.7830   46.1440 C   0  0  0  0  0  0  0  0  0  0  0  0
   58.2280   30.8050   45.8660 C   0  0  0  0  0  0  0  0  0  0  0  0
   58.2030   31.9690   46.6980 C   0  0  0  0  0  0  0  0  0  0  0  0
   57.4150   33.1980   46.2720 C   0  0  0  0  0  0  0  0  0  0  0  0
   57.3500   30.6010   44.7710 C   0  0  0  0  0  0  0  0  0  0  0  0
   56.3530   31.3590   44.6020 O   0  0  0  0  0  0  0  0  0  0  0  0
   57.5330   29.5470   43.9190 N   0  0  0  0  0  0  0  0  0  0  0  0
   56.6160   29.3520   42.7780 C   0  0  0  0  0  0  0  0  0  0  0  0
   58.5060   28.6190   44.1680 C   0  0  0  0  0  0  0  0  0  0  0  0
   58.6250   27.6250   43.3940 O   0  0  0  0  0  0  0  0  0  0  0  0
   59.3330   28.7410   45.2580 N   0  0  0  0  0  0  0  0  0  0  0  0
   60.3860   27.7300   45.4840 C   0  0  0  0  0  0  0  0  0  0  0  0
   62.5610   32.5490   47.4700 C   0  0  0  0  0  0  0  0  0  0  0  0
   63.9410   32.2820   48.0790 C   0  0  0  0  0  0  0  0  0  0  0  0
   62.6050   29.6141   53.0056 H   0  0  0  0  0  0  0  0  0  0  0  0
   61.3789   29.2955   51.7321 H   0  0  0  0  0  0  0  0  0  0  0  0
   62.9301   28.3897   51.7321 H   0  0  0  0  0  0  0  0  0  0  0  0
   64.9863   29.2369   52.6455 H   0  0  0  0  0  0  0  0  0  0  0  0
   67.3840   29.9229   52.6680 H   0  0  0  0  0  0  0  0  0  0  0  0
   68.1717   31.7811   51.2022 H   0  0  0  0  0  0  0  0  0  0  0  0
   66.5581   32.9676   49.7188 H   0  0  0  0  0  0  0  0  0  0  0  0
   62.4442   33.3378   50.7665 H   0  0  0  0  0  0  0  0  0  0  0  0
   63.9942   34.2706   50.6565 H   0  0  0  0  0  0  0  0  0  0  0  0
   61.9447   35.2845   49.4699 H   0  0  0  0  0  0  0  0  0  0  0  0
   63.4574   35.1220   48.5065 H   0  0  0  0  0  0  0  0  0  0  0  0
   59.7538   35.1302   49.1130 H   0  0  0  0  0  0  0  0  0  0  0  0
   58.7174   34.8796   47.6269 H   0  0  0  0  0  0  0  0  0  0  0  0
   59.4879   32.8960   49.7806 H   0  0  0  0  0  0  0  0  0  0  0  0
   57.8478   33.3579   49.1129 H   0  0  0  0  0  0  0  0  0  0  0  0
   59.7674   30.8151   50.3789 H   0  0  0  0  0  0  0  0  0  0  0  0
   60.9435   29.7047   49.5976 H   0  0  0  0  0  0  0  0  0  0  0  0
   61.2438   31.4758   49.5976 H   0  0  0  0  0  0  0  0  0  0  0  0
   60.5200   29.0580   47.5650 H   0  0  0  0  0  0  0  0  0  0  0  0
   57.0682   33.7389   47.1649 H   0  0  0  0  0  0  0  0  0  0  0  0
   58.0595   33.8568   45.6715 H   0  0  0  0  0  0  0  0  0  0  0  0
   56.5473   32.8873   45.6715 H   0  0  0  0  0  0  0  0  0  0  0  0
   55.6045   29.1369   43.1531 H   0  0  0  0  0  0  0  0  0  0  0  0
   56.5934   30.2654   42.1655 H   0  0  0  0  0  0  0  0  0  0  0  0
   56.9670   28.5084   42.1655 H   0  0  0  0  0  0  0  0  0  0  0  0
   60.5329   27.5889   46.5650 H   0  0  0  0  0  0  0  0  0  0  0  0
   60.0826   26.7762   45.0277 H   0  0  0  0  0  0  0  0  0  0  0  0
   61.3266   28.0720   45.0277 H   0  0  0  0  0  0  0  0  0  0  0  0
   61.9099   31.6863   47.6743 H   0  0  0  0  0  0  0  0  0  0  0  0
   62.6913   32.7025   46.3886 H   0  0  0  0  0  0  0  0  0  0  0  0
   64.2262   31.2383   47.8808 H   0  0  0  0  0  0  0  0  0  0  0  0
   64.6659   32.9720   47.6224 H   0  0  0  0  0  0  0  0  0  0  0  0
  1  2  1  0
  2  3  1  0
  3  4  2  0
  4  5  1  0
  5  6  2  0
  6  7  1  0
  7  8  2  0
  8  9  1  0
  9 10  1  0
 10 11  1  0
 11 12  1  0
 12 13  1  0
 13 14  2  0
 13 15  1  0
 15 16  1  0
 16 17  1  0
 17 18  2  0
 18 19  1  0
 18 20  1  0
 20 21  2  0
 21 22  1  0
 22 23  2  0
 23 24  1  0
 22 25  1  0
 25 26  2  0
 25 27  1  0
 27 28  1  0
 27 29  1  0
 29 30  2  0
 29 31  1  0
 31 32  1  0
 12 33  1  0
 33 34  1  0
  8  3  1  0
 34  9  1  0
 23 17  1  0
 31 21  1  0
  1 35  1  0
  1 36  1  0
  1 37  1  0
  4 38  1  0
  5 39  1  0
  6 40  1  0
  7 41  1  0
 10 42  1  0
 10 43  1  0
 11 44  1  0
 11 45  1  0
 15 46  1  0
 15 47  1  0
 16 48  1  0
 16 49  1  0
 19 50  1  0
 19 51  1  0
 19 52  1  0
 20 53  1  0
 24 54  1  0
 24 55  1  0
 24 56  1  0
 28 57  1  0
 28 58  1  0
 28 59  1  0
 32 60  1  0
 32 61  1  0
 32 62  1  0
 33 63  1  0
 33 64  1  0
 34 65  1  0
 34 66  1  0
M  CHG  1  20   1
M  END
>  <UniqueID>  (41) 
39

>  <SMILES>  (41) 
COc1ccccc1N1CCN(C(=O)CCc2c(C)[nH+]c3c(c2C)c(=O)n(C)c(=O)n3C)CC1

>  <Energy>  (41) 
100.34678383111356

>  <Genealogy>  (41) 
COc1ccccc1N1CCN(C(=O)CCc2c(C)[nH+]c3c(c2C)c(=O)n(C)c(=O)n3C)CC1 (protonated)
COc1ccccc1N1CCN(C(=O)CCc2c(C)[nH+]c3c(c2C)c(=O)n(C)c(=O)n3C)CC1 (3D coordinates assigned)
COc1ccccc1N1CCN(C(=O)CCc2c(C)[nH+]c3c(c2C)c(=O)n(C)c(=O)n3C)CC1 (nonaromatic ring conformer: 100.34678383111356 kcal/mol)

>  <smiles>  (41) 
COc1ccccc1N1CCN(C(=O)CCc2c(C)nc3c(c2C)c(=O)n(C)c(=O)n3C)CC1

>  <score_type>  (41) 
oracle

>  <origin>  (41) 
adg

>  <m_score__min__energy>  (41) 
-7.4000000000000004

>  <m_primary>  (41) 
energy

$$$$
41:0
     RDKit          3D

 53 53  0  0  0  0  0  0  0  0999 V2000
   58.4970   32.5030   47.8880 C   0  0  0  0  0  0  0  0  0  0  0  0
   59.6730   32.6710   46.9340 C   0  0  0  0  0  0  0  0  0  0  0  0
   59.1870   33.1480   45.6210 N   0  0  0  0  0  0  0  0  0  0  0  0
   59.5620   34.5560   45.3590 C   0  0  0  0  0  0  0  0  0  0  0  0
   59.6520   35.3670   46.6520 C   0  0  0  0  0  0  0  0  0  0  0  0
   57.7720   32.7940   45.3360 C   0  0  0  0  0  0  0  0  0  0  0  0
   57.4410   32.4410   43.8680 C   0  0  0  0  0  0  0  0  0  0  0  0
   57.9820   31.0740   43.4210 C   0  0  0  0  0  0  0  0  0  0  0  0
   56.8500   30.0910   43.0560 C   0  0  0  0  0  0  0  0  0  0  0  0
   55.7670   29.9830   44.1420 C   0  0  0  0  0  0  0  0  0  0  0  0
   55.9160   28.7730   44.9530 N   0  0  0  0  0  0  0  0  0  0  0  0
   57.0650   28.4660   45.7770 C   0  0  0  0  0  0  0  0  0  0  0  0
   58.0180   29.4620   46.0680 C   0  0  0  0  0  0  0  0  0  0  0  0
   59.1360   29.1830   46.8510 C   0  0  0  0  0  0  0  0  0  0  0  0
   59.3430   27.8950   47.3640 C   0  0  0  0  0  0  0  0  0  0  0  0
   60.5010   27.6020   48.1670 N   0  0  0  0  0  0  0  0  0  0  0  0
   60.9480   28.4450   48.9720 O   0  0  0  0  0  0  0  0  0  0  0  0
   61.1360   26.3850   48.0640 O   0  0  0  0  0  0  0  0  0  0  0  0
   58.4040   26.8930   47.0780 C   0  0  0  0  0  0  0  0  0  0  0  0
   57.2660   27.1600   46.2970 C   0  0  0  0  0  0  0  0  0  0  0  0
   56.1340   25.8240   45.9960 S   0  0  0  0  0  0  0  0  0  0  0  0
   56.2050   24.8320   47.1250 O   0  0  0  0  0  0  0  0  0  0  0  0
   54.7260   26.3430   45.9340 O   0  0  0  0  0  0  0  0  0  0  0  0
   56.5210   25.0170   44.5050 N   0  0  0  0  0  0  0  0  0  0  0  0
   57.7840   24.2980   44.6470 C   0  0  0  0  0  0  0  0  0  0  0  0
   58.8568   32.5544   48.9262 H   0  0  0  0  0  0  0  0  0  0  0  0
   57.7655   33.3058   47.7133 H   0  0  0  0  0  0  0  0  0  0  0  0
   58.0196   31.5275   47.7133 H   0  0  0  0  0  0  0  0  0  0  0  0
   60.3796   33.4040   47.3504 H   0  0  0  0  0  0  0  0  0  0  0  0
   60.1781   31.7024   46.8050 H   0  0  0  0  0  0  0  0  0  0  0  0
   60.5402   34.5768   44.8563 H   0  0  0  0  0  0  0  0  0  0  0  0
   58.7836   35.0060   44.7253 H   0  0  0  0  0  0  0  0  0  0  0  0
   59.5768   34.6898   47.5156 H   0  0  0  0  0  0  0  0  0  0  0  0
   60.6146   35.8983   46.6853 H   0  0  0  0  0  0  0  0  0  0  0  0
   58.8293   36.0964   46.6853 H   0  0  0  0  0  0  0  0  0  0  0  0
   57.5115   31.9246   45.9575 H   0  0  0  0  0  0  0  0  0  0  0  0
   57.1902   33.7002   45.5600 H   0  0  0  0  0  0  0  0  0  0  0  0
   56.3473   32.4362   43.7507 H   0  0  0  0  0  0  0  0  0  0  0  0
   57.9290   33.1997   43.2385 H   0  0  0  0  0  0  0  0  0  0  0  0
   58.6242   31.2180   42.5396 H   0  0  0  0  0  0  0  0  0  0  0  0
   58.5464   30.6428   44.2609 H   0  0  0  0  0  0  0  0  0  0  0  0
   56.3771   30.4332   42.1237 H   0  0  0  0  0  0  0  0  0  0  0  0
   57.3045   29.0951   42.9479 H   0  0  0  0  0  0  0  0  0  0  0  0
   55.8365   30.8615   44.8003 H   0  0  0  0  0  0  0  0  0  0  0  0
   54.7892   29.9352   43.6404 H   0  0  0  0  0  0  0  0  0  0  0  0
   55.1450   28.0780   44.8650 H   0  0  0  0  0  0  0  0  0  0  0  0
   57.8769   30.4777   45.6700 H   0  0  0  0  0  0  0  0  0  0  0  0
   59.8623   29.9800   47.0685 H   0  0  0  0  0  0  0  0  0  0  0  0
   58.5612   25.8783   47.4726 H   0  0  0  0  0  0  0  0  0  0  0  0
   56.6540   25.7500   43.7720 H   0  0  0  0  0  0  0  0  0  0  0  0
   58.0135   24.1674   45.7148 H   0  0  0  0  0  0  0  0  0  0  0  0
   57.7006   23.3120   44.1666 H   0  0  0  0  0  0  0  0  0  0  0  0
   58.5893   24.8730   44.1666 H   0  0  0  0  0  0  0  0  0  0  0  0
  1  2  1  0
  2  3  1  0
  3  4  1  0
  4  5  1  0
  3  6  1  0
  6  7  1  0
  7  8  1  0
  8  9  1  0
  9 10  1  0
 10 11  1  0
 11 12  1  0
 12 13  2  0
 13 14  1  0
 14 15  2  0
 15 16  1  0
 16 17  2  0
 16 18  1  0
 15 19  1  0
 19 20  2  0
 20 21  1  0
 21 22  2  0
 21 23  2  0
 21 24  1  0
 24 25  1  0
 20 12  1  0
  1 26  1  0
  1 27  1  0
  1 28  1  0
  2 29  1  0
  2 30  1  0
  4 31  1  0
  4 32  1  0
  5 33  1  0
  5 34  1  0
  5 35  1  0
  6 36  1  0
  6 37  1  0
  7 38  1  0
  7 39  1  0
  8 40  1  0
  8 41  1  0
  9 42  1  0
  9 43  1  0
 10 44  1  0
 10 45  1  0
 11 46  1  0
 13 47  1  0
 14 48  1  0
 19 49  1  0
 24 50  1  0
 25 51  1  0
 25 52  1  0
 25 53  1  0
M  CHG  2  16   1  18  -1
M  END
>  <UniqueID>  (42) 
40

>  <SMILES>  (42) 
CCN(CC)CCCCCNc1ccc([N+](=O)[O-])cc1S(=O)(=O)NC

>  <Energy>  (42) 
49.6236014230425

>  <Genealogy>  (42) 
CCN(CC)CCCCCNc1ccc([N+](=O)[O-])cc1S(=O)(=O)NC (3D coordinates assigned)
CCN(CC)CCCCCNc1ccc([N+](=O)[O-])cc1S(=O)(=O)NC (optimized conformer: 49.6236014230425 kcal/mol)

>  <smiles>  (42) 
CCN(CC)CCCCCNc1ccc([N+](=O)[O-])cc1S(=O)(=O)NC

>  <score_type>  (42) 
oracle

>  <origin>  (42) 
adg

>  <m_score__min__energy>  (42) 
-8.2200000000000006

>  <m_primary>  (42) 
energy

$$$$
42:0
     RDKit          3D

 41 43  0  0  0  0  0  0  0  0999 V2000
   56.6210   23.4980   43.3250 C   0  0  0  0  0  0  0  0  0  0  0  0
   56.6500   24.2300   44.5470 O   0  0  0  0  0  0  0  0  0  0  0  0
   57.3440   25.4340   44.7330 C   0  0  0  0  0  0  0  0  0  0  0  0
   57.6240   25.9560   46.0100 C   0  0  0  0  0  0  0  0  0  0  0  0
   58.3190   27.1610   46.1420 C   0  0  0  0  0  0  0  0  0  0  0  0
   58.7470   27.8620   45.0040 C   0  0  0  0  0  0  0  0  0  0  0  0
   59.4850   29.1710   45.1530 C   0  0  0  0  0  0  0  0  0  0  0  0
   58.8210   30.0630   46.1270 N   0  0  2  0  0  0  0  0  0  0  0  0
   57.8280   30.9060   45.5030 C   0  0  0  0  0  0  0  0  0  0  0  0
   56.8230   30.4640   44.9670 O   0  0  0  0  0  0  0  0  0  0  0  0
   58.0410   32.3540   45.7710 C   0  0  2  0  0  0  0  0  0  0  0  0
   57.6890   33.3860   44.7500 C   0  0  0  0  0  0  0  0  0  0  0  0
   58.2420   34.6100   44.8790 C   0  0  0  0  0  0  0  0  0  0  0  0
   59.3470   34.9210   45.9000 C   0  0  0  0  0  0  0  0  0  0  0  0
   59.8270   33.7110   46.7800 C   0  0  2  0  0  0  0  0  0  0  0  0
   61.3160   33.8520   47.1230 C   0  0  0  0  0  0  0  0  0  0  0  0
   59.5340   32.4070   46.0190 C   0  0  1  0  0  0  0  0  0  0  0  0
   59.7540   31.0520   46.6090 C   0  0  0  0  0  0  0  0  0  0  0  0
   60.6710   30.7770   47.3690 O   0  0  0  0  0  0  0  0  0  0  0  0
   58.4690   27.3410   43.7320 C   0  0  0  0  0  0  0  0  0  0  0  0
   57.7730   26.1350   43.6000 C   0  0  0  0  0  0  0  0  0  0  0  0
   56.5783   22.4208   43.5438 H   0  0  0  0  0  0  0  0  0  0  0  0
   55.7337   23.7896   42.7439 H   0  0  0  0  0  0  0  0  0  0  0  0
   57.5286   23.7185   42.7439 H   0  0  0  0  0  0  0  0  0  0  0  0
   57.2942   25.4129   46.9079 H   0  0  0  0  0  0  0  0  0  0  0  0
   58.5319   27.5625   47.1437 H   0  0  0  0  0  0  0  0  0  0  0  0
   60.5093   28.9659   45.4975 H   0  0  0  0  0  0  0  0  0  0  0  0
   59.4925   29.6747   44.1751 H   0  0  0  0  0  0  0  0  0  0  0  0
   58.4030   29.5400   46.9320 H   0  0  0  0  0  0  0  0  0  0  0  0
   57.3446   32.6377   46.5738 H   0  0  0  0  0  0  0  0  0  0  0  0
   57.0027   33.1561   43.9217 H   0  0  0  0  0  0  0  0  0  0  0  0
   57.8864   35.4199   44.2251 H   0  0  0  0  0  0  0  0  0  0  0  0
   58.9705   35.7020   46.5770 H   0  0  0  0  0  0  0  0  0  0  0  0
   60.2229   35.2252   45.3081 H   0  0  0  0  0  0  0  0  0  0  0  0
   59.2819   33.6948   47.7353 H   0  0  0  0  0  0  0  0  0  0  0  0
   61.4410   33.8638   48.2158 H   0  0  0  0  0  0  0  0  0  0  0  0
   61.8719   33.0025   46.6995 H   0  0  0  0  0  0  0  0  0  0  0  0
   61.7025   34.7908   46.6995 H   0  0  0  0  0  0  0  0  0  0  0  0
   60.2632   32.5128   45.2023 H   0  0  0  0  0  0  0  0  0  0  0  0
   58.7998   27.8833   42.8340 H   0  0  0  0  0  0  0  0  0  0  0  0
   57.5611   25.7342   42.5978 H   0  0  0  0  0  0  0  0  0  0  0  0
  1  2  1  0
  2  3  1  0
  3  4  2  0
  4  5  1  0
  5  6  2  0
  6  7  1  0
  7  8  1  0
  8  9  1  0
  9 10  2  0
  9 11  1  0
 11 12  1  0
 12 13  2  0
 13 14  1  0
 14 15  1  0
 15 16  1  0
 15 17  1  0
 17 18  1  0
 18 19  2  0
  6 20  1  0
 20 21  2  0
 21  3  1  0
 18  8  1  0
 17 11  1  0
  1 22  1  0
  1 23  1  0
  1 24  1  0
  4 25  1  0
  5 26  1  0
  7 27  1  0
  7 28  1  0
  8 29  1  1
 11 30  1  1
 12 31  1  0
 13 32  1  0
 14 33  1  0
 14 34  1  0
 15 35  1  1
 16 36  1  0
 16 37  1  0
 16 38  1  0
 17 39  1  6
 20 40  1  0
 21 41  1  0
M  CHG  1   8   1
M  END
>  <UniqueID>  (43) 
41

>  <SMILES>  (43) 
COc1ccc(C[N@H+]2C(=O)C3C(C)CC=C[C@H]3C2=O)cc1

>  <Energy>  (43) 
65.67238467996458

>  <Genealogy>  (43) 
COc1ccc(C[NH+]2C(=O)C3C=CCC(C)C3C2=O)cc1 (protonated)
COc1ccc(C[N@H+]2C(=O)C3C(C)CC=C[C@H]3C2=O)cc1 (chirality)
COc1ccc(C[N@H+]2C(=O)C3C(C)CC=C[C@H]3C2=O)cc1 (3D coordinates assigned)
COc1ccc(C[N@H+]2C(=O)C3C(C)CC=C[C@H]3C2=O)cc1 (nonaromatic ring conformer: 65.67238467996458 kcal/mol)

>  <smiles>  (43) 
COc1ccc(CN2C(=O)C3C=CCC(C)C3C2=O)cc1

>  <score_type>  (43) 
oracle

>  <origin>  (43) 
adg

>  <m_score__min__energy>  (43) 
-6.1299999999999999

>  <m_primary>  (43) 
energy

$$$$
43:0
     RDKit          3D

 45 48  0  0  0  0  0  0  0  0999 V2000
   60.7190   28.6900   50.0060 O   0  0  0  0  0  0  0  0  0  0  0  0
   60.6870   28.9750   48.7780 C   0  0  0  0  0  0  0  0  0  0  0  0
   60.0510   28.0330   47.8140 C   0  0  0  0  0  0  0  0  0  0  0  0
   60.7100   28.3720   46.1460 S   0  0  0  0  0  0  0  0  0  0  0  0
   59.5530   29.7090   45.7810 C   0  0  0  0  0  0  0  0  0  0  0  0
   59.9580   30.9880   46.0010 N   0  0  0  0  0  0  0  0  0  0  0  0
   59.1450   32.0440   45.7330 C   0  0  0  0  0  0  0  0  0  0  0  0
   59.5830   33.3580   45.9660 C   0  0  0  0  0  0  0  0  0  0  0  0
   58.7430   34.4390   45.6900 C   0  0  0  0  0  0  0  0  0  0  0  0
   57.4610   34.2190   45.1810 C   0  0  0  0  0  0  0  0  0  0  0  0
   57.0140   32.9160   44.9450 C   0  0  0  0  0  0  0  0  0  0  0  0
   57.8530   31.8190   45.2200 C   0  0  0  0  0  0  0  0  0  0  0  0
   57.4460   30.4930   44.9990 C   0  0  0  0  0  0  0  0  0  0  0  0
   56.2890   30.2590   44.5480 O   0  0  0  0  0  0  0  0  0  0  0  0
   58.2980   29.4550   45.2790 N   0  0  0  0  0  0  0  0  0  0  0  0
   57.8750   28.1010   45.0220 C   0  0  0  0  0  0  0  0  0  0  0  0
   57.1480   27.3860   45.9880 C   0  0  0  0  0  0  0  0  0  0  0  0
   56.7500   26.0690   45.7370 C   0  0  0  0  0  0  0  0  0  0  0  0
   57.0610   25.4620   44.5160 C   0  0  0  0  0  0  0  0  0  0  0  0
   56.5670   23.8090   44.2060 Cl  0  0  0  0  0  0  0  0  0  0  0  0
   57.7680   26.1750   43.5430 C   0  0  0  0  0  0  0  0  0  0  0  0
   58.1790   27.4870   43.7950 C   0  0  0  0  0  0  0  0  0  0  0  0
   61.2610   30.1960   48.2960 N   0  0  0  0  0  0  0  0  0  0  0  0
   60.8510   31.5210   48.6590 C   0  0  0  0  0  0  0  0  0  0  0  0
   59.6480   31.7510   49.3520 C   0  0  0  0  0  0  0  0  0  0  0  0
   59.2950   33.0460   49.7410 C   0  0  0  0  0  0  0  0  0  0  0  0
   60.1410   34.1190   49.4550 C   0  0  0  0  0  0  0  0  0  0  0  0
   61.3490   33.8970   48.7880 C   0  0  0  0  0  0  0  0  0  0  0  0
   61.7090   32.6030   48.3960 C   0  0  0  0  0  0  0  0  0  0  0  0
   63.3770   32.3380   47.4920 Br  0  0  0  0  0  0  0  0  0  0  0  0
   60.2835   26.9967   48.1006 H   0  0  0  0  0  0  0  0  0  0  0  0
   58.9594   28.1688   47.8211 H   0  0  0  0  0  0  0  0  0  0  0  0
   60.9190   31.1550   46.3800 H   0  0  0  0  0  0  0  0  0  0  0  0
   60.5915   33.5363   46.3674 H   0  0  0  0  0  0  0  0  0  0  0  0
   59.0917   35.4659   45.8738 H   0  0  0  0  0  0  0  0  0  0  0  0
   56.8019   35.0729   44.9655 H   0  0  0  0  0  0  0  0  0  0  0  0
   56.0040   32.7469   44.5433 H   0  0  0  0  0  0  0  0  0  0  0  0
   56.8909   27.8635   46.9450 H   0  0  0  0  0  0  0  0  0  0  0  0
   56.1912   25.5094   46.5015 H   0  0  0  0  0  0  0  0  0  0  0  0
   58.0012   25.7026   42.5774 H   0  0  0  0  0  0  0  0  0  0  0  0
   58.7426   28.0411   43.0299 H   0  0  0  0  0  0  0  0  0  0  0  0
   58.9825   30.9077   49.5886 H   0  0  0  0  0  0  0  0  0  0  0  0
   58.3485   33.2202   50.2737 H   0  0  0  0  0  0  0  0  0  0  0  0
   59.8570   35.1387   49.7544 H   0  0  0  0  0  0  0  0  0  0  0  0
   62.0187   34.7421   48.5706 H   0  0  0  0  0  0  0  0  0  0  0  0
  1  2  2  0
  2  3  1  0
  3  4  1  0
  4  5  1  0
  5  6  2  0
  6  7  1  0
  7  8  2  0
  8  9  1  0
  9 10  2  0
 10 11  1  0
 11 12  2  0
 12 13  1  0
 13 14  2  0
 13 15  1  0
 15 16  1  0
 16 17  2  0
 17 18  1  0
 18 19  2  0
 19 20  1  0
 19 21  1  0
 21 22  2  0
  2 23  1  0
 23 24  1  0
 24 25  2  0
 25 26  1  0
 26 27  2  0
 27 28  1  0
 28 29  2  0
 29 30  1  0
 15  5  1  0
 22 16  1  0
 29 24  1  0
 12  7  1  0
  3 31  1  0
  3 32  1  0
  6 33  1  0
  8 34  1  0
  9 35  1  0
 10 36  1  0
 11 37  1  0
 17 38  1  0
 18 39  1  0
 21 40  1  0
 22 41  1  0
 25 42  1  0
 26 43  1  0
 27 44  1  0
 28 45  1  0
M  CHG  2   6   1  23  -1
M  END
>  <UniqueID>  (44) 
42

>  <SMILES>  (44) 
O=C(CSc1[nH+]c2ccccc2c(=O)n1-c1ccc(Cl)cc1)[N-]c1ccccc1Br

>  <Energy>  (44) 
59.38627429907236

>  <Genealogy>  (44) 
O=C(CSc1[nH+]c2ccccc2c(=O)n1-c1ccc(Cl)cc1)[N-]c1ccccc1Br (protonated)
O=C(CSc1[nH+]c2ccccc2c(=O)n1-c1ccc(Cl)cc1)[N-]c1ccccc1Br (3D coordinates assigned)
O=C(CSc1[nH+]c2ccccc2c(=O)n1-c1ccc(Cl)cc1)[N-]c1ccccc1Br (optimized conformer: 59.38627429907236 kcal/mol)

>  <smiles>  (44) 
O=C(CSc1nc2ccccc2c(=O)n1-c1ccc(Cl)cc1)Nc1ccccc1Br

>  <score_type>  (44) 
oracle

>  <origin>  (44) 
adg

>  <m_score__min__energy>  (44) 
-9.1400000000000006

>  <m_primary>  (44) 
energy

$$$$
44:0
     RDKit          3D

 51 54  0  0  0  0  0  0  0  0999 V2000
   62.0550   30.7810   49.4780 C   0  0  0  0  0  0  0  0  0  0  0  0
   62.7490   31.6060   48.3970 C   0  0  0  0  0  0  0  0  0  0  0  0
   63.1910   32.9220   48.9130 N   0  0  0  0  0  0  0  0  0  0  0  0
   63.5990   33.8350   47.8190 C   0  0  0  0  0  0  0  0  0  0  0  0
   63.0050   33.4670   46.4510 C   0  0  0  0  0  0  0  0  0  0  0  0
   62.2170   33.5470   49.8440 C   0  0  0  0  0  0  0  0  0  0  0  0
   61.0770   34.2260   49.0690 C   0  0  0  0  0  0  0  0  0  0  0  0
   60.0510   33.2640   48.6490 N   0  0  0  0  0  0  0  0  0  0  0  0
   59.4230   33.2440   47.3540 C   0  0  0  0  0  0  0  0  0  0  0  0
   59.4300   34.4220   46.5980 C   0  0  0  0  0  0  0  0  0  0  0  0
   58.8040   34.4720   45.3590 C   0  0  0  0  0  0  0  0  0  0  0  0
   58.1590   33.3450   44.8550 C   0  0  0  0  0  0  0  0  0  0  0  0
   57.5450   33.4350   43.6470 F   0  0  0  0  0  0  0  0  0  0  0  0
   58.1640   32.1340   45.5750 C   0  0  0  0  0  0  0  0  0  0  0  0
   58.8350   32.0710   46.8210 C   0  0  0  0  0  0  0  0  0  0  0  0
   58.9190   30.9020   47.5840 O   0  0  0  0  0  0  0  0  0  0  0  0
   59.2620   29.6260   47.1320 C   0  0  0  0  0  0  0  0  0  0  0  0
   60.0240   28.8020   47.9790 C   0  0  0  0  0  0  0  0  0  0  0  0
   60.3770   27.4990   47.5860 C   0  0  0  0  0  0  0  0  0  0  0  0
   59.9460   26.9960   46.3500 C   0  0  0  0  0  0  0  0  0  0  0  0
   59.1790   27.8220   45.5280 C   0  0  0  0  0  0  0  0  0  0  0  0
   58.8640   29.1050   45.8950 C   0  0  0  0  0  0  0  0  0  0  0  0
   57.9580   29.6790   44.9770 N   0  0  0  0  0  0  0  0  0  0  0  0
   57.6400   28.6970   43.9410 C   0  0  0  0  0  0  0  0  0  0  0  0
   58.5030   27.4540   44.2550 C   0  0  0  0  0  0  0  0  0  0  0  0
   57.4040   30.9940   45.0260 C   0  0  0  0  0  0  0  0  0  0  0  0
   56.2780   31.2030   44.4960 O   0  0  0  0  0  0  0  0  0  0  0  0
   62.3610   31.1448   50.4700 H   0  0  0  0  0  0  0  0  0  0  0  0
   60.9647   30.8801   49.3715 H   0  0  0  0  0  0  0  0  0  0  0  0
   62.3393   29.7237   49.3715 H   0  0  0  0  0  0  0  0  0  0  0  0
   63.6272   31.0519   48.0342 H   0  0  0  0  0  0  0  0  0  0  0  0
   62.0297   31.7802   47.5832 H   0  0  0  0  0  0  0  0  0  0  0  0
   63.2719   34.8531   48.0767 H   0  0  0  0  0  0  0  0  0  0  0  0
   64.6921   33.7552   47.7258 H   0  0  0  0  0  0  0  0  0  0  0  0
   62.0781   32.8928   46.5962 H   0  0  0  0  0  0  0  0  0  0  0  0
   62.7828   34.3859   45.8886 H   0  0  0  0  0  0  0  0  0  0  0  0
   63.7288   32.8589   45.8886 H   0  0  0  0  0  0  0  0  0  0  0  0
   61.7950   32.7703   50.4987 H   0  0  0  0  0  0  0  0  0  0  0  0
   62.7397   34.3092   50.4404 H   0  0  0  0  0  0  0  0  0  0  0  0
   60.6103   34.9842   49.7150 H   0  0  0  0  0  0  0  0  0  0  0  0
   61.5051   34.6839   48.1651 H   0  0  0  0  0  0  0  0  0  0  0  0
   59.9150   32.4280   49.2640 H   0  0  0  0  0  0  0  0  0  0  0  0
   59.9362   35.3170   46.9889 H   0  0  0  0  0  0  0  0  0  0  0  0
   58.8177   35.4038   44.7745 H   0  0  0  0  0  0  0  0  0  0  0  0
   60.3475   29.1809   48.9597 H   0  0  0  0  0  0  0  0  0  0  0  0
   60.9923   26.8731   48.2491 H   0  0  0  0  0  0  0  0  0  0  0  0
   60.2065   25.9744   46.0361 H   0  0  0  0  0  0  0  0  0  0  0  0
   56.5712   28.4388   43.9739 H   0  0  0  0  0  0  0  0  0  0  0  0
   57.8491   29.0897   42.9350 H   0  0  0  0  0  0  0  0  0  0  0  0
   57.8748   26.5606   44.3860 H   0  0  0  0  0  0  0  0  0  0  0  0
   59.2083   27.2038   43.4488 H   0  0  0  0  0  0  0  0  0  0  0  0
  1  2  1  0
  2  3  1  0
  3  4  1  0
  4  5  1  0
  3  6  1  0
  6  7  1  0
  7  8  1  0
  8  9  1  0
  9 10  2  0
 10 11  1  0
 11 12  2  0
 12 13  1  0
 12 14  1  0
 14 15  2  0
 15 16  1  0
 16 17  1  0
 17 18  2  0
 18 19  1  0
 19 20  2  0
 20 21  1  0
 21 22  2  0
 22 23  1  0
 23 24  1  0
 24 25  1  0
 23 26  1  0
 26 27  2  0
 15  9  1  0
 22 17  1  0
 26 14  1  0
 25 21  1  0
  1 28  1  0
  1 29  1  0
  1 30  1  0
  2 31  1  0
  2 32  1  0
  4 33  1  0
  4 34  1  0
  5 35  1  0
  5 36  1  0
  5 37  1  0
  6 38  1  0
  6 39  1  0
  7 40  1  0
  7 41  1  0
  8 42  1  0
 10 43  1  0
 11 44  1  0
 18 45  1  0
 19 46  1  0
 20 47  1  0
 24 48  1  0
 24 49  1  0
 25 50  1  0
 25 51  1  0
M  END
>  <UniqueID>  (45) 
43

>  <SMILES>  (45) 
CCN(CC)CCNc1ccc(F)c2c1Oc1cccc3c1N(CC3)C2=O

>  <Energy>  (45) 
89.97600843178286

>  <Genealogy>  (45) 
CCN(CC)CCNc1ccc(F)c2c1Oc1cccc3c1N(CC3)C2=O (3D coordinates assigned)
CCN(CC)CCNc1ccc(F)c2c1Oc1cccc3c1N(CC3)C2=O (nonaromatic ring conformer: 89.97600843178286 kcal/mol)

>  <smiles>  (45) 
CCN(CC)CCNc1ccc(F)c2c1Oc1cccc3c1N(CC3)C2=O

>  <score_type>  (45) 
oracle

>  <origin>  (45) 
adg

>  <m_score__min__energy>  (45) 
-7.9800000000000004

>  <m_primary>  (45) 
energy

$$$$
45:0
     RDKit          3D

 71 75  0  0  0  0  0  0  0  0999 V2000
   57.7990   32.3430   41.6340 C   0  0  0  0  0  0  0  0  0  0  0  0
   58.1980   31.7280   42.8540 O   0  0  0  0  0  0  0  0  0  0  0  0
   58.0230   32.2970   44.1240 C   0  0  0  0  0  0  0  0  0  0  0  0
   57.7750   33.6740   44.3020 C   0  0  0  0  0  0  0  0  0  0  0  0
   57.5870   34.1980   45.5840 C   0  0  0  0  0  0  0  0  0  0  0  0
   57.6400   33.3570   46.6990 C   0  0  0  0  0  0  0  0  0  0  0  0
   57.8880   31.9930   46.5350 C   0  0  0  0  0  0  0  0  0  0  0  0
   58.0860   31.4610   45.2520 C   0  0  0  0  0  0  0  0  0  0  0  0
   58.3240   30.0570   45.1010 N   0  0  0  0  0  0  0  0  0  0  0  0
   59.6340   29.5880   44.6480 C   0  0  0  0  0  0  0  0  0  0  0  0
   59.6480   28.0560   44.5390 C   0  0  0  0  0  0  0  0  0  0  0  0
   59.1540   27.3980   45.7730 N   0  0  0  0  0  0  0  0  0  0  0  0
   60.2250   27.2520   46.7860 C   0  0  0  0  0  0  0  0  0  0  0  0
   59.6470   27.1900   48.2100 C   0  0  0  0  0  0  0  0  0  0  0  0
   59.6030   28.5810   48.8730 C   0  0  0  0  0  0  0  0  0  0  0  0
   59.7980   29.6730   47.9070 N   0  0  0  0  0  0  0  0  0  0  0  0
   61.1240   30.2940   48.0120 C   0  0  0  0  0  0  0  0  0  0  0  0
   60.9830   31.7980   47.9320 C   0  0  0  0  0  0  0  0  0  0  0  0
   61.5690   32.4840   46.8530 C   0  0  0  0  0  0  0  0  0  0  0  0
   61.4100   33.8650   46.7210 C   0  0  0  0  0  0  0  0  0  0  0  0
   60.6430   34.5750   47.6460 C   0  0  0  0  0  0  0  0  0  0  0  0
   60.0360   33.9050   48.7090 C   0  0  0  0  0  0  0  0  0  0  0  0
   60.2040   32.5200   48.8690 C   0  0  0  0  0  0  0  0  0  0  0  0
   59.5440   31.8560   50.0110 C   0  0  0  0  0  0  0  0  0  0  0  0
   60.3190   31.1520   50.9700 C   0  0  0  0  0  0  0  0  0  0  0  0
   59.7040   30.5340   52.0740 C   0  0  0  0  0  0  0  0  0  0  0  0
   58.3180   30.6400   52.1860 C   0  0  0  0  0  0  0  0  0  0  0  0
   57.5690   31.3180   51.2680 C   0  0  0  0  0  0  0  0  0  0  0  0
   58.1430   31.9480   50.1650 C   0  0  0  0  0  0  0  0  0  0  0  0
   56.2730   31.2790   51.6250 N   0  0  0  0  0  0  0  0  0  0  0  0
   56.2620   30.5660   52.7780 C   0  0  0  0  0  0  0  0  0  0  0  0
   57.5040   30.1620   53.1430 N   0  0  0  0  0  0  0  0  0  0  0  0
   57.8720   29.4080   54.3380 C   0  0  0  0  0  0  0  0  0  0  0  0
   57.9140   28.0010   46.3460 C   0  0  0  0  0  0  0  0  0  0  0  0
   57.2900   29.0910   45.4680 C   0  0  0  0  0  0  0  0  0  0  0  0
   57.2124   33.2472   41.8539 H   0  0  0  0  0  0  0  0  0  0  0  0
   58.6916   32.6174   41.0526 H   0  0  0  0  0  0  0  0  0  0  0  0
   57.1847   31.6397   41.0526 H   0  0  0  0  0  0  0  0  0  0  0  0
   57.7293   34.3391   43.4271 H   0  0  0  0  0  0  0  0  0  0  0  0
   57.3971   35.2735   45.7155 H   0  0  0  0  0  0  0  0  0  0  0  0
   57.4862   33.7702   47.7068 H   0  0  0  0  0  0  0  0  0  0  0  0
   57.9283   31.3334   47.4144 H   0  0  0  0  0  0  0  0  0  0  0  0
   59.8533   30.0232   43.6618 H   0  0  0  0  0  0  0  0  0  0  0  0
   60.3957   29.9000   45.3777 H   0  0  0  0  0  0  0  0  0  0  0  0
   59.0067   27.7556   43.6973 H   0  0  0  0  0  0  0  0  0  0  0  0
   60.6901   27.7398   44.3838 H   0  0  0  0  0  0  0  0  0  0  0  0
   60.7829   26.3254   46.5857 H   0  0  0  0  0  0  0  0  0  0  0  0
   60.8862   28.1285   46.7190 H   0  0  0  0  0  0  0  0  0  0  0  0
   58.6248   26.7864   48.1618 H   0  0  0  0  0  0  0  0  0  0  0  0
   60.2999   26.5441   48.8154 H   0  0  0  0  0  0  0  0  0  0  0  0
   58.6240   28.7097   49.3577 H   0  0  0  0  0  0  0  0  0  0  0  0
   60.4253   28.6294   49.6020 H   0  0  0  0  0  0  0  0  0  0  0  0
   59.6700   29.3020   46.9370 H   0  0  0  0  0  0  0  0  0  0  0  0
   61.5827   30.0192   48.9733 H   0  0  0  0  0  0  0  0  0  0  0  0
   61.7612   29.9406   47.1879 H   0  0  0  0  0  0  0  0  0  0  0  0
   62.1569   31.9285   46.1075 H   0  0  0  0  0  0  0  0  0  0  0  0
   61.8907   34.3949   45.8855 H   0  0  0  0  0  0  0  0  0  0  0  0
   60.5170   35.6623   47.5371 H   0  0  0  0  0  0  0  0  0  0  0  0
   59.4208   34.4664   49.4276 H   0  0  0  0  0  0  0  0  0  0  0  0
   61.4105   31.0892   50.8486 H   0  0  0  0  0  0  0  0  0  0  0  0
   60.2955   29.9865   52.8225 H   0  0  0  0  0  0  0  0  0  0  0  0
   57.5259   32.4980   49.4393 H   0  0  0  0  0  0  0  0  0  0  0  0
   55.4580   31.7080   51.1320 H   0  0  0  0  0  0  0  0  0  0  0  0
   55.3506   30.3411   53.3514 H   0  0  0  0  0  0  0  0  0  0  0  0
   57.5921   29.9814   55.2340 H   0  0  0  0  0  0  0  0  0  0  0  0
   57.3434   28.4433   54.3401 H   0  0  0  0  0  0  0  0  0  0  0  0
   58.9577   29.2312   54.3401 H   0  0  0  0  0  0  0  0  0  0  0  0
   57.1719   27.2009   46.4844 H   0  0  0  0  0  0  0  0  0  0  0  0
   58.2007   28.4800   47.2938 H   0  0  0  0  0  0  0  0  0  0  0  0
   56.8705   28.6365   44.5584 H   0  0  0  0  0  0  0  0  0  0  0  0
   56.4866   29.5991   46.0215 H   0  0  0  0  0  0  0  0  0  0  0  0
  1  2  1  0
  2  3  1  0
  3  4  2  0
  4  5  1  0
  5  6  2  0
  6  7  1  0
  7  8  2  0
  8  9  1  0
  9 10  1  0
 10 11  1  0
 11 12  1  0
 12 13  1  0
 13 14  1  0
 14 15  1  0
 15 16  1  0
 16 17  1  0
 17 18  1  0
 18 19  2  0
 19 20  1  0
 20 21  2  0
 21 22  1  0
 22 23  2  0
 23 24  1  0
 24 25  2  0
 25 26  1  0
 26 27  2  0
 27 28  1  0
 28 29  2  0
 28 30  1  0
 30 31  2  0
 31 32  1  0
 32 33  1  0
 12 34  1  0
 34 35  1  0
  8  3  1  0
 35  9  1  0
 23 18  1  0
 29 24  1  0
 32 27  1  0
  1 36  1  0
  1 37  1  0
  1 38  1  0
  4 39  1  0
  5 40  1  0
  6 41  1  0
  7 42  1  0
 10 43  1  0
 10 44  1  0
 11 45  1  0
 11 46  1  0
 13 47  1  0
 13 48  1  0
 14 49  1  0
 14 50  1  0
 15 51  1  0
 15 52  1  0
 16 53  1  0
 17 54  1  0
 17 55  1  0
 19 56  1  0
 20 57  1  0
 21 58  1  0
 22 59  1  0
 25 60  1  0
 26 61  1  0
 29 62  1  0
 30 63  1  0
 31 64  1  0
 33 65  1  0
 33 66  1  0
 33 67  1  0
 34 68  1  0
 34 69  1  0
 35 70  1  0
 35 71  1  0
M  CHG  1  30   1
M  END
>  <UniqueID>  (46) 
44

>  <SMILES>  (46) 
COc1ccccc1N1CCN(CCCNCc2ccccc2-c2ccc3c(c2)[nH+]cn3C)CC1

>  <Energy>  (46) 
131.76517303824642

>  <Genealogy>  (46) 
COc1ccccc1N1CCN(CCCNCc2ccccc2-c2ccc3c(c2)[nH+]cn3C)CC1 (protonated)
COc1ccccc1N1CCN(CCCNCc2ccccc2-c2ccc3c(c2)[nH+]cn3C)CC1 (3D coordinates assigned)
COc1ccccc1N1CCN(CCCNCc2ccccc2-c2ccc3c(c2)[nH+]cn3C)CC1 (nonaromatic ring conformer: 131.76517303824642 kcal/mol)

>  <smiles>  (46) 
COc1ccccc1N1CCN(CCCNCc2ccccc2-c2ccc3c(c2)ncn3C)CC1

>  <score_type>  (46) 
oracle

>  <origin>  (46) 
adg

>  <m_score__min__energy>  (46) 
-8.3599999999999994

>  <m_primary>  (46) 
energy

$$$$
46:0
     RDKit          3D

 36 38  0  0  0  0  0  0  0  0999 V2000
   55.8760   27.4910   45.5980 O   0  0  0  0  0  0  0  0  0  0  0  0
   56.8210   28.3210   45.5140 C   0  0  0  0  0  0  0  0  0  0  0  0
   58.2370   27.8580   45.6610 C   0  0  0  0  0  0  0  0  0  0  0  0
   58.9410   28.6960   46.6440 N   0  0  0  0  0  0  0  0  0  0  0  0
   58.5900   28.6010   47.9630 C   0  0  0  0  0  0  0  0  0  0  0  0
   59.1850   29.3850   48.8960 N   0  0  0  0  0  0  0  0  0  0  0  0
   60.1360   30.2890   48.5550 C   0  0  0  0  0  0  0  0  0  0  0  0
   60.7300   31.0870   49.5390 C   0  0  0  0  0  0  0  0  0  0  0  0
   61.7040   32.0250   49.1860 C   0  0  0  0  0  0  0  0  0  0  0  0
   62.0870   32.1710   47.8490 C   0  0  0  0  0  0  0  0  0  0  0  0
   63.4160   33.4580   47.3730 Br  0  0  0  0  0  0  0  0  0  0  0  0
   61.4980   31.3760   46.8580 C   0  0  0  0  0  0  0  0  0  0  0  0
   60.5170   30.4270   47.2060 C   0  0  0  0  0  0  0  0  0  0  0  0
   59.8900   29.6070   46.2510 C   0  0  0  0  0  0  0  0  0  0  0  0
   60.2020   29.7140   45.0300 O   0  0  0  0  0  0  0  0  0  0  0  0
   56.5510   29.7090   45.3130 N   0  0  0  0  0  0  0  0  0  0  0  0
   57.1660   30.4930   44.2520 C   0  0  0  0  0  0  0  0  0  0  0  0
   57.6820   31.7810   44.8260 C   0  0  0  0  0  0  0  0  0  0  0  0
   57.7690   31.9480   46.2180 C   0  0  0  0  0  0  0  0  0  0  0  0
   58.2910   33.1310   46.7530 C   0  0  0  0  0  0  0  0  0  0  0  0
   58.7400   34.1460   45.9030 C   0  0  0  0  0  0  0  0  0  0  0  0
   59.2490   35.2910   46.4240 F   0  0  0  0  0  0  0  0  0  0  0  0
   58.6710   33.9790   44.5160 C   0  0  0  0  0  0  0  0  0  0  0  0
   58.1480   32.7990   43.9770 C   0  0  0  0  0  0  0  0  0  0  0  0
   58.2447   26.8122   46.0019 H   0  0  0  0  0  0  0  0  0  0  0  0
   58.7455   27.9374   44.6888 H   0  0  0  0  0  0  0  0  0  0  0  0
   57.8170   27.8811   48.2699 H   0  0  0  0  0  0  0  0  0  0  0  0
   60.4300   30.9759   50.5915 H   0  0  0  0  0  0  0  0  0  0  0  0
   62.1705   32.6500   49.9617 H   0  0  0  0  0  0  0  0  0  0  0  0
   61.8016   31.4927   45.8072 H   0  0  0  0  0  0  0  0  0  0  0  0
   57.9996   29.9263   43.8116 H   0  0  0  0  0  0  0  0  0  0  0  0
   56.4209   30.7081   43.4719 H   0  0  0  0  0  0  0  0  0  0  0  0
   57.4259   31.1469   46.8892 H   0  0  0  0  0  0  0  0  0  0  0  0
   58.3481   33.2624   47.8436 H   0  0  0  0  0  0  0  0  0  0  0  0
   59.0285   34.7767   43.8482 H   0  0  0  0  0  0  0  0  0  0  0  0
   58.1014   32.6677   42.8859 H   0  0  0  0  0  0  0  0  0  0  0  0
  1  2  2  0
  2  3  1  0
  3  4  1  0
  4  5  1  0
  5  6  2  0
  6  7  1  0
  7  8  2  0
  8  9  1  0
  9 10  2  0
 10 11  1  0
 10 12  1  0
 12 13  2  0
 13 14  1  0
 14 15  2  0
  2 16  1  0
 16 17  1  0
 17 18  1  0
 18 19  2  0
 19 20  1  0
 20 21  2  0
 21 22  1  0
 21 23  1  0
 23 24  2  0
 14  4  1  0
 24 18  1  0
 13  7  1  0
  3 25  1  0
  3 26  1  0
  5 27  1  0
  8 28  1  0
  9 29  1  0
 12 30  1  0
 17 31  1  0
 17 32  1  0
 19 33  1  0
 20 34  1  0
 23 35  1  0
 24 36  1  0
M  CHG  1  16  -1
M  END
>  <UniqueID>  (47) 
45

>  <SMILES>  (47) 
O=C(Cn1cnc2ccc(Br)cc2c1=O)[N-]Cc1ccc(F)cc1

>  <Energy>  (47) 
40.510721484742035

>  <Genealogy>  (47) 
O=C(Cn1cnc2ccc(Br)cc2c1=O)[N-]Cc1ccc(F)cc1 (protonated)
O=C(Cn1cnc2ccc(Br)cc2c1=O)[N-]Cc1ccc(F)cc1 (3D coordinates assigned)
O=C(Cn1cnc2ccc(Br)cc2c1=O)[N-]Cc1ccc(F)cc1 (optimized conformer: 40.510721484742035 kcal/mol)

>  <smiles>  (47) 
O=C(Cn1cnc2ccc(Br)cc2c1=O)NCc1ccc(F)cc1

>  <score_type>  (47) 
oracle

>  <origin>  (47) 
adg

>  <m_score__min__energy>  (47) 
-9.8699999999999992

>  <m_primary>  (47) 
energy

$$$$
47:0
     RDKit          3D

 67 70  0  0  0  0  0  0  0  0999 V2000
   54.5840   30.1970   52.0010 C   0  0  0  0  0  0  0  0  0  0  0  0
   55.7900   31.1310   52.0870 C   0  0  0  0  0  0  0  0  0  0  0  0
   57.0200   30.4590   51.6130 N   0  0  0  0  0  0  0  0  0  0  0  0
   57.5090   29.3930   52.5130 C   0  0  0  0  0  0  0  0  0  0  0  0
   57.3000   29.6930   53.9990 C   0  0  0  0  0  0  0  0  0  0  0  0
   58.0820   31.3260   51.0400 C   0  0  0  0  0  0  0  0  0  0  0  0
   59.3610   31.4420   51.8960 C   0  0  0  0  0  0  0  0  0  0  0  0
   60.4760   30.7520   51.2320 N   0  0  0  0  0  0  0  0  0  0  0  0
   60.5800   29.2890   51.3040 C   0  0  0  0  0  0  0  0  0  0  0  0
   60.2870   28.6920   49.9630 C   0  0  0  0  0  0  0  0  0  0  0  0
   60.7660   27.4890   49.4840 C   0  0  0  0  0  0  0  0  0  0  0  0
   60.2500   27.3620   48.2110 C   0  0  0  0  0  0  0  0  0  0  0  0
   59.4760   28.4950   47.9970 C   0  0  0  0  0  0  0  0  0  0  0  0
   58.7100   28.8380   46.7780 C   0  0  0  0  0  0  0  0  0  0  0  0
   58.6410   30.1580   46.3020 C   0  0  0  0  0  0  0  0  0  0  0  0
   57.8990   30.4600   45.1550 C   0  0  0  0  0  0  0  0  0  0  0  0
   57.2270   29.4450   44.4520 C   0  0  0  0  0  0  0  0  0  0  0  0
   56.3790   29.7690   43.2470 C   0  0  0  0  0  0  0  0  0  0  0  0
   56.6090   28.8510   42.2370 F   0  0  0  0  0  0  0  0  0  0  0  0
   55.0430   29.7190   43.6040 F   0  0  0  0  0  0  0  0  0  0  0  0
   56.6680   31.0300   42.7580 F   0  0  0  0  0  0  0  0  0  0  0  0
   57.2770   28.1300   44.9420 C   0  0  0  0  0  0  0  0  0  0  0  0
   58.0150   27.8290   46.0900 C   0  0  0  0  0  0  0  0  0  0  0  0
   59.5160   29.2620   49.0640 O   0  0  0  0  0  0  0  0  0  0  0  0
   61.2950   31.4860   50.3050 C   0  0  0  0  0  0  0  0  0  0  0  0
   62.1670   30.8710   49.6360 O   0  0  0  0  0  0  0  0  0  0  0  0
   61.0870   32.9610   50.0690 C   0  0  0  0  0  0  0  0  0  0  0  0
   61.3230   33.3200   48.6480 N   0  0  0  0  0  0  0  0  0  0  0  0
   62.6180   33.5010   48.2120 C   0  0  0  0  0  0  0  0  0  0  0  0
   63.5890   33.4490   49.0140 O   0  0  0  0  0  0  0  0  0  0  0  0
   62.8840   33.7570   46.8680 C   0  0  0  0  0  0  0  0  0  0  0  0
   61.8650   33.8560   45.9850 N   0  0  0  0  0  0  0  0  0  0  0  0
   60.5770   33.7170   46.3800 C   0  0  0  0  0  0  0  0  0  0  0  0
   59.5530   33.8460   45.4350 C   0  0  0  0  0  0  0  0  0  0  0  0
   58.2220   33.7240   45.8240 C   0  0  0  0  0  0  0  0  0  0  0  0
   57.9050   33.4740   47.1580 C   0  0  0  0  0  0  0  0  0  0  0  0
   58.9170   33.3420   48.1120 C   0  0  0  0  0  0  0  0  0  0  0  0
   60.2820   33.4510   47.7420 C   0  0  0  0  0  0  0  0  0  0  0  0
   54.2484   29.9371   53.0158 H   0  0  0  0  0  0  0  0  0  0  0  0
   53.7677   30.7008   51.4626 H   0  0  0  0  0  0  0  0  0  0  0  0
   54.8676   29.2806   51.4626 H   0  0  0  0  0  0  0  0  0  0  0  0
   55.6025   32.0179   51.4639 H   0  0  0  0  0  0  0  0  0  0  0  0
   55.9333   31.4201   53.1386 H   0  0  0  0  0  0  0  0  0  0  0  0
   56.9761   28.4621   52.2691 H   0  0  0  0  0  0  0  0  0  0  0  0
   58.5943   29.3122   52.3527 H   0  0  0  0  0  0  0  0  0  0  0  0
   57.8256   28.9386   54.6028 H   0  0  0  0  0  0  0  0  0  0  0  0
   57.6990   30.6914   54.2312 H   0  0  0  0  0  0  0  0  0  0  0  0
   56.2252   29.6646   54.2312 H   0  0  0  0  0  0  0  0  0  0  0  0
   58.3640   30.9169   50.0586 H   0  0  0  0  0  0  0  0  0  0  0  0
   57.6559   32.3386   50.9847 H   0  0  0  0  0  0  0  0  0  0  0  0
   59.6163   32.5039   52.0270 H   0  0  0  0  0  0  0  0  0  0  0  0
   59.1819   30.9770   52.8767 H   0  0  0  0  0  0  0  0  0  0  0  0
   61.5983   29.0103   51.6130 H   0  0  0  0  0  0  0  0  0  0  0  0
   59.8527   28.9093   52.0367 H   0  0  0  0  0  0  0  0  0  0  0  0
   61.4227   26.7793   50.0085 H   0  0  0  0  0  0  0  0  0  0  0  0
   60.4175   26.5323   47.5085 H   0  0  0  0  0  0  0  0  0  0  0  0
   59.1739   30.9594   46.8347 H   0  0  0  0  0  0  0  0  0  0  0  0
   57.8410   31.4997   44.8006 H   0  0  0  0  0  0  0  0  0  0  0  0
   56.7314   27.3311   44.4185 H   0  0  0  0  0  0  0  0  0  0  0  0
   58.0521   26.7931   46.4582 H   0  0  0  0  0  0  0  0  0  0  0  0
   60.0534   33.2244   50.3379 H   0  0  0  0  0  0  0  0  0  0  0  0
   61.8051   33.5160   50.6905 H   0  0  0  0  0  0  0  0  0  0  0  0
   63.9224   33.8784   46.5259 H   0  0  0  0  0  0  0  0  0  0  0  0
   59.8006   34.0444   44.3817 H   0  0  0  0  0  0  0  0  0  0  0  0
   57.4199   33.8250   45.0781 H   0  0  0  0  0  0  0  0  0  0  0  0
   56.8519   33.3801   47.4614 H   0  0  0  0  0  0  0  0  0  0  0  0
   58.6522   33.1513   49.1625 H   0  0  0  0  0  0  0  0  0  0  0  0
  1  2  1  0
  2  3  1  0
  3  4  1  0
  4  5  1  0
  3  6  1  0
  6  7  1  0
  7  8  1  0
  8  9  1  0
  9 10  1  0
 10 11  2  0
 11 12  1  0
 12 13  2  0
 13 14  1  0
 14 15  2  0
 15 16  1  0
 16 17  2  0
 17 18  1  0
 18 19  1  0
 18 20  1  0
 18 21  1  0
 17 22  1  0
 22 23  2  0
 13 24  1  0
  8 25  1  0
 25 26  2  0
 25 27  1  0
 27 28  1  0
 28 29  1  0
 29 30  2  0
 29 31  1  0
 31 32  2  0
 32 33  1  0
 33 34  2  0
 34 35  1  0
 35 36  2  0
 36 37  1  0
 37 38  2  0
 24 10  1  0
 38 28  1  0
 23 14  1  0
 38 33  1  0
  1 39  1  0
  1 40  1  0
  1 41  1  0
  2 42  1  0
  2 43  1  0
  4 44  1  0
  4 45  1  0
  5 46  1  0
  5 47  1  0
  5 48  1  0
  6 49  1  0
  6 50  1  0
  7 51  1  0
  7 52  1  0
  9 53  1  0
  9 54  1  0
 11 55  1  0
 12 56  1  0
 15 57  1  0
 16 58  1  0
 22 59  1  0
 23 60  1  0
 27 61  1  0
 27 62  1  0
 31 63  1  0
 34 64  1  0
 35 65  1  0
 36 66  1  0
 37 67  1  0
M  END
>  <UniqueID>  (48) 
46

>  <SMILES>  (48) 
CCN(CC)CCN(Cc1ccc(-c2ccc(C(F)(F)F)cc2)o1)C(=O)Cn1c(=O)cnc2ccccc21

>  <Energy>  (48) 
112.82381957859043

>  <Genealogy>  (48) 
CCN(CC)CCN(Cc1ccc(-c2ccc(C(F)(F)F)cc2)o1)C(=O)Cn1c(=O)cnc2ccccc21 (3D coordinates assigned)
CCN(CC)CCN(Cc1ccc(-c2ccc(C(F)(F)F)cc2)o1)C(=O)Cn1c(=O)cnc2ccccc21 (optimized conformer: 112.82381957859043 kcal/mol)

>  <smiles>  (48) 
CCN(CC)CCN(Cc1ccc(-c2ccc(C(F)(F)F)cc2)o1)C(=O)Cn1c(=O)cnc2ccccc21

>  <score_type>  (48) 
oracle

>  <origin>  (48) 
adg

>  <m_score__min__energy>  (48) 
-8.4399999999999995

>  <m_primary>  (48) 
energy

$$$$
