0:0
     RDKit          3D

 71 73  0  0  0  0  0  0  0  0999 V2000
   65.2880   32.1220   50.1550 C   0  0  0  0  0  0  0  0  0  0  0  0
   64.1210   31.3300   50.7610 C   0  0  0  0  0  0  0  0  0  0  0  0
   62.8950   31.3690   49.9170 N   0  0  0  0  0  0  0  0  0  0  0  0
   62.0620   30.1560   50.1400 C   0  0  0  0  0  0  0  0  0  0  0  0
   61.3120   30.1420   51.4790 C   0  0  0  0  0  0  0  0  0  0  0  0
   63.2470   31.5880   48.4870 C   0  0  0  0  0  0  0  0  0  0  0  0
   62.5670   32.8140   47.8560 C   0  0  0  0  0  0  0  0  0  0  0  0
   61.7720   33.4750   48.8180 O   0  0  0  0  0  0  0  0  0  0  0  0
   62.5030   34.5370   49.3950 C   0  0  0  0  0  0  0  0  0  0  0  0
   62.6650   34.2720   50.8870 C   0  0  0  0  0  0  0  0  0  0  0  0
   61.6570   33.3740   51.3010 O   0  0  0  0  0  0  0  0  0  0  0  0
   61.4100   33.5160   52.6830 C   0  0  0  0  0  0  0  0  0  0  0  0
   59.9040   33.5040   52.9170 C   0  0  0  0  0  0  0  0  0  0  0  0
   59.2470   33.6840   51.6790 O   0  0  0  0  0  0  0  0  0  0  0  0
   58.0880   32.8810   51.5980 C   0  0  0  0  0  0  0  0  0  0  0  0
   58.2490   31.7930   50.5250 C   0  0  0  0  0  0  0  0  0  0  0  0
   59.2940   32.1300   49.5560 N   0  0  0  0  0  0  0  0  0  0  0  0
   59.1510   31.8420   48.1540 C   0  0  0  0  0  0  0  0  0  0  0  0
   59.1100   32.8850   47.2160 C   0  0  0  0  0  0  0  0  0  0  0  0
   59.2920   34.2260   47.6200 C   0  0  0  0  0  0  0  0  0  0  0  0
   59.2680   35.2630   46.6870 C   0  0  0  0  0  0  0  0  0  0  0  0
   59.0710   34.9790   45.3420 C   0  0  0  0  0  0  0  0  0  0  0  0
   58.8870   33.6590   44.9190 C   0  0  0  0  0  0  0  0  0  0  0  0
   58.8780   32.5840   45.8470 C   0  0  0  0  0  0  0  0  0  0  0  0
   58.6660   31.2780   45.4500 N   0  0  0  0  0  0  0  0  0  0  0  0
   58.1420   30.9850   44.0970 C   0  0  0  0  0  0  0  0  0  0  0  0
   58.9360   30.2420   46.3240 C   0  0  0  0  0  0  0  0  0  0  0  0
   59.0410   28.8970   45.8790 C   0  0  0  0  0  0  0  0  0  0  0  0
   59.2620   27.8550   46.7840 C   0  0  0  0  0  0  0  0  0  0  0  0
   59.3720   26.1980   46.2100 Cl  0  0  0  0  0  0  0  0  0  0  0  0
   59.4000   28.1250   48.1420 C   0  0  0  0  0  0  0  0  0  0  0  0
   59.3550   29.4440   48.6000 C   0  0  0  0  0  0  0  0  0  0  0  0
   59.1340   30.5120   47.7060 C   0  0  0  0  0  0  0  0  0  0  0  0
   65.9055   32.5411   50.9631 H   0  0  0  0  0  0  0  0  0  0  0  0
   65.9017   31.4531   49.5338 H   0  0  0  0  0  0  0  0  0  0  0  0
   64.8930   32.9394   49.5338 H   0  0  0  0  0  0  0  0  0  0  0  0
   64.4323   30.2817   50.8798 H   0  0  0  0  0  0  0  0  0  0  0  0
   63.8724   31.7947   51.7265 H   0  0  0  0  0  0  0  0  0  0  0  0
   62.3190   32.1830   50.2370 H   0  0  0  0  0  0  0  0  0  0  0  0
   61.3210   30.0932   49.3295 H   0  0  0  0  0  0  0  0  0  0  0  0
   62.7515   29.2991   50.1563 H   0  0  0  0  0  0  0  0  0  0  0  0
   62.0375   30.1555   52.3058 H   0  0  0  0  0  0  0  0  0  0  0  0
   60.6637   31.0282   51.5455 H   0  0  0  0  0  0  0  0  0  0  0  0
   60.6973   29.2322   51.5455 H   0  0  0  0  0  0  0  0  0  0  0  0
   64.3365   31.7219   48.4156 H   0  0  0  0  0  0  0  0  0  0  0  0
   62.8912   30.7067   47.9332 H   0  0  0  0  0  0  0  0  0  0  0  0
   63.3368   33.5054   47.4826 H   0  0  0  0  0  0  0  0  0  0  0  0
   61.9269   32.4834   47.0247 H   0  0  0  0  0  0  0  0  0  0  0  0
   63.4939   34.6029   48.9220 H   0  0  0  0  0  0  0  0  0  0  0  0
   61.9669   35.4851   49.2411 H   0  0  0  0  0  0  0  0  0  0  0  0
   63.6545   33.8315   51.0791 H   0  0  0  0  0  0  0  0  0  0  0  0
   62.5782   35.2154   51.4461 H   0  0  0  0  0  0  0  0  0  0  0  0
   61.8756   32.6824   53.2293 H   0  0  0  0  0  0  0  0  0  0  0  0
   61.8365   34.4638   53.0433 H   0  0  0  0  0  0  0  0  0  0  0  0
   59.6063   32.5405   53.3564 H   0  0  0  0  0  0  0  0  0  0  0  0
   59.6276   34.3149   53.6070 H   0  0  0  0  0  0  0  0  0  0  0  0
   57.9125   32.4024   52.5728 H   0  0  0  0  0  0  0  0  0  0  0  0
   57.2356   33.5205   51.3251 H   0  0  0  0  0  0  0  0  0  0  0  0
   58.5128   30.8451   51.0169 H   0  0  0  0  0  0  0  0  0  0  0  0
   57.2963   31.7071   49.9819 H   0  0  0  0  0  0  0  0  0  0  0  0
   60.1530   32.6310   49.8730 H   0  0  0  0  0  0  0  0  0  0  0  0
   59.4547   34.4557   48.6834 H   0  0  0  0  0  0  0  0  0  0  0  0
   59.4049   36.3036   47.0161 H   0  0  0  0  0  0  0  0  0  0  0  0
   59.0596   35.7963   44.6059 H   0  0  0  0  0  0  0  0  0  0  0  0
   58.7467   33.4495   43.8483 H   0  0  0  0  0  0  0  0  0  0  0  0
   57.1848   30.4498   44.1825 H   0  0  0  0  0  0  0  0  0  0  0  0
   57.9876   31.9277   43.5515 H   0  0  0  0  0  0  0  0  0  0  0  0
   58.8642   30.3598   43.5515 H   0  0  0  0  0  0  0  0  0  0  0  0
   58.9470   28.6723   44.8063 H   0  0  0  0  0  0  0  0  0  0  0  0
   59.5445   27.2999   48.8549 H   0  0  0  0  0  0  0  0  0  0  0  0
   59.4937   29.6521   49.6712 H   0  0  0  0  0  0  0  0  0  0  0  0
  1  2  1  0
  2  3  1  0
  3  4  1  0
  4  5  1  0
  3  6  1  0
  6  7  1  0
  7  8  1  0
  8  9  1  0
  9 10  1  0
 10 11  1  0
 11 12  1  0
 12 13  1  0
 13 14  1  0
 14 15  1  0
 15 16  1  0
 16 17  1  0
 17 18  1  0
 18 19  2  0
 19 20  1  0
 20 21  2  0
 21 22  1  0
 22 23  2  0
 23 24  1  0
 24 25  2  0
 25 26  1  0
 25 27  1  0
 27 28  2  0
 28 29  1  0
 29 30  1  0
 29 31  2  0
 31 32  1  0
 32 33  2  0
 33 18  1  0
 24 19  1  0
 33 27  1  0
  1 34  1  0
  1 35  1  0
  1 36  1  0
  2 37  1  0
  2 38  1  0
  3 39  1  0
  4 40  1  0
  4 41  1  0
  5 42  1  0
  5 43  1  0
  5 44  1  0
  6 45  1  0
  6 46  1  0
  7 47  1  0
  7 48  1  0
  9 49  1  0
  9 50  1  0
 10 51  1  0
 10 52  1  0
 12 53  1  0
 12 54  1  0
 13 55  1  0
 13 56  1  0
 15 57  1  0
 15 58  1  0
 16 59  1  0
 16 60  1  0
 17 61  1  0
 20 62  1  0
 21 63  1  0
 22 64  1  0
 23 65  1  0
 26 66  1  0
 26 67  1  0
 26 68  1  0
 28 69  1  0
 31 70  1  0
 32 71  1  0
M  CHG  2   3   1  25   1
M  END
>  <UniqueID>  (1) 
1

>  <SMILES>  (1) 
CC[NH+](CC)CCOCCOCCOCCNc1c2ccccc2[n+](C)c2cc(Cl)ccc12

>  <Energy>  (1) 
94.35684899456247

>  <Genealogy>  (1) 
CC[NH+](CC)CCOCCOCCOCCNc1c2ccccc2[n+](C)c2cc(Cl)ccc12 (protonated)
CC[NH+](CC)CCOCCOCCOCCNc1c2ccccc2[n+](C)c2cc(Cl)ccc12 (3D coordinates assigned)
CC[NH+](CC)CCOCCOCCOCCNc1c2ccccc2[n+](C)c2cc(Cl)ccc12 (optimized conformer: 94.35684899456247 kcal/mol)

>  <smiles>  (1) 
CCN(CC)CCOCCOCCOCCNc1c2ccccc2[n+](C)c2cc(Cl)ccc12

>  <score_type>  (1) 
oracle

>  <origin>  (1) 
adg

>  <m_score__min__energy>  (1) 
-3.9399999999999999

>  <m_primary>  (1) 
energy

$$$$
1:0
     RDKit          3D

 59 61  0  0  0  0  0  0  0  0999 V2000
   63.3950   32.9540   47.1170 C   0  0  0  0  0  0  0  0  0  0  0  0
   62.6000   32.7490   48.3370 N   0  0  0  0  0  0  0  0  0  0  0  0
   63.3770   31.9660   49.3120 C   0  0  0  0  0  0  0  0  0  0  0  0
   62.1750   34.0440   48.9140 C   0  0  0  0  0  0  0  0  0  0  0  0
   60.6770   34.2670   48.6760 C   0  0  0  0  0  0  0  0  0  0  0  0
   60.0600   33.0840   48.0770 N   0  0  0  0  0  0  0  0  0  0  0  0
   59.3980   33.1890   46.8120 C   0  0  0  0  0  0  0  0  0  0  0  0
   58.9060   34.4450   46.4490 C   0  0  0  0  0  0  0  0  0  0  0  0
   58.1020   34.5920   45.3300 C   0  0  0  0  0  0  0  0  0  0  0  0
   57.7790   33.4870   44.5510 C   0  0  0  0  0  0  0  0  0  0  0  0
   58.3040   32.2040   44.8400 C   0  0  0  0  0  0  0  0  0  0  0  0
   59.1420   32.0550   45.9860 C   0  0  0  0  0  0  0  0  0  0  0  0
   59.7000   30.7840   46.2460 C   0  0  0  0  0  0  0  0  0  0  0  0
   60.8280   30.6380   47.1260 N   0  0  0  0  0  0  0  0  0  0  0  0
   60.7670   29.7950   48.3220 C   0  0  0  0  0  0  0  0  0  0  0  0
   59.4650   30.0140   49.1060 C   0  0  0  0  0  0  0  0  0  0  0  0
   59.5800   31.1490   50.0450 N   0  0  0  0  0  0  0  0  0  0  0  0
   58.2530   31.6110   50.4920 C   0  0  0  0  0  0  0  0  0  0  0  0
   60.3880   30.7630   51.2120 C   0  0  0  0  0  0  0  0  0  0  0  0
   59.1940   29.6590   45.5760 C   0  0  0  0  0  0  0  0  0  0  0  0
   59.5410   28.3550   45.9890 C   0  0  0  0  0  0  0  0  0  0  0  0
   59.0060   27.2400   45.3480 C   0  0  0  0  0  0  0  0  0  0  0  0
   58.1080   27.4060   44.3000 C   0  0  0  0  0  0  0  0  0  0  0  0
   57.7530   28.6850   43.8730 C   0  0  0  0  0  0  0  0  0  0  0  0
   58.3090   29.8380   44.4850 C   0  0  0  0  0  0  0  0  0  0  0  0
   58.0120   31.1120   44.0430 N   0  0  0  0  0  0  0  0  0  0  0  0
   57.3910   31.3050   42.7140 C   0  0  0  0  0  0  0  0  0  0  0  0
   64.4264   33.2199   47.3918 H   0  0  0  0  0  0  0  0  0  0  0  0
   63.4009   32.0280   46.5233 H   0  0  0  0  0  0  0  0  0  0  0  0
   62.9524   33.7674   46.5233 H   0  0  0  0  0  0  0  0  0  0  0  0
   63.0867   32.2585   50.3319 H   0  0  0  0  0  0  0  0  0  0  0  0
   63.1749   30.8946   49.1663 H   0  0  0  0  0  0  0  0  0  0  0  0
   64.4499   32.1599   49.1663 H   0  0  0  0  0  0  0  0  0  0  0  0
   62.3741   34.0420   49.9958 H   0  0  0  0  0  0  0  0  0  0  0  0
   62.7388   34.8541   48.4284 H   0  0  0  0  0  0  0  0  0  0  0  0
   60.1877   34.4800   49.6379 H   0  0  0  0  0  0  0  0  0  0  0  0
   60.5540   35.1143   47.9853 H   0  0  0  0  0  0  0  0  0  0  0  0
   60.4280   32.1440   48.3450 H   0  0  0  0  0  0  0  0  0  0  0  0
   59.1592   35.3258   47.0573 H   0  0  0  0  0  0  0  0  0  0  0  0
   57.7182   35.5862   45.0573 H   0  0  0  0  0  0  0  0  0  0  0  0
   57.1021   33.6117   43.6930 H   0  0  0  0  0  0  0  0  0  0  0  0
   61.6090   31.3230   47.0490 H   0  0  0  0  0  0  0  0  0  0  0  0
   60.8265   28.7396   48.0176 H   0  0  0  0  0  0  0  0  0  0  0  0
   61.6099   30.0652   48.9751 H   0  0  0  0  0  0  0  0  0  0  0  0
   58.6507   30.2195   48.3955 H   0  0  0  0  0  0  0  0  0  0  0  0
   59.2573   29.1047   49.6891 H   0  0  0  0  0  0  0  0  0  0  0  0
   58.2199   31.6225   51.5914 H   0  0  0  0  0  0  0  0  0  0  0  0
   58.0699   32.6258   50.1090 H   0  0  0  0  0  0  0  0  0  0  0  0
   57.4792   30.9294   50.1090 H   0  0  0  0  0  0  0  0  0  0  0  0
   59.8470   31.0215   52.1342 H   0  0  0  0  0  0  0  0  0  0  0  0
   60.5735   29.6790   51.1872 H   0  0  0  0  0  0  0  0  0  0  0  0
   61.3478   31.2999   51.1872 H   0  0  0  0  0  0  0  0  0  0  0  0
   60.2414   28.2176   46.8260 H   0  0  0  0  0  0  0  0  0  0  0  0
   59.2940   26.2287   45.6710 H   0  0  0  0  0  0  0  0  0  0  0  0
   57.6753   26.5240   43.8051 H   0  0  0  0  0  0  0  0  0  0  0  0
   57.0320   28.8017   43.0504 H   0  0  0  0  0  0  0  0  0  0  0  0
   56.3475   31.6293   42.8405 H   0  0  0  0  0  0  0  0  0  0  0  0
   57.9484   32.0723   42.1567 H   0  0  0  0  0  0  0  0  0  0  0  0
   57.4153   30.3569   42.1567 H   0  0  0  0  0  0  0  0  0  0  0  0
  1  2  1  0
  2  3  1  0
  2  4  1  0
  4  5  1  0
  5  6  1  0
  6  7  1  0
  7  8  2  0
  8  9  1  0
  9 10  2  0
 10 11  1  0
 11 12  2  0
 12 13  1  0
 13 14  1  0
 14 15  1  0
 15 16  1  0
 16 17  1  0
 17 18  1  0
 17 19  1  0
 13 20  2  0
 20 21  1  0
 21 22  2  0
 22 23  1  0
 23 24  2  0
 24 25  1  0
 25 26  2  0
 26 27  1  0
 12  7  1  0
 25 20  1  0
 26 11  1  0
  1 28  1  0
  1 29  1  0
  1 30  1  0
  3 31  1  0
  3 32  1  0
  3 33  1  0
  4 34  1  0
  4 35  1  0
  5 36  1  0
  5 37  1  0
  6 38  1  0
  8 39  1  0
  9 40  1  0
 10 41  1  0
 14 42  1  0
 15 43  1  0
 15 44  1  0
 16 45  1  0
 16 46  1  0
 18 47  1  0
 18 48  1  0
 18 49  1  0
 19 50  1  0
 19 51  1  0
 19 52  1  0
 21 53  1  0
 22 54  1  0
 23 55  1  0
 24 56  1  0
 27 57  1  0
 27 58  1  0
 27 59  1  0
M  CHG  1  26   1
M  END
>  <UniqueID>  (2) 
2

>  <SMILES>  (2) 
CN(C)CCNc1cccc2c1c(NCCN(C)C)c1ccccc1[n+]2C

>  <Energy>  (2) 
91.13860246136102

>  <Genealogy>  (2) 
CN(C)CCNc1cccc2c1c(NCCN(C)C)c1ccccc1[n+]2C (3D coordinates assigned)
CN(C)CCNc1cccc2c1c(NCCN(C)C)c1ccccc1[n+]2C (optimized conformer: 91.13860246136102 kcal/mol)

>  <smiles>  (2) 
CN(C)CCNc1cccc2c1c(NCCN(C)C)c1ccccc1[n+]2C

>  <score_type>  (2) 
oracle

>  <origin>  (2) 
adg

>  <m_score__min__energy>  (2) 
-4.8200000000000003

>  <m_primary>  (2) 
energy

$$$$
2:0
     RDKit          3D

 59 61  0  0  0  0  0  0  0  0999 V2000
   58.8510   33.7510   44.4880 C   0  0  0  0  0  0  0  0  0  0  0  0
   57.3310   33.5970   44.5250 C   0  0  0  0  0  0  0  0  0  0  0  0
   56.9600   32.2250   44.9050 N   0  0  0  0  0  0  0  0  0  0  0  0
   57.4600   31.2490   43.9280 C   0  0  0  0  0  0  0  0  0  0  0  0
   56.8000   29.8870   44.1670 C   0  0  0  0  0  0  0  0  0  0  0  0
   56.6850   29.6080   45.5990 N   0  0  0  0  0  0  0  0  0  0  0  0
   57.7630   29.0360   46.3600 C   0  0  0  0  0  0  0  0  0  0  0  0
   57.9260   27.6390   46.3760 C   0  0  0  0  0  0  0  0  0  0  0  0
   57.0200   26.8770   45.6130 O   0  0  0  0  0  0  0  0  0  0  0  0
   56.2340   25.7820   46.0670 C   0  0  0  0  0  0  0  0  0  0  0  0
   58.9870   27.0700   47.1160 C   0  0  0  0  0  0  0  0  0  0  0  0
   59.1720   25.6770   47.1130 O   0  0  0  0  0  0  0  0  0  0  0  0
   59.4120   24.8800   45.9580 C   0  0  0  0  0  0  0  0  0  0  0  0
   59.8570   27.9100   47.8340 C   0  0  0  0  0  0  0  0  0  0  0  0
   59.6910   29.3120   47.8520 C   0  0  0  0  0  0  0  0  0  0  0  0
   58.6520   29.8710   47.0730 C   0  0  0  0  0  0  0  0  0  0  0  0
   58.5100   31.2620   47.0430 C   0  0  0  0  0  0  0  0  0  0  0  0
   59.4530   32.0810   47.6590 C   0  0  0  0  0  0  0  0  0  0  0  0
   59.3470   33.4710   47.5330 C   0  0  0  0  0  0  0  0  0  0  0  0
   60.3090   34.3050   48.0910 C   0  0  0  0  0  0  0  0  0  0  0  0
   61.4280   33.7620   48.7420 C   0  0  0  0  0  0  0  0  0  0  0  0
   62.4140   34.5830   49.3140 O   0  0  0  0  0  0  0  0  0  0  0  0
   62.9250   34.4350   50.6340 C   0  0  0  0  0  0  0  0  0  0  0  0
   61.5630   32.3610   48.8420 C   0  0  0  0  0  0  0  0  0  0  0  0
   62.7530   31.8220   49.3500 O   0  0  0  0  0  0  0  0  0  0  0  0
   64.0230   32.0320   48.7420 C   0  0  0  0  0  0  0  0  0  0  0  0
   60.5160   31.5010   48.3900 C   0  0  0  0  0  0  0  0  0  0  0  0
   60.5180   30.1320   48.6030 N   0  0  0  0  0  0  0  0  0  0  0  0
   61.3070   29.5490   49.7100 C   0  0  0  0  0  0  0  0  0  0  0  0
   59.2407   33.7905   45.5159 H   0  0  0  0  0  0  0  0  0  0  0  0
   59.2937   32.8931   43.9607 H   0  0  0  0  0  0  0  0  0  0  0  0
   59.1127   34.6803   43.9607 H   0  0  0  0  0  0  0  0  0  0  0  0
   56.9138   34.3013   45.2598 H   0  0  0  0  0  0  0  0  0  0  0  0
   56.9279   33.8096   43.5238 H   0  0  0  0  0  0  0  0  0  0  0  0
   55.9140   32.1680   44.9010 H   0  0  0  0  0  0  0  0  0  0  0  0
   57.2226   31.5960   42.9115 H   0  0  0  0  0  0  0  0  0  0  0  0
   58.5495   31.1484   44.0416 H   0  0  0  0  0  0  0  0  0  0  0  0
   55.7956   29.8896   43.7185 H   0  0  0  0  0  0  0  0  0  0  0  0
   57.4241   29.1076   43.7055 H   0  0  0  0  0  0  0  0  0  0  0  0
   55.7520   29.7210   46.0560 H   0  0  0  0  0  0  0  0  0  0  0  0
   56.2244   25.7686   47.1669 H   0  0  0  0  0  0  0  0  0  0  0  0
   55.2052   25.8890   45.6926 H   0  0  0  0  0  0  0  0  0  0  0  0
   56.6645   24.8415   45.6926 H   0  0  0  0  0  0  0  0  0  0  0  0
   59.7164   23.8691   46.2669 H   0  0  0  0  0  0  0  0  0  0  0  0
   58.4925   24.8186   45.3574 H   0  0  0  0  0  0  0  0  0  0  0  0
   60.2125   25.3365   45.3574 H   0  0  0  0  0  0  0  0  0  0  0  0
   60.6894   27.4625   48.3969 H   0  0  0  0  0  0  0  0  0  0  0  0
   57.6477   31.7122   46.5294 H   0  0  0  0  0  0  0  0  0  0  0  0
   58.4963   33.9066   46.9885 H   0  0  0  0  0  0  0  0  0  0  0  0
   60.1928   35.3967   48.0221 H   0  0  0  0  0  0  0  0  0  0  0  0
   62.1327   34.6645   51.3618 H   0  0  0  0  0  0  0  0  0  0  0  0
   63.2688   33.4004   50.7802 H   0  0  0  0  0  0  0  0  0  0  0  0
   63.7685   35.1258   50.7802 H   0  0  0  0  0  0  0  0  0  0  0  0
   64.7871   32.1583   49.5232 H   0  0  0  0  0  0  0  0  0  0  0  0
   64.2781   31.1638   48.1165 H   0  0  0  0  0  0  0  0  0  0  0  0
   63.9851   32.9361   48.1165 H   0  0  0  0  0  0  0  0  0  0  0  0
   60.8783   29.8657   50.6723 H   0  0  0  0  0  0  0  0  0  0  0  0
   61.2810   28.4515   49.6405 H   0  0  0  0  0  0  0  0  0  0  0  0
   62.3485   29.8962   49.6405 H   0  0  0  0  0  0  0  0  0  0  0  0
  1  2  1  0
  2  3  1  0
  3  4  1  0
  4  5  1  0
  5  6  1  0
  6  7  1  0
  7  8  2  0
  8  9  1  0
  9 10  1  0
  8 11  1  0
 11 12  1  0
 12 13  1  0
 11 14  2  0
 14 15  1  0
 15 16  2  0
 16 17  1  0
 17 18  2  0
 18 19  1  0
 19 20  2  0
 20 21  1  0
 21 22  1  0
 22 23  1  0
 21 24  2  0
 24 25  1  0
 25 26  1  0
 24 27  1  0
 27 28  2  0
 28 29  1  0
 16  7  1  0
 27 18  1  0
 28 15  1  0
  1 30  1  0
  1 31  1  0
  1 32  1  0
  2 33  1  0
  2 34  1  0
  3 35  1  0
  4 36  1  0
  4 37  1  0
  5 38  1  0
  5 39  1  0
  6 40  1  0
 10 41  1  0
 10 42  1  0
 10 43  1  0
 13 44  1  0
 13 45  1  0
 13 46  1  0
 14 47  1  0
 17 48  1  0
 19 49  1  0
 20 50  1  0
 23 51  1  0
 23 52  1  0
 23 53  1  0
 26 54  1  0
 26 55  1  0
 26 56  1  0
 29 57  1  0
 29 58  1  0
 29 59  1  0
M  CHG  1  28   1
M  END
>  <UniqueID>  (3) 
3

>  <SMILES>  (3) 
CCNCCNc1c(OC)c(OC)cc2c1cc1ccc(OC)c(OC)c1[n+]2C

>  <Energy>  (3) 
90.38654936784607

>  <Genealogy>  (3) 
CCNCCNc1c(OC)c(OC)cc2c1cc1ccc(OC)c(OC)c1[n+]2C (3D coordinates assigned)
CCNCCNc1c(OC)c(OC)cc2c1cc1ccc(OC)c(OC)c1[n+]2C (optimized conformer: 90.38654936784607 kcal/mol)

>  <smiles>  (3) 
CCNCCNc1c(OC)c(OC)cc2c1cc1ccc(OC)c(OC)c1[n+]2C

>  <score_type>  (3) 
oracle

>  <origin>  (3) 
adg

>  <m_score__min__energy>  (3) 
-4.6500000000000004

>  <m_primary>  (3) 
energy

$$$$
3:0
     RDKit          3D

 75 78  0  0  0  0  0  0  0  0999 V2000
   58.6950   30.3850   52.0530 C   0  0  0  0  0  0  0  0  0  0  0  0
   58.0050   30.8550   50.7670 C   0  0  0  0  0  0  0  0  0  0  0  0
   57.9250   32.3350   50.6660 N   0  0  1  0  0  0  0  0  0  0  0  0
   58.0390   32.9630   51.9990 C   0  0  0  0  0  0  0  0  0  0  0  0
   59.0010   32.8430   49.7660 C   0  0  0  0  0  0  0  0  0  0  0  0
   58.5300   32.9960   48.3030 C   0  0  0  0  0  0  0  0  0  0  0  0
   59.3670   32.2770   47.3300 N   0  0  0  0  0  0  0  0  0  0  0  0
   59.1680   30.9020   46.9410 C   0  0  0  0  0  0  0  0  0  0  0  0
   58.4660   30.5820   45.7650 C   0  0  0  0  0  0  0  0  0  0  0  0
   58.1460   31.5760   44.8180 C   0  0  0  0  0  0  0  0  0  0  0  0
   57.4200   31.2610   43.6730 C   0  0  0  0  0  0  0  0  0  0  0  0
   57.0300   29.9500   43.4360 C   0  0  0  0  0  0  0  0  0  0  0  0
   57.3640   28.9430   44.3430 C   0  0  0  0  0  0  0  0  0  0  0  0
   58.0760   29.2370   45.5330 C   0  0  0  0  0  0  0  0  0  0  0  0
   58.4010   28.2540   46.4480 N   0  0  0  0  0  0  0  0  0  0  0  0
   57.7550   26.9270   46.3680 C   0  0  0  0  0  0  0  0  0  0  0  0
   59.3140   28.5230   47.4510 C   0  0  0  0  0  0  0  0  0  0  0  0
   59.9110   27.4900   48.2120 C   0  0  0  0  0  0  0  0  0  0  0  0
   60.7740   27.7780   49.2670 C   0  0  0  0  0  0  0  0  0  0  0  0
   61.0930   29.0960   49.5890 C   0  0  0  0  0  0  0  0  0  0  0  0
   61.9800   29.3110   50.6600 O   0  0  0  0  0  0  0  0  0  0  0  0
   62.2460   30.5610   51.2940 C   0  0  0  0  0  0  0  0  0  0  0  0
   63.6470   31.0880   50.8990 C   0  0  0  0  0  0  0  0  0  0  0  0
   63.6530   32.3120   50.0280 N   0  0  0  0  0  0  0  0  0  0  0  0
   64.5290   33.3600   50.6210 C   0  0  0  0  0  0  0  0  0  0  0  0
   62.2490   32.8430   49.9940 C   0  0  0  0  0  0  0  0  0  0  0  0
   61.9730   33.7230   48.7590 C   0  0  0  0  0  0  0  0  0  0  0  0
   62.1910   33.0000   47.4770 N   0  0  0  0  0  0  0  0  0  0  0  0
   62.7530   33.9060   46.4520 C   0  0  0  0  0  0  0  0  0  0  0  0
   63.0070   31.7750   47.6280 C   0  0  0  0  0  0  0  0  0  0  0  0
   64.1440   31.9660   48.6500 C   0  0  0  0  0  0  0  0  0  0  0  0
   60.5410   30.1390   48.8250 C   0  0  0  0  0  0  0  0  0  0  0  0
   59.6780   29.8630   47.7410 C   0  0  0  0  0  0  0  0  0  0  0  0
   58.1411   30.7623   52.9252 H   0  0  0  0  0  0  0  0  0  0  0  0
   58.7138   29.2855   52.0782 H   0  0  0  0  0  0  0  0  0  0  0  0
   59.7251   30.7700   52.0782 H   0  0  0  0  0  0  0  0  0  0  0  0
   58.5713   30.4737   49.9045 H   0  0  0  0  0  0  0  0  0  0  0  0
   56.9757   30.4674   50.7821 H   0  0  0  0  0  0  0  0  0  0  0  0
   56.9880   32.5990   50.2790 H   0  0  0  0  0  0  0  0  0  0  0  0
   57.9002   32.1985   52.7776 H   0  0  0  0  0  0  0  0  0  0  0  0
   59.0345   33.4186   52.1058 H   0  0  0  0  0  0  0  0  0  0  0  0
   57.2671   33.7394   52.1058 H   0  0  0  0  0  0  0  0  0  0  0  0
   59.3330   33.8252   50.1336 H   0  0  0  0  0  0  0  0  0  0  0  0
   59.8188   32.1075   49.7771 H   0  0  0  0  0  0  0  0  0  0  0  0
   57.5024   32.6107   48.2277 H   0  0  0  0  0  0  0  0  0  0  0  0
   58.5987   34.0655   48.0552 H   0  0  0  0  0  0  0  0  0  0  0  0
   60.0920   32.8300   46.8110 H   0  0  0  0  0  0  0  0  0  0  0  0
   58.4738   32.6125   44.9859 H   0  0  0  0  0  0  0  0  0  0  0  0
   57.1551   32.0515   42.9554 H   0  0  0  0  0  0  0  0  0  0  0  0
   56.4559   29.7040   42.5305 H   0  0  0  0  0  0  0  0  0  0  0  0
   57.0700   27.9045   44.1309 H   0  0  0  0  0  0  0  0  0  0  0  0
   57.5702   26.5473   47.3837 H   0  0  0  0  0  0  0  0  0  0  0  0
   56.7995   27.0162   45.8304 H   0  0  0  0  0  0  0  0  0  0  0  0
   58.4146   26.2299   45.8304 H   0  0  0  0  0  0  0  0  0  0  0  0
   59.6897   26.4409   47.9661 H   0  0  0  0  0  0  0  0  0  0  0  0
   61.2090   26.9551   49.8531 H   0  0  0  0  0  0  0  0  0  0  0  0
   61.4847   31.2921   50.9843 H   0  0  0  0  0  0  0  0  0  0  0  0
   62.2166   30.4178   52.3842 H   0  0  0  0  0  0  0  0  0  0  0  0
   64.1929   31.3268   51.8237 H   0  0  0  0  0  0  0  0  0  0  0  0
   64.1142   30.2899   50.3034 H   0  0  0  0  0  0  0  0  0  0  0  0
   64.4798   33.3012   51.7183 H   0  0  0  0  0  0  0  0  0  0  0  0
   65.5663   33.2005   50.2914 H   0  0  0  0  0  0  0  0  0  0  0  0
   64.1880   34.3525   50.2914 H   0  0  0  0  0  0  0  0  0  0  0  0
   61.5517   31.9923   49.9823 H   0  0  0  0  0  0  0  0  0  0  0  0
   62.1109   33.4716   50.8861 H   0  0  0  0  0  0  0  0  0  0  0  0
   60.9280   34.0644   48.7969 H   0  0  0  0  0  0  0  0  0  0  0  0
   62.6785   34.5664   48.7883 H   0  0  0  0  0  0  0  0  0  0  0  0
   63.2712   34.7414   46.9455 H   0  0  0  0  0  0  0  0  0  0  0  0
   63.4661   33.3518   45.8241 H   0  0  0  0  0  0  0  0  0  0  0  0
   61.9397   34.2987   45.8241 H   0  0  0  0  0  0  0  0  0  0  0  0
   62.3577   30.9545   47.9673 H   0  0  0  0  0  0  0  0  0  0  0  0
   63.4599   31.5440   46.6525 H   0  0  0  0  0  0  0  0  0  0  0  0
   64.7208   31.0312   48.7094 H   0  0  0  0  0  0  0  0  0  0  0  0
   64.7572   32.8100   48.3012 H   0  0  0  0  0  0  0  0  0  0  0  0
   60.7839   31.1825   49.0742 H   0  0  0  0  0  0  0  0  0  0  0  0
  1  2  1  0
  2  3  1  0
  3  4  1  0
  3  5  1  0
  5  6  1  0
  6  7  1  0
  7  8  1  0
  8  9  2  0
  9 10  1  0
 10 11  2  0
 11 12  1  0
 12 13  2  0
 13 14  1  0
 14 15  2  0
 15 16  1  0
 15 17  1  0
 17 18  2  0
 18 19  1  0
 19 20  2  0
 20 21  1  0
 21 22  1  0
 22 23  1  0
 23 24  1  0
 24 25  1  0
 24 26  1  0
 26 27  1  0
 27 28  1  0
 28 29  1  0
 28 30  1  0
 30 31  1  0
 20 32  1  0
 32 33  2  0
 33  8  1  0
 14  9  1  0
 33 17  1  0
 31 24  1  0
  1 34  1  0
  1 35  1  0
  1 36  1  0
  2 37  1  0
  2 38  1  0
  3 39  1  6
  4 40  1  0
  4 41  1  0
  4 42  1  0
  5 43  1  0
  5 44  1  0
  6 45  1  0
  6 46  1  0
  7 47  1  0
 10 48  1  0
 11 49  1  0
 12 50  1  0
 13 51  1  0
 16 52  1  0
 16 53  1  0
 16 54  1  0
 18 55  1  0
 19 56  1  0
 22 57  1  0
 22 58  1  0
 23 59  1  0
 23 60  1  0
 25 61  1  0
 25 62  1  0
 25 63  1  0
 26 64  1  0
 26 65  1  0
 27 66  1  0
 27 67  1  0
 29 68  1  0
 29 69  1  0
 29 70  1  0
 30 71  1  0
 30 72  1  0
 31 73  1  0
 31 74  1  0
 32 75  1  0
M  CHG  3   3   1  15   1  24   1
M  END
>  <UniqueID>  (4) 
4

>  <SMILES>  (4) 
CC[N@@H+](C)CCNc1c2ccccc2[n+](C)c2ccc(OCC[N+]3(C)CCN(C)CC3)cc12

>  <Energy>  (4) 
124.19976227308051

>  <Genealogy>  (4) 
CC[NH+](C)CCNc1c2ccccc2[n+](C)c2ccc(OCC[N+]3(C)CCN(C)CC3)cc12 (protonated)
CC[N@@H+](C)CCNc1c2ccccc2[n+](C)c2ccc(OCC[N+]3(C)CCN(C)CC3)cc12 (chirality)
CC[N@@H+](C)CCNc1c2ccccc2[n+](C)c2ccc(OCC[N+]3(C)CCN(C)CC3)cc12 (3D coordinates assigned)
CC[N@@H+](C)CCNc1c2ccccc2[n+](C)c2ccc(OCC[N+]3(C)CCN(C)CC3)cc12 (nonaromatic ring conformer: 124.19976227308051 kcal/mol)

>  <smiles>  (4) 
CCN(C)CCNc1c2ccccc2[n+](C)c2ccc(OCC[N+]3(C)CCN(C)CC3)cc12

>  <score_type>  (4) 
oracle

>  <origin>  (4) 
adg

>  <m_score__min__energy>  (4) 
-3.4500000000000002

>  <m_primary>  (4) 
energy

$$$$
4:0
     RDKit          3D

 77 80  0  0  0  0  0  0  0  0999 V2000
   61.4830   27.4600   51.5200 C   0  0  0  0  0  0  0  0  0  0  0  0
   61.4460   28.9590   51.8110 C   0  0  0  0  0  0  0  0  0  0  0  0
   61.7610   29.7360   50.5980 N   0  0  0  0  0  0  0  0  0  0  0  0
   63.0310   30.4820   50.5490 C   0  0  0  0  0  0  0  0  0  0  0  0
   63.8080   30.3270   51.8550 C   0  0  0  0  0  0  0  0  0  0  0  0
   60.8600   29.7310   49.4640 C   0  0  0  0  0  0  0  0  0  0  0  0
   59.5150   29.3430   49.6170 C   0  0  0  0  0  0  0  0  0  0  0  0
   58.6560   29.2990   48.5170 C   0  0  0  0  0  0  0  0  0  0  0  0
   59.1240   29.6280   47.2350 C   0  0  0  0  0  0  0  0  0  0  0  0
   58.2120   29.5530   46.0380 C   0  0  0  0  0  0  0  0  0  0  0  0
   58.8840   30.0490   44.7550 C   0  0  0  0  0  0  0  0  0  0  0  0
   57.8690   30.5370   43.7840 N   0  0  0  0  0  0  0  0  0  0  0  0
   56.9580   29.4470   43.3870 C   0  0  0  0  0  0  0  0  0  0  0  0
   57.0880   31.6670   44.3370 C   0  0  0  0  0  0  0  0  0  0  0  0
   58.0050   32.8470   44.7200 C   0  0  0  0  0  0  0  0  0  0  0  0
   57.3740   33.7900   45.7670 C   0  0  0  0  0  0  0  0  0  0  0  0
   58.2540   34.0210   47.0110 C   0  0  0  0  0  0  0  0  0  0  0  0
   58.6610   32.7530   47.6540 N   0  0  0  0  0  0  0  0  0  0  0  0
   59.7450   32.9760   48.6050 C   0  0  0  0  0  0  0  0  0  0  0  0
   59.5170   32.8220   49.9990 C   0  0  0  0  0  0  0  0  0  0  0  0
   58.2240   32.5520   50.5150 C   0  0  0  0  0  0  0  0  0  0  0  0
   58.0280   32.2980   51.8700 C   0  0  0  0  0  0  0  0  0  0  0  0
   59.1070   32.3030   52.7410 C   0  0  0  0  0  0  0  0  0  0  0  0
   60.3790   32.6220   52.2740 C   0  0  0  0  0  0  0  0  0  0  0  0
   60.6040   32.9480   50.9110 C   0  0  0  0  0  0  0  0  0  0  0  0
   61.8410   33.3700   50.4680 N   0  0  0  0  0  0  0  0  0  0  0  0
   62.8680   33.8020   51.4470 C   0  0  0  0  0  0  0  0  0  0  0  0
   62.1060   33.4510   49.1160 C   0  0  0  0  0  0  0  0  0  0  0  0
   63.4260   33.6600   48.6350 C   0  0  0  0  0  0  0  0  0  0  0  0
   63.6830   33.8420   47.2790 C   0  0  0  0  0  0  0  0  0  0  0  0
   62.6400   33.8070   46.3650 C   0  0  0  0  0  0  0  0  0  0  0  0
   61.3450   33.5410   46.7980 C   0  0  0  0  0  0  0  0  0  0  0  0
   61.0530   33.3180   48.1650 C   0  0  0  0  0  0  0  0  0  0  0  0
   60.4530   30.0480   47.0810 C   0  0  0  0  0  0  0  0  0  0  0  0
   61.3130   30.0990   48.1820 C   0  0  0  0  0  0  0  0  0  0  0  0
   61.4968   26.9026   52.4682 H   0  0  0  0  0  0  0  0  0  0  0  0
   60.5916   27.1768   50.9411 H   0  0  0  0  0  0  0  0  0  0  0  0
   62.3873   27.2211   50.9411 H   0  0  0  0  0  0  0  0  0  0  0  0
   60.4409   29.2331   52.1639 H   0  0  0  0  0  0  0  0  0  0  0  0
   62.1977   29.1873   52.5809 H   0  0  0  0  0  0  0  0  0  0  0  0
   63.6421   30.0976   49.7191 H   0  0  0  0  0  0  0  0  0  0  0  0
   62.8054   31.5483   50.4000 H   0  0  0  0  0  0  0  0  0  0  0  0
   63.1250   30.4633   52.7064 H   0  0  0  0  0  0  0  0  0  0  0  0
   64.2536   29.3223   51.8995 H   0  0  0  0  0  0  0  0  0  0  0  0
   64.6050   31.0839   51.8995 H   0  0  0  0  0  0  0  0  0  0  0  0
   59.1370   29.0717   50.6137 H   0  0  0  0  0  0  0  0  0  0  0  0
   57.6053   29.0045   48.6559 H   0  0  0  0  0  0  0  0  0  0  0  0
   57.9055   28.5065   45.8935 H   0  0  0  0  0  0  0  0  0  0  0  0
   57.3481   30.2047   46.2355 H   0  0  0  0  0  0  0  0  0  0  0  0
   59.5716   30.8713   45.0023 H   0  0  0  0  0  0  0  0  0  0  0  0
   59.4358   29.2136   44.2994 H   0  0  0  0  0  0  0  0  0  0  0  0
   56.5525   28.9619   44.2871 H   0  0  0  0  0  0  0  0  0  0  0  0
   56.1319   29.8591   42.7889 H   0  0  0  0  0  0  0  0  0  0  0  0
   57.5102   28.7072   42.7889 H   0  0  0  0  0  0  0  0  0  0  0  0
   56.3641   32.0062   43.5814 H   0  0  0  0  0  0  0  0  0  0  0  0
   56.5702   31.3208   45.2437 H   0  0  0  0  0  0  0  0  0  0  0  0
   58.9415   32.4431   45.1321 H   0  0  0  0  0  0  0  0  0  0  0  0
   58.1770   33.4378   43.8082 H   0  0  0  0  0  0  0  0  0  0  0  0
   57.1879   34.7631   45.2890 H   0  0  0  0  0  0  0  0  0  0  0  0
   56.4494   33.3067   46.1155 H   0  0  0  0  0  0  0  0  0  0  0  0
   59.1578   34.5700   46.7080 H   0  0  0  0  0  0  0  0  0  0  0  0
   57.6620   34.5933   47.7404 H   0  0  0  0  0  0  0  0  0  0  0  0
   57.8610   32.2840   48.1280 H   0  0  0  0  0  0  0  0  0  0  0  0
   58.9210   32.0520   46.9270 H   0  0  0  0  0  0  0  0  0  0  0  0
   57.3609   32.5431   49.8331 H   0  0  0  0  0  0  0  0  0  0  0  0
   57.0162   32.0932   52.2499 H   0  0  0  0  0  0  0  0  0  0  0  0
   58.9576   32.0546   53.8021 H   0  0  0  0  0  0  0  0  0  0  0  0
   61.2266   32.6214   52.9752 H   0  0  0  0  0  0  0  0  0  0  0  0
   62.4909   33.6434   52.4681 H   0  0  0  0  0  0  0  0  0  0  0  0
   63.7856   33.2136   51.2995 H   0  0  0  0  0  0  0  0  0  0  0  0
   63.0892   34.8694   51.2995 H   0  0  0  0  0  0  0  0  0  0  0  0
   64.2627   33.6784   49.3489 H   0  0  0  0  0  0  0  0  0  0  0  0
   64.7128   34.0135   46.9324 H   0  0  0  0  0  0  0  0  0  0  0  0
   62.8369   33.9895   45.2983 H   0  0  0  0  0  0  0  0  0  0  0  0
   60.5292   33.5031   46.0611 H   0  0  0  0  0  0  0  0  0  0  0  0
   60.8216   30.3395   46.0864 H   0  0  0  0  0  0  0  0  0  0  0  0
   62.3533   30.4296   48.0459 H   0  0  0  0  0  0  0  0  0  0  0  0
  1  2  1  0
  2  3  1  0
  3  4  1  0
  4  5  1  0
  3  6  1  0
  6  7  2  0
  7  8  1  0
  8  9  2  0
  9 10  1  0
 10 11  1  0
 11 12  1  0
 12 13  1  0
 12 14  1  0
 14 15  1  0
 15 16  1  0
 16 17  1  0
 17 18  1  0
 18 19  1  0
 19 20  1  0
 20 21  2  0
 21 22  1  0
 22 23  2  0
 23 24  1  0
 24 25  2  0
 25 26  1  0
 26 27  1  0
 26 28  2  0
 28 29  1  0
 29 30  2  0
 30 31  1  0
 31 32  2  0
 32 33  1  0
  9 34  1  0
 34 35  2  0
 35  6  1  0
 33 19  2  0
 25 20  1  0
 33 28  1  0
  1 36  1  0
  1 37  1  0
  1 38  1  0
  2 39  1  0
  2 40  1  0
  4 41  1  0
  4 42  1  0
  5 43  1  0
  5 44  1  0
  5 45  1  0
  7 46  1  0
  8 47  1  0
 10 48  1  0
 10 49  1  0
 11 50  1  0
 11 51  1  0
 13 52  1  0
 13 53  1  0
 13 54  1  0
 14 55  1  0
 14 56  1  0
 15 57  1  0
 15 58  1  0
 16 59  1  0
 16 60  1  0
 17 61  1  0
 17 62  1  0
 18 63  1  0
 18 64  1  0
 21 65  1  0
 22 66  1  0
 23 67  1  0
 24 68  1  0
 27 69  1  0
 27 70  1  0
 27 71  1  0
 29 72  1  0
 30 73  1  0
 31 74  1  0
 32 75  1  0
 34 76  1  0
 35 77  1  0
M  CHG  2  18   1  26   1
M  END
>  <UniqueID>  (5) 
5

>  <SMILES>  (5) 
CCN(CC)c1ccc(CCN(C)CCCC[NH2+]c2c3ccccc3[n+](C)c3ccccc23)cc1

>  <Energy>  (5) 
103.90196346700053

>  <Genealogy>  (5) 
CCN(CC)c1ccc(CCN(C)CCCC[NH2+]c2c3ccccc3[n+](C)c3ccccc23)cc1 (protonated)
CCN(CC)c1ccc(CCN(C)CCCC[NH2+]c2c3ccccc3[n+](C)c3ccccc23)cc1 (3D coordinates assigned)
CCN(CC)c1ccc(CCN(C)CCCC[NH2+]c2c3ccccc3[n+](C)c3ccccc23)cc1 (optimized conformer: 103.90196346700053 kcal/mol)

>  <smiles>  (5) 
CCN(CC)c1ccc(CCN(C)CCCCNc2c3ccccc3[n+](C)c3ccccc23)cc1

>  <score_type>  (5) 
oracle

>  <origin>  (5) 
adg

>  <m_score__min__energy>  (5) 
-6.2400000000000002

>  <m_primary>  (5) 
energy

$$$$
5:0
     RDKit          3D

 52 54  0  0  0  0  0  0  0  0999 V2000
   63.7520   33.1240   47.1030 C   0  0  0  0  0  0  0  0  0  0  0  0
   63.4370   32.2780   48.3360 C   0  0  0  0  0  0  0  0  0  0  0  0
   62.0100   32.3870   48.7220 N   0  0  0  0  0  0  0  0  0  0  0  0
   61.7500   33.6130   49.5220 C   0  0  0  0  0  0  0  0  0  0  0  0
   60.3730   34.1730   49.1830 C   0  0  0  0  0  0  0  0  0  0  0  0
   61.5800   31.1650   49.4440 C   0  0  0  0  0  0  0  0  0  0  0  0
   60.8830   30.1760   48.5000 C   0  0  0  0  0  0  0  0  0  0  0  0
   60.9880   30.6110   47.1050 N   0  0  0  0  0  0  0  0  0  0  0  0
   59.8690   30.5460   46.2030 C   0  0  0  0  0  0  0  0  0  0  0  0
   59.2660   31.7300   45.7370 C   0  0  0  0  0  0  0  0  0  0  0  0
   59.7770   32.9950   46.1010 C   0  0  0  0  0  0  0  0  0  0  0  0
   59.1440   34.1730   45.6950 C   0  0  0  0  0  0  0  0  0  0  0  0
   59.6640   35.5070   46.1440 C   0  0  0  0  0  0  0  0  0  0  0  0
   57.9630   34.0960   44.9580 C   0  0  0  0  0  0  0  0  0  0  0  0
   57.4500   32.8590   44.5740 C   0  0  0  0  0  0  0  0  0  0  0  0
   58.1110   31.6500   44.9140 C   0  0  0  0  0  0  0  0  0  0  0  0
   57.6420   30.4220   44.4870 N   0  0  0  0  0  0  0  0  0  0  0  0
   56.6150   30.3520   43.4210 C   0  0  0  0  0  0  0  0  0  0  0  0
   58.1630   29.2580   45.0190 C   0  0  0  0  0  0  0  0  0  0  0  0
   57.5590   27.9940   44.7870 C   0  0  0  0  0  0  0  0  0  0  0  0
   58.1460   26.8170   45.2530 C   0  0  0  0  0  0  0  0  0  0  0  0
   57.3130   25.1320   44.9120 Br  0  0  0  0  0  0  0  0  0  0  0  0
   59.3430   26.8680   45.9590 C   0  0  0  0  0  0  0  0  0  0  0  0
   59.9310   28.0960   46.2470 C   0  0  0  0  0  0  0  0  0  0  0  0
   59.3280   29.3020   45.8300 C   0  0  0  0  0  0  0  0  0  0  0  0
   64.1196   34.1112   47.4198 H   0  0  0  0  0  0  0  0  0  0  0  0
   64.5233   32.6215   46.5008 H   0  0  0  0  0  0  0  0  0  0  0  0
   62.8399   33.2483   46.5008 H   0  0  0  0  0  0  0  0  0  0  0  0
   63.6678   31.2254   48.1152 H   0  0  0  0  0  0  0  0  0  0  0  0
   64.0490   32.6471   49.1722 H   0  0  0  0  0  0  0  0  0  0  0  0
   61.7889   33.3645   50.5929 H   0  0  0  0  0  0  0  0  0  0  0  0
   62.5152   34.3674   49.2867 H   0  0  0  0  0  0  0  0  0  0  0  0
   59.8283   34.3945   50.1126 H   0  0  0  0  0  0  0  0  0  0  0  0
   60.4870   35.0962   48.5959 H   0  0  0  0  0  0  0  0  0  0  0  0
   59.8103   33.4323   48.5959 H   0  0  0  0  0  0  0  0  0  0  0  0
   62.4635   30.6789   49.8835 H   0  0  0  0  0  0  0  0  0  0  0  0
   60.8666   31.4580   50.2283 H   0  0  0  0  0  0  0  0  0  0  0  0
   61.3546   29.1877   48.6041 H   0  0  0  0  0  0  0  0  0  0  0  0
   59.8179   30.1281   48.7706 H   0  0  0  0  0  0  0  0  0  0  0  0
   61.8150   31.1910   46.8350 H   0  0  0  0  0  0  0  0  0  0  0  0
   60.6883   33.0543   46.7142 H   0  0  0  0  0  0  0  0  0  0  0  0
   59.6784   35.5438   47.2433 H   0  0  0  0  0  0  0  0  0  0  0  0
   60.6842   35.6514   45.7589 H   0  0  0  0  0  0  0  0  0  0  0  0
   59.0106   36.3037   45.7589 H   0  0  0  0  0  0  0  0  0  0  0  0
   57.4327   35.0181   44.6779 H   0  0  0  0  0  0  0  0  0  0  0  0
   56.5148   32.8186   43.9963 H   0  0  0  0  0  0  0  0  0  0  0  0
   55.6166   30.2839   43.8776 H   0  0  0  0  0  0  0  0  0  0  0  0
   56.6720   31.2561   42.7970 H   0  0  0  0  0  0  0  0  0  0  0  0
   56.7941   29.4640   42.7970 H   0  0  0  0  0  0  0  0  0  0  0  0
   56.6118   27.9418   44.2302 H   0  0  0  0  0  0  0  0  0  0  0  0
   59.8256   25.9366   46.2902 H   0  0  0  0  0  0  0  0  0  0  0  0
   60.8775   28.1271   46.8066 H   0  0  0  0  0  0  0  0  0  0  0  0
  1  2  1  0
  2  3  1  0
  3  4  1  0
  4  5  1  0
  3  6  1  0
  6  7  1  0
  7  8  1  0
  8  9  1  0
  9 10  2  0
 10 11  1  0
 11 12  2  0
 12 13  1  0
 12 14  1  0
 14 15  2  0
 15 16  1  0
 16 17  2  0
 17 18  1  0
 17 19  1  0
 19 20  2  0
 20 21  1  0
 21 22  1  0
 21 23  2  0
 23 24  1  0
 24 25  2  0
 25  9  1  0
 16 10  1  0
 25 19  1  0
  1 26  1  0
  1 27  1  0
  1 28  1  0
  2 29  1  0
  2 30  1  0
  4 31  1  0
  4 32  1  0
  5 33  1  0
  5 34  1  0
  5 35  1  0
  6 36  1  0
  6 37  1  0
  7 38  1  0
  7 39  1  0
  8 40  1  0
 11 41  1  0
 13 42  1  0
 13 43  1  0
 13 44  1  0
 14 45  1  0
 15 46  1  0
 18 47  1  0
 18 48  1  0
 18 49  1  0
 20 50  1  0
 23 51  1  0
 24 52  1  0
M  CHG  1  17   1
M  END
>  <UniqueID>  (6) 
6

>  <SMILES>  (6) 
CCN(CC)CCNc1c2cc(C)ccc2[n+](C)c2cc(Br)ccc12

>  <Energy>  (6) 
72.1515932503523

>  <Genealogy>  (6) 
CCN(CC)CCNc1c2cc(C)ccc2[n+](C)c2cc(Br)ccc12 (3D coordinates assigned)
CCN(CC)CCNc1c2cc(C)ccc2[n+](C)c2cc(Br)ccc12 (optimized conformer: 72.1515932503523 kcal/mol)

>  <smiles>  (6) 
CCN(CC)CCNc1c2cc(C)ccc2[n+](C)c2cc(Br)ccc12

>  <score_type>  (6) 
oracle

>  <origin>  (6) 
adg

>  <m_score__min__energy>  (6) 
-6.2000000000000002

>  <m_primary>  (6) 
energy

$$$$
6:0
     RDKit          3D

 45 47  0  0  0  0  0  0  0  0999 V2000
   56.2690   29.7320   43.0210 C   0  0  0  0  0  0  0  0  0  0  0  0
   57.2210   30.2220   44.0580 C   0  0  0  0  0  0  0  0  0  0  0  0
   57.9270   31.3670   43.9510 N   0  0  0  0  0  0  0  0  0  0  0  0
   58.6130   31.4600   45.0770 N   0  0  0  0  0  0  0  0  0  0  0  0
   58.3050   30.3880   45.8270 C   0  0  0  0  0  0  0  0  0  0  0  0
   58.8440   30.1310   47.1970 C   0  0  0  0  0  0  0  0  0  0  0  0
   59.7850   31.2080   47.5670 N   0  0  0  0  0  0  0  0  0  0  0  0
   59.3040   31.9720   48.7410 C   0  0  0  0  0  0  0  0  0  0  0  0
   59.2000   33.4610   48.3920 C   0  0  0  0  0  0  0  0  0  0  0  0
   58.9020   33.6390   46.9540 N   0  0  0  0  0  0  0  0  0  0  0  0
   59.6240   34.8030   46.4080 C   0  0  0  0  0  0  0  0  0  0  0  0
   59.2670   35.0130   44.9210 C   0  0  0  0  0  0  0  0  0  0  0  0
   58.3660   34.0270   44.4540 O   0  0  0  0  0  0  0  0  0  0  0  0
   57.1770   34.0710   45.2200 C   0  0  0  0  0  0  0  0  0  0  0  0
   57.4540   33.7960   46.7120 C   0  0  0  0  0  0  0  0  0  0  0  0
   61.1470   30.6800   47.7850 C   0  0  0  0  0  0  0  0  0  0  0  0
   62.1440   31.8020   47.7350 C   0  0  0  0  0  0  0  0  0  0  0  0
   63.1610   31.9610   48.6880 C   0  0  0  0  0  0  0  0  0  0  0  0
   63.9610   33.0730   48.4650 C   0  0  0  0  0  0  0  0  0  0  0  0
   63.3990   33.8480   47.0830 S   0  0  0  0  0  0  0  0  0  0  0  0
   62.1400   32.7870   46.7530 C   0  0  0  0  0  0  0  0  0  0  0  0
   57.4420   29.6200   45.2050 O   0  0  0  0  0  0  0  0  0  0  0  0
   55.3933   29.2813   43.5109 H   0  0  0  0  0  0  0  0  0  0  0  0
   55.9445   30.5751   42.3934 H   0  0  0  0  0  0  0  0  0  0  0  0
   56.7666   28.9780   42.3934 H   0  0  0  0  0  0  0  0  0  0  0  0
   59.2580   32.2420   45.3230 H   0  0  0  0  0  0  0  0  0  0  0  0
   58.0141   30.1055   47.9185 H   0  0  0  0  0  0  0  0  0  0  0  0
   59.3701   29.1650   47.2083 H   0  0  0  0  0  0  0  0  0  0  0  0
   58.3132   31.5976   49.0380 H   0  0  0  0  0  0  0  0  0  0  0  0
   60.0154   31.8448   49.5703 H   0  0  0  0  0  0  0  0  0  0  0  0
   58.3948   33.9164   48.9872 H   0  0  0  0  0  0  0  0  0  0  0  0
   60.1611   33.9462   48.6178 H   0  0  0  0  0  0  0  0  0  0  0  0
   59.3448   35.7017   46.9775 H   0  0  0  0  0  0  0  0  0  0  0  0
   60.7057   34.6214   46.4915 H   0  0  0  0  0  0  0  0  0  0  0  0
   58.8040   36.0037   44.8022 H   0  0  0  0  0  0  0  0  0  0  0  0
   60.1931   34.9371   44.3324 H   0  0  0  0  0  0  0  0  0  0  0  0
   56.7235   35.0680   45.1187 H   0  0  0  0  0  0  0  0  0  0  0  0
   56.4972   33.2912   44.8462 H   0  0  0  0  0  0  0  0  0  0  0  0
   57.0772   34.6386   47.3104 H   0  0  0  0  0  0  0  0  0  0  0  0
   56.9444   32.8648   47.0004 H   0  0  0  0  0  0  0  0  0  0  0  0
   61.1958   30.1922   48.7697 H   0  0  0  0  0  0  0  0  0  0  0  0
   61.3831   29.9502   46.9965 H   0  0  0  0  0  0  0  0  0  0  0  0
   63.3101   31.2705   49.5312 H   0  0  0  0  0  0  0  0  0  0  0  0
   64.8130   33.3913   49.0837 H   0  0  0  0  0  0  0  0  0  0  0  0
   61.4370   32.8583   45.9100 H   0  0  0  0  0  0  0  0  0  0  0  0
  1  2  1  0
  2  3  2  0
  3  4  1  0
  4  5  2  0
  5  6  1  0
  6  7  1  0
  7  8  1  0
  8  9  1  0
  9 10  1  0
 10 11  1  0
 11 12  1  0
 12 13  1  0
 13 14  1  0
 14 15  1  0
  7 16  1  0
 16 17  1  0
 17 18  1  0
 18 19  2  0
 19 20  1  0
 20 21  1  0
  5 22  1  0
 22  2  1  0
 15 10  1  0
 21 17  2  0
  1 23  1  0
  1 24  1  0
  1 25  1  0
  4 26  1  0
  6 27  1  0
  6 28  1  0
  8 29  1  0
  8 30  1  0
  9 31  1  0
  9 32  1  0
 11 33  1  0
 11 34  1  0
 12 35  1  0
 12 36  1  0
 14 37  1  0
 14 38  1  0
 15 39  1  0
 15 40  1  0
 16 41  1  0
 16 42  1  0
 18 43  1  0
 19 44  1  0
 21 45  1  0
M  CHG  1   4   1
M  END
>  <UniqueID>  (7) 
7

>  <SMILES>  (7) 
Cc1n[nH+]c(CN(CCN2CCOCC2)Cc2ccsc2)o1

>  <Energy>  (7) 
110.06006218454668

>  <Genealogy>  (7) 
Cc1n[nH+]c(CN(CCN2CCOCC2)Cc2ccsc2)o1 (protonated)
Cc1n[nH+]c(CN(CCN2CCOCC2)Cc2ccsc2)o1 (3D coordinates assigned)
Cc1n[nH+]c(CN(CCN2CCOCC2)Cc2ccsc2)o1 (nonaromatic ring conformer: 110.06006218454668 kcal/mol)

>  <smiles>  (7) 
Cc1nnc(CN(CCN2CCOCC2)Cc2ccsc2)o1

>  <score_type>  (7) 
oracle

>  <origin>  (7) 
adg

>  <m_score__min__energy>  (7) 
-5.0099999999999998

>  <m_primary>  (7) 
energy

$$$$
7:0
     RDKit          3D

 54 56  0  0  0  0  0  0  0  0999 V2000
   66.8370   30.7500   50.9360 C   0  0  0  0  0  0  0  0  0  0  0  0
   66.0450   31.8070   50.2870 N   0  0  0  0  0  0  0  0  0  0  0  0
   66.6930   33.1180   50.4460 C   0  0  0  0  0  0  0  0  0  0  0  0
   64.6330   31.8110   50.7340 C   0  0  0  0  0  0  0  0  0  0  0  0
   63.6700   32.3440   49.6910 C   0  0  0  0  0  0  0  0  0  0  0  0
   64.0870   32.6720   48.4490 N   0  0  0  0  0  0  0  0  0  0  0  0
   62.9740   33.0380   47.8010 C   0  0  0  0  0  0  0  0  0  0  0  0
   62.8880   33.4920   46.4930 C   0  0  0  0  0  0  0  0  0  0  0  0
   61.6260   33.8400   46.0020 C   0  0  0  0  0  0  0  0  0  0  0  0
   60.4820   33.6960   46.8080 C   0  0  0  0  0  0  0  0  0  0  0  0
   59.2730   34.0110   46.2730 F   0  0  0  0  0  0  0  0  0  0  0  0
   60.5740   33.2060   48.1380 C   0  0  0  0  0  0  0  0  0  0  0  0
   59.2740   32.8960   48.8650 C   0  0  0  0  0  0  0  0  0  0  0  0
   58.4990   31.8460   48.1840 N   0  0  0  0  0  0  0  0  0  0  0  0
   59.3530   30.7450   47.7210 C   0  0  0  0  0  0  0  0  0  0  0  0
   59.2220   30.5610   46.2020 C   0  0  0  0  0  0  0  0  0  0  0  0
   57.8450   30.8300   45.7290 N   0  0  0  0  0  0  0  0  0  0  0  0
   57.7980   32.0190   44.8420 C   0  0  0  0  0  0  0  0  0  0  0  0
   57.7380   31.6240   43.3560 C   0  0  0  0  0  0  0  0  0  0  0  0
   56.6100   30.8250   43.0230 O   0  0  0  0  0  0  0  0  0  0  0  0
   56.1390   30.0250   44.0990 C   0  0  0  0  0  0  0  0  0  0  0  0
   57.2380   29.6320   45.1000 C   0  0  0  0  0  0  0  0  0  0  0  0
   61.8800   32.9170   48.6270 C   0  0  0  0  0  0  0  0  0  0  0  0
   62.3200   32.5010   49.8480 N   0  0  0  0  0  0  0  0  0  0  0  0
   61.5710   32.4140   51.1040 C   0  0  0  0  0  0  0  0  0  0  0  0
   66.7601   30.8527   52.0285 H   0  0  0  0  0  0  0  0  0  0  0  0
   66.4527   29.7651   50.6323 H   0  0  0  0  0  0  0  0  0  0  0  0
   67.8902   30.8422   50.6323 H   0  0  0  0  0  0  0  0  0  0  0  0
   66.8048   33.3443   51.5166 H   0  0  0  0  0  0  0  0  0  0  0  0
   67.6845   33.0971   49.9701 H   0  0  0  0  0  0  0  0  0  0  0  0
   66.0742   33.8930   49.9701 H   0  0  0  0  0  0  0  0  0  0  0  0
   64.3429   30.7790   50.9807 H   0  0  0  0  0  0  0  0  0  0  0  0
   64.5709   32.4810   51.6042 H   0  0  0  0  0  0  0  0  0  0  0  0
   65.0600   32.6450   48.0730 H   0  0  0  0  0  0  0  0  0  0  0  0
   63.7849   33.5756   45.8617 H   0  0  0  0  0  0  0  0  0  0  0  0
   61.5269   34.2292   44.9780 H   0  0  0  0  0  0  0  0  0  0  0  0
   59.5092   32.5587   49.8853 H   0  0  0  0  0  0  0  0  0  0  0  0
   58.6656   33.8123   48.8796 H   0  0  0  0  0  0  0  0  0  0  0  0
   57.9950   32.2570   47.3630 H   0  0  0  0  0  0  0  0  0  0  0  0
   60.4006   30.9714   47.9687 H   0  0  0  0  0  0  0  0  0  0  0  0
   59.0361   29.8169   48.2192 H   0  0  0  0  0  0  0  0  0  0  0  0
   59.9123   31.2542   45.6991 H   0  0  0  0  0  0  0  0  0  0  0  0
   59.4657   29.5152   45.9635 H   0  0  0  0  0  0  0  0  0  0  0  0
   56.9048   32.6118   45.0888 H   0  0  0  0  0  0  0  0  0  0  0  0
   58.7172   32.6013   45.0032 H   0  0  0  0  0  0  0  0  0  0  0  0
   57.7026   32.5435   42.7532 H   0  0  0  0  0  0  0  0  0  0  0  0
   58.6333   31.0200   43.1471 H   0  0  0  0  0  0  0  0  0  0  0  0
   55.3630   30.5886   44.6378 H   0  0  0  0  0  0  0  0  0  0  0  0
   55.7514   29.0926   43.6626 H   0  0  0  0  0  0  0  0  0  0  0  0
   56.7986   28.9987   45.8847 H   0  0  0  0  0  0  0  0  0  0  0  0
   58.0247   29.0877   44.5570 H   0  0  0  0  0  0  0  0  0  0  0  0
   62.2668   32.4948   51.9522 H   0  0  0  0  0  0  0  0  0  0  0  0
   60.8383   33.2331   51.1515 H   0  0  0  0  0  0  0  0  0  0  0  0
   61.0455   31.4488   51.1515 H   0  0  0  0  0  0  0  0  0  0  0  0
  1  2  1  0
  2  3  1  0
  2  4  1  0
  4  5  1  0
  5  6  2  0
  6  7  1  0
  7  8  2  0
  8  9  1  0
  9 10  2  0
 10 11  1  0
 10 12  1  0
 12 13  1  0
 13 14  1  0
 14 15  1  0
 15 16  1  0
 16 17  1  0
 17 18  1  0
 18 19  1  0
 19 20  1  0
 20 21  1  0
 21 22  1  0
 12 23  2  0
 23 24  1  0
 24 25  1  0
 24  5  1  0
 23  7  1  0
 22 17  1  0
  1 26  1  0
  1 27  1  0
  1 28  1  0
  3 29  1  0
  3 30  1  0
  3 31  1  0
  4 32  1  0
  4 33  1  0
  6 34  1  0
  8 35  1  0
  9 36  1  0
 13 37  1  0
 13 38  1  0
 14 39  1  0
 15 40  1  0
 15 41  1  0
 16 42  1  0
 16 43  1  0
 18 44  1  0
 18 45  1  0
 19 46  1  0
 19 47  1  0
 21 48  1  0
 21 49  1  0
 22 50  1  0
 22 51  1  0
 25 52  1  0
 25 53  1  0
 25 54  1  0
M  CHG  1   6   1
M  END
>  <UniqueID>  (8) 
8

>  <SMILES>  (8) 
CN(C)Cc1[nH+]c2ccc(F)c(CNCCN3CCOCC3)c2n1C

>  <Energy>  (8) 
114.8578492843609

>  <Genealogy>  (8) 
CN(C)Cc1[nH+]c2ccc(F)c(CNCCN3CCOCC3)c2n1C (protonated)
CN(C)Cc1[nH+]c2ccc(F)c(CNCCN3CCOCC3)c2n1C (3D coordinates assigned)
CN(C)Cc1[nH+]c2ccc(F)c(CNCCN3CCOCC3)c2n1C (nonaromatic ring conformer: 114.8578492843609 kcal/mol)

>  <smiles>  (8) 
CN(C)Cc1nc2ccc(F)c(CNCCN3CCOCC3)c2n1C

>  <score_type>  (8) 
oracle

>  <origin>  (8) 
adg

>  <m_score__min__energy>  (8) 
-5.3700000000000001

>  <m_primary>  (8) 
energy

$$$$
8:0
     RDKit          3D

 41 42  0  0  0  0  0  0  0  0999 V2000
   56.8180   30.6320   43.1640 C   0  0  0  0  0  0  0  0  0  0  0  0
   56.5750   31.0310   44.5100 O   0  0  0  0  0  0  0  0  0  0  0  0
   57.3950   31.9060   45.2390 C   0  0  0  0  0  0  0  0  0  0  0  0
   57.0670   33.2640   45.4190 C   0  0  0  0  0  0  0  0  0  0  0  0
   57.9090   34.1030   46.1530 C   0  0  0  0  0  0  0  0  0  0  0  0
   59.0930   33.6040   46.7160 C   0  0  0  0  0  0  0  0  0  0  0  0
   59.9920   34.5030   47.5320 C   0  0  0  0  0  0  0  0  0  0  0  0
   59.6630   34.4540   48.9670 N   0  0  0  0  0  0  0  0  0  0  0  0
   60.7420   33.8430   49.7610 C   0  0  0  0  0  0  0  0  0  0  0  0
   60.2760   32.5260   50.3970 C   0  0  0  0  0  0  0  0  0  0  0  0
   58.9410   32.1560   49.8710 N   0  0  0  0  0  0  0  0  0  0  0  0
   57.8660   32.3120   50.8750 C   0  0  0  0  0  0  0  0  0  0  0  0
   57.8250   31.1380   51.8720 C   0  0  0  0  0  0  0  0  0  0  0  0
   57.7350   29.8980   51.1980 O   0  0  0  0  0  0  0  0  0  0  0  0
   58.8730   29.7220   50.3780 C   0  0  0  0  0  0  0  0  0  0  0  0
   58.9140   30.8000   49.2860 C   0  0  0  0  0  0  0  0  0  0  0  0
   59.4200   32.2510   46.5420 C   0  0  0  0  0  0  0  0  0  0  0  0
   58.5780   31.4070   45.8080 C   0  0  0  0  0  0  0  0  0  0  0  0
   59.0180   29.7190   45.6080 Cl  0  0  0  0  0  0  0  0  0  0  0  0
   57.3902   29.6925   43.1577 H   0  0  0  0  0  0  0  0  0  0  0  0
   55.8586   30.4805   42.6476 H   0  0  0  0  0  0  0  0  0  0  0  0
   57.3928   31.4149   42.6476 H   0  0  0  0  0  0  0  0  0  0  0  0
   56.1425   33.6662   44.9791 H   0  0  0  0  0  0  0  0  0  0  0  0
   57.6420   35.1612   46.2903 H   0  0  0  0  0  0  0  0  0  0  0  0
   61.0350   34.1814   47.3953 H   0  0  0  0  0  0  0  0  0  0  0  0
   59.8464   35.5364   47.1844 H   0  0  0  0  0  0  0  0  0  0  0  0
   58.7940   33.8780   49.0770 H   0  0  0  0  0  0  0  0  0  0  0  0
   59.4640   35.4200   49.3190 H   0  0  0  0  0  0  0  0  0  0  0  0
   61.6020   33.6418   49.1053 H   0  0  0  0  0  0  0  0  0  0  0  0
   61.0254   34.5398   50.5636 H   0  0  0  0  0  0  0  0  0  0  0  0
   60.9961   31.7300   50.1565 H   0  0  0  0  0  0  0  0  0  0  0  0
   60.2127   32.6533   51.4878 H   0  0  0  0  0  0  0  0  0  0  0  0
   58.0353   33.2447   51.4330 H   0  0  0  0  0  0  0  0  0  0  0  0
   56.9052   32.3339   50.3399 H   0  0  0  0  0  0  0  0  0  0  0  0
   58.7421   31.1507   52.4792 H   0  0  0  0  0  0  0  0  0  0  0  0
   56.9362   31.2533   52.5097 H   0  0  0  0  0  0  0  0  0  0  0  0
   59.7803   29.7962   50.9955 H   0  0  0  0  0  0  0  0  0  0  0  0
   58.8215   28.7318   49.9018 H   0  0  0  0  0  0  0  0  0  0  0  0
   59.8165   30.6558   48.6739 H   0  0  0  0  0  0  0  0  0  0  0  0
   58.0071   30.7054   48.6706 H   0  0  0  0  0  0  0  0  0  0  0  0
   60.3438   31.8506   46.9851 H   0  0  0  0  0  0  0  0  0  0  0  0
  1  2  1  0
  2  3  1  0
  3  4  2  0
  4  5  1  0
  5  6  2  0
  6  7  1  0
  7  8  1  0
  8  9  1  0
  9 10  1  0
 10 11  1  0
 11 12  1  0
 12 13  1  0
 13 14  1  0
 14 15  1  0
 15 16  1  0
  6 17  1  0
 17 18  2  0
 18 19  1  0
 18  3  1  0
 16 11  1  0
  1 20  1  0
  1 21  1  0
  1 22  1  0
  4 23  1  0
  5 24  1  0
  7 25  1  0
  7 26  1  0
  8 27  1  0
  8 28  1  0
  9 29  1  0
  9 30  1  0
 10 31  1  0
 10 32  1  0
 12 33  1  0
 12 34  1  0
 13 35  1  0
 13 36  1  0
 15 37  1  0
 15 38  1  0
 16 39  1  0
 16 40  1  0
 17 41  1  0
M  CHG  1   8   1
M  END
>  <UniqueID>  (9) 
9

>  <SMILES>  (9) 
COc1ccc(C[NH2+]CCN2CCOCC2)cc1Cl

>  <Energy>  (9) 
43.179124781038745

>  <Genealogy>  (9) 
COc1ccc(C[NH2+]CCN2CCOCC2)cc1Cl (protonated)
COc1ccc(C[NH2+]CCN2CCOCC2)cc1Cl (3D coordinates assigned)
COc1ccc(C[NH2+]CCN2CCOCC2)cc1Cl (nonaromatic ring conformer: 43.179124781038745 kcal/mol)

>  <smiles>  (9) 
COc1ccc(CNCCN2CCOCC2)cc1Cl

>  <score_type>  (9) 
oracle

>  <origin>  (9) 
adg

>  <m_score__min__energy>  (9) 
-4.2999999999999998

>  <m_primary>  (9) 
energy

$$$$
9:0
     RDKit          3D

 94 96  0  0  0  0  0  0  0  0999 V2000
   55.5677   26.8372   46.7000 H   0  0  0  0  0  0  0  0  0  0  0  0
   56.3800   27.0030   45.9770 C   0  0  0  0  0  0  0  0  0  0  0  0
   56.5930   28.1950   45.5080 N   0  0  0  0  0  0  0  0  0  0  0  0
   55.6530   28.9690   44.8470 O   0  0  0  0  0  0  0  0  0  0  0  0
   55.9290   29.7120   43.6610 C   0  0  0  0  0  0  0  0  0  0  0  0
   55.0223   30.2515   43.3498 H   0  0  0  0  0  0  0  0  0  0  0  0
   56.2424   29.0197   42.8657 H   0  0  0  0  0  0  0  0  0  0  0  0
   57.0550   30.7200   43.9240 C   0  0  0  0  0  0  0  0  0  0  0  0
   57.1062   31.4101   43.0689 H   0  0  0  0  0  0  0  0  0  0  0  0
   57.9769   30.1348   44.0570 H   0  0  0  0  0  0  0  0  0  0  0  0
   56.8870   31.4890   45.1070 O   0  0  0  0  0  0  0  0  0  0  0  0
   58.0460   31.5430   45.9270 C   0  0  0  0  0  0  0  0  0  0  0  0
   58.9262   31.3395   45.2994 H   0  0  0  0  0  0  0  0  0  0  0  0
   57.9162   30.7919   46.7201 H   0  0  0  0  0  0  0  0  0  0  0  0
   58.2460   32.9050   46.6210 C   0  0  0  0  0  0  0  0  0  0  0  0
   58.6861   32.7426   47.6159 H   0  0  0  0  0  0  0  0  0  0  0  0
   57.2694   33.4027   46.7136 H   0  0  0  0  0  0  0  0  0  0  0  0
   59.1490   33.7690   45.8240 N   0  0  0  0  0  0  0  0  0  0  0  0
   58.4970   34.2630   44.5850 C   0  0  0  0  0  0  0  0  0  0  0  0
   58.5718   33.4957   43.8004 H   0  0  0  0  0  0  0  0  0  0  0  0
   58.9987   35.1822   44.2482 H   0  0  0  0  0  0  0  0  0  0  0  0
   57.0280   34.5600   44.8670 C   0  0  0  0  0  0  0  0  0  0  0  0
   56.8628   34.5934   45.9540 H   0  0  0  0  0  0  0  0  0  0  0  0
   56.7588   35.5307   44.4252 H   0  0  0  0  0  0  0  0  0  0  0  0
   56.4028   33.7701   44.4252 H   0  0  0  0  0  0  0  0  0  0  0  0
   59.6770   34.8780   46.6500 C   0  0  0  0  0  0  0  0  0  0  0  0
   60.7480   35.0073   46.4349 H   0  0  0  0  0  0  0  0  0  0  0  0
   59.1187   35.7930   46.4028 H   0  0  0  0  0  0  0  0  0  0  0  0
   59.4990   34.5900   48.1400 C   0  0  0  0  0  0  0  0  0  0  0  0
   59.9880   35.3812   48.7273 H   0  0  0  0  0  0  0  0  0  0  0  0
   58.4264   34.5629   48.3827 H   0  0  0  0  0  0  0  0  0  0  0  0
   59.9544   33.6186   48.3827 H   0  0  0  0  0  0  0  0  0  0  0  0
   57.2190   25.8720   45.5470 C   0  0  0  0  0  0  0  0  0  0  0  0
   58.6000   25.7300   45.6580 C   0  0  0  0  0  0  0  0  0  0  0  0
   59.5420   26.7480   46.0420 N   0  0  0  0  0  0  0  0  0  0  0  0
   60.2100   26.6990   47.3490 C   0  0  0  0  0  0  0  0  0  0  0  0
   59.7781   25.8848   47.9495 H   0  0  0  0  0  0  0  0  0  0  0  0
   61.2852   26.5203   47.2007 H   0  0  0  0  0  0  0  0  0  0  0  0
   60.0150   28.0300   48.0820 C   0  0  0  0  0  0  0  0  0  0  0  0
   58.9686   28.1043   48.4131 H   0  0  0  0  0  0  0  0  0  0  0  0
   60.7033   28.0523   48.9398 H   0  0  0  0  0  0  0  0  0  0  0  0
   60.3240   29.1800   47.2170 N   0  0  0  0  0  0  0  0  0  0  0  0
   60.3750   30.4940   47.8140 C   0  0  0  0  0  0  0  0  0  0  0  0
   59.7930   30.6910   48.9170 O   0  0  0  0  0  0  0  0  0  0  0  0
   61.0770   31.6420   47.1280 C   0  0  0  0  0  0  0  0  0  0  0  0
   60.9788   31.5137   46.0399 H   0  0  0  0  0  0  0  0  0  0  0  0
   60.6042   32.5727   47.4746 H   0  0  0  0  0  0  0  0  0  0  0  0
   62.5740   31.7250   47.4800 C   0  0  0  0  0  0  0  0  0  0  0  0
   62.7652   31.1152   48.3753 H   0  0  0  0  0  0  0  0  0  0  0  0
   63.1519   31.3517   46.6217 H   0  0  0  0  0  0  0  0  0  0  0  0
   62.9910   33.1210   47.7500 N   0  0  0  0  0  0  0  0  0  0  0  0
   63.2950   33.8420   46.4980 C   0  0  0  0  0  0  0  0  0  0  0  0
   63.7122   34.8314   46.7367 H   0  0  0  0  0  0  0  0  0  0  0  0
   64.0272   33.2669   45.9122 H   0  0  0  0  0  0  0  0  0  0  0  0
   62.3721   33.9648   45.9122 H   0  0  0  0  0  0  0  0  0  0  0  0
   64.1610   33.1610   48.6620 C   0  0  0  0  0  0  0  0  0  0  0  0
   64.5703   32.1455   48.7685 H   0  0  0  0  0  0  0  0  0  0  0  0
   64.9179   33.8358   48.2356 H   0  0  0  0  0  0  0  0  0  0  0  0
   63.7550   33.6880   50.0460 C   0  0  0  0  0  0  0  0  0  0  0  0
   64.1219   32.9932   50.8159 H   0  0  0  0  0  0  0  0  0  0  0  0
   64.1967   34.6864   50.1809 H   0  0  0  0  0  0  0  0  0  0  0  0
   62.2150   33.8130   50.1710 C   0  0  0  0  0  0  0  0  0  0  0  0
   61.9812   34.8438   50.4755 H   0  0  0  0  0  0  0  0  0  0  0  0
   61.8066   33.5412   49.1864 H   0  0  0  0  0  0  0  0  0  0  0  0
   61.5770   32.8850   51.1540 N   0  0  0  0  0  0  0  0  0  0  0  0
   62.0090   31.4830   50.9330 C   0  0  0  0  0  0  0  0  0  0  0  0
   62.1613   30.9889   51.9039 H   0  0  0  0  0  0  0  0  0  0  0  0
   61.2347   30.9458   50.3656 H   0  0  0  0  0  0  0  0  0  0  0  0
   62.9513   31.4748   50.3656 H   0  0  0  0  0  0  0  0  0  0  0  0
   60.0970   32.9660   51.0880 C   0  0  0  0  0  0  0  0  0  0  0  0
   59.6852   32.9885   52.1078 H   0  0  0  0  0  0  0  0  0  0  0  0
   59.8034   33.8816   50.5537 H   0  0  0  0  0  0  0  0  0  0  0  0
   59.7052   32.0880   50.5537 H   0  0  0  0  0  0  0  0  0  0  0  0
   62.0010   33.2960   52.5150 C   0  0  0  0  0  0  0  0  0  0  0  0
   61.4227   32.7354   53.2642 H   0  0  0  0  0  0  0  0  0  0  0  0
   63.0725   33.0838   52.6450 H   0  0  0  0  0  0  0  0  0  0  0  0
   61.8222   34.3736   52.6450 H   0  0  0  0  0  0  0  0  0  0  0  0
   60.6460   28.9640   45.7970 C   0  0  0  0  0  0  0  0  0  0  0  0
   60.5478   29.9156   45.2541 H   0  0  0  0  0  0  0  0  0  0  0  0
   61.6769   28.5887   45.7176 H   0  0  0  0  0  0  0  0  0  0  0  0
   59.6910   27.9310   45.1840 C   0  0  0  0  0  0  0  0  0  0  0  0
   58.7042   28.3968   45.0455 H   0  0  0  0  0  0  0  0  0  0  0  0
   60.1130   27.6043   44.2221 H   0  0  0  0  0  0  0  0  0  0  0  0
   58.9800   24.4910   45.2620 N   0  0  0  0  0  0  0  0  0  0  0  0
   57.8160   23.9090   44.9090 C   0  0  0  0  0  0  0  0  0  0  0  0
   57.6730   22.6050   44.4380 C   0  0  0  0  0  0  0  0  0  0  0  0
   58.5460   21.9484   44.3082 H   0  0  0  0  0  0  0  0  0  0  0  0
   56.3780   22.1580   44.1350 C   0  0  0  0  0  0  0  0  0  0  0  0
   56.2262   21.1358   43.7580 H   0  0  0  0  0  0  0  0  0  0  0  0
   55.2720   23.0110   44.3110 C   0  0  0  0  0  0  0  0  0  0  0  0
   54.2573   22.6592   44.0732 H   0  0  0  0  0  0  0  0  0  0  0  0
   55.4740   24.3130   44.7920 C   0  0  0  0  0  0  0  0  0  0  0  0
   54.6252   24.9954   44.9469 H   0  0  0  0  0  0  0  0  0  0  0  0
   56.7470   24.7100   45.0620 N   0  0  0  0  0  0  0  0  0  0  0  0
  1  2  1  0
  2  3  2  0
  3  4  1  0
  4  5  1  0
  5  6  1  0
  5  7  1  0
  5  8  1  0
  8  9  1  0
  8 10  1  0
  8 11  1  0
 11 12  1  0
 12 13  1  0
 12 14  1  0
 12 15  1  0
 15 16  1  0
 15 17  1  0
 15 18  1  0
 18 19  1  0
 19 20  1  0
 19 21  1  0
 19 22  1  0
 22 23  1  0
 22 24  1  0
 22 25  1  0
 18 26  1  0
 26 27  1  0
 26 28  1  0
 26 29  1  0
 29 30  1  0
 29 31  1  0
 29 32  1  0
  2 33  1  0
 33 34  2  0
 34 35  1  0
 35 36  1  0
 36 37  1  0
 36 38  1  0
 36 39  1  0
 39 40  1  0
 39 41  1  0
 39 42  1  0
 42 43  1  0
 43 44  2  0
 43 45  1  0
 45 46  1  0
 45 47  1  0
 45 48  1  0
 48 49  1  0
 48 50  1  0
 48 51  1  0
 51 52  1  0
 52 53  1  0
 52 54  1  0
 52 55  1  0
 51 56  1  0
 56 57  1  0
 56 58  1  0
 56 59  1  0
 59 60  1  0
 59 61  1  0
 59 62  1  0
 62 63  1  0
 62 64  1  0
 62 65  1  0
 65 66  1  0
 66 67  1  0
 66 68  1  0
 66 69  1  0
 65 70  1  0
 70 71  1  0
 70 72  1  0
 70 73  1  0
 65 74  1  0
 74 75  1  0
 74 76  1  0
 74 77  1  0
 42 78  1  0
 78 79  1  0
 78 80  1  0
 78 81  1  0
 81 82  1  0
 81 83  1  0
 34 84  1  0
 84 85  2  0
 85 86  1  0
 86 87  1  0
 86 88  2  0
 88 89  1  0
 88 90  1  0
 90 91  1  0
 90 92  2  0
 92 93  1  0
 92 94  1  0
 94 33  1  0
 81 35  1  0
 94 85  1  0
M  CHG  1  65   1
M  END
>  <UniqueID>  (10) 
10

>  <SMILES>  (10) 
CCN(CC)CCOCCO/N=C/c1c(N2CCN(C(=O)CCN(C)CCC[N+](C)(C)C)CC2)nc2ccccn12

>  <Energy>  (10) 
145.27419921796354

>  <Genealogy>  (10) 
CCN(CC)CCOCCO/N=C/c1c(N2CCN(C(=O)CCN(C)CCC[N+](C)(C)C)CC2)nc2ccccn12 (cis-trans isomerization)
CCN(CC)CCOCCO/N=C/c1c(N2CCN(C(=O)CCN(C)CCC[N+](C)(C)C)CC2)nc2ccccn12 (3D coordinates assigned)
CCN(CC)CCOCCO/N=C/c1c(N2CCN(C(=O)CCN(C)CCC[N+](C)(C)C)CC2)nc2ccccn12 (nonaromatic ring conformer: 145.27419921796354 kcal/mol)

>  <smiles>  (10) 
CCN(CC)CCOCCON=Cc1c(N2CCN(C(=O)CCN(C)CCC[N+](C)(C)C)CC2)nc2ccccn12

>  <score_type>  (10) 
oracle

>  <origin>  (10) 
adg

>  <m_score__min__energy>  (10) 
-6.9699999999999998

>  <m_primary>  (10) 
energy

$$$$
10:0
     RDKit          3D

 63 65  0  0  0  0  0  0  0  0999 V2000
   57.8710   31.5210   50.8400 C   0  0  0  0  0  0  0  0  0  0  0  0
   59.1850   31.0400   50.2350 C   0  0  0  0  0  0  0  0  0  0  0  0
   60.2980   31.8680   50.7200 N   0  0  0  0  0  0  0  0  0  0  0  0
   61.1180   31.1380   51.7010 C   0  0  0  0  0  0  0  0  0  0  0  0
   62.0870   30.1900   50.9980 C   0  0  0  0  0  0  0  0  0  0  0  0
   62.6850   30.8690   49.9130 O   0  0  0  0  0  0  0  0  0  0  0  0
   63.7900   31.6240   50.3660 C   0  0  0  0  0  0  0  0  0  0  0  0
   63.7500   33.0350   49.7560 C   0  0  0  0  0  0  0  0  0  0  0  0
   62.5330   33.2910   48.9610 N   0  0  0  0  0  0  0  0  0  0  0  0
   62.6900   33.0630   47.5160 C   0  0  0  0  0  0  0  0  0  0  0  0
   62.4010   31.6040   47.1140 C   0  0  0  0  0  0  0  0  0  0  0  0
   61.2510   31.0590   47.8610 N   0  0  0  0  0  0  0  0  0  0  0  0
   60.0680   30.9880   47.0050 C   0  0  0  0  0  0  0  0  0  0  0  0
   59.7030   29.7480   46.4140 C   0  0  0  0  0  0  0  0  0  0  0  0
   60.1660   28.5170   46.9420 C   0  0  0  0  0  0  0  0  0  0  0  0
   59.8850   27.3100   46.3060 C   0  0  0  0  0  0  0  0  0  0  0  0
   59.1490   27.2980   45.1330 C   0  0  0  0  0  0  0  0  0  0  0  0
   58.6580   28.4880   44.6040 C   0  0  0  0  0  0  0  0  0  0  0  0
   58.8800   29.7330   45.2540 C   0  0  0  0  0  0  0  0  0  0  0  0
   58.3530   30.9080   44.7570 N   0  0  0  0  0  0  0  0  0  0  0  0
   57.3320   30.8620   43.6840 C   0  0  0  0  0  0  0  0  0  0  0  0
   58.7180   32.1220   45.3060 C   0  0  0  0  0  0  0  0  0  0  0  0
   58.4030   33.3440   44.6640 C   0  0  0  0  0  0  0  0  0  0  0  0
   58.6240   34.5620   45.2930 C   0  0  0  0  0  0  0  0  0  0  0  0
   59.1000   34.5940   46.5950 C   0  0  0  0  0  0  0  0  0  0  0  0
   59.4570   33.4050   47.2550 C   0  0  0  0  0  0  0  0  0  0  0  0
   59.7380   33.4160   48.6320 O   0  0  0  0  0  0  0  0  0  0  0  0
   59.6550   34.5610   49.4750 C   0  0  0  0  0  0  0  0  0  0  0  0
   59.4330   32.1730   46.5360 C   0  0  0  0  0  0  0  0  0  0  0  0
   57.9415   31.4952   51.9374 H   0  0  0  0  0  0  0  0  0  0  0  0
   57.6704   32.5508   50.5096 H   0  0  0  0  0  0  0  0  0  0  0  0
   57.0530   30.8640   50.5096 H   0  0  0  0  0  0  0  0  0  0  0  0
   59.3573   29.9930   50.5251 H   0  0  0  0  0  0  0  0  0  0  0  0
   59.1275   31.1206   49.1395 H   0  0  0  0  0  0  0  0  0  0  0  0
   60.9130   32.0770   49.8970 H   0  0  0  0  0  0  0  0  0  0  0  0
   61.6912   31.8603   52.3008 H   0  0  0  0  0  0  0  0  0  0  0  0
   60.4524   30.5470   52.3473 H   0  0  0  0  0  0  0  0  0  0  0  0
   62.8650   29.8661   51.7050 H   0  0  0  0  0  0  0  0  0  0  0  0
   61.5440   29.3065   50.6312 H   0  0  0  0  0  0  0  0  0  0  0  0
   63.7537   31.7004   51.4627 H   0  0  0  0  0  0  0  0  0  0  0  0
   64.7196   31.1237   50.0568 H   0  0  0  0  0  0  0  0  0  0  0  0
   63.7950   33.7703   50.5729 H   0  0  0  0  0  0  0  0  0  0  0  0
   64.6093   33.1208   49.0747 H   0  0  0  0  0  0  0  0  0  0  0  0
   61.7020   32.7700   49.3230 H   0  0  0  0  0  0  0  0  0  0  0  0
   61.9933   33.7220   46.9772 H   0  0  0  0  0  0  0  0  0  0  0  0
   63.7362   33.2806   47.2551 H   0  0  0  0  0  0  0  0  0  0  0  0
   62.1790   31.5664   46.0373 H   0  0  0  0  0  0  0  0  0  0  0  0
   63.2874   30.9970   47.3505 H   0  0  0  0  0  0  0  0  0  0  0  0
   61.1290   31.6920   48.6730 H   0  0  0  0  0  0  0  0  0  0  0  0
   61.4690   30.1180   48.2590 H   0  0  0  0  0  0  0  0  0  0  0  0
   60.7572   28.5147   47.8696 H   0  0  0  0  0  0  0  0  0  0  0  0
   60.2482   26.3650   46.7361 H   0  0  0  0  0  0  0  0  0  0  0  0
   58.9520   26.3460   44.6183 H   0  0  0  0  0  0  0  0  0  0  0  0
   58.0868   28.4649   43.6642 H   0  0  0  0  0  0  0  0  0  0  0  0
   56.3292   30.8168   44.1338 H   0  0  0  0  0  0  0  0  0  0  0  0
   57.4140   31.7648   43.0609 H   0  0  0  0  0  0  0  0  0  0  0  0
   57.4949   29.9703   43.0609 H   0  0  0  0  0  0  0  0  0  0  0  0
   57.9762   33.3282   43.6503 H   0  0  0  0  0  0  0  0  0  0  0  0
   58.4214   35.5017   44.7583 H   0  0  0  0  0  0  0  0  0  0  0  0
   59.1991   35.5578   47.1159 H   0  0  0  0  0  0  0  0  0  0  0  0
   59.6780   34.2435   50.5279 H   0  0  0  0  0  0  0  0  0  0  0  0
   60.5072   35.2268   49.2741 H   0  0  0  0  0  0  0  0  0  0  0  0
   58.7156   35.0969   49.2741 H   0  0  0  0  0  0  0  0  0  0  0  0
  1  2  1  0
  2  3  1  0
  3  4  1  0
  4  5  1  0
  5  6  1  0
  6  7  1  0
  7  8  1  0
  8  9  1  0
  9 10  1  0
 10 11  1  0
 11 12  1  0
 12 13  1  0
 13 14  2  0
 14 15  1  0
 15 16  2  0
 16 17  1  0
 17 18  2  0
 18 19  1  0
 19 20  2  0
 20 21  1  0
 20 22  1  0
 22 23  2  0
 23 24  1  0
 24 25  2  0
 25 26  1  0
 26 27  1  0
 27 28  1  0
 26 29  2  0
 29 13  1  0
 19 14  1  0
 29 22  1  0
  1 30  1  0
  1 31  1  0
  1 32  1  0
  2 33  1  0
  2 34  1  0
  3 35  1  0
  4 36  1  0
  4 37  1  0
  5 38  1  0
  5 39  1  0
  7 40  1  0
  7 41  1  0
  8 42  1  0
  8 43  1  0
  9 44  1  0
 10 45  1  0
 10 46  1  0
 11 47  1  0
 11 48  1  0
 12 49  1  0
 12 50  1  0
 15 51  1  0
 16 52  1  0
 17 53  1  0
 18 54  1  0
 21 55  1  0
 21 56  1  0
 21 57  1  0
 23 58  1  0
 24 59  1  0
 25 60  1  0
 28 61  1  0
 28 62  1  0
 28 63  1  0
M  CHG  2  12   1  20   1
M  END
>  <UniqueID>  (11) 
11

>  <SMILES>  (11) 
CCNCCOCCNCC[NH2+]c1c2ccccc2[n+](C)c2cccc(OC)c12

>  <Energy>  (11) 
98.68940576813984

>  <Genealogy>  (11) 
CCNCCOCCNCC[NH2+]c1c2ccccc2[n+](C)c2cccc(OC)c12 (protonated)
CCNCCOCCNCC[NH2+]c1c2ccccc2[n+](C)c2cccc(OC)c12 (3D coordinates assigned)
CCNCCOCCNCC[NH2+]c1c2ccccc2[n+](C)c2cccc(OC)c12 (optimized conformer: 98.68940576813984 kcal/mol)

>  <smiles>  (11) 
CCNCCOCCNCCNc1c2ccccc2[n+](C)c2cccc(OC)c12

>  <score_type>  (11) 
oracle

>  <origin>  (11) 
adg

>  <m_score__min__energy>  (11) 
-2.25

>  <m_primary>  (11) 
energy

$$$$
11:0
     RDKit          3D

 55 56  0  0  0  0  0  0  0  0999 V2000
   58.8800   33.1780   48.2950 C   0  0  0  0  0  0  0  0  0  0  0  0
   59.0270   34.0280   47.0370 C   0  0  0  0  0  0  0  0  0  0  0  0
   59.8270   33.2870   45.9560 C   0  0  0  0  0  0  0  0  0  0  0  0
   59.4640   31.8640   45.9250 N   0  0  0  0  0  0  0  0  0  0  0  0
   60.1640   30.7940   46.4070 C   0  0  0  0  0  0  0  0  0  0  0  0
   61.4920   30.8680   46.9570 N   0  0  0  0  0  0  0  0  0  0  0  0
   61.4730   30.5750   48.3960 C   0  0  0  0  0  0  0  0  0  0  0  0
   62.2880   31.6160   49.1770 C   0  0  0  0  0  0  0  0  0  0  0  0
   62.3270   32.9050   48.4520 N   0  0  0  0  0  0  0  0  0  0  0  0
   63.5940   33.1090   47.7150 C   0  0  0  0  0  0  0  0  0  0  0  0
   63.4120   33.7880   46.3490 C   0  0  0  0  0  0  0  0  0  0  0  0
   61.9520   34.0680   49.2920 C   0  0  0  0  0  0  0  0  0  0  0  0
   63.0310   34.3060   50.3400 C   0  0  0  0  0  0  0  0  0  0  0  0
   59.4970   29.6150   46.3040 N   0  0  0  0  0  0  0  0  0  0  0  0
   58.3400   29.9750   45.7200 C   0  0  0  0  0  0  0  0  0  0  0  0
   58.3150   31.3140   45.4850 C   0  0  0  0  0  0  0  0  0  0  0  0
   57.2050   31.8850   44.8650 C   0  0  0  0  0  0  0  0  0  0  0  0
   57.1520   33.1130   44.5910 O   0  0  0  0  0  0  0  0  0  0  0  0
   56.1650   31.0680   44.5430 N   0  0  0  0  0  0  0  0  0  0  0  0
   56.1960   29.7230   44.8020 C   0  0  0  0  0  0  0  0  0  0  0  0
   55.1960   29.0190   44.4980 O   0  0  0  0  0  0  0  0  0  0  0  0
   57.3060   29.1510   45.3860 N   0  0  0  0  0  0  0  0  0  0  0  0
   57.3590   27.7130   45.6990 C   0  0  0  0  0  0  0  0  0  0  0  0
   58.4230   27.0250   44.8390 C   0  0  0  0  0  0  0  0  0  0  0  0
   58.1460   27.2250   43.3520 C   0  0  0  0  0  0  0  0  0  0  0  0
   58.9904   33.8165   49.1839 H   0  0  0  0  0  0  0  0  0  0  0  0
   57.8868   32.7053   48.3042 H   0  0  0  0  0  0  0  0  0  0  0  0
   59.6568   32.3992   48.3042 H   0  0  0  0  0  0  0  0  0  0  0  0
   58.0268   34.2640   46.6446 H   0  0  0  0  0  0  0  0  0  0  0  0
   59.5678   34.9490   47.3004 H   0  0  0  0  0  0  0  0  0  0  0  0
   59.6110   33.7362   44.9754 H   0  0  0  0  0  0  0  0  0  0  0  0
   60.8988   33.3735   46.1877 H   0  0  0  0  0  0  0  0  0  0  0  0
   62.0890   30.1600   46.4700 H   0  0  0  0  0  0  0  0  0  0  0  0
   61.9060   31.8110   46.7770 H   0  0  0  0  0  0  0  0  0  0  0  0
   60.4327   30.5901   48.7531 H   0  0  0  0  0  0  0  0  0  0  0  0
   61.9204   29.5834   48.5591 H   0  0  0  0  0  0  0  0  0  0  0  0
   61.8251   31.7707   50.1628 H   0  0  0  0  0  0  0  0  0  0  0  0
   63.3171   31.2446   49.2910 H   0  0  0  0  0  0  0  0  0  0  0  0
   64.2558   33.7370   48.3295 H   0  0  0  0  0  0  0  0  0  0  0  0
   64.0188   32.1124   47.5243 H   0  0  0  0  0  0  0  0  0  0  0  0
   63.1298   34.8408   46.4975 H   0  0  0  0  0  0  0  0  0  0  0  0
   64.3555   33.7372   45.7857 H   0  0  0  0  0  0  0  0  0  0  0  0
   62.6204   33.2722   45.7857 H   0  0  0  0  0  0  0  0  0  0  0  0
   61.8531   34.9615   48.6581 H   0  0  0  0  0  0  0  0  0  0  0  0
   60.9934   33.8653   49.7920 H   0  0  0  0  0  0  0  0  0  0  0  0
   62.5938   34.2096   51.3448 H   0  0  0  0  0  0  0  0  0  0  0  0
   63.8327   33.5631   50.2161 H   0  0  0  0  0  0  0  0  0  0  0  0
   63.4458   35.3172   50.2161 H   0  0  0  0  0  0  0  0  0  0  0  0
   57.6096   27.5812   46.7619 H   0  0  0  0  0  0  0  0  0  0  0  0
   56.3783   27.2624   45.4864 H   0  0  0  0  0  0  0  0  0  0  0  0
   59.4087   27.4494   45.0804 H   0  0  0  0  0  0  0  0  0  0  0  0
   58.4010   25.9466   45.0550 H   0  0  0  0  0  0  0  0  0  0  0  0
   57.2600   27.8647   43.2269 H   0  0  0  0  0  0  0  0  0  0  0  0
   59.0149   27.7054   42.8785 H   0  0  0  0  0  0  0  0  0  0  0  0
   57.9634   26.2490   42.8785 H   0  0  0  0  0  0  0  0  0  0  0  0
  1  2  1  0
  2  3  1  0
  3  4  1  0
  4  5  1  0
  5  6  1  0
  6  7  1  0
  7  8  1  0
  8  9  1  0
  9 10  1  0
 10 11  1  0
  9 12  1  0
 12 13  1  0
  5 14  2  0
 14 15  1  0
 15 16  2  0
 16 17  1  0
 17 18  2  0
 17 19  1  0
 19 20  1  0
 20 21  2  0
 20 22  1  0
 22 23  1  0
 23 24  1  0
 24 25  1  0
 16  4  1  0
 22 15  1  0
  1 26  1  0
  1 27  1  0
  1 28  1  0
  2 29  1  0
  2 30  1  0
  3 31  1  0
  3 32  1  0
  6 33  1  0
  6 34  1  0
  7 35  1  0
  7 36  1  0
  8 37  1  0
  8 38  1  0
 10 39  1  0
 10 40  1  0
 11 41  1  0
 11 42  1  0
 11 43  1  0
 12 44  1  0
 12 45  1  0
 13 46  1  0
 13 47  1  0
 13 48  1  0
 23 49  1  0
 23 50  1  0
 24 51  1  0
 24 52  1  0
 25 53  1  0
 25 54  1  0
 25 55  1  0
M  CHG  2   6   1  19  -1
M  END
>  <UniqueID>  (12) 
12

>  <SMILES>  (12) 
CCCn1c([NH2+]CCN(CC)CC)nc2c1c(=O)[n-]c(=O)n2CCC

>  <Energy>  (12) 
86.65752975686668

>  <Genealogy>  (12) 
CCCn1c([NH2+]CCN(CC)CC)nc2c1c(=O)[n-]c(=O)n2CCC (protonated)
CCCn1c([NH2+]CCN(CC)CC)nc2c1c(=O)[n-]c(=O)n2CCC (3D coordinates assigned)
CCCn1c([NH2+]CCN(CC)CC)nc2c1c(=O)[n-]c(=O)n2CCC (optimized conformer: 86.65752975686668 kcal/mol)

>  <smiles>  (12) 
CCCn1c(NCCN(CC)CC)nc2c1c(=O)[nH]c(=O)n2CCC

>  <score_type>  (12) 
oracle

>  <origin>  (12) 
adg

>  <m_score__min__energy>  (12) 
-6.9199999999999999

>  <m_primary>  (12) 
energy

$$$$
12:0
     RDKit          3D

 34 35  0  0  0  0  0  0  0  0999 V2000
   57.0760   32.3420   41.0870 C   0  0  0  0  0  0  0  0  0  0  0  0
   58.2430   31.9980   42.0090 C   0  0  0  0  0  0  0  0  0  0  0  0
   57.7940   31.8510   43.4010 N   0  0  0  0  0  0  0  0  0  0  0  0
   58.0300   32.6950   44.4290 C   0  0  0  0  0  0  0  0  0  0  0  0
   58.8840   33.9240   44.3830 C   0  0  0  0  0  0  0  0  0  0  0  0
   57.4010   32.2100   45.5520 C   0  0  0  0  0  0  0  0  0  0  0  0
   56.7430   31.0770   45.2400 N   0  0  0  0  0  0  0  0  0  0  0  0
   57.0040   30.8810   43.9290 C   0  0  0  0  0  0  0  0  0  0  0  0
   56.4260   29.7130   43.1700 C   0  0  0  0  0  0  0  0  0  0  0  0
   57.3180   28.5370   43.1670 N   0  0  0  0  0  0  0  0  0  0  0  0
   57.4680   27.9080   44.4940 C   0  0  0  0  0  0  0  0  0  0  0  0
   58.6050   28.4980   45.2870 C   0  0  0  0  0  0  0  0  0  0  0  0
   59.8550   28.8090   44.7260 C   0  0  0  0  0  0  0  0  0  0  0  0
   60.7560   29.3370   45.6380 C   0  0  0  0  0  0  0  0  0  0  0  0
   59.9910   29.4340   47.1310 S   0  0  0  0  0  0  0  0  0  0  0  0
   58.5120   28.8090   46.6390 C   0  0  0  0  0  0  0  0  0  0  0  0
   56.1949   32.6017   41.6921 H   0  0  0  0  0  0  0  0  0  0  0  0
   57.3500   33.1976   40.4523 H   0  0  0  0  0  0  0  0  0  0  0  0
   56.8422   31.4746   40.4523 H   0  0  0  0  0  0  0  0  0  0  0  0
   58.6967   31.0527   41.6764 H   0  0  0  0  0  0  0  0  0  0  0  0
   58.9763   32.8167   41.9637 H   0  0  0  0  0  0  0  0  0  0  0  0
   59.1113   34.2511   45.4083 H   0  0  0  0  0  0  0  0  0  0  0  0
   59.8216   33.6994   43.8534 H   0  0  0  0  0  0  0  0  0  0  0  0
   58.3465   34.7244   43.8534 H   0  0  0  0  0  0  0  0  0  0  0  0
   57.4307   32.6746   46.5486 H   0  0  0  0  0  0  0  0  0  0  0  0
   55.4708   29.4288   43.6358 H   0  0  0  0  0  0  0  0  0  0  0  0
   56.2912   30.0300   42.1253 H   0  0  0  0  0  0  0  0  0  0  0  0
   56.8890   27.8240   42.5330 H   0  0  0  0  0  0  0  0  0  0  0  0
   58.2510   28.7760   42.7630 H   0  0  0  0  0  0  0  0  0  0  0  0
   56.5343   28.0481   45.0584 H   0  0  0  0  0  0  0  0  0  0  0  0
   57.6888   26.8421   44.3356 H   0  0  0  0  0  0  0  0  0  0  0  0
   60.0958   28.6489   43.6647 H   0  0  0  0  0  0  0  0  0  0  0  0
   61.7912   29.6397   45.4219 H   0  0  0  0  0  0  0  0  0  0  0  0
   57.6252   28.6700   47.2748 H   0  0  0  0  0  0  0  0  0  0  0  0
  1  2  1  0
  2  3  1  0
  3  4  1  0
  4  5  1  0
  4  6  2  0
  6  7  1  0
  7  8  2  0
  8  9  1  0
  9 10  1  0
 10 11  1  0
 11 12  1  0
 12 13  1  0
 13 14  2  0
 14 15  1  0
 15 16  1  0
  8  3  1  0
 16 12  2  0
  1 17  1  0
  1 18  1  0
  1 19  1  0
  2 20  1  0
  2 21  1  0
  5 22  1  0
  5 23  1  0
  5 24  1  0
  6 25  1  0
  9 26  1  0
  9 27  1  0
 10 28  1  0
 10 29  1  0
 11 30  1  0
 11 31  1  0
 13 32  1  0
 14 33  1  0
 16 34  1  0
M  CHG  1  10   1
M  END
>  <UniqueID>  (13) 
13

>  <SMILES>  (13) 
CCn1c(C)cnc1C[NH2+]Cc1ccsc1

>  <Energy>  (13) 
83.67909975973613

>  <Genealogy>  (13) 
CCn1c(C)cnc1C[NH2+]Cc1ccsc1 (protonated)
CCn1c(C)cnc1C[NH2+]Cc1ccsc1 (3D coordinates assigned)
CCn1c(C)cnc1C[NH2+]Cc1ccsc1 (optimized conformer: 83.67909975973613 kcal/mol)

>  <smiles>  (13) 
CCn1c(C)cnc1CNCc1ccsc1

>  <score_type>  (13) 
oracle

>  <origin>  (13) 
adg

>  <m_score__min__energy>  (13) 
-4.4299999999999997

>  <m_primary>  (13) 
energy

$$$$
13:0
     RDKit          3D

 57 59  0  0  0  0  0  0  0  0999 V2000
   63.0750   33.8370   46.4210 C   0  0  0  0  0  0  0  0  0  0  0  0
   63.4520   32.5330   47.1060 C   0  0  0  0  0  0  0  0  0  0  0  0
   63.1930   32.6340   48.5020 O   0  0  0  0  0  0  0  0  0  0  0  0
   64.1810   32.4320   49.4680 C   0  0  0  0  0  0  0  0  0  0  0  0
   65.3110   32.9780   49.3560 O   0  0  0  0  0  0  0  0  0  0  0  0
   63.8980   31.5390   50.6410 C   0  0  0  0  0  0  0  0  0  0  0  0
   62.4570   31.4030   50.8970 N   0  0  0  0  0  0  0  0  0  0  0  0
   61.9750   32.2820   51.9750 C   0  0  0  0  0  0  0  0  0  0  0  0
   61.0960   33.4210   51.4270 C   0  0  0  0  0  0  0  0  0  0  0  0
   60.9960   33.4140   49.9570 N   0  0  0  0  0  0  0  0  0  0  0  0
   59.7890   34.1190   49.4790 C   0  0  0  0  0  0  0  0  0  0  0  0
   59.2400   33.5180   48.1760 C   0  0  0  0  0  0  0  0  0  0  0  0
   60.1530   32.5190   47.6190 N   0  0  0  0  0  0  0  0  0  0  0  0
   59.6660   31.3790   46.8850 C   0  0  0  0  0  0  0  0  0  0  0  0
   59.8560   30.0760   47.3840 C   0  0  0  0  0  0  0  0  0  0  0  0
   60.3720   29.8650   48.6810 C   0  0  0  0  0  0  0  0  0  0  0  0
   60.5270   28.5770   49.1860 C   0  0  0  0  0  0  0  0  0  0  0  0
   60.1500   27.4790   48.4220 C   0  0  0  0  0  0  0  0  0  0  0  0
   59.6230   27.6630   47.1430 C   0  0  0  0  0  0  0  0  0  0  0  0
   59.4810   28.9610   46.5890 C   0  0  0  0  0  0  0  0  0  0  0  0
   58.9690   29.1550   45.3200 N   0  0  0  0  0  0  0  0  0  0  0  0
   58.8670   28.0180   44.3790 C   0  0  0  0  0  0  0  0  0  0  0  0
   58.5720   30.4180   44.9250 C   0  0  0  0  0  0  0  0  0  0  0  0
   57.7940   30.6230   43.7580 C   0  0  0  0  0  0  0  0  0  0  0  0
   57.4520   31.9070   43.3370 C   0  0  0  0  0  0  0  0  0  0  0  0
   57.8560   33.0140   44.0720 C   0  0  0  0  0  0  0  0  0  0  0  0
   58.5890   32.8440   45.2440 C   0  0  0  0  0  0  0  0  0  0  0  0
   58.9450   31.5560   45.6920 C   0  0  0  0  0  0  0  0  0  0  0  0
   62.8543   34.6003   47.1817 H   0  0  0  0  0  0  0  0  0  0  0  0
   63.9118   34.1765   45.7929 H   0  0  0  0  0  0  0  0  0  0  0  0
   62.1862   33.6776   45.7929 H   0  0  0  0  0  0  0  0  0  0  0  0
   62.8564   31.7112   46.6818 H   0  0  0  0  0  0  0  0  0  0  0  0
   64.5219   32.3330   46.9468 H   0  0  0  0  0  0  0  0  0  0  0  0
   64.3178   30.5428   50.4378 H   0  0  0  0  0  0  0  0  0  0  0  0
   64.3590   31.9923   51.5310 H   0  0  0  0  0  0  0  0  0  0  0  0
   61.9390   31.6330   50.0180 H   0  0  0  0  0  0  0  0  0  0  0  0
   61.3839   31.6850   52.6851 H   0  0  0  0  0  0  0  0  0  0  0  0
   62.8490   32.7298   52.4706 H   0  0  0  0  0  0  0  0  0  0  0  0
   60.0850   33.3171   51.8477 H   0  0  0  0  0  0  0  0  0  0  0  0
   61.5670   34.3708   51.7205 H   0  0  0  0  0  0  0  0  0  0  0  0
   61.8470   33.9090   49.6030 H   0  0  0  0  0  0  0  0  0  0  0  0
   59.0111   34.0537   50.2539 H   0  0  0  0  0  0  0  0  0  0  0  0
   60.0677   35.1636   49.2764 H   0  0  0  0  0  0  0  0  0  0  0  0
   58.2710   33.0404   48.3833 H   0  0  0  0  0  0  0  0  0  0  0  0
   59.1278   34.3298   47.4422 H   0  0  0  0  0  0  0  0  0  0  0  0
   61.1570   32.5510   47.9070 H   0  0  0  0  0  0  0  0  0  0  0  0
   60.6551   30.7290   49.3002 H   0  0  0  0  0  0  0  0  0  0  0  0
   60.9484   28.4281   50.1911 H   0  0  0  0  0  0  0  0  0  0  0  0
   60.2673   26.4627   48.8263 H   0  0  0  0  0  0  0  0  0  0  0  0
   59.3126   26.7869   46.5547 H   0  0  0  0  0  0  0  0  0  0  0  0
   58.7828   27.0792   44.9460 H   0  0  0  0  0  0  0  0  0  0  0  0
   57.9766   28.1450   43.7456 H   0  0  0  0  0  0  0  0  0  0  0  0
   59.7657   27.9845   43.7456 H   0  0  0  0  0  0  0  0  0  0  0  0
   57.4545   29.7543   43.1749 H   0  0  0  0  0  0  0  0  0  0  0  0
   56.8603   32.0439   42.4198 H   0  0  0  0  0  0  0  0  0  0  0  0
   57.5968   34.0262   43.7281 H   0  0  0  0  0  0  0  0  0  0  0  0
   58.8937   33.7256   45.8270 H   0  0  0  0  0  0  0  0  0  0  0  0
  1  2  1  0
  2  3  1  0
  3  4  1  0
  4  5  2  0
  4  6  1  0
  6  7  1  0
  7  8  1  0
  8  9  1  0
  9 10  1  0
 10 11  1  0
 11 12  1  0
 12 13  1  0
 13 14  1  0
 14 15  2  0
 15 16  1  0
 16 17  2  0
 17 18  1  0
 18 19  2  0
 19 20  1  0
 20 21  2  0
 21 22  1  0
 21 23  1  0
 23 24  2  0
 24 25  1  0
 25 26  2  0
 26 27  1  0
 27 28  2  0
 28 14  1  0
 20 15  1  0
 28 23  1  0
  1 29  1  0
  1 30  1  0
  1 31  1  0
  2 32  1  0
  2 33  1  0
  6 34  1  0
  6 35  1  0
  7 36  1  0
  8 37  1  0
  8 38  1  0
  9 39  1  0
  9 40  1  0
 10 41  1  0
 11 42  1  0
 11 43  1  0
 12 44  1  0
 12 45  1  0
 13 46  1  0
 16 47  1  0
 17 48  1  0
 18 49  1  0
 19 50  1  0
 22 51  1  0
 22 52  1  0
 22 53  1  0
 24 54  1  0
 25 55  1  0
 26 56  1  0
 27 57  1  0
M  CHG  1  21   1
M  END
>  <UniqueID>  (14) 
14

>  <SMILES>  (14) 
CCOC(=O)CNCCNCCNc1c2ccccc2[n+](C)c2ccccc12

>  <Energy>  (14) 
73.16228678431328

>  <Genealogy>  (14) 
CCOC(=O)CNCCNCCNc1c2ccccc2[n+](C)c2ccccc12 (3D coordinates assigned)
CCOC(=O)CNCCNCCNc1c2ccccc2[n+](C)c2ccccc12 (optimized conformer: 73.16228678431328 kcal/mol)

>  <smiles>  (14) 
CCOC(=O)CNCCNCCNc1c2ccccc2[n+](C)c2ccccc12

>  <score_type>  (14) 
oracle

>  <origin>  (14) 
adg

>  <m_score__min__energy>  (14) 
-6.1399999999999997

>  <m_primary>  (14) 
energy

$$$$
14:0
     RDKit          3D

 40 40  0  0  0  0  0  0  0  0999 V2000
   59.5900   34.9720   45.9850 C   0  0  0  0  0  0  0  0  0  0  0  0
   58.6600   34.0600   46.7830 C   0  0  0  0  0  0  0  0  0  0  0  0
   57.3360   33.7790   46.0570 C   0  0  0  0  0  0  0  0  0  0  0  0
   57.5060   32.8380   44.8580 C   0  0  0  0  0  0  0  0  0  0  0  0
   57.0220   31.4970   45.2130 N   0  0  0  0  0  0  0  0  0  0  0  0
   57.4420   30.4880   44.2270 C   0  0  0  0  0  0  0  0  0  0  0  0
   56.5620   29.2210   44.3050 C   0  0  2  0  0  0  0  0  0  0  0  0
   55.4200   29.4790   45.0820 O   0  0  0  0  0  0  0  0  0  0  0  0
   57.3220   28.0070   44.8690 C   0  0  0  0  0  0  0  0  0  0  0  0
   57.0280   27.8540   46.2430 O   0  0  0  0  0  0  0  0  0  0  0  0
   58.2070   27.5820   46.9760 C   0  0  0  0  0  0  0  0  0  0  0  0
   58.9970   28.8470   47.1750 C   0  0  0  0  0  0  0  0  0  0  0  0
   60.0040   29.1960   46.2590 C   0  0  0  0  0  0  0  0  0  0  0  0
   60.7590   30.3580   46.4530 C   0  0  0  0  0  0  0  0  0  0  0  0
   60.5180   31.1740   47.5610 C   0  0  0  0  0  0  0  0  0  0  0  0
   59.5230   30.8280   48.4800 C   0  0  0  0  0  0  0  0  0  0  0  0
   58.7660   29.6670   48.2910 C   0  0  0  0  0  0  0  0  0  0  0  0
   60.2000   35.5702   46.6778 H   0  0  0  0  0  0  0  0  0  0  0  0
   60.2487   34.3600   45.3513 H   0  0  0  0  0  0  0  0  0  0  0  0
   58.9910   35.6425   45.3513 H   0  0  0  0  0  0  0  0  0  0  0  0
   59.1732   33.1035   46.9610 H   0  0  0  0  0  0  0  0  0  0  0  0
   58.4189   34.5748   47.7247 H   0  0  0  0  0  0  0  0  0  0  0  0
   56.6352   33.3186   46.7690 H   0  0  0  0  0  0  0  0  0  0  0  0
   56.9567   34.7383   45.6750 H   0  0  0  0  0  0  0  0  0  0  0  0
   56.9270   33.2226   44.0055 H   0  0  0  0  0  0  0  0  0  0  0  0
   58.5700   32.7824   44.5846 H   0  0  0  0  0  0  0  0  0  0  0  0
   55.9750   31.5290   45.2130 H   0  0  0  0  0  0  0  0  0  0  0  0
   57.3605   30.9184   43.2180 H   0  0  0  0  0  0  0  0  0  0  0  0
   58.4809   30.2012   44.4472 H   0  0  0  0  0  0  0  0  0  0  0  0
   56.2653   28.9663   43.2768 H   0  0  0  0  0  0  0  0  0  0  0  0
   55.7250   29.7130   45.9980 H   0  0  0  0  0  0  0  0  0  0  0  0
   57.0155   27.1003   44.3268 H   0  0  0  0  0  0  0  0  0  0  0  0
   58.4033   28.1657   44.7445 H   0  0  0  0  0  0  0  0  0  0  0  0
   57.9370   27.1639   47.9569 H   0  0  0  0  0  0  0  0  0  0  0  0
   58.8196   26.8598   46.4164 H   0  0  0  0  0  0  0  0  0  0  0  0
   60.1992   28.5541   45.3873 H   0  0  0  0  0  0  0  0  0  0  0  0
   61.5438   30.6295   45.7317 H   0  0  0  0  0  0  0  0  0  0  0  0
   61.1109   32.0884   47.7103 H   0  0  0  0  0  0  0  0  0  0  0  0
   59.3350   31.4699   49.3533 H   0  0  0  0  0  0  0  0  0  0  0  0
   57.9873   29.3956   49.0190 H   0  0  0  0  0  0  0  0  0  0  0  0
  1  2  1  0
  2  3  1  0
  3  4  1  0
  4  5  1  0
  5  6  1  0
  6  7  1  0
  7  8  1  0
  7  9  1  0
  9 10  1  0
 10 11  1  0
 11 12  1  0
 12 13  2  0
 13 14  1  0
 14 15  2  0
 15 16  1  0
 16 17  2  0
 17 12  1  0
  1 18  1  0
  1 19  1  0
  1 20  1  0
  2 21  1  0
  2 22  1  0
  3 23  1  0
  3 24  1  0
  4 25  1  0
  4 26  1  0
  5 27  1  0
  6 28  1  0
  6 29  1  0
  7 30  1  6
  8 31  1  0
  9 32  1  0
  9 33  1  0
 11 34  1  0
 11 35  1  0
 13 36  1  0
 14 37  1  0
 15 38  1  0
 16 39  1  0
 17 40  1  0
M  END
>  <UniqueID>  (15) 
15

>  <SMILES>  (15) 
CCCCNC[C@H](O)COCc1ccccc1

>  <Energy>  (15) 
30.216573583995057

>  <Genealogy>  (15) 
CCCCNC[C@H](O)COCc1ccccc1 (chirality)
CCCCNC[C@H](O)COCc1ccccc1 (3D coordinates assigned)
CCCCNC[C@H](O)COCc1ccccc1 (optimized conformer: 30.216573583995057 kcal/mol)

>  <smiles>  (15) 
CCCCNCC(O)COCc1ccccc1

>  <score_type>  (15) 
oracle

>  <origin>  (15) 
adg

>  <m_score__min__energy>  (15) 
-5.9900000000000002

>  <m_primary>  (15) 
energy

$$$$
15:0
     RDKit          3D

 65 67  0  0  0  0  0  0  0  0999 V2000
   62.8560   31.5690   47.4590 C   0  0  0  0  0  0  0  0  0  0  0  0
   62.7430   33.0750   47.6560 C   0  0  0  0  0  0  0  0  0  0  0  0
   61.6320   33.3740   48.5680 N   0  0  0  0  0  0  0  0  0  0  0  0
   60.6710   34.3420   48.0110 C   0  0  0  0  0  0  0  0  0  0  0  0
   59.7160   33.7580   46.9330 C   0  0  2  0  0  0  0  0  0  0  0  0
   59.5270   34.7260   45.7320 C   0  0  0  0  0  0  0  0  0  0  0  0
   59.0480   34.0640   44.4240 C   0  0  0  0  0  0  0  0  0  0  0  0
   57.7100   33.3260   44.5860 C   0  0  0  0  0  0  0  0  0  0  0  0
   57.7630   31.9190   43.9890 C   0  0  0  0  0  0  0  0  0  0  0  0
   56.8920   31.0200   44.7430 N   0  0  0  0  0  0  0  0  0  0  0  0
   56.4110   29.8930   44.3030 C   0  0  0  0  0  0  0  0  0  0  0  0
   55.1640   29.4260   44.8170 N   0  0  0  0  0  0  0  0  0  0  0  0
   57.1060   29.1090   43.3240 N   0  0  0  0  0  0  0  0  0  0  0  0
   58.3830   33.3180   47.5870 C   0  0  0  0  0  0  0  0  0  0  0  0
   58.1190   31.8810   47.4400 N   0  0  0  0  0  0  0  0  0  0  0  0
   58.8180   30.8780   48.2040 C   0  0  0  0  0  0  0  0  0  0  0  0
   59.2860   29.6980   47.5900 C   0  0  0  0  0  0  0  0  0  0  0  0
   58.9680   29.3980   46.2470 C   0  0  0  0  0  0  0  0  0  0  0  0
   59.5020   28.2750   45.6200 C   0  0  0  0  0  0  0  0  0  0  0  0
   60.3600   27.4330   46.3150 C   0  0  0  0  0  0  0  0  0  0  0  0
   60.6420   27.6740   47.6590 C   0  0  0  0  0  0  0  0  0  0  0  0
   60.0630   28.7760   48.3420 C   0  0  0  0  0  0  0  0  0  0  0  0
   60.2420   28.9600   49.7000 N   0  0  0  0  0  0  0  0  0  0  0  0
   60.7910   27.8610   50.5290 C   0  0  0  0  0  0  0  0  0  0  0  0
   59.8560   30.1460   50.2960 C   0  0  0  0  0  0  0  0  0  0  0  0
   60.2210   30.4630   51.6320 C   0  0  0  0  0  0  0  0  0  0  0  0
   59.7680   31.6290   52.2460 C   0  0  0  0  0  0  0  0  0  0  0  0
   58.9490   32.5110   51.5520 C   0  0  0  0  0  0  0  0  0  0  0  0
   58.6100   32.2500   50.2280 C   0  0  0  0  0  0  0  0  0  0  0  0
   59.0840   31.0940   49.5710 C   0  0  0  0  0  0  0  0  0  0  0  0
   62.8932   31.0727   48.4400 H   0  0  0  0  0  0  0  0  0  0  0  0
   61.9826   31.2061   46.8974 H   0  0  0  0  0  0  0  0  0  0  0  0
   63.7738   31.3405   46.8974 H   0  0  0  0  0  0  0  0  0  0  0  0
   63.6807   33.4589   48.0842 H   0  0  0  0  0  0  0  0  0  0  0  0
   62.5557   33.5559   46.6846 H   0  0  0  0  0  0  0  0  0  0  0  0
   62.0030   33.7090   49.4870 H   0  0  0  0  0  0  0  0  0  0  0  0
   60.0584   34.7316   48.8374 H   0  0  0  0  0  0  0  0  0  0  0  0
   61.2665   35.1203   47.5114 H   0  0  0  0  0  0  0  0  0  0  0  0
   60.1791   32.8586   46.5010 H   0  0  0  0  0  0  0  0  0  0  0  0
   58.7853   35.4854   46.0205 H   0  0  0  0  0  0  0  0  0  0  0  0
   60.5219   35.1429   45.5165 H   0  0  0  0  0  0  0  0  0  0  0  0
   58.9285   34.8446   43.6582 H   0  0  0  0  0  0  0  0  0  0  0  0
   59.8039   33.3197   44.1331 H   0  0  0  0  0  0  0  0  0  0  0  0
   57.4726   33.2497   45.6574 H   0  0  0  0  0  0  0  0  0  0  0  0
   56.9371   33.8965   44.0501 H   0  0  0  0  0  0  0  0  0  0  0  0
   57.4289   31.9555   42.9416 H   0  0  0  0  0  0  0  0  0  0  0  0
   58.7963   31.5453   44.0397 H   0  0  0  0  0  0  0  0  0  0  0  0
   54.6430   29.9800   45.5310 H   0  0  0  0  0  0  0  0  0  0  0  0
   54.7690   28.5140   44.4980 H   0  0  0  0  0  0  0  0  0  0  0  0
   58.0100   29.4150   42.9030 H   0  0  0  0  0  0  0  0  0  0  0  0
   56.7060   28.1990   43.0070 H   0  0  0  0  0  0  0  0  0  0  0  0
   58.4222   33.5593   48.6595 H   0  0  0  0  0  0  0  0  0  0  0  0
   57.5717   33.8558   47.0747 H   0  0  0  0  0  0  0  0  0  0  0  0
   57.3750   31.5690   46.7780 H   0  0  0  0  0  0  0  0  0  0  0  0
   58.2896   30.0601   45.6889 H   0  0  0  0  0  0  0  0  0  0  0  0
   59.2440   28.0549   44.5736 H   0  0  0  0  0  0  0  0  0  0  0  0
   60.8184   26.5736   45.8039 H   0  0  0  0  0  0  0  0  0  0  0  0
   61.3236   27.0000   48.1986 H   0  0  0  0  0  0  0  0  0  0  0  0
   60.6676   28.1081   51.5938 H   0  0  0  0  0  0  0  0  0  0  0  0
   60.2530   26.9282   50.3043 H   0  0  0  0  0  0  0  0  0  0  0  0
   61.8599   27.7310   50.3043 H   0  0  0  0  0  0  0  0  0  0  0  0
   60.8727   29.7759   52.1916 H   0  0  0  0  0  0  0  0  0  0  0  0
   60.0596   31.8517   53.2830 H   0  0  0  0  0  0  0  0  0  0  0  0
   58.5686   33.4155   52.0492 H   0  0  0  0  0  0  0  0  0  0  0  0
   57.9631   32.9549   49.6852 H   0  0  0  0  0  0  0  0  0  0  0  0
  1  2  1  0
  2  3  1  0
  3  4  1  0
  4  5  1  0
  5  6  1  0
  6  7  1  0
  7  8  1  0
  8  9  1  0
  9 10  1  0
 10 11  2  3
 11 12  1  0
 11 13  1  0
  5 14  1  0
 14 15  1  0
 15 16  1  0
 16 17  2  0
 17 18  1  0
 18 19  2  0
 19 20  1  0
 20 21  2  0
 21 22  1  0
 22 23  2  0
 23 24  1  0
 23 25  1  0
 25 26  2  0
 26 27  1  0
 27 28  2  0
 28 29  1  0
 29 30  2  0
 30 16  1  0
 22 17  1  0
 30 25  1  0
  1 31  1  0
  1 32  1  0
  1 33  1  0
  2 34  1  0
  2 35  1  0
  3 36  1  0
  4 37  1  0
  4 38  1  0
  5 39  1  6
  6 40  1  0
  6 41  1  0
  7 42  1  0
  7 43  1  0
  8 44  1  0
  8 45  1  0
  9 46  1  0
  9 47  1  0
 12 48  1  0
 12 49  1  0
 13 50  1  0
 13 51  1  0
 14 52  1  0
 14 53  1  0
 15 54  1  0
 18 55  1  0
 19 56  1  0
 20 57  1  0
 21 58  1  0
 24 59  1  0
 24 60  1  0
 24 61  1  0
 26 62  1  0
 27 63  1  0
 28 64  1  0
 29 65  1  0
M  CHG  1  23   1
M  END
>  <UniqueID>  (16) 
16

>  <SMILES>  (16) 
CCNC[C@H](CCCCN=C(N)N)CNc1c2ccccc2[n+](C)c2ccccc12

>  <Energy>  (16) 
81.9551920410054

>  <Genealogy>  (16) 
CCNC[C@H](CCCCN=C(N)N)CNc1c2ccccc2[n+](C)c2ccccc12 (chirality)
CCNC[C@H](CCCCN=C(N)N)CNc1c2ccccc2[n+](C)c2ccccc12 (3D coordinates assigned)
CCNC[C@H](CCCCN=C(N)N)CNc1c2ccccc2[n+](C)c2ccccc12 (optimized conformer: 81.9551920410054 kcal/mol)

>  <smiles>  (16) 
CCNCC(CCCCN=C(N)N)CNc1c2ccccc2[n+](C)c2ccccc12

>  <score_type>  (16) 
oracle

>  <origin>  (16) 
adg

>  <m_score__min__energy>  (16) 
-7.9500000000000002

>  <m_primary>  (16) 
energy

$$$$
16:0
     RDKit          3D

 64 66  0  0  0  0  0  0  0  0999 V2000
   59.1220   34.9370   47.1350 C   0  0  0  0  0  0  0  0  0  0  0  0
   60.4370   34.5910   46.4400 C   0  0  0  0  0  0  0  0  0  0  0  0
   61.2950   33.7720   47.3300 N   0  0  0  0  0  0  0  0  0  0  0  0
   61.1680   34.2330   48.7300 C   0  0  0  0  0  0  0  0  0  0  0  0
   62.7060   33.8270   46.8810 C   0  0  0  0  0  0  0  0  0  0  0  0
   63.4410   32.5090   47.1360 C   0  0  0  0  0  0  0  0  0  0  0  0
   62.6920   31.7350   48.0510 O   0  0  0  0  0  0  0  0  0  0  0  0
   63.3480   31.6650   49.3040 C   0  0  0  0  0  0  0  0  0  0  0  0
   62.3680   31.2010   50.3840 C   0  0  0  0  0  0  0  0  0  0  0  0
   61.3550   30.3870   49.8230 O   0  0  0  0  0  0  0  0  0  0  0  0
   60.0830   30.9670   50.0220 C   0  0  0  0  0  0  0  0  0  0  0  0
   59.4940   31.3960   48.6740 C   0  0  0  0  0  0  0  0  0  0  0  0
   60.3380   31.0080   47.5270 N   0  0  0  0  0  0  0  0  0  0  0  0
   59.6290   30.1460   46.5880 C   0  0  0  0  0  0  0  0  0  0  0  0
   59.5900   28.7300   46.7600 C   0  0  0  0  0  0  0  0  0  0  0  0
   60.1960   28.0750   47.8650 C   0  0  0  0  0  0  0  0  0  0  0  0
   60.1430   26.6910   48.0040 C   0  0  0  0  0  0  0  0  0  0  0  0
   59.4880   25.9180   47.0570 C   0  0  0  0  0  0  0  0  0  0  0  0
   58.8960   26.5250   45.9560 C   0  0  0  0  0  0  0  0  0  0  0  0
   58.9470   27.9290   45.7740 C   0  0  0  0  0  0  0  0  0  0  0  0
   58.3860   28.5120   44.6590 N   0  0  0  0  0  0  0  0  0  0  0  0
   58.2200   27.6980   43.4360 C   0  0  0  0  0  0  0  0  0  0  0  0
   58.1680   29.8720   44.6250 C   0  0  0  0  0  0  0  0  0  0  0  0
   57.2170   30.4770   43.7390 C   0  0  0  0  0  0  0  0  0  0  0  0
   56.0680   29.7210   43.1170 C   0  0  0  0  0  0  0  0  0  0  0  0
   57.2470   31.8620   43.5320 C   0  0  0  0  0  0  0  0  0  0  0  0
   58.1130   32.6640   44.2580 C   0  0  0  0  0  0  0  0  0  0  0  0
   58.9080   32.1100   45.2540 C   0  0  0  0  0  0  0  0  0  0  0  0
   58.9120   30.7160   45.4960 C   0  0  0  0  0  0  0  0  0  0  0  0
   59.2627   34.9000   48.2253 H   0  0  0  0  0  0  0  0  0  0  0  0
   58.8066   35.9487   46.8401 H   0  0  0  0  0  0  0  0  0  0  0  0
   58.3495   34.2115   46.8401 H   0  0  0  0  0  0  0  0  0  0  0  0
   60.2230   34.0244   45.5218 H   0  0  0  0  0  0  0  0  0  0  0  0
   60.9663   35.5238   46.1954 H   0  0  0  0  0  0  0  0  0  0  0  0
   61.3972   33.4011   49.4122 H   0  0  0  0  0  0  0  0  0  0  0  0
   61.8721   35.0589   48.9094 H   0  0  0  0  0  0  0  0  0  0  0  0
   60.1403   34.5818   48.9094 H   0  0  0  0  0  0  0  0  0  0  0  0
   62.7273   34.0425   45.8025 H   0  0  0  0  0  0  0  0  0  0  0  0
   63.2144   34.6159   47.4547 H   0  0  0  0  0  0  0  0  0  0  0  0
   63.5503   31.9585   46.1900 H   0  0  0  0  0  0  0  0  0  0  0  0
   64.4387   32.7138   47.5514 H   0  0  0  0  0  0  0  0  0  0  0  0
   64.1825   30.9513   49.2387 H   0  0  0  0  0  0  0  0  0  0  0  0
   63.7293   32.6626   49.5676 H   0  0  0  0  0  0  0  0  0  0  0  0
   62.9150   30.6243   51.1445 H   0  0  0  0  0  0  0  0  0  0  0  0
   61.8993   32.0854   50.8403 H   0  0  0  0  0  0  0  0  0  0  0  0
   59.4158   30.2314   50.4950 H   0  0  0  0  0  0  0  0  0  0  0  0
   60.1824   31.8481   50.6729 H   0  0  0  0  0  0  0  0  0  0  0  0
   58.5063   30.9261   48.5574 H   0  0  0  0  0  0  0  0  0  0  0  0
   59.4280   32.4940   48.6779 H   0  0  0  0  0  0  0  0  0  0  0  0
   61.1880   30.5160   47.8810 H   0  0  0  0  0  0  0  0  0  0  0  0
   60.7590   31.8480   47.0820 H   0  0  0  0  0  0  0  0  0  0  0  0
   60.7177   28.6735   48.6263 H   0  0  0  0  0  0  0  0  0  0  0  0
   60.6226   26.2085   48.8684 H   0  0  0  0  0  0  0  0  0  0  0  0
   59.4371   24.8258   47.1772 H   0  0  0  0  0  0  0  0  0  0  0  0
   58.3777   25.9032   45.2113 H   0  0  0  0  0  0  0  0  0  0  0  0
   58.0074   26.6555   43.7154 H   0  0  0  0  0  0  0  0  0  0  0  0
   57.3845   28.0959   42.8413 H   0  0  0  0  0  0  0  0  0  0  0  0
   59.1446   27.7370   42.8413 H   0  0  0  0  0  0  0  0  0  0  0  0
   55.4319   29.3025   43.9109 H   0  0  0  0  0  0  0  0  0  0  0  0
   55.4737   30.4051   42.4934 H   0  0  0  0  0  0  0  0  0  0  0  0
   56.4611   28.9045   42.4934 H   0  0  0  0  0  0  0  0  0  0  0  0
   56.5776   32.3168   42.7870 H   0  0  0  0  0  0  0  0  0  0  0  0
   58.1712   33.7417   44.0454 H   0  0  0  0  0  0  0  0  0  0  0  0
   59.5451   32.7665   45.8648 H   0  0  0  0  0  0  0  0  0  0  0  0
  1  2  1  0
  2  3  1  0
  3  4  1  0
  3  5  1  0
  5  6  1  0
  6  7  1  0
  7  8  1  0
  8  9  1  0
  9 10  1  0
 10 11  1  0
 11 12  1  0
 12 13  1  0
 13 14  1  0
 14 15  2  0
 15 16  1  0
 16 17  2  0
 17 18  1  0
 18 19  2  0
 19 20  1  0
 20 21  2  0
 21 22  1  0
 21 23  1  0
 23 24  2  0
 24 25  1  0
 24 26  1  0
 26 27  2  0
 27 28  1  0
 28 29  2  0
 29 14  1  0
 20 15  1  0
 29 23  1  0
  1 30  1  0
  1 31  1  0
  1 32  1  0
  2 33  1  0
  2 34  1  0
  4 35  1  0
  4 36  1  0
  4 37  1  0
  5 38  1  0
  5 39  1  0
  6 40  1  0
  6 41  1  0
  8 42  1  0
  8 43  1  0
  9 44  1  0
  9 45  1  0
 11 46  1  0
 11 47  1  0
 12 48  1  0
 12 49  1  0
 13 50  1  0
 13 51  1  0
 16 52  1  0
 17 53  1  0
 18 54  1  0
 19 55  1  0
 22 56  1  0
 22 57  1  0
 22 58  1  0
 25 59  1  0
 25 60  1  0
 25 61  1  0
 26 62  1  0
 27 63  1  0
 28 64  1  0
M  CHG  2  13   1  21   1
M  END
>  <UniqueID>  (17) 
17

>  <SMILES>  (17) 
CCN(C)CCOCCOCC[NH2+]c1c2ccccc2[n+](C)c2c(C)cccc12

>  <Energy>  (17) 
103.4490666808692

>  <Genealogy>  (17) 
CCN(C)CCOCCOCC[NH2+]c1c2ccccc2[n+](C)c2c(C)cccc12 (protonated)
CCN(C)CCOCCOCC[NH2+]c1c2ccccc2[n+](C)c2c(C)cccc12 (3D coordinates assigned)
CCN(C)CCOCCOCC[NH2+]c1c2ccccc2[n+](C)c2c(C)cccc12 (optimized conformer: 103.4490666808692 kcal/mol)

>  <smiles>  (17) 
CCN(C)CCOCCOCCNc1c2ccccc2[n+](C)c2c(C)cccc12

>  <score_type>  (17) 
oracle

>  <origin>  (17) 
adg

>  <m_score__min__energy>  (17) 
-4.9199999999999999

>  <m_primary>  (17) 
energy

$$$$
17:0
     RDKit          3D

 44 44  0  0  0  0  0  0  0  0999 V2000
   59.2470   34.5850   45.6900 C   0  0  0  0  0  0  0  0  0  0  0  0
   58.3280   33.4340   46.1020 C   0  0  0  0  0  0  0  0  0  0  0  0
   58.6110   32.1960   45.3380 N   0  0  0  0  0  0  0  0  0  0  0  0
   58.1270   32.2470   43.9470 C   0  0  0  0  0  0  0  0  0  0  0  0
   57.0510   31.1880   43.6610 C   0  0  0  0  0  0  0  0  0  0  0  0
   56.7520   30.4730   44.8440 O   0  0  0  0  0  0  0  0  0  0  0  0
   56.6670   29.0850   44.5830 C   0  0  0  0  0  0  0  0  0  0  0  0
   57.8800   28.3710   45.2090 C   0  0  1  0  0  0  0  0  0  0  0  0
   58.4430   29.1580   46.4120 C   0  0  0  0  0  0  0  0  0  0  0  0
   59.6700   29.8970   46.0370 N   0  0  0  0  0  0  0  0  0  0  0  0
   60.5370   29.0820   45.1690 C   0  0  0  0  0  0  0  0  0  0  0  0
   60.4200   30.2980   47.2390 C   0  0  0  0  0  0  0  0  0  0  0  0
   57.5270   26.9520   45.6190 C   0  0  0  0  0  0  0  0  0  0  0  0
   58.4960   25.9320   45.6400 C   0  0  0  0  0  0  0  0  0  0  0  0
   58.1450   24.6390   46.0300 C   0  0  0  0  0  0  0  0  0  0  0  0
   56.8260   24.3690   46.3950 C   0  0  0  0  0  0  0  0  0  0  0  0
   55.8970   25.3580   46.3670 N   0  0  0  0  0  0  0  0  0  0  0  0
   56.2120   26.6270   45.9930 C   0  0  0  0  0  0  0  0  0  0  0  0
   59.6416   35.0793   46.5900 H   0  0  0  0  0  0  0  0  0  0  0  0
   60.0820   34.1914   45.0918 H   0  0  0  0  0  0  0  0  0  0  0  0
   58.6783   35.3122   45.0918 H   0  0  0  0  0  0  0  0  0  0  0  0
   58.4721   33.2307   47.1734 H   0  0  0  0  0  0  0  0  0  0  0  0
   57.2914   33.7345   45.8896 H   0  0  0  0  0  0  0  0  0  0  0  0
   58.1140   31.4030   45.8080 H   0  0  0  0  0  0  0  0  0  0  0  0
   59.6300   31.9580   45.3480 H   0  0  0  0  0  0  0  0  0  0  0  0
   57.7010   33.2433   43.7577 H   0  0  0  0  0  0  0  0  0  0  0  0
   58.9827   32.0419   43.2869 H   0  0  0  0  0  0  0  0  0  0  0  0
   56.1400   31.6836   43.2944 H   0  0  0  0  0  0  0  0  0  0  0  0
   57.4257   30.4878   42.8999 H   0  0  0  0  0  0  0  0  0  0  0  0
   55.7401   28.6855   45.0204 H   0  0  0  0  0  0  0  0  0  0  0  0
   56.6616   28.9153   43.4962 H   0  0  0  0  0  0  0  0  0  0  0  0
   58.6645   28.3245   44.4393 H   0  0  0  0  0  0  0  0  0  0  0  0
   57.6841   29.8743   46.7599 H   0  0  0  0  0  0  0  0  0  0  0  0
   58.6947   28.4442   47.2102 H   0  0  0  0  0  0  0  0  0  0  0  0
   61.1982   28.4605   45.7908 H   0  0  0  0  0  0  0  0  0  0  0  0
   59.9150   28.4340   44.5340 H   0  0  0  0  0  0  0  0  0  0  0  0
   61.1453   29.7428   44.5340 H   0  0  0  0  0  0  0  0  0  0  0  0
   59.8602   29.9987   48.1373 H   0  0  0  0  0  0  0  0  0  0  0  0
   61.4035   29.8054   47.2388 H   0  0  0  0  0  0  0  0  0  0  0  0
   60.5566   31.3895   47.2388 H   0  0  0  0  0  0  0  0  0  0  0  0
   59.5330   26.1545   45.3482 H   0  0  0  0  0  0  0  0  0  0  0  0
   58.9011   23.8403   46.0494 H   0  0  0  0  0  0  0  0  0  0  0  0
   56.5386   23.3537   46.7058 H   0  0  0  0  0  0  0  0  0  0  0  0
   55.4329   27.4035   45.9832 H   0  0  0  0  0  0  0  0  0  0  0  0
  1  2  1  0
  2  3  1  0
  3  4  1  0
  4  5  1  0
  5  6  1  0
  6  7  1  0
  7  8  1  0
  8  9  1  0
  9 10  1  0
 10 11  1  0
 10 12  1  0
  8 13  1  0
 13 14  2  0
 14 15  1  0
 15 16  2  0
 16 17  1  0
 17 18  2  0
 18 13  1  0
  1 19  1  0
  1 20  1  0
  1 21  1  0
  2 22  1  0
  2 23  1  0
  3 24  1  0
  3 25  1  0
  4 26  1  0
  4 27  1  0
  5 28  1  0
  5 29  1  0
  7 30  1  0
  7 31  1  0
  8 32  1  6
  9 33  1  0
  9 34  1  0
 11 35  1  0
 11 36  1  0
 11 37  1  0
 12 38  1  0
 12 39  1  0
 12 40  1  0
 14 41  1  0
 15 42  1  0
 16 43  1  0
 18 44  1  0
M  CHG  1   3   1
M  END
>  <UniqueID>  (18) 
18

>  <SMILES>  (18) 
CC[NH2+]CCOC[C@@H](CN(C)C)c1cccnc1

>  <Energy>  (18) 
41.5283139352906

>  <Genealogy>  (18) 
CC[NH2+]CCOCC(CN(C)C)c1cccnc1 (protonated)
CC[NH2+]CCOC[C@@H](CN(C)C)c1cccnc1 (chirality)
CC[NH2+]CCOC[C@@H](CN(C)C)c1cccnc1 (3D coordinates assigned)
CC[NH2+]CCOC[C@@H](CN(C)C)c1cccnc1 (optimized conformer: 41.5283139352906 kcal/mol)

>  <smiles>  (18) 
CCNCCOCC(CN(C)C)c1cccnc1

>  <score_type>  (18) 
oracle

>  <origin>  (18) 
adg

>  <m_score__min__energy>  (18) 
-3.4700000000000002

>  <m_primary>  (18) 
energy

$$$$
18:0
     RDKit          3D

102105  0  0  0  0  0  0  0  0999 V2000
   59.5470   35.1240   45.5560 C   0  0  0  0  0  0  0  0  0  0  0  0
   58.9210   34.0720   44.6390 C   0  0  0  0  0  0  0  0  0  0  0  0
   57.7490   33.4290   45.2740 N   0  0  0  0  0  0  0  0  0  0  0  0
   57.3880   32.1160   44.6950 C   0  0  0  0  0  0  0  0  0  0  0  0
   57.9140   31.8970   43.2730 C   0  0  0  0  0  0  0  0  0  0  0  0
   57.6230   33.5330   46.7510 C   0  0  0  0  0  0  0  0  0  0  0  0
   58.2070   32.3390   47.5520 C   0  0  0  0  0  0  0  0  0  0  0  0
   58.8620   32.7220   48.7540 O   0  0  0  0  0  0  0  0  0  0  0  0
   59.6140   33.9200   48.6450 C   0  0  0  0  0  0  0  0  0  0  0  0
   60.6190   34.1340   49.7900 C   0  0  0  0  0  0  0  0  0  0  0  0
   60.4080   33.1760   50.8130 O   0  0  0  0  0  0  0  0  0  0  0  0
   59.5610   33.6860   51.8290 C   0  0  0  0  0  0  0  0  0  0  0  0
   58.1810   33.0290   51.7520 C   0  0  0  0  0  0  0  0  0  0  0  0
   58.2880   31.7370   51.1820 O   0  0  0  0  0  0  0  0  0  0  0  0
   58.7940   30.8020   52.1160 C   0  0  0  0  0  0  0  0  0  0  0  0
   58.9390   29.4290   51.4580 C   0  0  0  0  0  0  0  0  0  0  0  0
   60.3300   29.1900   51.0790 N   0  0  0  0  0  0  0  0  0  0  0  0
   60.9370   29.9770   50.0430 C   0  0  0  0  0  0  0  0  0  0  0  0
   60.4780   29.8730   48.7200 C   0  0  0  0  0  0  0  0  0  0  0  0
   59.4210   29.0000   48.3890 C   0  0  0  0  0  0  0  0  0  0  0  0
   59.0060   28.8530   47.0690 C   0  0  0  0  0  0  0  0  0  0  0  0
   59.6380   29.5670   46.0580 C   0  0  0  0  0  0  0  0  0  0  0  0
   60.6660   30.4580   46.3640 C   0  0  0  0  0  0  0  0  0  0  0  0
   61.0840   30.6620   47.7050 C   0  0  0  0  0  0  0  0  0  0  0  0
   62.0580   31.5860   48.0330 N   0  0  0  0  0  0  0  0  0  0  0  0
   62.4750   32.6050   47.0430 C   0  0  0  0  0  0  0  0  0  0  0  0
   62.6190   31.5810   49.2970 C   0  0  0  0  0  0  0  0  0  0  0  0
   63.7950   32.3170   49.5960 C   0  0  0  0  0  0  0  0  0  0  0  0
   64.3350   32.3360   50.8930 C   0  0  0  0  0  0  0  0  0  0  0  0
   65.4890   33.0620   51.2210 O   0  0  0  0  0  0  0  0  0  0  0  0
   66.8080   32.5250   51.2590 C   0  0  0  0  0  0  0  0  0  0  0  0
   66.8290   31.0310   50.8500 C   0  0  0  0  0  0  0  0  0  0  0  0
   66.8680   30.0150   51.9610 N   0  0  0  0  0  0  0  0  0  0  0  0
   66.6360   30.6680   53.2780 C   0  0  0  0  0  0  0  0  0  0  0  0
   68.1960   29.3070   51.9950 C   0  0  0  0  0  0  0  0  0  0  0  0
   68.2100   28.0250   51.1400 C   0  0  0  0  0  0  0  0  0  0  0  0
   67.2370   27.0020   51.6400 N   0  0  0  0  0  0  0  0  0  0  0  0
   67.9090   26.1100   52.6170 C   0  0  0  0  0  0  0  0  0  0  0  0
   66.7870   26.1690   50.4960 C   0  0  0  0  0  0  0  0  0  0  0  0
   66.0490   27.6380   52.2950 C   0  0  0  0  0  0  0  0  0  0  0  0
   65.7510   29.0370   51.7220 C   0  0  0  0  0  0  0  0  0  0  0  0
   63.7130   31.6060   51.9030 C   0  0  0  0  0  0  0  0  0  0  0  0
   62.5850   30.8400   51.6300 C   0  0  0  0  0  0  0  0  0  0  0  0
   62.0370   30.8020   50.3320 C   0  0  0  0  0  0  0  0  0  0  0  0
   59.3791   34.8419   46.6059 H   0  0  0  0  0  0  0  0  0  0  0  0
   60.6279   35.1841   45.3608 H   0  0  0  0  0  0  0  0  0  0  0  0
   59.0842   36.1026   45.3608 H   0  0  0  0  0  0  0  0  0  0  0  0
   58.6006   34.5568   43.7050 H   0  0  0  0  0  0  0  0  0  0  0  0
   59.6744   33.2961   44.4383 H   0  0  0  0  0  0  0  0  0  0  0  0
   57.8003   31.3275   45.3417 H   0  0  0  0  0  0  0  0  0  0  0  0
   56.2900   32.0846   44.6368 H   0  0  0  0  0  0  0  0  0  0  0  0
   58.9286   31.4746   43.3184 H   0  0  0  0  0  0  0  0  0  0  0  0
   57.2503   31.2004   42.7398 H   0  0  0  0  0  0  0  0  0  0  0  0
   57.9408   32.8587   42.7398 H   0  0  0  0  0  0  0  0  0  0  0  0
   58.1449   34.4461   47.0732 H   0  0  0  0  0  0  0  0  0  0  0  0
   56.5439   33.5437   46.9643 H   0  0  0  0  0  0  0  0  0  0  0  0
   57.3831   31.6566   47.8079 H   0  0  0  0  0  0  0  0  0  0  0  0
   58.9639   31.8624   46.9117 H   0  0  0  0  0  0  0  0  0  0  0  0
   60.1705   33.8940   47.6965 H   0  0  0  0  0  0  0  0  0  0  0  0
   58.8960   34.7520   48.6920 H   0  0  0  0  0  0  0  0  0  0  0  0
   61.6420   34.0291   49.3996 H   0  0  0  0  0  0  0  0  0  0  0  0
   60.4774   35.1417   50.2077 H   0  0  0  0  0  0  0  0  0  0  0  0
   60.0077   33.4769   52.8122 H   0  0  0  0  0  0  0  0  0  0  0  0
   59.4482   34.7711   51.6884 H   0  0  0  0  0  0  0  0  0  0  0  0
   57.7606   32.9460   52.7651 H   0  0  0  0  0  0  0  0  0  0  0  0
   57.5229   33.6465   51.1230 H   0  0  0  0  0  0  0  0  0  0  0  0
   59.7779   31.1402   52.4730 H   0  0  0  0  0  0  0  0  0  0  0  0
   58.0957   30.7241   52.9624 H   0  0  0  0  0  0  0  0  0  0  0  0
   58.6178   28.6516   52.1669 H   0  0  0  0  0  0  0  0  0  0  0  0
   58.3127   29.3985   50.5542 H   0  0  0  0  0  0  0  0  0  0  0  0
   60.7310   28.2440   51.2620 H   0  0  0  0  0  0  0  0  0  0  0  0
   58.9188   28.4286   49.1836 H   0  0  0  0  0  0  0  0  0  0  0  0
   58.1775   28.1715   46.8257 H   0  0  0  0  0  0  0  0  0  0  0  0
   59.3260   29.4287   45.0123 H   0  0  0  0  0  0  0  0  0  0  0  0
   61.1612   31.0119   45.5528 H   0  0  0  0  0  0  0  0  0  0  0  0
   62.8409   33.4991   47.5690 H   0  0  0  0  0  0  0  0  0  0  0  0
   63.2782   32.1963   46.4122 H   0  0  0  0  0  0  0  0  0  0  0  0
   61.6157   32.8766   46.4122 H   0  0  0  0  0  0  0  0  0  0  0  0
   64.2938   32.8840   48.7962 H   0  0  0  0  0  0  0  0  0  0  0  0
   67.4448   33.0937   50.5654 H   0  0  0  0  0  0  0  0  0  0  0  0
   67.1814   32.6039   52.2907 H   0  0  0  0  0  0  0  0  0  0  0  0
   65.9236   30.8375   50.2559 H   0  0  0  0  0  0  0  0  0  0  0  0
   67.7778   30.8977   50.3097 H   0  0  0  0  0  0  0  0  0  0  0  0
   66.8861   29.9641   54.0854 H   0  0  0  0  0  0  0  0  0  0  0  0
   67.2715   31.5620   53.3610 H   0  0  0  0  0  0  0  0  0  0  0  0
   65.5789   30.9606   53.3610 H   0  0  0  0  0  0  0  0  0  0  0  0
   68.9691   29.9913   51.6155 H   0  0  0  0  0  0  0  0  0  0  0  0
   68.3884   29.0127   53.0373 H   0  0  0  0  0  0  0  0  0  0  0  0
   67.9480   28.2869   50.1042 H   0  0  0  0  0  0  0  0  0  0  0  0
   69.2185   27.5899   51.1995 H   0  0  0  0  0  0  0  0  0  0  0  0
   67.6642   26.4350   53.6390 H   0  0  0  0  0  0  0  0  0  0  0  0
   67.5631   25.0765   52.4681 H   0  0  0  0  0  0  0  0  0  0  0  0
   68.9979   26.1573   52.4681 H   0  0  0  0  0  0  0  0  0  0  0  0
   66.2961   25.2604   50.8747 H   0  0  0  0  0  0  0  0  0  0  0  0
   66.0755   26.7417   49.8829 H   0  0  0  0  0  0  0  0  0  0  0  0
   67.6560   25.8879   49.8829 H   0  0  0  0  0  0  0  0  0  0  0  0
   65.1704   26.9954   52.1367 H   0  0  0  0  0  0  0  0  0  0  0  0
   66.2729   27.7513   53.3660 H   0  0  0  0  0  0  0  0  0  0  0  0
   65.5900   28.9456   50.6377 H   0  0  0  0  0  0  0  0  0  0  0  0
   64.8581   29.4221   52.2363 H   0  0  0  0  0  0  0  0  0  0  0  0
   64.1176   31.6357   52.9255 H   0  0  0  0  0  0  0  0  0  0  0  0
   62.1152   30.2572   52.4360 H   0  0  0  0  0  0  0  0  0  0  0  0
  1  2  1  0
  2  3  1  0
  3  4  1  0
  4  5  1  0
  3  6  1  0
  6  7  1  0
  7  8  1  0
  8  9  1  0
  9 10  1  0
 10 11  1  0
 11 12  1  0
 12 13  1  0
 13 14  1  0
 14 15  1  0
 15 16  1  0
 16 17  1  0
 17 18  1  0
 18 19  2  0
 19 20  1  0
 20 21  2  0
 21 22  1  0
 22 23  2  0
 23 24  1  0
 24 25  2  0
 25 26  1  0
 25 27  1  0
 27 28  2  0
 28 29  1  0
 29 30  1  0
 30 31  1  0
 31 32  1  0
 32 33  1  0
 33 34  1  0
 33 35  1  0
 35 36  1  0
 36 37  1  0
 37 38  1  0
 37 39  1  0
 37 40  1  0
 40 41  1  0
 29 42  2  0
 42 43  1  0
 43 44  2  0
 44 18  1  0
 24 19  1  0
 44 27  1  0
 41 33  1  0
  1 45  1  0
  1 46  1  0
  1 47  1  0
  2 48  1  0
  2 49  1  0
  4 50  1  0
  4 51  1  0
  5 52  1  0
  5 53  1  0
  5 54  1  0
  6 55  1  0
  6 56  1  0
  7 57  1  0
  7 58  1  0
  9 59  1  0
  9 60  1  0
 10 61  1  0
 10 62  1  0
 12 63  1  0
 12 64  1  0
 13 65  1  0
 13 66  1  0
 15 67  1  0
 15 68  1  0
 16 69  1  0
 16 70  1  0
 17 71  1  0
 20 72  1  0
 21 73  1  0
 22 74  1  0
 23 75  1  0
 26 76  1  0
 26 77  1  0
 26 78  1  0
 28 79  1  0
 31 80  1  0
 31 81  1  0
 32 82  1  0
 32 83  1  0
 34 84  1  0
 34 85  1  0
 34 86  1  0
 35 87  1  0
 35 88  1  0
 36 89  1  0
 36 90  1  0
 38 91  1  0
 38 92  1  0
 38 93  1  0
 39 94  1  0
 39 95  1  0
 39 96  1  0
 40 97  1  0
 40 98  1  0
 41 99  1  0
 41100  1  0
 42101  1  0
 43102  1  0
M  CHG  3  25   1  33   1  37   1
M  END
>  <UniqueID>  (19) 
19

>  <SMILES>  (19) 
CCN(CC)CCOCCOCCOCCNc1c2ccccc2[n+](C)c2cc(OCC[N+]3(C)CC[N+](C)(C)CC3)ccc12

>  <Energy>  (19) 
170.87668892847032

>  <Genealogy>  (19) 
CCN(CC)CCOCCOCCOCCNc1c2ccccc2[n+](C)c2cc(OCC[N+]3(C)CC[N+](C)(C)CC3)ccc12 (3D coordinates assigned)
CCN(CC)CCOCCOCCOCCNc1c2ccccc2[n+](C)c2cc(OCC[N+]3(C)CC[N+](C)(C)CC3)ccc12 (nonaromatic ring conformer: 170.87668892847032 kcal/mol)

>  <smiles>  (19) 
CCN(CC)CCOCCOCCOCCNc1c2ccccc2[n+](C)c2cc(OCC[N+]3(C)CC[N+](C)(C)CC3)ccc12

>  <score_type>  (19) 
oracle

>  <origin>  (19) 
adg

>  <m_score__min__energy>  (19) 
-4.6100000000000003

>  <m_primary>  (19) 
energy

$$$$
19:0
     RDKit          3D

 51 53  0  0  0  0  0  0  0  0999 V2000
   51.1510   22.4910   47.2800 C   0  0  0  0  0  0  0  0  0  0  0  0
   52.4620   22.2750   46.5340 C   0  0  0  0  0  0  0  0  0  0  0  0
   52.4100   22.9780   45.2290 N   0  0  0  0  0  0  0  0  0  0  0  0
   51.0340   23.0970   44.6960 C   0  0  0  0  0  0  0  0  0  0  0  0
   50.7070   24.4900   44.1350 C   0  0  0  0  0  0  0  0  0  0  0  0
   53.1320   24.2690   45.2270 C   0  0  0  0  0  0  0  0  0  0  0  0
   54.6430   24.0540   45.3300 C   0  0  0  0  0  0  0  0  0  0  0  0
   55.1440   24.8720   46.3680 O   0  0  0  0  0  0  0  0  0  0  0  0
   55.6260   24.0840   47.4390 C   0  0  0  0  0  0  0  0  0  0  0  0
   57.0720   23.6890   47.2540 C   0  0  0  0  0  0  0  0  0  0  0  0
   57.3750   22.4690   47.3200 O   0  0  0  0  0  0  0  0  0  0  0  0
   58.1200   24.6470   47.0450 N   0  0  0  0  0  0  0  0  0  0  0  0
   58.0600   25.8120   46.2110 C   0  0  0  0  0  0  0  0  0  0  0  0
   58.1640   27.1010   46.7600 C   0  0  0  0  0  0  0  0  0  0  0  0
   58.1220   28.2370   45.9300 C   0  0  0  0  0  0  0  0  0  0  0  0
   58.2460   29.5390   46.4430 C   0  0  0  0  0  0  0  0  0  0  0  0
   58.4000   29.7050   47.6870 O   0  0  0  0  0  0  0  0  0  0  0  0
   58.2050   30.6220   45.5970 N   0  0  0  0  0  0  0  0  0  0  0  0
   58.3290   31.8960   46.0950 C   0  0  0  0  0  0  0  0  0  0  0  0
   58.2890   33.0040   45.2470 C   0  0  0  0  0  0  0  0  0  0  0  0
   58.1220   32.8170   43.8800 C   0  0  0  0  0  0  0  0  0  0  0  0
   57.9960   31.5280   43.3710 C   0  0  0  0  0  0  0  0  0  0  0  0
   58.0380   30.4270   44.2420 C   0  0  0  0  0  0  0  0  0  0  0  0
   57.9130   29.1680   43.7350 N   0  0  0  0  0  0  0  0  0  0  0  0
   57.9500   28.0750   44.5430 C   0  0  0  0  0  0  0  0  0  0  0  0
   57.8140   26.7880   44.0020 C   0  0  0  0  0  0  0  0  0  0  0  0
   57.8580   25.6630   44.8310 C   0  0  0  0  0  0  0  0  0  0  0  0
   57.7060   24.0660   44.1130 Cl  0  0  0  0  0  0  0  0  0  0  0  0
   51.3365   22.4604   48.3638 H   0  0  0  0  0  0  0  0  0  0  0  0
   50.7311   23.4704   47.0074 H   0  0  0  0  0  0  0  0  0  0  0  0
   50.4390   21.6980   47.0074 H   0  0  0  0  0  0  0  0  0  0  0  0
   53.2944   22.6738   47.1324 H   0  0  0  0  0  0  0  0  0  0  0  0
   52.6146   21.1988   46.3649 H   0  0  0  0  0  0  0  0  0  0  0  0
   50.9091   22.3597   43.8893 H   0  0  0  0  0  0  0  0  0  0  0  0
   50.3472   22.9197   45.5367 H   0  0  0  0  0  0  0  0  0  0  0  0
   50.5425   25.1909   44.9667 H   0  0  0  0  0  0  0  0  0  0  0  0
   51.5466   24.8433   43.5184 H   0  0  0  0  0  0  0  0  0  0  0  0
   49.7979   24.4328   43.5184 H   0  0  0  0  0  0  0  0  0  0  0  0
   52.9080   24.8046   44.2927 H   0  0  0  0  0  0  0  0  0  0  0  0
   52.8021   24.8556   46.0970 H   0  0  0  0  0  0  0  0  0  0  0  0
   54.8527   22.9981   45.5560 H   0  0  0  0  0  0  0  0  0  0  0  0
   55.1263   24.3167   44.3774 H   0  0  0  0  0  0  0  0  0  0  0  0
   55.5330   24.6597   48.3717 H   0  0  0  0  0  0  0  0  0  0  0  0
   55.0271   23.1621   47.4748 H   0  0  0  0  0  0  0  0  0  0  0  0
   58.2792   27.2234   47.8471 H   0  0  0  0  0  0  0  0  0  0  0  0
   58.4616   32.0452   47.1767 H   0  0  0  0  0  0  0  0  0  0  0  0
   58.3891   34.0193   45.6583 H   0  0  0  0  0  0  0  0  0  0  0  0
   58.0896   33.6838   43.2036 H   0  0  0  0  0  0  0  0  0  0  0  0
   57.8640   31.3719   42.2902 H   0  0  0  0  0  0  0  0  0  0  0  0
   57.7860   29.0370   42.7040 H   0  0  0  0  0  0  0  0  0  0  0  0
   57.6718   26.6630   42.9184 H   0  0  0  0  0  0  0  0  0  0  0  0
  1  2  1  0
  2  3  1  0
  3  4  1  0
  4  5  1  0
  3  6  1  0
  6  7  1  0
  7  8  1  0
  8  9  1  0
  9 10  1  0
 10 11  2  0
 10 12  1  0
 12 13  1  0
 13 14  2  0
 14 15  1  0
 15 16  1  0
 16 17  2  0
 16 18  1  0
 18 19  1  0
 19 20  2  0
 20 21  1  0
 21 22  2  0
 22 23  1  0
 23 24  2  0
 24 25  1  0
 25 26  1  0
 26 27  2  0
 27 28  1  0
 27 13  1  0
 25 15  2  0
 23 18  1  0
  1 29  1  0
  1 30  1  0
  1 31  1  0
  2 32  1  0
  2 33  1  0
  4 34  1  0
  4 35  1  0
  5 36  1  0
  5 37  1  0
  5 38  1  0
  6 39  1  0
  6 40  1  0
  7 41  1  0
  7 42  1  0
  9 43  1  0
  9 44  1  0
 14 45  1  0
 19 46  1  0
 20 47  1  0
 21 48  1  0
 22 49  1  0
 24 50  1  0
 26 51  1  0
M  CHG  2  12  -1  24   1
M  END
>  <UniqueID>  (20) 
20

>  <SMILES>  (20) 
CCN(CC)CCOCC(=O)[N-]c1cc2c(=O)n3ccccc3[nH+]c2cc1Cl

>  <Energy>  (20) 
67.37437765341285

>  <Genealogy>  (20) 
CCN(CC)CCOCC(=O)[N-]c1cc2c(=O)n3ccccc3[nH+]c2cc1Cl (protonated)
CCN(CC)CCOCC(=O)[N-]c1cc2c(=O)n3ccccc3[nH+]c2cc1Cl (3D coordinates assigned)
CCN(CC)CCOCC(=O)[N-]c1cc2c(=O)n3ccccc3[nH+]c2cc1Cl (optimized conformer: 67.37437765341285 kcal/mol)

>  <smiles>  (20) 
CCN(CC)CCOCC(=O)Nc1cc2c(=O)n3ccccc3nc2cc1Cl

>  <score_type>  (20) 
oracle

>  <origin>  (20) 
adg

>  <m_score__min__energy>  (20) 
-7.8600000000000003

>  <m_primary>  (20) 
energy

$$$$
20:0
     RDKit          3D

 55 57  0  0  0  0  0  0  0  0999 V2000
   59.3590   22.2180   44.4810 C   0  0  0  0  0  0  0  0  0  0  0  0
   58.0650   21.5370   44.0340 C   0  0  0  0  0  0  0  0  0  0  0  0
   57.6110   20.5100   44.9880 N   0  0  0  0  0  0  0  0  0  0  0  0
   56.2100   20.7000   45.4310 C   0  0  0  0  0  0  0  0  0  0  0  0
   56.1040   21.6890   46.5990 C   0  0  0  0  0  0  0  0  0  0  0  0
   57.3920   22.1720   46.9170 O   0  0  0  0  0  0  0  0  0  0  0  0
   57.3410   23.5430   47.2770 C   0  0  0  0  0  0  0  0  0  0  0  0
   55.8900   23.9760   47.4960 C   0  0  0  0  0  0  0  0  0  0  0  0
   55.5520   25.0300   46.6140 O   0  0  0  0  0  0  0  0  0  0  0  0
   56.6460   25.3600   45.7810 C   0  0  0  0  0  0  0  0  0  0  0  0
   56.7520   26.8790   45.6560 C   0  0  0  0  0  0  0  0  0  0  0  0
   58.1500   27.3010   45.7330 N   0  0  0  0  0  0  0  0  0  0  0  0
   58.4970   28.6660   46.0090 C   0  0  0  0  0  0  0  0  0  0  0  0
   58.1120   29.7300   45.1670 C   0  0  0  0  0  0  0  0  0  0  0  0
   57.3610   29.4950   44.0000 C   0  0  0  0  0  0  0  0  0  0  0  0
   57.0080   30.5440   43.1550 C   0  0  0  0  0  0  0  0  0  0  0  0
   57.4040   31.8430   43.4530 C   0  0  0  0  0  0  0  0  0  0  0  0
   58.1340   32.1100   44.6110 C   0  0  0  0  0  0  0  0  0  0  0  0
   58.4800   31.0720   45.5140 C   0  0  0  0  0  0  0  0  0  0  0  0
   59.1570   31.3320   46.6970 N   0  0  0  0  0  0  0  0  0  0  0  0
   59.4260   32.7200   47.1270 C   0  0  0  0  0  0  0  0  0  0  0  0
   59.5780   30.2730   47.4690 C   0  0  0  0  0  0  0  0  0  0  0  0
   60.3850   30.3400   48.6270 C   0  0  0  0  0  0  0  0  0  0  0  0
   60.6360   29.0950   49.1950 C   0  0  0  0  0  0  0  0  0  0  0  0
   59.8850   27.9070   48.2680 S   0  0  0  0  0  0  0  0  0  0  0  0
   59.2340   28.9730   47.1430 C   0  0  0  0  0  0  0  0  0  0  0  0
   59.4010   22.2401   45.5800 H   0  0  0  0  0  0  0  0  0  0  0  0
   60.2217   21.6571   44.0923 H   0  0  0  0  0  0  0  0  0  0  0  0
   59.3852   23.2467   44.0923 H   0  0  0  0  0  0  0  0  0  0  0  0
   57.2793   22.3008   43.9371 H   0  0  0  0  0  0  0  0  0  0  0  0
   58.2635   21.0380   43.0740 H   0  0  0  0  0  0  0  0  0  0  0  0
   57.6760   19.5860   44.4990 H   0  0  0  0  0  0  0  0  0  0  0  0
   58.2760   20.4640   45.7970 H   0  0  0  0  0  0  0  0  0  0  0  0
   55.6197   21.0842   44.5861 H   0  0  0  0  0  0  0  0  0  0  0  0
   55.8281   19.7273   45.7746 H   0  0  0  0  0  0  0  0  0  0  0  0
   55.4564   22.5302   46.3111 H   0  0  0  0  0  0  0  0  0  0  0  0
   55.6731   21.1817   47.4747 H   0  0  0  0  0  0  0  0  0  0  0  0
   57.9105   23.6967   48.2055 H   0  0  0  0  0  0  0  0  0  0  0  0
   57.7775   24.1444   46.4660 H   0  0  0  0  0  0  0  0  0  0  0  0
   55.2243   23.1202   47.3103 H   0  0  0  0  0  0  0  0  0  0  0  0
   55.7744   24.3265   48.5322 H   0  0  0  0  0  0  0  0  0  0  0  0
   57.5734   24.9627   46.2194 H   0  0  0  0  0  0  0  0  0  0  0  0
   56.4933   24.9202   44.7844 H   0  0  0  0  0  0  0  0  0  0  0  0
   56.3313   27.1933   44.6894 H   0  0  0  0  0  0  0  0  0  0  0  0
   56.1930   27.3446   46.4811 H   0  0  0  0  0  0  0  0  0  0  0  0
   58.8390   26.7440   45.1780 H   0  0  0  0  0  0  0  0  0  0  0  0
   57.0490   28.4697   43.7523 H   0  0  0  0  0  0  0  0  0  0  0  0
   56.4149   30.3446   42.2503 H   0  0  0  0  0  0  0  0  0  0  0  0
   57.1400   32.6650   42.7714 H   0  0  0  0  0  0  0  0  0  0  0  0
   58.4465   33.1422   44.8277 H   0  0  0  0  0  0  0  0  0  0  0  0
   59.4353   32.7681   48.2259 H   0  0  0  0  0  0  0  0  0  0  0  0
   60.4032   33.0416   46.7376 H   0  0  0  0  0  0  0  0  0  0  0  0
   58.6397   33.3834   46.7376 H   0  0  0  0  0  0  0  0  0  0  0  0
   60.7757   31.2824   49.0383 H   0  0  0  0  0  0  0  0  0  0  0  0
   61.2296   28.9157   50.1036 H   0  0  0  0  0  0  0  0  0  0  0  0
  1  2  1  0
  2  3  1  0
  3  4  1  0
  4  5  1  0
  5  6  1  0
  6  7  1  0
  7  8  1  0
  8  9  1  0
  9 10  1  0
 10 11  1  0
 11 12  1  0
 12 13  1  0
 13 14  2  0
 14 15  1  0
 15 16  2  0
 16 17  1  0
 17 18  2  0
 18 19  1  0
 19 20  2  0
 20 21  1  0
 20 22  1  0
 22 23  1  0
 23 24  2  0
 24 25  1  0
 25 26  1  0
 26 13  1  0
 19 14  1  0
 26 22  2  0
  1 27  1  0
  1 28  1  0
  1 29  1  0
  2 30  1  0
  2 31  1  0
  3 32  1  0
  3 33  1  0
  4 34  1  0
  4 35  1  0
  5 36  1  0
  5 37  1  0
  7 38  1  0
  7 39  1  0
  8 40  1  0
  8 41  1  0
 10 42  1  0
 10 43  1  0
 11 44  1  0
 11 45  1  0
 12 46  1  0
 15 47  1  0
 16 48  1  0
 17 49  1  0
 18 50  1  0
 21 51  1  0
 21 52  1  0
 21 53  1  0
 23 54  1  0
 24 55  1  0
M  CHG  2   3   1  20   1
M  END
>  <UniqueID>  (21) 
21

>  <SMILES>  (21) 
CC[NH2+]CCOCCOCCNc1c2ccccc2[n+](C)c2ccsc12

>  <Energy>  (21) 
99.31976156922605

>  <Genealogy>  (21) 
CC[NH2+]CCOCCOCCNc1c2ccccc2[n+](C)c2ccsc12 (protonated)
CC[NH2+]CCOCCOCCNc1c2ccccc2[n+](C)c2ccsc12 (3D coordinates assigned)
CC[NH2+]CCOCCOCCNc1c2ccccc2[n+](C)c2ccsc12 (optimized conformer: 99.31976156922605 kcal/mol)

>  <smiles>  (21) 
CCNCCOCCOCCNc1c2ccccc2[n+](C)c2ccsc12

>  <score_type>  (21) 
oracle

>  <origin>  (21) 
adg

>  <m_score__min__energy>  (21) 
-3.7200000000000002

>  <m_primary>  (21) 
energy

$$$$
21:0
     RDKit          3D

 55 57  0  0  0  0  0  0  0  0999 V2000
   58.1360   33.1900   52.3530 C   0  0  0  0  0  0  0  0  0  0  0  0
   59.2700   34.1430   51.9870 C   0  0  0  0  0  0  0  0  0  0  0  0
   60.1180   33.5760   50.9260 N   0  0  0  0  0  0  0  0  0  0  0  0
   61.5090   33.2050   51.2100 C   0  0  0  0  0  0  0  0  0  0  0  0
   62.4780   34.2200   50.6110 C   0  0  0  0  0  0  0  0  0  0  0  0
   59.6500   33.5560   49.5680 C   0  0  0  0  0  0  0  0  0  0  0  0
   59.7550   34.6920   48.8250 N   0  0  0  0  0  0  0  0  0  0  0  0
   59.2760   34.7770   47.5580 C   0  0  0  0  0  0  0  0  0  0  0  0
   58.6360   33.6820   46.9800 C   0  0  0  0  0  0  0  0  0  0  0  0
   57.9330   33.8000   45.2080 Br  0  0  0  0  0  0  0  0  0  0  0  0
   58.5280   32.4940   47.7040 C   0  0  0  0  0  0  0  0  0  0  0  0
   59.0620   32.4000   49.0010 C   0  0  0  0  0  0  0  0  0  0  0  0
   58.9500   31.0950   49.7570 C   0  0  0  0  0  0  0  0  0  0  0  0
   58.6440   29.9840   48.8340 N   0  0  0  0  0  0  0  0  0  0  0  0
   59.7040   28.9520   48.7820 C   0  0  1  0  0  0  0  0  0  0  0  0
   59.4990   28.0410   47.5440 C   0  0  0  0  0  0  0  0  0  0  0  0
   60.2450   28.5160   46.2790 C   0  0  0  0  0  0  0  0  0  0  0  0
   60.5380   30.0210   46.2890 C   0  0  0  0  0  0  0  0  0  0  0  0
   61.2540   30.4130   47.5150 N   0  0  0  0  0  0  0  0  0  0  0  0
   62.0900   31.5940   47.5260 C   0  0  0  0  0  0  0  0  0  0  0  0
   63.2710   31.6320   48.2940 C   0  0  0  0  0  0  0  0  0  0  0  0
   64.0960   32.7610   48.2750 C   0  0  0  0  0  0  0  0  0  0  0  0
   63.7530   33.8660   47.4940 C   0  0  0  0  0  0  0  0  0  0  0  0
   62.5780   33.8500   46.7410 C   0  0  0  0  0  0  0  0  0  0  0  0
   61.7470   32.7260   46.7610 C   0  0  0  0  0  0  0  0  0  0  0  0
   61.1050   29.5930   48.7280 C   0  0  0  0  0  0  0  0  0  0  0  0
   58.0539   33.1210   53.4478 H   0  0  0  0  0  0  0  0  0  0  0  0
   57.1904   33.5685   51.9375 H   0  0  0  0  0  0  0  0  0  0  0  0
   58.3461   32.1934   51.9375 H   0  0  0  0  0  0  0  0  0  0  0  0
   58.8413   35.0929   51.6349 H   0  0  0  0  0  0  0  0  0  0  0  0
   59.8909   34.3061   52.8803 H   0  0  0  0  0  0  0  0  0  0  0  0
   61.6560   33.1667   52.2995 H   0  0  0  0  0  0  0  0  0  0  0  0
   61.7086   32.2214   50.7598 H   0  0  0  0  0  0  0  0  0  0  0  0
   62.9920   34.7584   51.4209 H   0  0  0  0  0  0  0  0  0  0  0  0
   63.2199   33.6965   49.9901 H   0  0  0  0  0  0  0  0  0  0  0  0
   61.9207   34.9369   49.9901 H   0  0  0  0  0  0  0  0  0  0  0  0
   59.3929   35.7101   46.9873 H   0  0  0  0  0  0  0  0  0  0  0  0
   58.0219   31.6256   47.2570 H   0  0  0  0  0  0  0  0  0  0  0  0
   59.9030   30.8895   50.2666 H   0  0  0  0  0  0  0  0  0  0  0  0
   58.1359   31.1798   50.4919 H   0  0  0  0  0  0  0  0  0  0  0  0
   57.7680   29.5300   49.1840 H   0  0  0  0  0  0  0  0  0  0  0  0
   59.6345   28.3484   49.6990 H   0  0  0  0  0  0  0  0  0  0  0  0
   59.8552   27.0312   47.7959 H   0  0  0  0  0  0  0  0  0  0  0  0
   58.4253   28.0670   47.3065 H   0  0  0  0  0  0  0  0  0  0  0  0
   61.1992   27.9731   46.2096 H   0  0  0  0  0  0  0  0  0  0  0  0
   59.5943   28.3121   45.4159 H   0  0  0  0  0  0  0  0  0  0  0  0
   61.1572   30.2724   45.4153 H   0  0  0  0  0  0  0  0  0  0  0  0
   59.5818   30.5636   46.2538 H   0  0  0  0  0  0  0  0  0  0  0  0
   63.5463   30.7660   48.9139 H   0  0  0  0  0  0  0  0  0  0  0  0
   65.0168   32.7784   48.8765 H   0  0  0  0  0  0  0  0  0  0  0  0
   64.4086   34.7490   47.4721 H   0  0  0  0  0  0  0  0  0  0  0  0
   62.3053   34.7235   46.1306 H   0  0  0  0  0  0  0  0  0  0  0  0
   60.8167   32.7255   46.1740 H   0  0  0  0  0  0  0  0  0  0  0  0
   61.8659   28.7986   48.7229 H   0  0  0  0  0  0  0  0  0  0  0  0
   61.2337   30.2381   49.6097 H   0  0  0  0  0  0  0  0  0  0  0  0
  1  2  1  0
  2  3  1  0
  3  4  1  0
  4  5  1  0
  3  6  1  0
  6  7  2  0
  7  8  1  0
  8  9  2  0
  9 10  1  0
  9 11  1  0
 11 12  2  0
 12 13  1  0
 13 14  1  0
 14 15  1  0
 15 16  1  0
 16 17  1  0
 17 18  1  0
 18 19  1  0
 19 20  1  0
 20 21  2  0
 21 22  1  0
 22 23  2  0
 23 24  1  0
 24 25  2  0
 19 26  1  0
 12  6  1  0
 26 15  1  0
 25 20  1  0
  1 27  1  0
  1 28  1  0
  1 29  1  0
  2 30  1  0
  2 31  1  0
  4 32  1  0
  4 33  1  0
  5 34  1  0
  5 35  1  0
  5 36  1  0
  8 37  1  0
 11 38  1  0
 13 39  1  0
 13 40  1  0
 14 41  1  0
 15 42  1  1
 16 43  1  0
 16 44  1  0
 17 45  1  0
 17 46  1  0
 18 47  1  0
 18 48  1  0
 21 49  1  0
 22 50  1  0
 23 51  1  0
 24 52  1  0
 25 53  1  0
 26 54  1  0
 26 55  1  0
M  END
>  <UniqueID>  (22) 
22

>  <SMILES>  (22) 
CCN(CC)c1ncc(Br)cc1CN[C@H]1CCCN(c2ccccc2)C1

>  <Energy>  (22) 
57.31368297037977

>  <Genealogy>  (22) 
CCN(CC)c1ncc(Br)cc1CN[C@H]1CCCN(c2ccccc2)C1 (chirality)
CCN(CC)c1ncc(Br)cc1CN[C@H]1CCCN(c2ccccc2)C1 (3D coordinates assigned)
CCN(CC)c1ncc(Br)cc1CN[C@H]1CCCN(c2ccccc2)C1 (nonaromatic ring conformer: 57.31368297037977 kcal/mol)

>  <smiles>  (22) 
CCN(CC)c1ncc(Br)cc1CNC1CCCN(c2ccccc2)C1

>  <score_type>  (22) 
oracle

>  <origin>  (22) 
adg

>  <m_score__min__energy>  (22) 
-7.6900000000000004

>  <m_primary>  (22) 
energy

$$$$
22:0
     RDKit          3D

 34 36  0  0  0  0  0  0  0  0999 V2000
   56.4730   30.0140   43.6940 C   0  0  0  0  0  0  0  0  0  0  0  0
   57.3600   31.2260   43.9820 C   0  0  0  0  0  0  0  0  0  0  0  0
   57.2420   31.7200   45.3660 N   0  0  0  0  0  0  0  0  0  0  0  0
   58.3300   32.5590   45.9330 C   0  0  1  0  0  0  0  0  0  0  0  0
   59.5920   31.7050   46.2690 C   0  0  0  0  0  0  0  0  0  0  0  0
   60.6660   32.5840   46.9490 C   0  0  2  0  0  0  0  0  0  0  0  0
   60.1010   33.1650   48.2630 C   0  0  0  0  0  0  0  0  0  0  0  0
   58.8620   34.0290   47.9510 C   0  0  1  0  0  0  0  0  0  0  0  0
   59.2610   35.1870   47.0120 C   0  0  0  0  0  0  0  0  0  0  0  0
   59.8250   34.6100   45.6980 C   0  0  1  0  0  0  0  0  0  0  0  0
   61.0640   33.7390   46.0040 C   0  0  0  0  0  0  0  0  0  0  0  0
   58.7470   33.7450   45.0080 C   0  0  0  0  0  0  0  0  0  0  0  0
   57.7900   33.1580   47.2620 C   0  0  0  0  0  0  0  0  0  0  0  0
   56.1450   29.5658   44.6435 H   0  0  0  0  0  0  0  0  0  0  0  0
   55.5932   30.3326   43.1157 H   0  0  0  0  0  0  0  0  0  0  0  0
   57.0428   29.2718   43.1157 H   0  0  0  0  0  0  0  0  0  0  0  0
   58.4074   30.9430   43.8005 H   0  0  0  0  0  0  0  0  0  0  0  0
   57.0284   32.0374   43.3174 H   0  0  0  0  0  0  0  0  0  0  0  0
   57.0100   30.9250   46.0080 H   0  0  0  0  0  0  0  0  0  0  0  0
   60.0029   31.2829   45.3400 H   0  0  0  0  0  0  0  0  0  0  0  0
   59.3046   30.8946   46.9550 H   0  0  0  0  0  0  0  0  0  0  0  0
   61.5522   31.9712   47.1705 H   0  0  0  0  0  0  0  0  0  0  0  0
   60.8680   33.7856   48.7494 H   0  0  0  0  0  0  0  0  0  0  0  0
   59.8152   32.3425   48.9351 H   0  0  0  0  0  0  0  0  0  0  0  0
   58.4583   34.4402   48.8880 H   0  0  0  0  0  0  0  0  0  0  0  0
   60.0277   35.8071   47.4994 H   0  0  0  0  0  0  0  0  0  0  0  0
   58.3768   35.8035   46.7928 H   0  0  0  0  0  0  0  0  0  0  0  0
   60.1137   35.4367   45.0322 H   0  0  0  0  0  0  0  0  0  0  0  0
   61.8357   34.3570   46.4863 H   0  0  0  0  0  0  0  0  0  0  0  0
   61.4584   33.3229   45.0652 H   0  0  0  0  0  0  0  0  0  0  0  0
   59.1505   33.3458   44.0658 H   0  0  0  0  0  0  0  0  0  0  0  0
   57.8637   34.3685   44.8056 H   0  0  0  0  0  0  0  0  0  0  0  0
   57.5047   32.3375   47.9368 H   0  0  0  0  0  0  0  0  0  0  0  0
   56.9186   33.7893   47.0338 H   0  0  0  0  0  0  0  0  0  0  0  0
  1  2  1  0
  2  3  1  0
  4  3  1  6
  4  5  1  0
  5  6  1  0
  6  7  1  0
  7  8  1  0
  8  9  1  0
  9 10  1  0
 10 11  1  0
 10 12  1  0
  8 13  1  0
 12  4  1  0
 13  4  1  0
 11  6  1  0
  1 14  1  0
  1 15  1  0
  1 16  1  0
  2 17  1  0
  2 18  1  0
  3 19  1  0
  5 20  1  0
  5 21  1  0
  6 22  1  1
  7 23  1  0
  7 24  1  0
  8 25  1  1
  9 26  1  0
  9 27  1  0
 10 28  1  6
 11 29  1  0
 11 30  1  0
 12 31  1  0
 12 32  1  0
 13 33  1  0
 13 34  1  0
M  END
>  <UniqueID>  (23) 
23

>  <SMILES>  (23) 
CCNC12CC3CC(CC(C3)C1)C2

>  <Energy>  (23) 
37.94481491871274

>  <Genealogy>  (23) 
CCNC12CC3CC(CC(C3)C1)C2 (3D coordinates assigned)
CCNC12CC3CC(CC(C3)C1)C2 (nonaromatic ring conformer: 37.94481491871274 kcal/mol)

>  <smiles>  (23) 
CCNC12CC3CC(CC(C3)C1)C2

>  <score_type>  (23) 
oracle

>  <origin>  (23) 
adg

>  <m_score__min__energy>  (23) 
-5.9699999999999998

>  <m_primary>  (23) 
energy

$$$$
23:0
     RDKit          3D

 35 38  0  0  0  0  0  0  0  0999 V2000
   59.6650   27.7290   45.4880 C   0  0  0  0  0  0  0  0  0  0  0  0
   58.7740   28.4390   46.5290 C   0  0  2  0  0  0  0  0  0  0  0  0
   57.8130   27.4190   47.1850 C   0  0  0  0  0  0  0  0  0  0  0  0
   56.7930   26.9890   46.1900 C   0  0  0  0  0  0  0  0  0  0  0  0
   56.3520   25.8100   46.1710 O   0  0  0  0  0  0  0  0  0  0  0  0
   56.3390   27.9450   45.2460 N   0  0  0  0  0  0  0  0  0  0  0  0
   56.6410   29.3550   45.4700 C   0  0  2  0  0  0  0  0  0  0  0  0
   56.3440   30.1410   44.2060 C   0  0  0  0  0  0  0  0  0  0  0  0
   56.5860   31.5110   44.4710 O   0  0  0  0  0  0  0  0  0  0  0  0
   57.6890   31.9220   45.2240 C   0  0  0  0  0  0  0  0  0  0  0  0
   57.8810   33.2880   45.3910 C   0  0  0  0  0  0  0  0  0  0  0  0
   58.9390   33.7620   46.1440 C   0  0  0  0  0  0  0  0  0  0  0  0
   59.8970   32.8790   46.6440 C   0  0  0  0  0  0  0  0  0  0  0  0
   61.0080   33.4090   47.3200 C   0  0  0  0  0  0  0  0  0  0  0  0
   62.0500   32.5810   47.7190 C   0  0  0  0  0  0  0  0  0  0  0  0
   62.0120   31.2280   47.4050 C   0  0  0  0  0  0  0  0  0  0  0  0
   60.9080   30.6850   46.7450 C   0  0  0  0  0  0  0  0  0  0  0  0
   59.7720   31.4700   46.4260 C   0  0  0  0  0  0  0  0  0  0  0  0
   58.5550   30.9640   45.8270 C   0  0  0  0  0  0  0  0  0  0  0  0
   58.0550   29.5720   45.8870 N   0  0  0  0  0  0  0  0  0  0  0  0
   60.4238   27.1243   46.0063 H   0  0  0  0  0  0  0  0  0  0  0  0
   59.0434   27.0759   44.8579 H   0  0  0  0  0  0  0  0  0  0  0  0
   60.1629   28.4807   44.8579 H   0  0  0  0  0  0  0  0  0  0  0  0
   59.3952   28.8605   47.3330 H   0  0  0  0  0  0  0  0  0  0  0  0
   58.3847   26.5433   47.5262 H   0  0  0  0  0  0  0  0  0  0  0  0
   57.3122   27.8872   48.0452 H   0  0  0  0  0  0  0  0  0  0  0  0
   56.0037   29.7082   46.2941 H   0  0  0  0  0  0  0  0  0  0  0  0
   56.9987   29.7978   43.3914 H   0  0  0  0  0  0  0  0  0  0  0  0
   55.2975   29.9914   43.9020 H   0  0  0  0  0  0  0  0  0  0  0  0
   57.1853   33.9981   44.9201 H   0  0  0  0  0  0  0  0  0  0  0  0
   59.0260   34.8391   46.3498 H   0  0  0  0  0  0  0  0  0  0  0  0
   61.0536   34.4868   47.5350 H   0  0  0  0  0  0  0  0  0  0  0  0
   62.9007   32.9945   48.2806 H   0  0  0  0  0  0  0  0  0  0  0  0
   62.8578   30.5800   47.6784 H   0  0  0  0  0  0  0  0  0  0  0  0
   60.9202   29.6212   46.4656 H   0  0  0  0  0  0  0  0  0  0  0  0
  1  2  1  0
  2  3  1  0
  3  4  1  0
  4  5  2  0
  4  6  1  0
  6  7  1  0
  7  8  1  0
  8  9  1  0
  9 10  1  0
 10 11  2  0
 11 12  1  0
 12 13  2  0
 13 14  1  0
 14 15  2  0
 15 16  1  0
 16 17  2  0
 17 18  1  0
 18 19  2  0
 19 20  1  0
 20  2  1  0
 20  7  1  0
 19 10  1  0
 18 13  1  0
  1 21  1  0
  1 22  1  0
  1 23  1  0
  2 24  1  1
  3 25  1  0
  3 26  1  0
  7 27  1  1
  8 28  1  0
  8 29  1  0
 11 30  1  0
 12 31  1  0
 14 32  1  0
 15 33  1  0
 16 34  1  0
 17 35  1  0
M  CHG  1   6  -1
M  END
>  <UniqueID>  (24) 
24

>  <SMILES>  (24) 
C[C@@H]1CC(=O)[N-][C@@H]2COc3ccc4ccccc4c3N12

>  <Energy>  (24) 
65.56321766733855

>  <Genealogy>  (24) 
CC1CC(=O)[N-]C2COc3ccc4ccccc4c3N12 (protonated)
C[C@@H]1CC(=O)[N-][C@@H]2COc3ccc4ccccc4c3N12 (chirality)
C[C@@H]1CC(=O)[N-][C@@H]2COc3ccc4ccccc4c3N12 (3D coordinates assigned)
C[C@@H]1CC(=O)[N-][C@@H]2COc3ccc4ccccc4c3N12 (nonaromatic ring conformer: 65.56321766733855 kcal/mol)

>  <smiles>  (24) 
CC1CC(=O)NC2COc3ccc4ccccc4c3N12

>  <score_type>  (24) 
oracle

>  <origin>  (24) 
adg

>  <m_score__min__energy>  (24) 
-9.0399999999999991

>  <m_primary>  (24) 
energy

$$$$
24:0
     RDKit          3D

 54 57  0  0  0  0  0  0  0  0999 V2000
   63.3050   33.7570   46.8450 C   0  0  0  0  0  0  0  0  0  0  0  0
   63.5760   32.2710   47.1130 C   0  0  0  0  0  0  0  0  0  0  0  0
   62.7570   31.7430   48.2190 N   0  0  0  0  0  0  0  0  0  0  0  0
   62.9630   32.4710   49.4830 C   0  0  0  0  0  0  0  0  0  0  0  0
   61.8120   32.2080   50.4610 C   0  0  0  0  0  0  0  0  0  0  0  0
   60.8270   31.3790   49.8690 O   0  0  0  0  0  0  0  0  0  0  0  0
   60.5490   30.2690   50.6980 C   0  0  0  0  0  0  0  0  0  0  0  0
   60.2920   29.0300   49.8310 C   0  0  0  0  0  0  0  0  0  0  0  0
   60.8640   29.1930   48.4820 N   0  0  0  0  0  0  0  0  0  0  0  0
   59.9210   29.4770   47.4050 C   0  0  0  0  0  0  0  0  0  0  0  0
   59.1020   28.4340   46.8760 C   0  0  0  0  0  0  0  0  0  0  0  0
   59.1300   27.1360   47.4330 C   0  0  0  0  0  0  0  0  0  0  0  0
   58.3070   26.1260   46.9410 C   0  0  0  0  0  0  0  0  0  0  0  0
   57.4250   26.3860   45.9010 C   0  0  0  0  0  0  0  0  0  0  0  0
   57.3640   27.6550   45.3310 C   0  0  0  0  0  0  0  0  0  0  0  0
   58.2110   28.7010   45.7770 C   0  0  0  0  0  0  0  0  0  0  0  0
   58.1670   29.9580   45.1990 N   0  0  0  0  0  0  0  0  0  0  0  0
   57.4870   30.2000   43.9150 C   0  0  0  0  0  0  0  0  0  0  0  0
   58.8240   30.9770   45.8330 C   0  0  0  0  0  0  0  0  0  0  0  0
   59.6960   30.7630   46.8830 C   0  0  0  0  0  0  0  0  0  0  0  0
   60.2260   31.9040   47.2790 O   0  0  0  0  0  0  0  0  0  0  0  0
   59.7150   32.8590   46.5380 C   0  0  0  0  0  0  0  0  0  0  0  0
   59.9800   34.2220   46.6360 C   0  0  0  0  0  0  0  0  0  0  0  0
   59.2830   35.0940   45.7830 C   0  0  0  0  0  0  0  0  0  0  0  0
   58.3320   34.5900   44.8720 C   0  0  0  0  0  0  0  0  0  0  0  0
   58.0800   33.2080   44.7890 C   0  0  0  0  0  0  0  0  0  0  0  0
   58.8180   32.3530   45.6180 C   0  0  0  0  0  0  0  0  0  0  0  0
   63.2077   34.2904   47.8021 H   0  0  0  0  0  0  0  0  0  0  0  0
   64.1401   34.1842   46.2704 H   0  0  0  0  0  0  0  0  0  0  0  0
   62.3729   33.8619   46.2704 H   0  0  0  0  0  0  0  0  0  0  0  0
   63.3487   31.6999   46.2007 H   0  0  0  0  0  0  0  0  0  0  0  0
   64.6333   32.1682   47.3987 H   0  0  0  0  0  0  0  0  0  0  0  0
   61.7430   31.7870   47.9590 H   0  0  0  0  0  0  0  0  0  0  0  0
   63.9067   32.1387   49.9401 H   0  0  0  0  0  0  0  0  0  0  0  0
   62.9994   33.5487   49.2654 H   0  0  0  0  0  0  0  0  0  0  0  0
   62.2084   31.7118   51.3591 H   0  0  0  0  0  0  0  0  0  0  0  0
   61.3492   33.1698   50.7271 H   0  0  0  0  0  0  0  0  0  0  0  0
   61.4082   30.0815   51.3588 H   0  0  0  0  0  0  0  0  0  0  0  0
   59.6566   30.4812   51.3051 H   0  0  0  0  0  0  0  0  0  0  0  0
   60.7521   28.1542   50.3120 H   0  0  0  0  0  0  0  0  0  0  0  0
   59.2049   28.8936   49.7333 H   0  0  0  0  0  0  0  0  0  0  0  0
   61.5390   29.9920   48.5280 H   0  0  0  0  0  0  0  0  0  0  0  0
   61.3860   28.3180   48.2360 H   0  0  0  0  0  0  0  0  0  0  0  0
   59.8124   26.9198   48.2682 H   0  0  0  0  0  0  0  0  0  0  0  0
   58.3560   25.1179   47.3784 H   0  0  0  0  0  0  0  0  0  0  0  0
   56.7709   25.5854   45.5252 H   0  0  0  0  0  0  0  0  0  0  0  0
   56.6461   27.8494   44.5205 H   0  0  0  0  0  0  0  0  0  0  0  0
   56.4660   30.5634   44.1036 H   0  0  0  0  0  0  0  0  0  0  0  0
   58.0447   30.9548   43.3413 H   0  0  0  0  0  0  0  0  0  0  0  0
   57.4425   29.2625   43.3413 H   0  0  0  0  0  0  0  0  0  0  0  0
   60.7138   34.6052   47.3603 H   0  0  0  0  0  0  0  0  0  0  0  0
   59.4801   36.1753   45.8260 H   0  0  0  0  0  0  0  0  0  0  0  0
   57.7816   35.2840   44.2197 H   0  0  0  0  0  0  0  0  0  0  0  0
   57.3258   32.8107   44.0937 H   0  0  0  0  0  0  0  0  0  0  0  0
  1  2  1  0
  2  3  1  0
  3  4  1  0
  4  5  1  0
  5  6  1  0
  6  7  1  0
  7  8  1  0
  8  9  1  0
  9 10  1  0
 10 11  2  0
 11 12  1  0
 12 13  2  0
 13 14  1  0
 14 15  2  0
 15 16  1  0
 16 17  2  0
 17 18  1  0
 17 19  1  0
 19 20  2  0
 20 21  1  0
 21 22  1  0
 22 23  2  0
 23 24  1  0
 24 25  2  0
 25 26  1  0
 26 27  2  0
 20 10  1  0
 27 22  1  0
 16 11  1  0
 27 19  1  0
  1 28  1  0
  1 29  1  0
  1 30  1  0
  2 31  1  0
  2 32  1  0
  3 33  1  0
  4 34  1  0
  4 35  1  0
  5 36  1  0
  5 37  1  0
  7 38  1  0
  7 39  1  0
  8 40  1  0
  8 41  1  0
  9 42  1  0
  9 43  1  0
 12 44  1  0
 13 45  1  0
 14 46  1  0
 15 47  1  0
 18 48  1  0
 18 49  1  0
 18 50  1  0
 23 51  1  0
 24 52  1  0
 25 53  1  0
 26 54  1  0
M  CHG  2   9   1  17   1
M  END
>  <UniqueID>  (25) 
25

>  <SMILES>  (25) 
CCNCCOCC[NH2+]c1c2ccccc2[n+](C)c2c1oc1ccccc12

>  <Energy>  (25) 
121.7260833264179

>  <Genealogy>  (25) 
CCNCCOCC[NH2+]c1c2ccccc2[n+](C)c2c1oc1ccccc12 (protonated)
CCNCCOCC[NH2+]c1c2ccccc2[n+](C)c2c1oc1ccccc12 (3D coordinates assigned)
CCNCCOCC[NH2+]c1c2ccccc2[n+](C)c2c1oc1ccccc12 (optimized conformer: 121.7260833264179 kcal/mol)

>  <smiles>  (25) 
CCNCCOCCNc1c2ccccc2[n+](C)c2c1oc1ccccc12

>  <score_type>  (25) 
oracle

>  <origin>  (25) 
adg

>  <m_score__min__energy>  (25) 
-4.9699999999999998

>  <m_primary>  (25) 
energy

$$$$
25:0
     RDKit          3D

 53 54  0  0  0  0  0  0  0  0999 V2000
   63.1780   33.8500   46.3790 C   0  0  0  0  0  0  0  0  0  0  0  0
   63.8870   33.2150   47.5700 C   0  0  0  0  0  0  0  0  0  0  0  0
   63.6740   33.9810   48.7530 O   0  0  0  0  0  0  0  0  0  0  0  0
   63.8220   33.4610   50.0450 C   0  0  0  0  0  0  0  0  0  0  0  0
   63.6430   34.1900   51.0570 O   0  0  0  0  0  0  0  0  0  0  0  0
   64.1990   32.0210   50.2250 C   0  0  0  0  0  0  0  0  0  0  0  0
   62.9750   31.1090   50.4010 C   0  0  0  0  0  0  0  0  0  0  0  0
   61.7030   31.8430   50.8710 C   0  0  0  0  0  0  0  0  0  0  0  0
   60.8060   32.2940   49.6980 C   0  0  0  0  0  0  0  0  0  0  0  0
   61.1610   33.6280   49.1710 N   0  0  0  0  0  0  0  0  0  0  0  0
   60.0180   34.5230   48.8800 C   0  0  0  0  0  0  0  0  0  0  0  0
   59.2670   34.1370   47.6270 C   0  0  0  0  0  0  0  0  0  0  0  0
   59.6030   34.7220   46.3980 C   0  0  0  0  0  0  0  0  0  0  0  0
   59.0150   34.2690   45.2160 C   0  0  0  0  0  0  0  0  0  0  0  0
   58.0910   33.2090   45.2430 C   0  0  0  0  0  0  0  0  0  0  0  0
   57.5380   32.6650   44.0740 O   0  0  0  0  0  0  0  0  0  0  0  0
   58.0650   31.5410   43.3660 C   0  0  0  0  0  0  0  0  0  0  0  0
   58.1780   30.3440   44.2810 C   0  0  0  0  0  0  0  0  0  0  0  0
   59.3960   30.0720   44.9310 C   0  0  0  0  0  0  0  0  0  0  0  0
   59.5000   29.0020   45.8240 C   0  0  0  0  0  0  0  0  0  0  0  0
   58.3980   28.1790   46.0620 C   0  0  0  0  0  0  0  0  0  0  0  0
   58.5290   26.8440   47.1920 Cl  0  0  0  0  0  0  0  0  0  0  0  0
   57.1900   28.4220   45.4040 C   0  0  0  0  0  0  0  0  0  0  0  0
   57.0690   29.5040   44.5230 C   0  0  0  0  0  0  0  0  0  0  0  0
   55.5130   29.7810   43.7470 Cl  0  0  0  0  0  0  0  0  0  0  0  0
   57.7160   32.6630   46.4760 C   0  0  0  0  0  0  0  0  0  0  0  0
   58.3020   33.1180   47.6620 C   0  0  0  0  0  0  0  0  0  0  0  0
   62.4040   34.5432   46.7400 H   0  0  0  0  0  0  0  0  0  0  0  0
   63.9084   34.4015   45.7688 H   0  0  0  0  0  0  0  0  0  0  0  0
   62.7100   33.0634   45.7688 H   0  0  0  0  0  0  0  0  0  0  0  0
   63.4952   32.1986   47.7230 H   0  0  0  0  0  0  0  0  0  0  0  0
   64.9665   33.1817   47.3610 H   0  0  0  0  0  0  0  0  0  0  0  0
   64.7607   31.6902   49.3390 H   0  0  0  0  0  0  0  0  0  0  0  0
   64.8052   31.9464   51.1398 H   0  0  0  0  0  0  0  0  0  0  0  0
   62.7598   30.6300   49.4345 H   0  0  0  0  0  0  0  0  0  0  0  0
   63.2310   30.3842   51.1879 H   0  0  0  0  0  0  0  0  0  0  0  0
   61.1242   31.1656   51.5161 H   0  0  0  0  0  0  0  0  0  0  0  0
   62.0219   32.7466   51.4112 H   0  0  0  0  0  0  0  0  0  0  0  0
   60.9006   31.5603   48.8839 H   0  0  0  0  0  0  0  0  0  0  0  0
   59.7766   32.3578   50.0805 H   0  0  0  0  0  0  0  0  0  0  0  0
   61.7280   33.5110   48.2990 H   0  0  0  0  0  0  0  0  0  0  0  0
   61.7740   34.0990   49.8770 H   0  0  0  0  0  0  0  0  0  0  0  0
   59.3211   34.4887   49.7304 H   0  0  0  0  0  0  0  0  0  0  0  0
   60.4243   35.5328   48.7209 H   0  0  0  0  0  0  0  0  0  0  0  0
   60.3344   35.5429   46.3651 H   0  0  0  0  0  0  0  0  0  0  0  0
   59.2756   34.7435   44.2584 H   0  0  0  0  0  0  0  0  0  0  0  0
   57.3956   31.2945   42.5286 H   0  0  0  0  0  0  0  0  0  0  0  0
   59.0664   31.7960   42.9890 H   0  0  0  0  0  0  0  0  0  0  0  0
   60.2730   30.7064   44.7348 H   0  0  0  0  0  0  0  0  0  0  0  0
   60.4518   28.8081   46.3401 H   0  0  0  0  0  0  0  0  0  0  0  0
   56.3291   27.7599   45.5787 H   0  0  0  0  0  0  0  0  0  0  0  0
   56.9546   31.8700   46.5127 H   0  0  0  0  0  0  0  0  0  0  0  0
   58.0058   32.6761   48.6248 H   0  0  0  0  0  0  0  0  0  0  0  0
  1  2  1  0
  2  3  1  0
  3  4  1  0
  4  5  2  0
  4  6  1  0
  6  7  1  0
  7  8  1  0
  8  9  1  0
  9 10  1  0
 10 11  1  0
 11 12  1  0
 12 13  2  0
 13 14  1  0
 14 15  2  0
 15 16  1  0
 16 17  1  0
 17 18  1  0
 18 19  2  0
 19 20  1  0
 20 21  2  0
 21 22  1  0
 21 23  1  0
 23 24  2  0
 24 25  1  0
 15 26  1  0
 26 27  2  0
 27 12  1  0
 24 18  1  0
  1 28  1  0
  1 29  1  0
  1 30  1  0
  2 31  1  0
  2 32  1  0
  6 33  1  0
  6 34  1  0
  7 35  1  0
  7 36  1  0
  8 37  1  0
  8 38  1  0
  9 39  1  0
  9 40  1  0
 10 41  1  0
 10 42  1  0
 11 43  1  0
 11 44  1  0
 13 45  1  0
 14 46  1  0
 17 47  1  0
 17 48  1  0
 19 49  1  0
 20 50  1  0
 23 51  1  0
 26 52  1  0
 27 53  1  0
M  CHG  1  10   1
M  END
>  <UniqueID>  (26) 
26

>  <SMILES>  (26) 
CCOC(=O)CCCC[NH2+]Cc1ccc(OCc2ccc(Cl)cc2Cl)cc1

>  <Energy>  (26) 
42.76461409496375

>  <Genealogy>  (26) 
CCOC(=O)CCCC[NH2+]Cc1ccc(OCc2ccc(Cl)cc2Cl)cc1 (protonated)
CCOC(=O)CCCC[NH2+]Cc1ccc(OCc2ccc(Cl)cc2Cl)cc1 (3D coordinates assigned)
CCOC(=O)CCCC[NH2+]Cc1ccc(OCc2ccc(Cl)cc2Cl)cc1 (optimized conformer: 42.76461409496375 kcal/mol)

>  <smiles>  (26) 
CCOC(=O)CCCCNCc1ccc(OCc2ccc(Cl)cc2Cl)cc1

>  <score_type>  (26) 
oracle

>  <origin>  (26) 
adg

>  <m_score__min__energy>  (26) 
-6.7000000000000002

>  <m_primary>  (26) 
energy

$$$$
