0:0
     RDKit          3D

 51 52  0  0  0  0  0  0  0  0999 V2000
   57.5800   28.5050   43.9960 C   0  0  0  0  0  0  0  0  0  0  0  0
   56.4280   28.9600   44.8790 C   0  0  0  0  0  0  0  0  0  0  0  0
   56.1680   30.3250   44.6310 O   0  0  0  0  0  0  0  0  0  0  0  0
   57.1910   30.8610   43.8190 C   0  0  0  0  0  0  0  0  0  0  0  0
   58.2010   31.6380   44.6810 C   0  0  0  0  0  0  0  0  0  0  0  0
   57.5940   32.3670   45.8290 N   0  0  0  0  0  0  0  0  0  0  0  0
   57.3750   33.8070   45.5580 C   0  0  0  0  0  0  0  0  0  0  0  0
   58.6970   34.5950   45.5250 C   0  0  0  0  0  0  0  0  0  0  0  0
   59.5780   34.3220   46.6890 N   0  0  0  0  0  0  0  0  0  0  0  0
   60.9320   33.8840   46.2830 C   0  0  0  0  0  0  0  0  0  0  0  0
   61.6540   33.2260   47.4340 C   0  0  0  0  0  0  0  0  0  0  0  0
   62.2810   34.0200   48.4100 C   0  0  0  0  0  0  0  0  0  0  0  0
   62.9740   33.4230   49.4790 C   0  0  0  0  0  0  0  0  0  0  0  0
   63.6170   34.1770   50.4730 O   0  0  0  0  0  0  0  0  0  0  0  0
   64.7370   33.7260   51.2280 C   0  0  0  0  0  0  0  0  0  0  0  0
   63.0310   32.0300   49.5630 C   0  0  0  0  0  0  0  0  0  0  0  0
   62.4140   31.2330   48.5970 C   0  0  0  0  0  0  0  0  0  0  0  0
   61.7210   31.8220   47.5220 C   0  0  0  0  0  0  0  0  0  0  0  0
   61.0940   31.0480   46.5330 O   0  0  0  0  0  0  0  0  0  0  0  0
   60.7090   29.6860   46.6930 C   0  0  0  0  0  0  0  0  0  0  0  0
   58.9650   33.4310   47.6980 C   0  0  0  0  0  0  0  0  0  0  0  0
   58.3900   32.1420   47.0740 C   0  0  0  0  0  0  0  0  0  0  0  0
   58.4176   28.1742   44.6276 H   0  0  0  0  0  0  0  0  0  0  0  0
   57.2478   27.6705   43.3609 H   0  0  0  0  0  0  0  0  0  0  0  0
   57.9077   29.3412   43.3609 H   0  0  0  0  0  0  0  0  0  0  0  0
   55.5309   28.3664   44.6492 H   0  0  0  0  0  0  0  0  0  0  0  0
   56.6938   28.8194   45.9371 H   0  0  0  0  0  0  0  0  0  0  0  0
   57.7103   30.0415   43.3006 H   0  0  0  0  0  0  0  0  0  0  0  0
   56.7439   31.5466   43.0841 H   0  0  0  0  0  0  0  0  0  0  0  0
   58.9373   30.9233   45.0773 H   0  0  0  0  0  0  0  0  0  0  0  0
   58.6526   32.3992   44.0278 H   0  0  0  0  0  0  0  0  0  0  0  0
   56.6480   31.9480   45.9950 H   0  0  0  0  0  0  0  0  0  0  0  0
   56.8740   33.9130   44.5845 H   0  0  0  0  0  0  0  0  0  0  0  0
   56.7561   34.2154   46.3705 H   0  0  0  0  0  0  0  0  0  0  0  0
   59.2398   34.3263   44.6068 H   0  0  0  0  0  0  0  0  0  0  0  0
   58.4379   35.6635   45.5586 H   0  0  0  0  0  0  0  0  0  0  0  0
   60.8446   33.1653   45.4548 H   0  0  0  0  0  0  0  0  0  0  0  0
   61.5066   34.7671   45.9669 H   0  0  0  0  0  0  0  0  0  0  0  0
   62.2294   35.1164   48.3374 H   0  0  0  0  0  0  0  0  0  0  0  0
   64.5153   33.8153   52.3017 H   0  0  0  0  0  0  0  0  0  0  0  0
   64.9449   32.6740   50.9827 H   0  0  0  0  0  0  0  0  0  0  0  0
   65.6159   34.3403   50.9827 H   0  0  0  0  0  0  0  0  0  0  0  0
   63.5673   31.5562   50.3984 H   0  0  0  0  0  0  0  0  0  0  0  0
   62.4696   30.1373   48.6762 H   0  0  0  0  0  0  0  0  0  0  0  0
   60.6416   29.4475   47.7647 H   0  0  0  0  0  0  0  0  0  0  0  0
   59.7298   29.5236   46.2189 H   0  0  0  0  0  0  0  0  0  0  0  0
   61.4583   29.0350   46.2189 H   0  0  0  0  0  0  0  0  0  0  0  0
   59.7315   33.1542   48.4368 H   0  0  0  0  0  0  0  0  0  0  0  0
   58.1325   33.9771   48.1656 H   0  0  0  0  0  0  0  0  0  0  0  0
   59.2283   31.4724   46.8313 H   0  0  0  0  0  0  0  0  0  0  0  0
   57.7017   31.7110   47.8160 H   0  0  0  0  0  0  0  0  0  0  0  0
  1  2  1  0
  2  3  1  0
  3  4  1  0
  4  5  1  0
  5  6  1  0
  6  7  1  0
  7  8  1  0
  8  9  1  0
  9 10  1  0
 10 11  1  0
 11 12  2  0
 12 13  1  0
 13 14  1  0
 14 15  1  0
 13 16  2  0
 16 17  1  0
 17 18  2  0
 18 19  1  0
 19 20  1  0
  9 21  1  0
 21 22  1  0
 22  6  1  0
 18 11  1  0
  1 23  1  0
  1 24  1  0
  1 25  1  0
  2 26  1  0
  2 27  1  0
  4 28  1  0
  4 29  1  0
  5 30  1  0
  5 31  1  0
  6 32  1  0
  7 33  1  0
  7 34  1  0
  8 35  1  0
  8 36  1  0
 10 37  1  0
 10 38  1  0
 12 39  1  0
 15 40  1  0
 15 41  1  0
 15 42  1  0
 16 43  1  0
 17 44  1  0
 20 45  1  0
 20 46  1  0
 20 47  1  0
 21 48  1  0
 21 49  1  0
 22 50  1  0
 22 51  1  0
M  CHG  1   6   1
M  END
>  <UniqueID>  (1) 
1

>  <SMILES>  (1) 
CCOCC[NH+]1CCN(Cc2cc(OC)ccc2OC)CC1

>  <Energy>  (1) 
63.14651223751653

>  <Genealogy>  (1) 
CCOCC[NH+]1CCN(Cc2cc(OC)ccc2OC)CC1 (protonated)
CCOCC[NH+]1CCN(Cc2cc(OC)ccc2OC)CC1 (3D coordinates assigned)
CCOCC[NH+]1CCN(Cc2cc(OC)ccc2OC)CC1 (nonaromatic ring conformer: 63.14651223751653 kcal/mol)

>  <smiles>  (1) 
CCOCCN1CCN(Cc2cc(OC)ccc2OC)CC1

>  <score_type>  (1) 
oracle

>  <origin>  (1) 
adg

>  <m_score__min__energy>  (1) 
-4.5999999999999996

>  <m_primary>  (1) 
energy

$$$$
1:0
     RDKit          3D

 37 38  0  0  0  0  0  0  0  0999 V2000
   57.7660   28.1410   44.1270 C   0  0  0  0  0  0  0  0  0  0  0  0
   56.8830   28.3810   45.3470 C   0  0  0  0  0  0  0  0  0  0  0  0
   55.7540   29.2450   44.9870 N   0  0  0  0  0  0  0  0  0  0  0  0
   55.8960   29.7310   43.6110 C   0  0  0  0  0  0  0  0  0  0  0  0
   56.6540   31.0620   43.5830 C   0  0  0  0  0  0  0  0  0  0  0  0
   56.7410   31.6280   44.8930 O   0  0  0  0  0  0  0  0  0  0  0  0
   57.9210   32.0000   45.5580 C   0  0  0  0  0  0  0  0  0  0  0  0
   58.3060   33.3410   45.7450 C   0  0  0  0  0  0  0  0  0  0  0  0
   59.4990   33.6490   46.4040 C   0  0  0  0  0  0  0  0  0  0  0  0
   60.3270   32.6260   46.9010 C   0  0  0  0  0  0  0  0  0  0  0  0
   61.5960   32.9530   47.5980 C   0  0  0  0  0  0  0  0  0  0  0  0
   61.6000   33.7640   48.7450 C   0  0  0  0  0  0  0  0  0  0  0  0
   62.8020   34.0630   49.3900 C   0  0  0  0  0  0  0  0  0  0  0  0
   63.9950   33.5470   48.8850 C   0  0  0  0  0  0  0  0  0  0  0  0
   63.9850   32.7610   47.7750 N   0  0  0  0  0  0  0  0  0  0  0  0
   62.8260   32.4570   47.1290 C   0  0  0  0  0  0  0  0  0  0  0  0
   59.9300   31.2890   46.7260 C   0  0  0  0  0  0  0  0  0  0  0  0
   58.7380   30.9830   46.0640 C   0  0  0  0  0  0  0  0  0  0  0  0
   58.7789   27.8657   44.4559 H   0  0  0  0  0  0  0  0  0  0  0  0
   57.3424   27.3254   43.5225 H   0  0  0  0  0  0  0  0  0  0  0  0
   57.8136   29.0588   43.5225 H   0  0  0  0  0  0  0  0  0  0  0  0
   56.5012   27.4175   45.7156 H   0  0  0  0  0  0  0  0  0  0  0  0
   57.4773   28.8717   46.1319 H   0  0  0  0  0  0  0  0  0  0  0  0
   55.7730   30.0770   45.6220 H   0  0  0  0  0  0  0  0  0  0  0  0
   56.4507   28.9869   43.0206 H   0  0  0  0  0  0  0  0  0  0  0  0
   54.8937   29.8855   43.1850 H   0  0  0  0  0  0  0  0  0  0  0  0
   57.6696   30.8899   43.1970 H   0  0  0  0  0  0  0  0  0  0  0  0
   56.1092   31.7627   42.9332 H   0  0  0  0  0  0  0  0  0  0  0  0
   57.6637   34.1515   45.3700 H   0  0  0  0  0  0  0  0  0  0  0  0
   59.7934   34.7007   46.5353 H   0  0  0  0  0  0  0  0  0  0  0  0
   60.6533   34.1648   49.1364 H   0  0  0  0  0  0  0  0  0  0  0  0
   62.8077   34.6991   50.2874 H   0  0  0  0  0  0  0  0  0  0  0  0
   64.9471   33.7763   49.3859 H   0  0  0  0  0  0  0  0  0  0  0  0
   64.8880   32.3810   47.4120 H   0  0  0  0  0  0  0  0  0  0  0  0
   62.8514   31.8187   46.2335 H   0  0  0  0  0  0  0  0  0  0  0  0
   60.5628   30.4769   47.1133 H   0  0  0  0  0  0  0  0  0  0  0  0
   58.4389   29.9318   45.9394 H   0  0  0  0  0  0  0  0  0  0  0  0
  1  2  1  0
  2  3  1  0
  3  4  1  0
  4  5  1  0
  5  6  1  0
  6  7  1  0
  7  8  2  0
  8  9  1  0
  9 10  2  0
 10 11  1  0
 11 12  2  0
 12 13  1  0
 13 14  2  0
 14 15  1  0
 15 16  2  0
 10 17  1  0
 17 18  2  0
 18  7  1  0
 16 11  1  0
  1 19  1  0
  1 20  1  0
  1 21  1  0
  2 22  1  0
  2 23  1  0
  3 24  1  0
  4 25  1  0
  4 26  1  0
  5 27  1  0
  5 28  1  0
  8 29  1  0
  9 30  1  0
 12 31  1  0
 13 32  1  0
 14 33  1  0
 15 34  1  0
 16 35  1  0
 17 36  1  0
 18 37  1  0
M  CHG  1  15   1
M  END
>  <UniqueID>  (2) 
2

>  <SMILES>  (2) 
CCNCCOc1ccc(-c2ccc[nH+]c2)cc1

>  <Energy>  (2) 
37.10465747678218

>  <Genealogy>  (2) 
CCNCCOc1ccc(-c2ccc[nH+]c2)cc1 (protonated)
CCNCCOc1ccc(-c2ccc[nH+]c2)cc1 (3D coordinates assigned)
CCNCCOc1ccc(-c2ccc[nH+]c2)cc1 (optimized conformer: 37.10465747678218 kcal/mol)

>  <smiles>  (2) 
CCNCCOc1ccc(-c2cccnc2)cc1

>  <score_type>  (2) 
oracle

>  <origin>  (2) 
adg

>  <m_score__min__energy>  (2) 
-5.7800000000000002

>  <m_primary>  (2) 
energy

$$$$
2:0
     RDKit          3D

 64 67  0  0  0  0  0  0  0  0999 V2000
   58.0810   29.0060   52.8950 C   0  0  0  0  0  0  0  0  0  0  0  0
   57.0470   29.3440   51.9970 O   0  0  0  0  0  0  0  0  0  0  0  0
   56.1390   30.2450   52.6050 C   0  0  0  0  0  0  0  0  0  0  0  0
   56.8350   31.1050   53.6750 C   0  0  0  0  0  0  0  0  0  0  0  0
   57.4690   32.3080   53.0880 N   0  0  0  0  0  0  0  0  0  0  0  0
   58.8820   32.4530   53.5210 C   0  0  0  0  0  0  0  0  0  0  0  0
   59.7060   33.2510   52.5070 C   0  0  0  0  0  0  0  0  0  0  0  0
   59.7750   32.5460   51.2080 N   0  0  0  0  0  0  0  0  0  0  0  0
   60.1750   33.4680   50.1280 C   0  0  0  0  0  0  0  0  0  0  0  0
   61.6010   33.1940   49.7060 C   0  0  0  0  0  0  0  0  0  0  0  0
   62.6570   33.6040   50.5380 C   0  0  0  0  0  0  0  0  0  0  0  0
   63.9950   33.3840   50.1680 C   0  0  0  0  0  0  0  0  0  0  0  0
   65.1030   33.8090   51.0990 C   0  0  0  0  0  0  0  0  0  0  0  0
   64.8660   35.0670   51.6270 F   0  0  0  0  0  0  0  0  0  0  0  0
   65.2110   32.9110   52.1450 F   0  0  0  0  0  0  0  0  0  0  0  0
   66.2980   33.8360   50.4020 F   0  0  0  0  0  0  0  0  0  0  0  0
   64.2710   32.7150   48.9640 C   0  0  0  0  0  0  0  0  0  0  0  0
   63.2310   32.3060   48.1290 C   0  0  0  0  0  0  0  0  0  0  0  0
   61.8960   32.5420   48.4850 C   0  0  0  0  0  0  0  0  0  0  0  0
   60.8230   32.1110   47.5580 C   0  0  0  0  0  0  0  0  0  0  0  0
   60.1560   33.0510   46.7400 C   0  0  0  0  0  0  0  0  0  0  0  0
   60.5590   34.5030   46.7230 C   0  0  0  0  0  0  0  0  0  0  0  0
   59.1270   32.6180   45.8910 C   0  0  0  0  0  0  0  0  0  0  0  0
   58.7360   31.2730   45.8600 C   0  0  0  0  0  0  0  0  0  0  0  0
   57.6660   30.8460   44.9960 N   0  0  0  0  0  0  0  0  0  0  0  0
   57.5320   31.2100   43.7310 N   0  0  0  0  0  0  0  0  0  0  0  0
   56.3980   30.6060   43.3320 C   0  0  0  0  0  0  0  0  0  0  0  0
   55.8530   29.8900   44.3350 N   0  0  0  0  0  0  0  0  0  0  0  0
   56.6680   30.0610   45.3630 N   0  0  0  0  0  0  0  0  0  0  0  0
   59.4010   30.3460   46.6760 C   0  0  0  0  0  0  0  0  0  0  0  0
   60.4530   30.7520   47.5160 C   0  0  0  0  0  0  0  0  0  0  0  0
   61.1550   29.8360   48.3190 O   0  0  0  0  0  0  0  0  0  0  0  0
   60.6990   29.3450   49.5750 C   0  0  0  0  0  0  0  0  0  0  0  0
   58.5390   31.7910   50.8770 C   0  0  0  0  0  0  0  0  0  0  0  0
   57.3060   32.3410   51.6110 C   0  0  0  0  0  0  0  0  0  0  0  0
   57.7222   29.1233   53.9282 H   0  0  0  0  0  0  0  0  0  0  0  0
   58.3845   27.9619   52.7285 H   0  0  0  0  0  0  0  0  0  0  0  0
   58.9426   29.6693   52.7285 H   0  0  0  0  0  0  0  0  0  0  0  0
   55.7185   30.9056   51.8324 H   0  0  0  0  0  0  0  0  0  0  0  0
   55.3447   29.6607   53.0925 H   0  0  0  0  0  0  0  0  0  0  0  0
   56.0881   31.4227   54.4174 H   0  0  0  0  0  0  0  0  0  0  0  0
   57.6236   30.4968   54.1422 H   0  0  0  0  0  0  0  0  0  0  0  0
   58.9064   32.9743   54.4893 H   0  0  0  0  0  0  0  0  0  0  0  0
   59.3202   31.4474   53.6035 H   0  0  0  0  0  0  0  0  0  0  0  0
   59.2378   34.2351   52.3578 H   0  0  0  0  0  0  0  0  0  0  0  0
   60.7276   33.3658   52.8983 H   0  0  0  0  0  0  0  0  0  0  0  0
   59.5077   33.3273   49.2649 H   0  0  0  0  0  0  0  0  0  0  0  0
   60.1028   34.5024   50.4952 H   0  0  0  0  0  0  0  0  0  0  0  0
   62.4332   34.1040   51.4919 H   0  0  0  0  0  0  0  0  0  0  0  0
   65.3136   32.5124   48.6778 H   0  0  0  0  0  0  0  0  0  0  0  0
   63.4606   31.7938   47.1830 H   0  0  0  0  0  0  0  0  0  0  0  0
   60.6602   34.8676   47.7559 H   0  0  0  0  0  0  0  0  0  0  0  0
   61.5209   34.6105   46.2004 H   0  0  0  0  0  0  0  0  0  0  0  0
   59.7901   35.0908   46.2004 H   0  0  0  0  0  0  0  0  0  0  0  0
   58.6195   33.3451   45.2399 H   0  0  0  0  0  0  0  0  0  0  0  0
   55.9721   30.6860   42.3209 H   0  0  0  0  0  0  0  0  0  0  0  0
   59.0960   29.2893   46.6586 H   0  0  0  0  0  0  0  0  0  0  0  0
   61.2042   29.8890   50.3867 H   0  0  0  0  0  0  0  0  0  0  0  0
   59.6121   29.4945   49.6544 H   0  0  0  0  0  0  0  0  0  0  0  0
   60.9283   28.2721   49.6544 H   0  0  0  0  0  0  0  0  0  0  0  0
   58.3639   31.8566   49.7930 H   0  0  0  0  0  0  0  0  0  0  0  0
   58.6848   30.7490   51.1978 H   0  0  0  0  0  0  0  0  0  0  0  0
   57.1418   33.3821   51.2962 H   0  0  0  0  0  0  0  0  0  0  0  0
   56.4476   31.7036   51.3523 H   0  0  0  0  0  0  0  0  0  0  0  0
  1  2  1  0
  2  3  1  0
  3  4  1  0
  4  5  1  0
  5  6  1  0
  6  7  1  0
  7  8  1  0
  8  9  1  0
  9 10  1  0
 10 11  2  0
 11 12  1  0
 12 13  1  0
 13 14  1  0
 13 15  1  0
 13 16  1  0
 12 17  2  0
 17 18  1  0
 18 19  2  0
 19 20  1  0
 20 21  2  0
 21 22  1  0
 21 23  1  0
 23 24  2  0
 24 25  1  0
 25 26  1  0
 26 27  2  0
 27 28  1  0
 28 29  2  0
 24 30  1  0
 30 31  2  0
 31 32  1  0
 32 33  1  0
  8 34  1  0
 34 35  1  0
 35  5  1  0
 19 10  1  0
 31 20  1  0
 29 25  1  0
  1 36  1  0
  1 37  1  0
  1 38  1  0
  3 39  1  0
  3 40  1  0
  4 41  1  0
  4 42  1  0
  6 43  1  0
  6 44  1  0
  7 45  1  0
  7 46  1  0
  9 47  1  0
  9 48  1  0
 11 49  1  0
 17 50  1  0
 18 51  1  0
 22 52  1  0
 22 53  1  0
 22 54  1  0
 23 55  1  0
 27 56  1  0
 30 57  1  0
 33 58  1  0
 33 59  1  0
 33 60  1  0
 34 61  1  0
 34 62  1  0
 35 63  1  0
 35 64  1  0
M  END
>  <UniqueID>  (3) 
3

>  <SMILES>  (3) 
COCCN1CCN(Cc2cc(C(F)(F)F)ccc2-c2c(C)cc(-n3ncnn3)cc2OC)CC1

>  <Energy>  (3) 
126.63227232010429

>  <Genealogy>  (3) 
COCCN1CCN(Cc2cc(C(F)(F)F)ccc2-c2c(C)cc(-n3ncnn3)cc2OC)CC1 (3D coordinates assigned)
COCCN1CCN(Cc2cc(C(F)(F)F)ccc2-c2c(C)cc(-n3ncnn3)cc2OC)CC1 (nonaromatic ring conformer: 126.63227232010429 kcal/mol)

>  <smiles>  (3) 
COCCN1CCN(Cc2cc(C(F)(F)F)ccc2-c2c(C)cc(-n3ncnn3)cc2OC)CC1

>  <score_type>  (3) 
oracle

>  <origin>  (3) 
adg

>  <m_score__min__energy>  (3) 
-8.4900000000000002

>  <m_primary>  (3) 
energy

$$$$
3:0
     RDKit          3D

 45 46  0  0  0  0  0  0  0  0999 V2000
   57.0250   24.5230   43.4740 C   0  0  0  0  0  0  0  0  0  0  0  0
   56.6120   24.9510   44.8790 C   0  0  0  0  0  0  0  0  0  0  0  0
   57.1080   26.2940   45.1710 N   0  0  0  0  0  0  0  0  0  0  0  0
   58.3750   26.5210   45.8110 C   0  0  0  0  0  0  0  0  0  0  0  0
   59.1920   25.5660   45.9100 O   0  0  0  0  0  0  0  0  0  0  0  0
   58.7890   27.9190   46.2630 C   0  0  0  0  0  0  0  0  0  0  0  0
   57.5950   28.7860   46.4010 N   0  0  0  0  0  0  0  0  0  0  0  0
   56.8560   29.3360   44.9130 S   0  0  0  0  0  0  0  0  0  0  0  0
   55.3990   28.9670   44.8540 O   0  0  0  0  0  0  0  0  0  0  0  0
   57.5640   28.6990   43.7500 O   0  0  0  0  0  0  0  0  0  0  0  0
   57.0130   31.0680   44.7830 N   0  0  0  0  0  0  0  0  0  0  0  0
   57.7930   31.5900   45.9140 C   0  0  0  0  0  0  0  0  0  0  0  0
   57.9150   33.1250   45.8010 C   0  0  0  0  0  0  0  0  0  0  0  0
   57.4690   33.6160   44.5490 O   0  0  0  0  0  0  0  0  0  0  0  0
   58.0940   32.9020   43.5000 C   0  0  0  0  0  0  0  0  0  0  0  0
   57.6680   31.4190   43.5100 C   0  0  0  0  0  0  0  0  0  0  0  0
   59.4020   27.7790   47.6760 C   0  0  0  0  0  0  0  0  0  0  0  0
   59.8000   29.1410   48.2870 C   0  0  0  0  0  0  0  0  0  0  0  0
   60.2140   30.1870   47.2360 C   0  0  0  0  0  0  0  0  0  0  0  0
   60.8360   29.5300   46.0020 C   0  0  0  0  0  0  0  0  0  0  0  0
   59.8640   28.5520   45.3060 C   0  0  0  0  0  0  0  0  0  0  0  0
   57.7874   23.7329   43.5406 H   0  0  0  0  0  0  0  0  0  0  0  0
   56.1464   24.1401   42.9342 H   0  0  0  0  0  0  0  0  0  0  0  0
   57.4390   25.3874   42.9342 H   0  0  0  0  0  0  0  0  0  0  0  0
   55.5144   24.9469   44.9508 H   0  0  0  0  0  0  0  0  0  0  0  0
   57.0420   24.2468   45.6064 H   0  0  0  0  0  0  0  0  0  0  0  0
   56.5420   27.1060   44.8360 H   0  0  0  0  0  0  0  0  0  0  0  0
   57.2873   31.3322   46.8563 H   0  0  0  0  0  0  0  0  0  0  0  0
   58.7983   31.1436   45.8987 H   0  0  0  0  0  0  0  0  0  0  0  0
   57.3104   33.5860   46.5959 H   0  0  0  0  0  0  0  0  0  0  0  0
   58.9797   33.3829   45.9001 H   0  0  0  0  0  0  0  0  0  0  0  0
   57.8076   33.3521   42.5380 H   0  0  0  0  0  0  0  0  0  0  0  0
   59.1837   32.9546   43.6409 H   0  0  0  0  0  0  0  0  0  0  0  0
   56.9656   31.2406   42.6825 H   0  0  0  0  0  0  0  0  0  0  0  0
   58.5662   30.7947   43.3933 H   0  0  0  0  0  0  0  0  0  0  0  0
   58.6632   27.2994   48.3349 H   0  0  0  0  0  0  0  0  0  0  0  0
   60.3163   27.1742   47.5848 H   0  0  0  0  0  0  0  0  0  0  0  0
   58.9410   29.5344   48.8504 H   0  0  0  0  0  0  0  0  0  0  0  0
   60.6747   28.9643   48.9302 H   0  0  0  0  0  0  0  0  0  0  0  0
   59.3238   30.7548   46.9276 H   0  0  0  0  0  0  0  0  0  0  0  0
   60.9659   30.8503   47.6884 H   0  0  0  0  0  0  0  0  0  0  0  0
   61.1186   30.3167   45.2870 H   0  0  0  0  0  0  0  0  0  0  0  0
   61.7129   28.9543   46.3332 H   0  0  0  0  0  0  0  0  0  0  0  0
   59.3374   29.0979   44.5093 H   0  0  0  0  0  0  0  0  0  0  0  0
   60.4738   27.7205   44.9228 H   0  0  0  0  0  0  0  0  0  0  0  0
  1  2  1  0
  2  3  1  0
  3  4  1  0
  4  5  2  0
  4  6  1  0
  6  7  1  0
  7  8  1  0
  8  9  2  0
  8 10  2  0
  8 11  1  0
 11 12  1  0
 12 13  1  0
 13 14  1  0
 14 15  1  0
 15 16  1  0
  6 17  1  0
 17 18  1  0
 18 19  1  0
 19 20  1  0
 20 21  1  0
 21  6  1  0
 16 11  1  0
  1 22  1  0
  1 23  1  0
  1 24  1  0
  2 25  1  0
  2 26  1  0
  3 27  1  0
 12 28  1  0
 12 29  1  0
 13 30  1  0
 13 31  1  0
 15 32  1  0
 15 33  1  0
 16 34  1  0
 16 35  1  0
 17 36  1  0
 17 37  1  0
 18 38  1  0
 18 39  1  0
 19 40  1  0
 19 41  1  0
 20 42  1  0
 20 43  1  0
 21 44  1  0
 21 45  1  0
M  CHG  1   7  -1
M  END
>  <UniqueID>  (4) 
4

>  <SMILES>  (4) 
CCNC(=O)C1([N-]S(=O)(=O)N2CCOCC2)CCCCC1

>  <Energy>  (4) 
53.34324879582092

>  <Genealogy>  (4) 
CCNC(=O)C1([N-]S(=O)(=O)N2CCOCC2)CCCCC1 (protonated)
CCNC(=O)C1([N-]S(=O)(=O)N2CCOCC2)CCCCC1 (3D coordinates assigned)
CCNC(=O)C1([N-]S(=O)(=O)N2CCOCC2)CCCCC1 (nonaromatic ring conformer: 53.34324879582092 kcal/mol)

>  <smiles>  (4) 
CCNC(=O)C1(NS(=O)(=O)N2CCOCC2)CCCCC1

>  <score_type>  (4) 
oracle

>  <origin>  (4) 
adg

>  <m_score__min__energy>  (4) 
-8.8000000000000007

>  <m_primary>  (4) 
energy

$$$$
4:0
     RDKit          3D

 45 47  0  0  0  0  0  0  0  0999 V2000
   56.2470   29.4000   43.8910 C   0  0  0  0  0  0  0  0  0  0  0  0
   57.0190   30.2860   44.8090 C   0  0  0  0  0  0  0  0  0  0  0  0
   57.8640   29.8240   45.7530 N   0  0  0  0  0  0  0  0  0  0  0  0
   58.2790   30.9610   46.3490 C   0  0  0  0  0  0  0  0  0  0  0  0
   59.2720   30.9540   47.4930 C   0  0  1  0  0  0  0  0  0  0  0  0
   58.8270   29.8790   48.4990 C   0  0  0  0  0  0  0  0  0  0  0  0
   60.6600   30.7080   47.0310 N   0  0  0  0  0  0  0  0  0  0  0  0
   60.9910   29.7210   45.9910 C   0  0  0  0  0  0  0  0  0  0  0  0
   61.7100   31.6260   47.3910 C   0  0  0  0  0  0  0  0  0  0  0  0
   61.8100   32.8700   46.7470 C   0  0  0  0  0  0  0  0  0  0  0  0
   62.8250   33.7650   47.0980 C   0  0  0  0  0  0  0  0  0  0  0  0
   63.7440   33.4260   48.0930 C   0  0  0  0  0  0  0  0  0  0  0  0
   63.6460   32.1940   48.7470 C   0  0  0  0  0  0  0  0  0  0  0  0
   62.6330   31.2960   48.3980 C   0  0  0  0  0  0  0  0  0  0  0  0
   57.6960   32.0540   45.7900 N   0  0  0  0  0  0  0  0  0  0  0  0
   57.8310   33.4840   46.1120 C   0  0  0  0  0  0  0  0  0  0  0  0
   58.6220   34.2700   45.0590 C   0  0  0  0  0  0  0  0  0  0  0  0
   59.6470   35.1080   45.8180 C   0  0  0  0  0  0  0  0  0  0  0  0
   59.2840   35.0170   47.2950 C   0  0  0  0  0  0  0  0  0  0  0  0
   58.5030   33.7250   47.4620 C   0  0  0  0  0  0  0  0  0  0  0  0
   56.8990   31.6250   44.8270 N   0  0  0  0  0  0  0  0  0  0  0  0
   55.6378   28.7008   44.4826 H   0  0  0  0  0  0  0  0  0  0  0  0
   55.5897   30.0128   43.2566 H   0  0  0  0  0  0  0  0  0  0  0  0
   56.9440   28.8328   43.2566 H   0  0  0  0  0  0  0  0  0  0  0  0
   59.2825   31.9458   47.9687 H   0  0  0  0  0  0  0  0  0  0  0  0
   58.9804   30.2495   49.5233 H   0  0  0  0  0  0  0  0  0  0  0  0
   57.7613   29.6529   48.3466 H   0  0  0  0  0  0  0  0  0  0  0  0
   59.4210   28.9658   48.3466 H   0  0  0  0  0  0  0  0  0  0  0  0
   61.3065   28.7801   46.4656 H   0  0  0  0  0  0  0  0  0  0  0  0
   60.1054   29.5370   45.3650 H   0  0  0  0  0  0  0  0  0  0  0  0
   61.8085   30.1081   45.3650 H   0  0  0  0  0  0  0  0  0  0  0  0
   61.0871   33.1412   45.9635 H   0  0  0  0  0  0  0  0  0  0  0  0
   62.8997   34.7376   46.5896 H   0  0  0  0  0  0  0  0  0  0  0  0
   64.5460   34.1289   48.3627 H   0  0  0  0  0  0  0  0  0  0  0  0
   64.3660   31.9314   49.5361 H   0  0  0  0  0  0  0  0  0  0  0  0
   62.5581   30.3273   48.9137 H   0  0  0  0  0  0  0  0  0  0  0  0
   56.7926   33.8460   46.1376 H   0  0  0  0  0  0  0  0  0  0  0  0
   59.1315   33.5778   44.3725 H   0  0  0  0  0  0  0  0  0  0  0  0
   57.9568   34.9068   44.4574 H   0  0  0  0  0  0  0  0  0  0  0  0
   60.6590   34.7103   45.6517 H   0  0  0  0  0  0  0  0  0  0  0  0
   59.6361   36.1524   45.4728 H   0  0  0  0  0  0  0  0  0  0  0  0
   60.1953   34.9937   47.9107 H   0  0  0  0  0  0  0  0  0  0  0  0
   58.6922   35.8868   47.6161 H   0  0  0  0  0  0  0  0  0  0  0  0
   59.1804   32.8943   47.7091 H   0  0  0  0  0  0  0  0  0  0  0  0
   57.7699   33.7913   48.2794 H   0  0  0  0  0  0  0  0  0  0  0  0
  1  2  1  0
  2  3  1  0
  3  4  2  0
  4  5  1  0
  5  6  1  0
  5  7  1  0
  7  8  1  0
  7  9  1  0
  9 10  2  0
 10 11  1  0
 11 12  2  0
 12 13  1  0
 13 14  2  0
  4 15  1  0
 15 16  1  0
 16 17  1  0
 17 18  1  0
 18 19  1  0
 19 20  1  0
 15 21  1  0
 21  2  2  0
 14  9  1  0
 20 16  1  0
  1 22  1  0
  1 23  1  0
  1 24  1  0
  5 25  1  1
  6 26  1  0
  6 27  1  0
  6 28  1  0
  8 29  1  0
  8 30  1  0
  8 31  1  0
 10 32  1  0
 11 33  1  0
 12 34  1  0
 13 35  1  0
 14 36  1  0
 16 37  1  0
 17 38  1  0
 17 39  1  0
 18 40  1  0
 18 41  1  0
 19 42  1  0
 19 43  1  0
 20 44  1  0
 20 45  1  0
M  END
>  <UniqueID>  (5) 
5

>  <SMILES>  (5) 
Cc1nc([C@@H](C)N(C)c2ccccc2)n(C2CCCC2)n1

>  <Energy>  (5) 
83.85408969502267

>  <Genealogy>  (5) 
Cc1nc([C@@H](C)N(C)c2ccccc2)n(C2CCCC2)n1 (chirality)
Cc1nc([C@@H](C)N(C)c2ccccc2)n(C2CCCC2)n1 (3D coordinates assigned)
Cc1nc([C@@H](C)N(C)c2ccccc2)n(C2CCCC2)n1 (nonaromatic ring conformer: 83.85408969502267 kcal/mol)

>  <smiles>  (5) 
Cc1nc(C(C)N(C)c2ccccc2)n(C2CCCC2)n1

>  <score_type>  (5) 
oracle

>  <origin>  (5) 
adg

>  <m_score__min__energy>  (5) 
-7.4299999999999997

>  <m_primary>  (5) 
energy

$$$$
5:0
     RDKit          3D

 43 45  0  0  0  0  0  0  0  0999 V2000
   63.3410   33.6930   46.7440 C   0  0  0  0  0  0  0  0  0  0  0  0
   62.5770   33.9140   48.0450 C   0  0  0  0  0  0  0  0  0  0  0  0
   61.8110   32.7660   48.3670 O   0  0  0  0  0  0  0  0  0  0  0  0
   62.5050   31.5760   48.0430 C   0  0  0  0  0  0  0  0  0  0  0  0
   61.5120   30.4480   47.7390 C   0  0  0  0  0  0  0  0  0  0  0  0
   60.1310   30.8790   48.0000 N   0  0  0  0  0  0  0  0  0  0  0  0
   59.3620   30.9040   46.7640 C   0  0  0  0  0  0  0  0  0  0  0  0
   59.0130   29.6960   46.1030 C   0  0  0  0  0  0  0  0  0  0  0  0
   59.2800   28.4280   46.6790 C   0  0  0  0  0  0  0  0  0  0  0  0
   59.0260   27.2530   45.9790 C   0  0  0  0  0  0  0  0  0  0  0  0
   58.5070   27.3060   44.6940 C   0  0  0  0  0  0  0  0  0  0  0  0
   58.1870   28.5340   44.1220 C   0  0  0  0  0  0  0  0  0  0  0  0
   58.3760   29.7490   44.8310 C   0  0  0  0  0  0  0  0  0  0  0  0
   57.9660   30.9580   44.3050 N   0  0  0  0  0  0  0  0  0  0  0  0
   57.0450   30.9810   43.1430 C   0  0  0  0  0  0  0  0  0  0  0  0
   58.3620   32.1430   44.8910 C   0  0  0  0  0  0  0  0  0  0  0  0
   58.1580   33.3900   44.2430 C   0  0  0  0  0  0  0  0  0  0  0  0
   58.4640   34.5910   44.8760 C   0  0  0  0  0  0  0  0  0  0  0  0
   58.9830   34.5870   46.1610 C   0  0  0  0  0  0  0  0  0  0  0  0
   59.2520   33.3810   46.8020 C   0  0  0  0  0  0  0  0  0  0  0  0
   58.9990   32.1400   46.1640 C   0  0  0  0  0  0  0  0  0  0  0  0
   64.3747   33.3940   46.9721 H   0  0  0  0  0  0  0  0  0  0  0  0
   62.8501   32.9000   46.1607 H   0  0  0  0  0  0  0  0  0  0  0  0
   63.3493   34.6256   46.1607 H   0  0  0  0  0  0  0  0  0  0  0  0
   63.2924   34.1122   48.8567 H   0  0  0  0  0  0  0  0  0  0  0  0
   61.9003   34.7723   47.9210 H   0  0  0  0  0  0  0  0  0  0  0  0
   63.1355   31.7526   47.1591 H   0  0  0  0  0  0  0  0  0  0  0  0
   63.1304   31.2817   48.8987 H   0  0  0  0  0  0  0  0  0  0  0  0
   61.6058   30.1613   46.6812 H   0  0  0  0  0  0  0  0  0  0  0  0
   61.7420   29.5926   48.3913 H   0  0  0  0  0  0  0  0  0  0  0  0
   59.6810   30.2580   48.7100 H   0  0  0  0  0  0  0  0  0  0  0  0
   60.1210   31.8100   48.4710 H   0  0  0  0  0  0  0  0  0  0  0  0
   59.6949   28.3726   47.6963 H   0  0  0  0  0  0  0  0  0  0  0  0
   59.2373   26.2796   46.4458 H   0  0  0  0  0  0  0  0  0  0  0  0
   58.3482   26.3772   44.1265 H   0  0  0  0  0  0  0  0  0  0  0  0
   57.7797   28.5634   43.1006 H   0  0  0  0  0  0  0  0  0  0  0  0
   56.0049   31.0070   43.5000 H   0  0  0  0  0  0  0  0  0  0  0  0
   57.2459   31.8744   42.5335 H   0  0  0  0  0  0  0  0  0  0  0  0
   57.2010   30.0787   42.5335 H   0  0  0  0  0  0  0  0  0  0  0  0
   57.7504   33.4070   43.2214 H   0  0  0  0  0  0  0  0  0  0  0  0
   58.2936   35.5450   44.3556 H   0  0  0  0  0  0  0  0  0  0  0  0
   59.1827   35.5386   46.6754 H   0  0  0  0  0  0  0  0  0  0  0  0
   59.6677   33.3907   47.8204 H   0  0  0  0  0  0  0  0  0  0  0  0
  1  2  1  0
  2  3  1  0
  3  4  1  0
  4  5  1  0
  5  6  1  0
  6  7  1  0
  7  8  2  0
  8  9  1  0
  9 10  2  0
 10 11  1  0
 11 12  2  0
 12 13  1  0
 13 14  2  0
 14 15  1  0
 14 16  1  0
 16 17  2  0
 17 18  1  0
 18 19  2  0
 19 20  1  0
 20 21  2  0
 21  7  1  0
 13  8  1  0
 21 16  1  0
  1 22  1  0
  1 23  1  0
  1 24  1  0
  2 25  1  0
  2 26  1  0
  4 27  1  0
  4 28  1  0
  5 29  1  0
  5 30  1  0
  6 31  1  0
  6 32  1  0
  9 33  1  0
 10 34  1  0
 11 35  1  0
 12 36  1  0
 15 37  1  0
 15 38  1  0
 15 39  1  0
 17 40  1  0
 18 41  1  0
 19 42  1  0
 20 43  1  0
M  CHG  2   6   1  14   1
M  END
>  <UniqueID>  (6) 
6

>  <SMILES>  (6) 
CCOCC[NH2+]c1c2ccccc2[n+](C)c2ccccc12

>  <Energy>  (6) 
72.08798092709527

>  <Genealogy>  (6) 
CCOCC[NH2+]c1c2ccccc2[n+](C)c2ccccc12 (protonated)
CCOCC[NH2+]c1c2ccccc2[n+](C)c2ccccc12 (3D coordinates assigned)
CCOCC[NH2+]c1c2ccccc2[n+](C)c2ccccc12 (optimized conformer: 72.08798092709527 kcal/mol)

>  <smiles>  (6) 
CCOCCNc1c2ccccc2[n+](C)c2ccccc12

>  <score_type>  (6) 
oracle

>  <origin>  (6) 
adg

>  <m_score__min__energy>  (6) 
-3.7000000000000002

>  <m_primary>  (6) 
energy

$$$$
6:0
     RDKit          3D

 38 41  0  0  0  0  0  0  0  0999 V2000
   56.8150   21.5020   42.9970 C   0  0  0  0  0  0  0  0  0  0  0  0
   55.9190   22.5220   43.4280 O   0  0  0  0  0  0  0  0  0  0  0  0
   56.3220   23.7350   44.0080 C   0  0  0  0  0  0  0  0  0  0  0  0
   55.7540   24.2300   45.1980 C   0  0  0  0  0  0  0  0  0  0  0  0
   56.1890   25.4460   45.7330 C   0  0  0  0  0  0  0  0  0  0  0  0
   57.1850   26.1920   45.0850 C   0  0  0  0  0  0  0  0  0  0  0  0
   57.6390   27.4280   45.6600 N   0  0  0  0  0  0  0  0  0  0  0  0
   58.1540   27.5180   46.8810 N   0  0  0  0  0  0  0  0  0  0  0  0
   58.4890   28.8100   47.1090 C   0  0  0  0  0  0  0  0  0  0  0  0
   58.1590   29.5500   45.9890 C   0  0  0  0  0  0  0  0  0  0  0  0
   58.2510   30.9080   45.6920 C   0  0  0  0  0  0  0  0  0  0  0  0
   58.8050   31.8310   46.5920 C   0  0  0  0  0  0  0  0  0  0  0  0
   58.8780   33.1830   46.2500 C   0  0  0  0  0  0  0  0  0  0  0  0
   59.6360   34.4370   47.4740 Br  0  0  0  0  0  0  0  0  0  0  0  0
   58.3980   33.6180   45.0130 C   0  0  0  0  0  0  0  0  0  0  0  0
   57.8400   32.7110   44.1090 C   0  0  0  0  0  0  0  0  0  0  0  0
   57.7510   31.3360   44.4260 C   0  0  0  0  0  0  0  0  0  0  0  0
   57.1890   30.4130   43.5500 N   0  0  0  0  0  0  0  0  0  0  0  0
   56.6470   30.8270   42.2460 C   0  0  0  0  0  0  0  0  0  0  0  0
   57.1140   29.0810   43.8860 C   0  0  0  0  0  0  0  0  0  0  0  0
   57.6300   28.6600   45.1080 C   0  0  0  0  0  0  0  0  0  0  0  0
   57.7650   25.6860   43.9120 C   0  0  0  0  0  0  0  0  0  0  0  0
   57.3300   24.4700   43.3760 C   0  0  0  0  0  0  0  0  0  0  0  0
   57.2527   21.0037   43.8745 H   0  0  0  0  0  0  0  0  0  0  0  0
   56.2673   20.7646   42.3918 H   0  0  0  0  0  0  0  0  0  0  0  0
   57.6169   21.9501   42.3918 H   0  0  0  0  0  0  0  0  0  0  0  0
   54.9653   23.6577   45.7082 H   0  0  0  0  0  0  0  0  0  0  0  0
   55.7475   25.8205   46.6683 H   0  0  0  0  0  0  0  0  0  0  0  0
   58.9460   29.2037   48.0289 H   0  0  0  0  0  0  0  0  0  0  0  0
   59.1820   31.4895   47.5673 H   0  0  0  0  0  0  0  0  0  0  0  0
   58.4598   34.6839   44.7482 H   0  0  0  0  0  0  0  0  0  0  0  0
   57.4655   33.0707   43.1393 H   0  0  0  0  0  0  0  0  0  0  0  0
   55.7816   31.4880   42.4017 H   0  0  0  0  0  0  0  0  0  0  0  0
   57.4223   31.3650   41.6808 H   0  0  0  0  0  0  0  0  0  0  0  0
   56.3319   29.9375   41.6808 H   0  0  0  0  0  0  0  0  0  0  0  0
   56.6521   28.3580   43.1976 H   0  0  0  0  0  0  0  0  0  0  0  0
   58.5664   26.2490   43.4112 H   0  0  0  0  0  0  0  0  0  0  0  0
   57.7843   24.0884   42.4497 H   0  0  0  0  0  0  0  0  0  0  0  0
  1  2  1  0
  2  3  1  0
  3  4  2  0
  4  5  1  0
  5  6  2  0
  6  7  1  0
  7  8  1  0
  8  9  2  0
  9 10  1  0
 10 11  2  0
 11 12  1  0
 12 13  2  0
 13 14  1  0
 13 15  1  0
 15 16  2  0
 16 17  1  0
 17 18  2  0
 18 19  1  0
 18 20  1  0
 20 21  2  0
  6 22  1  0
 22 23  2  0
 23  3  1  0
 21  7  1  0
 21 10  1  0
 17 11  1  0
  1 24  1  0
  1 25  1  0
  1 26  1  0
  4 27  1  0
  5 28  1  0
  9 29  1  0
 12 30  1  0
 15 31  1  0
 16 32  1  0
 19 33  1  0
 19 34  1  0
 19 35  1  0
 20 36  1  0
 22 37  1  0
 23 38  1  0
M  CHG  1  18   1
M  END
>  <UniqueID>  (7) 
7

>  <SMILES>  (7) 
COc1ccc(-n2ncc3c4cc(Br)ccc4[n+](C)cc32)cc1

>  <Energy>  (7) 
93.68450528875202

>  <Genealogy>  (7) 
COc1ccc(-n2ncc3c4cc(Br)ccc4[n+](C)cc32)cc1 (3D coordinates assigned)
COc1ccc(-n2ncc3c4cc(Br)ccc4[n+](C)cc32)cc1 (optimized conformer: 93.68450528875202 kcal/mol)

>  <smiles>  (7) 
COc1ccc(-n2ncc3c4cc(Br)ccc4[n+](C)cc32)cc1

>  <score_type>  (7) 
oracle

>  <origin>  (7) 
adg

>  <m_score__min__energy>  (7) 
-6.5199999999999996

>  <m_primary>  (7) 
energy

$$$$
7:0
     RDKit          3D

 37 39  0  0  0  0  0  0  0  0999 V2000
   65.9030   32.0130   50.1290 C   0  0  0  0  0  0  0  0  0  0  0  0
   65.0110   32.6690   49.6520 C   0  0  0  0  0  0  0  0  0  0  0  0
   63.9490   33.4500   49.0820 C   0  0  0  0  0  0  0  0  0  0  0  0
   64.0270   33.8140   47.8780 O   0  0  0  0  0  0  0  0  0  0  0  0
   62.8150   33.8110   49.8810 N   0  0  0  0  0  0  0  0  0  0  0  0
   61.6890   34.5740   49.3490 C   0  0  0  0  0  0  0  0  0  0  0  0
   60.9220   33.7470   48.3540 C   0  0  0  0  0  0  0  0  0  0  0  0
   60.8790   32.3500   48.4670 C   0  0  0  0  0  0  0  0  0  0  0  0
   60.1460   31.5890   47.5520 C   0  0  0  0  0  0  0  0  0  0  0  0
   59.4400   32.2130   46.5080 C   0  0  0  0  0  0  0  0  0  0  0  0
   58.6670   31.3970   45.5430 C   0  0  0  0  0  0  0  0  0  0  0  0
   58.6340   30.0470   45.5670 N   0  0  0  0  0  0  0  0  0  0  0  0
   57.8540   29.5180   44.5810 C   0  0  0  0  0  0  0  0  0  0  0  0
   57.6800   28.0470   44.4400 C   0  0  0  0  0  0  0  0  0  0  0  0
   57.9300   27.4310   43.2000 C   0  0  0  0  0  0  0  0  0  0  0  0
   57.7710   26.0510   43.0470 C   0  0  0  0  0  0  0  0  0  0  0  0
   57.3560   25.2640   44.1240 C   0  0  0  0  0  0  0  0  0  0  0  0
   57.1680   23.5320   43.8900 Cl  0  0  0  0  0  0  0  0  0  0  0  0
   57.0960   25.8650   45.3660 C   0  0  0  0  0  0  0  0  0  0  0  0
   56.5630   24.9110   46.7430 Cl  0  0  0  0  0  0  0  0  0  0  0  0
   57.2560   27.2470   45.5190 C   0  0  0  0  0  0  0  0  0  0  0  0
   57.2480   30.4680   43.7550 C   0  0  0  0  0  0  0  0  0  0  0  0
   57.7150   31.9910   44.2870 S   0  0  0  0  0  0  0  0  0  0  0  0
   59.4830   33.6140   46.4000 C   0  0  0  0  0  0  0  0  0  0  0  0
   60.2150   34.3740   47.3170 C   0  0  0  0  0  0  0  0  0  0  0  0
   66.7169   31.4145   50.5642 H   0  0  0  0  0  0  0  0  0  0  0  0
   62.7930   33.5250   50.8860 H   0  0  0  0  0  0  0  0  0  0  0  0
   61.0212   34.8593   50.1752 H   0  0  0  0  0  0  0  0  0  0  0  0
   62.0723   35.4743   48.8464 H   0  0  0  0  0  0  0  0  0  0  0  0
   61.4253   31.8501   49.2804 H   0  0  0  0  0  0  0  0  0  0  0  0
   60.1212   30.4936   47.6492 H   0  0  0  0  0  0  0  0  0  0  0  0
   58.2534   28.0409   42.3436 H   0  0  0  0  0  0  0  0  0  0  0  0
   57.9738   25.5818   42.0730 H   0  0  0  0  0  0  0  0  0  0  0  0
   57.0482   27.7138   46.4931 H   0  0  0  0  0  0  0  0  0  0  0  0
   56.5821   30.2558   42.9056 H   0  0  0  0  0  0  0  0  0  0  0  0
   58.9366   34.1160   45.5879 H   0  0  0  0  0  0  0  0  0  0  0  0
   60.2368   35.4699   47.2250 H   0  0  0  0  0  0  0  0  0  0  0  0
  1  2  3  0
  2  3  1  0
  3  4  2  0
  3  5  1  0
  5  6  1  0
  6  7  1  0
  7  8  2  0
  8  9  1  0
  9 10  2  0
 10 11  1  0
 11 12  2  0
 12 13  1  0
 13 14  1  0
 14 15  2  0
 15 16  1  0
 16 17  2  0
 17 18  1  0
 17 19  1  0
 19 20  1  0
 19 21  2  0
 13 22  2  0
 22 23  1  0
 10 24  1  0
 24 25  2  0
 25  7  1  0
 23 11  1  0
 21 14  1  0
  1 26  1  0
  5 27  1  0
  6 28  1  0
  6 29  1  0
  8 30  1  0
  9 31  1  0
 15 32  1  0
 16 33  1  0
 21 34  1  0
 22 35  1  0
 24 36  1  0
 25 37  1  0
M  END
>  <UniqueID>  (8) 
8

>  <SMILES>  (8) 
C#CC(=O)NCc1ccc(-c2nc(-c3ccc(Cl)c(Cl)c3)cs2)cc1

>  <Energy>  (8) 
68.25145347381871

>  <Genealogy>  (8) 
C#CC(=O)NCc1ccc(-c2nc(-c3ccc(Cl)c(Cl)c3)cs2)cc1 (3D coordinates assigned)
C#CC(=O)NCc1ccc(-c2nc(-c3ccc(Cl)c(Cl)c3)cs2)cc1 (optimized conformer: 68.25145347381871 kcal/mol)

>  <smiles>  (8) 
C#CC(=O)NCc1ccc(-c2nc(-c3ccc(Cl)c(Cl)c3)cs2)cc1

>  <score_type>  (8) 
oracle

>  <origin>  (8) 
adg

>  <m_score__min__energy>  (8) 
-8

>  <m_primary>  (8) 
energy

$$$$
8:0
     RDKit          3D

 56 58  0  0  0  0  0  0  0  0999 V2000
   56.6580   23.1550   43.0270 C   0  0  0  0  0  0  0  0  0  0  0  0
   55.9170   24.1040   43.9750 C   0  0  0  0  0  0  0  0  0  0  0  0
   56.7920   25.2030   44.4690 N   0  0  0  0  0  0  0  0  0  0  0  0
   57.5340   24.7670   45.6840 C   0  0  0  0  0  0  0  0  0  0  0  0
   56.6670   24.8250   46.9480 C   0  0  0  0  0  0  0  0  0  0  0  0
   57.7490   25.6170   43.4030 C   0  0  0  0  0  0  0  0  0  0  0  0
   57.9530   27.1390   43.3570 C   0  0  0  0  0  0  0  0  0  0  0  0
   57.3560   27.7400   44.5020 O   0  0  0  0  0  0  0  0  0  0  0  0
   56.9530   29.0780   44.5310 C   0  0  0  0  0  0  0  0  0  0  0  0
   55.8090   29.3980   44.9550 O   0  0  0  0  0  0  0  0  0  0  0  0
   57.8980   30.1350   44.0600 C   0  0  0  0  0  0  0  0  0  0  0  0
   58.4140   30.9210   45.2330 C   0  0  0  0  0  0  0  0  0  0  0  0
   59.1410   30.4310   46.3240 C   0  0  0  0  0  0  0  0  0  0  0  0
   59.4770   29.0110   46.5520 C   0  0  0  0  0  0  0  0  0  0  0  0
   58.8410   28.2910   47.5770 C   0  0  0  0  0  0  0  0  0  0  0  0
   59.1610   26.9480   47.7960 C   0  0  0  0  0  0  0  0  0  0  0  0
   60.1170   26.3160   46.9970 C   0  0  0  0  0  0  0  0  0  0  0  0
   60.7510   27.0240   45.9700 C   0  0  0  0  0  0  0  0  0  0  0  0
   60.4340   28.3700   45.7480 C   0  0  0  0  0  0  0  0  0  0  0  0
   59.5860   31.4580   47.0970 N   0  0  0  0  0  0  0  0  0  0  0  0
   60.4140   31.3620   48.3010 C   0  0  0  0  0  0  0  0  0  0  0  0
   59.1820   32.5910   46.4820 C   0  0  0  0  0  0  0  0  0  0  0  0
   59.4470   33.9130   46.8560 C   0  0  0  0  0  0  0  0  0  0  0  0
   58.9570   34.9430   46.0350 C   0  0  0  0  0  0  0  0  0  0  0  0
   58.2280   34.6410   44.8650 C   0  0  0  0  0  0  0  0  0  0  0  0
   57.9850   33.3040   44.5030 C   0  0  0  0  0  0  0  0  0  0  0  0
   58.4690   32.2990   45.3450 C   0  0  0  0  0  0  0  0  0  0  0  0
   57.2301   22.4223   43.6150 H   0  0  0  0  0  0  0  0  0  0  0  0
   55.9300   22.6280   42.3928 H   0  0  0  0  0  0  0  0  0  0  0  0
   57.3458   23.7335   42.3928 H   0  0  0  0  0  0  0  0  0  0  0  0
   55.0634   24.5447   43.4391 H   0  0  0  0  0  0  0  0  0  0  0  0
   55.5850   23.5197   44.8458 H   0  0  0  0  0  0  0  0  0  0  0  0
   56.1900   26.0220   44.7240 H   0  0  0  0  0  0  0  0  0  0  0  0
   57.8762   23.7320   45.5370 H   0  0  0  0  0  0  0  0  0  0  0  0
   58.3812   25.4542   45.8254 H   0  0  0  0  0  0  0  0  0  0  0  0
   57.3125   24.7818   47.8377 H   0  0  0  0  0  0  0  0  0  0  0  0
   56.0933   25.7635   46.9564 H   0  0  0  0  0  0  0  0  0  0  0  0
   55.9734   23.9712   46.9564 H   0  0  0  0  0  0  0  0  0  0  0  0
   58.7198   25.1362   43.5938 H   0  0  0  0  0  0  0  0  0  0  0  0
   57.3280   25.3060   42.4355 H   0  0  0  0  0  0  0  0  0  0  0  0
   59.0299   27.3631   43.3465 H   0  0  0  0  0  0  0  0  0  0  0  0
   57.4821   27.5415   42.4480 H   0  0  0  0  0  0  0  0  0  0  0  0
   58.7429   29.6622   43.5379 H   0  0  0  0  0  0  0  0  0  0  0  0
   57.3692   30.8135   43.3744 H   0  0  0  0  0  0  0  0  0  0  0  0
   58.0889   28.7856   48.2092 H   0  0  0  0  0  0  0  0  0  0  0  0
   58.6592   26.3878   48.5988 H   0  0  0  0  0  0  0  0  0  0  0  0
   60.3716   25.2608   47.1754 H   0  0  0  0  0  0  0  0  0  0  0  0
   61.4984   26.5234   45.3370 H   0  0  0  0  0  0  0  0  0  0  0  0
   60.9355   28.9263   44.9424 H   0  0  0  0  0  0  0  0  0  0  0  0
   59.7743   31.4362   49.1928 H   0  0  0  0  0  0  0  0  0  0  0  0
   60.9414   30.3967   48.3073 H   0  0  0  0  0  0  0  0  0  0  0  0
   61.1483   32.1810   48.3073 H   0  0  0  0  0  0  0  0  0  0  0  0
   60.0220   34.1395   47.7660 H   0  0  0  0  0  0  0  0  0  0  0  0
   59.1431   35.9926   46.3064 H   0  0  0  0  0  0  0  0  0  0  0  0
   57.8475   35.4564   44.2323 H   0  0  0  0  0  0  0  0  0  0  0  0
   57.4310   33.0568   43.5854 H   0  0  0  0  0  0  0  0  0  0  0  0
  1  2  1  0
  2  3  1  0
  3  4  1  0
  4  5  1  0
  3  6  1  0
  6  7  1  0
  7  8  1  0
  8  9  1  0
  9 10  2  0
  9 11  1  0
 11 12  1  0
 12 13  2  0
 13 14  1  0
 14 15  2  0
 15 16  1  0
 16 17  2  0
 17 18  1  0
 18 19  2  0
 13 20  1  0
 20 21  1  0
 20 22  1  0
 22 23  2  0
 23 24  1  0
 24 25  2  0
 25 26  1  0
 26 27  2  0
 27 12  1  0
 19 14  1  0
 27 22  1  0
  1 28  1  0
  1 29  1  0
  1 30  1  0
  2 31  1  0
  2 32  1  0
  3 33  1  0
  4 34  1  0
  4 35  1  0
  5 36  1  0
  5 37  1  0
  5 38  1  0
  6 39  1  0
  6 40  1  0
  7 41  1  0
  7 42  1  0
 11 43  1  0
 11 44  1  0
 15 45  1  0
 16 46  1  0
 17 47  1  0
 18 48  1  0
 19 49  1  0
 21 50  1  0
 21 51  1  0
 21 52  1  0
 23 53  1  0
 24 54  1  0
 25 55  1  0
 26 56  1  0
M  CHG  1   3   1
M  END
>  <UniqueID>  (9) 
9

>  <SMILES>  (9) 
CC[NH+](CC)CCOC(=O)Cc1c(-c2ccccc2)n(C)c2ccccc12

>  <Energy>  (9) 
90.96250950046186

>  <Genealogy>  (9) 
CC[NH+](CC)CCOC(=O)Cc1c(-c2ccccc2)n(C)c2ccccc12 (protonated)
CC[NH+](CC)CCOC(=O)Cc1c(-c2ccccc2)n(C)c2ccccc12 (3D coordinates assigned)
CC[NH+](CC)CCOC(=O)Cc1c(-c2ccccc2)n(C)c2ccccc12 (optimized conformer: 90.96250950046186 kcal/mol)

>  <smiles>  (9) 
CCN(CC)CCOC(=O)Cc1c(-c2ccccc2)n(C)c2ccccc12

>  <score_type>  (9) 
oracle

>  <origin>  (9) 
adg

>  <m_score__min__energy>  (9) 
-5.6500000000000004

>  <m_primary>  (9) 
energy

$$$$
9:0
     RDKit          3D

 45 47  0  0  0  0  0  0  0  0999 V2000
   58.1320   27.2820   44.6080 C   0  0  0  0  0  0  0  0  0  0  0  0
   57.0300   27.5540   45.6260 C   0  0  0  0  0  0  0  0  0  0  0  0
   56.2500   28.6850   45.2380 O   0  0  0  0  0  0  0  0  0  0  0  0
   56.7020   29.7630   44.4590 C   0  0  0  0  0  0  0  0  0  0  0  0
   56.5320   29.8190   43.0620 C   0  0  0  0  0  0  0  0  0  0  0  0
   57.0070   30.9160   42.3400 C   0  0  0  0  0  0  0  0  0  0  0  0
   57.6560   31.9640   42.9980 C   0  0  0  0  0  0  0  0  0  0  0  0
   57.8370   31.9240   44.3910 C   0  0  0  0  0  0  0  0  0  0  0  0
   58.5230   33.0340   45.0990 C   0  0  0  0  0  0  0  0  0  0  0  0
   58.6460   34.3000   44.5050 C   0  0  0  0  0  0  0  0  0  0  0  0
   59.2830   35.2970   45.1700 N   0  0  0  0  0  0  0  0  0  0  0  0
   59.8120   35.0960   46.4040 C   0  0  0  0  0  0  0  0  0  0  0  0
   59.7130   33.8340   47.0040 C   0  0  0  0  0  0  0  0  0  0  0  0
   60.2890   33.5980   48.3470 C   0  0  0  0  0  0  0  0  0  0  0  0
   59.6320   33.9460   49.3660 O   0  0  0  0  0  0  0  0  0  0  0  0
   61.5780   32.9750   48.5160 N   0  0  0  0  0  0  0  0  0  0  0  0
   61.8290   32.1780   49.7270 C   0  0  0  0  0  0  0  0  0  0  0  0
   63.1580   31.4200   49.6300 C   0  0  0  0  0  0  0  0  0  0  0  0
   64.3300   32.3620   49.3050 C   0  0  0  0  0  0  0  0  0  0  0  0
   63.9730   33.4800   48.3010 C   0  0  0  0  0  0  0  0  0  0  0  0
   62.6650   33.2090   47.5540 C   0  0  0  0  0  0  0  0  0  0  0  0
   59.0540   32.8380   46.3430 N   0  0  0  0  0  0  0  0  0  0  0  0
   57.3570   30.8160   45.1100 C   0  0  0  0  0  0  0  0  0  0  0  0
   59.0693   27.0507   45.1353 H   0  0  0  0  0  0  0  0  0  0  0  0
   57.8457   26.4276   43.9772 H   0  0  0  0  0  0  0  0  0  0  0  0
   58.2761   28.1715   43.9772 H   0  0  0  0  0  0  0  0  0  0  0  0
   56.3767   26.6717   45.6948 H   0  0  0  0  0  0  0  0  0  0  0  0
   57.4942   27.7633   46.6010 H   0  0  0  0  0  0  0  0  0  0  0  0
   56.0236   28.9962   42.5380 H   0  0  0  0  0  0  0  0  0  0  0  0
   56.8697   30.9552   41.2493 H   0  0  0  0  0  0  0  0  0  0  0  0
   58.0272   32.8249   42.4226 H   0  0  0  0  0  0  0  0  0  0  0  0
   58.2277   34.4833   43.5043 H   0  0  0  0  0  0  0  0  0  0  0  0
   60.3159   35.9201   46.9302 H   0  0  0  0  0  0  0  0  0  0  0  0
   61.8624   32.8498   50.5974 H   0  0  0  0  0  0  0  0  0  0  0  0
   61.0174   31.4432   49.8332 H   0  0  0  0  0  0  0  0  0  0  0  0
   63.3560   30.9238   50.5916 H   0  0  0  0  0  0  0  0  0  0  0  0
   63.0740   30.6850   48.8160 H   0  0  0  0  0  0  0  0  0  0  0  0
   64.6671   32.8314   50.2409 H   0  0  0  0  0  0  0  0  0  0  0  0
   65.1127   31.7483   48.8352 H   0  0  0  0  0  0  0  0  0  0  0  0
   63.8743   34.4278   48.8505 H   0  0  0  0  0  0  0  0  0  0  0  0
   64.7788   33.5244   47.5536 H   0  0  0  0  0  0  0  0  0  0  0  0
   62.4163   34.0780   46.9271 H   0  0  0  0  0  0  0  0  0  0  0  0
   62.7873   32.3170   46.9220 H   0  0  0  0  0  0  0  0  0  0  0  0
   58.9130   31.9190   46.8180 H   0  0  0  0  0  0  0  0  0  0  0  0
   57.4978   30.7752   46.2002 H   0  0  0  0  0  0  0  0  0  0  0  0
  1  2  1  0
  2  3  1  0
  3  4  1  0
  4  5  2  0
  5  6  1  0
  6  7  2  0
  7  8  1  0
  8  9  1  0
  9 10  2  0
 10 11  1  0
 11 12  2  0
 12 13  1  0
 13 14  1  0
 14 15  2  0
 14 16  1  0
 16 17  1  0
 17 18  1  0
 18 19  1  0
 19 20  1  0
 20 21  1  0
 13 22  2  0
  8 23  2  0
 23  4  1  0
 22  9  1  0
 21 16  1  0
  1 24  1  0
  1 25  1  0
  1 26  1  0
  2 27  1  0
  2 28  1  0
  5 29  1  0
  6 30  1  0
  7 31  1  0
 10 32  1  0
 12 33  1  0
 17 34  1  0
 17 35  1  0
 18 36  1  0
 18 37  1  0
 19 38  1  0
 19 39  1  0
 20 40  1  0
 20 41  1  0
 21 42  1  0
 21 43  1  0
 22 44  1  0
 23 45  1  0
M  CHG  1  22   1
M  END
>  <UniqueID>  (10) 
10

>  <SMILES>  (10) 
CCOc1cccc(-c2cncc(C(=O)N3CCCCC3)[nH+]2)c1

>  <Energy>  (10) 
54.74427942132291

>  <Genealogy>  (10) 
CCOc1cccc(-c2cncc(C(=O)N3CCCCC3)[nH+]2)c1 (protonated)
CCOc1cccc(-c2cncc(C(=O)N3CCCCC3)[nH+]2)c1 (3D coordinates assigned)
CCOc1cccc(-c2cncc(C(=O)N3CCCCC3)[nH+]2)c1 (nonaromatic ring conformer: 54.74427942132291 kcal/mol)

>  <smiles>  (10) 
CCOc1cccc(-c2cncc(C(=O)N3CCCCC3)n2)c1

>  <score_type>  (10) 
oracle

>  <origin>  (10) 
adg

>  <m_score__min__energy>  (10) 
-6.3799999999999999

>  <m_primary>  (10) 
energy

$$$$
10:0
     RDKit          3D

 41 43  0  0  0  0  0  0  0  0999 V2000
   58.7568   30.3789   46.4418 H   0  0  0  0  0  0  0  0  0  0  0  0
   58.5960   31.4110   46.0970 C   0  0  0  0  0  0  0  0  0  0  0  0
   58.0630   31.6290   44.8770 C   0  0  0  0  0  0  0  0  0  0  0  0
   57.6870   30.5190   43.9640 C   0  0  0  0  0  0  0  0  0  0  0  0
   57.5620   30.7484   42.8955 H   0  0  0  0  0  0  0  0  0  0  0  0
   57.4910   29.2550   44.3640 C   0  0  0  0  0  0  0  0  0  0  0  0
   58.3299   28.5453   44.3127 H   0  0  0  0  0  0  0  0  0  0  0  0
   56.1850   28.7820   44.8720 C   0  0  0  0  0  0  0  0  0  0  0  0
   55.1500   29.4800   44.7020 O   0  0  0  0  0  0  0  0  0  0  0  0
   56.0790   27.5670   45.6250 N   0  0  0  0  0  0  0  0  0  0  0  0
   56.9900   26.4600   45.5840 C   0  0  0  0  0  0  0  0  0  0  0  0
   58.2300   26.5790   46.2200 C   0  0  0  0  0  0  0  0  0  0  0  0
   58.4983   27.5196   46.7232 H   0  0  0  0  0  0  0  0  0  0  0  0
   59.1310   25.5090   46.2200 C   0  0  0  0  0  0  0  0  0  0  0  0
   60.1091   25.6193   46.7112 H   0  0  0  0  0  0  0  0  0  0  0  0
   58.7980   24.2990   45.6000 C   0  0  0  0  0  0  0  0  0  0  0  0
   59.7380   23.2570   45.6240 O   0  0  0  0  0  0  0  0  0  0  0  0
   59.6820   22.1070   44.7860 C   0  0  0  0  0  0  0  0  0  0  0  0
   59.6379   21.2013   45.4087 H   0  0  0  0  0  0  0  0  0  0  0  0
   58.7853   22.1594   44.1510 H   0  0  0  0  0  0  0  0  0  0  0  0
   60.5795   22.0720   44.1510 H   0  0  0  0  0  0  0  0  0  0  0  0
   57.5390   24.1680   44.9840 C   0  0  0  0  0  0  0  0  0  0  0  0
   57.2625   23.2199   44.4997 H   0  0  0  0  0  0  0  0  0  0  0  0
   56.6380   25.2380   44.9850 C   0  0  0  0  0  0  0  0  0  0  0  0
   55.6501   25.1227   44.5152 H   0  0  0  0  0  0  0  0  0  0  0  0
   57.7570   33.0460   44.4340 C   0  0  0  0  0  0  0  0  0  0  0  0
   56.7518   33.3176   44.7887 H   0  0  0  0  0  0  0  0  0  0  0  0
   57.8187   33.0747   43.3361 H   0  0  0  0  0  0  0  0  0  0  0  0
   58.7660   34.0630   44.9860 C   0  0  0  0  0  0  0  0  0  0  0  0
   58.3724   35.0787   44.8328 H   0  0  0  0  0  0  0  0  0  0  0  0
   59.7195   33.9328   44.4532 H   0  0  0  0  0  0  0  0  0  0  0  0
   59.0070   33.8460   46.4560 C   0  0  0  0  0  0  0  0  0  0  0  0
   59.3790   34.9150   47.2860 C   0  0  0  0  0  0  0  0  0  0  0  0
   59.4307   35.9351   46.8778 H   0  0  0  0  0  0  0  0  0  0  0  0
   59.6840   34.6850   48.6310 C   0  0  0  0  0  0  0  0  0  0  0  0
   59.9605   35.5265   49.2832 H   0  0  0  0  0  0  0  0  0  0  0  0
   59.6380   33.3870   49.1480 C   0  0  0  0  0  0  0  0  0  0  0  0
   59.8788   33.2093   50.2065 H   0  0  0  0  0  0  0  0  0  0  0  0
   59.2870   32.3150   48.3240 C   0  0  0  0  0  0  0  0  0  0  0  0
   59.2616   31.2938   48.7321 H   0  0  0  0  0  0  0  0  0  0  0  0
   58.9670   32.5390   46.9770 C   0  0  0  0  0  0  0  0  0  0  0  0
  1  2  1  0
  2  3  2  0
  3  4  1  0
  4  5  1  0
  4  6  2  0
  6  7  1  0
  6  8  1  0
  8  9  2  0
  8 10  1  0
 10 11  1  0
 11 12  2  0
 12 13  1  0
 12 14  1  0
 14 15  1  0
 14 16  2  0
 16 17  1  0
 17 18  1  0
 18 19  1  0
 18 20  1  0
 18 21  1  0
 16 22  1  0
 22 23  1  0
 22 24  2  0
 24 25  1  0
  3 26  1  0
 26 27  1  0
 26 28  1  0
 26 29  1  0
 29 30  1  0
 29 31  1  0
 29 32  1  0
 32 33  2  0
 33 34  1  0
 33 35  1  0
 35 36  1  0
 35 37  2  0
 37 38  1  0
 37 39  1  0
 39 40  1  0
 39 41  2  0
 41  2  1  0
 24 11  1  0
 41 32  1  0
M  CHG  1  10  -1
M  END
>  <UniqueID>  (11) 
11

>  <SMILES>  (11) 
COc1ccc([N-]C(=O)/C=C/C2=Cc3ccccc3CC2)cc1

>  <Energy>  (11) 
50.32933815517662

>  <Genealogy>  (11) 
COc1ccc([N-]C(=O)C=CC2=Cc3ccccc3CC2)cc1 (protonated)
COc1ccc([N-]C(=O)/C=C/C2=Cc3ccccc3CC2)cc1 (cis-trans isomerization)
COc1ccc([N-]C(=O)/C=C/C2=Cc3ccccc3CC2)cc1 (3D coordinates assigned)
COc1ccc([N-]C(=O)/C=C/C2=Cc3ccccc3CC2)cc1 (nonaromatic ring conformer: 50.32933815517662 kcal/mol)

>  <smiles>  (11) 
COc1ccc(NC(=O)C=CC2=Cc3ccccc3CC2)cc1

>  <score_type>  (11) 
oracle

>  <origin>  (11) 
adg

>  <m_score__min__energy>  (11) 
-10.44

>  <m_primary>  (11) 
energy

$$$$
11:0
     RDKit          3D

 54 57  0  0  0  0  0  0  0  0999 V2000
   57.6460   30.1590   46.3330 O   0  0  0  0  0  0  0  0  0  0  0  0
   57.6310   30.0090   44.9340 C   0  0  2  0  0  0  0  0  0  0  0  0
   57.2280   31.3450   44.2600 C   0  0  0  0  0  0  0  0  0  0  0  0
   56.9870   32.3450   45.2540 O   0  0  0  0  0  0  0  0  0  0  0  0
   57.9190   33.3310   45.6100 C   0  0  0  0  0  0  0  0  0  0  0  0
   58.3430   34.2950   44.6780 C   0  0  0  0  0  0  0  0  0  0  0  0
   59.2750   35.2710   45.0400 C   0  0  0  0  0  0  0  0  0  0  0  0
   59.7890   35.3080   46.3370 C   0  0  0  0  0  0  0  0  0  0  0  0
   59.3750   34.3620   47.2850 C   0  0  0  0  0  0  0  0  0  0  0  0
   59.8970   34.3900   48.5900 C   0  0  0  0  0  0  0  0  0  0  0  0
   59.4910   33.4400   49.5320 C   0  0  0  0  0  0  0  0  0  0  0  0
   60.2110   33.4790   51.3000 Br  0  0  0  0  0  0  0  0  0  0  0  0
   58.5610   32.4590   49.1780 C   0  0  0  0  0  0  0  0  0  0  0  0
   58.0310   32.4200   47.8850 C   0  0  0  0  0  0  0  0  0  0  0  0
   58.4280   33.3680   46.9250 C   0  0  0  0  0  0  0  0  0  0  0  0
   56.7010   28.8310   44.5290 C   0  0  0  0  0  0  0  0  0  0  0  0
   57.4550   27.5890   44.2040 N   0  0  0  0  0  0  0  0  0  0  0  0
   58.8840   27.8750   43.8640 C   0  0  0  0  0  0  0  0  0  0  0  0
   59.8830   27.4860   44.9680 C   0  0  0  0  0  0  0  0  0  0  0  0
   59.2810   27.7020   46.2870 N   0  0  0  0  0  0  0  0  0  0  0  0
   59.8540   28.6230   47.2350 C   0  0  0  0  0  0  0  0  0  0  0  0
   59.6360   28.4500   48.6140 C   0  0  0  0  0  0  0  0  0  0  0  0
   60.1760   29.3570   49.5330 C   0  0  0  0  0  0  0  0  0  0  0  0
   60.9260   30.4450   49.0840 C   0  0  0  0  0  0  0  0  0  0  0  0
   61.1360   30.6330   47.7140 C   0  0  0  0  0  0  0  0  0  0  0  0
   62.0610   32.0120   47.1500 Cl  0  0  0  0  0  0  0  0  0  0  0  0
   60.6040   29.7250   46.7910 C   0  0  0  0  0  0  0  0  0  0  0  0
   58.0060   27.0450   46.5860 C   0  0  0  0  0  0  0  0  0  0  0  0
   57.3180   26.5840   45.2880 C   0  0  0  0  0  0  0  0  0  0  0  0
   57.0200   30.8960   46.5630 H   0  0  0  0  0  0  0  0  0  0  0  0
   58.6410   29.7577   44.5780 H   0  0  0  0  0  0  0  0  0  0  0  0
   58.0412   31.6784   43.5985 H   0  0  0  0  0  0  0  0  0  0  0  0
   56.3091   31.1901   43.6755 H   0  0  0  0  0  0  0  0  0  0  0  0
   57.9376   34.2805   43.6556 H   0  0  0  0  0  0  0  0  0  0  0  0
   59.6053   36.0139   44.2990 H   0  0  0  0  0  0  0  0  0  0  0  0
   60.5203   36.0809   46.6159 H   0  0  0  0  0  0  0  0  0  0  0  0
   60.6279   35.1625   48.8711 H   0  0  0  0  0  0  0  0  0  0  0  0
   58.2440   31.7128   49.9214 H   0  0  0  0  0  0  0  0  0  0  0  0
   57.2994   31.6435   47.6170 H   0  0  0  0  0  0  0  0  0  0  0  0
   56.0173   28.6192   45.3643 H   0  0  0  0  0  0  0  0  0  0  0  0
   56.1552   29.1348   43.6235 H   0  0  0  0  0  0  0  0  0  0  0  0
   57.0130   27.1550   43.3600 H   0  0  0  0  0  0  0  0  0  0  0  0
   59.1409   27.3150   42.9528 H   0  0  0  0  0  0  0  0  0  0  0  0
   58.9664   28.9638   43.7312 H   0  0  0  0  0  0  0  0  0  0  0  0
   60.1512   26.4248   44.8593 H   0  0  0  0  0  0  0  0  0  0  0  0
   60.7844   28.1097   44.8757 H   0  0  0  0  0  0  0  0  0  0  0  0
   59.0386   27.5983   48.9715 H   0  0  0  0  0  0  0  0  0  0  0  0
   60.0091   29.2122   50.6106 H   0  0  0  0  0  0  0  0  0  0  0  0
   61.3522   31.1551   49.8080 H   0  0  0  0  0  0  0  0  0  0  0  0
   60.7737   29.8747   45.7145 H   0  0  0  0  0  0  0  0  0  0  0  0
   58.1912   26.1708   47.2274 H   0  0  0  0  0  0  0  0  0  0  0  0
   57.3493   27.7616   47.1009 H   0  0  0  0  0  0  0  0  0  0  0  0
   57.7762   25.6399   44.9582 H   0  0  0  0  0  0  0  0  0  0  0  0
   56.2463   26.4515   45.4977 H   0  0  0  0  0  0  0  0  0  0  0  0
  1  2  1  0
  2  3  1  0
  3  4  1  0
  4  5  1  0
  5  6  2  0
  6  7  1  0
  7  8  2  0
  8  9  1  0
  9 10  2  0
 10 11  1  0
 11 12  1  0
 11 13  2  0
 13 14  1  0
 14 15  2  0
  2 16  1  0
 16 17  1  0
 17 18  1  0
 18 19  1  0
 19 20  1  0
 20 21  1  0
 21 22  2  0
 22 23  1  0
 23 24  2  0
 24 25  1  0
 25 26  1  0
 25 27  2  0
 20 28  1  0
 28 29  1  0
 15  5  1  0
 29 17  1  0
 15  9  1  0
 27 21  1  0
  1 30  1  0
  2 31  1  6
  3 32  1  0
  3 33  1  0
  6 34  1  0
  7 35  1  0
  8 36  1  0
 10 37  1  0
 13 38  1  0
 14 39  1  0
 16 40  1  0
 16 41  1  0
 17 42  1  0
 18 43  1  0
 18 44  1  0
 19 45  1  0
 19 46  1  0
 22 47  1  0
 23 48  1  0
 24 49  1  0
 27 50  1  0
 28 51  1  0
 28 52  1  0
 29 53  1  0
 29 54  1  0
M  CHG  1  17   1
M  END
>  <UniqueID>  (12) 
12

>  <SMILES>  (12) 
O[C@H](COc1cccc2cc(Br)ccc12)C[NH+]1CCN(c2cccc(Cl)c2)CC1

>  <Energy>  (12) 
78.12606189066229

>  <Genealogy>  (12) 
OC(COc1cccc2cc(Br)ccc12)C[NH+]1CCN(c2cccc(Cl)c2)CC1 (protonated)
O[C@H](COc1cccc2cc(Br)ccc12)C[NH+]1CCN(c2cccc(Cl)c2)CC1 (chirality)
O[C@H](COc1cccc2cc(Br)ccc12)C[NH+]1CCN(c2cccc(Cl)c2)CC1 (3D coordinates assigned)
O[C@H](COc1cccc2cc(Br)ccc12)C[NH+]1CCN(c2cccc(Cl)c2)CC1 (nonaromatic ring conformer: 78.12606189066229 kcal/mol)

>  <smiles>  (12) 
OC(COc1cccc2cc(Br)ccc12)CN1CCN(c2cccc(Cl)c2)CC1

>  <score_type>  (12) 
oracle

>  <origin>  (12) 
adg

>  <m_score__min__energy>  (12) 
-7.4900000000000002

>  <m_primary>  (12) 
energy

$$$$
12:0
     RDKit          3D

 41 44  0  0  0  0  0  0  0  0999 V2000
   58.8320   34.9120   44.7980 C   0  0  0  0  0  0  0  0  0  0  0  0
   58.7630   33.8740   45.8410 N   0  0  0  0  0  0  0  0  0  0  0  0
   58.4170   32.5870   45.5000 C   0  0  0  0  0  0  0  0  0  0  0  0
   58.0620   32.1140   43.7970 S   0  0  0  0  0  0  0  0  0  0  0  0
   56.7330   30.9440   44.2400 C   0  0  0  0  0  0  0  0  0  0  0  0
   57.3040   29.5800   44.4710 C   0  0  0  0  0  0  0  0  0  0  0  0
   57.3210   28.7470   43.5250 O   0  0  0  0  0  0  0  0  0  0  0  0
   57.8130   29.2260   45.7650 N   0  0  0  0  0  0  0  0  0  0  0  0
   58.4420   27.9710   46.0490 C   0  0  0  0  0  0  0  0  0  0  0  0
   60.1060   27.7410   46.0810 S   0  0  0  0  0  0  0  0  0  0  0  0
   60.0540   26.0820   46.3560 C   0  0  0  0  0  0  0  0  0  0  0  0
   58.7240   25.6830   46.3980 C   0  0  0  0  0  0  0  0  0  0  0  0
   57.8160   26.7360   46.2170 C   0  0  0  0  0  0  0  0  0  0  0  0
   56.3990   26.5150   46.1040 C   0  0  0  0  0  0  0  0  0  0  0  0
   55.2600   26.3310   46.0130 N   0  0  0  0  0  0  0  0  0  0  0  0
   58.3380   31.6230   46.4510 N   0  0  0  0  0  0  0  0  0  0  0  0
   58.6160   31.8820   47.7490 C   0  0  0  0  0  0  0  0  0  0  0  0
   58.5300   30.8860   48.6700 N   0  0  0  0  0  0  0  0  0  0  0  0
   58.8110   31.0990   49.9830 C   0  0  0  0  0  0  0  0  0  0  0  0
   58.7110   30.0470   50.9020 C   0  0  0  0  0  0  0  0  0  0  0  0
   59.0010   30.2690   52.2520 C   0  0  0  0  0  0  0  0  0  0  0  0
   59.3900   31.5390   52.6890 C   0  0  0  0  0  0  0  0  0  0  0  0
   59.4930   32.5960   51.7780 C   0  0  0  0  0  0  0  0  0  0  0  0
   59.2040   32.3830   50.4220 C   0  0  0  0  0  0  0  0  0  0  0  0
   59.2990   33.4230   49.4870 C   0  0  0  0  0  0  0  0  0  0  0  0
   59.0020   33.1750   48.1360 C   0  0  0  0  0  0  0  0  0  0  0  0
   59.0750   34.1720   47.1460 C   0  0  0  0  0  0  0  0  0  0  0  0
   59.4310   35.3410   47.4680 O   0  0  0  0  0  0  0  0  0  0  0  0
   58.8979   35.9030   45.2708 H   0  0  0  0  0  0  0  0  0  0  0  0
   59.7210   34.7445   44.1722 H   0  0  0  0  0  0  0  0  0  0  0  0
   57.9287   34.8636   44.1722 H   0  0  0  0  0  0  0  0  0  0  0  0
   56.2347   31.2900   45.1576 H   0  0  0  0  0  0  0  0  0  0  0  0
   56.0068   30.8952   43.4152 H   0  0  0  0  0  0  0  0  0  0  0  0
   57.5630   29.8350   46.5770 H   0  0  0  0  0  0  0  0  0  0  0  0
   60.9265   25.4239   46.4814 H   0  0  0  0  0  0  0  0  0  0  0  0
   58.4128   24.6401   46.5580 H   0  0  0  0  0  0  0  0  0  0  0  0
   58.4045   29.0467   50.5622 H   0  0  0  0  0  0  0  0  0  0  0  0
   58.9228   29.4416   52.9726 H   0  0  0  0  0  0  0  0  0  0  0  0
   59.6157   31.7076   53.7523 H   0  0  0  0  0  0  0  0  0  0  0  0
   59.8005   33.5935   52.1250 H   0  0  0  0  0  0  0  0  0  0  0  0
   59.6048   34.4292   49.8095 H   0  0  0  0  0  0  0  0  0  0  0  0
  1  2  1  0
  2  3  1  0
  3  4  1  0
  4  5  1  0
  5  6  1  0
  6  7  2  0
  6  8  1  0
  8  9  1  0
  9 10  1  0
 10 11  1  0
 11 12  2  0
 12 13  1  0
 13 14  1  0
 14 15  3  0
  3 16  2  0
 16 17  1  0
 17 18  2  0
 18 19  1  0
 19 20  2  0
 20 21  1  0
 21 22  2  0
 22 23  1  0
 23 24  2  0
 24 25  1  0
 25 26  2  0
 26 27  1  0
 27 28  2  0
 27  2  1  0
 13  9  2  0
 26 17  1  0
 24 19  1  0
  1 29  1  0
  1 30  1  0
  1 31  1  0
  5 32  1  0
  5 33  1  0
  8 34  1  0
 11 35  1  0
 12 36  1  0
 20 37  1  0
 21 38  1  0
 22 39  1  0
 23 40  1  0
 25 41  1  0
M  END
>  <UniqueID>  (13) 
13

>  <SMILES>  (13) 
Cn1c(SCC(=O)Nc2sccc2C#N)nc2nc3ccccc3cc2c1=O

>  <Energy>  (13) 
81.16364906357134

>  <Genealogy>  (13) 
Cn1c(SCC(=O)Nc2sccc2C#N)nc2nc3ccccc3cc2c1=O (3D coordinates assigned)
Cn1c(SCC(=O)Nc2sccc2C#N)nc2nc3ccccc3cc2c1=O (optimized conformer: 81.16364906357134 kcal/mol)

>  <smiles>  (13) 
Cn1c(SCC(=O)Nc2sccc2C#N)nc2nc3ccccc3cc2c1=O

>  <score_type>  (13) 
oracle

>  <origin>  (13) 
adg

>  <m_score__min__energy>  (13) 
-9.1199999999999992

>  <m_primary>  (13) 
energy

$$$$
13:0
     RDKit          3D

 43 46  0  0  0  0  0  0  0  0999 V2000
   65.1170   31.0840   51.3030 C   0  0  0  0  0  0  0  0  0  0  0  0
   63.7500   31.2850   50.9640 O   0  0  0  0  0  0  0  0  0  0  0  0
   63.2890   31.5820   49.6740 C   0  0  0  0  0  0  0  0  0  0  0  0
   63.8980   32.6310   48.9740 C   0  0  0  0  0  0  0  0  0  0  0  0
   63.4780   32.9600   47.6830 C   0  0  0  0  0  0  0  0  0  0  0  0
   62.4370   32.2490   47.0820 C   0  0  0  0  0  0  0  0  0  0  0  0
   61.8010   31.2100   47.7750 C   0  0  0  0  0  0  0  0  0  0  0  0
   60.6930   30.4780   47.1370 C   0  0  0  0  0  0  0  0  0  0  0  0
   60.9090   29.3890   46.3540 N   0  0  0  0  0  0  0  0  0  0  0  0
   59.6760   29.0730   45.9250 C   0  0  0  0  0  0  0  0  0  0  0  0
   59.3230   28.0390   45.0610 C   0  0  0  0  0  0  0  0  0  0  0  0
   57.9680   27.9170   44.7030 C   0  0  0  0  0  0  0  0  0  0  0  0
   57.0070   28.8290   45.2060 C   0  0  0  0  0  0  0  0  0  0  0  0
   55.6670   28.7110   44.8460 O   0  0  0  0  0  0  0  0  0  0  0  0
   57.4010   29.8640   46.0750 C   0  0  0  0  0  0  0  0  0  0  0  0
   58.7540   29.9490   46.4200 C   0  0  0  0  0  0  0  0  0  0  0  0
   59.3820   30.8490   47.2020 N   0  0  0  0  0  0  0  0  0  0  0  0
   58.8200   32.0760   47.7800 C   0  0  0  0  0  0  0  0  0  0  0  0
   59.0000   33.2290   46.8280 C   0  0  0  0  0  0  0  0  0  0  0  0
   58.5970   33.1170   45.4870 C   0  0  0  0  0  0  0  0  0  0  0  0
   58.7260   34.2050   44.6200 C   0  0  0  0  0  0  0  0  0  0  0  0
   59.2580   35.4120   45.0850 C   0  0  0  0  0  0  0  0  0  0  0  0
   59.6610   35.5310   46.4170 C   0  0  0  0  0  0  0  0  0  0  0  0
   59.5310   34.4450   47.2880 C   0  0  0  0  0  0  0  0  0  0  0  0
   62.2410   30.8650   49.0620 C   0  0  0  0  0  0  0  0  0  0  0  0
   65.2248   31.0681   52.3976 H   0  0  0  0  0  0  0  0  0  0  0  0
   65.4609   30.1256   50.8868 H   0  0  0  0  0  0  0  0  0  0  0  0
   65.7222   31.9028   50.8868 H   0  0  0  0  0  0  0  0  0  0  0  0
   64.7133   33.2002   49.4444 H   0  0  0  0  0  0  0  0  0  0  0  0
   63.9682   33.7807   47.1387 H   0  0  0  0  0  0  0  0  0  0  0  0
   62.1153   32.5052   46.0618 H   0  0  0  0  0  0  0  0  0  0  0  0
   60.0787   27.3410   44.6715 H   0  0  0  0  0  0  0  0  0  0  0  0
   57.6522   27.1080   44.0279 H   0  0  0  0  0  0  0  0  0  0  0  0
   55.1410   27.8660   45.0350 H   0  0  0  0  0  0  0  0  0  0  0  0
   56.6683   30.5830   46.4702 H   0  0  0  0  0  0  0  0  0  0  0  0
   57.7472   31.9284   47.9733 H   0  0  0  0  0  0  0  0  0  0  0  0
   59.3433   32.3021   48.7207 H   0  0  0  0  0  0  0  0  0  0  0  0
   58.1783   32.1691   45.1181 H   0  0  0  0  0  0  0  0  0  0  0  0
   58.4089   34.1122   43.5708 H   0  0  0  0  0  0  0  0  0  0  0  0
   59.3591   36.2679   44.4014 H   0  0  0  0  0  0  0  0  0  0  0  0
   60.0811   36.4801   46.7812 H   0  0  0  0  0  0  0  0  0  0  0  0
   59.8458   34.5434   48.3374 H   0  0  0  0  0  0  0  0  0  0  0  0
   61.7651   30.0298   49.5967 H   0  0  0  0  0  0  0  0  0  0  0  0
  1  2  1  0
  2  3  1  0
  3  4  2  0
  4  5  1  0
  5  6  2  0
  6  7  1  0
  7  8  1  0
  8  9  2  0
  9 10  1  0
 10 11  2  0
 11 12  1  0
 12 13  2  0
 13 14  1  0
 13 15  1  0
 15 16  2  0
 16 17  1  0
 17 18  1  0
 18 19  1  0
 19 20  2  0
 20 21  1  0
 21 22  2  0
 22 23  1  0
 23 24  2  0
  7 25  2  0
 25  3  1  0
 17  8  1  0
 24 19  1  0
 16 10  1  0
  1 26  1  0
  1 27  1  0
  1 28  1  0
  4 29  1  0
  5 30  1  0
  6 31  1  0
 11 32  1  0
 12 33  1  0
 14 34  1  0
 15 35  1  0
 18 36  1  0
 18 37  1  0
 20 38  1  0
 21 39  1  0
 22 40  1  0
 23 41  1  0
 24 42  1  0
 25 43  1  0
M  END
>  <UniqueID>  (14) 
14

>  <SMILES>  (14) 
COc1cccc(-c2nc3ccc(O)cc3n2Cc2ccccc2)c1

>  <Energy>  (14) 
87.03323960924394

>  <Genealogy>  (14) 
COc1cccc(-c2nc3ccc(O)cc3n2Cc2ccccc2)c1 (3D coordinates assigned)
COc1cccc(-c2nc3ccc(O)cc3n2Cc2ccccc2)c1 (optimized conformer: 87.03323960924394 kcal/mol)

>  <smiles>  (14) 
COc1cccc(-c2nc3ccc(O)cc3n2Cc2ccccc2)c1

>  <score_type>  (14) 
oracle

>  <origin>  (14) 
adg

>  <m_score__min__energy>  (14) 
-8.1799999999999997

>  <m_primary>  (14) 
energy

$$$$
14:0
     RDKit          3D

 37 38  0  0  0  0  0  0  0  0999 V2000
   57.8650   27.3460   44.5900 C   0  0  0  0  0  0  0  0  0  0  0  0
   57.0640   28.1430   45.6190 C   0  0  0  0  0  0  0  0  0  0  0  0
   57.2490   29.5950   45.4650 N   0  0  0  0  0  0  0  0  0  0  0  0
   57.7200   29.9920   44.1240 C   0  0  0  0  0  0  0  0  0  0  0  0
   57.2980   31.4320   43.7620 C   0  0  0  0  0  0  0  0  0  0  0  0
   56.6010   32.1040   44.8750 N   0  0  0  0  0  0  0  0  0  0  0  0
   57.0550   33.4840   45.1090 C   0  0  0  0  0  0  0  0  0  0  0  0
   58.4240   33.5330   45.7420 C   0  0  0  0  0  0  0  0  0  0  0  0
   59.0870   34.7580   45.8850 C   0  0  0  0  0  0  0  0  0  0  0  0
   60.3690   34.7900   46.4260 C   0  0  0  0  0  0  0  0  0  0  0  0
   60.9870   33.6020   46.8280 C   0  0  0  0  0  0  0  0  0  0  0  0
   62.2810   33.6190   47.3670 C   0  0  0  0  0  0  0  0  0  0  0  0
   62.8890   32.4270   47.7650 C   0  0  0  0  0  0  0  0  0  0  0  0
   64.1410   32.4470   48.2860 F   0  0  0  0  0  0  0  0  0  0  0  0
   62.2120   31.2140   47.6260 C   0  0  0  0  0  0  0  0  0  0  0  0
   60.9200   31.1760   47.0900 C   0  0  0  0  0  0  0  0  0  0  0  0
   60.0720   29.4610   46.9340 Br  0  0  0  0  0  0  0  0  0  0  0  0
   60.2910   32.3760   46.6840 C   0  0  0  0  0  0  0  0  0  0  0  0
   59.0310   32.3800   46.1510 N   0  0  0  0  0  0  0  0  0  0  0  0
   58.5522   26.6623   45.1099 H   0  0  0  0  0  0  0  0  0  0  0  0
   57.1762   26.7644   43.9597 H   0  0  0  0  0  0  0  0  0  0  0  0
   58.4432   28.0377   43.9597 H   0  0  0  0  0  0  0  0  0  0  0  0
   55.9966   27.9071   45.4968 H   0  0  0  0  0  0  0  0  0  0  0  0
   57.4247   27.8611   46.6192 H   0  0  0  0  0  0  0  0  0  0  0  0
   56.3740   30.0990   45.7430 H   0  0  0  0  0  0  0  0  0  0  0  0
   58.8179   29.9278   44.1005 H   0  0  0  0  0  0  0  0  0  0  0  0
   57.2641   29.3112   43.3900 H   0  0  0  0  0  0  0  0  0  0  0  0
   58.1975   32.0111   43.5059 H   0  0  0  0  0  0  0  0  0  0  0  0
   56.6024   31.3768   42.9117 H   0  0  0  0  0  0  0  0  0  0  0  0
   56.6540   31.5480   45.7600 H   0  0  0  0  0  0  0  0  0  0  0  0
   57.0908   34.0135   44.1455 H   0  0  0  0  0  0  0  0  0  0  0  0
   56.3452   33.9607   45.8010 H   0  0  0  0  0  0  0  0  0  0  0  0
   58.5966   35.6913   45.5710 H   0  0  0  0  0  0  0  0  0  0  0  0
   60.8956   35.7493   46.5372 H   0  0  0  0  0  0  0  0  0  0  0  0
   62.8180   34.5728   47.4765 H   0  0  0  0  0  0  0  0  0  0  0  0
   62.6989   30.2792   47.9408 H   0  0  0  0  0  0  0  0  0  0  0  0
   58.5040   31.4850   46.0400 H   0  0  0  0  0  0  0  0  0  0  0  0
  1  2  1  0
  2  3  1  0
  3  4  1  0
  4  5  1  0
  5  6  1  0
  6  7  1  0
  7  8  1  0
  8  9  2  0
  9 10  1  0
 10 11  2  0
 11 12  1  0
 12 13  2  0
 13 14  1  0
 13 15  1  0
 15 16  2  0
 16 17  1  0
 16 18  1  0
 18 19  2  0
 19  8  1  0
 18 11  1  0
  1 20  1  0
  1 21  1  0
  1 22  1  0
  2 23  1  0
  2 24  1  0
  3 25  1  0
  4 26  1  0
  4 27  1  0
  5 28  1  0
  5 29  1  0
  6 30  1  0
  7 31  1  0
  7 32  1  0
  9 33  1  0
 10 34  1  0
 12 35  1  0
 15 36  1  0
 19 37  1  0
M  CHG  1  19   1
M  END
>  <UniqueID>  (15) 
15

>  <SMILES>  (15) 
CCNCCNCc1ccc2cc(F)cc(Br)c2[nH+]1

>  <Energy>  (15) 
41.16397926520635

>  <Genealogy>  (15) 
CCNCCNCc1ccc2cc(F)cc(Br)c2[nH+]1 (protonated)
CCNCCNCc1ccc2cc(F)cc(Br)c2[nH+]1 (3D coordinates assigned)
CCNCCNCc1ccc2cc(F)cc(Br)c2[nH+]1 (optimized conformer: 41.16397926520635 kcal/mol)

>  <smiles>  (15) 
CCNCCNCc1ccc2cc(F)cc(Br)c2n1

>  <score_type>  (15) 
oracle

>  <origin>  (15) 
adg

>  <m_score__min__energy>  (15) 
-5.3799999999999999

>  <m_primary>  (15) 
energy

$$$$
15:0
     RDKit          3D

 50 53  0  0  0  0  0  0  0  0999 V2000
   58.1710   25.0750   46.5840 C   0  0  0  0  0  0  0  0  0  0  0  0
   59.1670   25.8810   46.0300 C   0  0  0  0  0  0  0  0  0  0  0  0
   58.8360   27.1140   45.4580 C   0  0  0  0  0  0  0  0  0  0  0  0
   57.4980   27.5520   45.4350 C   0  0  0  0  0  0  0  0  0  0  0  0
   57.1160   28.8530   44.8370 C   0  0  0  0  0  0  0  0  0  0  0  0
   57.9810   29.7680   44.3440 N   0  0  0  0  0  0  0  0  0  0  0  0
   57.1980   30.7730   43.9190 C   0  0  0  0  0  0  0  0  0  0  0  0
   57.6960   31.9990   43.2160 C   0  0  0  0  0  0  0  0  0  0  0  0
   57.4280   33.1960   44.0160 N   0  0  0  0  0  0  0  0  0  0  0  0
   58.1740   33.5370   45.2000 C   0  0  0  0  0  0  0  0  0  0  0  0
   57.8690   32.8980   46.4120 C   0  0  0  0  0  0  0  0  0  0  0  0
   58.5740   33.2070   47.5770 C   0  0  0  0  0  0  0  0  0  0  0  0
   59.6010   34.1670   47.5580 C   0  0  0  0  0  0  0  0  0  0  0  0
   60.3830   34.5040   48.8160 C   0  0  0  0  0  0  0  0  0  0  0  0
   61.8810   34.1720   48.6310 C   0  0  0  0  0  0  0  0  0  0  0  0
   62.6150   34.2240   49.9740 C   0  0  0  0  0  0  0  0  0  0  0  0
   62.0550   33.2020   50.9870 C   0  0  0  0  0  0  0  0  0  0  0  0
   60.6300   32.7220   50.6600 C   0  0  0  0  0  0  0  0  0  0  0  0
   59.7630   33.8510   50.0850 C   0  0  0  0  0  0  0  0  0  0  0  0
   59.9100   34.8040   46.3430 C   0  0  0  0  0  0  0  0  0  0  0  0
   59.2040   34.4950   45.1770 C   0  0  0  0  0  0  0  0  0  0  0  0
   55.8820   30.4370   44.1450 C   0  0  0  0  0  0  0  0  0  0  0  0
   55.8670   29.2550   44.7150 O   0  0  0  0  0  0  0  0  0  0  0  0
   56.5050   26.7300   45.9980 C   0  0  0  0  0  0  0  0  0  0  0  0
   56.8410   25.4990   46.5680 C   0  0  0  0  0  0  0  0  0  0  0  0
   58.4341   24.1059   47.0331 H   0  0  0  0  0  0  0  0  0  0  0  0
   60.2146   25.5458   46.0432 H   0  0  0  0  0  0  0  0  0  0  0  0
   59.6255   27.7449   45.0237 H   0  0  0  0  0  0  0  0  0  0  0  0
   59.0220   29.7210   44.2840 H   0  0  0  0  0  0  0  0  0  0  0  0
   58.7802   31.9076   43.0540 H   0  0  0  0  0  0  0  0  0  0  0  0
   57.1740   32.0921   42.2523 H   0  0  0  0  0  0  0  0  0  0  0  0
   56.6590   33.8400   43.7180 H   0  0  0  0  0  0  0  0  0  0  0  0
   57.0666   32.1463   46.4444 H   0  0  0  0  0  0  0  0  0  0  0  0
   58.3237   32.6949   48.5178 H   0  0  0  0  0  0  0  0  0  0  0  0
   60.3120   35.5888   48.9836 H   0  0  0  0  0  0  0  0  0  0  0  0
   61.9775   33.1623   48.2052 H   0  0  0  0  0  0  0  0  0  0  0  0
   62.3277   34.9150   47.9540 H   0  0  0  0  0  0  0  0  0  0  0  0
   63.6798   34.0066   49.8040 H   0  0  0  0  0  0  0  0  0  0  0  0
   62.4731   35.2296   50.3967 H   0  0  0  0  0  0  0  0  0  0  0  0
   62.7212   32.3268   51.0013 H   0  0  0  0  0  0  0  0  0  0  0  0
   62.0068   33.7097   51.9616 H   0  0  0  0  0  0  0  0  0  0  0  0
   60.6894   31.9084   49.9221 H   0  0  0  0  0  0  0  0  0  0  0  0
   60.1639   32.3767   51.5946 H   0  0  0  0  0  0  0  0  0  0  0  0
   58.7781   33.4379   49.8216 H   0  0  0  0  0  0  0  0  0  0  0  0
   59.6862   34.6330   50.8547 H   0  0  0  0  0  0  0  0  0  0  0  0
   60.7152   35.5527   46.3099 H   0  0  0  0  0  0  0  0  0  0  0  0
   59.4554   35.0043   44.2350 H   0  0  0  0  0  0  0  0  0  0  0  0
   55.0028   31.0483   43.8934 H   0  0  0  0  0  0  0  0  0  0  0  0
   55.4553   27.0588   45.9896 H   0  0  0  0  0  0  0  0  0  0  0  0
   56.0565   24.8634   47.0046 H   0  0  0  0  0  0  0  0  0  0  0  0
  1  2  2  0
  2  3  1  0
  3  4  2  0
  4  5  1  0
  5  6  2  0
  6  7  1  0
  7  8  1  0
  8  9  1  0
  9 10  1  0
 10 11  2  0
 11 12  1  0
 12 13  2  0
 13 14  1  0
 14 15  1  0
 15 16  1  0
 16 17  1  0
 17 18  1  0
 18 19  1  0
 13 20  1  0
 20 21  2  0
  7 22  2  0
 22 23  1  0
  4 24  1  0
 24 25  2  0
 25  1  1  0
 23  5  1  0
 21 10  1  0
 19 14  1  0
  1 26  1  0
  2 27  1  0
  3 28  1  0
  6 29  1  0
  8 30  1  0
  8 31  1  0
  9 32  1  0
 11 33  1  0
 12 34  1  0
 14 35  1  0
 15 36  1  0
 15 37  1  0
 16 38  1  0
 16 39  1  0
 17 40  1  0
 17 41  1  0
 18 42  1  0
 18 43  1  0
 19 44  1  0
 19 45  1  0
 20 46  1  0
 21 47  1  0
 22 48  1  0
 24 49  1  0
 25 50  1  0
M  CHG  1   6   1
M  END
>  <UniqueID>  (16) 
16

>  <SMILES>  (16) 
c1ccc(-c2[nH+]c(CNc3ccc(C4CCCCC4)cc3)co2)cc1

>  <Energy>  (16) 
87.19952793895601

>  <Genealogy>  (16) 
c1ccc(-c2[nH+]c(CNc3ccc(C4CCCCC4)cc3)co2)cc1 (protonated)
c1ccc(-c2[nH+]c(CNc3ccc(C4CCCCC4)cc3)co2)cc1 (3D coordinates assigned)
c1ccc(-c2[nH+]c(CNc3ccc(C4CCCCC4)cc3)co2)cc1 (nonaromatic ring conformer: 87.19952793895601 kcal/mol)

>  <smiles>  (16) 
c1ccc(-c2nc(CNc3ccc(C4CCCCC4)cc3)co2)cc1

>  <score_type>  (16) 
oracle

>  <origin>  (16) 
adg

>  <m_score__min__energy>  (16) 
-7.3399999999999999

>  <m_primary>  (16) 
energy

$$$$
16:0
     RDKit          3D

 41 44  0  0  0  0  0  0  0  0999 V2000
   63.4680   33.8340   46.7630 Cl  0  0  0  0  0  0  0  0  0  0  0  0
   63.4160   32.7760   48.1700 C   0  0  0  0  0  0  0  0  0  0  0  0
   64.5250   32.7690   49.0260 C   0  0  0  0  0  0  0  0  0  0  0  0
   64.5220   31.9880   50.1820 C   0  0  0  0  0  0  0  0  0  0  0  0
   63.4080   31.2080   50.4950 C   0  0  0  0  0  0  0  0  0  0  0  0
   62.2960   31.2060   49.6500 C   0  0  0  0  0  0  0  0  0  0  0  0
   62.2830   31.9850   48.4790 C   0  0  0  0  0  0  0  0  0  0  0  0
   61.0970   31.9410   47.5920 C   0  0  0  0  0  0  0  0  0  0  0  0
   60.6490   30.7460   47.1270 N   0  0  0  0  0  0  0  0  0  0  0  0
   59.5610   30.6470   46.3220 C   0  0  0  0  0  0  0  0  0  0  0  0
   59.1790   29.3530   45.8330 N   0  0  0  0  0  0  0  0  0  0  0  0
   58.1750   28.5560   46.5480 C   0  0  0  0  0  0  0  0  0  0  0  0
   57.0540   28.0940   45.5930 C   0  0  0  0  0  0  0  0  0  0  0  0
   57.4760   27.9920   44.1810 N   0  0  0  0  0  0  0  0  0  0  0  0
   58.9040   27.6920   44.0390 C   0  0  0  0  0  0  0  0  0  0  0  0
   59.7160   28.8820   44.5530 C   0  0  0  0  0  0  0  0  0  0  0  0
   58.8510   31.8110   45.9740 C   0  0  0  0  0  0  0  0  0  0  0  0
   57.6840   31.7810   45.1880 C   0  0  0  0  0  0  0  0  0  0  0  0
   57.0200   32.9680   44.8690 C   0  0  0  0  0  0  0  0  0  0  0  0
   57.5060   34.1920   45.3340 C   0  0  0  0  0  0  0  0  0  0  0  0
   58.6540   34.2350   46.1290 C   0  0  0  0  0  0  0  0  0  0  0  0
   59.3290   33.0490   46.4610 C   0  0  0  0  0  0  0  0  0  0  0  0
   60.4380   33.0860   47.2530 N   0  0  0  0  0  0  0  0  0  0  0  0
   65.4047   33.3839   48.7849 H   0  0  0  0  0  0  0  0  0  0  0  0
   65.3982   31.9870   50.8471 H   0  0  0  0  0  0  0  0  0  0  0  0
   63.4057   30.5943   51.4079 H   0  0  0  0  0  0  0  0  0  0  0  0
   61.4213   30.5888   49.9029 H   0  0  0  0  0  0  0  0  0  0  0  0
   58.6621   27.6720   46.9854 H   0  0  0  0  0  0  0  0  0  0  0  0
   57.7289   29.1796   47.3368 H   0  0  0  0  0  0  0  0  0  0  0  0
   56.7041   27.1045   45.9224 H   0  0  0  0  0  0  0  0  0  0  0  0
   56.2629   28.8570   45.6359 H   0  0  0  0  0  0  0  0  0  0  0  0
   56.9330   27.2180   43.7280 H   0  0  0  0  0  0  0  0  0  0  0  0
   59.1526   26.7950   44.6253 H   0  0  0  0  0  0  0  0  0  0  0  0
   59.1420   27.5088   42.9808 H   0  0  0  0  0  0  0  0  0  0  0  0
   60.7630   28.5739   44.6907 H   0  0  0  0  0  0  0  0  0  0  0  0
   59.6555   29.6988   43.8187 H   0  0  0  0  0  0  0  0  0  0  0  0
   57.2933   30.8195   44.8235 H   0  0  0  0  0  0  0  0  0  0  0  0
   56.1115   32.9385   44.2496 H   0  0  0  0  0  0  0  0  0  0  0  0
   56.9836   35.1244   45.0737 H   0  0  0  0  0  0  0  0  0  0  0  0
   59.0305   35.2011   46.4962 H   0  0  0  0  0  0  0  0  0  0  0  0
   60.7940   34.0070   47.5980 H   0  0  0  0  0  0  0  0  0  0  0  0
  1  2  1  0
  2  3  2  0
  3  4  1  0
  4  5  2  0
  5  6  1  0
  6  7  2  0
  7  8  1  0
  8  9  2  0
  9 10  1  0
 10 11  1  0
 11 12  1  0
 12 13  1  0
 13 14  1  0
 14 15  1  0
 15 16  1  0
 10 17  2  0
 17 18  1  0
 18 19  2  0
 19 20  1  0
 20 21  2  0
 21 22  1  0
 22 23  2  0
  7  2  1  0
 23  8  1  0
 16 11  1  0
 22 17  1  0
  3 24  1  0
  4 25  1  0
  5 26  1  0
  6 27  1  0
 12 28  1  0
 12 29  1  0
 13 30  1  0
 13 31  1  0
 14 32  1  0
 15 33  1  0
 15 34  1  0
 16 35  1  0
 16 36  1  0
 18 37  1  0
 19 38  1  0
 20 39  1  0
 21 40  1  0
 23 41  1  0
M  CHG  1  23   1
M  END
>  <UniqueID>  (17) 
17

>  <SMILES>  (17) 
Clc1ccccc1-c1nc(N2CCNCC2)c2ccccc2[nH+]1

>  <Energy>  (17) 
63.818441557256904

>  <Genealogy>  (17) 
Clc1ccccc1-c1nc(N2CCNCC2)c2ccccc2[nH+]1 (protonated)
Clc1ccccc1-c1nc(N2CCNCC2)c2ccccc2[nH+]1 (3D coordinates assigned)
Clc1ccccc1-c1nc(N2CCNCC2)c2ccccc2[nH+]1 (nonaromatic ring conformer: 63.818441557256904 kcal/mol)

>  <smiles>  (17) 
Clc1ccccc1-c1nc(N2CCNCC2)c2ccccc2n1

>  <score_type>  (17) 
oracle

>  <origin>  (17) 
adg

>  <m_score__min__energy>  (17) 
-6.6100000000000003

>  <m_primary>  (17) 
energy

$$$$
17:0
     RDKit          3D

 36 38  0  0  0  0  0  0  0  0999 V2000
   57.3880   28.0420   45.4230 C   0  0  0  0  0  0  0  0  0  0  0  0
   56.9440   29.3920   45.4890 O   0  0  0  0  0  0  0  0  0  0  0  0
   57.2030   30.3750   44.5180 C   0  0  0  0  0  0  0  0  0  0  0  0
   56.7430   30.2200   43.1950 C   0  0  0  0  0  0  0  0  0  0  0  0
   56.9920   31.1950   42.2330 C   0  0  0  0  0  0  0  0  0  0  0  0
   57.7030   32.3440   42.5670 C   0  0  0  0  0  0  0  0  0  0  0  0
   58.1760   32.5280   43.8730 C   0  0  0  0  0  0  0  0  0  0  0  0
   58.8900   33.6890   44.1900 C   0  0  0  0  0  0  0  0  0  0  0  0
   59.3570   33.9000   45.4830 C   0  0  0  0  0  0  0  0  0  0  0  0
   59.1280   32.9520   46.4890 C   0  0  0  0  0  0  0  0  0  0  0  0
   59.5880   33.2440   47.8690 C   0  0  0  0  0  0  0  0  0  0  0  0
   60.7880   33.9450   48.0840 C   0  0  0  0  0  0  0  0  0  0  0  0
   61.2220   34.2200   49.3830 C   0  0  0  0  0  0  0  0  0  0  0  0
   60.4610   33.8040   50.4790 C   0  0  0  0  0  0  0  0  0  0  0  0
   59.2630   33.1140   50.2770 C   0  0  0  0  0  0  0  0  0  0  0  0
   58.8250   32.8370   48.9780 C   0  0  0  0  0  0  0  0  0  0  0  0
   58.4390   31.7550   46.1790 C   0  0  0  0  0  0  0  0  0  0  0  0
   58.2660   30.7810   47.1680 O   0  0  0  0  0  0  0  0  0  0  0  0
   59.2960   29.8580   47.5020 C   0  0  0  0  0  0  0  0  0  0  0  0
   57.9330   31.5440   44.8690 C   0  0  0  0  0  0  0  0  0  0  0  0
   57.5175   27.6484   46.4420 H   0  0  0  0  0  0  0  0  0  0  0  0
   56.6417   27.4363   44.8880 H   0  0  0  0  0  0  0  0  0  0  0  0
   58.3481   27.9975   44.8880 H   0  0  0  0  0  0  0  0  0  0  0  0
   56.1796   29.3165   42.9187 H   0  0  0  0  0  0  0  0  0  0  0  0
   56.6255   31.0568   41.2051 H   0  0  0  0  0  0  0  0  0  0  0  0
   57.8944   33.1111   41.8022 H   0  0  0  0  0  0  0  0  0  0  0  0
   59.0834   34.4406   43.4105 H   0  0  0  0  0  0  0  0  0  0  0  0
   59.9117   34.8203   45.7182 H   0  0  0  0  0  0  0  0  0  0  0  0
   61.3881   34.2786   47.2246 H   0  0  0  0  0  0  0  0  0  0  0  0
   62.1641   34.7648   49.5435 H   0  0  0  0  0  0  0  0  0  0  0  0
   60.8054   34.0199   51.5011 H   0  0  0  0  0  0  0  0  0  0  0  0
   58.6639   32.7884   51.1402 H   0  0  0  0  0  0  0  0  0  0  0  0
   57.8787   32.2980   48.8229 H   0  0  0  0  0  0  0  0  0  0  0  0
   59.3801   29.7826   48.5962 H   0  0  0  0  0  0  0  0  0  0  0  0
   59.0527   28.8700   47.0840 H   0  0  0  0  0  0  0  0  0  0  0  0
   60.2515   30.2078   47.0840 H   0  0  0  0  0  0  0  0  0  0  0  0
  1  2  1  0
  2  3  1  0
  3  4  2  0
  4  5  1  0
  5  6  2  0
  6  7  1  0
  7  8  2  0
  8  9  1  0
  9 10  2  0
 10 11  1  0
 11 12  2  0
 12 13  1  0
 13 14  2  0
 14 15  1  0
 15 16  2  0
 10 17  1  0
 17 18  1  0
 18 19  1  0
 17 20  2  0
 20  3  1  0
 20  7  1  0
 16 11  1  0
  1 21  1  0
  1 22  1  0
  1 23  1  0
  4 24  1  0
  5 25  1  0
  6 26  1  0
  8 27  1  0
  9 28  1  0
 12 29  1  0
 13 30  1  0
 14 31  1  0
 15 32  1  0
 16 33  1  0
 19 34  1  0
 19 35  1  0
 19 36  1  0
M  END
>  <UniqueID>  (18) 
18

>  <SMILES>  (18) 
COc1cccc2ccc(-c3ccccc3)c(OC)c12

>  <Energy>  (18) 
55.789724342587824

>  <Genealogy>  (18) 
COc1cccc2ccc(-c3ccccc3)c(OC)c12 (3D coordinates assigned)
COc1cccc2ccc(-c3ccccc3)c(OC)c12 (optimized conformer: 55.789724342587824 kcal/mol)

>  <smiles>  (18) 
COc1cccc2ccc(-c3ccccc3)c(OC)c12

>  <score_type>  (18) 
oracle

>  <origin>  (18) 
adg

>  <m_score__min__energy>  (18) 
-6.9699999999999998

>  <m_primary>  (18) 
energy

$$$$
18:0
     RDKit          3D

 66 70  0  0  0  0  0  0  0  0999 V2000
   62.8290   33.6460   49.8690 C   0  0  0  0  0  0  0  0  0  0  0  0
   61.7040   34.2500   49.0270 C   0  0  0  0  0  0  0  0  0  0  0  0
   61.4730   33.4820   47.7830 N   0  0  0  0  0  0  0  0  0  0  0  0
   62.5250   32.4930   47.4430 C   0  0  0  0  0  0  0  0  0  0  0  0
   63.7680   33.0930   46.7670 C   0  0  0  0  0  0  0  0  0  0  0  0
   60.9270   34.2390   46.6300 C   0  0  0  0  0  0  0  0  0  0  0  0
   59.7740   35.2010   46.9720 C   0  0  0  0  0  0  0  0  0  0  0  0
   58.6290   34.9300   46.1830 O   0  0  0  0  0  0  0  0  0  0  0  0
   58.9800   34.5520   44.8650 C   0  0  0  0  0  0  0  0  0  0  0  0
   58.4480   33.1530   44.5550 C   0  0  0  0  0  0  0  0  0  0  0  0
   57.7290   32.6160   45.7080 N   0  0  0  0  0  0  0  0  0  0  0  0
   58.1690   31.4030   46.3390 C   0  0  0  0  0  0  0  0  0  0  0  0
   58.5910   31.4200   47.6790 C   0  0  0  0  0  0  0  0  0  0  0  0
   58.5570   32.6090   48.4360 C   0  0  0  0  0  0  0  0  0  0  0  0
   58.9450   32.6120   49.7730 C   0  0  0  0  0  0  0  0  0  0  0  0
   59.3680   31.4340   50.3780 C   0  0  0  0  0  0  0  0  0  0  0  0
   59.4310   30.2500   49.6420 C   0  0  0  0  0  0  0  0  0  0  0  0
   59.0750   30.2240   48.2700 C   0  0  0  0  0  0  0  0  0  0  0  0
   59.1880   29.0730   47.5160 N   0  0  0  0  0  0  0  0  0  0  0  0
   60.0860   27.9940   47.9830 C   0  0  0  0  0  0  0  0  0  0  0  0
   58.5570   28.9870   46.2840 C   0  0  0  0  0  0  0  0  0  0  0  0
   58.1170   30.1800   45.6440 C   0  0  0  0  0  0  0  0  0  0  0  0
   57.6030   30.1280   44.3320 C   0  0  0  0  0  0  0  0  0  0  0  0
   57.4460   28.9150   43.6730 C   0  0  0  0  0  0  0  0  0  0  0  0
   57.7560   27.7250   44.3220 C   0  0  0  0  0  0  0  0  0  0  0  0
   57.4970   26.5380   43.7100 N   0  0  0  0  0  0  0  0  0  0  0  0
   57.7290   25.3570   44.3360 C   0  0  0  0  0  0  0  0  0  0  0  0
   57.4520   24.1430   43.6980 C   0  0  0  0  0  0  0  0  0  0  0  0
   57.6840   22.9360   44.3690 C   0  0  0  0  0  0  0  0  0  0  0  0
   58.1920   22.9420   45.6740 C   0  0  0  0  0  0  0  0  0  0  0  0
   58.4680   24.1540   46.3160 C   0  0  0  0  0  0  0  0  0  0  0  0
   58.2370   25.3620   45.6490 C   0  0  0  0  0  0  0  0  0  0  0  0
   58.4970   26.5490   46.2550 N   0  0  0  0  0  0  0  0  0  0  0  0
   58.3010   27.7440   45.6290 C   0  0  0  0  0  0  0  0  0  0  0  0
   62.5957   33.7713   50.9366 H   0  0  0  0  0  0  0  0  0  0  0  0
   62.9254   32.5749   49.6380 H   0  0  0  0  0  0  0  0  0  0  0  0
   63.7750   34.1575   49.6380 H   0  0  0  0  0  0  0  0  0  0  0  0
   60.7778   34.2529   49.6204 H   0  0  0  0  0  0  0  0  0  0  0  0
   61.9985   35.2722   48.7471 H   0  0  0  0  0  0  0  0  0  0  0  0
   62.8442   31.9977   48.3718 H   0  0  0  0  0  0  0  0  0  0  0  0
   62.0784   31.7978   46.7169 H   0  0  0  0  0  0  0  0  0  0  0  0
   64.4754   33.4344   47.5371 H   0  0  0  0  0  0  0  0  0  0  0  0
   64.2496   32.3282   46.1400 H   0  0  0  0  0  0  0  0  0  0  0  0
   63.4687   33.9458   46.1400 H   0  0  0  0  0  0  0  0  0  0  0  0
   61.7449   34.8288   46.1906 H   0  0  0  0  0  0  0  0  0  0  0  0
   60.5095   33.4908   45.9401 H   0  0  0  0  0  0  0  0  0  0  0  0
   59.5132   35.0851   48.0343 H   0  0  0  0  0  0  0  0  0  0  0  0
   60.1050   36.2291   46.7636 H   0  0  0  0  0  0  0  0  0  0  0  0
   58.5469   35.2708   44.1538 H   0  0  0  0  0  0  0  0  0  0  0  0
   60.0762   34.5462   44.7743 H   0  0  0  0  0  0  0  0  0  0  0  0
   57.7648   33.2072   43.6946 H   0  0  0  0  0  0  0  0  0  0  0  0
   59.2957   32.4916   44.3226 H   0  0  0  0  0  0  0  0  0  0  0  0
   57.1520   33.2760   46.2770 H   0  0  0  0  0  0  0  0  0  0  0  0
   58.2203   33.5443   47.9651 H   0  0  0  0  0  0  0  0  0  0  0  0
   58.9168   33.5473   50.3512 H   0  0  0  0  0  0  0  0  0  0  0  0
   59.6539   31.4352   51.4402 H   0  0  0  0  0  0  0  0  0  0  0  0
   59.7618   29.3233   50.1337 H   0  0  0  0  0  0  0  0  0  0  0  0
   60.0991   27.9782   49.0828 H   0  0  0  0  0  0  0  0  0  0  0  0
   59.7229   27.0262   47.6067 H   0  0  0  0  0  0  0  0  0  0  0  0
   61.1036   28.1753   47.6067 H   0  0  0  0  0  0  0  0  0  0  0  0
   57.3222   31.0617   43.8227 H   0  0  0  0  0  0  0  0  0  0  0  0
   57.0762   28.8960   42.6372 H   0  0  0  0  0  0  0  0  0  0  0  0
   57.0533   24.1367   42.6728 H   0  0  0  0  0  0  0  0  0  0  0  0
   57.4666   21.9803   43.8696 H   0  0  0  0  0  0  0  0  0  0  0  0
   58.3746   21.9910   46.1958 H   0  0  0  0  0  0  0  0  0  0  0  0
   58.8653   24.1572   47.3417 H   0  0  0  0  0  0  0  0  0  0  0  0
  1  2  1  0
  2  3  1  0
  3  4  1  0
  4  5  1  0
  3  6  1  0
  6  7  1  0
  7  8  1  0
  8  9  1  0
  9 10  1  0
 10 11  1  0
 11 12  1  0
 12 13  2  0
 13 14  1  0
 14 15  2  0
 15 16  1  0
 16 17  2  0
 17 18  1  0
 18 19  2  0
 19 20  1  0
 19 21  1  0
 21 22  2  0
 22 23  1  0
 23 24  2  0
 24 25  1  0
 25 26  2  0
 26 27  1  0
 27 28  2  0
 28 29  1  0
 29 30  2  0
 30 31  1  0
 31 32  2  0
 32 33  1  0
 33 34  2  0
 22 12  1  0
 34 25  1  0
 18 13  1  0
 34 21  1  0
 32 27  1  0
  1 35  1  0
  1 36  1  0
  1 37  1  0
  2 38  1  0
  2 39  1  0
  4 40  1  0
  4 41  1  0
  5 42  1  0
  5 43  1  0
  5 44  1  0
  6 45  1  0
  6 46  1  0
  7 47  1  0
  7 48  1  0
  9 49  1  0
  9 50  1  0
 10 51  1  0
 10 52  1  0
 11 53  1  0
 14 54  1  0
 15 55  1  0
 16 56  1  0
 17 57  1  0
 20 58  1  0
 20 59  1  0
 20 60  1  0
 23 61  1  0
 24 62  1  0
 28 63  1  0
 29 64  1  0
 30 65  1  0
 31 66  1  0
M  CHG  1  19   1
M  END
>  <UniqueID>  (19) 
19

>  <SMILES>  (19) 
CCN(CC)CCOCCNc1c2ccccc2[n+](C)c2c1ccc1nc3ccccc3nc12

>  <Energy>  (19) 
117.04390722934222

>  <Genealogy>  (19) 
CCN(CC)CCOCCNc1c2ccccc2[n+](C)c2c1ccc1nc3ccccc3nc12 (3D coordinates assigned)
CCN(CC)CCOCCNc1c2ccccc2[n+](C)c2c1ccc1nc3ccccc3nc12 (optimized conformer: 117.04390722934222 kcal/mol)

>  <smiles>  (19) 
CCN(CC)CCOCCNc1c2ccccc2[n+](C)c2c1ccc1nc3ccccc3nc12

>  <score_type>  (19) 
oracle

>  <origin>  (19) 
adg

>  <m_score__min__energy>  (19) 
-7.0300000000000002

>  <m_primary>  (19) 
energy

$$$$
19:0
     RDKit          3D

 56 57  0  0  0  0  0  0  0  0999 V2000
   57.4260   34.0630   44.8950 C   0  0  0  0  0  0  0  0  0  0  0  0
   57.9390   34.0770   46.3300 C   0  0  0  0  0  0  0  0  0  0  0  0
   57.8360   32.7000   47.0190 C   0  0  0  0  0  0  0  0  0  0  0  0
   59.1120   31.9590   47.0640 N   0  0  0  0  0  0  0  0  0  0  0  0
   60.3160   32.5520   46.4400 C   0  0  0  0  0  0  0  0  0  0  0  0
   61.3020   33.0860   47.4990 C   0  0  0  0  0  0  0  0  0  0  0  0
   60.7220   34.3000   48.2400 C   0  0  0  0  0  0  0  0  0  0  0  0
   62.6370   33.4690   46.8480 C   0  0  0  0  0  0  0  0  0  0  0  0
   59.2960   31.0490   48.1700 C   0  0  0  0  0  0  0  0  0  0  0  0
   59.4000   31.5590   49.4800 C   0  0  0  0  0  0  0  0  0  0  0  0
   59.5940   30.7070   50.5670 C   0  0  0  0  0  0  0  0  0  0  0  0
   59.6680   29.3300   50.3700 C   0  0  0  0  0  0  0  0  0  0  0  0
   59.5280   28.8010   49.0870 C   0  0  0  0  0  0  0  0  0  0  0  0
   59.3260   29.6450   47.9820 C   0  0  0  0  0  0  0  0  0  0  0  0
   59.1260   29.0510   46.6900 N   0  0  0  0  0  0  0  0  0  0  0  0
   60.0460   29.4010   45.6030 C   0  0  0  0  0  0  0  0  0  0  0  0
   59.2600   30.1050   44.4950 C   0  0  0  0  0  0  0  0  0  0  0  0
   58.1670   29.2560   43.9480 N   0  0  0  0  0  0  0  0  0  0  0  0
   56.8270   30.2560   43.4280 S   0  0  0  0  0  0  0  0  0  0  0  0
   57.4270   31.6590   42.5090 C   0  0  0  0  0  0  0  0  0  0  0  0
   55.9180   29.4580   42.5350 O   0  0  0  0  0  0  0  0  0  0  0  0
   56.0480   30.7410   44.6180 O   0  0  0  0  0  0  0  0  0  0  0  0
   57.6980   28.1790   44.8590 C   0  0  0  0  0  0  0  0  0  0  0  0
   57.7890   28.5560   46.3470 C   0  0  0  0  0  0  0  0  0  0  0  0
   56.3264   34.0330   44.8990 H   0  0  0  0  0  0  0  0  0  0  0  0
   57.7662   34.9708   44.3751 H   0  0  0  0  0  0  0  0  0  0  0  0
   57.8152   33.1751   44.3751 H   0  0  0  0  0  0  0  0  0  0  0  0
   58.9943   34.3874   46.3223 H   0  0  0  0  0  0  0  0  0  0  0  0
   57.3098   34.7779   46.8982 H   0  0  0  0  0  0  0  0  0  0  0  0
   57.4878   32.8538   48.0510 H   0  0  0  0  0  0  0  0  0  0  0  0
   57.1356   32.0957   46.4238 H   0  0  0  0  0  0  0  0  0  0  0  0
   60.8214   31.7825   45.8380 H   0  0  0  0  0  0  0  0  0  0  0  0
   59.9965   33.3965   45.8117 H   0  0  0  0  0  0  0  0  0  0  0  0
   61.4721   32.2806   48.2287 H   0  0  0  0  0  0  0  0  0  0  0  0
   60.7992   34.1384   49.3253 H   0  0  0  0  0  0  0  0  0  0  0  0
   61.2861   35.2027   47.9627 H   0  0  0  0  0  0  0  0  0  0  0  0
   59.6653   34.4283   47.9627 H   0  0  0  0  0  0  0  0  0  0  0  0
   63.3792   33.6819   47.6314 H   0  0  0  0  0  0  0  0  0  0  0  0
   62.9923   32.6365   46.2229 H   0  0  0  0  0  0  0  0  0  0  0  0
   62.4969   34.3632   46.2229 H   0  0  0  0  0  0  0  0  0  0  0  0
   59.3272   32.6438   49.6472 H   0  0  0  0  0  0  0  0  0  0  0  0
   59.6887   31.1228   51.5810 H   0  0  0  0  0  0  0  0  0  0  0  0
   59.8368   28.6600   51.2260 H   0  0  0  0  0  0  0  0  0  0  0  0
   59.5762   27.7121   48.9388 H   0  0  0  0  0  0  0  0  0  0  0  0
   60.8291   30.0729   45.9841 H   0  0  0  0  0  0  0  0  0  0  0  0
   60.5160   28.4896   45.2049 H   0  0  0  0  0  0  0  0  0  0  0  0
   58.8204   31.0265   44.9044 H   0  0  0  0  0  0  0  0  0  0  0  0
   59.9590   30.3223   43.6739 H   0  0  0  0  0  0  0  0  0  0  0  0
   58.5300   28.7920   43.0830 H   0  0  0  0  0  0  0  0  0  0  0  0
   57.7609   32.4398   43.2082 H   0  0  0  0  0  0  0  0  0  0  0  0
   58.2711   31.3487   41.8756 H   0  0  0  0  0  0  0  0  0  0  0  0
   56.6195   32.0550   41.8756 H   0  0  0  0  0  0  0  0  0  0  0  0
   56.6484   27.9526   44.6201 H   0  0  0  0  0  0  0  0  0  0  0  0
   58.3561   27.3116   44.7027 H   0  0  0  0  0  0  0  0  0  0  0  0
   57.0497   29.3411   46.5637 H   0  0  0  0  0  0  0  0  0  0  0  0
   57.5875   27.6559   46.9463 H   0  0  0  0  0  0  0  0  0  0  0  0
  1  2  1  0
  2  3  1  0
  3  4  1  0
  4  5  1  0
  5  6  1  0
  6  7  1  0
  6  8  1  0
  4  9  1  0
  9 10  2  0
 10 11  1  0
 11 12  2  0
 12 13  1  0
 13 14  2  0
 14 15  1  0
 15 16  1  0
 16 17  1  0
 17 18  1  0
 18 19  1  0
 19 20  1  0
 19 21  2  0
 19 22  2  0
 18 23  1  0
 23 24  1  0
 14  9  1  0
 24 15  1  0
  1 25  1  0
  1 26  1  0
  1 27  1  0
  2 28  1  0
  2 29  1  0
  3 30  1  0
  3 31  1  0
  5 32  1  0
  5 33  1  0
  6 34  1  0
  7 35  1  0
  7 36  1  0
  7 37  1  0
  8 38  1  0
  8 39  1  0
  8 40  1  0
 10 41  1  0
 11 42  1  0
 12 43  1  0
 13 44  1  0
 16 45  1  0
 16 46  1  0
 17 47  1  0
 17 48  1  0
 18 49  1  0
 20 50  1  0
 20 51  1  0
 20 52  1  0
 23 53  1  0
 23 54  1  0
 24 55  1  0
 24 56  1  0
M  CHG  1  18   1
M  END
>  <UniqueID>  (20) 
20

>  <SMILES>  (20) 
CCCN(CC(C)C)c1ccccc1N1CC[NH+](S(C)(=O)=O)CC1

>  <Energy>  (20) 
58.31509567998112

>  <Genealogy>  (20) 
CCCN(CC(C)C)c1ccccc1N1CC[NH+](S(C)(=O)=O)CC1 (protonated)
CCCN(CC(C)C)c1ccccc1N1CC[NH+](S(C)(=O)=O)CC1 (3D coordinates assigned)
CCCN(CC(C)C)c1ccccc1N1CC[NH+](S(C)(=O)=O)CC1 (nonaromatic ring conformer: 58.31509567998112 kcal/mol)

>  <smiles>  (20) 
CCCN(CC(C)C)c1ccccc1N1CCN(S(C)(=O)=O)CC1

>  <score_type>  (20) 
oracle

>  <origin>  (20) 
adg

>  <m_score__min__energy>  (20) 
-6.2800000000000002

>  <m_primary>  (20) 
energy

$$$$
20:0
     RDKit          3D

 67 69  0  0  0  0  0  0  0  0999 V2000
   57.0385   35.5009   45.0628 H   0  0  0  0  0  0  0  0  0  0  0  0
   57.5960   34.5820   45.2970 C   0  0  0  0  0  0  0  0  0  0  0  0
   58.8480   34.6600   45.8980 C   0  0  0  0  0  0  0  0  0  0  0  0
   59.2948   35.6437   46.1047 H   0  0  0  0  0  0  0  0  0  0  0  0
   59.5420   33.4960   46.2410 C   0  0  0  0  0  0  0  0  0  0  0  0
   60.5430   33.5757   46.6901 H   0  0  0  0  0  0  0  0  0  0  0  0
   58.9780   32.2160   46.0200 C   0  0  0  0  0  0  0  0  0  0  0  0
   59.5990   30.9740   46.3870 C   0  0  0  0  0  0  0  0  0  0  0  0
   60.5800   30.8520   47.2480 N   0  0  0  0  0  0  0  0  0  0  0  0
   61.8380   31.5710   47.4230 C   0  0  0  0  0  0  0  0  0  0  0  0
   62.6798   30.8804   47.2669 H   0  0  0  0  0  0  0  0  0  0  0  0
   61.8962   32.3912   46.6923 H   0  0  0  0  0  0  0  0  0  0  0  0
   61.9050   32.1450   48.8410 C   0  0  0  0  0  0  0  0  0  0  0  0
   61.3399   31.4876   49.5181 H   0  0  0  0  0  0  0  0  0  0  0  0
   62.9630   32.2023   49.1367 H   0  0  0  0  0  0  0  0  0  0  0  0
   61.3120   33.5610   48.9130 C   0  0  0  0  0  0  0  0  0  0  0  0
   62.0879   34.2578   49.2629 H   0  0  0  0  0  0  0  0  0  0  0  0
   60.9615   33.8437   47.9094 H   0  0  0  0  0  0  0  0  0  0  0  0
   60.1190   33.6140   49.8780 C   0  0  0  0  0  0  0  0  0  0  0  0
   60.4579   33.2921   50.8738 H   0  0  0  0  0  0  0  0  0  0  0  0
   59.7472   34.6492   49.8883 H   0  0  0  0  0  0  0  0  0  0  0  0
   58.9550   32.7080   49.4380 C   0  0  0  0  0  0  0  0  0  0  0  0
   58.0153   33.2601   49.5869 H   0  0  0  0  0  0  0  0  0  0  0  0
   59.1418   32.4499   48.3852 H   0  0  0  0  0  0  0  0  0  0  0  0
   58.8550   31.3730   50.2040 C   0  0  0  0  0  0  0  0  0  0  0  0
   59.5465   31.4048   51.0589 H   0  0  0  0  0  0  0  0  0  0  0  0
   57.8113   31.2538   50.5302 H   0  0  0  0  0  0  0  0  0  0  0  0
   59.1930   30.2190   49.3710 N   0  0  0  0  0  0  0  0  0  0  0  0
   58.7900   30.3500   48.4150 H   0  0  0  0  0  0  0  0  0  0  0  0
   60.2320   30.1500   49.2850 H   0  0  0  0  0  0  0  0  0  0  0  0
   59.0490   29.7670   45.8800 C   0  0  0  0  0  0  0  0  0  0  0  0
   59.6540   28.5130   46.1200 C   0  0  0  0  0  0  0  0  0  0  0  0
   60.5969   28.4636   46.6844 H   0  0  0  0  0  0  0  0  0  0  0  0
   59.0690   27.3350   45.6490 C   0  0  0  0  0  0  0  0  0  0  0  0
   59.5601   26.3686   45.8359 H   0  0  0  0  0  0  0  0  0  0  0  0
   57.8590   27.3760   44.9390 C   0  0  0  0  0  0  0  0  0  0  0  0
   57.2270   26.1520   44.5010 N   0  0  0  0  0  0  0  0  0  0  0  0
   57.2170   26.1350   43.4560 H   0  0  0  0  0  0  0  0  0  0  0  0
   56.2300   26.1110   44.8180 H   0  0  0  0  0  0  0  0  0  0  0  0
   57.9530   24.9630   44.9780 C   0  0  0  0  0  0  0  0  0  0  0  0
   58.4714   25.2184   45.9140 H   0  0  0  0  0  0  0  0  0  0  0  0
   58.6615   24.6663   44.1906 H   0  0  0  0  0  0  0  0  0  0  0  0
   57.0170   23.7640   45.2420 C   0  0  0  0  0  0  0  0  0  0  0  0
   56.9495   23.5995   46.3275 H   0  0  0  0  0  0  0  0  0  0  0  0
   57.4390   22.8868   44.7298 H   0  0  0  0  0  0  0  0  0  0  0  0
   55.6510   23.9910   44.7070 N   0  0  0  0  0  0  0  0  0  0  0  0
   55.4050   23.3610   43.3850 C   0  0  0  0  0  0  0  0  0  0  0  0
   55.3016   24.1598   42.6358 H   0  0  0  0  0  0  0  0  0  0  0  0
   54.4935   22.7539   43.4882 H   0  0  0  0  0  0  0  0  0  0  0  0
   56.5200   22.4100   42.9250 C   0  0  0  0  0  0  0  0  0  0  0  0
   57.0225   21.9814   43.8047 H   0  0  0  0  0  0  0  0  0  0  0  0
   56.0852   21.6004   42.3204 H   0  0  0  0  0  0  0  0  0  0  0  0
   57.2509   22.9671   42.3204 H   0  0  0  0  0  0  0  0  0  0  0  0
   54.6170   23.6130   45.6980 C   0  0  0  0  0  0  0  0  0  0  0  0
   54.5935   22.5177   45.7970 H   0  0  0  0  0  0  0  0  0  0  0  0
   54.8645   24.0755   46.6649 H   0  0  0  0  0  0  0  0  0  0  0  0
   53.2430   24.1070   45.2510 C   0  0  0  0  0  0  0  0  0  0  0  0
   52.6274   24.3283   46.1353 H   0  0  0  0  0  0  0  0  0  0  0  0
   53.3598   25.0194   44.6478 H   0  0  0  0  0  0  0  0  0  0  0  0
   52.7520   23.3291   44.6478 H   0  0  0  0  0  0  0  0  0  0  0  0
   57.2490   28.6170   44.6990 C   0  0  0  0  0  0  0  0  0  0  0  0
   56.2997   28.6594   44.1449 H   0  0  0  0  0  0  0  0  0  0  0  0
   57.8370   29.8010   45.1580 C   0  0  0  0  0  0  0  0  0  0  0  0
   57.2180   30.9800   44.9250 N   0  0  0  0  0  0  0  0  0  0  0  0
   57.7390   32.1650   45.3200 C   0  0  0  0  0  0  0  0  0  0  0  0
   57.0510   33.3390   44.9930 C   0  0  0  0  0  0  0  0  0  0  0  0
   56.0733   33.2783   44.4925 H   0  0  0  0  0  0  0  0  0  0  0  0
  1  2  1  0
  2  3  2  0
  3  4  1  0
  3  5  1  0
  5  6  1  0
  5  7  2  0
  7  8  1  0
  8  9  2  0
  9 10  1  0
 10 11  1  0
 10 12  1  0
 10 13  1  0
 13 14  1  0
 13 15  1  0
 13 16  1  0
 16 17  1  0
 16 18  1  0
 16 19  1  0
 19 20  1  0
 19 21  1  0
 19 22  1  0
 22 23  1  0
 22 24  1  0
 22 25  1  0
 25 26  1  0
 25 27  1  0
 25 28  1  0
 28 29  1  0
 28 30  1  0
  8 31  1  0
 31 32  2  0
 32 33  1  0
 32 34  1  0
 34 35  1  0
 34 36  2  0
 36 37  1  0
 37 38  1  0
 37 39  1  0
 37 40  1  0
 40 41  1  0
 40 42  1  0
 40 43  1  0
 43 44  1  0
 43 45  1  0
 43 46  1  0
 46 47  1  0
 47 48  1  0
 47 49  1  0
 47 50  1  0
 50 51  1  0
 50 52  1  0
 50 53  1  0
 46 54  1  0
 54 55  1  0
 54 56  1  0
 54 57  1  0
 57 58  1  0
 57 59  1  0
 57 60  1  0
 36 61  1  0
 61 62  1  0
 61 63  2  0
 63 64  1  0
 64 65  1  0
 65 66  2  0
 66 67  1  0
 66  2  1  0
 65  7  1  0
 63 31  1  0
M  CHG  2  37   1  64  -1
M  END
>  <UniqueID>  (21) 
21

>  <SMILES>  (21) 
CCN(CC)CC[NH2+]c1ccc2/c(=N/CCCCCCN)c3ccccc3[n-]c2c1

>  <Energy>  (21) 
83.09371366444265

>  <Genealogy>  (21) 
CCN(CC)CC[NH2+]c1ccc2c(=NCCCCCCN)c3ccccc3[n-]c2c1 (protonated)
CCN(CC)CC[NH2+]c1ccc2/c(=N/CCCCCCN)c3ccccc3[n-]c2c1 (cis-trans isomerization)
CCN(CC)CC[NH2+]c1ccc2/c(=N/CCCCCCN)c3ccccc3[n-]c2c1 (3D coordinates assigned)
CCN(CC)CC[NH2+]c1ccc2/c(=N/CCCCCCN)c3ccccc3[n-]c2c1 (optimized conformer: 83.09371366444265 kcal/mol)

>  <smiles>  (21) 
CCN(CC)CCNc1ccc2c(=NCCCCCCN)c3ccccc3[nH]c2c1

>  <score_type>  (21) 
oracle

>  <origin>  (21) 
adg

>  <m_score__min__energy>  (21) 
-7.0499999999999998

>  <m_primary>  (21) 
energy

$$$$
21:0
     RDKit          3D

 55 58  0  0  0  0  0  0  0  0999 V2000
   59.3840   30.9870   48.4370 C   0  0  0  0  0  0  0  0  0  0  0  0
   60.4480   30.0860   47.8220 C   0  0  0  0  0  0  0  0  0  0  0  0
   60.5400   30.3170   46.4280 O   0  0  0  0  0  0  0  0  0  0  0  0
   59.9850   29.2440   45.6830 C   0  0  1  0  0  0  0  0  0  0  0  0
   59.4240   28.2060   46.6570 C   0  0  0  0  0  0  0  0  0  0  0  0
   58.8430   27.0510   45.8960 C   0  0  0  0  0  0  0  0  0  0  0  0
   58.9130   25.7530   46.4280 C   0  0  0  0  0  0  0  0  0  0  0  0
   58.3790   24.6750   45.7220 C   0  0  0  0  0  0  0  0  0  0  0  0
   57.7710   24.8830   44.4840 C   0  0  0  0  0  0  0  0  0  0  0  0
   57.6800   26.1730   43.9540 C   0  0  0  0  0  0  0  0  0  0  0  0
   58.1980   27.2770   44.6620 C   0  0  0  0  0  0  0  0  0  0  0  0
   58.0890   28.6270   44.1400 N   0  0  0  0  0  0  0  0  0  0  0  0
   57.0680   28.9430   43.1220 C   0  0  0  0  0  0  0  0  0  0  0  0
   56.7540   30.4440   43.0700 C   0  0  0  0  0  0  0  0  0  0  0  0
   56.6320   31.0020   44.4920 C   0  0  0  0  0  0  0  0  0  0  0  0
   57.9290   30.8110   45.3210 C   0  0  2  0  0  0  0  0  0  0  0  0
   58.6200   32.0980   45.4530 N   0  0  0  0  0  0  0  0  0  0  0  0
   57.9240   33.3140   45.7630 C   0  0  0  0  0  0  0  0  0  0  0  0
   56.6620   33.3330   45.7930 O   0  0  0  0  0  0  0  0  0  0  0  0
   58.6930   34.5810   46.0040 C   0  0  0  0  0  0  0  0  0  0  0  0
   59.8790   34.3320   46.9000 C   0  0  0  0  0  0  0  0  0  0  0  0
   59.7550   34.4460   48.2950 C   0  0  0  0  0  0  0  0  0  0  0  0
   60.8540   34.1950   49.1230 C   0  0  0  0  0  0  0  0  0  0  0  0
   62.0810   33.8200   48.5650 C   0  0  0  0  0  0  0  0  0  0  0  0
   62.2080   33.6910   47.1790 C   0  0  0  0  0  0  0  0  0  0  0  0
   61.1130   33.9420   46.3490 C   0  0  0  0  0  0  0  0  0  0  0  0
   58.8830   29.7430   44.7030 C   0  0  1  0  0  0  0  0  0  0  0  0
   59.4474   30.9333   49.5339 H   0  0  0  0  0  0  0  0  0  0  0  0
   59.5487   32.0245   48.1105 H   0  0  0  0  0  0  0  0  0  0  0  0
   58.3879   30.6536   48.1105 H   0  0  0  0  0  0  0  0  0  0  0  0
   61.4200   30.3000   48.2904 H   0  0  0  0  0  0  0  0  0  0  0  0
   60.1708   29.0354   47.9936 H   0  0  0  0  0  0  0  0  0  0  0  0
   60.7737   28.7846   45.0690 H   0  0  0  0  0  0  0  0  0  0  0  0
   60.2326   27.8433   47.3086 H   0  0  0  0  0  0  0  0  0  0  0  0
   58.6349   28.6712   47.2661 H   0  0  0  0  0  0  0  0  0  0  0  0
   59.3906   25.5860   47.4047 H   0  0  0  0  0  0  0  0  0  0  0  0
   58.4374   23.6600   46.1419 H   0  0  0  0  0  0  0  0  0  0  0  0
   57.3621   24.0295   43.9234 H   0  0  0  0  0  0  0  0  0  0  0  0
   57.2003   26.3284   42.9764 H   0  0  0  0  0  0  0  0  0  0  0  0
   57.4379   28.6231   42.1367 H   0  0  0  0  0  0  0  0  0  0  0  0
   56.1434   28.4114   43.3914 H   0  0  0  0  0  0  0  0  0  0  0  0
   57.5639   30.9678   42.5411 H   0  0  0  0  0  0  0  0  0  0  0  0
   55.8029   30.5964   42.5388 H   0  0  0  0  0  0  0  0  0  0  0  0
   56.4083   32.0773   44.4305 H   0  0  0  0  0  0  0  0  0  0  0  0
   55.8279   30.4487   44.9992 H   0  0  0  0  0  0  0  0  0  0  0  0
   57.6377   30.4379   46.3140 H   0  0  0  0  0  0  0  0  0  0  0  0
   59.6430   32.1500   45.2370 H   0  0  0  0  0  0  0  0  0  0  0  0
   59.0471   34.9755   45.0402 H   0  0  0  0  0  0  0  0  0  0  0  0
   58.0281   35.3057   46.4967 H   0  0  0  0  0  0  0  0  0  0  0  0
   58.7899   34.7337   48.7376 H   0  0  0  0  0  0  0  0  0  0  0  0
   60.7535   34.2925   50.2140 H   0  0  0  0  0  0  0  0  0  0  0  0
   62.9456   33.6267   49.2170 H   0  0  0  0  0  0  0  0  0  0  0  0
   63.1717   33.3914   46.7413 H   0  0  0  0  0  0  0  0  0  0  0  0
   61.2162   33.8342   45.2592 H   0  0  0  0  0  0  0  0  0  0  0  0
   59.4375   30.2337   43.8895 H   0  0  0  0  0  0  0  0  0  0  0  0
  1  2  1  0
  2  3  1  0
  3  4  1  0
  4  5  1  0
  5  6  1  0
  6  7  2  0
  7  8  1  0
  8  9  2  0
  9 10  1  0
 10 11  2  0
 11 12  1  0
 12 13  1  0
 13 14  1  0
 14 15  1  0
 15 16  1  0
 16 17  1  0
 17 18  1  0
 18 19  2  0
 18 20  1  0
 20 21  1  0
 21 22  2  0
 22 23  1  0
 23 24  2  0
 24 25  1  0
 25 26  2  0
 16 27  1  0
 27  4  1  0
 11  6  1  0
 27 12  1  0
 26 21  1  0
  1 28  1  0
  1 29  1  0
  1 30  1  0
  2 31  1  0
  2 32  1  0
  4 33  1  6
  5 34  1  0
  5 35  1  0
  7 36  1  0
  8 37  1  0
  9 38  1  0
 10 39  1  0
 13 40  1  0
 13 41  1  0
 14 42  1  0
 14 43  1  0
 15 44  1  0
 15 45  1  0
 16 46  1  1
 17 47  1  0
 20 48  1  0
 20 49  1  0
 22 50  1  0
 23 51  1  0
 24 52  1  0
 25 53  1  0
 26 54  1  0
 27 55  1  6
M  END
>  <UniqueID>  (22) 
22

>  <SMILES>  (22) 
CCO[C@H]1Cc2ccccc2N2CCC[C@H](NC(=O)Cc3ccccc3)C12

>  <Energy>  (22) 
62.356281183269836

>  <Genealogy>  (22) 
CCO[C@H]1Cc2ccccc2N2CCC[C@H](NC(=O)Cc3ccccc3)C12 (chirality)
CCO[C@H]1Cc2ccccc2N2CCC[C@H](NC(=O)Cc3ccccc3)C12 (3D coordinates assigned)
CCO[C@H]1Cc2ccccc2N2CCC[C@H](NC(=O)Cc3ccccc3)C12 (nonaromatic ring conformer: 62.356281183269836 kcal/mol)

>  <smiles>  (22) 
CCOC1Cc2ccccc2N2CCCC(NC(=O)Cc3ccccc3)C12

>  <score_type>  (22) 
oracle

>  <origin>  (22) 
adg

>  <m_score__min__energy>  (22) 
-8.5

>  <m_primary>  (22) 
energy

$$$$
22:0
     RDKit          3D

 36 37  0  0  0  0  0  0  0  0999 V2000
   58.7242   26.1129   46.8771 H   0  0  0  0  0  0  0  0  0  0  0  0
   58.1380   26.1680   45.9480 C   0  0  0  0  0  0  0  0  0  0  0  0
   56.7170   30.9350   44.5470 N   0  0  0  0  0  0  0  0  0  0  0  0
   57.5200   25.1780   43.8220 C   0  0  0  0  0  0  0  0  0  0  0  0
   58.3573   25.1433   43.1095 H   0  0  0  0  0  0  0  0  0  0  0  0
   56.9498   26.1118   43.7088 H   0  0  0  0  0  0  0  0  0  0  0  0
   56.5780   24.0000   43.5430 C   0  0  0  0  0  0  0  0  0  0  0  0
   57.0254   23.3645   42.7645 H   0  0  0  0  0  0  0  0  0  0  0  0
   55.6107   24.4092   43.2162 H   0  0  0  0  0  0  0  0  0  0  0  0
   56.3330   23.1500   44.7950 C   0  0  0  0  0  0  0  0  0  0  0  0
   57.2991   22.8546   45.2301 H   0  0  0  0  0  0  0  0  0  0  0  0
   55.7604   22.2528   44.5173 H   0  0  0  0  0  0  0  0  0  0  0  0
   55.5710   23.9230   45.7820 N   0  0  0  0  0  0  0  0  0  0  0  0
   55.9820   24.8850   45.8300 H   0  0  0  0  0  0  0  0  0  0  0  0
   54.1790   24.0630   45.3520 C   0  0  0  0  0  0  0  0  0  0  0  0
   53.5271   24.1286   46.2356 H   0  0  0  0  0  0  0  0  0  0  0  0
   54.0717   24.9765   44.7486 H   0  0  0  0  0  0  0  0  0  0  0  0
   53.8920   23.1892   44.7486 H   0  0  0  0  0  0  0  0  0  0  0  0
   57.4630   27.4230   45.5890 C   0  0  0  0  0  0  0  0  0  0  0  0
   58.2570   28.8140   45.0760 S   0  0  0  0  0  0  0  0  0  0  0  0
   56.8210   29.6870   44.8980 C   0  0  0  0  0  0  0  0  0  0  0  0
   58.0510   25.1250   45.1830 N   0  0  0  0  0  0  0  0  0  0  0  0
   57.5460   32.0200   44.9920 C   0  0  0  0  0  0  0  0  0  0  0  0
   57.7790   32.1750   46.3660 C   0  0  0  0  0  0  0  0  0  0  0  0
   57.3540   31.4522   47.0780 H   0  0  0  0  0  0  0  0  0  0  0  0
   58.5490   33.2440   46.8360 C   0  0  0  0  0  0  0  0  0  0  0  0
   58.7421   33.3501   47.9137 H   0  0  0  0  0  0  0  0  0  0  0  0
   59.0730   34.1770   45.9380 C   0  0  0  0  0  0  0  0  0  0  0  0
   59.6873   35.0112   46.3079 H   0  0  0  0  0  0  0  0  0  0  0  0
   58.8170   34.0510   44.5690 C   0  0  0  0  0  0  0  0  0  0  0  0
   59.2203   34.7926   43.8637 H   0  0  0  0  0  0  0  0  0  0  0  0
   58.0480   32.9820   44.0960 C   0  0  0  0  0  0  0  0  0  0  0  0
   57.8352   32.8933   43.0204 H   0  0  0  0  0  0  0  0  0  0  0  0
   55.7420   28.9490   45.2390 N   0  0  0  0  0  0  0  0  0  0  0  0
   56.0950   27.6920   45.6170 C   0  0  0  0  0  0  0  0  0  0  0  0
   55.1410   26.7590   46.0050 O   0  0  0  0  0  0  0  0  0  0  0  0
  1  2  1  0
  2  3  2  0
  3  4  1  0
  4  5  1  0
  4  6  1  0
  4  7  1  0
  7  8  1  0
  7  9  1  0
  7 10  1  0
 10 11  1  0
 10 12  1  0
 10 13  1  0
 13 14  1  0
 13 15  1  0
 15 16  1  0
 15 17  1  0
 15 18  1  0
  2 19  1  0
 19 20  1  0
 20 21  1  0
 21 22  2  0
 22 23  1  0
 23 24  2  0
 24 25  1  0
 24 26  1  0
 26 27  1  0
 26 28  2  0
 28 29  1  0
 28 30  1  0
 30 31  1  0
 30 32  2  0
 32 33  1  0
 21 34  1  0
 34 35  1  0
 35 36  1  0
 35 19  2  0
 32 23  1  0
M  CHG  2  34  -1  36  -1
M  END
>  <UniqueID>  (23) 
23

>  <SMILES>  (23) 
CNCCC/N=C/c1s/c(=N\c2ccccc2)[n-]c1[O-]

>  <Energy>  (23) 
65.48821005906545

>  <Genealogy>  (23) 
CNCCCN=Cc1sc(=Nc2ccccc2)[n-]c1[O-] (protonated)
CNCCC/N=C/c1s/c(=N\c2ccccc2)[n-]c1[O-] (cis-trans isomerization)
CNCCC/N=C/c1s/c(=N\c2ccccc2)[n-]c1[O-] (3D coordinates assigned)
CNCCC/N=C/c1s/c(=N\c2ccccc2)[n-]c1[O-] (optimized conformer: 65.48821005906545 kcal/mol)

>  <smiles>  (23) 
CNCCCN=Cc1sc(=Nc2ccccc2)[nH]c1O

>  <score_type>  (23) 
oracle

>  <origin>  (23) 
adg

>  <m_score__min__energy>  (23) 
-12.699999999999999

>  <m_primary>  (23) 
energy

$$$$
23:0
     RDKit          3D

 43 44  0  0  0  0  0  0  0  0999 V2000
   56.8490   24.4330   43.7600 C   0  0  0  0  0  0  0  0  0  0  0  0
   57.7720   25.5220   44.3130 C   0  0  0  0  0  0  0  0  0  0  0  0
   57.0330   26.6750   44.8650 N   0  0  0  0  0  0  0  0  0  0  0  0
   57.6810   27.3280   46.0190 C   0  0  0  0  0  0  0  0  0  0  0  0
   57.5690   28.8610   45.9810 C   0  0  0  0  0  0  0  0  0  0  0  0
   56.4380   29.2550   45.1330 N   0  0  0  0  0  0  0  0  0  0  0  0
   56.9170   29.7240   43.8270 C   0  0  0  0  0  0  0  0  0  0  0  0
   57.2300   31.2220   43.8840 C   0  0  0  0  0  0  0  0  0  0  0  0
   57.4370   31.6670   45.2640 N   0  0  0  0  0  0  0  0  0  0  0  0
   58.2100   32.8400   45.5850 C   0  0  0  0  0  0  0  0  0  0  0  0
   58.4370   33.8150   44.5970 C   0  0  0  0  0  0  0  0  0  0  0  0
   59.1310   34.9870   44.8940 C   0  0  0  0  0  0  0  0  0  0  0  0
   59.6120   35.2130   46.1810 C   0  0  0  0  0  0  0  0  0  0  0  0
   59.4160   34.2560   47.1850 C   0  0  0  0  0  0  0  0  0  0  0  0
   59.9190   34.4840   48.4760 C   0  0  0  0  0  0  0  0  0  0  0  0
   59.7530   33.5250   49.4750 C   0  0  0  0  0  0  0  0  0  0  0  0
   59.0940   32.3290   49.1950 C   0  0  0  0  0  0  0  0  0  0  0  0
   58.5840   32.0870   47.9160 C   0  0  0  0  0  0  0  0  0  0  0  0
   58.7190   33.0510   46.8950 C   0  0  0  0  0  0  0  0  0  0  0  0
   56.3857   23.8864   44.5946 H   0  0  0  0  0  0  0  0  0  0  0  0
   56.0639   24.8958   43.1440 H   0  0  0  0  0  0  0  0  0  0  0  0
   57.4342   23.7344   43.1440 H   0  0  0  0  0  0  0  0  0  0  0  0
   58.3901   25.0861   45.1118 H   0  0  0  0  0  0  0  0  0  0  0  0
   58.3845   25.8916   43.4774 H   0  0  0  0  0  0  0  0  0  0  0  0
   56.9030   27.3810   44.1040 H   0  0  0  0  0  0  0  0  0  0  0  0
   56.0790   26.3570   45.1570 H   0  0  0  0  0  0  0  0  0  0  0  0
   57.2043   26.9642   46.9412 H   0  0  0  0  0  0  0  0  0  0  0  0
   58.7508   27.0747   45.9832 H   0  0  0  0  0  0  0  0  0  0  0  0
   57.4107   29.2412   47.0010 H   0  0  0  0  0  0  0  0  0  0  0  0
   58.4972   29.2833   45.5685 H   0  0  0  0  0  0  0  0  0  0  0  0
   55.9480   30.0530   45.6020 H   0  0  0  0  0  0  0  0  0  0  0  0
   57.8292   29.1725   43.5553 H   0  0  0  0  0  0  0  0  0  0  0  0
   56.1339   29.5498   43.0743 H   0  0  0  0  0  0  0  0  0  0  0  0
   58.1422   31.4205   43.3022 H   0  0  0  0  0  0  0  0  0  0  0  0
   56.3753   31.7730   43.4645 H   0  0  0  0  0  0  0  0  0  0  0  0
   57.0130   31.1100   46.0380 H   0  0  0  0  0  0  0  0  0  0  0  0
   58.0618   33.6505   43.5761 H   0  0  0  0  0  0  0  0  0  0  0  0
   59.2995   35.7373   44.1074 H   0  0  0  0  0  0  0  0  0  0  0  0
   60.1476   36.1461   46.4101 H   0  0  0  0  0  0  0  0  0  0  0  0
   60.4462   35.4230   48.7004 H   0  0  0  0  0  0  0  0  0  0  0  0
   60.1430   33.7129   50.4862 H   0  0  0  0  0  0  0  0  0  0  0  0
   58.9747   31.5720   49.9841 H   0  0  0  0  0  0  0  0  0  0  0  0
   58.0729   31.1363   47.7039 H   0  0  0  0  0  0  0  0  0  0  0  0
  1  2  1  0
  2  3  1  0
  3  4  1  0
  4  5  1  0
  5  6  1  0
  6  7  1  0
  7  8  1  0
  8  9  1  0
  9 10  1  0
 10 11  2  0
 11 12  1  0
 12 13  2  0
 13 14  1  0
 14 15  2  0
 15 16  1  0
 16 17  2  0
 17 18  1  0
 18 19  2  0
 19 10  1  0
 19 14  1  0
  1 20  1  0
  1 21  1  0
  1 22  1  0
  2 23  1  0
  2 24  1  0
  3 25  1  0
  3 26  1  0
  4 27  1  0
  4 28  1  0
  5 29  1  0
  5 30  1  0
  6 31  1  0
  7 32  1  0
  7 33  1  0
  8 34  1  0
  8 35  1  0
  9 36  1  0
 11 37  1  0
 12 38  1  0
 13 39  1  0
 15 40  1  0
 16 41  1  0
 17 42  1  0
 18 43  1  0
M  CHG  1   3   1
M  END
>  <UniqueID>  (24) 
24

>  <SMILES>  (24) 
CC[NH2+]CCNCCNc1cccc2ccccc12

>  <Energy>  (24) 
43.889175276744744

>  <Genealogy>  (24) 
CC[NH2+]CCNCCNc1cccc2ccccc12 (protonated)
CC[NH2+]CCNCCNc1cccc2ccccc12 (3D coordinates assigned)
CC[NH2+]CCNCCNc1cccc2ccccc12 (optimized conformer: 43.889175276744744 kcal/mol)

>  <smiles>  (24) 
CCNCCNCCNc1cccc2ccccc12

>  <score_type>  (24) 
oracle

>  <origin>  (24) 
adg

>  <m_score__min__energy>  (24) 
-5.0800000000000001

>  <m_primary>  (24) 
energy

$$$$
24:0
     RDKit          3D

 56 58  0  0  0  0  0  0  0  0999 V2000
   55.1860   29.6840   43.7540 C   0  0  0  0  0  0  0  0  0  0  0  0
   56.0610   30.5400   44.4770 O   0  0  0  0  0  0  0  0  0  0  0  0
   57.3530   30.8430   44.0360 C   0  0  0  0  0  0  0  0  0  0  0  0
   57.5300   31.5110   42.9790 O   0  0  0  0  0  0  0  0  0  0  0  0
   58.5420   30.3490   44.8110 C   0  0  2  0  0  0  0  0  0  0  0  0
   58.3690   28.8480   45.1150 C   0  0  0  0  0  0  0  0  0  0  0  0
   59.3420   28.3980   46.1090 N   0  0  0  0  0  0  0  0  0  0  0  0
   59.7320   29.1710   47.0770 C   0  0  0  0  0  0  0  0  0  0  0  0
   60.6250   28.6740   48.0710 N   0  0  0  0  0  0  0  0  0  0  0  0
   59.3170   30.5420   47.1150 N   0  0  0  0  0  0  0  0  0  0  0  0
   58.7300   31.1220   46.1070 C   0  0  0  0  0  0  0  0  0  0  0  0
   58.4410   32.5340   46.1850 N   0  0  0  0  0  0  0  0  0  0  0  0
   58.0770   33.1380   47.4700 C   0  0  0  0  0  0  0  0  0  0  0  0
   59.2580   33.9500   48.0300 C   0  0  0  0  0  0  0  0  0  0  0  0
   60.1720   34.5600   46.9260 C   0  0  0  0  0  0  0  0  0  0  0  0
   61.4490   33.7070   46.6660 C   0  0  0  0  0  0  0  0  0  0  0  0
   62.0500   33.2170   47.9320 N   0  0  0  0  0  0  0  0  0  0  0  0
   62.6720   31.8730   47.9310 C   0  0  0  0  0  0  0  0  0  0  0  0
   62.2870   30.9850   49.1350 C   0  0  0  0  0  0  0  0  0  0  0  0
   61.6440   31.7430   50.2980 C   0  0  0  0  0  0  0  0  0  0  0  0
   62.5620   32.8020   50.9250 C   0  0  0  0  0  0  0  0  0  0  0  0
   62.3530   34.1810   50.2830 C   0  0  0  0  0  0  0  0  0  0  0  0
   62.6990   34.2430   48.7840 C   0  0  0  0  0  0  0  0  0  0  0  0
   59.3650   34.7690   45.6210 C   0  0  0  0  0  0  0  0  0  0  0  0
   58.8170   33.4320   45.0830 C   0  0  0  0  0  0  0  0  0  0  0  0
   54.5833   29.0944   44.4605 H   0  0  0  0  0  0  0  0  0  0  0  0
   54.5208   30.2897   43.1210 H   0  0  0  0  0  0  0  0  0  0  0  0
   55.7769   29.0056   43.1210 H   0  0  0  0  0  0  0  0  0  0  0  0
   59.4403   30.5067   44.1961 H   0  0  0  0  0  0  0  0  0  0  0  0
   57.3538   28.6741   45.5013 H   0  0  0  0  0  0  0  0  0  0  0  0
   58.5307   28.2819   44.1858 H   0  0  0  0  0  0  0  0  0  0  0  0
   60.9600   29.3000   48.8360 H   0  0  0  0  0  0  0  0  0  0  0  0
   60.9530   27.6830   48.0440 H   0  0  0  0  0  0  0  0  0  0  0  0
   57.2137   33.8044   47.3265 H   0  0  0  0  0  0  0  0  0  0  0  0
   57.8213   32.3394   48.1820 H   0  0  0  0  0  0  0  0  0  0  0  0
   58.8567   34.7709   48.6425 H   0  0  0  0  0  0  0  0  0  0  0  0
   59.8783   33.2563   48.6165 H   0  0  0  0  0  0  0  0  0  0  0  0
   60.5218   35.5368   47.2914 H   0  0  0  0  0  0  0  0  0  0  0  0
   61.1791   32.8425   46.0417 H   0  0  0  0  0  0  0  0  0  0  0  0
   62.1891   34.3438   46.1594 H   0  0  0  0  0  0  0  0  0  0  0  0
   62.3663   31.3542   47.0105 H   0  0  0  0  0  0  0  0  0  0  0  0
   63.7584   32.0324   47.9961 H   0  0  0  0  0  0  0  0  0  0  0  0
   61.5757   30.2218   48.7863 H   0  0  0  0  0  0  0  0  0  0  0  0
   63.2230   30.5540   49.5198 H   0  0  0  0  0  0  0  0  0  0  0  0
   60.7376   32.2441   49.9275 H   0  0  0  0  0  0  0  0  0  0  0  0
   61.4230   31.0034   51.0817 H   0  0  0  0  0  0  0  0  0  0  0  0
   62.3438   32.8721   52.0009 H   0  0  0  0  0  0  0  0  0  0  0  0
   63.6053   32.4975   50.7554 H   0  0  0  0  0  0  0  0  0  0  0  0
   61.2960   34.4604   50.4041 H   0  0  0  0  0  0  0  0  0  0  0  0
   63.0400   34.8724   50.7929 H   0  0  0  0  0  0  0  0  0  0  0  0
   62.3999   35.2327   48.4086 H   0  0  0  0  0  0  0  0  0  0  0  0
   63.7797   34.0490   48.7171 H   0  0  0  0  0  0  0  0  0  0  0  0
   58.5223   35.4459   45.8250 H   0  0  0  0  0  0  0  0  0  0  0  0
   60.0351   35.2006   44.8629 H   0  0  0  0  0  0  0  0  0  0  0  0
   57.9307   33.6303   44.4624 H   0  0  0  0  0  0  0  0  0  0  0  0
   59.6037   32.9454   44.4878 H   0  0  0  0  0  0  0  0  0  0  0  0
  1  2  1  0
  2  3  1  0
  3  4  2  0
  3  5  1  0
  5  6  1  0
  6  7  1  0
  7  8  2  0
  8  9  1  0
  8 10  1  0
 10 11  2  0
 11 12  1  0
 12 13  1  0
 13 14  1  0
 14 15  1  0
 15 16  1  0
 16 17  1  0
 17 18  1  0
 18 19  1  0
 19 20  1  0
 20 21  1  0
 21 22  1  0
 22 23  1  0
 15 24  1  0
 24 25  1  0
 11  5  1  0
 25 12  1  0
 23 17  1  0
  1 26  1  0
  1 27  1  0
  1 28  1  0
  5 29  1  6
  6 30  1  0
  6 31  1  0
  9 32  1  0
  9 33  1  0
 13 34  1  0
 13 35  1  0
 14 36  1  0
 14 37  1  0
 15 38  1  0
 16 39  1  0
 16 40  1  0
 18 41  1  0
 18 42  1  0
 19 43  1  0
 19 44  1  0
 20 45  1  0
 20 46  1  0
 21 47  1  0
 21 48  1  0
 22 49  1  0
 22 50  1  0
 23 51  1  0
 23 52  1  0
 24 53  1  0
 24 54  1  0
 25 55  1  0
 25 56  1  0
M  END
>  <UniqueID>  (25) 
25

>  <SMILES>  (25) 
COC(=O)[C@@H]1CN=C(N)N=C1N1CCC(CN2CCCCCC2)CC1

>  <Energy>  (25) 
72.01685700581804

>  <Genealogy>  (25) 
COC(=O)[C@@H]1CN=C(N)N=C1N1CCC(CN2CCCCCC2)CC1 (chirality)
COC(=O)[C@@H]1CN=C(N)N=C1N1CCC(CN2CCCCCC2)CC1 (3D coordinates assigned)
COC(=O)[C@@H]1CN=C(N)N=C1N1CCC(CN2CCCCCC2)CC1 (nonaromatic ring conformer: 72.01685700581804 kcal/mol)

>  <smiles>  (25) 
COC(=O)C1CN=C(N)N=C1N1CCC(CN2CCCCCC2)CC1

>  <score_type>  (25) 
oracle

>  <origin>  (25) 
adg

>  <m_score__min__energy>  (25) 
-6.0300000000000002

>  <m_primary>  (25) 
energy

$$$$
25:0
     RDKit          3D

 33 35  0  0  0  0  0  0  0  0999 V2000
   60.0280   34.1090   48.7050 C   0  0  0  0  0  0  0  0  0  0  0  0
   59.0570   34.5260   47.7520 O   0  0  0  0  0  0  0  0  0  0  0  0
   58.6950   33.7880   46.6150 C   0  0  0  0  0  0  0  0  0  0  0  0
   58.4980   34.3870   45.3610 C   0  0  0  0  0  0  0  0  0  0  0  0
   58.1370   33.6130   44.2560 C   0  0  0  0  0  0  0  0  0  0  0  0
   57.9660   32.2190   44.3800 C   0  0  0  0  0  0  0  0  0  0  0  0
   57.6000   31.4160   43.2810 C   0  0  0  0  0  0  0  0  0  0  0  0
   57.3800   31.9660   41.9630 C   0  0  0  0  0  0  0  0  0  0  0  0
   57.2030   32.4070   40.9070 N   0  0  0  0  0  0  0  0  0  0  0  0
   57.4480   30.0380   43.4600 C   0  0  0  0  0  0  0  0  0  0  0  0
   57.6470   29.4580   44.6800 N   0  0  0  0  0  0  0  0  0  0  0  0
   57.4850   28.0300   44.7990 C   0  0  0  0  0  0  0  0  0  0  0  0
   56.9050   27.4720   45.9510 C   0  0  0  0  0  0  0  0  0  0  0  0
   56.7570   26.0860   46.0670 C   0  0  0  0  0  0  0  0  0  0  0  0
   57.1890   25.2480   45.0350 C   0  0  0  0  0  0  0  0  0  0  0  0
   57.7710   25.7930   43.8880 C   0  0  0  0  0  0  0  0  0  0  0  0
   57.9210   27.1780   43.7690 C   0  0  0  0  0  0  0  0  0  0  0  0
   57.9940   30.2170   45.7700 C   0  0  0  0  0  0  0  0  0  0  0  0
   58.1470   29.6680   46.8990 O   0  0  0  0  0  0  0  0  0  0  0  0
   58.1660   31.6110   45.6410 C   0  0  0  0  0  0  0  0  0  0  0  0
   58.5280   32.4060   46.7470 C   0  0  0  0  0  0  0  0  0  0  0  0
   59.6400   34.2756   49.7207 H   0  0  0  0  0  0  0  0  0  0  0  0
   60.2429   33.0393   48.5655 H   0  0  0  0  0  0  0  0  0  0  0  0
   60.9517   34.6898   48.5655 H   0  0  0  0  0  0  0  0  0  0  0  0
   58.6288   35.4733   45.2478 H   0  0  0  0  0  0  0  0  0  0  0  0
   57.9846   34.0957   43.2794 H   0  0  0  0  0  0  0  0  0  0  0  0
   57.1631   29.4099   42.6031 H   0  0  0  0  0  0  0  0  0  0  0  0
   56.5657   28.1286   46.7657 H   0  0  0  0  0  0  0  0  0  0  0  0
   56.3006   25.6554   46.9705 H   0  0  0  0  0  0  0  0  0  0  0  0
   57.0705   24.1582   45.1262 H   0  0  0  0  0  0  0  0  0  0  0  0
   58.1116   25.1318   43.0776 H   0  0  0  0  0  0  0  0  0  0  0  0
   58.3823   27.6031   42.8654 H   0  0  0  0  0  0  0  0  0  0  0  0
   58.6813   31.9326   47.7280 H   0  0  0  0  0  0  0  0  0  0  0  0
  1  2  1  0
  2  3  1  0
  3  4  2  0
  4  5  1  0
  5  6  2  0
  6  7  1  0
  7  8  1  0
  8  9  3  0
  7 10  2  0
 10 11  1  0
 11 12  1  0
 12 13  2  0
 13 14  1  0
 14 15  2  0
 15 16  1  0
 16 17  2  0
 11 18  1  0
 18 19  2  0
 18 20  1  0
 20 21  2  0
 21  3  1  0
 20  6  1  0
 17 12  1  0
  1 22  1  0
  1 23  1  0
  1 24  1  0
  4 25  1  0
  5 26  1  0
 10 27  1  0
 13 28  1  0
 14 29  1  0
 15 30  1  0
 16 31  1  0
 17 32  1  0
 21 33  1  0
M  END
>  <UniqueID>  (26) 
26

>  <SMILES>  (26) 
COc1ccc2c(C#N)cn(-c3ccccc3)c(=O)c2c1

>  <Energy>  (26) 
49.89545100850083

>  <Genealogy>  (26) 
COc1ccc2c(C#N)cn(-c3ccccc3)c(=O)c2c1 (3D coordinates assigned)
COc1ccc2c(C#N)cn(-c3ccccc3)c(=O)c2c1 (optimized conformer: 49.89545100850083 kcal/mol)

>  <smiles>  (26) 
COc1ccc2c(C#N)cn(-c3ccccc3)c(=O)c2c1

>  <score_type>  (26) 
oracle

>  <origin>  (26) 
adg

>  <m_score__min__energy>  (26) 
-6.75

>  <m_primary>  (26) 
energy

$$$$
26:0
     RDKit          3D

 63 65  0  0  0  0  0  0  0  0999 V2000
   61.5490   30.5610   50.9440 C   0  0  0  0  0  0  0  0  0  0  0  0
   61.6900   30.7400   49.5360 O   0  0  0  0  0  0  0  0  0  0  0  0
   62.4170   31.7820   48.9380 C   0  0  0  0  0  0  0  0  0  0  0  0
   63.7070   32.1450   49.3760 C   0  0  0  0  0  0  0  0  0  0  0  0
   64.3970   33.1890   48.7530 C   0  0  0  0  0  0  0  0  0  0  0  0
   63.8160   33.8760   47.6840 C   0  0  0  0  0  0  0  0  0  0  0  0
   62.5370   33.5280   47.2410 C   0  0  0  0  0  0  0  0  0  0  0  0
   61.8340   32.4840   47.8640 C   0  0  0  0  0  0  0  0  0  0  0  0
   60.5110   32.1490   47.4180 N   0  0  0  0  0  0  0  0  0  0  0  0
   59.4890   33.2000   47.5000 C   0  0  0  0  0  0  0  0  0  0  0  0
   58.0610   32.7300   47.1500 C   0  0  0  0  0  0  0  0  0  0  0  0
   57.9880   31.6250   46.1690 N   0  0  0  0  0  0  0  0  0  0  0  0
   58.0170   32.0000   44.7220 C   0  0  0  0  0  0  0  0  0  0  0  0
   57.5830   30.9100   43.7090 C   0  0  2  0  0  0  0  0  0  0  0  0
   57.4380   31.4990   42.4430 O   0  0  0  0  0  0  0  0  0  0  0  0
   56.2460   30.2740   44.1330 C   0  0  0  0  0  0  0  0  0  0  0  0
   56.4260   29.4060   45.2540 O   0  0  0  0  0  0  0  0  0  0  0  0
   56.8230   28.0590   45.2010 C   0  0  0  0  0  0  0  0  0  0  0  0
   56.3840   27.0960   46.1300 C   0  0  0  0  0  0  0  0  0  0  0  0
   56.7900   25.7640   46.0060 C   0  0  0  0  0  0  0  0  0  0  0  0
   57.6360   25.3740   44.9570 C   0  0  0  0  0  0  0  0  0  0  0  0
   58.0230   24.0000   44.8050 N   0  0  0  0  0  0  0  0  0  0  0  0
   59.1030   23.4480   45.6230 C   0  0  0  0  0  0  0  0  0  0  0  0
   56.9630   22.9140   43.9550 S   0  0  0  0  0  0  0  0  0  0  0  0
   57.8060   21.3910   43.5820 C   0  0  0  0  0  0  0  0  0  0  0  0
   56.4970   23.5600   42.6780 O   0  0  0  0  0  0  0  0  0  0  0  0
   55.7590   22.6140   44.8080 O   0  0  0  0  0  0  0  0  0  0  0  0
   58.0930   26.3380   44.0510 C   0  0  0  0  0  0  0  0  0  0  0  0
   57.6940   27.6700   44.1780 C   0  0  0  0  0  0  0  0  0  0  0  0
   58.8840   30.5080   46.5340 C   0  0  0  0  0  0  0  0  0  0  0  0
   60.3450   30.9270   46.6220 C   0  0  0  0  0  0  0  0  0  0  0  0
   62.1463   31.3192   51.4716 H   0  0  0  0  0  0  0  0  0  0  0  0
   60.4905   30.6686   51.2231 H   0  0  0  0  0  0  0  0  0  0  0  0
   61.9015   29.5571   51.2231 H   0  0  0  0  0  0  0  0  0  0  0  0
   64.1731   31.6037   50.2125 H   0  0  0  0  0  0  0  0  0  0  0  0
   65.4003   33.4705   49.1054 H   0  0  0  0  0  0  0  0  0  0  0  0
   64.3656   34.6913   47.1908 H   0  0  0  0  0  0  0  0  0  0  0  0
   62.0798   34.0732   46.4022 H   0  0  0  0  0  0  0  0  0  0  0  0
   59.4800   33.5916   48.5279 H   0  0  0  0  0  0  0  0  0  0  0  0
   59.7607   33.9608   46.7535 H   0  0  0  0  0  0  0  0  0  0  0  0
   57.5753   32.3946   48.0782 H   0  0  0  0  0  0  0  0  0  0  0  0
   57.5611   33.5903   46.6809 H   0  0  0  0  0  0  0  0  0  0  0  0
   57.0270   31.2240   46.2990 H   0  0  0  0  0  0  0  0  0  0  0  0
   57.3487   32.8635   44.5885 H   0  0  0  0  0  0  0  0  0  0  0  0
   59.0755   32.1973   44.4968 H   0  0  0  0  0  0  0  0  0  0  0  0
   58.3503   30.1223   43.6790 H   0  0  0  0  0  0  0  0  0  0  0  0
   57.8110   30.8690   41.7700 H   0  0  0  0  0  0  0  0  0  0  0  0
   55.5384   31.0711   44.4049 H   0  0  0  0  0  0  0  0  0  0  0  0
   55.8554   29.6836   43.2910 H   0  0  0  0  0  0  0  0  0  0  0  0
   55.7200   27.3926   46.9553 H   0  0  0  0  0  0  0  0  0  0  0  0
   56.4439   25.0170   46.7355 H   0  0  0  0  0  0  0  0  0  0  0  0
   58.8573   23.5736   46.6878 H   0  0  0  0  0  0  0  0  0  0  0  0
   59.2231   22.3780   45.3981 H   0  0  0  0  0  0  0  0  0  0  0  0
   60.0406   23.9774   45.3981 H   0  0  0  0  0  0  0  0  0  0  0  0
   58.0849   20.8872   44.5192 H   0  0  0  0  0  0  0  0  0  0  0  0
   57.1412   20.7374   42.9981 H   0  0  0  0  0  0  0  0  0  0  0  0
   58.7128   21.6073   42.9981 H   0  0  0  0  0  0  0  0  0  0  0  0
   58.7698   26.0448   43.2349 H   0  0  0  0  0  0  0  0  0  0  0  0
   58.0683   28.4208   43.4666 H   0  0  0  0  0  0  0  0  0  0  0  0
   58.5723   30.1129   47.5121 H   0  0  0  0  0  0  0  0  0  0  0  0
   58.8049   29.7483   45.7425 H   0  0  0  0  0  0  0  0  0  0  0  0
   60.9213   30.1153   47.0901 H   0  0  0  0  0  0  0  0  0  0  0  0
   60.7063   31.1292   45.6029 H   0  0  0  0  0  0  0  0  0  0  0  0
  1  2  1  0
  2  3  1  0
  3  4  2  0
  4  5  1  0
  5  6  2  0
  6  7  1  0
  7  8  2  0
  8  9  1  0
  9 10  1  0
 10 11  1  0
 11 12  1  0
 12 13  1  0
 13 14  1  0
 14 15  1  0
 14 16  1  0
 16 17  1  0
 17 18  1  0
 18 19  2  0
 19 20  1  0
 20 21  2  0
 21 22  1  0
 22 23  1  0
 22 24  1  0
 24 25  1  0
 24 26  2  0
 24 27  2  0
 21 28  1  0
 28 29  2  0
 12 30  1  0
 30 31  1  0
  8  3  1  0
 31  9  1  0
 29 18  1  0
  1 32  1  0
  1 33  1  0
  1 34  1  0
  4 35  1  0
  5 36  1  0
  6 37  1  0
  7 38  1  0
 10 39  1  0
 10 40  1  0
 11 41  1  0
 11 42  1  0
 12 43  1  0
 13 44  1  0
 13 45  1  0
 14 46  1  6
 15 47  1  0
 16 48  1  0
 16 49  1  0
 19 50  1  0
 20 51  1  0
 23 52  1  0
 23 53  1  0
 23 54  1  0
 25 55  1  0
 25 56  1  0
 25 57  1  0
 28 58  1  0
 29 59  1  0
 30 60  1  0
 30 61  1  0
 31 62  1  0
 31 63  1  0
M  CHG  1  12   1
M  END
>  <UniqueID>  (27) 
27

>  <SMILES>  (27) 
COc1ccccc1N1CC[NH+](C[C@H](O)COc2ccc(N(C)S(C)(=O)=O)cc2)CC1

>  <Energy>  (27) 
84.72375266483019

>  <Genealogy>  (27) 
COc1ccccc1N1CC[NH+](CC(O)COc2ccc(N(C)S(C)(=O)=O)cc2)CC1 (protonated)
COc1ccccc1N1CC[NH+](C[C@H](O)COc2ccc(N(C)S(C)(=O)=O)cc2)CC1 (chirality)
COc1ccccc1N1CC[NH+](C[C@H](O)COc2ccc(N(C)S(C)(=O)=O)cc2)CC1 (3D coordinates assigned)
COc1ccccc1N1CC[NH+](C[C@H](O)COc2ccc(N(C)S(C)(=O)=O)cc2)CC1 (nonaromatic ring conformer: 84.72375266483019 kcal/mol)

>  <smiles>  (27) 
COc1ccccc1N1CCN(CC(O)COc2ccc(N(C)S(C)(=O)=O)cc2)CC1

>  <score_type>  (27) 
oracle

>  <origin>  (27) 
adg

>  <m_score__min__energy>  (27) 
-6.96

>  <m_primary>  (27) 
energy

$$$$
27:0
     RDKit          3D

 36 38  0  0  0  0  0  0  0  0999 V2000
   57.9010   24.3900   47.0230 C   0  0  0  0  0  0  0  0  0  0  0  0
   57.9980   25.7260   46.4250 N   0  0  0  0  0  0  0  0  0  0  0  0
   56.8800   26.4230   46.1510 C   0  0  0  0  0  0  0  0  0  0  0  0
   55.7290   25.9740   46.3870 O   0  0  0  0  0  0  0  0  0  0  0  0
   57.0050   27.6670   45.5940 C   0  0  0  0  0  0  0  0  0  0  0  0
   56.1510   28.6390   45.1890 N   0  0  0  0  0  0  0  0  0  0  0  0
   56.8640   29.6730   44.7070 C   0  0  0  0  0  0  0  0  0  0  0  0
   56.4020   30.9670   44.1470 C   0  0  0  0  0  0  0  0  0  0  0  0
   57.5920   31.7560   43.6360 C   0  0  0  0  0  0  0  0  0  0  0  0
   57.9580   32.6770   44.7690 C   0  0  0  0  0  0  0  0  0  0  0  0
   58.8480   33.7130   44.4740 C   0  0  0  0  0  0  0  0  0  0  0  0
   59.2070   34.5810   45.4950 C   0  0  0  0  0  0  0  0  0  0  0  0
   58.6890   34.4090   46.7570 C   0  0  0  0  0  0  0  0  0  0  0  0
   57.8040   33.3530   46.9870 C   0  0  0  0  0  0  0  0  0  0  0  0
   57.4480   32.5040   46.0010 N   0  0  0  0  0  0  0  0  0  0  0  0
   58.1790   29.3470   44.8110 N   0  0  0  0  0  0  0  0  0  0  0  0
   58.2940   28.1210   45.3520 C   0  0  0  0  0  0  0  0  0  0  0  0
   59.3860   27.3860   45.6450 N   0  0  0  0  0  0  0  0  0  0  0  0
   60.6990   27.9650   45.3470 C   0  0  0  0  0  0  0  0  0  0  0  0
   59.2370   26.1780   46.1870 C   0  0  0  0  0  0  0  0  0  0  0  0
   60.2810   25.5220   46.4450 O   0  0  0  0  0  0  0  0  0  0  0  0
   57.9074   24.4777   48.1195 H   0  0  0  0  0  0  0  0  0  0  0  0
   56.9657   23.9103   46.6990 H   0  0  0  0  0  0  0  0  0  0  0  0
   58.7572   23.7802   46.6990 H   0  0  0  0  0  0  0  0  0  0  0  0
   55.1090   28.5950   45.2410 H   0  0  0  0  0  0  0  0  0  0  0  0
   55.7047   30.7784   43.3174 H   0  0  0  0  0  0  0  0  0  0  0  0
   55.8928   31.5435   44.9333 H   0  0  0  0  0  0  0  0  0  0  0  0
   58.4292   31.0835   43.3974 H   0  0  0  0  0  0  0  0  0  0  0  0
   57.3596   32.3062   42.7122 H   0  0  0  0  0  0  0  0  0  0  0  0
   59.2533   33.8371   43.4590 H   0  0  0  0  0  0  0  0  0  0  0  0
   59.9059   35.4066   45.2950 H   0  0  0  0  0  0  0  0  0  0  0  0
   58.9672   35.0924   47.5729 H   0  0  0  0  0  0  0  0  0  0  0  0
   57.3879   33.2105   47.9952 H   0  0  0  0  0  0  0  0  0  0  0  0
   61.2204   28.1949   46.2879 H   0  0  0  0  0  0  0  0  0  0  0  0
   61.2934   27.2455   44.7647 H   0  0  0  0  0  0  0  0  0  0  0  0
   60.5686   28.8891   44.7647 H   0  0  0  0  0  0  0  0  0  0  0  0
  1  2  1  0
  2  3  1  0
  3  4  2  0
  3  5  1  0
  5  6  1  0
  6  7  1  0
  7  8  1  0
  8  9  1  0
  9 10  1  0
 10 11  2  0
 11 12  1  0
 12 13  2  0
 13 14  1  0
 14 15  2  0
  7 16  2  0
 16 17  1  0
 17 18  1  0
 18 19  1  0
 18 20  1  0
 20 21  2  0
 20  2  1  0
 17  5  2  0
 15 10  1  0
  1 22  1  0
  1 23  1  0
  1 24  1  0
  6 25  1  0
  8 26  1  0
  8 27  1  0
  9 28  1  0
  9 29  1  0
 11 30  1  0
 12 31  1  0
 13 32  1  0
 14 33  1  0
 19 34  1  0
 19 35  1  0
 19 36  1  0
M  END
>  <smiles>  (28) 
Cn1c(=O)c2[nH]c(CCc3ccccn3)nc2n(C)c1=O

>  <score_type>  (28) 
oracle

>  <origin>  (28) 
adg

>  <m_score__min__energy>  (28) 
-7.5700000000000003

>  <m_primary>  (28) 
energy

$$$$
28:0
     RDKit          3D

 53 55  0  0  0  0  0  0  0  0999 V2000
   58.5230   31.9730   49.3980 C   0  0  0  0  0  0  0  0  0  0  0  0
   58.8960   30.5330   49.0040 C   0  0  0  0  0  0  0  0  0  0  0  0
   59.5930   30.4200   47.6970 N   0  0  0  0  0  0  0  0  0  0  0  0
   61.0380   30.1220   47.8810 C   0  0  0  0  0  0  0  0  0  0  0  0
   61.5460   30.5220   49.2690 C   0  0  0  0  0  0  0  0  0  0  0  0
   58.9130   29.4480   46.7870 C   0  0  0  0  0  0  0  0  0  0  0  0
   58.8730   29.9310   45.3260 C   0  0  0  0  0  0  0  0  0  0  0  0
   57.4170   31.0050   45.0360 S   0  0  0  0  0  0  0  0  0  0  0  0
   58.2830   32.5510   45.3050 C   0  0  0  0  0  0  0  0  0  0  0  0
   57.8720   33.7160   44.6510 C   0  0  0  0  0  0  0  0  0  0  0  0
   58.5590   34.9070   44.8890 C   0  0  0  0  0  0  0  0  0  0  0  0
   59.6420   34.9260   45.7700 C   0  0  0  0  0  0  0  0  0  0  0  0
   60.0290   33.7380   46.4170 C   0  0  0  0  0  0  0  0  0  0  0  0
   61.1800   33.6940   47.3530 C   0  0  0  0  0  0  0  0  0  0  0  0
   61.0480   34.1040   48.6930 C   0  0  0  0  0  0  0  0  0  0  0  0
   62.1340   34.0310   49.5680 C   0  0  0  0  0  0  0  0  0  0  0  0
   63.3780   33.5490   49.1250 C   0  0  0  0  0  0  0  0  0  0  0  0
   64.5330   33.4740   50.0540 C   0  0  0  0  0  0  0  0  0  0  0  0
   64.5250   34.1880   51.2670 C   0  0  0  0  0  0  0  0  0  0  0  0
   65.6190   34.1190   52.1360 C   0  0  0  0  0  0  0  0  0  0  0  0
   66.7320   33.3430   51.8040 C   0  0  0  0  0  0  0  0  0  0  0  0
   66.7510   32.6290   50.6050 C   0  0  0  0  0  0  0  0  0  0  0  0
   65.6600   32.6910   49.7320 C   0  0  0  0  0  0  0  0  0  0  0  0
   63.5080   33.1390   47.7870 C   0  0  0  0  0  0  0  0  0  0  0  0
   62.4210   33.2050   46.9130 C   0  0  0  0  0  0  0  0  0  0  0  0
   59.3360   32.5930   46.1630 N   0  0  0  0  0  0  0  0  0  0  0  0
   58.5007   32.0591   50.4944 H   0  0  0  0  0  0  0  0  0  0  0  0
   59.2703   32.6699   48.9906 H   0  0  0  0  0  0  0  0  0  0  0  0
   57.5314   32.2194   48.9906 H   0  0  0  0  0  0  0  0  0  0  0  0
   59.5550   30.1220   49.7830 H   0  0  0  0  0  0  0  0  0  0  0  0
   57.9517   29.9772   48.9075 H   0  0  0  0  0  0  0  0  0  0  0  0
   59.5350   31.3780   47.2830 H   0  0  0  0  0  0  0  0  0  0  0  0
   61.1957   29.0419   47.7452 H   0  0  0  0  0  0  0  0  0  0  0  0
   61.5980   30.7086   47.1378 H   0  0  0  0  0  0  0  0  0  0  0  0
   60.9290   30.0362   50.0393 H   0  0  0  0  0  0  0  0  0  0  0  0
   62.5926   30.2029   49.3824 H   0  0  0  0  0  0  0  0  0  0  0  0
   61.4813   31.6142   49.3824 H   0  0  0  0  0  0  0  0  0  0  0  0
   59.4539   28.4910   46.8267 H   0  0  0  0  0  0  0  0  0  0  0  0
   57.8735   29.3420   47.1307 H   0  0  0  0  0  0  0  0  0  0  0  0
   59.7894   30.4993   45.1087 H   0  0  0  0  0  0  0  0  0  0  0  0
   58.8013   29.0537   44.6662 H   0  0  0  0  0  0  0  0  0  0  0  0
   57.0182   33.6942   43.9578 H   0  0  0  0  0  0  0  0  0  0  0  0
   58.2470   35.8320   44.3820 H   0  0  0  0  0  0  0  0  0  0  0  0
   60.1883   35.8623   45.9568 H   0  0  0  0  0  0  0  0  0  0  0  0
   60.0814   34.4851   49.0541 H   0  0  0  0  0  0  0  0  0  0  0  0
   62.0149   34.3535   50.6129 H   0  0  0  0  0  0  0  0  0  0  0  0
   63.6533   34.8039   51.5332 H   0  0  0  0  0  0  0  0  0  0  0  0
   65.6028   34.6775   53.0836 H   0  0  0  0  0  0  0  0  0  0  0  0
   67.5929   33.2947   52.4871 H   0  0  0  0  0  0  0  0  0  0  0  0
   67.6266   32.0157   50.3458 H   0  0  0  0  0  0  0  0  0  0  0  0
   65.6816   32.1255   48.7887 H   0  0  0  0  0  0  0  0  0  0  0  0
   64.4759   32.7623   47.4246 H   0  0  0  0  0  0  0  0  0  0  0  0
   62.5376   32.8713   45.8713 H   0  0  0  0  0  0  0  0  0  0  0  0
  1  2  1  0
  2  3  1  0
  3  4  1  0
  4  5  1  0
  3  6  1  0
  6  7  1  0
  7  8  1  0
  8  9  1  0
  9 10  2  0
 10 11  1  0
 11 12  2  0
 12 13  1  0
 13 14  1  0
 14 15  2  0
 15 16  1  0
 16 17  2  0
 17 18  1  0
 18 19  2  0
 19 20  1  0
 20 21  2  0
 21 22  1  0
 22 23  2  0
 17 24  1  0
 24 25  2  0
 13 26  2  0
 26  9  1  0
 25 14  1  0
 23 18  1  0
  1 27  1  0
  1 28  1  0
  1 29  1  0
  2 30  1  0
  2 31  1  0
  3 32  1  0
  4 33  1  0
  4 34  1  0
  5 35  1  0
  5 36  1  0
  5 37  1  0
  6 38  1  0
  6 39  1  0
  7 40  1  0
  7 41  1  0
 10 42  1  0
 11 43  1  0
 12 44  1  0
 15 45  1  0
 16 46  1  0
 19 47  1  0
 20 48  1  0
 21 49  1  0
 22 50  1  0
 23 51  1  0
 24 52  1  0
 25 53  1  0
M  CHG  1   3   1
M  END
>  <UniqueID>  (29) 
28

>  <SMILES>  (29) 
CC[NH+](CC)CCSc1cccc(-c2ccc(-c3ccccc3)cc2)n1

>  <Energy>  (29) 
63.28522240206645

>  <Genealogy>  (29) 
CC[NH+](CC)CCSc1cccc(-c2ccc(-c3ccccc3)cc2)n1 (protonated)
CC[NH+](CC)CCSc1cccc(-c2ccc(-c3ccccc3)cc2)n1 (3D coordinates assigned)
CC[NH+](CC)CCSc1cccc(-c2ccc(-c3ccccc3)cc2)n1 (optimized conformer: 63.28522240206645 kcal/mol)

>  <smiles>  (29) 
CCN(CC)CCSc1cccc(-c2ccc(-c3ccccc3)cc2)n1

>  <score_type>  (29) 
oracle

>  <origin>  (29) 
adg

>  <m_score__min__energy>  (29) 
-6.4500000000000002

>  <m_primary>  (29) 
energy

$$$$
29:0
     RDKit          3D

 48 50  0  0  0  0  0  0  0  0999 V2000
   57.0561   34.5017   43.8900 H   0  0  0  0  0  0  0  0  0  0  0  0
   57.6870   33.8850   44.5470 C   0  0  0  0  0  0  0  0  0  0  0  0
   58.9990   34.1820   44.6090 C   0  0  0  0  0  0  0  0  0  0  0  0
   59.6654   33.7071   43.8739 H   0  0  0  0  0  0  0  0  0  0  0  0
   59.6200   35.1190   45.6140 C   0  0  0  0  0  0  0  0  0  0  0  0
   58.9363   35.9629   45.7884 H   0  0  0  0  0  0  0  0  0  0  0  0
   60.5801   35.4752   45.2123 H   0  0  0  0  0  0  0  0  0  0  0  0
   59.8720   34.4390   46.8830 N   0  0  0  0  0  0  0  0  0  0  0  0
   61.0400   33.9330   47.2410 N   0  0  0  0  0  0  0  0  0  0  0  0
   60.9560   33.3900   48.4460 N   0  0  0  0  0  0  0  0  0  0  0  0
   59.6900   33.5710   48.8740 C   0  0  0  0  0  0  0  0  0  0  0  0
   59.1660   33.0680   50.1660 C   0  0  0  0  0  0  0  0  0  0  0  0
   58.4570   31.8560   50.2090 C   0  0  0  0  0  0  0  0  0  0  0  0
   58.3210   31.2710   49.2874 H   0  0  0  0  0  0  0  0  0  0  0  0
   57.9230   31.3870   51.4120 C   0  0  0  0  0  0  0  0  0  0  0  0
   57.3763   30.4327   51.4333 H   0  0  0  0  0  0  0  0  0  0  0  0
   58.0810   32.1280   52.5930 C   0  0  0  0  0  0  0  0  0  0  0  0
   57.5370   31.6060   53.8890 C   0  0  0  0  0  0  0  0  0  0  0  0
   58.0508   32.0990   54.7274 H   0  0  0  0  0  0  0  0  0  0  0  0
   56.4587   31.8161   53.9452 H   0  0  0  0  0  0  0  0  0  0  0  0
   57.7024   30.5200   53.9452 H   0  0  0  0  0  0  0  0  0  0  0  0
   58.8090   33.3260   52.5600 C   0  0  0  0  0  0  0  0  0  0  0  0
   58.9615   33.8986   53.4867 H   0  0  0  0  0  0  0  0  0  0  0  0
   59.3420   33.7970   51.3570 C   0  0  0  0  0  0  0  0  0  0  0  0
   59.9025   34.7433   51.3409 H   0  0  0  0  0  0  0  0  0  0  0  0
   58.9970   34.2470   47.8860 C   0  0  0  0  0  0  0  0  0  0  0  0
   57.9439   34.5633   47.9149 H   0  0  0  0  0  0  0  0  0  0  0  0
   57.0180   32.7700   45.3110 C   0  0  0  0  0  0  0  0  0  0  0  0
   57.2606   32.8669   46.3795 H   0  0  0  0  0  0  0  0  0  0  0  0
   55.9304   32.8387   45.1615 H   0  0  0  0  0  0  0  0  0  0  0  0
   57.4830   31.4630   44.8260 N   0  0  0  0  0  0  0  0  0  0  0  0
   58.7010   30.9080   45.3520 C   0  0  0  0  0  0  0  0  0  0  0  0
   59.1180   29.6770   44.9480 N   0  0  0  0  0  0  0  0  0  0  0  0
   60.2760   29.1350   45.4060 C   0  0  0  0  0  0  0  0  0  0  0  0
   60.5972   28.1410   45.0614 H   0  0  0  0  0  0  0  0  0  0  0  0
   61.0550   29.8490   46.3170 C   0  0  0  0  0  0  0  0  0  0  0  0
   61.9969   29.4240   46.6940 H   0  0  0  0  0  0  0  0  0  0  0  0
   60.6400   31.0750   46.7350 N   0  0  0  0  0  0  0  0  0  0  0  0
   61.2190   31.6050   47.4240 H   0  0  0  0  0  0  0  0  0  0  0  0
   59.4850   31.6220   46.2700 C   0  0  0  0  0  0  0  0  0  0  0  0
   59.1676   32.6182   46.6117 H   0  0  0  0  0  0  0  0  0  0  0  0
   56.7580   30.7580   43.7590 C   0  0  0  0  0  0  0  0  0  0  0  0
   55.8474   31.3216   43.5076 H   0  0  0  0  0  0  0  0  0  0  0  0
   57.4127   30.6790   42.8786 H   0  0  0  0  0  0  0  0  0  0  0  0
   56.3690   29.3520   44.2100 C   0  0  0  0  0  0  0  0  0  0  0  0
   56.3040   28.6930   43.3316 H   0  0  0  0  0  0  0  0  0  0  0  0
   57.1317   28.9731   44.9063 H   0  0  0  0  0  0  0  0  0  0  0  0
   55.1440   29.3810   44.8520 F   0  0  0  0  0  0  0  0  0  0  0  0
  1  2  1  0
  2  3  2  0
  3  4  1  0
  3  5  1  0
  5  6  1  0
  5  7  1  0
  5  8  1  0
  8  9  1  0
  9 10  2  0
 10 11  1  0
 11 12  1  0
 12 13  2  0
 13 14  1  0
 13 15  1  0
 15 16  1  0
 15 17  2  0
 17 18  1  0
 18 19  1  0
 18 20  1  0
 18 21  1  0
 17 22  1  0
 22 23  1  0
 22 24  2  0
 24 25  1  0
 11 26  2  0
 26 27  1  0
  2 28  1  0
 28 29  1  0
 28 30  1  0
 28 31  1  0
 31 32  1  0
 32 33  2  0
 33 34  1  0
 34 35  1  0
 34 36  2  0
 36 37  1  0
 36 38  1  0
 38 39  1  0
 38 40  2  0
 40 41  1  0
 31 42  1  0
 42 43  1  0
 42 44  1  0
 42 45  1  0
 45 46  1  0
 45 47  1  0
 45 48  1  0
 26  8  1  0
 40 32  1  0
 24 12  1  0
M  CHG  1  38   1
M  END
>  <UniqueID>  (30) 
29

>  <SMILES>  (30) 
Cc1ccc(-c2cn(C/C=C\CN(CCF)c3c[nH+]ccn3)nn2)cc1

>  <Energy>  (30) 
80.41096264598723

>  <Genealogy>  (30) 
Cc1ccc(-c2cn(CC=CCN(CCF)c3c[nH+]ccn3)nn2)cc1 (protonated)
Cc1ccc(-c2cn(C/C=C\CN(CCF)c3c[nH+]ccn3)nn2)cc1 (cis-trans isomerization)
Cc1ccc(-c2cn(C/C=C\CN(CCF)c3c[nH+]ccn3)nn2)cc1 (3D coordinates assigned)
Cc1ccc(-c2cn(C/C=C\CN(CCF)c3c[nH+]ccn3)nn2)cc1 (optimized conformer: 80.41096264598723 kcal/mol)

>  <smiles>  (30) 
Cc1ccc(-c2cn(CC=CCN(CCF)c3cnccn3)nn2)cc1

>  <score_type>  (30) 
oracle

>  <origin>  (30) 
adg

>  <m_score__min__energy>  (30) 
-6.6799999999999997

>  <m_primary>  (30) 
energy

$$$$
30:0
     RDKit          3D

 48 50  0  0  0  0  0  0  0  0999 V2000
   56.4690   30.2210   43.4940 C   0  0  0  0  0  0  0  0  0  0  0  0
   56.2740   31.2120   44.4970 O   0  0  0  0  0  0  0  0  0  0  0  0
   57.3050   31.9630   45.0840 C   0  0  0  0  0  0  0  0  0  0  0  0
   57.5350   33.3090   44.7430 C   0  0  0  0  0  0  0  0  0  0  0  0
   58.5700   34.0250   45.3500 C   0  0  0  0  0  0  0  0  0  0  0  0
   59.3910   33.4100   46.3040 C   0  0  0  0  0  0  0  0  0  0  0  0
   60.4950   34.1970   46.9600 C   0  0  0  0  0  0  0  0  0  0  0  0
   61.1560   33.3870   48.0050 N   0  0  0  0  0  0  0  0  0  0  0  0
   61.6230   34.2490   49.1140 C   0  0  0  0  0  0  0  0  0  0  0  0
   62.7300   33.5590   49.9220 C   0  0  0  0  0  0  0  0  0  0  0  0
   63.9440   33.3360   49.0940 N   0  0  0  0  0  0  0  0  0  0  0  0
   64.7470   32.2310   49.6720 C   0  0  0  0  0  0  0  0  0  0  0  0
   65.9390   32.7410   50.4360 C   0  0  0  0  0  0  0  0  0  0  0  0
   67.1740   32.1130   50.5350 C   0  0  0  0  0  0  0  0  0  0  0  0
   68.0970   32.8320   51.3040 C   0  0  0  0  0  0  0  0  0  0  0  0
   67.5910   34.0230   51.8110 C   0  0  0  0  0  0  0  0  0  0  0  0
   65.9970   34.1820   51.3000 S   0  0  0  0  0  0  0  0  0  0  0  0
   63.6280   33.1010   47.6550 C   0  0  0  0  0  0  0  0  0  0  0  0
   62.2210   32.5130   47.4490 C   0  0  0  0  0  0  0  0  0  0  0  0
   59.1650   32.0680   46.6470 C   0  0  0  0  0  0  0  0  0  0  0  0
   58.1230   31.3410   46.0410 C   0  0  0  0  0  0  0  0  0  0  0  0
   57.8660   29.9980   46.3620 O   0  0  0  0  0  0  0  0  0  0  0  0
   58.7270   28.9110   46.0340 C   0  0  0  0  0  0  0  0  0  0  0  0
   56.6603   29.2487   43.9715 H   0  0  0  0  0  0  0  0  0  0  0  0
   55.5674   30.1508   42.8677 H   0  0  0  0  0  0  0  0  0  0  0  0
   57.3299   30.4976   42.8677 H   0  0  0  0  0  0  0  0  0  0  0  0
   56.8962   33.8002   43.9942 H   0  0  0  0  0  0  0  0  0  0  0  0
   58.7410   35.0769   45.0774 H   0  0  0  0  0  0  0  0  0  0  0  0
   61.2370   34.4830   46.1999 H   0  0  0  0  0  0  0  0  0  0  0  0
   60.0640   35.0958   47.4252 H   0  0  0  0  0  0  0  0  0  0  0  0
   62.0147   35.1889   48.6979 H   0  0  0  0  0  0  0  0  0  0  0  0
   60.7733   34.4470   49.7840 H   0  0  0  0  0  0  0  0  0  0  0  0
   62.9940   34.1925   50.7817 H   0  0  0  0  0  0  0  0  0  0  0  0
   62.3555   32.5813   50.2594 H   0  0  0  0  0  0  0  0  0  0  0  0
   64.5130   34.2150   49.1520 H   0  0  0  0  0  0  0  0  0  0  0  0
   64.1105   31.6484   50.3542 H   0  0  0  0  0  0  0  0  0  0  0  0
   65.1153   31.6086   48.8431 H   0  0  0  0  0  0  0  0  0  0  0  0
   67.4035   31.1489   50.0578 H   0  0  0  0  0  0  0  0  0  0  0  0
   69.1249   32.4870   51.4893 H   0  0  0  0  0  0  0  0  0  0  0  0
   68.1399   34.7397   52.4396 H   0  0  0  0  0  0  0  0  0  0  0  0
   63.6918   34.0593   47.1188 H   0  0  0  0  0  0  0  0  0  0  0  0
   64.3549   32.3718   47.2680 H   0  0  0  0  0  0  0  0  0  0  0  0
   62.0459   32.3849   46.3706 H   0  0  0  0  0  0  0  0  0  0  0  0
   62.1778   31.5511   47.9809 H   0  0  0  0  0  0  0  0  0  0  0  0
   59.8072   31.5804   47.3953 H   0  0  0  0  0  0  0  0  0  0  0  0
   59.0968   28.4442   46.9588 H   0  0  0  0  0  0  0  0  0  0  0  0
   58.1704   28.1672   45.4450 H   0  0  0  0  0  0  0  0  0  0  0  0
   59.5785   29.2825   45.4450 H   0  0  0  0  0  0  0  0  0  0  0  0
  1  2  1  0
  2  3  1  0
  3  4  2  0
  4  5  1  0
  5  6  2  0
  6  7  1  0
  7  8  1  0
  8  9  1  0
  9 10  1  0
 10 11  1  0
 11 12  1  0
 12 13  1  0
 13 14  2  0
 14 15  1  0
 15 16  2  0
 16 17  1  0
 11 18  1  0
 18 19  1  0
  6 20  1  0
 20 21  2  0
 21 22  1  0
 22 23  1  0
 21  3  1  0
 19  8  1  0
 17 13  1  0
  1 24  1  0
  1 25  1  0
  1 26  1  0
  4 27  1  0
  5 28  1  0
  7 29  1  0
  7 30  1  0
  9 31  1  0
  9 32  1  0
 10 33  1  0
 10 34  1  0
 11 35  1  0
 12 36  1  0
 12 37  1  0
 14 38  1  0
 15 39  1  0
 16 40  1  0
 18 41  1  0
 18 42  1  0
 19 43  1  0
 19 44  1  0
 20 45  1  0
 23 46  1  0
 23 47  1  0
 23 48  1  0
M  CHG  1  11   1
M  END
>  <UniqueID>  (31) 
30

>  <SMILES>  (31) 
COc1ccc(CN2CC[NH+](Cc3cccs3)CC2)cc1OC

>  <Energy>  (31) 
86.72658241883896

>  <Genealogy>  (31) 
COc1ccc(CN2CC[NH+](Cc3cccs3)CC2)cc1OC (protonated)
COc1ccc(CN2CC[NH+](Cc3cccs3)CC2)cc1OC (3D coordinates assigned)
COc1ccc(CN2CC[NH+](Cc3cccs3)CC2)cc1OC (nonaromatic ring conformer: 86.72658241883896 kcal/mol)

>  <smiles>  (31) 
COc1ccc(CN2CCN(Cc3cccs3)CC2)cc1OC

>  <score_type>  (31) 
oracle

>  <origin>  (31) 
adg

>  <m_score__min__energy>  (31) 
-6.46

>  <m_primary>  (31) 
energy

$$$$
31:0
     RDKit          3D

 89 94  0  0  0  0  0  0  0  0999 V2000
   64.9510   33.3810   49.8160 C   0  0  0  0  0  0  0  0  0  0  0  0
   63.6520   32.9220   49.2790 N   0  0  1  0  0  0  0  0  0  0  0  0
   63.8100   32.5170   47.8660 C   0  0  0  0  0  0  0  0  0  0  0  0
   62.4340   32.4150   47.1980 C   0  0  0  0  0  0  0  0  0  0  0  0
   61.4530   31.7870   48.0940 N   0  0  0  0  0  0  0  0  0  0  0  0
   60.0690   31.7340   47.6710 C   0  0  0  0  0  0  0  0  0  0  0  0
   59.2220   32.4800   48.2330 O   0  0  0  0  0  0  0  0  0  0  0  0
   59.5940   30.7870   46.5900 C   0  0  1  0  0  0  0  0  0  0  0  0
   60.6480   29.8840   45.8920 C   0  0  0  0  0  0  0  0  0  0  0  0
   60.4290   28.3440   45.9860 C   0  0  0  0  0  0  0  0  0  0  0  0
   59.1100   27.8650   46.6940 C   0  0  1  0  0  0  0  0  0  0  0  0
   59.3380   28.0800   48.2330 C   0  0  0  0  0  0  0  0  0  0  0  0
   57.9590   28.7880   46.2060 C   0  0  2  0  0  0  0  0  0  0  0  0
   57.7850   28.7030   44.6830 C   0  0  0  0  0  0  0  0  0  0  0  0
   57.5280   27.3040   44.1440 C   0  0  0  0  0  0  0  0  0  0  0  0
   57.9710   26.0590   44.9910 C   0  0  2  0  0  0  0  0  0  0  0  0
   56.7750   24.9980   45.0420 C   0  0  1  0  0  0  0  0  0  0  0  0
   55.4770   25.6710   45.6260 C   0  0  0  0  0  0  0  0  0  0  0  0
   56.4550   24.4660   43.5820 C   0  0  0  0  0  0  0  0  0  0  0  0
   57.0740   23.1060   43.2480 C   0  0  0  0  0  0  0  0  0  0  0  0
   56.5800   22.0830   44.2330 C   0  0  0  0  0  0  0  0  0  0  0  0
   56.2390   20.9800   43.8320 O   0  0  0  0  0  0  0  0  0  0  0  0
   56.4990   22.4280   45.7150 C   0  0  0  0  0  0  0  0  0  0  0  0
   57.2100   21.3090   46.5160 C   0  0  0  0  0  0  0  0  0  0  0  0
   55.0100   22.4490   46.1200 C   0  0  0  0  0  0  0  0  0  0  0  0
   57.2410   23.8030   45.9430 C   0  0  2  0  0  0  0  0  0  0  0  0
   57.4340   24.2320   47.4120 C   0  0  0  0  0  0  0  0  0  0  0  0
   57.9010   25.6970   47.5760 C   0  0  0  0  0  0  0  0  0  0  0  0
   58.7530   26.3060   46.3920 C   0  0  2  0  0  0  0  0  0  0  0  0
   60.1030   25.5020   46.3830 C   0  0  0  0  0  0  0  0  0  0  0  0
   58.1530   30.2570   46.6950 C   0  0  2  0  0  0  0  0  0  0  0  0
   58.4920   31.3850   45.7150 C   0  0  0  0  0  0  0  0  0  0  0  0
   61.9570   31.0210   49.2440 C   0  0  0  0  0  0  0  0  0  0  0  0
   62.9720   31.8540   50.1050 C   0  0  0  0  0  0  0  0  0  0  0  0
   63.9780   30.8470   50.7290 C   0  0  0  0  0  0  0  0  0  0  0  0
   62.1900   32.5200   51.2660 C   0  0  0  0  0  0  0  0  0  0  0  0
   64.9180   33.3693   50.9154 H   0  0  0  0  0  0  0  0  0  0  0  0
   65.7499   32.7107   49.4660 H   0  0  0  0  0  0  0  0  0  0  0  0
   65.1514   34.4044   49.4660 H   0  0  0  0  0  0  0  0  0  0  0  0
   63.0420   33.7750   49.2730 H   0  0  0  0  0  0  0  0  0  0  0  0
   64.4180   33.2659   47.3373 H   0  0  0  0  0  0  0  0  0  0  0  0
   64.3083   31.5373   47.8226 H   0  0  0  0  0  0  0  0  0  0  0  0
   62.0862   33.4254   46.9370 H   0  0  0  0  0  0  0  0  0  0  0  0
   62.5301   31.7926   46.2961 H   0  0  0  0  0  0  0  0  0  0  0  0
   60.6625   30.1533   44.8256 H   0  0  0  0  0  0  0  0  0  0  0  0
   61.5891   30.0734   46.4291 H   0  0  0  0  0  0  0  0  0  0  0  0
   60.4223   27.9443   44.9612 H   0  0  0  0  0  0  0  0  0  0  0  0
   61.2497   27.9713   46.6166 H   0  0  0  0  0  0  0  0  0  0  0  0
   58.6519   27.4330   48.7992 H   0  0  0  0  0  0  0  0  0  0  0  0
   60.3771   27.8254   48.4888 H   0  0  0  0  0  0  0  0  0  0  0  0
   59.1447   29.1322   48.4888 H   0  0  0  0  0  0  0  0  0  0  0  0
   57.0248   28.4249   46.6592 H   0  0  0  0  0  0  0  0  0  0  0  0
   56.9336   29.3396   44.4005 H   0  0  0  0  0  0  0  0  0  0  0  0
   58.7391   29.0315   44.2451 H   0  0  0  0  0  0  0  0  0  0  0  0
   56.4429   27.2153   43.9872 H   0  0  0  0  0  0  0  0  0  0  0  0
   58.1655   27.2494   43.2492 H   0  0  0  0  0  0  0  0  0  0  0  0
   58.8185   25.6230   44.4418 H   0  0  0  0  0  0  0  0  0  0  0  0
   55.5162   25.6507   46.7251 H   0  0  0  0  0  0  0  0  0  0  0  0
   55.4174   26.7136   45.2805 H   0  0  0  0  0  0  0  0  0  0  0  0
   54.5905   25.1189   45.2805 H   0  0  0  0  0  0  0  0  0  0  0  0
   55.3631   24.3801   43.4800 H   0  0  0  0  0  0  0  0  0  0  0  0
   56.8986   25.1900   42.8827 H   0  0  0  0  0  0  0  0  0  0  0  0
   56.7812   22.8084   42.2303 H   0  0  0  0  0  0  0  0  0  0  0  0
   58.1704   23.1748   43.3050 H   0  0  0  0  0  0  0  0  0  0  0  0
   57.0907   21.4968   47.5933 H   0  0  0  0  0  0  0  0  0  0  0  0
   56.7640   20.3361   46.2618 H   0  0  0  0  0  0  0  0  0  0  0  0
   58.2802   21.2994   46.2618 H   0  0  0  0  0  0  0  0  0  0  0  0
   54.9284   22.4502   47.2170 H   0  0  0  0  0  0  0  0  0  0  0  0
   54.5328   23.3540   45.7159 H   0  0  0  0  0  0  0  0  0  0  0  0
   54.5075   21.5579   45.7159 H   0  0  0  0  0  0  0  0  0  0  0  0
   58.2445   23.5378   45.5786 H   0  0  0  0  0  0  0  0  0  0  0  0
   56.4751   24.1124   47.9375 H   0  0  0  0  0  0  0  0  0  0  0  0
   58.2254   23.5936   47.8318 H   0  0  0  0  0  0  0  0  0  0  0  0
   57.0036   26.3216   47.6968 H   0  0  0  0  0  0  0  0  0  0  0  0
   58.5757   25.6904   48.4447 H   0  0  0  0  0  0  0  0  0  0  0  0
   60.4231   25.3113   47.4180 H   0  0  0  0  0  0  0  0  0  0  0  0
   59.9559   24.5442   45.8624 H   0  0  0  0  0  0  0  0  0  0  0  0
   60.8750   26.0876   45.8624 H   0  0  0  0  0  0  0  0  0  0  0  0
   57.3742   30.1521   47.4647 H   0  0  0  0  0  0  0  0  0  0  0  0
   58.4854   31.1919   44.6321 H   0  0  0  0  0  0  0  0  0  0  0  0
   58.1075   32.4002   45.5378 H   0  0  0  0  0  0  0  0  0  0  0  0
   61.1063   30.7318   49.8786 H   0  0  0  0  0  0  0  0  0  0  0  0
   62.4842   30.1359   48.8585 H   0  0  0  0  0  0  0  0  0  0  0  0
   63.9211   30.9040   51.8260 H   0  0  0  0  0  0  0  0  0  0  0  0
   63.7271   29.8274   50.4013 H   0  0  0  0  0  0  0  0  0  0  0  0
   64.9979   31.0969   50.4013 H   0  0  0  0  0  0  0  0  0  0  0  0
   62.5964   32.1739   52.2278 H   0  0  0  0  0  0  0  0  0  0  0  0
   62.2917   33.6131   51.1970 H   0  0  0  0  0  0  0  0  0  0  0  0
   61.1270   32.2456   51.1970 H   0  0  0  0  0  0  0  0  0  0  0  0
  1  2  1  0
  2  3  1  0
  3  4  1  0
  4  5  1  0
  5  6  1  0
  6  7  2  0
  8  6  1  1
  8  9  1  0
  9 10  1  0
 10 11  1  0
 11 12  1  1
 11 13  1  0
 13 14  1  0
 14 15  1  0
 15 16  1  0
 16 17  1  0
 17 18  1  1
 17 19  1  0
 19 20  1  0
 20 21  1  0
 21 22  2  0
 21 23  1  0
 23 24  1  0
 23 25  1  0
 23 26  1  0
 26 27  1  0
 27 28  1  0
 28 29  1  0
 29 30  1  6
 13 31  1  0
 31 32  1  0
  5 33  1  0
 33 34  1  0
 34 35  1  0
 34 36  1  0
 34  2  1  0
 31  8  1  0
 32  8  1  0
 29 11  1  0
 29 16  1  0
 26 17  1  0
  1 37  1  0
  1 38  1  0
  1 39  1  0
  2 40  1  6
  3 41  1  0
  3 42  1  0
  4 43  1  0
  4 44  1  0
  9 45  1  0
  9 46  1  0
 10 47  1  0
 10 48  1  0
 12 49  1  0
 12 50  1  0
 12 51  1  0
 13 52  1  1
 14 53  1  0
 14 54  1  0
 15 55  1  0
 15 56  1  0
 16 57  1  6
 18 58  1  0
 18 59  1  0
 18 60  1  0
 19 61  1  0
 19 62  1  0
 20 63  1  0
 20 64  1  0
 24 65  1  0
 24 66  1  0
 24 67  1  0
 25 68  1  0
 25 69  1  0
 25 70  1  0
 26 71  1  6
 27 72  1  0
 27 73  1  0
 28 74  1  0
 28 75  1  0
 30 76  1  0
 30 77  1  0
 30 78  1  0
 31 79  1  1
 32 80  1  0
 32 81  1  0
 33 82  1  0
 33 83  1  0
 35 84  1  0
 35 85  1  0
 35 86  1  0
 36 87  1  0
 36 88  1  0
 36 89  1  0
M  CHG  1   2   1
M  END
>  <UniqueID>  (32) 
31

>  <SMILES>  (32) 
C[N@H+]1CCN(C(=O)[C@@]23CCC4(C)C(CCC5C6(C)CCC(=O)C(C)(C)C6CCC54C)C2C3)CC1(C)C

>  <Energy>  (32) 
447.65038052262605

>  <Genealogy>  (32) 
C[NH+]1CCN(C(=O)C23CCC4(C)C(CCC5C6(C)CCC(=O)C(C)(C)C6CCC54C)C2C3)CC1(C)C (protonated)
C[N@H+]1CCN(C(=O)[C@@]23CCC4(C)C(CCC5C6(C)CCC(=O)C(C)(C)C6CCC54C)C2C3)CC1(C)C (chirality)
C[N@H+]1CCN(C(=O)[C@@]23CCC4(C)C(CCC5C6(C)CCC(=O)C(C)(C)C6CCC54C)C2C3)CC1(C)C (3D coordinates assigned)
C[N@H+]1CCN(C(=O)[C@@]23CCC4(C)C(CCC5C6(C)CCC(=O)C(C)(C)C6CCC54C)C2C3)CC1(C)C (nonaromatic ring conformer: 447.65038052262605 kcal/mol)

>  <smiles>  (32) 
CN1CCN(C(=O)C23CCC4(C)C(CCC5C6(C)CCC(=O)C(C)(C)C6CCC54C)C2C3)CC1(C)C

>  <score_type>  (32) 
oracle

>  <origin>  (32) 
adg

>  <m_score__min__energy>  (32) 
-8.8399999999999999

>  <m_primary>  (32) 
energy

$$$$
32:0
     RDKit          3D

 39 42  0  0  0  0  0  0  0  0999 V2000
   55.8540   29.7500   43.1080 C   0  0  0  0  0  0  0  0  0  0  0  0
   56.9440   29.7760   44.0870 N   0  0  0  0  0  0  0  0  0  0  0  0
   57.5490   28.5190   44.5430 C   0  0  0  0  0  0  0  0  0  0  0  0
   58.3610   28.7640   45.7770 C   0  0  0  0  0  0  0  0  0  0  0  0
   58.1540   28.2060   47.0190 C   0  0  0  0  0  0  0  0  0  0  0  0
   59.0240   28.7420   47.8440 O   0  0  0  0  0  0  0  0  0  0  0  0
   59.7440   29.6080   47.1600 C   0  0  0  0  0  0  0  0  0  0  0  0
   60.8250   30.4230   47.7620 C   0  0  0  0  0  0  0  0  0  0  0  0
   61.1880   30.2850   49.1160 C   0  0  0  0  0  0  0  0  0  0  0  0
   62.2160   31.0630   49.6560 C   0  0  0  0  0  0  0  0  0  0  0  0
   62.8950   31.9860   48.8560 C   0  0  0  0  0  0  0  0  0  0  0  0
   64.3010   33.0440   49.5960 Br  0  0  0  0  0  0  0  0  0  0  0  0
   62.5430   32.1310   47.5120 C   0  0  0  0  0  0  0  0  0  0  0  0
   61.5150   31.3570   46.9670 C   0  0  0  0  0  0  0  0  0  0  0  0
   59.3610   29.6570   45.8650 N   0  0  0  0  0  0  0  0  0  0  0  0
   57.4720   31.0370   44.5410 C   0  0  0  0  0  0  0  0  0  0  0  0
   57.4880   31.4060   45.8470 N   0  0  0  0  0  0  0  0  0  0  0  0
   58.0430   32.6350   46.0000 C   0  0  0  0  0  0  0  0  0  0  0  0
   58.1990   33.2820   47.2270 C   0  0  0  0  0  0  0  0  0  0  0  0
   58.7910   34.5560   47.2470 C   0  0  0  0  0  0  0  0  0  0  0  0
   59.2190   35.1650   46.0490 C   0  0  0  0  0  0  0  0  0  0  0  0
   59.0580   34.5040   44.8220 C   0  0  0  0  0  0  0  0  0  0  0  0
   58.4660   33.2430   44.8280 C   0  0  0  0  0  0  0  0  0  0  0  0
   58.1470   32.2260   43.5320 S   0  0  0  0  0  0  0  0  0  0  0  0
   54.8886   29.7270   43.6347 H   0  0  0  0  0  0  0  0  0  0  0  0
   55.9062   30.6496   42.4772 H   0  0  0  0  0  0  0  0  0  0  0  0
   55.9490   28.8539   42.4772 H   0  0  0  0  0  0  0  0  0  0  0  0
   56.7546   27.7919   44.7672 H   0  0  0  0  0  0  0  0  0  0  0  0
   58.2023   28.1228   43.7516 H   0  0  0  0  0  0  0  0  0  0  0  0
   57.3976   27.4491   47.2737 H   0  0  0  0  0  0  0  0  0  0  0  0
   60.6591   29.5603   49.7525 H   0  0  0  0  0  0  0  0  0  0  0  0
   62.4916   30.9483   50.7147 H   0  0  0  0  0  0  0  0  0  0  0  0
   63.0767   32.8567   46.8807 H   0  0  0  0  0  0  0  0  0  0  0  0
   61.2430   31.4788   45.9081 H   0  0  0  0  0  0  0  0  0  0  0  0
   59.7290   30.2550   45.0940 H   0  0  0  0  0  0  0  0  0  0  0  0
   57.8651   32.8039   48.1597 H   0  0  0  0  0  0  0  0  0  0  0  0
   58.9217   35.0824   48.2040 H   0  0  0  0  0  0  0  0  0  0  0  0
   59.6812   36.1628   46.0768 H   0  0  0  0  0  0  0  0  0  0  0  0
   59.3899   34.9684   43.8817 H   0  0  0  0  0  0  0  0  0  0  0  0
  1  2  1  0
  2  3  1  0
  3  4  1  0
  4  5  2  0
  5  6  1  0
  6  7  1  0
  7  8  1  0
  8  9  2  0
  9 10  1  0
 10 11  2  0
 11 12  1  0
 11 13  1  0
 13 14  2  0
  7 15  2  0
  2 16  1  0
 16 17  2  0
 17 18  1  0
 18 19  2  0
 19 20  1  0
 20 21  2  0
 21 22  1  0
 22 23  2  0
 23 24  1  0
 15  4  1  0
 24 16  1  0
 14  8  1  0
 23 18  1  0
  1 25  1  0
  1 26  1  0
  1 27  1  0
  3 28  1  0
  3 29  1  0
  5 30  1  0
  9 31  1  0
 10 32  1  0
 13 33  1  0
 14 34  1  0
 15 35  1  0
 19 36  1  0
 20 37  1  0
 21 38  1  0
 22 39  1  0
M  CHG  1  15   1
M  END
>  <UniqueID>  (33) 
32

>  <SMILES>  (33) 
CN(Cc1coc(-c2ccc(Br)cc2)[nH+]1)c1nc2ccccc2s1

>  <Energy>  (33) 
105.82388254213053

>  <Genealogy>  (33) 
CN(Cc1coc(-c2ccc(Br)cc2)[nH+]1)c1nc2ccccc2s1 (protonated)
CN(Cc1coc(-c2ccc(Br)cc2)[nH+]1)c1nc2ccccc2s1 (3D coordinates assigned)
CN(Cc1coc(-c2ccc(Br)cc2)[nH+]1)c1nc2ccccc2s1 (optimized conformer: 105.82388254213053 kcal/mol)

>  <smiles>  (33) 
CN(Cc1coc(-c2ccc(Br)cc2)n1)c1nc2ccccc2s1

>  <score_type>  (33) 
oracle

>  <origin>  (33) 
adg

>  <m_score__min__energy>  (33) 
-6.5899999999999999

>  <m_primary>  (33) 
energy

$$$$
33:0
     RDKit          3D

 45 48  0  0  0  0  0  0  0  0999 V2000
   60.3421   35.1419   45.4750 H   0  0  0  0  0  0  0  0  0  0  0  0
   60.2080   34.4210   46.2950 C   0  0  0  0  0  0  0  0  0  0  0  0
   58.9730   33.9640   46.5360 C   0  0  0  0  0  0  0  0  0  0  0  0
   58.2046   34.6675   46.8892 H   0  0  0  0  0  0  0  0  0  0  0  0
   58.6090   32.5460   46.3430 C   0  0  0  0  0  0  0  0  0  0  0  0
   58.5220   31.5060   47.2820 C   0  0  0  0  0  0  0  0  0  0  0  0
   58.9040   31.5400   48.7090 C   0  0  0  0  0  0  0  0  0  0  0  0
   58.5920   32.6670   49.4830 C   0  0  0  0  0  0  0  0  0  0  0  0
   58.0729   33.5203   49.0222 H   0  0  0  0  0  0  0  0  0  0  0  0
   58.9370   32.7120   50.8370 C   0  0  0  0  0  0  0  0  0  0  0  0
   58.6982   33.6063   51.4313 H   0  0  0  0  0  0  0  0  0  0  0  0
   59.5840   31.6280   51.4430 C   0  0  0  0  0  0  0  0  0  0  0  0
   59.9150   31.7250   52.8030 O   0  0  0  0  0  0  0  0  0  0  0  0
   58.9630   31.7480   53.8600 C   0  0  0  0  0  0  0  0  0  0  0  0
   59.4879   31.7353   54.8266 H   0  0  0  0  0  0  0  0  0  0  0  0
   58.3542   32.6611   53.7853 H   0  0  0  0  0  0  0  0  0  0  0  0
   58.3108   30.8653   53.7853 H   0  0  0  0  0  0  0  0  0  0  0  0
   59.8730   30.4850   50.6740 C   0  0  0  0  0  0  0  0  0  0  0  0
   60.3737   29.6238   51.1405 H   0  0  0  0  0  0  0  0  0  0  0  0
   59.5270   30.4390   49.3210 C   0  0  0  0  0  0  0  0  0  0  0  0
   59.7435   29.5358   48.7316 H   0  0  0  0  0  0  0  0  0  0  0  0
   58.0650   30.4100   46.7000 O   0  0  0  0  0  0  0  0  0  0  0  0
   57.8730   30.6770   45.4320 C   0  0  0  0  0  0  0  0  0  0  0  0
   57.3980   29.8150   44.4460 C   0  0  0  0  0  0  0  0  0  0  0  0
   57.1407   28.7715   44.6802 H   0  0  0  0  0  0  0  0  0  0  0  0
   57.2580   30.3220   43.1410 C   0  0  0  0  0  0  0  0  0  0  0  0
   56.8885   29.6678   42.3376 H   0  0  0  0  0  0  0  0  0  0  0  0
   57.5890   31.6670   42.8550 C   0  0  0  0  0  0  0  0  0  0  0  0
   57.3850   32.3400   41.0800 Br  0  0  0  0  0  0  0  0  0  0  0  0
   58.0660   32.5130   43.8740 C   0  0  0  0  0  0  0  0  0  0  0  0
   58.3225   33.5624   43.6668 H   0  0  0  0  0  0  0  0  0  0  0  0
   58.2030   31.9780   45.1550 C   0  0  0  0  0  0  0  0  0  0  0  0
   61.4060   34.0130   47.0680 C   0  0  0  0  0  0  0  0  0  0  0  0
   61.4640   34.0840   48.4730 C   0  0  0  0  0  0  0  0  0  0  0  0
   60.5980   34.4606   49.0372 H   0  0  0  0  0  0  0  0  0  0  0  0
   62.6150   33.6790   49.1560 C   0  0  0  0  0  0  0  0  0  0  0  0
   62.6524   33.7445   50.2534 H   0  0  0  0  0  0  0  0  0  0  0  0
   63.7210   33.1900   48.4480 C   0  0  0  0  0  0  0  0  0  0  0  0
   64.8970   32.7770   49.1480 N   0  0  0  0  0  0  0  0  0  0  0  0
   64.8350   32.3890   50.1170 H   0  0  0  0  0  0  0  0  0  0  0  0
   65.8390   32.8530   48.7040 H   0  0  0  0  0  0  0  0  0  0  0  0
   63.6640   33.1040   47.0520 C   0  0  0  0  0  0  0  0  0  0  0  0
   64.5283   32.7185   46.4914 H   0  0  0  0  0  0  0  0  0  0  0  0
   62.5130   33.5060   46.3670 C   0  0  0  0  0  0  0  0  0  0  0  0
   62.4740   33.4246   45.2707 H   0  0  0  0  0  0  0  0  0  0  0  0
  1  2  1  0
  2  3  2  0
  3  4  1  0
  3  5  1  0
  5  6  2  0
  6  7  1  0
  7  8  2  0
  8  9  1  0
  8 10  1  0
 10 11  1  0
 10 12  2  0
 12 13  1  0
 13 14  1  0
 14 15  1  0
 14 16  1  0
 14 17  1  0
 12 18  1  0
 18 19  1  0
 18 20  2  0
 20 21  1  0
  6 22  1  0
 22 23  1  0
 23 24  2  0
 24 25  1  0
 24 26  1  0
 26 27  1  0
 26 28  2  0
 28 29  1  0
 28 30  1  0
 30 31  1  0
 30 32  2  0
  2 33  1  0
 33 34  2  0
 34 35  1  0
 34 36  1  0
 36 37  1  0
 36 38  2  0
 38 39  1  0
 39 40  1  0
 39 41  1  0
 38 42  1  0
 42 43  1  0
 42 44  2  0
 44 45  1  0
 32  5  1  0
 44 33  1  0
 20  7  1  0
 32 23  1  0
M  END
>  <UniqueID>  (34) 
33

>  <SMILES>  (34) 
COc1ccc(-c2oc3ccc(Br)cc3c2/C=C/c2ccc(N)cc2)cc1

>  <Energy>  (34) 
90.74961350038427

>  <Genealogy>  (34) 
COc1ccc(-c2oc3ccc(Br)cc3c2/C=C/c2ccc(N)cc2)cc1 (cis-trans isomerization)
COc1ccc(-c2oc3ccc(Br)cc3c2/C=C/c2ccc(N)cc2)cc1 (3D coordinates assigned)
COc1ccc(-c2oc3ccc(Br)cc3c2/C=C/c2ccc(N)cc2)cc1 (optimized conformer: 90.74961350038427 kcal/mol)

>  <smiles>  (34) 
COc1ccc(-c2oc3ccc(Br)cc3c2C=Cc2ccc(N)cc2)cc1

>  <score_type>  (34) 
oracle

>  <origin>  (34) 
adg

>  <m_score__min__energy>  (34) 
-8.2200000000000006

>  <m_primary>  (34) 
energy

$$$$
34:0
     RDKit          3D

 43 45  0  0  0  0  0  0  0  0999 V2000
   56.2130   19.9740   44.2480 C   0  0  0  0  0  0  0  0  0  0  0  0
   56.2920   21.1080   43.3910 O   0  0  0  0  0  0  0  0  0  0  0  0
   56.7510   22.3710   43.7910 C   0  0  0  0  0  0  0  0  0  0  0  0
   57.6960   22.5440   44.8150 C   0  0  0  0  0  0  0  0  0  0  0  0
   58.1150   23.8280   45.1680 C   0  0  0  0  0  0  0  0  0  0  0  0
   57.5950   24.9370   44.4860 C   0  0  0  0  0  0  0  0  0  0  0  0
   58.0120   26.3090   44.8570 C   0  0  0  0  0  0  0  0  0  0  0  0
   58.1190   26.6260   46.2200 C   0  0  0  0  0  0  0  0  0  0  0  0
   58.5350   27.8960   46.6250 C   0  0  0  0  0  0  0  0  0  0  0  0
   58.8550   28.8750   45.6740 C   0  0  0  0  0  0  0  0  0  0  0  0
   59.2990   30.2230   46.1020 C   0  0  0  0  0  0  0  0  0  0  0  0
   60.5340   30.3670   46.7610 C   0  0  0  0  0  0  0  0  0  0  0  0
   60.9800   31.6270   47.1630 C   0  0  0  0  0  0  0  0  0  0  0  0
   60.2000   32.7560   46.9170 C   0  0  0  0  0  0  0  0  0  0  0  0
   58.9680   32.6310   46.2730 C   0  0  0  0  0  0  0  0  0  0  0  0
   58.5000   31.3650   45.8650 C   0  0  0  0  0  0  0  0  0  0  0  0
   57.2500   31.2060   45.2440 O   0  0  0  0  0  0  0  0  0  0  0  0
   57.0300   31.2670   43.8380 C   0  0  0  0  0  0  0  0  0  0  0  0
   58.7260   28.5720   44.3090 C   0  0  0  0  0  0  0  0  0  0  0  0
   58.2900   27.3030   43.8880 C   0  0  0  0  0  0  0  0  0  0  0  0
   58.1480   27.0390   42.4120 C   0  0  0  0  0  0  0  0  0  0  0  0
   56.6670   24.7490   43.5040 N   0  0  0  0  0  0  0  0  0  0  0  0
   56.2470   23.5050   43.1460 C   0  0  0  0  0  0  0  0  0  0  0  0
   56.2360   20.3047   45.2968 H   0  0  0  0  0  0  0  0  0  0  0  0
   55.2750   19.4329   44.0547 H   0  0  0  0  0  0  0  0  0  0  0  0
   57.0669   19.3081   44.0547 H   0  0  0  0  0  0  0  0  0  0  0  0
   58.1061   21.6680   45.3389 H   0  0  0  0  0  0  0  0  0  0  0  0
   58.8482   23.9686   45.9758 H   0  0  0  0  0  0  0  0  0  0  0  0
   57.8727   25.8666   46.9767 H   0  0  0  0  0  0  0  0  0  0  0  0
   58.6121   28.1297   47.6971 H   0  0  0  0  0  0  0  0  0  0  0  0
   61.1527   29.4797   46.9609 H   0  0  0  0  0  0  0  0  0  0  0  0
   61.9484   31.7293   47.6747 H   0  0  0  0  0  0  0  0  0  0  0  0
   60.5565   33.7480   47.2313 H   0  0  0  0  0  0  0  0  0  0  0  0
   58.3580   33.5263   46.0824 H   0  0  0  0  0  0  0  0  0  0  0  0
   55.9869   31.5562   43.6423 H   0  0  0  0  0  0  0  0  0  0  0  0
   57.7066   32.0114   43.3930 H   0  0  0  0  0  0  0  0  0  0  0  0
   57.2266   30.2805   43.3930 H   0  0  0  0  0  0  0  0  0  0  0  0
   58.9695   29.3382   43.5582 H   0  0  0  0  0  0  0  0  0  0  0  0
   57.6320   26.0797   42.2591 H   0  0  0  0  0  0  0  0  0  0  0  0
   57.5632   27.8477   41.9495 H   0  0  0  0  0  0  0  0  0  0  0  0
   59.1451   26.9968   41.9495 H   0  0  0  0  0  0  0  0  0  0  0  0
   56.2700   25.5730   42.9970 H   0  0  0  0  0  0  0  0  0  0  0  0
   55.5047   23.3904   42.3424 H   0  0  0  0  0  0  0  0  0  0  0  0
  1  2  1  0
  2  3  1  0
  3  4  2  0
  4  5  1  0
  5  6  2  0
  6  7  1  0
  7  8  2  0
  8  9  1  0
  9 10  2  0
 10 11  1  0
 11 12  2  0
 12 13  1  0
 13 14  2  0
 14 15  1  0
 15 16  2  0
 16 17  1  0
 17 18  1  0
 10 19  1  0
 19 20  2  0
 20 21  1  0
  6 22  1  0
 22 23  2  0
 23  3  1  0
 20  7  1  0
 16 11  1  0
  1 24  1  0
  1 25  1  0
  1 26  1  0
  4 27  1  0
  5 28  1  0
  8 29  1  0
  9 30  1  0
 12 31  1  0
 13 32  1  0
 14 33  1  0
 15 34  1  0
 18 35  1  0
 18 36  1  0
 18 37  1  0
 19 38  1  0
 21 39  1  0
 21 40  1  0
 21 41  1  0
 22 42  1  0
 23 43  1  0
M  CHG  1  22   1
M  END
>  <UniqueID>  (35) 
34

>  <SMILES>  (35) 
COc1ccc(-c2ccc(-c3ccccc3OC)cc2C)[nH+]c1

>  <Energy>  (35) 
57.69923299455377

>  <Genealogy>  (35) 
COc1ccc(-c2ccc(-c3ccccc3OC)cc2C)[nH+]c1 (protonated)
COc1ccc(-c2ccc(-c3ccccc3OC)cc2C)[nH+]c1 (3D coordinates assigned)
COc1ccc(-c2ccc(-c3ccccc3OC)cc2C)[nH+]c1 (optimized conformer: 57.69923299455377 kcal/mol)

>  <smiles>  (35) 
COc1ccc(-c2ccc(-c3ccccc3OC)cc2C)nc1

>  <score_type>  (35) 
oracle

>  <origin>  (35) 
adg

>  <m_score__min__energy>  (35) 
-6.2400000000000002

>  <m_primary>  (35) 
energy

$$$$
35:0
     RDKit          3D

 38 41  0  0  0  0  0  0  0  0999 V2000
   59.6470   34.1970   50.2480 C   0  0  0  0  0  0  0  0  0  0  0  0
   60.6710   34.5980   49.3430 O   0  0  0  0  0  0  0  0  0  0  0  0
   61.7850   33.8150   49.0010 C   0  0  0  0  0  0  0  0  0  0  0  0
   62.9970   33.8990   49.7150 C   0  0  0  0  0  0  0  0  0  0  0  0
   64.1040   33.1420   49.3220 C   0  0  0  0  0  0  0  0  0  0  0  0
   64.0170   32.2980   48.2150 C   0  0  0  0  0  0  0  0  0  0  0  0
   62.8200   32.2000   47.5030 C   0  0  0  0  0  0  0  0  0  0  0  0
   61.6940   32.9400   47.8970 C   0  0  0  0  0  0  0  0  0  0  0  0
   60.4720   32.8130   47.1530 N   0  0  0  0  0  0  0  0  0  0  0  0
   59.6050   33.7980   46.9580 N   0  0  0  0  0  0  0  0  0  0  0  0
   58.5870   33.3530   46.1830 C   0  0  0  0  0  0  0  0  0  0  0  0
   57.4410   34.2180   45.7630 C   0  0  0  0  0  0  0  0  0  0  0  0
   58.8320   32.0180   45.8580 C   0  0  0  0  0  0  0  0  0  0  0  0
   58.1870   31.0390   45.0800 C   0  0  0  0  0  0  0  0  0  0  0  0
   56.9650   31.2450   44.4160 C   0  0  0  0  0  0  0  0  0  0  0  0
   56.3930   30.2170   43.6610 C   0  0  0  0  0  0  0  0  0  0  0  0
   57.0270   28.9780   43.5580 C   0  0  0  0  0  0  0  0  0  0  0  0
   58.2420   28.7530   44.2090 C   0  0  0  0  0  0  0  0  0  0  0  0
   58.8320   29.7720   44.9720 C   0  0  0  0  0  0  0  0  0  0  0  0
   60.0660   29.5510   45.6280 C   0  0  0  0  0  0  0  0  0  0  0  0
   60.6440   30.5370   46.3700 N   0  0  0  0  0  0  0  0  0  0  0  0
   60.0190   31.7350   46.4870 C   0  0  0  0  0  0  0  0  0  0  0  0
   59.9970   34.3341   51.2818 H   0  0  0  0  0  0  0  0  0  0  0  0
   58.7491   34.8099   50.0806 H   0  0  0  0  0  0  0  0  0  0  0  0
   59.4041   33.1373   50.0806 H   0  0  0  0  0  0  0  0  0  0  0  0
   63.0722   34.5648   50.5874 H   0  0  0  0  0  0  0  0  0  0  0  0
   65.0455   33.2119   49.8866 H   0  0  0  0  0  0  0  0  0  0  0  0
   64.8921   31.7092   47.9027 H   0  0  0  0  0  0  0  0  0  0  0  0
   62.7588   31.5379   46.6267 H   0  0  0  0  0  0  0  0  0  0  0  0
   59.7030   34.7620   47.3510 H   0  0  0  0  0  0  0  0  0  0  0  0
   56.9277   34.6054   46.6554 H   0  0  0  0  0  0  0  0  0  0  0  0
   57.8174   35.0592   45.1624 H   0  0  0  0  0  0  0  0  0  0  0  0
   56.7352   33.6254   45.1624 H   0  0  0  0  0  0  0  0  0  0  0  0
   56.4575   32.2181   44.4908 H   0  0  0  0  0  0  0  0  0  0  0  0
   55.4366   30.3858   43.1445 H   0  0  0  0  0  0  0  0  0  0  0  0
   56.5680   28.1756   42.9618 H   0  0  0  0  0  0  0  0  0  0  0  0
   58.7375   27.7747   44.1233 H   0  0  0  0  0  0  0  0  0  0  0  0
   60.5635   28.5740   45.5382 H   0  0  0  0  0  0  0  0  0  0  0  0
  1  2  1  0
  2  3  1  0
  3  4  2  0
  4  5  1  0
  5  6  2  0
  6  7  1  0
  7  8  2  0
  8  9  1  0
  9 10  1  0
 10 11  2  0
 11 12  1  0
 11 13  1  0
 13 14  2  0
 14 15  1  0
 15 16  2  0
 16 17  1  0
 17 18  2  0
 18 19  1  0
 19 20  2  0
 20 21  1  0
 21 22  2  0
  8  3  1  0
 22  9  1  0
 22 13  1  0
 19 14  1  0
  1 23  1  0
  1 24  1  0
  1 25  1  0
  4 26  1  0
  5 27  1  0
  6 28  1  0
  7 29  1  0
 10 30  1  0
 12 31  1  0
 12 32  1  0
 12 33  1  0
 15 34  1  0
 16 35  1  0
 17 36  1  0
 18 37  1  0
 20 38  1  0
M  CHG  1  10   1
M  END
>  <UniqueID>  (36) 
35

>  <SMILES>  (36) 
COc1ccccc1-n1[nH+]c(C)c2c3ccccc3cnc21

>  <Energy>  (36) 
93.38586666695664

>  <Genealogy>  (36) 
COc1ccccc1-n1[nH+]c(C)c2c3ccccc3cnc21 (protonated)
COc1ccccc1-n1[nH+]c(C)c2c3ccccc3cnc21 (3D coordinates assigned)
COc1ccccc1-n1[nH+]c(C)c2c3ccccc3cnc21 (optimized conformer: 93.38586666695664 kcal/mol)

>  <smiles>  (36) 
COc1ccccc1-n1nc(C)c2c3ccccc3cnc21

>  <score_type>  (36) 
oracle

>  <origin>  (36) 
adg

>  <m_score__min__energy>  (36) 
-6.7400000000000002

>  <m_primary>  (36) 
energy

$$$$
36:0
     RDKit          3D

 36 37  0  0  0  0  0  0  0  0999 V2000
   59.6400   33.7020   49.7690 C   0  0  0  0  0  0  0  0  0  0  0  0
   60.0750   32.2370   49.6220 C   0  0  0  0  0  0  0  0  0  0  0  0
   58.9590   31.3020   49.3570 N   0  0  0  0  0  0  0  0  0  0  0  0
   58.1490   31.0420   50.5600 C   0  0  0  0  0  0  0  0  0  0  0  0
   59.3970   30.0510   48.6990 C   0  0  0  0  0  0  0  0  0  0  0  0
   60.0950   30.3550   47.3660 C   0  0  0  0  0  0  0  0  0  0  0  0
   59.1360   30.8970   46.3790 N   0  0  0  0  0  0  0  0  0  0  0  0
   58.2030   30.0690   45.7970 C   0  0  0  0  0  0  0  0  0  0  0  0
   58.1790   28.8390   46.0870 O   0  0  0  0  0  0  0  0  0  0  0  0
   57.2610   30.5750   44.8780 C   0  0  0  0  0  0  0  0  0  0  0  0
   56.2580   29.6830   44.2520 C   0  0  0  0  0  0  0  0  0  0  0  0
   55.2120   29.3470   44.8690 O   0  0  0  0  0  0  0  0  0  0  0  0
   57.2840   31.9390   44.5660 C   0  0  0  0  0  0  0  0  0  0  0  0
   58.2250   32.7770   45.1610 C   0  0  0  0  0  0  0  0  0  0  0  0
   58.2600   34.1470   44.8690 C   0  0  0  0  0  0  0  0  0  0  0  0
   59.2080   34.9640   45.4850 C   0  0  0  0  0  0  0  0  0  0  0  0
   60.1120   34.4030   46.3860 C   0  0  0  0  0  0  0  0  0  0  0  0
   60.0660   33.0720   46.6580 N   0  0  0  0  0  0  0  0  0  0  0  0
   59.1540   32.2390   46.0770 C   0  0  0  0  0  0  0  0  0  0  0  0
   59.5644   33.9567   50.8364 H   0  0  0  0  0  0  0  0  0  0  0  0
   60.3830   34.3551   49.2879 H   0  0  0  0  0  0  0  0  0  0  0  0
   58.6610   33.8438   49.2879 H   0  0  0  0  0  0  0  0  0  0  0  0
   60.7882   32.1699   48.7872 H   0  0  0  0  0  0  0  0  0  0  0  0
   60.5191   31.9386   50.5831 H   0  0  0  0  0  0  0  0  0  0  0  0
   58.7537   31.2361   51.4582 H   0  0  0  0  0  0  0  0  0  0  0  0
   57.2698   31.7031   50.5600 H   0  0  0  0  0  0  0  0  0  0  0  0
   57.8188   29.9927   50.5600 H   0  0  0  0  0  0  0  0  0  0  0  0
   60.0977   29.5210   49.3609 H   0  0  0  0  0  0  0  0  0  0  0  0
   58.5129   29.4271   48.5012 H   0  0  0  0  0  0  0  0  0  0  0  0
   60.8918   31.0938   47.5371 H   0  0  0  0  0  0  0  0  0  0  0  0
   60.5166   29.4198   46.9690 H   0  0  0  0  0  0  0  0  0  0  0  0
   56.4289   29.3078   43.2322 H   0  0  0  0  0  0  0  0  0  0  0  0
   56.5578   32.3505   43.8496 H   0  0  0  0  0  0  0  0  0  0  0  0
   57.5416   34.5772   44.1557 H   0  0  0  0  0  0  0  0  0  0  0  0
   59.2420   36.0406   45.2620 H   0  0  0  0  0  0  0  0  0  0  0  0
   60.8635   35.0384   46.8775 H   0  0  0  0  0  0  0  0  0  0  0  0
  1  2  1  0
  2  3  1  0
  3  4  1  0
  3  5  1  0
  5  6  1  0
  6  7  1  0
  7  8  1  0
  8  9  2  0
  8 10  1  0
 10 11  1  0
 11 12  2  0
 10 13  2  0
 13 14  1  0
 14 15  2  0
 15 16  1  0
 16 17  2  0
 17 18  1  0
 18 19  2  0
 19  7  1  0
 19 14  1  0
  1 20  1  0
  1 21  1  0
  1 22  1  0
  2 23  1  0
  2 24  1  0
  4 25  1  0
  4 26  1  0
  4 27  1  0
  5 28  1  0
  5 29  1  0
  6 30  1  0
  6 31  1  0
 11 32  1  0
 13 33  1  0
 15 34  1  0
 16 35  1  0
 17 36  1  0
M  END
>  <UniqueID>  (37) 
36

>  <SMILES>  (37) 
CCN(C)CCn1c(=O)c(C=O)cc2cccnc21

>  <Energy>  (37) 
44.21342844512319

>  <Genealogy>  (37) 
CCN(C)CCn1c(=O)c(C=O)cc2cccnc21 (3D coordinates assigned)
CCN(C)CCn1c(=O)c(C=O)cc2cccnc21 (optimized conformer: 44.21342844512319 kcal/mol)

>  <smiles>  (37) 
CCN(C)CCn1c(=O)c(C=O)cc2cccnc21

>  <score_type>  (37) 
oracle

>  <origin>  (37) 
adg

>  <m_score__min__energy>  (37) 
-6.3200000000000003

>  <m_primary>  (37) 
energy

$$$$
37:0
     RDKit          3D

 50 53  0  0  0  0  0  0  0  0999 V2000
   66.5410   32.4620   50.3760 C   0  0  0  0  0  0  0  0  0  0  0  0
   65.6360   32.9570   49.3950 O   0  0  0  0  0  0  0  0  0  0  0  0
   64.2600   33.1450   49.6050 C   0  0  0  0  0  0  0  0  0  0  0  0
   63.6860   33.0870   50.8890 C   0  0  0  0  0  0  0  0  0  0  0  0
   62.3140   33.2880   51.0600 C   0  0  0  0  0  0  0  0  0  0  0  0
   61.7690   33.2090   52.3000 N   0  0  0  0  0  0  0  0  0  0  0  0
   60.4370   33.3850   52.4940 C   0  0  0  0  0  0  0  0  0  0  0  0
   59.6240   33.6590   51.4410 N   0  0  0  0  0  0  0  0  0  0  0  0
   60.1170   33.7760   50.1780 C   0  0  0  0  0  0  0  0  0  0  0  0
   59.2340   34.0940   49.1370 O   0  0  0  0  0  0  0  0  0  0  0  0
   58.9260   33.2370   48.0680 C   0  0  0  0  0  0  0  0  0  0  0  0
   58.1600   33.6580   46.9680 C   0  0  0  0  0  0  0  0  0  0  0  0
   57.8790   32.7750   45.9240 C   0  0  0  0  0  0  0  0  0  0  0  0
   58.3380   31.4440   45.9650 C   0  0  0  0  0  0  0  0  0  0  0  0
   59.1410   31.0370   47.0510 C   0  0  0  0  0  0  0  0  0  0  0  0
   59.4020   31.9250   48.1070 C   0  0  0  0  0  0  0  0  0  0  0  0
   59.6980   29.6430   47.0850 C   0  0  0  0  0  0  0  0  0  0  0  0
   60.0200   29.1810   45.6670 C   0  0  0  0  0  0  0  0  0  0  0  0
   58.7640   29.2250   44.7920 C   0  0  0  0  0  0  0  0  0  0  0  0
   58.0490   30.5120   44.8890 N   0  0  0  0  0  0  0  0  0  0  0  0
   56.8870   30.6920   44.0520 C   0  0  0  0  0  0  0  0  0  0  0  0
   57.0230   31.1400   42.6300 C   0  0  0  0  0  0  0  0  0  0  0  0
   55.7400   30.4080   44.4930 O   0  0  0  0  0  0  0  0  0  0  0  0
   61.4940   33.5620   49.9480 C   0  0  0  0  0  0  0  0  0  0  0  0
   62.0620   33.5910   48.6630 C   0  0  0  0  0  0  0  0  0  0  0  0
   63.4460   33.3970   48.4890 C   0  0  0  0  0  0  0  0  0  0  0  0
   64.0490   33.4450   47.2220 O   0  0  0  0  0  0  0  0  0  0  0  0
   63.3890   33.8520   46.0270 C   0  0  0  0  0  0  0  0  0  0  0  0
   66.1471   32.6775   51.3802 H   0  0  0  0  0  0  0  0  0  0  0  0
   66.6566   31.3750   50.2529 H   0  0  0  0  0  0  0  0  0  0  0  0
   67.5186   32.9510   50.2529 H   0  0  0  0  0  0  0  0  0  0  0  0
   64.3216   32.8822   51.7631 H   0  0  0  0  0  0  0  0  0  0  0  0
   60.0150   33.3055   53.5067 H   0  0  0  0  0  0  0  0  0  0  0  0
   58.6030   33.8020   51.6100 H   0  0  0  0  0  0  0  0  0  0  0  0
   57.7795   34.6894   46.9292 H   0  0  0  0  0  0  0  0  0  0  0  0
   57.2930   33.1223   45.0603 H   0  0  0  0  0  0  0  0  0  0  0  0
   59.9873   31.5836   48.9735 H   0  0  0  0  0  0  0  0  0  0  0  0
   60.6163   29.6312   47.6904 H   0  0  0  0  0  0  0  0  0  0  0  0
   58.9537   28.9649   47.5280 H   0  0  0  0  0  0  0  0  0  0  0  0
   60.7855   29.8427   45.2355 H   0  0  0  0  0  0  0  0  0  0  0  0
   60.3918   28.1464   45.7050 H   0  0  0  0  0  0  0  0  0  0  0  0
   59.0587   29.0639   43.7445 H   0  0  0  0  0  0  0  0  0  0  0  0
   58.0827   28.4381   45.1478 H   0  0  0  0  0  0  0  0  0  0  0  0
   57.3424   32.1923   42.6061 H   0  0  0  0  0  0  0  0  0  0  0  0
   57.7727   30.5175   42.1196 H   0  0  0  0  0  0  0  0  0  0  0  0
   56.0538   31.0393   42.1196 H   0  0  0  0  0  0  0  0  0  0  0  0
   61.4209   33.7665   47.7866 H   0  0  0  0  0  0  0  0  0  0  0  0
   62.4786   34.4134   46.2839 H   0  0  0  0  0  0  0  0  0  0  0  0
   64.0608   34.4929   45.4372 H   0  0  0  0  0  0  0  0  0  0  0  0
   63.1179   32.9640   45.4372 H   0  0  0  0  0  0  0  0  0  0  0  0
  1  2  1  0
  2  3  1  0
  3  4  2  0
  4  5  1  0
  5  6  2  0
  6  7  1  0
  7  8  2  0
  8  9  1  0
  9 10  1  0
 10 11  1  0
 11 12  2  0
 12 13  1  0
 13 14  2  0
 14 15  1  0
 15 16  2  0
 15 17  1  0
 17 18  1  0
 18 19  1  0
 19 20  1  0
 20 21  1  0
 21 22  1  0
 21 23  2  0
  9 24  2  0
 24 25  1  0
 25 26  2  0
 26 27  1  0
 27 28  1  0
 26  3  1  0
 24  5  1  0
 16 11  1  0
 20 14  1  0
  1 29  1  0
  1 30  1  0
  1 31  1  0
  4 32  1  0
  7 33  1  0
  8 34  1  0
 12 35  1  0
 13 36  1  0
 16 37  1  0
 17 38  1  0
 17 39  1  0
 18 40  1  0
 18 41  1  0
 19 42  1  0
 19 43  1  0
 22 44  1  0
 22 45  1  0
 22 46  1  0
 25 47  1  0
 28 48  1  0
 28 49  1  0
 28 50  1  0
M  CHG  1   8   1
M  END
>  <UniqueID>  (38) 
37

>  <SMILES>  (38) 
COc1cc2nc[nH+]c(Oc3ccc4c(c3)CCCN4C(C)=O)c2cc1OC

>  <Energy>  (38) 
68.95372350536826

>  <Genealogy>  (38) 
COc1cc2nc[nH+]c(Oc3ccc4c(c3)CCCN4C(C)=O)c2cc1OC (protonated)
COc1cc2nc[nH+]c(Oc3ccc4c(c3)CCCN4C(C)=O)c2cc1OC (3D coordinates assigned)
COc1cc2nc[nH+]c(Oc3ccc4c(c3)CCCN4C(C)=O)c2cc1OC (nonaromatic ring conformer: 68.95372350536826 kcal/mol)

>  <smiles>  (38) 
COc1cc2ncnc(Oc3ccc4c(c3)CCCN4C(C)=O)c2cc1OC

>  <score_type>  (38) 
oracle

>  <origin>  (38) 
adg

>  <m_score__min__energy>  (38) 
-6.3700000000000001

>  <m_primary>  (38) 
energy

$$$$
38:0
     RDKit          3D

 43 44  0  0  0  0  0  0  0  0999 V2000
   57.6460   28.2460   44.1300 C   0  0  0  0  0  0  0  0  0  0  0  0
   56.9970   29.0980   45.2170 C   0  0  0  0  0  0  0  0  0  0  0  0
   56.4580   30.3460   44.6360 N   0  0  0  0  0  0  0  0  0  0  0  0
   55.8630   30.0750   43.3140 C   0  0  0  0  0  0  0  0  0  0  0  0
   57.4950   31.3990   44.5340 C   0  0  0  0  0  0  0  0  0  0  0  0
   57.0230   32.7010   45.1950 C   0  0  0  0  0  0  0  0  0  0  0  0
   57.6740   32.9060   46.4510 O   0  0  0  0  0  0  0  0  0  0  0  0
   59.0590   33.0150   46.6580 C   0  0  0  0  0  0  0  0  0  0  0  0
   59.7990   34.1250   46.2020 C   0  0  0  0  0  0  0  0  0  0  0  0
   61.1690   34.2170   46.4610 C   0  0  0  0  0  0  0  0  0  0  0  0
   61.8180   33.2040   47.1660 C   0  0  0  0  0  0  0  0  0  0  0  0
   63.6880   33.3430   47.5310 Br  0  0  0  0  0  0  0  0  0  0  0  0
   61.1030   32.0870   47.6000 C   0  0  0  0  0  0  0  0  0  0  0  0
   59.7270   31.9740   47.3390 C   0  0  0  0  0  0  0  0  0  0  0  0
   58.9710   30.7660   47.8360 C   0  0  0  0  0  0  0  0  0  0  0  0
   59.5220   29.5060   47.2240 C   0  0  0  0  0  0  0  0  0  0  0  0
   60.1930   29.5460   45.9890 C   0  0  0  0  0  0  0  0  0  0  0  0
   60.6680   28.3670   45.4080 C   0  0  0  0  0  0  0  0  0  0  0  0
   60.4800   27.1410   46.0540 C   0  0  0  0  0  0  0  0  0  0  0  0
   59.8150   27.0940   47.2820 C   0  0  0  0  0  0  0  0  0  0  0  0
   59.3370   28.2700   47.8660 C   0  0  0  0  0  0  0  0  0  0  0  0
   58.2496   27.4536   44.5967 H   0  0  0  0  0  0  0  0  0  0  0  0
   56.8636   27.7909   43.5049 H   0  0  0  0  0  0  0  0  0  0  0  0
   58.2926   28.8794   43.5049 H   0  0  0  0  0  0  0  0  0  0  0  0
   56.1775   28.5305   45.6821 H   0  0  0  0  0  0  0  0  0  0  0  0
   57.7547   29.3527   45.9726 H   0  0  0  0  0  0  0  0  0  0  0  0
   54.8691   29.6223   43.4451 H   0  0  0  0  0  0  0  0  0  0  0  0
   55.7658   31.0176   42.7555 H   0  0  0  0  0  0  0  0  0  0  0  0
   56.5103   29.3829   42.7555 H   0  0  0  0  0  0  0  0  0  0  0  0
   58.4105   31.0522   45.0356 H   0  0  0  0  0  0  0  0  0  0  0  0
   57.6903   31.5969   43.4697 H   0  0  0  0  0  0  0  0  0  0  0  0
   57.2529   33.5458   44.5291 H   0  0  0  0  0  0  0  0  0  0  0  0
   55.9394   32.6308   45.3705 H   0  0  0  0  0  0  0  0  0  0  0  0
   59.2946   34.9239   45.6386 H   0  0  0  0  0  0  0  0  0  0  0  0
   61.7368   35.0905   46.1080 H   0  0  0  0  0  0  0  0  0  0  0  0
   61.6210   31.2882   48.1511 H   0  0  0  0  0  0  0  0  0  0  0  0
   59.0640   30.7067   48.9305 H   0  0  0  0  0  0  0  0  0  0  0  0
   57.9141   30.8666   47.5482 H   0  0  0  0  0  0  0  0  0  0  0  0
   60.3446   30.5085   45.4784 H   0  0  0  0  0  0  0  0  0  0  0  0
   61.1907   28.4034   44.4408 H   0  0  0  0  0  0  0  0  0  0  0  0
   60.8554   26.2142   45.5957 H   0  0  0  0  0  0  0  0  0  0  0  0
   59.6675   26.1295   47.7899 H   0  0  0  0  0  0  0  0  0  0  0  0
   58.8136   28.2279   48.8326 H   0  0  0  0  0  0  0  0  0  0  0  0
  1  2  1  0
  2  3  1  0
  3  4  1  0
  3  5  1  0
  5  6  1  0
  6  7  1  0
  7  8  1  0
  8  9  2  0
  9 10  1  0
 10 11  2  0
 11 12  1  0
 11 13  1  0
 13 14  2  0
 14 15  1  0
 15 16  1  0
 16 17  2  0
 17 18  1  0
 18 19  2  0
 19 20  1  0
 20 21  2  0
 14  8  1  0
 21 16  1  0
  1 22  1  0
  1 23  1  0
  1 24  1  0
  2 25  1  0
  2 26  1  0
  4 27  1  0
  4 28  1  0
  4 29  1  0
  5 30  1  0
  5 31  1  0
  6 32  1  0
  6 33  1  0
  9 34  1  0
 10 35  1  0
 13 36  1  0
 15 37  1  0
 15 38  1  0
 17 39  1  0
 18 40  1  0
 19 41  1  0
 20 42  1  0
 21 43  1  0
M  END
>  <UniqueID>  (39) 
38

>  <SMILES>  (39) 
CCN(C)CCOc1ccc(Br)cc1Cc1ccccc1

>  <Energy>  (39) 
37.01266160961468

>  <Genealogy>  (39) 
CCN(C)CCOc1ccc(Br)cc1Cc1ccccc1 (3D coordinates assigned)
CCN(C)CCOc1ccc(Br)cc1Cc1ccccc1 (optimized conformer: 37.01266160961468 kcal/mol)

>  <smiles>  (39) 
CCN(C)CCOc1ccc(Br)cc1Cc1ccccc1

>  <score_type>  (39) 
oracle

>  <origin>  (39) 
adg

>  <m_score__min__energy>  (39) 
-6.8799999999999999

>  <m_primary>  (39) 
energy

$$$$
39:0
     RDKit          3D

 32 33  0  0  0  0  0  0  0  0999 V2000
   56.6230   29.6490   42.8310 C   0  0  0  0  0  0  0  0  0  0  0  0
   55.4340   29.7470   43.7810 C   0  0  0  0  0  0  0  0  0  0  0  0
   55.7010   29.0520   44.9990 O   0  0  0  0  0  0  0  0  0  0  0  0
   56.9560   28.9230   45.6220 C   0  0  0  0  0  0  0  0  0  0  0  0
   57.7710   30.0430   45.8860 C   0  0  0  0  0  0  0  0  0  0  0  0
   58.9950   29.9070   46.5490 C   0  0  0  0  0  0  0  0  0  0  0  0
   59.7570   31.0600   46.7850 O   0  0  0  0  0  0  0  0  0  0  0  0
   59.3490   32.3790   46.4400 C   0  0  0  0  0  0  0  0  0  0  0  0
   59.4160   28.6310   46.9550 C   0  0  0  0  0  0  0  0  0  0  0  0
   58.6260   27.5120   46.6900 C   0  0  0  0  0  0  0  0  0  0  0  0
   57.4030   27.6380   46.0090 C   0  0  0  0  0  0  0  0  0  0  0  0
   56.6110   26.4150   45.7400 C   0  0  0  0  0  0  0  0  0  0  0  0
   57.0720   25.2080   45.2540 C   0  0  0  0  0  0  0  0  0  0  0  0
   56.0520   24.3350   45.2000 N   0  0  0  0  0  0  0  0  0  0  0  0
   54.9950   25.0430   45.6480 C   0  0  0  0  0  0  0  0  0  0  0  0
   53.6360   24.4520   45.8200 C   0  0  0  0  0  0  0  0  0  0  0  0
   55.2950   26.3060   46.0080 N   0  0  0  0  0  0  0  0  0  0  0  0
   57.5527   29.5724   43.4139 H   0  0  0  0  0  0  0  0  0  0  0  0
   56.5132   28.7569   42.1969 H   0  0  0  0  0  0  0  0  0  0  0  0
   56.6607   30.5471   42.1969 H   0  0  0  0  0  0  0  0  0  0  0  0
   55.2377   30.8058   44.0053 H   0  0  0  0  0  0  0  0  0  0  0  0
   54.5578   29.2896   43.2983 H   0  0  0  0  0  0  0  0  0  0  0  0
   57.4383   31.0411   45.5649 H   0  0  0  0  0  0  0  0  0  0  0  0
   59.1696   32.9590   47.3573 H   0  0  0  0  0  0  0  0  0  0  0  0
   60.1391   32.8642   45.8480 H   0  0  0  0  0  0  0  0  0  0  0  0
   58.4230   32.3333   45.8480 H   0  0  0  0  0  0  0  0  0  0  0  0
   60.3729   28.5128   47.4844 H   0  0  0  0  0  0  0  0  0  0  0  0
   58.9647   26.5183   47.0183 H   0  0  0  0  0  0  0  0  0  0  0  0
   58.1097   24.9947   44.9579 H   0  0  0  0  0  0  0  0  0  0  0  0
   53.4116   24.3544   46.8924 H   0  0  0  0  0  0  0  0  0  0  0  0
   52.8890   25.1065   45.3472 H   0  0  0  0  0  0  0  0  0  0  0  0
   53.6054   23.4593   45.3472 H   0  0  0  0  0  0  0  0  0  0  0  0
  1  2  1  0
  2  3  1  0
  3  4  1  0
  4  5  2  0
  5  6  1  0
  6  7  1  0
  7  8  1  0
  6  9  2  0
  9 10  1  0
 10 11  2  0
 11 12  1  0
 12 13  2  0
 13 14  1  0
 14 15  1  0
 15 16  1  0
 15 17  2  0
 11  4  1  0
 17 12  1  0
  1 18  1  0
  1 19  1  0
  1 20  1  0
  2 21  1  0
  2 22  1  0
  5 23  1  0
  8 24  1  0
  8 25  1  0
  8 26  1  0
  9 27  1  0
 10 28  1  0
 13 29  1  0
 16 30  1  0
 16 31  1  0
 16 32  1  0
M  CHG  1  14  -1
M  END
>  <UniqueID>  (40) 
39

>  <SMILES>  (40) 
CCOc1cc(OC)ccc1-c1c[n-]c(C)n1

>  <Energy>  (40) 
59.38510661649465

>  <Genealogy>  (40) 
CCOc1cc(OC)ccc1-c1c[n-]c(C)n1 (protonated)
CCOc1cc(OC)ccc1-c1c[n-]c(C)n1 (3D coordinates assigned)
CCOc1cc(OC)ccc1-c1c[n-]c(C)n1 (optimized conformer: 59.38510661649465 kcal/mol)

>  <smiles>  (40) 
CCOc1cc(OC)ccc1-c1c[nH]c(C)n1

>  <score_type>  (40) 
oracle

>  <origin>  (40) 
adg

>  <m_score__min__energy>  (40) 
-7.1399999999999997

>  <m_primary>  (40) 
energy

$$$$
40:0
     RDKit          3D

 47 49  0  0  0  0  0  0  0  0999 V2000
   57.8020   26.3560   45.7900 C   0  0  0  0  0  0  0  0  0  0  0  0
   56.3570   26.7430   45.8370 C   0  0  0  0  0  0  0  0  0  0  0  0
   55.5290   25.9610   46.3770 O   0  0  0  0  0  0  0  0  0  0  0  0
   55.8860   27.9670   45.2560 N   0  0  0  0  0  0  0  0  0  0  0  0
   56.6410   29.1780   45.1280 C   0  0  0  0  0  0  0  0  0  0  0  0
   56.2850   30.1010   44.1390 C   0  0  0  0  0  0  0  0  0  0  0  0
   57.0000   31.2940   43.9960 C   0  0  0  0  0  0  0  0  0  0  0  0
   58.0840   31.5780   44.8480 C   0  0  0  0  0  0  0  0  0  0  0  0
   58.8660   32.7350   44.7110 O   0  0  0  0  0  0  0  0  0  0  0  0
   58.3760   34.0710   44.8530 C   0  0  0  0  0  0  0  0  0  0  0  0
   58.0780   34.3950   46.3240 C   0  0  0  0  0  0  0  0  0  0  0  0
   59.1670   35.1460   46.9550 N   0  0  0  0  0  0  0  0  0  0  0  0
   60.3080   34.5500   47.6010 C   0  0  0  0  0  0  0  0  0  0  0  0
   60.2870   34.3720   48.9930 C   0  0  0  0  0  0  0  0  0  0  0  0
   61.3440   33.7330   49.6440 C   0  0  0  0  0  0  0  0  0  0  0  0
   62.4510   33.2670   48.9160 C   0  0  0  0  0  0  0  0  0  0  0  0
   63.5680   32.5720   49.6060 C   0  0  0  0  0  0  0  0  0  0  0  0
   63.3160   31.4480   50.4180 C   0  0  0  0  0  0  0  0  0  0  0  0
   64.3660   30.7980   51.0750 C   0  0  0  0  0  0  0  0  0  0  0  0
   65.6770   31.2610   50.9300 C   0  0  0  0  0  0  0  0  0  0  0  0
   65.9400   32.3750   50.1270 C   0  0  0  0  0  0  0  0  0  0  0  0
   64.8940   33.0290   49.4660 C   0  0  0  0  0  0  0  0  0  0  0  0
   62.4830   33.4680   47.5260 C   0  0  0  0  0  0  0  0  0  0  0  0
   61.4260   34.1090   46.8750 C   0  0  0  0  0  0  0  0  0  0  0  0
   58.3950   30.6830   45.8760 C   0  0  0  0  0  0  0  0  0  0  0  0
   57.6820   29.4890   46.0160 C   0  0  0  0  0  0  0  0  0  0  0  0
   58.1875   26.2528   46.8151 H   0  0  0  0  0  0  0  0  0  0  0  0
   57.9079   25.3978   45.2602 H   0  0  0  0  0  0  0  0  0  0  0  0
   58.3726   27.1330   45.2602 H   0  0  0  0  0  0  0  0  0  0  0  0
   55.4382   29.8871   43.4703 H   0  0  0  0  0  0  0  0  0  0  0  0
   56.7143   32.0136   43.2146 H   0  0  0  0  0  0  0  0  0  0  0  0
   59.1337   34.7739   44.4763 H   0  0  0  0  0  0  0  0  0  0  0  0
   57.4431   34.1648   44.2778 H   0  0  0  0  0  0  0  0  0  0  0  0
   57.1573   34.9947   46.3756 H   0  0  0  0  0  0  0  0  0  0  0  0
   57.9655   33.4434   46.8642 H   0  0  0  0  0  0  0  0  0  0  0  0
   59.0720   36.1860   46.9820 H   0  0  0  0  0  0  0  0  0  0  0  0
   59.4299   34.7393   49.5765 H   0  0  0  0  0  0  0  0  0  0  0  0
   61.3095   33.5936   50.7346 H   0  0  0  0  0  0  0  0  0  0  0  0
   62.2864   31.0793   50.5359 H   0  0  0  0  0  0  0  0  0  0  0  0
   64.1598   29.9213   51.7066 H   0  0  0  0  0  0  0  0  0  0  0  0
   66.5016   30.7490   51.4476 H   0  0  0  0  0  0  0  0  0  0  0  0
   66.9721   32.7385   50.0144 H   0  0  0  0  0  0  0  0  0  0  0  0
   65.1077   33.9038   48.8343 H   0  0  0  0  0  0  0  0  0  0  0  0
   63.3485   33.1174   46.9446 H   0  0  0  0  0  0  0  0  0  0  0  0
   61.4699   34.2691   45.7876 H   0  0  0  0  0  0  0  0  0  0  0  0
   59.2066   30.9202   46.5796 H   0  0  0  0  0  0  0  0  0  0  0  0
   57.9381   28.7900   46.8259 H   0  0  0  0  0  0  0  0  0  0  0  0
  1  2  1  0
  2  3  2  0
  2  4  1  0
  4  5  1  0
  5  6  2  0
  6  7  1  0
  7  8  2  0
  8  9  1  0
  9 10  1  0
 10 11  1  0
 11 12  1  0
 12 13  1  0
 13 14  2  0
 14 15  1  0
 15 16  2  0
 16 17  1  0
 17 18  2  0
 18 19  1  0
 19 20  2  0
 20 21  1  0
 21 22  2  0
 16 23  1  0
 23 24  2  0
  8 25  1  0
 25 26  2  0
 26  5  1  0
 24 13  1  0
 22 17  1  0
  1 27  1  0
  1 28  1  0
  1 29  1  0
  6 30  1  0
  7 31  1  0
 10 32  1  0
 10 33  1  0
 11 34  1  0
 11 35  1  0
 12 36  1  0
 14 37  1  0
 15 38  1  0
 18 39  1  0
 19 40  1  0
 20 41  1  0
 21 42  1  0
 22 43  1  0
 23 44  1  0
 24 45  1  0
 25 46  1  0
 26 47  1  0
M  CHG  1   4  -1
M  END
>  <UniqueID>  (41) 
40

>  <SMILES>  (41) 
CC(=O)[N-]c1ccc(OCCNc2ccc(-c3ccccc3)cc2)cc1

>  <Energy>  (41) 
55.03986929799162

>  <Genealogy>  (41) 
CC(=O)[N-]c1ccc(OCCNc2ccc(-c3ccccc3)cc2)cc1 (protonated)
CC(=O)[N-]c1ccc(OCCNc2ccc(-c3ccccc3)cc2)cc1 (3D coordinates assigned)
CC(=O)[N-]c1ccc(OCCNc2ccc(-c3ccccc3)cc2)cc1 (optimized conformer: 55.03986929799162 kcal/mol)

>  <smiles>  (41) 
CC(=O)Nc1ccc(OCCNc2ccc(-c3ccccc3)cc2)cc1

>  <score_type>  (41) 
oracle

>  <origin>  (41) 
adg

>  <m_score__min__energy>  (41) 
-10.18

>  <m_primary>  (41) 
energy

$$$$
41:0
     RDKit          3D

 52 55  0  0  0  0  0  0  0  0999 V2000
   59.1860   30.5230   49.3140 C   0  0  0  0  0  0  0  0  0  0  0  0
   59.5540   29.6080   48.1490 C   0  0  0  0  0  0  0  0  0  0  0  0
   60.7840   30.0910   47.3760 C   0  0  0  0  0  0  0  0  0  0  0  0
   60.4740   30.3190   46.0000 O   0  0  0  0  0  0  0  0  0  0  0  0
   59.4530   29.7060   45.2510 C   0  0  0  0  0  0  0  0  0  0  0  0
   59.4830   28.3390   44.9040 C   0  0  0  0  0  0  0  0  0  0  0  0
   58.4600   27.7820   44.1320 C   0  0  0  0  0  0  0  0  0  0  0  0
   57.3980   28.5740   43.7000 C   0  0  0  0  0  0  0  0  0  0  0  0
   57.3490   29.9250   44.0440 C   0  0  0  0  0  0  0  0  0  0  0  0
   58.3650   30.4960   44.8260 C   0  0  0  0  0  0  0  0  0  0  0  0
   58.2940   31.8910   45.1720 N   0  0  0  0  0  0  0  0  0  0  0  0
   58.1430   32.2860   46.5790 C   0  0  0  0  0  0  0  0  0  0  0  0
   57.7060   33.7530   46.6980 C   0  0  0  0  0  0  0  0  0  0  0  0
   58.5340   34.6630   45.8730 N   0  0  0  0  0  0  0  0  0  0  0  0
   59.6230   35.3540   46.6000 C   0  0  0  0  0  0  0  0  0  0  0  0
   60.2810   34.5020   47.6630 C   0  0  0  0  0  0  0  0  0  0  0  0
   59.7660   34.2060   48.9160 C   0  0  0  0  0  0  0  0  0  0  0  0
   60.6340   33.4280   49.6030 N   0  0  0  0  0  0  0  0  0  0  0  0
   61.6600   33.2650   48.7440 C   0  0  0  0  0  0  0  0  0  0  0  0
   62.8130   32.5250   48.9960 C   0  0  0  0  0  0  0  0  0  0  0  0
   63.7700   32.4400   47.9730 C   0  0  0  0  0  0  0  0  0  0  0  0
   63.5480   33.0790   46.7390 C   0  0  0  0  0  0  0  0  0  0  0  0
   62.3680   33.8090   46.5400 C   0  0  0  0  0  0  0  0  0  0  0  0
   61.4750   33.8850   47.5650 N   0  0  0  0  0  0  0  0  0  0  0  0
   58.9220   34.1640   44.5300 C   0  0  0  0  0  0  0  0  0  0  0  0
   58.1610   32.9010   44.1190 C   0  0  0  0  0  0  0  0  0  0  0  0
   59.3930   30.0084   50.2639 H   0  0  0  0  0  0  0  0  0  0  0  0
   59.7832   31.4451   49.2588 H   0  0  0  0  0  0  0  0  0  0  0  0
   58.1166   30.7749   49.2588 H   0  0  0  0  0  0  0  0  0  0  0  0
   59.7608   28.6026   48.5444 H   0  0  0  0  0  0  0  0  0  0  0  0
   58.7048   29.6070   47.4498 H   0  0  0  0  0  0  0  0  0  0  0  0
   61.1427   31.0298   47.8231 H   0  0  0  0  0  0  0  0  0  0  0  0
   61.5589   29.3124   47.4336 H   0  0  0  0  0  0  0  0  0  0  0  0
   60.3172   27.7073   45.2434 H   0  0  0  0  0  0  0  0  0  0  0  0
   58.4932   26.7155   43.8646 H   0  0  0  0  0  0  0  0  0  0  0  0
   56.5977   28.1335   43.0872 H   0  0  0  0  0  0  0  0  0  0  0  0
   56.5090   30.5465   43.7003 H   0  0  0  0  0  0  0  0  0  0  0  0
   57.3841   31.6457   47.0523 H   0  0  0  0  0  0  0  0  0  0  0  0
   59.1150   32.1695   47.0806 H   0  0  0  0  0  0  0  0  0  0  0  0
   56.6589   33.8362   46.3714 H   0  0  0  0  0  0  0  0  0  0  0  0
   57.8283   34.0527   47.7493 H   0  0  0  0  0  0  0  0  0  0  0  0
   60.3905   35.6547   45.8717 H   0  0  0  0  0  0  0  0  0  0  0  0
   59.1708   36.2155   47.1131 H   0  0  0  0  0  0  0  0  0  0  0  0
   58.7938   34.5530   49.2959 H   0  0  0  0  0  0  0  0  0  0  0  0
   62.9680   32.0246   49.9633 H   0  0  0  0  0  0  0  0  0  0  0  0
   64.6974   31.8715   48.1364 H   0  0  0  0  0  0  0  0  0  0  0  0
   64.2958   33.0061   45.9356 H   0  0  0  0  0  0  0  0  0  0  0  0
   62.1685   34.3078   45.5801 H   0  0  0  0  0  0  0  0  0  0  0  0
   58.7181   34.9525   43.7906 H   0  0  0  0  0  0  0  0  0  0  0  0
   59.9906   33.9060   44.5706 H   0  0  0  0  0  0  0  0  0  0  0  0
   57.0978   33.1433   43.9745 H   0  0  0  0  0  0  0  0  0  0  0  0
   58.5769   32.5099   43.1788 H   0  0  0  0  0  0  0  0  0  0  0  0
  1  2  1  0
  2  3  1  0
  3  4  1  0
  4  5  1  0
  5  6  2  0
  6  7  1  0
  7  8  2  0
  8  9  1  0
  9 10  2  0
 10 11  1  0
 11 12  1  0
 12 13  1  0
 13 14  1  0
 14 15  1  0
 15 16  1  0
 16 17  2  0
 17 18  1  0
 18 19  2  0
 19 20  1  0
 20 21  2  0
 21 22  1  0
 22 23  2  0
 23 24  1  0
 14 25  1  0
 25 26  1  0
 10  5  1  0
 26 11  1  0
 24 16  1  0
 24 19  1  0
  1 27  1  0
  1 28  1  0
  1 29  1  0
  2 30  1  0
  2 31  1  0
  3 32  1  0
  3 33  1  0
  6 34  1  0
  7 35  1  0
  8 36  1  0
  9 37  1  0
 12 38  1  0
 12 39  1  0
 13 40  1  0
 13 41  1  0
 15 42  1  0
 15 43  1  0
 17 44  1  0
 20 45  1  0
 21 46  1  0
 22 47  1  0
 23 48  1  0
 25 49  1  0
 25 50  1  0
 26 51  1  0
 26 52  1  0
M  END
>  <UniqueID>  (42) 
41

>  <SMILES>  (42) 
CCCOc1ccccc1N1CCN(Cc2cnc3ccccn23)CC1

>  <Energy>  (42) 
99.58718661377513

>  <Genealogy>  (42) 
CCCOc1ccccc1N1CCN(Cc2cnc3ccccn23)CC1 (3D coordinates assigned)
CCCOc1ccccc1N1CCN(Cc2cnc3ccccn23)CC1 (nonaromatic ring conformer: 99.58718661377513 kcal/mol)

>  <smiles>  (42) 
CCCOc1ccccc1N1CCN(Cc2cnc3ccccn23)CC1

>  <score_type>  (42) 
oracle

>  <origin>  (42) 
adg

>  <m_score__min__energy>  (42) 
-8.4900000000000002

>  <m_primary>  (42) 
energy

$$$$
42:0
     RDKit          3D

 53 55  0  0  0  0  0  0  0  0999 V2000
   57.0738   33.7571   47.9555 H   0  0  0  0  0  0  0  0  0  0  0  0
   57.9950   33.4650   47.4300 C   0  0  0  0  0  0  0  0  0  0  0  0
   58.8950   34.3600   47.1650 N   0  0  0  0  0  0  0  0  0  0  0  0
   59.7420   34.3070   45.9760 C   0  0  0  0  0  0  0  0  0  0  0  0
   59.3982   33.4906   45.3238 H   0  0  0  0  0  0  0  0  0  0  0  0
   59.6735   35.2705   45.4497 H   0  0  0  0  0  0  0  0  0  0  0  0
   61.2030   34.0600   46.3630 C   0  0  0  0  0  0  0  0  0  0  0  0
   61.7508   33.6744   45.4905 H   0  0  0  0  0  0  0  0  0  0  0  0
   61.6530   35.0064   46.6975 H   0  0  0  0  0  0  0  0  0  0  0  0
   61.2750   33.0720   47.4630 N   0  0  0  0  0  0  0  0  0  0  0  0
   61.5380   33.6890   48.7860 C   0  0  0  0  0  0  0  0  0  0  0  0
   60.9157   34.5908   48.8836 H   0  0  0  0  0  0  0  0  0  0  0  0
   61.2947   32.9414   49.5553 H   0  0  0  0  0  0  0  0  0  0  0  0
   63.0130   34.0860   48.9740 C   0  0  0  0  0  0  0  0  0  0  0  0
   63.2582   34.9153   48.2942 H   0  0  0  0  0  0  0  0  0  0  0  0
   63.1760   34.4020   50.0149 H   0  0  0  0  0  0  0  0  0  0  0  0
   63.8760   32.9360   48.6730 N   0  0  0  0  0  0  0  0  0  0  0  0
   65.1880   33.1270   49.0480 O   0  0  0  0  0  0  0  0  0  0  0  0
   65.5740   32.2630   50.1040 C   0  0  0  0  0  0  0  0  0  0  0  0
   65.3588   32.7448   51.0692 H   0  0  0  0  0  0  0  0  0  0  0  0
   65.0113   31.3206   50.0310 H   0  0  0  0  0  0  0  0  0  0  0  0
   66.6514   32.0533   50.0310 H   0  0  0  0  0  0  0  0  0  0  0  0
   63.6690   32.3940   47.3190 C   0  0  0  0  0  0  0  0  0  0  0  0
   63.8957   33.1687   46.5717 H   0  0  0  0  0  0  0  0  0  0  0  0
   64.3336   31.5330   47.1546 H   0  0  0  0  0  0  0  0  0  0  0  0
   62.2070   31.9580   47.1820 C   0  0  0  0  0  0  0  0  0  0  0  0
   62.0363   31.6007   46.1558 H   0  0  0  0  0  0  0  0  0  0  0  0
   62.0174   31.1594   47.9143 H   0  0  0  0  0  0  0  0  0  0  0  0
   58.1950   32.0620   47.0340 C   0  0  0  0  0  0  0  0  0  0  0  0
   57.7590   31.4320   45.8720 C   0  0  0  0  0  0  0  0  0  0  0  0
   57.0360   32.0450   44.8530 O   0  0  0  0  0  0  0  0  0  0  0  0
   58.1360   30.1320   45.8470 N   0  0  0  0  0  0  0  0  0  0  0  0
   57.9070   29.1850   44.7520 C   0  0  0  0  0  0  0  0  0  0  0  0
   58.8151   28.5837   44.5980 H   0  0  0  0  0  0  0  0  0  0  0  0
   57.6655   29.7493   43.8392 H   0  0  0  0  0  0  0  0  0  0  0  0
   56.7390   28.2560   45.0810 C   0  0  0  0  0  0  0  0  0  0  0  0
   56.8172   27.9262   46.1275 H   0  0  0  0  0  0  0  0  0  0  0  0
   56.7700   27.3807   44.4155 H   0  0  0  0  0  0  0  0  0  0  0  0
   55.5200   28.9430   44.8950 O   0  0  0  0  0  0  0  0  0  0  0  0
   55.6060   29.7410   43.7360 C   0  0  0  0  0  0  0  0  0  0  0  0
   55.7197   30.7962   44.0250 H   0  0  0  0  0  0  0  0  0  0  0  0
   56.4757   29.4285   43.1393 H   0  0  0  0  0  0  0  0  0  0  0  0
   54.6897   29.6209   43.1393 H   0  0  0  0  0  0  0  0  0  0  0  0
   58.8330   29.9320   46.9880 C   0  0  0  0  0  0  0  0  0  0  0  0
   59.4610   28.7600   47.4220 C   0  0  0  0  0  0  0  0  0  0  0  0
   59.4230   27.8410   46.8186 H   0  0  0  0  0  0  0  0  0  0  0  0
   60.1420   28.7900   48.6510 C   0  0  0  0  0  0  0  0  0  0  0  0
   60.6438   27.8830   49.0192 H   0  0  0  0  0  0  0  0  0  0  0  0
   60.1870   29.9760   49.4170 C   0  0  0  0  0  0  0  0  0  0  0  0
   61.0440   29.9940   50.9480 Cl  0  0  0  0  0  0  0  0  0  0  0  0
   59.5530   31.1440   48.9590 C   0  0  0  0  0  0  0  0  0  0  0  0
   59.5846   32.0736   49.5462 H   0  0  0  0  0  0  0  0  0  0  0  0
   58.8820   31.0880   47.7360 C   0  0  0  0  0  0  0  0  0  0  0  0
  1  2  1  0
  2  3  2  0
  3  4  1  0
  4  5  1  0
  4  6  1  0
  4  7  1  0
  7  8  1  0
  7  9  1  0
  7 10  1  0
 10 11  1  0
 11 12  1  0
 11 13  1  0
 11 14  1  0
 14 15  1  0
 14 16  1  0
 14 17  1  0
 17 18  1  0
 18 19  1  0
 19 20  1  0
 19 21  1  0
 19 22  1  0
 17 23  1  0
 23 24  1  0
 23 25  1  0
 23 26  1  0
 26 27  1  0
 26 28  1  0
  2 29  1  0
 29 30  2  0
 30 31  1  0
 30 32  1  0
 32 33  1  0
 33 34  1  0
 33 35  1  0
 33 36  1  0
 36 37  1  0
 36 38  1  0
 36 39  1  0
 39 40  1  0
 40 41  1  0
 40 42  1  0
 40 43  1  0
 32 44  1  0
 44 45  2  0
 45 46  1  0
 45 47  1  0
 47 48  1  0
 47 49  2  0
 49 50  1  0
 49 51  1  0
 51 52  1  0
 51 53  2  0
 26 10  1  0
 53 29  1  0
 53 44  1  0
M  CHG  1  31  -1
M  END
>  <UniqueID>  (43) 
42

>  <SMILES>  (43) 
COCCn1c([O-])c(/C=N/CCN2CCN(OC)CC2)c2cc(Cl)ccc21

>  <Energy>  (43) 
99.75806888443827

>  <Genealogy>  (43) 
COCCn1c([O-])c(C=NCCN2CCN(OC)CC2)c2cc(Cl)ccc21 (protonated)
COCCn1c([O-])c(/C=N/CCN2CCN(OC)CC2)c2cc(Cl)ccc21 (cis-trans isomerization)
COCCn1c([O-])c(/C=N/CCN2CCN(OC)CC2)c2cc(Cl)ccc21 (3D coordinates assigned)
COCCn1c([O-])c(/C=N/CCN2CCN(OC)CC2)c2cc(Cl)ccc21 (nonaromatic ring conformer: 99.75806888443827 kcal/mol)

>  <smiles>  (43) 
COCCn1c(O)c(C=NCCN2CCN(OC)CC2)c2cc(Cl)ccc21

>  <score_type>  (43) 
oracle

>  <origin>  (43) 
adg

>  <m_score__min__energy>  (43) 
-10.67

>  <m_primary>  (43) 
energy

$$$$
