0:0
     RDKit          3D

 45 47  0  0  0  0  0  0  0  0999 V2000
   55.4890   30.2330   44.6520 O   0  0  0  0  0  0  0  0  0  0  0  0
   56.6460   29.9340   44.2570 C   0  0  0  0  0  0  0  0  0  0  0  0
   57.5640   31.0150   43.7460 C   0  0  0  0  0  0  0  0  0  0  0  0
   58.0210   31.8920   44.8500 N   0  0  0  0  0  0  0  0  0  0  0  0
   58.0330   31.1590   46.1260 C   0  0  0  0  0  0  0  0  0  0  0  0
   58.7640   31.9850   47.1940 C   0  0  0  0  0  0  0  0  0  0  0  0
   58.5200   33.4400   47.0830 N   0  0  0  0  0  0  0  0  0  0  0  0
   59.9220   34.3410   46.5490 S   0  0  0  0  0  0  0  0  0  0  0  0
   59.6640   35.8120   46.7210 O   0  0  0  0  0  0  0  0  0  0  0  0
   60.1400   34.0840   45.0830 O   0  0  0  0  0  0  0  0  0  0  0  0
   61.3900   33.9190   47.4330 C   0  0  0  0  0  0  0  0  0  0  0  0
   62.5300   33.4810   46.7430 C   0  0  0  0  0  0  0  0  0  0  0  0
   63.6830   33.1210   47.4460 C   0  0  0  0  0  0  0  0  0  0  0  0
   63.7040   33.1920   48.8440 C   0  0  0  0  0  0  0  0  0  0  0  0
   65.2790   32.7040   49.8060 Br  0  0  0  0  0  0  0  0  0  0  0  0
   62.5690   33.6230   49.5360 C   0  0  0  0  0  0  0  0  0  0  0  0
   61.4140   33.9830   48.8350 C   0  0  0  0  0  0  0  0  0  0  0  0
   57.2950   33.7970   46.3460 C   0  0  0  0  0  0  0  0  0  0  0  0
   57.1810   33.1080   44.9660 C   0  0  0  0  0  0  0  0  0  0  0  0
   57.0440   28.5560   44.2750 N   0  0  0  0  0  0  0  0  0  0  0  0
   58.1860   28.0200   44.9590 C   0  0  0  0  0  0  0  0  0  0  0  0
   59.4460   28.6370   44.8610 C   0  0  0  0  0  0  0  0  0  0  0  0
   60.5420   28.1200   45.5580 C   0  0  0  0  0  0  0  0  0  0  0  0
   60.3870   26.9960   46.3710 C   0  0  0  0  0  0  0  0  0  0  0  0
   59.1340   26.3920   46.4970 C   0  0  0  0  0  0  0  0  0  0  0  0
   58.0320   26.9040   45.8010 C   0  0  0  0  0  0  0  0  0  0  0  0
   56.3330   26.0470   46.0060 Br  0  0  0  0  0  0  0  0  0  0  0  0
   58.4399   30.5482   43.2718 H   0  0  0  0  0  0  0  0  0  0  0  0
   57.0116   31.6278   43.0185 H   0  0  0  0  0  0  0  0  0  0  0  0
   56.9984   30.9754   46.4513 H   0  0  0  0  0  0  0  0  0  0  0  0
   58.5544   30.2002   45.9889 H   0  0  0  0  0  0  0  0  0  0  0  0
   58.4257   31.6497   48.1856 H   0  0  0  0  0  0  0  0  0  0  0  0
   59.8421   31.8251   47.0454 H   0  0  0  0  0  0  0  0  0  0  0  0
   62.5164   33.4207   45.6447 H   0  0  0  0  0  0  0  0  0  0  0  0
   64.5754   32.7813   46.9000 H   0  0  0  0  0  0  0  0  0  0  0  0
   62.5843   33.6792   50.6345 H   0  0  0  0  0  0  0  0  0  0  0  0
   60.5213   34.3174   49.3839 H   0  0  0  0  0  0  0  0  0  0  0  0
   56.4258   33.5050   46.9536 H   0  0  0  0  0  0  0  0  0  0  0  0
   57.3320   34.8812   46.1637 H   0  0  0  0  0  0  0  0  0  0  0  0
   56.1308   32.8246   44.8023 H   0  0  0  0  0  0  0  0  0  0  0  0
   57.5374   33.8251   44.2118 H   0  0  0  0  0  0  0  0  0  0  0  0
   59.5698   29.5312   44.2325 H   0  0  0  0  0  0  0  0  0  0  0  0
   61.5277   28.5995   45.4656 H   0  0  0  0  0  0  0  0  0  0  0  0
   61.2520   26.5858   46.9127 H   0  0  0  0  0  0  0  0  0  0  0  0
   59.0124   25.5114   47.1449 H   0  0  0  0  0  0  0  0  0  0  0  0
  1  2  2  0
  2  3  1  0
  3  4  1  0
  4  5  1  0
  5  6  1  0
  6  7  1  0
  7  8  1  0
  8  9  2  0
  8 10  2  0
  8 11  1  0
 11 12  2  0
 12 13  1  0
 13 14  2  0
 14 15  1  0
 14 16  1  0
 16 17  2  0
  7 18  1  0
 18 19  1  0
  2 20  1  0
 20 21  1  0
 21 22  2  0
 22 23  1  0
 23 24  2  0
 24 25  1  0
 25 26  2  0
 26 27  1  0
 19  4  1  0
 26 21  1  0
 17 11  1  0
  3 28  1  0
  3 29  1  0
  5 30  1  0
  5 31  1  0
  6 32  1  0
  6 33  1  0
 12 34  1  0
 13 35  1  0
 16 36  1  0
 17 37  1  0
 18 38  1  0
 18 39  1  0
 19 40  1  0
 19 41  1  0
 22 42  1  0
 23 43  1  0
 24 44  1  0
 25 45  1  0
M  CHG  1  20  -1
M  END
>  <UniqueID>  (1) 
1

>  <SMILES>  (1) 
O=C(CN1CCN(S(=O)(=O)c2ccc(Br)cc2)CC1)[N-]c1ccccc1Br

>  <Energy>  (1) 
60.731018431662996

>  <Genealogy>  (1) 
O=C(CN1CCN(S(=O)(=O)c2ccc(Br)cc2)CC1)[N-]c1ccccc1Br (protonated)
O=C(CN1CCN(S(=O)(=O)c2ccc(Br)cc2)CC1)[N-]c1ccccc1Br (3D coordinates assigned)
O=C(CN1CCN(S(=O)(=O)c2ccc(Br)cc2)CC1)[N-]c1ccccc1Br (nonaromatic ring conformer: 60.731018431662996 kcal/mol)

>  <smiles>  (1) 
O=C(CN1CCN(S(=O)(=O)c2ccc(Br)cc2)CC1)Nc1ccccc1Br

>  <score_type>  (1) 
oracle

>  <origin>  (1) 
adg

>  <m_score__min__energy>  (1) 
-11.51

>  <m_primary>  (1) 
energy

$$$$
1:0
     RDKit          3D

 40 41  0  0  0  0  0  0  0  0999 V2000
   58.9160   28.6240   48.1690 C   0  0  0  0  0  0  0  0  0  0  0  0
   58.5330   27.4940   47.2160 C   0  0  0  0  0  0  0  0  0  0  0  0
   58.8580   27.8690   45.8200 N   0  0  0  0  0  0  0  0  0  0  0  0
   60.3210   27.8720   45.5890 C   0  0  0  0  0  0  0  0  0  0  0  0
   60.8250   29.3030   45.4270 C   0  0  0  0  0  0  0  0  0  0  0  0
   58.1600   26.9940   44.8490 C   0  0  0  0  0  0  0  0  0  0  0  0
   57.7690   27.7910   43.5980 C   0  0  0  0  0  0  0  0  0  0  0  0
   58.1050   29.2040   43.7620 N   0  0  0  0  0  0  0  0  0  0  0  0
   57.3090   30.0940   44.5570 C   0  0  0  0  0  0  0  0  0  0  0  0
   56.1270   29.7770   44.8610 O   0  0  0  0  0  0  0  0  0  0  0  0
   57.8580   31.3730   45.0420 C   0  0  0  0  0  0  0  0  0  0  0  0
   58.1180   32.4980   44.2600 C   0  0  0  0  0  0  0  0  0  0  0  0
   58.6580   33.4200   45.1290 C   0  0  0  0  0  0  0  0  0  0  0  0
   59.1140   34.7160   44.9000 C   0  0  0  0  0  0  0  0  0  0  0  0
   59.6330   35.4310   45.9950 C   0  0  0  0  0  0  0  0  0  0  0  0
   59.6860   34.8390   47.2770 C   0  0  0  0  0  0  0  0  0  0  0  0
   59.2210   33.5250   47.4770 C   0  0  0  0  0  0  0  0  0  0  0  0
   59.2990   32.7240   49.2110 Br  0  0  0  0  0  0  0  0  0  0  0  0
   58.7080   32.8410   46.3710 C   0  0  0  0  0  0  0  0  0  0  0  0
   58.2240   31.5870   46.3300 N   0  0  0  0  0  0  0  0  0  0  0  0
   58.8002   28.2823   49.2082 H   0  0  0  0  0  0  0  0  0  0  0  0
   59.9625   28.9135   47.9927 H   0  0  0  0  0  0  0  0  0  0  0  0
   58.2612   29.4901   47.9927 H   0  0  0  0  0  0  0  0  0  0  0  0
   59.0906   26.5854   47.4872 H   0  0  0  0  0  0  0  0  0  0  0  0
   57.4516   27.3090   47.2952 H   0  0  0  0  0  0  0  0  0  0  0  0
   60.8255   27.4039   46.4471 H   0  0  0  0  0  0  0  0  0  0  0  0
   60.5410   27.3075   44.6709 H   0  0  0  0  0  0  0  0  0  0  0  0
   60.9827   29.7507   46.4193 H   0  0  0  0  0  0  0  0  0  0  0  0
   61.7750   29.2966   44.8725 H   0  0  0  0  0  0  0  0  0  0  0  0
   60.0807   29.8933   44.8725 H   0  0  0  0  0  0  0  0  0  0  0  0
   58.8272   26.1688   44.5595 H   0  0  0  0  0  0  0  0  0  0  0  0
   57.2485   26.5953   45.3181 H   0  0  0  0  0  0  0  0  0  0  0  0
   58.3110   27.3890   42.7293 H   0  0  0  0  0  0  0  0  0  0  0  0
   56.6835   27.7002   43.4448 H   0  0  0  0  0  0  0  0  0  0  0  0
   58.9640   29.5620   43.2880 H   0  0  0  0  0  0  0  0  0  0  0  0
   57.9321   32.6221   43.1829 H   0  0  0  0  0  0  0  0  0  0  0  0
   59.0699   35.1654   43.8969 H   0  0  0  0  0  0  0  0  0  0  0  0
   60.0001   36.4581   45.8521 H   0  0  0  0  0  0  0  0  0  0  0  0
   60.0935   35.4089   48.1250 H   0  0  0  0  0  0  0  0  0  0  0  0
   58.1510   30.9120   47.1240 H   0  0  0  0  0  0  0  0  0  0  0  0
  1  2  1  0
  2  3  1  0
  3  4  1  0
  4  5  1  0
  3  6  1  0
  6  7  1  0
  7  8  1  0
  8  9  1  0
  9 10  2  0
  9 11  1  0
 11 12  2  0
 12 13  1  0
 13 14  2  0
 14 15  1  0
 15 16  2  0
 16 17  1  0
 17 18  1  0
 17 19  2  0
 19 20  1  0
 20 11  1  0
 19 13  1  0
  1 21  1  0
  1 22  1  0
  1 23  1  0
  2 24  1  0
  2 25  1  0
  4 26  1  0
  4 27  1  0
  5 28  1  0
  5 29  1  0
  5 30  1  0
  6 31  1  0
  6 32  1  0
  7 33  1  0
  7 34  1  0
  8 35  1  0
 12 36  1  0
 14 37  1  0
 15 38  1  0
 16 39  1  0
 20 40  1  0
M  END
>  <UniqueID>  (2) 
2

>  <SMILES>  (2) 
CCN(CC)CCNC(=O)c1cc2cccc(Br)c2[nH]1

>  <Energy>  (2) 
65.73814319624029

>  <Genealogy>  (2) 
CCN(CC)CCNC(=O)c1cc2cccc(Br)c2[nH]1 (3D coordinates assigned)
CCN(CC)CCNC(=O)c1cc2cccc(Br)c2[nH]1 (optimized conformer: 65.73814319624029 kcal/mol)

>  <smiles>  (2) 
CCN(CC)CCNC(=O)c1cc2cccc(Br)c2[nH]1

>  <score_type>  (2) 
oracle

>  <origin>  (2) 
adg

>  <m_score__min__energy>  (2) 
-7.1100000000000003

>  <m_primary>  (2) 
energy

$$$$
2:0
     RDKit          3D

 41 43  0  0  0  0  0  0  0  0999 V2000
   55.7850   29.3630   44.4240 O   0  0  0  0  0  0  0  0  0  0  0  0
   57.0320   29.2510   44.5890 C   0  0  0  0  0  0  0  0  0  0  0  0
   57.5600   28.0020   45.1800 C   0  0  0  0  0  0  0  0  0  0  0  0
   57.6100   27.8890   46.5800 C   0  0  0  0  0  0  0  0  0  0  0  0
   58.0870   26.7210   47.1790 C   0  0  0  0  0  0  0  0  0  0  0  0
   58.5280   25.6580   46.3910 C   0  0  0  0  0  0  0  0  0  0  0  0
   58.5070   25.7670   44.9980 C   0  0  0  0  0  0  0  0  0  0  0  0
   58.0280   26.9320   44.3850 C   0  0  0  0  0  0  0  0  0  0  0  0
   58.1160   27.0390   42.6290 Cl  0  0  0  0  0  0  0  0  0  0  0  0
   57.9210   30.2890   44.1100 N   0  0  0  0  0  0  0  0  0  0  0  0
   58.7540   30.8350   45.2160 C   0  0  0  0  0  0  0  0  0  0  0  0
   58.1870   32.1480   45.7840 C   0  0  0  0  0  0  0  0  0  0  0  0
   58.0590   33.2060   44.7470 N   0  0  0  0  0  0  0  0  0  0  0  0
   59.1770   34.1690   44.8110 C   0  0  0  0  0  0  0  0  0  0  0  0
   59.8190   34.1540   46.1710 C   0  0  0  0  0  0  0  0  0  0  0  0
   61.1600   33.7720   46.3310 C   0  0  0  0  0  0  0  0  0  0  0  0
   61.7280   33.7900   47.6080 C   0  0  0  0  0  0  0  0  0  0  0  0
   60.9590   34.1860   48.7060 C   0  0  0  0  0  0  0  0  0  0  0  0
   59.6300   34.5660   48.5070 C   0  0  0  0  0  0  0  0  0  0  0  0
   59.0940   34.5430   47.2570 N   0  0  0  0  0  0  0  0  0  0  0  0
   57.8830   32.6670   43.3750 C   0  0  0  0  0  0  0  0  0  0  0  0
   57.1390   31.3250   43.3930 C   0  0  0  0  0  0  0  0  0  0  0  0
   57.2712   28.7261   47.2081 H   0  0  0  0  0  0  0  0  0  0  0  0
   58.1150   26.6392   48.2756 H   0  0  0  0  0  0  0  0  0  0  0  0
   58.8920   24.7348   46.8656 H   0  0  0  0  0  0  0  0  0  0  0  0
   58.8688   24.9328   44.3790 H   0  0  0  0  0  0  0  0  0  0  0  0
   58.5750   29.8690   43.4080 H   0  0  0  0  0  0  0  0  0  0  0  0
   58.7994   30.0907   46.0247 H   0  0  0  0  0  0  0  0  0  0  0  0
   59.7532   31.0494   44.8091 H   0  0  0  0  0  0  0  0  0  0  0  0
   57.1925   31.9484   46.2096 H   0  0  0  0  0  0  0  0  0  0  0  0
   58.8876   32.5122   46.5498 H   0  0  0  0  0  0  0  0  0  0  0  0
   59.9287   33.8993   44.0546 H   0  0  0  0  0  0  0  0  0  0  0  0
   58.7840   35.1781   44.6183 H   0  0  0  0  0  0  0  0  0  0  0  0
   61.7574   33.4619   45.4610 H   0  0  0  0  0  0  0  0  0  0  0  0
   62.7778   33.4932   47.7486 H   0  0  0  0  0  0  0  0  0  0  0  0
   61.3957   34.1982   49.7155 H   0  0  0  0  0  0  0  0  0  0  0  0
   59.0158   34.8843   49.3622 H   0  0  0  0  0  0  0  0  0  0  0  0
   57.3058   33.3885   42.7781 H   0  0  0  0  0  0  0  0  0  0  0  0
   58.8784   32.5056   42.9356 H   0  0  0  0  0  0  0  0  0  0  0  0
   56.1710   31.4579   43.8983 H   0  0  0  0  0  0  0  0  0  0  0  0
   56.9915   30.9940   42.3544 H   0  0  0  0  0  0  0  0  0  0  0  0
  1  2  2  0
  2  3  1  0
  3  4  2  0
  4  5  1  0
  5  6  2  0
  6  7  1  0
  7  8  2  0
  8  9  1  0
  2 10  1  0
 10 11  1  0
 11 12  1  0
 12 13  1  0
 13 14  1  0
 14 15  1  0
 15 16  2  0
 16 17  1  0
 17 18  2  0
 18 19  1  0
 19 20  2  0
 13 21  1  0
 21 22  1  0
  8  3  1  0
 22 10  1  0
 20 15  1  0
  4 23  1  0
  5 24  1  0
  6 25  1  0
  7 26  1  0
 10 27  1  0
 11 28  1  0
 11 29  1  0
 12 30  1  0
 12 31  1  0
 14 32  1  0
 14 33  1  0
 16 34  1  0
 17 35  1  0
 18 36  1  0
 19 37  1  0
 21 38  1  0
 21 39  1  0
 22 40  1  0
 22 41  1  0
M  CHG  1  10   1
M  END
>  <UniqueID>  (3) 
3

>  <SMILES>  (3) 
O=C(c1ccccc1Cl)[NH+]1CCN(Cc2ccccn2)CC1

>  <Energy>  (3) 
64.33029278168848

>  <Genealogy>  (3) 
O=C(c1ccccc1Cl)[NH+]1CCN(Cc2ccccn2)CC1 (protonated)
O=C(c1ccccc1Cl)[NH+]1CCN(Cc2ccccn2)CC1 (3D coordinates assigned)
O=C(c1ccccc1Cl)[NH+]1CCN(Cc2ccccn2)CC1 (nonaromatic ring conformer: 64.33029278168848 kcal/mol)

>  <smiles>  (3) 
O=C(c1ccccc1Cl)N1CCN(Cc2ccccn2)CC1

>  <score_type>  (3) 
oracle

>  <origin>  (3) 
adg

>  <m_score__min__energy>  (3) 
-6.4400000000000004

>  <m_primary>  (3) 
energy

$$$$
3:0
     RDKit          3D

 35 37  0  0  0  0  0  0  0  0999 V2000
   63.8740   33.1240   46.7290 C   0  0  0  0  0  0  0  0  0  0  0  0
   62.8060   33.3150   47.7700 C   0  0  0  0  0  0  0  0  0  0  0  0
   61.5870   33.9190   47.4220 C   0  0  0  0  0  0  0  0  0  0  0  0
   60.5760   34.1110   48.3780 C   0  0  0  0  0  0  0  0  0  0  0  0
   59.2680   34.7290   47.9480 C   0  0  0  0  0  0  0  0  0  0  0  0
   58.7240   34.0050   46.8010 N   0  0  0  0  0  0  0  0  0  0  0  0
   58.2510   34.5590   45.6680 C   0  0  0  0  0  0  0  0  0  0  0  0
   57.8740   33.5460   44.8080 C   0  0  0  0  0  0  0  0  0  0  0  0
   58.1550   32.3730   45.4930 C   0  0  0  0  0  0  0  0  0  0  0  0
   57.9310   31.0050   44.9780 C   0  0  0  0  0  0  0  0  0  0  0  0
   58.9690   30.0590   44.9070 C   0  0  0  0  0  0  0  0  0  0  0  0
   58.7020   28.7810   44.4130 C   0  0  0  0  0  0  0  0  0  0  0  0
   57.4130   28.4520   43.9930 C   0  0  0  0  0  0  0  0  0  0  0  0
   56.4050   29.4120   44.0740 C   0  0  0  0  0  0  0  0  0  0  0  0
   56.6830   30.6510   44.5590 N   0  0  0  0  0  0  0  0  0  0  0  0
   58.6720   32.6870   46.7000 N   0  0  0  0  0  0  0  0  0  0  0  0
   60.7860   33.6640   49.7000 C   0  0  0  0  0  0  0  0  0  0  0  0
   59.5580   33.8380   50.9490 Cl  0  0  0  0  0  0  0  0  0  0  0  0
   61.9990   33.0620   50.0470 C   0  0  0  0  0  0  0  0  0  0  0  0
   63.0070   32.8850   49.0960 C   0  0  0  0  0  0  0  0  0  0  0  0
   64.5110   32.1170   49.5950 Cl  0  0  0  0  0  0  0  0  0  0  0  0
   64.8412   32.9510   47.2235 H   0  0  0  0  0  0  0  0  0  0  0  0
   63.6229   32.2565   46.1010 H   0  0  0  0  0  0  0  0  0  0  0  0
   63.9392   34.0247   46.1010 H   0  0  0  0  0  0  0  0  0  0  0  0
   61.4214   34.2467   46.3851 H   0  0  0  0  0  0  0  0  0  0  0  0
   58.5517   34.6814   48.7814 H   0  0  0  0  0  0  0  0  0  0  0  0
   59.4413   35.7772   47.6631 H   0  0  0  0  0  0  0  0  0  0  0  0
   58.1773   35.6371   45.4622 H   0  0  0  0  0  0  0  0  0  0  0  0
   57.4448   33.6473   43.8003 H   0  0  0  0  0  0  0  0  0  0  0  0
   59.9839   30.3241   45.2383 H   0  0  0  0  0  0  0  0  0  0  0  0
   59.5073   28.0340   44.3549 H   0  0  0  0  0  0  0  0  0  0  0  0
   57.1944   27.4471   43.6025 H   0  0  0  0  0  0  0  0  0  0  0  0
   55.3844   29.1666   43.7453 H   0  0  0  0  0  0  0  0  0  0  0  0
   58.9850   32.0280   47.4460 H   0  0  0  0  0  0  0  0  0  0  0  0
   62.1617   32.7237   51.0810 H   0  0  0  0  0  0  0  0  0  0  0  0
  1  2  1  0
  2  3  2  0
  3  4  1  0
  4  5  1  0
  5  6  1  0
  6  7  1  0
  7  8  2  0
  8  9  1  0
  9 10  1  0
 10 11  2  0
 11 12  1  0
 12 13  2  0
 13 14  1  0
 14 15  2  0
  9 16  2  0
  4 17  2  0
 17 18  1  0
 17 19  1  0
 19 20  2  0
 20 21  1  0
 20  2  1  0
 16  6  1  0
 15 10  1  0
  1 22  1  0
  1 23  1  0
  1 24  1  0
  3 25  1  0
  5 26  1  0
  5 27  1  0
  7 28  1  0
  8 29  1  0
 11 30  1  0
 12 31  1  0
 13 32  1  0
 14 33  1  0
 16 34  1  0
 19 35  1  0
M  CHG  1  16   1
M  END
>  <UniqueID>  (4) 
4

>  <SMILES>  (4) 
Cc1cc(Cn2ccc(-c3ccccn3)[nH+]2)c(Cl)cc1Cl

>  <Energy>  (4) 
69.08847655977054

>  <Genealogy>  (4) 
Cc1cc(Cn2ccc(-c3ccccn3)[nH+]2)c(Cl)cc1Cl (protonated)
Cc1cc(Cn2ccc(-c3ccccn3)[nH+]2)c(Cl)cc1Cl (3D coordinates assigned)
Cc1cc(Cn2ccc(-c3ccccn3)[nH+]2)c(Cl)cc1Cl (optimized conformer: 69.08847655977054 kcal/mol)

>  <smiles>  (4) 
Cc1cc(Cn2ccc(-c3ccccn3)n2)c(Cl)cc1Cl

>  <score_type>  (4) 
oracle

>  <origin>  (4) 
adg

>  <m_score__min__energy>  (4) 
-6.9400000000000004

>  <m_primary>  (4) 
energy

$$$$
4:0
     RDKit          3D

 46 49  0  0  0  0  0  0  0  0999 V2000
   55.9040   19.5010   44.2920 C   0  0  0  0  0  0  0  0  0  0  0  0
   56.2450   20.5300   43.3690 O   0  0  0  0  0  0  0  0  0  0  0  0
   56.6710   21.8150   43.7380 C   0  0  0  0  0  0  0  0  0  0  0  0
   57.8640   22.0400   44.4510 C   0  0  0  0  0  0  0  0  0  0  0  0
   58.2430   23.3400   44.7970 C   0  0  0  0  0  0  0  0  0  0  0  0
   57.4350   24.4340   44.4490 C   0  0  0  0  0  0  0  0  0  0  0  0
   57.8440   25.8130   44.7880 C   0  0  0  0  0  0  0  0  0  0  0  0
   58.1030   26.8000   43.8370 C   0  0  0  0  0  0  0  0  0  0  0  0
   58.5040   27.8920   44.5700 C   0  0  0  0  0  0  0  0  0  0  0  0
   58.8900   29.1120   44.1340 N   0  0  0  0  0  0  0  0  0  0  0  0
   59.2600   30.0490   45.0550 C   0  0  0  0  0  0  0  0  0  0  0  0
   59.2560   29.7580   46.4030 N   0  0  0  0  0  0  0  0  0  0  0  0
   59.6380   30.8080   47.3610 C   0  0  0  0  0  0  0  0  0  0  0  0
   59.4010   32.1740   46.7680 C   0  0  0  0  0  0  0  0  0  0  0  0
   58.0890   32.5900   46.4830 C   0  0  0  0  0  0  0  0  0  0  0  0
   57.8490   33.8620   45.9580 C   0  0  0  0  0  0  0  0  0  0  0  0
   58.9140   34.7320   45.7160 C   0  0  0  0  0  0  0  0  0  0  0  0
   60.2220   34.3300   45.9970 C   0  0  0  0  0  0  0  0  0  0  0  0
   60.4700   33.0570   46.5220 C   0  0  0  0  0  0  0  0  0  0  0  0
   61.7510   32.6910   46.7830 F   0  0  0  0  0  0  0  0  0  0  0  0
   58.8620   28.5130   46.8410 C   0  0  0  0  0  0  0  0  0  0  0  0
   58.8620   28.2290   48.0690 O   0  0  0  0  0  0  0  0  0  0  0  0
   58.4720   27.5670   45.8890 C   0  0  0  0  0  0  0  0  0  0  0  0
   58.0490   26.2920   46.0500 N   0  0  0  0  0  0  0  0  0  0  0  0
   57.8180   25.5950   47.3180 C   0  0  0  0  0  0  0  0  0  0  0  0
   56.2570   24.2090   43.7210 C   0  0  0  0  0  0  0  0  0  0  0  0
   55.8760   22.9090   43.3760 C   0  0  0  0  0  0  0  0  0  0  0  0
   56.0277   19.8742   45.3193 H   0  0  0  0  0  0  0  0  0  0  0  0
   54.8579   19.1994   44.1349 H   0  0  0  0  0  0  0  0  0  0  0  0
   56.5630   18.6344   44.1349 H   0  0  0  0  0  0  0  0  0  0  0  0
   58.5002   21.1894   44.7368 H   0  0  0  0  0  0  0  0  0  0  0  0
   59.1814   23.5072   45.3461 H   0  0  0  0  0  0  0  0  0  0  0  0
   58.0077   26.7221   42.7439 H   0  0  0  0  0  0  0  0  0  0  0  0
   58.9030   29.3360   43.1130 H   0  0  0  0  0  0  0  0  0  0  0  0
   59.5656   31.0503   44.7173 H   0  0  0  0  0  0  0  0  0  0  0  0
   59.0358   30.7006   48.2753 H   0  0  0  0  0  0  0  0  0  0  0  0
   60.7072   30.7028   47.5972 H   0  0  0  0  0  0  0  0  0  0  0  0
   57.2461   31.9097   46.6746 H   0  0  0  0  0  0  0  0  0  0  0  0
   56.8195   34.1788   45.7349 H   0  0  0  0  0  0  0  0  0  0  0  0
   58.7230   35.7339   45.3041 H   0  0  0  0  0  0  0  0  0  0  0  0
   61.0597   35.0165   45.8049 H   0  0  0  0  0  0  0  0  0  0  0  0
   58.0425   26.2725   48.1550 H   0  0  0  0  0  0  0  0  0  0  0  0
   56.7665   25.2772   47.3754 H   0  0  0  0  0  0  0  0  0  0  0  0
   58.4716   24.7121   47.3754 H   0  0  0  0  0  0  0  0  0  0  0  0
   55.6294   25.0607   43.4199 H   0  0  0  0  0  0  0  0  0  0  0  0
   54.9439   22.7443   42.8155 H   0  0  0  0  0  0  0  0  0  0  0  0
  1  2  1  0
  2  3  1  0
  3  4  2  0
  4  5  1  0
  5  6  2  0
  6  7  1  0
  7  8  2  0
  8  9  1  0
  9 10  1  0
 10 11  2  0
 11 12  1  0
 12 13  1  0
 13 14  1  0
 14 15  2  0
 15 16  1  0
 16 17  2  0
 17 18  1  0
 18 19  2  0
 19 20  1  0
 12 21  1  0
 21 22  2  0
 21 23  1  0
 23 24  1  0
 24 25  1  0
  6 26  1  0
 26 27  2  0
 27  3  1  0
 24  7  1  0
 23  9  2  0
 19 14  1  0
  1 28  1  0
  1 29  1  0
  1 30  1  0
  4 31  1  0
  5 32  1  0
  8 33  1  0
 10 34  1  0
 11 35  1  0
 13 36  1  0
 13 37  1  0
 15 38  1  0
 16 39  1  0
 17 40  1  0
 18 41  1  0
 25 42  1  0
 25 43  1  0
 25 44  1  0
 26 45  1  0
 27 46  1  0
M  CHG  1  10   1
M  END
>  <UniqueID>  (5) 
5

>  <SMILES>  (5) 
COc1ccc(-c2cc3[nH+]cn(Cc4ccccc4F)c(=O)c3n2C)cc1

>  <Energy>  (5) 
93.76907266370523

>  <Genealogy>  (5) 
COc1ccc(-c2cc3[nH+]cn(Cc4ccccc4F)c(=O)c3n2C)cc1 (protonated)
COc1ccc(-c2cc3[nH+]cn(Cc4ccccc4F)c(=O)c3n2C)cc1 (3D coordinates assigned)
COc1ccc(-c2cc3[nH+]cn(Cc4ccccc4F)c(=O)c3n2C)cc1 (optimized conformer: 93.76907266370523 kcal/mol)

>  <smiles>  (5) 
COc1ccc(-c2cc3ncn(Cc4ccccc4F)c(=O)c3n2C)cc1

>  <score_type>  (5) 
oracle

>  <origin>  (5) 
adg

>  <m_score__min__energy>  (5) 
-6.3200000000000003

>  <m_primary>  (5) 
energy

$$$$
5:0
     RDKit          3D

 33 35  0  0  0  0  0  0  0  0999 V2000
   57.8159   34.7612   44.0707 H   0  0  0  0  0  0  0  0  0  0  0  0
   58.3010   33.8610   44.4760 C   0  0  0  0  0  0  0  0  0  0  0  0
   58.2470   32.7290   43.7600 C   0  0  0  0  0  0  0  0  0  0  0  0
   58.4722   32.7825   42.6846 H   0  0  0  0  0  0  0  0  0  0  0  0
   57.9000   31.4080   44.3390 C   0  0  0  0  0  0  0  0  0  0  0  0
   58.8820   30.7130   45.0670 C   0  0  0  0  0  0  0  0  0  0  0  0
   59.8784   31.1591   45.2018 H   0  0  0  0  0  0  0  0  0  0  0  0
   58.6030   29.4600   45.6210 C   0  0  0  0  0  0  0  0  0  0  0  0
   59.3769   28.9284   46.1941 H   0  0  0  0  0  0  0  0  0  0  0  0
   57.3430   28.8820   45.4480 C   0  0  0  0  0  0  0  0  0  0  0  0
   57.0780   27.6660   45.9860 F   0  0  0  0  0  0  0  0  0  0  0  0
   56.3620   29.5530   44.7120 C   0  0  0  0  0  0  0  0  0  0  0  0
   55.1450   28.9850   44.5300 F   0  0  0  0  0  0  0  0  0  0  0  0
   56.6370   30.8070   44.1560 C   0  0  0  0  0  0  0  0  0  0  0  0
   55.8634   31.3276   43.5724 H   0  0  0  0  0  0  0  0  0  0  0  0
   58.9800   33.9560   45.7810 C   0  0  0  0  0  0  0  0  0  0  0  0
   60.1460   33.4010   46.0160 O   0  0  0  0  0  0  0  0  0  0  0  0
   60.4960   33.6540   47.2570 C   0  0  0  0  0  0  0  0  0  0  0  0
   61.7440   33.1470   47.8680 C   0  0  0  0  0  0  0  0  0  0  0  0
   62.9320   33.8630   47.6420 C   0  0  0  0  0  0  0  0  0  0  0  0
   62.9073   34.7805   47.0358 H   0  0  0  0  0  0  0  0  0  0  0  0
   64.1440   33.4220   48.1790 C   0  0  0  0  0  0  0  0  0  0  0  0
   65.0682   33.9867   47.9867 H   0  0  0  0  0  0  0  0  0  0  0  0
   64.1830   32.2660   48.9590 C   0  0  0  0  0  0  0  0  0  0  0  0
   65.1392   31.9143   49.3737 H   0  0  0  0  0  0  0  0  0  0  0  0
   63.0090   31.5560   49.2130 C   0  0  0  0  0  0  0  0  0  0  0  0
   63.0431   30.6502   49.8363 H   0  0  0  0  0  0  0  0  0  0  0  0
   61.7860   31.9880   48.6800 C   0  0  0  0  0  0  0  0  0  0  0  0
   60.3370   31.1000   49.1420 Cl  0  0  0  0  0  0  0  0  0  0  0  0
   59.5090   34.4000   47.8760 C   0  0  0  0  0  0  0  0  0  0  0  0
   59.5046   34.7600   48.9154 H   0  0  0  0  0  0  0  0  0  0  0  0
   58.5320   34.6000   46.9240 C   0  0  0  0  0  0  0  0  0  0  0  0
   57.5908   35.1561   47.0462 H   0  0  0  0  0  0  0  0  0  0  0  0
  1  2  1  0
  2  3  2  0
  3  4  1  0
  3  5  1  0
  5  6  2  0
  6  7  1  0
  6  8  1  0
  8  9  1  0
  8 10  2  0
 10 11  1  0
 10 12  1  0
 12 13  1  0
 12 14  2  0
 14 15  1  0
  2 16  1  0
 16 17  1  0
 17 18  1  0
 18 19  1  0
 19 20  2  0
 20 21  1  0
 20 22  1  0
 22 23  1  0
 22 24  2  0
 24 25  1  0
 24 26  1  0
 26 27  1  0
 26 28  2  0
 28 29  1  0
 18 30  2  0
 30 31  1  0
 30 32  1  0
 32 33  1  0
 14  5  1  0
 32 16  2  0
 28 19  1  0
M  END
>  <UniqueID>  (6) 
6

>  <SMILES>  (6) 
Fc1ccc(/C=C/c2ccc(-c3ccccc3Cl)o2)cc1F

>  <Energy>  (6) 
70.06382488515383

>  <Genealogy>  (6) 
Fc1ccc(/C=C/c2ccc(-c3ccccc3Cl)o2)cc1F (cis-trans isomerization)
Fc1ccc(/C=C/c2ccc(-c3ccccc3Cl)o2)cc1F (3D coordinates assigned)
Fc1ccc(/C=C/c2ccc(-c3ccccc3Cl)o2)cc1F (optimized conformer: 70.06382488515383 kcal/mol)

>  <smiles>  (6) 
Fc1ccc(C=Cc2ccc(-c3ccccc3Cl)o2)cc1F

>  <score_type>  (6) 
oracle

>  <origin>  (6) 
adg

>  <m_score__min__energy>  (6) 
-7.6100000000000003

>  <m_primary>  (6) 
energy

$$$$
6:0
     RDKit          3D

 39 41  0  0  0  0  0  0  0  0999 V2000
   56.8680   21.1210   43.0520 C   0  0  0  0  0  0  0  0  0  0  0  0
   55.8930   22.1100   43.3680 O   0  0  0  0  0  0  0  0  0  0  0  0
   56.1820   23.3420   43.9730 C   0  0  0  0  0  0  0  0  0  0  0  0
   57.1780   24.2080   43.4870 C   0  0  0  0  0  0  0  0  0  0  0  0
   57.4270   25.4270   44.1260 C   0  0  0  0  0  0  0  0  0  0  0  0
   56.6840   25.8040   45.2610 C   0  0  0  0  0  0  0  0  0  0  0  0
   56.9090   27.0550   45.9380 N   0  0  0  0  0  0  0  0  0  0  0  0
   58.2110   27.7200   46.0330 C   0  0  0  0  0  0  0  0  0  0  0  0
   58.0530   29.2100   45.9590 C   0  0  0  0  0  0  0  0  0  0  0  0
   58.7090   30.0760   46.7570 N   0  0  0  0  0  0  0  0  0  0  0  0
   58.3060   31.2840   46.3060 C   0  0  0  0  0  0  0  0  0  0  0  0
   58.7480   32.5650   46.8790 C   0  0  0  0  0  0  0  0  0  0  0  0
   58.7850   33.7340   46.1040 C   0  0  0  0  0  0  0  0  0  0  0  0
   59.2140   34.9290   46.6870 C   0  0  0  0  0  0  0  0  0  0  0  0
   59.5980   34.9500   48.0270 C   0  0  0  0  0  0  0  0  0  0  0  0
   59.5500   33.7680   48.7700 C   0  0  0  0  0  0  0  0  0  0  0  0
   59.1300   32.6130   48.1860 N   0  0  0  0  0  0  0  0  0  0  0  0
   57.4740   31.1970   45.2910 O   0  0  0  0  0  0  0  0  0  0  0  0
   57.3010   29.9220   45.0440 C   0  0  0  0  0  0  0  0  0  0  0  0
   56.4290   29.3780   43.9570 C   0  0  0  0  0  0  0  0  0  0  0  0
   57.0460   28.2970   43.3570 F   0  0  0  0  0  0  0  0  0  0  0  0
   55.2170   28.9790   44.4890 F   0  0  0  0  0  0  0  0  0  0  0  0
   56.2030   30.3540   43.0030 F   0  0  0  0  0  0  0  0  0  0  0  0
   55.6930   24.9350   45.7410 C   0  0  0  0  0  0  0  0  0  0  0  0
   55.4460   23.7160   45.1020 C   0  0  0  0  0  0  0  0  0  0  0  0
   57.2805   20.7025   43.9819 H   0  0  0  0  0  0  0  0  0  0  0  0
   56.3986   20.3178   42.4650 H   0  0  0  0  0  0  0  0  0  0  0  0
   57.6778   21.5789   42.4650 H   0  0  0  0  0  0  0  0  0  0  0  0
   57.7640   23.9252   42.6001 H   0  0  0  0  0  0  0  0  0  0  0  0
   58.2094   26.0963   43.7388 H   0  0  0  0  0  0  0  0  0  0  0  0
   56.0970   27.5330   46.3890 H   0  0  0  0  0  0  0  0  0  0  0  0
   58.6830   27.4542   46.9904 H   0  0  0  0  0  0  0  0  0  0  0  0
   58.8388   27.3891   45.1926 H   0  0  0  0  0  0  0  0  0  0  0  0
   58.4792   33.7099   45.0476 H   0  0  0  0  0  0  0  0  0  0  0  0
   59.2487   35.8520   46.0896 H   0  0  0  0  0  0  0  0  0  0  0  0
   59.9351   35.8871   48.4942 H   0  0  0  0  0  0  0  0  0  0  0  0
   59.8519   33.7710   49.8278 H   0  0  0  0  0  0  0  0  0  0  0  0
   55.1052   25.2149   46.6276 H   0  0  0  0  0  0  0  0  0  0  0  0
   54.6658   23.0451   45.4908 H   0  0  0  0  0  0  0  0  0  0  0  0
  1  2  1  0
  2  3  1  0
  3  4  2  0
  4  5  1  0
  5  6  2  0
  6  7  1  0
  7  8  1  0
  8  9  1  0
  9 10  1  0
 10 11  2  0
 11 12  1  0
 12 13  2  0
 13 14  1  0
 14 15  2  0
 15 16  1  0
 16 17  2  0
 11 18  1  0
 18 19  1  0
 19 20  1  0
 20 21  1  0
 20 22  1  0
 20 23  1  0
  6 24  1  0
 24 25  2  0
 25  3  1  0
 19  9  2  0
 17 12  1  0
  1 26  1  0
  1 27  1  0
  1 28  1  0
  4 29  1  0
  5 30  1  0
  7 31  1  0
  8 32  1  0
  8 33  1  0
 13 34  1  0
 14 35  1  0
 15 36  1  0
 16 37  1  0
 24 38  1  0
 25 39  1  0
M  END
>  <UniqueID>  (7) 
7

>  <SMILES>  (7) 
COc1ccc(NCc2nc(-c3ccccn3)oc2C(F)(F)F)cc1

>  <Energy>  (7) 
68.37244565573691

>  <Genealogy>  (7) 
COc1ccc(NCc2nc(-c3ccccn3)oc2C(F)(F)F)cc1 (3D coordinates assigned)
COc1ccc(NCc2nc(-c3ccccn3)oc2C(F)(F)F)cc1 (optimized conformer: 68.37244565573691 kcal/mol)

>  <smiles>  (7) 
COc1ccc(NCc2nc(-c3ccccn3)oc2C(F)(F)F)cc1

>  <score_type>  (7) 
oracle

>  <origin>  (7) 
adg

>  <m_score__min__energy>  (7) 
-6.5499999999999998

>  <m_primary>  (7) 
energy

$$$$
7:0
     RDKit          3D

 39 41  0  0  0  0  0  0  0  0999 V2000
   63.4320   32.2710   48.0460 C   0  0  0  0  0  0  0  0  0  0  0  0
   62.0090   32.4410   47.7470 N   0  0  0  0  0  0  0  0  0  0  0  0
   61.1260   31.6980   48.4170 N   0  0  0  0  0  0  0  0  0  0  0  0
   59.7860   31.7750   48.2070 C   0  0  0  0  0  0  0  0  0  0  0  0
   58.9290   30.8420   48.9680 C   0  0  0  0  0  0  0  0  0  0  0  0
   58.6240   31.1170   50.1590 O   0  0  0  0  0  0  0  0  0  0  0  0
   58.5240   29.5950   48.3970 N   0  0  0  0  0  0  0  0  0  0  0  0
   58.9730   29.1410   47.0880 C   0  0  0  0  0  0  0  0  0  0  0  0
   57.7630   28.7590   46.2370 C   0  0  0  0  0  0  0  0  0  0  0  0
   57.6500   29.6660   45.0410 C   0  0  0  0  0  0  0  0  0  0  0  0
   56.6420   29.4560   44.0850 C   0  0  0  0  0  0  0  0  0  0  0  0
   56.5570   30.2790   42.9580 C   0  0  0  0  0  0  0  0  0  0  0  0
   57.4820   31.3120   42.7710 C   0  0  0  0  0  0  0  0  0  0  0  0
   57.3750   32.3420   41.3560 Cl  0  0  0  0  0  0  0  0  0  0  0  0
   58.4960   31.5180   43.7120 C   0  0  0  0  0  0  0  0  0  0  0  0
   58.5840   30.6960   44.8410 C   0  0  0  0  0  0  0  0  0  0  0  0
   59.2910   32.7080   47.2680 C   0  0  0  0  0  0  0  0  0  0  0  0
   57.9110   32.9310   47.0650 C   0  0  0  0  0  0  0  0  0  0  0  0
   57.4740   33.8540   46.1130 C   0  0  0  0  0  0  0  0  0  0  0  0
   58.3960   34.5800   45.3630 C   0  0  0  0  0  0  0  0  0  0  0  0
   59.7630   34.4040   45.5730 C   0  0  0  0  0  0  0  0  0  0  0  0
   60.2240   33.4810   46.5320 C   0  0  0  0  0  0  0  0  0  0  0  0
   61.5970   33.3260   46.7900 C   0  0  0  0  0  0  0  0  0  0  0  0
   62.4470   34.0050   46.1490 O   0  0  0  0  0  0  0  0  0  0  0  0
   63.5781   32.2535   49.1361 H   0  0  0  0  0  0  0  0  0  0  0  0
   63.7870   31.3241   47.6133 H   0  0  0  0  0  0  0  0  0  0  0  0
   64.0001   33.1077   47.6133 H   0  0  0  0  0  0  0  0  0  0  0  0
   59.5299   29.9491   46.5911 H   0  0  0  0  0  0  0  0  0  0  0  0
   59.6267   28.2646   47.2090 H   0  0  0  0  0  0  0  0  0  0  0  0
   57.8758   27.7201   45.8937 H   0  0  0  0  0  0  0  0  0  0  0  0
   56.8534   28.8610   46.8471 H   0  0  0  0  0  0  0  0  0  0  0  0
   55.9167   28.6407   44.2238 H   0  0  0  0  0  0  0  0  0  0  0  0
   55.7612   30.1140   42.2167 H   0  0  0  0  0  0  0  0  0  0  0  0
   59.2257   32.3277   43.5643 H   0  0  0  0  0  0  0  0  0  0  0  0
   59.3876   30.8570   45.5747 H   0  0  0  0  0  0  0  0  0  0  0  0
   57.1746   32.3729   47.6619 H   0  0  0  0  0  0  0  0  0  0  0  0
   56.3965   34.0085   45.9546 H   0  0  0  0  0  0  0  0  0  0  0  0
   58.0449   35.2938   44.6033 H   0  0  0  0  0  0  0  0  0  0  0  0
   60.4860   34.9895   44.9862 H   0  0  0  0  0  0  0  0  0  0  0  0
  1  2  1  0
  2  3  1  0
  3  4  2  0
  4  5  1  0
  5  6  2  0
  5  7  1  0
  7  8  1  0
  8  9  1  0
  9 10  1  0
 10 11  2  0
 11 12  1  0
 12 13  2  0
 13 14  1  0
 13 15  1  0
 15 16  2  0
  4 17  1  0
 17 18  2  0
 18 19  1  0
 19 20  2  0
 20 21  1  0
 21 22  2  0
 22 23  1  0
 23 24  2  0
 23  2  1  0
 16 10  1  0
 22 17  1  0
  1 25  1  0
  1 26  1  0
  1 27  1  0
  8 28  1  0
  8 29  1  0
  9 30  1  0
  9 31  1  0
 11 32  1  0
 12 33  1  0
 15 34  1  0
 16 35  1  0
 18 36  1  0
 19 37  1  0
 20 38  1  0
 21 39  1  0
M  CHG  1   7  -1
M  END
>  <UniqueID>  (8) 
8

>  <SMILES>  (8) 
Cn1nc(C(=O)[N-]CCc2ccc(Cl)cc2)c2ccccc2c1=O

>  <Energy>  (8) 
48.09781886410309

>  <Genealogy>  (8) 
Cn1nc(C(=O)[N-]CCc2ccc(Cl)cc2)c2ccccc2c1=O (protonated)
Cn1nc(C(=O)[N-]CCc2ccc(Cl)cc2)c2ccccc2c1=O (3D coordinates assigned)
Cn1nc(C(=O)[N-]CCc2ccc(Cl)cc2)c2ccccc2c1=O (optimized conformer: 48.09781886410309 kcal/mol)

>  <smiles>  (8) 
Cn1nc(C(=O)NCCc2ccc(Cl)cc2)c2ccccc2c1=O

>  <score_type>  (8) 
oracle

>  <origin>  (8) 
adg

>  <m_score__min__energy>  (8) 
-10.289999999999999

>  <m_primary>  (8) 
energy

$$$$
8:0
     RDKit          3D

 29 30  0  0  0  0  0  0  0  0999 V2000
   58.0492   28.4784   43.5068 H   0  0  0  0  0  0  0  0  0  0  0  0
   57.4940   29.0580   44.2590 C   0  0  0  0  0  0  0  0  0  0  0  0
   56.2720   29.7680   43.8530 C   0  0  0  0  0  0  0  0  0  0  0  0
   55.1700   29.4380   44.3720 O   0  0  0  0  0  0  0  0  0  0  0  0
   56.3290   30.7920   42.9000 O   0  0  0  0  0  0  0  0  0  0  0  0
   57.5010   31.5620   42.6400 C   0  0  0  0  0  0  0  0  0  0  0  0
   58.3751   30.8944   42.6226 H   0  0  0  0  0  0  0  0  0  0  0  0
   57.6121   32.3158   43.4334 H   0  0  0  0  0  0  0  0  0  0  0  0
   57.3900   32.2760   41.2980 C   0  0  0  0  0  0  0  0  0  0  0  0
   57.2230   33.3501   41.4668 H   0  0  0  0  0  0  0  0  0  0  0  0
   58.3209   32.1346   40.7293 H   0  0  0  0  0  0  0  0  0  0  0  0
   56.5459   31.8586   40.7293 H   0  0  0  0  0  0  0  0  0  0  0  0
   57.9510   29.0960   45.5170 C   0  0  0  0  0  0  0  0  0  0  0  0
   57.6079   28.3274   46.2252 H   0  0  0  0  0  0  0  0  0  0  0  0
   58.8990   30.1290   45.9960 C   0  0  0  0  0  0  0  0  0  0  0  0
   60.1820   29.7190   46.3900 C   0  0  0  0  0  0  0  0  0  0  0  0
   60.4610   28.6564   46.3343 H   0  0  0  0  0  0  0  0  0  0  0  0
   61.1050   30.6600   46.8530 C   0  0  0  0  0  0  0  0  0  0  0  0
   62.1032   30.3333   47.1800 H   0  0  0  0  0  0  0  0  0  0  0  0
   60.7750   31.9760   46.9010 N   0  0  0  0  0  0  0  0  0  0  0  0
   59.5550   32.4200   46.5020 C   0  0  0  0  0  0  0  0  0  0  0  0
   59.2520   33.7820   46.5370 C   0  0  0  0  0  0  0  0  0  0  0  0
   59.9927   34.5025   46.9141 H   0  0  0  0  0  0  0  0  0  0  0  0
   58.0060   34.2270   46.0920 C   0  0  0  0  0  0  0  0  0  0  0  0
   57.7572   35.2982   46.1191 H   0  0  0  0  0  0  0  0  0  0  0  0
   57.0780   33.3000   45.6120 C   0  0  0  0  0  0  0  0  0  0  0  0
   56.0964   33.6418   45.2519 H   0  0  0  0  0  0  0  0  0  0  0  0
   57.3860   31.9750   45.5890 N   0  0  0  0  0  0  0  0  0  0  0  0
   58.5860   31.5060   46.0310 C   0  0  0  0  0  0  0  0  0  0  0  0
  1  2  1  0
  2  3  1  0
  3  4  2  0
  3  5  1  0
  5  6  1  0
  6  7  1  0
  6  8  1  0
  6  9  1  0
  9 10  1  0
  9 11  1  0
  9 12  1  0
  2 13  2  0
 13 14  1  0
 13 15  1  0
 15 16  2  0
 16 17  1  0
 16 18  1  0
 18 19  1  0
 18 20  2  0
 20 21  1  0
 21 22  2  0
 22 23  1  0
 22 24  1  0
 24 25  1  0
 24 26  2  0
 26 27  1  0
 26 28  1  0
 28 29  2  0
 29 15  1  0
 29 21  1  0
M  END
>  <UniqueID>  (9) 
9

>  <SMILES>  (9) 
CCOC(=O)/C=C/c1ccnc2cccnc12

>  <Energy>  (9) 
32.48195328860639

>  <Genealogy>  (9) 
CCOC(=O)/C=C/c1ccnc2cccnc12 (cis-trans isomerization)
CCOC(=O)/C=C/c1ccnc2cccnc12 (3D coordinates assigned)
CCOC(=O)/C=C/c1ccnc2cccnc12 (optimized conformer: 32.48195328860639 kcal/mol)

>  <smiles>  (9) 
CCOC(=O)C=Cc1ccnc2cccnc12

>  <score_type>  (9) 
oracle

>  <origin>  (9) 
adg

>  <m_score__min__energy>  (9) 
-6.0199999999999996

>  <m_primary>  (9) 
energy

$$$$
9:0
     RDKit          3D

 45 47  0  0  0  0  0  0  0  0999 V2000
   60.4190   28.1060   49.4420 C   0  0  0  0  0  0  0  0  0  0  0  0
   60.2590   29.0610   48.3030 C   0  0  0  0  0  0  0  0  0  0  0  0
   61.0110   30.2360   48.2510 C   0  0  0  0  0  0  0  0  0  0  0  0
   60.8350   31.0980   47.1650 C   0  0  0  0  0  0  0  0  0  0  0  0
   61.6130   32.3810   47.0890 C   0  0  0  0  0  0  0  0  0  0  0  0
   59.9130   30.7980   46.2070 N   0  0  0  0  0  0  0  0  0  0  0  0
   59.1710   29.6550   46.2810 C   0  0  0  0  0  0  0  0  0  0  0  0
   58.2040   29.3360   45.2610 N   0  0  0  0  0  0  0  0  0  0  0  0
   57.4960   30.3900   44.5830 C   0  0  0  0  0  0  0  0  0  0  0  0
   56.2340   30.4090   44.5890 O   0  0  0  0  0  0  0  0  0  0  0  0
   58.2110   31.4010   43.9260 O   0  0  0  0  0  0  0  0  0  0  0  0
   57.7840   32.7600   43.8820 C   0  0  0  0  0  0  0  0  0  0  0  0
   58.2910   33.5060   45.0860 C   0  0  0  0  0  0  0  0  0  0  0  0
   57.9090   33.1210   46.3820 C   0  0  0  0  0  0  0  0  0  0  0  0
   58.4080   33.8050   47.4950 C   0  0  0  0  0  0  0  0  0  0  0  0
   59.2940   34.8720   47.3220 C   0  0  0  0  0  0  0  0  0  0  0  0
   59.6820   35.2580   46.0360 C   0  0  0  0  0  0  0  0  0  0  0  0
   59.1850   34.5770   44.9200 C   0  0  0  0  0  0  0  0  0  0  0  0
   57.8980   27.9560   44.9780 C   0  0  0  0  0  0  0  0  0  0  0  0
   57.3790   27.1220   45.9860 C   0  0  0  0  0  0  0  0  0  0  0  0
   57.0730   25.7860   45.7110 C   0  0  0  0  0  0  0  0  0  0  0  0
   57.2800   25.2700   44.4300 C   0  0  0  0  0  0  0  0  0  0  0  0
   57.7910   26.0890   43.4200 C   0  0  0  0  0  0  0  0  0  0  0  0
   58.0970   27.4260   43.6900 C   0  0  0  0  0  0  0  0  0  0  0  0
   59.3560   28.7990   47.3220 N   0  0  0  0  0  0  0  0  0  0  0  0
   60.3277   28.6511   50.3931 H   0  0  0  0  0  0  0  0  0  0  0  0
   59.6377   27.3337   49.3855 H   0  0  0  0  0  0  0  0  0  0  0  0
   61.4093   27.6305   49.3855 H   0  0  0  0  0  0  0  0  0  0  0  0
   61.7280   30.4787   49.0491 H   0  0  0  0  0  0  0  0  0  0  0  0
   61.8301   32.7390   48.1062 H   0  0  0  0  0  0  0  0  0  0  0  0
   62.5573   32.2060   46.5526 H   0  0  0  0  0  0  0  0  0  0  0  0
   61.0213   33.1374   46.5526 H   0  0  0  0  0  0  0  0  0  0  0  0
   59.7930   31.4420   45.3940 H   0  0  0  0  0  0  0  0  0  0  0  0
   58.1757   33.2341   42.9700 H   0  0  0  0  0  0  0  0  0  0  0  0
   56.6844   32.7896   43.8797 H   0  0  0  0  0  0  0  0  0  0  0  0
   57.2152   32.2789   46.5217 H   0  0  0  0  0  0  0  0  0  0  0  0
   58.1029   33.5029   48.5077 H   0  0  0  0  0  0  0  0  0  0  0  0
   59.6862   35.4084   48.1986 H   0  0  0  0  0  0  0  0  0  0  0  0
   60.3790   36.0983   45.9014 H   0  0  0  0  0  0  0  0  0  0  0  0
   59.4950   34.8809   43.9093 H   0  0  0  0  0  0  0  0  0  0  0  0
   57.2131   27.5239   46.9964 H   0  0  0  0  0  0  0  0  0  0  0  0
   56.6687   25.1404   46.5046 H   0  0  0  0  0  0  0  0  0  0  0  0
   57.0405   24.2179   44.2160 H   0  0  0  0  0  0  0  0  0  0  0  0
   57.9527   25.6813   42.4112 H   0  0  0  0  0  0  0  0  0  0  0  0
   58.4958   28.0677   42.8905 H   0  0  0  0  0  0  0  0  0  0  0  0
  1  2  1  0
  2  3  2  0
  3  4  1  0
  4  5  1  0
  4  6  2  0
  6  7  1  0
  7  8  1  0
  8  9  1  0
  9 10  2  0
  9 11  1  0
 11 12  1  0
 12 13  1  0
 13 14  2  0
 14 15  1  0
 15 16  2  0
 16 17  1  0
 17 18  2  0
  8 19  1  0
 19 20  2  0
 20 21  1  0
 21 22  2  0
 22 23  1  0
 23 24  2  0
  7 25  2  0
 25  2  1  0
 18 13  1  0
 24 19  1  0
  1 26  1  0
  1 27  1  0
  1 28  1  0
  3 29  1  0
  5 30  1  0
  5 31  1  0
  5 32  1  0
  6 33  1  0
 12 34  1  0
 12 35  1  0
 14 36  1  0
 15 37  1  0
 16 38  1  0
 17 39  1  0
 18 40  1  0
 20 41  1  0
 21 42  1  0
 22 43  1  0
 23 44  1  0
 24 45  1  0
M  CHG  1   6   1
M  END
>  <UniqueID>  (10) 
10

>  <SMILES>  (10) 
Cc1cc(C)[nH+]c(N(C(=O)OCc2ccccc2)c2ccccc2)n1

>  <Energy>  (10) 
52.183670379405115

>  <Genealogy>  (10) 
Cc1cc(C)[nH+]c(N(C(=O)OCc2ccccc2)c2ccccc2)n1 (protonated)
Cc1cc(C)[nH+]c(N(C(=O)OCc2ccccc2)c2ccccc2)n1 (3D coordinates assigned)
Cc1cc(C)[nH+]c(N(C(=O)OCc2ccccc2)c2ccccc2)n1 (optimized conformer: 52.183670379405115 kcal/mol)

>  <smiles>  (10) 
Cc1cc(C)nc(N(C(=O)OCc2ccccc2)c2ccccc2)n1

>  <score_type>  (10) 
oracle

>  <origin>  (10) 
adg

>  <m_score__min__energy>  (10) 
-6.1799999999999997

>  <m_primary>  (10) 
energy

$$$$
10:0
     RDKit          3D

 58 61  0  0  0  0  0  0  0  0999 V2000
   57.0120   33.3480   45.4370 C   0  0  0  0  0  0  0  0  0  0  0  0
   57.5620   32.1040   44.7530 C   0  0  0  0  0  0  0  0  0  0  0  0
   57.3890   30.9550   45.5810 O   0  0  0  0  0  0  0  0  0  0  0  0
   58.0340   29.7150   45.4250 C   0  0  0  0  0  0  0  0  0  0  0  0
   58.1140   29.0740   44.1710 C   0  0  0  0  0  0  0  0  0  0  0  0
   58.7250   27.8240   44.0500 C   0  0  0  0  0  0  0  0  0  0  0  0
   59.2600   27.1950   45.1720 C   0  0  0  0  0  0  0  0  0  0  0  0
   59.1960   27.8170   46.4190 C   0  0  0  0  0  0  0  0  0  0  0  0
   58.6010   29.0850   46.5580 C   0  0  0  0  0  0  0  0  0  0  0  0
   58.5580   29.7010   47.9060 C   0  0  0  0  0  0  0  0  0  0  0  0
   58.5720   28.9490   48.9200 O   0  0  0  0  0  0  0  0  0  0  0  0
   58.5250   31.1280   48.0740 N   0  0  0  0  0  0  0  0  0  0  0  0
   58.6400   31.7680   49.3550 C   0  0  0  0  0  0  0  0  0  0  0  0
   58.0930   31.1520   50.5040 C   0  0  0  0  0  0  0  0  0  0  0  0
   58.3050   31.7620   51.7400 C   0  0  0  0  0  0  0  0  0  0  0  0
   59.0220   32.9210   51.8600 C   0  0  0  0  0  0  0  0  0  0  0  0
   59.5760   33.5600   50.7530 C   0  0  0  0  0  0  0  0  0  0  0  0
   59.3840   32.9760   49.4830 C   0  0  0  0  0  0  0  0  0  0  0  0
   59.8960   33.6400   48.3200 N   0  0  0  0  0  0  0  0  0  0  0  0
   61.1640   33.2870   47.7080 C   0  0  0  0  0  0  0  0  0  0  0  0
   61.1620   33.9670   46.3440 C   0  0  0  0  0  0  0  0  0  0  0  0
   60.0360   35.0000   46.3910 C   0  0  0  0  0  0  0  0  0  0  0  0
   59.1120   34.5590   47.5190 C   0  0  0  0  0  0  0  0  0  0  0  0
   59.0420   33.3020   53.1530 N   0  0  0  0  0  0  0  0  0  0  0  0
   59.6090   34.5260   53.7170 C   0  0  0  0  0  0  0  0  0  0  0  0
   58.3070   32.3580   53.7890 C   0  0  0  0  0  0  0  0  0  0  0  0
   58.0480   32.3910   55.0230 O   0  0  0  0  0  0  0  0  0  0  0  0
   57.8590   31.3830   52.9570 N   0  0  0  0  0  0  0  0  0  0  0  0
   56.9790   30.2620   53.2900 C   0  0  0  0  0  0  0  0  0  0  0  0
   55.5990   30.4720   52.6800 C   0  0  0  0  0  0  0  0  0  0  0  0
   57.0680   33.2215   46.5283 H   0  0  0  0  0  0  0  0  0  0  0  0
   57.6068   34.2239   45.1385 H   0  0  0  0  0  0  0  0  0  0  0  0
   55.9639   33.4975   45.1385 H   0  0  0  0  0  0  0  0  0  0  0  0
   57.0288   31.9484   43.8035 H   0  0  0  0  0  0  0  0  0  0  0  0
   58.6367   32.2480   44.5681 H   0  0  0  0  0  0  0  0  0  0  0  0
   57.6915   29.5629   43.2808 H   0  0  0  0  0  0  0  0  0  0  0  0
   58.7839   27.3350   43.0664 H   0  0  0  0  0  0  0  0  0  0  0  0
   59.7334   26.2069   45.0745 H   0  0  0  0  0  0  0  0  0  0  0  0
   59.6145   27.3118   47.3020 H   0  0  0  0  0  0  0  0  0  0  0  0
   58.4360   31.7470   47.2390 H   0  0  0  0  0  0  0  0  0  0  0  0
   57.5167   30.2184   50.4253 H   0  0  0  0  0  0  0  0  0  0  0  0
   60.1470   34.4934   50.8658 H   0  0  0  0  0  0  0  0  0  0  0  0
   62.0013   33.6545   48.3194 H   0  0  0  0  0  0  0  0  0  0  0  0
   61.2850   32.1972   47.6202 H   0  0  0  0  0  0  0  0  0  0  0  0
   62.1274   34.4617   46.1619 H   0  0  0  0  0  0  0  0  0  0  0  0
   61.0098   33.2411   45.5317 H   0  0  0  0  0  0  0  0  0  0  0  0
   60.4430   36.0006   46.5988 H   0  0  0  0  0  0  0  0  0  0  0  0
   59.5019   35.0594   45.4312 H   0  0  0  0  0  0  0  0  0  0  0  0
   58.7993   35.4247   48.1214 H   0  0  0  0  0  0  0  0  0  0  0  0
   58.1942   34.0886   47.1365 H   0  0  0  0  0  0  0  0  0  0  0  0
   59.5830   34.4700   54.8153 H   0  0  0  0  0  0  0  0  0  0  0  0
   60.6502   34.6369   53.3800 H   0  0  0  0  0  0  0  0  0  0  0  0
   59.0203   35.3920   53.3800 H   0  0  0  0  0  0  0  0  0  0  0  0
   57.4122   29.3312   52.8951 H   0  0  0  0  0  0  0  0  0  0  0  0
   56.8801   30.1981   54.3837 H   0  0  0  0  0  0  0  0  0  0  0  0
   54.8563   30.5850   53.4835 H   0  0  0  0  0  0  0  0  0  0  0  0
   55.6072   31.3792   52.0580 H   0  0  0  0  0  0  0  0  0  0  0  0
   55.3370   29.6034   52.0580 H   0  0  0  0  0  0  0  0  0  0  0  0
  1  2  1  0
  2  3  1  0
  3  4  1  0
  4  5  2  0
  5  6  1  0
  6  7  2  0
  7  8  1  0
  8  9  2  0
  9 10  1  0
 10 11  2  0
 10 12  1  0
 12 13  1  0
 13 14  2  0
 14 15  1  0
 15 16  2  0
 16 17  1  0
 17 18  2  0
 18 19  1  0
 19 20  1  0
 20 21  1  0
 21 22  1  0
 22 23  1  0
 16 24  1  0
 24 25  1  0
 24 26  1  0
 26 27  2  0
 26 28  1  0
 28 29  1  0
 29 30  1  0
  9  4  1  0
 18 13  1  0
 23 19  1  0
 28 15  1  0
  1 31  1  0
  1 32  1  0
  1 33  1  0
  2 34  1  0
  2 35  1  0
  5 36  1  0
  6 37  1  0
  7 38  1  0
  8 39  1  0
 12 40  1  0
 14 41  1  0
 17 42  1  0
 20 43  1  0
 20 44  1  0
 21 45  1  0
 21 46  1  0
 22 47  1  0
 22 48  1  0
 23 49  1  0
 23 50  1  0
 25 51  1  0
 25 52  1  0
 25 53  1  0
 29 54  1  0
 29 55  1  0
 30 56  1  0
 30 57  1  0
 30 58  1  0
M  END
>  <UniqueID>  (11) 
11

>  <SMILES>  (11) 
CCOc1ccccc1C(=O)Nc1cc2c(cc1N1CCCC1)n(C)c(=O)n2CC

>  <Energy>  (11) 
107.58104977517468

>  <Genealogy>  (11) 
CCOc1ccccc1C(=O)Nc1cc2c(cc1N1CCCC1)n(C)c(=O)n2CC (3D coordinates assigned)
CCOc1ccccc1C(=O)Nc1cc2c(cc1N1CCCC1)n(C)c(=O)n2CC (nonaromatic ring conformer: 107.58104977517468 kcal/mol)

>  <smiles>  (11) 
CCOc1ccccc1C(=O)Nc1cc2c(cc1N1CCCC1)n(C)c(=O)n2CC

>  <score_type>  (11) 
oracle

>  <origin>  (11) 
adg

>  <m_score__min__energy>  (11) 
-7.3099999999999996

>  <m_primary>  (11) 
energy

$$$$
11:0
     RDKit          3D

 33 34  0  0  0  0  0  0  0  0999 V2000
   55.5190   29.0210   45.2410 O   0  0  0  0  0  0  0  0  0  0  0  0
   56.7590   28.7960   45.2850 C   0  0  0  0  0  0  0  0  0  0  0  0
   57.7080   29.8450   44.7770 C   0  0  0  0  0  0  0  0  0  0  0  0
   57.1320   31.1500   44.8540 O   0  0  0  0  0  0  0  0  0  0  0  0
   57.7720   32.2940   45.3600 C   0  0  0  0  0  0  0  0  0  0  0  0
   57.9200   33.3990   44.5120 C   0  0  0  0  0  0  0  0  0  0  0  0
   58.5400   34.5660   44.9680 C   0  0  0  0  0  0  0  0  0  0  0  0
   59.0120   34.6390   46.2820 C   0  0  0  0  0  0  0  0  0  0  0  0
   58.8720   33.5440   47.1360 C   0  0  0  0  0  0  0  0  0  0  0  0
   58.2600   32.3720   46.6800 C   0  0  0  0  0  0  0  0  0  0  0  0
   57.2610   27.5700   45.8390 N   0  0  0  0  0  0  0  0  0  0  0  0
   56.4620   26.3890   45.9990 C   0  0  0  0  0  0  0  0  0  0  0  0
   55.2080   26.4370   45.8780 O   0  0  0  0  0  0  0  0  0  0  0  0
   57.1260   25.0750   46.2690 C   0  0  0  0  0  0  0  0  0  0  0  0
   56.9860   24.2020   45.1080 N   0  0  0  0  0  0  0  0  0  0  0  0
   57.1570   22.8660   45.0720 C   0  0  0  0  0  0  0  0  0  0  0  0
   57.0070   22.4490   43.7660 C   0  0  0  0  0  0  0  0  0  0  0  0
   56.7570   23.5250   42.9980 N   0  0  0  0  0  0  0  0  0  0  0  0
   56.7540   24.5800   43.8350 C   0  0  0  0  0  0  0  0  0  0  0  0
   58.6251   29.8222   45.3840 H   0  0  0  0  0  0  0  0  0  0  0  0
   57.9325   29.6273   43.7224 H   0  0  0  0  0  0  0  0  0  0  0  0
   57.5454   33.3481   43.4790 H   0  0  0  0  0  0  0  0  0  0  0  0
   58.6565   35.4268   44.2931 H   0  0  0  0  0  0  0  0  0  0  0  0
   59.4938   35.5597   46.6428 H   0  0  0  0  0  0  0  0  0  0  0  0
   59.2437   33.6029   48.1696 H   0  0  0  0  0  0  0  0  0  0  0  0
   58.1592   31.5083   47.3537 H   0  0  0  0  0  0  0  0  0  0  0  0
   58.2860   27.4940   46.0260 H   0  0  0  0  0  0  0  0  0  0  0  0
   58.1938   25.2409   46.4743 H   0  0  0  0  0  0  0  0  0  0  0  0
   56.6503   24.6001   47.1397 H   0  0  0  0  0  0  0  0  0  0  0  0
   57.3779   22.2200   45.9345 H   0  0  0  0  0  0  0  0  0  0  0  0
   57.0796   21.4102   43.4115 H   0  0  0  0  0  0  0  0  0  0  0  0
   56.6130   23.5410   41.9640 H   0  0  0  0  0  0  0  0  0  0  0  0
   56.5836   25.6199   43.5194 H   0  0  0  0  0  0  0  0  0  0  0  0
  1  2  2  0
  2  3  1  0
  3  4  1  0
  4  5  1  0
  5  6  2  0
  6  7  1  0
  7  8  2  0
  8  9  1  0
  9 10  2  0
  2 11  1  0
 11 12  1  0
 12 13  2  0
 12 14  1  0
 14 15  1  0
 15 16  1  0
 16 17  2  0
 17 18  1  0
 18 19  2  0
 10  5  1  0
 19 15  1  0
  3 20  1  0
  3 21  1  0
  6 22  1  0
  7 23  1  0
  8 24  1  0
  9 25  1  0
 10 26  1  0
 11 27  1  0
 14 28  1  0
 14 29  1  0
 16 30  1  0
 17 31  1  0
 18 32  1  0
 19 33  1  0
M  CHG  1  18   1
M  END
>  <UniqueID>  (12) 
12

>  <SMILES>  (12) 
O=C(COc1ccccc1)NC(=O)Cn1cc[nH+]c1

>  <Energy>  (12) 
57.46890531078832

>  <Genealogy>  (12) 
O=C(COc1ccccc1)NC(=O)Cn1cc[nH+]c1 (protonated)
O=C(COc1ccccc1)NC(=O)Cn1cc[nH+]c1 (3D coordinates assigned)
O=C(COc1ccccc1)NC(=O)Cn1cc[nH+]c1 (optimized conformer: 57.46890531078832 kcal/mol)

>  <smiles>  (12) 
O=C(COc1ccccc1)NC(=O)Cn1ccnc1

>  <score_type>  (12) 
oracle

>  <origin>  (12) 
adg

>  <m_score__min__energy>  (12) 
-5.8099999999999996

>  <m_primary>  (12) 
energy

$$$$
12:0
     RDKit          3D

 41 43  0  0  0  0  0  0  0  0999 V2000
   65.1920   26.3760   51.9780 C   0  0  0  0  0  0  0  0  0  0  0  0
   66.4090   26.8830   51.2470 C   0  0  0  0  0  0  0  0  0  0  0  0
   67.1870   25.9660   50.5180 C   0  0  0  0  0  0  0  0  0  0  0  0
   68.3030   26.3930   49.7960 C   0  0  0  0  0  0  0  0  0  0  0  0
   68.6510   27.7410   49.7820 C   0  0  0  0  0  0  0  0  0  0  0  0
   67.8910   28.6670   50.4960 C   0  0  0  0  0  0  0  0  0  0  0  0
   66.7690   28.2600   51.2450 C   0  0  0  0  0  0  0  0  0  0  0  0
   66.0340   29.2530   52.0030 N   0  0  0  0  0  0  0  0  0  0  0  0
   66.7520   30.5390   52.0610 C   0  0  0  0  0  0  0  0  0  0  0  0
   66.1840   31.5400   51.0980 C   0  0  0  0  0  0  0  0  0  0  0  0
   66.8210   32.6660   50.6260 C   0  0  0  0  0  0  0  0  0  0  0  0
   66.0260   33.2220   49.7460 O   0  0  0  0  0  0  0  0  0  0  0  0
   64.9460   32.4740   49.6640 C   0  0  0  0  0  0  0  0  0  0  0  0
   63.8160   32.7620   48.7590 C   0  0  0  0  0  0  0  0  0  0  0  0
   64.0130   33.5040   47.5820 C   0  0  0  0  0  0  0  0  0  0  0  0
   62.9380   33.7790   46.7320 C   0  0  0  0  0  0  0  0  0  0  0  0
   61.6520   33.3210   47.0400 C   0  0  0  0  0  0  0  0  0  0  0  0
   60.6080   33.6260   46.1520 O   0  0  0  0  0  0  0  0  0  0  0  0
   59.5490   34.5390   46.4270 C   0  0  0  0  0  0  0  0  0  0  0  0
   59.6230   34.9310   47.7490 F   0  0  0  0  0  0  0  0  0  0  0  0
   59.6680   35.6560   45.6190 F   0  0  0  0  0  0  0  0  0  0  0  0
   61.4520   32.5800   48.2190 C   0  0  0  0  0  0  0  0  0  0  0  0
   62.5260   32.3040   49.0710 C   0  0  0  0  0  0  0  0  0  0  0  0
   64.9920   31.4050   50.4870 N   0  0  0  0  0  0  0  0  0  0  0  0
   65.3602   26.4461   53.0628 H   0  0  0  0  0  0  0  0  0  0  0  0
   64.3185   26.9851   51.7023 H   0  0  0  0  0  0  0  0  0  0  0  0
   65.0093   25.3269   51.7023 H   0  0  0  0  0  0  0  0  0  0  0  0
   66.9132   24.9006   50.5166 H   0  0  0  0  0  0  0  0  0  0  0  0
   68.9081   25.6636   49.2376 H   0  0  0  0  0  0  0  0  0  0  0  0
   69.5267   28.0761   49.2069 H   0  0  0  0  0  0  0  0  0  0  0  0
   68.1715   29.7304   50.4742 H   0  0  0  0  0  0  0  0  0  0  0  0
   65.1140   29.4130   51.5310 H   0  0  0  0  0  0  0  0  0  0  0  0
   65.8140   28.9320   52.9720 H   0  0  0  0  0  0  0  0  0  0  0  0
   66.6755   30.9435   53.0811 H   0  0  0  0  0  0  0  0  0  0  0  0
   67.8011   30.3569   51.7848 H   0  0  0  0  0  0  0  0  0  0  0  0
   67.8129   33.0306   50.9312 H   0  0  0  0  0  0  0  0  0  0  0  0
   65.0187   33.8704   47.3282 H   0  0  0  0  0  0  0  0  0  0  0  0
   63.1043   34.3604   45.8131 H   0  0  0  0  0  0  0  0  0  0  0  0
   58.5850   34.0471   46.2299 H   0  0  0  0  0  0  0  0  0  0  0  0
   60.4454   32.2158   48.4721 H   0  0  0  0  0  0  0  0  0  0  0  0
   62.3591   31.7246   49.9911 H   0  0  0  0  0  0  0  0  0  0  0  0
  1  2  1  0
  2  3  2  0
  3  4  1  0
  4  5  2  0
  5  6  1  0
  6  7  2  0
  7  8  1  0
  8  9  1  0
  9 10  1  0
 10 11  2  0
 11 12  1  0
 12 13  1  0
 13 14  1  0
 14 15  2  0
 15 16  1  0
 16 17  2  0
 17 18  1  0
 18 19  1  0
 19 20  1  0
 19 21  1  0
 17 22  1  0
 22 23  2  0
 13 24  2  0
  7  2  1  0
 24 10  1  0
 23 14  1  0
  1 25  1  0
  1 26  1  0
  1 27  1  0
  3 28  1  0
  4 29  1  0
  5 30  1  0
  6 31  1  0
  8 32  1  0
  8 33  1  0
  9 34  1  0
  9 35  1  0
 11 36  1  0
 15 37  1  0
 16 38  1  0
 19 39  1  0
 22 40  1  0
 23 41  1  0
M  CHG  1   8   1
M  END
>  <UniqueID>  (13) 
13

>  <SMILES>  (13) 
Cc1ccccc1[NH2+]Cc1coc(-c2ccc(OC(F)F)cc2)n1

>  <Energy>  (13) 
73.42989431236448

>  <Genealogy>  (13) 
Cc1ccccc1[NH2+]Cc1coc(-c2ccc(OC(F)F)cc2)n1 (protonated)
Cc1ccccc1[NH2+]Cc1coc(-c2ccc(OC(F)F)cc2)n1 (3D coordinates assigned)
Cc1ccccc1[NH2+]Cc1coc(-c2ccc(OC(F)F)cc2)n1 (optimized conformer: 73.42989431236448 kcal/mol)

>  <smiles>  (13) 
Cc1ccccc1NCc1coc(-c2ccc(OC(F)F)cc2)n1

>  <score_type>  (13) 
oracle

>  <origin>  (13) 
adg

>  <m_score__min__energy>  (13) 
-5.3799999999999999

>  <m_primary>  (13) 
energy

$$$$
13:0
     RDKit          3D

 57 59  0  0  0  0  0  0  0  0999 V2000
   55.8770   23.3440   47.7320 C   0  0  0  0  0  0  0  0  0  0  0  0
   55.0220   24.0990   46.8270 N   0  0  0  0  0  0  0  0  0  0  0  0
   55.4720   25.1660   45.9830 C   0  0  0  0  0  0  0  0  0  0  0  0
   54.7540   26.1930   45.8720 O   0  0  0  0  0  0  0  0  0  0  0  0
   56.7920   25.1170   45.2640 C   0  0  0  0  0  0  0  0  0  0  0  0
   57.7410   26.1410   45.8280 C   0  0  0  0  0  0  0  0  0  0  0  0
   59.0930   25.8260   46.0390 C   0  0  0  0  0  0  0  0  0  0  0  0
   59.9630   26.7730   46.5820 C   0  0  0  0  0  0  0  0  0  0  0  0
   59.4980   28.0510   46.9280 C   0  0  0  0  0  0  0  0  0  0  0  0
   60.4250   29.0160   47.4590 N   0  0  0  0  0  0  0  0  0  0  0  0
   60.7710   29.1330   48.8470 C   0  0  0  0  0  0  0  0  0  0  0  0
   60.3310   28.3060   49.6910 O   0  0  0  0  0  0  0  0  0  0  0  0
   61.6150   30.2130   49.2670 N   0  0  0  0  0  0  0  0  0  0  0  0
   61.3360   31.6090   49.0900 C   0  0  0  0  0  0  0  0  0  0  0  0
   61.1650   32.4030   50.2240 C   0  0  0  0  0  0  0  0  0  0  0  0
   60.9070   33.7620   50.0890 C   0  0  0  0  0  0  0  0  0  0  0  0
   60.8250   34.3230   48.8170 C   0  0  0  0  0  0  0  0  0  0  0  0
   60.9880   33.5520   47.6970 N   0  0  0  0  0  0  0  0  0  0  0  0
   60.8940   34.1990   46.3740 C   0  0  0  0  0  0  0  0  0  0  0  0
   59.5000   34.7090   46.1060 C   0  0  0  0  0  0  0  0  0  0  0  0
   58.8970   35.3300   47.0210 O   0  0  0  0  0  0  0  0  0  0  0  0
   58.8390   34.5440   44.8420 N   0  0  0  0  0  0  0  0  0  0  0  0
   57.7710   33.5970   44.5260 C   0  0  2  0  0  0  0  0  0  0  0  0
   57.4750   32.7370   45.7710 C   0  0  0  0  0  0  0  0  0  0  0  0
   58.3720   31.4990   45.8160 C   0  0  0  0  0  0  0  0  0  0  0  0
   58.1940   30.6340   44.5490 C   0  0  0  0  0  0  0  0  0  0  0  0
   57.5920   31.3790   43.4280 N   0  0  0  0  0  0  0  0  0  0  0  0
   58.1690   32.7230   43.3120 C   0  0  0  0  0  0  0  0  0  0  0  0
   61.1800   32.1950   47.8160 C   0  0  0  0  0  0  0  0  0  0  0  0
   61.1990   31.4630   46.7890 O   0  0  0  0  0  0  0  0  0  0  0  0
   58.1540   28.3810   46.6770 C   0  0  0  0  0  0  0  0  0  0  0  0
   57.2820   27.4300   46.1400 C   0  0  0  0  0  0  0  0  0  0  0  0
   55.6091   23.5805   48.7723 H   0  0  0  0  0  0  0  0  0  0  0  0
   55.7394   22.2673   47.5537 H   0  0  0  0  0  0  0  0  0  0  0  0
   56.9284   23.6138   47.5537 H   0  0  0  0  0  0  0  0  0  0  0  0
   57.2303   24.1149   45.3808 H   0  0  0  0  0  0  0  0  0  0  0  0
   56.6243   25.3373   44.1994 H   0  0  0  0  0  0  0  0  0  0  0  0
   59.4690   24.8266   45.7747 H   0  0  0  0  0  0  0  0  0  0  0  0
   61.0208   26.5156   46.7398 H   0  0  0  0  0  0  0  0  0  0  0  0
   60.9650   29.6030   46.7850 H   0  0  0  0  0  0  0  0  0  0  0  0
   61.2344   31.9534   51.2255 H   0  0  0  0  0  0  0  0  0  0  0  0
   60.7685   34.3904   50.9811 H   0  0  0  0  0  0  0  0  0  0  0  0
   60.6267   35.3997   48.7105 H   0  0  0  0  0  0  0  0  0  0  0  0
   61.5969   35.0444   46.3388 H   0  0  0  0  0  0  0  0  0  0  0  0
   61.1418   33.4516   45.6059 H   0  0  0  0  0  0  0  0  0  0  0  0
   56.8563   34.1426   44.2509 H   0  0  0  0  0  0  0  0  0  0  0  0
   57.6512   33.3404   46.6737 H   0  0  0  0  0  0  0  0  0  0  0  0
   56.4272   32.4056   45.7235 H   0  0  0  0  0  0  0  0  0  0  0  0
   59.4220   31.8191   45.8873 H   0  0  0  0  0  0  0  0  0  0  0  0
   58.0900   30.8961   46.6918 H   0  0  0  0  0  0  0  0  0  0  0  0
   59.1810   30.2635   44.2349 H   0  0  0  0  0  0  0  0  0  0  0  0
   57.5109   29.8103   44.8038 H   0  0  0  0  0  0  0  0  0  0  0  0
   57.8020   30.8580   42.5450 H   0  0  0  0  0  0  0  0  0  0  0  0
   59.2652   32.6427   43.2690 H   0  0  0  0  0  0  0  0  0  0  0  0
   57.7842   33.1947   42.3958 H   0  0  0  0  0  0  0  0  0  0  0  0
   57.7873   29.3928   46.9045 H   0  0  0  0  0  0  0  0  0  0  0  0
   56.2292   27.6935   45.9607 H   0  0  0  0  0  0  0  0  0  0  0  0
  1  2  1  0
  2  3  1  0
  3  4  2  0
  3  5  1  0
  5  6  1  0
  6  7  2  0
  7  8  1  0
  8  9  2  0
  9 10  1  0
 10 11  1  0
 11 12  2  0
 11 13  1  0
 13 14  1  0
 14 15  2  0
 15 16  1  0
 16 17  2  0
 17 18  1  0
 18 19  1  0
 19 20  1  0
 20 21  2  0
 20 22  1  0
 22 23  1  0
 23 24  1  0
 24 25  1  0
 25 26  1  0
 26 27  1  0
 27 28  1  0
 18 29  1  0
 29 30  2  0
  9 31  1  0
 31 32  2  0
 32  6  1  0
 29 14  1  0
 28 23  1  0
  1 33  1  0
  1 34  1  0
  1 35  1  0
  5 36  1  0
  5 37  1  0
  7 38  1  0
  8 39  1  0
 10 40  1  0
 15 41  1  0
 16 42  1  0
 17 43  1  0
 19 44  1  0
 19 45  1  0
 23 46  1  6
 24 47  1  0
 24 48  1  0
 25 49  1  0
 25 50  1  0
 26 51  1  0
 26 52  1  0
 27 53  1  0
 28 54  1  0
 28 55  1  0
 31 56  1  0
 32 57  1  0
M  CHG  3   2  -1  13  -1  22  -1
M  END
>  <UniqueID>  (14) 
14

>  <SMILES>  (14) 
C[N-]C(=O)Cc1ccc(NC(=O)[N-]c2cccn(CC(=O)[N-][C@@H]3CCCNC3)c2=O)cc1

>  <Energy>  (14) 
67.94702821902351

>  <Genealogy>  (14) 
C[N-]C(=O)Cc1ccc(NC(=O)[N-]c2cccn(CC(=O)[N-]C3CCCNC3)c2=O)cc1 (protonated)
C[N-]C(=O)Cc1ccc(NC(=O)[N-]c2cccn(CC(=O)[N-][C@@H]3CCCNC3)c2=O)cc1 (chirality)
C[N-]C(=O)Cc1ccc(NC(=O)[N-]c2cccn(CC(=O)[N-][C@@H]3CCCNC3)c2=O)cc1 (3D coordinates assigned)
C[N-]C(=O)Cc1ccc(NC(=O)[N-]c2cccn(CC(=O)[N-][C@@H]3CCCNC3)c2=O)cc1 (nonaromatic ring conformer: 67.94702821902351 kcal/mol)

>  <smiles>  (14) 
CNC(=O)Cc1ccc(NC(=O)Nc2cccn(CC(=O)NC3CCCNC3)c2=O)cc1

>  <score_type>  (14) 
oracle

>  <origin>  (14) 
adg

>  <m_score__min__energy>  (14) 
-12.51

>  <m_primary>  (14) 
energy

$$$$
14:0
     RDKit          3D

 41 42  0  0  0  0  0  0  0  0999 V2000
   56.8940   20.9570   42.9870 C   0  0  0  0  0  0  0  0  0  0  0  0
   55.9030   21.8570   43.4740 O   0  0  0  0  0  0  0  0  0  0  0  0
   56.1820   23.0840   44.0930 C   0  0  0  0  0  0  0  0  0  0  0  0
   57.0600   23.9670   43.4550 C   0  0  0  0  0  0  0  0  0  0  0  0
   57.3720   25.2010   44.0330 C   0  0  0  0  0  0  0  0  0  0  0  0
   56.8230   25.5640   45.2700 C   0  0  0  0  0  0  0  0  0  0  0  0
   57.1440   26.8460   45.8320 N   0  0  0  0  0  0  0  0  0  0  0  0
   58.1370   27.0510   46.8530 C   0  0  0  0  0  0  0  0  0  0  0  0
   58.7200   26.0680   47.3840 O   0  0  0  0  0  0  0  0  0  0  0  0
   58.4870   28.4170   47.2970 C   0  0  0  0  0  0  0  0  0  0  0  0
   58.9130   28.6060   48.6230 C   0  0  0  0  0  0  0  0  0  0  0  0
   59.2070   29.8860   49.0980 C   0  0  0  0  0  0  0  0  0  0  0  0
   59.0890   30.9890   48.2540 C   0  0  0  0  0  0  0  0  0  0  0  0
   58.6890   30.8160   46.9280 C   0  0  0  0  0  0  0  0  0  0  0  0
   58.3940   29.5360   46.4320 C   0  0  0  0  0  0  0  0  0  0  0  0
   58.0690   29.3820   45.0390 N   0  0  0  0  0  0  0  0  0  0  0  0
   58.9970   28.7250   44.1210 C   0  0  0  0  0  0  0  0  0  0  0  0
   56.6180   30.0900   44.3970 S   0  0  0  0  0  0  0  0  0  0  0  0
   56.6220   29.9860   42.6220 C   0  0  0  0  0  0  0  0  0  0  0  0
   55.4220   29.3600   44.9410 O   0  0  0  0  0  0  0  0  0  0  0  0
   56.5310   31.5330   44.8080 O   0  0  0  0  0  0  0  0  0  0  0  0
   55.9220   24.6900   45.9030 C   0  0  0  0  0  0  0  0  0  0  0  0
   55.6080   23.4570   45.3240 C   0  0  0  0  0  0  0  0  0  0  0  0
   57.4115   20.4870   43.8363 H   0  0  0  0  0  0  0  0  0  0  0  0
   56.4140   20.1796   42.3743 H   0  0  0  0  0  0  0  0  0  0  0  0
   57.6217   21.5094   42.3743 H   0  0  0  0  0  0  0  0  0  0  0  0
   57.5087   23.6878   42.4903 H   0  0  0  0  0  0  0  0  0  0  0  0
   58.0528   25.8914   43.5135 H   0  0  0  0  0  0  0  0  0  0  0  0
   56.6940   27.6850   45.4020 H   0  0  0  0  0  0  0  0  0  0  0  0
   59.0156   27.7389   49.2920 H   0  0  0  0  0  0  0  0  0  0  0  0
   59.5322   30.0239   50.1397 H   0  0  0  0  0  0  0  0  0  0  0  0
   59.3114   31.9972   48.6335 H   0  0  0  0  0  0  0  0  0  0  0  0
   58.6041   31.6902   46.2657 H   0  0  0  0  0  0  0  0  0  0  0  0
   59.7616   28.1837   44.6976 H   0  0  0  0  0  0  0  0  0  0  0  0
   58.4450   28.0153   43.4872 H   0  0  0  0  0  0  0  0  0  0  0  0
   59.4830   29.4814   43.4872 H   0  0  0  0  0  0  0  0  0  0  0  0
   56.6626   28.9300   42.3167 H   0  0  0  0  0  0  0  0  0  0  0  0
   55.7054   30.4473   42.2256 H   0  0  0  0  0  0  0  0  0  0  0  0
   57.5004   30.5164   42.2256 H   0  0  0  0  0  0  0  0  0  0  0  0
   55.4614   24.9781   46.8595 H   0  0  0  0  0  0  0  0  0  0  0  0
   54.9098   22.7753   45.8318 H   0  0  0  0  0  0  0  0  0  0  0  0
  1  2  1  0
  2  3  1  0
  3  4  2  0
  4  5  1  0
  5  6  2  0
  6  7  1  0
  7  8  1  0
  8  9  2  0
  8 10  1  0
 10 11  2  0
 11 12  1  0
 12 13  2  0
 13 14  1  0
 14 15  2  0
 15 16  1  0
 16 17  1  0
 16 18  1  0
 18 19  1  0
 18 20  2  0
 18 21  2  0
  6 22  1  0
 22 23  2  0
 23  3  1  0
 15 10  1  0
  1 24  1  0
  1 25  1  0
  1 26  1  0
  4 27  1  0
  5 28  1  0
  7 29  1  0
 11 30  1  0
 12 31  1  0
 13 32  1  0
 14 33  1  0
 17 34  1  0
 17 35  1  0
 17 36  1  0
 19 37  1  0
 19 38  1  0
 19 39  1  0
 22 40  1  0
 23 41  1  0
M  END
>  <UniqueID>  (15) 
15

>  <SMILES>  (15) 
COc1ccc(NC(=O)c2ccccc2N(C)S(C)(=O)=O)cc1

>  <Energy>  (15) 
49.6599146680412

>  <Genealogy>  (15) 
COc1ccc(NC(=O)c2ccccc2N(C)S(C)(=O)=O)cc1 (3D coordinates assigned)
COc1ccc(NC(=O)c2ccccc2N(C)S(C)(=O)=O)cc1 (optimized conformer: 49.6599146680412 kcal/mol)

>  <smiles>  (15) 
COc1ccc(NC(=O)c2ccccc2N(C)S(C)(=O)=O)cc1

>  <score_type>  (15) 
oracle

>  <origin>  (15) 
adg

>  <m_score__min__energy>  (15) 
-7.5

>  <m_primary>  (15) 
energy

$$$$
15:0
     RDKit          3D

 36 38  0  0  0  0  0  0  0  0999 V2000
   58.6840   22.5660   44.8600 C   0  0  0  0  0  0  0  0  0  0  0  0
   57.4280   23.0200   46.0950 S   0  0  0  0  0  0  0  0  0  0  0  0
   57.7660   24.7710   45.9590 C   0  0  0  0  0  0  0  0  0  0  0  0
   59.0180   25.2760   45.8360 N   0  0  0  0  0  0  0  0  0  0  0  0
   58.9810   26.6310   45.7530 C   0  0  0  0  0  0  0  0  0  0  0  0
   60.1070   27.4430   45.6260 C   0  0  0  0  0  0  0  0  0  0  0  0
   59.9340   28.8350   45.5530 C   0  0  0  0  0  0  0  0  0  0  0  0
   58.6380   29.4090   45.5960 C   0  0  0  0  0  0  0  0  0  0  0  0
   58.4550   30.8370   45.5400 N   0  0  0  0  0  0  0  0  0  0  0  0
   59.3510   31.6730   46.0660 N   0  0  0  0  0  0  0  0  0  0  0  0
   59.0190   32.9800   45.9310 C   0  0  0  0  0  0  0  0  0  0  0  0
   59.8500   34.1280   46.4740 C   0  0  0  0  0  0  0  0  0  0  0  0
   59.6370   35.3780   45.5980 C   0  0  0  0  0  0  0  0  0  0  0  0
   59.4130   34.4280   47.9200 C   0  0  0  0  0  0  0  0  0  0  0  0
   61.3500   33.7640   46.4670 C   0  0  0  0  0  0  0  0  0  0  0  0
   57.5280   33.1430   45.1470 S   0  0  0  0  0  0  0  0  0  0  0  0
   57.3860   31.4760   45.0030 C   0  0  0  0  0  0  0  0  0  0  0  0
   56.3900   30.8950   44.4980 O   0  0  0  0  0  0  0  0  0  0  0  0
   57.5150   28.5670   45.7400 C   0  0  0  0  0  0  0  0  0  0  0  0
   57.7170   27.1930   45.8100 C   0  0  0  0  0  0  0  0  0  0  0  0
   56.5750   25.9720   45.9700 S   0  0  0  0  0  0  0  0  0  0  0  0
   59.5994   22.2351   45.3725 H   0  0  0  0  0  0  0  0  0  0  0  0
   58.3008   21.7495   44.2303 H   0  0  0  0  0  0  0  0  0  0  0  0
   58.9114   23.4388   44.2303 H   0  0  0  0  0  0  0  0  0  0  0  0
   61.1135   27.0013   45.5837 H   0  0  0  0  0  0  0  0  0  0  0  0
   60.8146   29.4878   45.4614 H   0  0  0  0  0  0  0  0  0  0  0  0
   59.4873   36.2565   46.2429 H   0  0  0  0  0  0  0  0  0  0  0  0
   60.5212   35.5357   44.9630 H   0  0  0  0  0  0  0  0  0  0  0  0
   58.7505   35.2340   44.9630 H   0  0  0  0  0  0  0  0  0  0  0  0
   60.1117   33.9483   48.6212 H   0  0  0  0  0  0  0  0  0  0  0  0
   59.4159   35.5154   48.0858 H   0  0  0  0  0  0  0  0  0  0  0  0
   58.3992   34.0345   48.0858 H   0  0  0  0  0  0  0  0  0  0  0  0
   61.7109   33.6764   47.5024 H   0  0  0  0  0  0  0  0  0  0  0  0
   61.4922   32.8053   45.9468 H   0  0  0  0  0  0  0  0  0  0  0  0
   61.9158   34.5509   45.9468 H   0  0  0  0  0  0  0  0  0  0  0  0
   56.5006   28.9888   45.7957 H   0  0  0  0  0  0  0  0  0  0  0  0
  1  2  1  0
  2  3  1  0
  3  4  2  0
  4  5  1  0
  5  6  2  0
  6  7  1  0
  7  8  2  0
  8  9  1  0
  9 10  1  0
 10 11  2  0
 11 12  1  0
 12 13  1  0
 12 14  1  0
 12 15  1  0
 11 16  1  0
 16 17  1  0
 17 18  2  0
  8 19  1  0
 19 20  2  0
 20 21  1  0
 21  3  1  0
 20  5  1  0
 17  9  1  0
  1 22  1  0
  1 23  1  0
  1 24  1  0
  6 25  1  0
  7 26  1  0
 13 27  1  0
 13 28  1  0
 13 29  1  0
 14 30  1  0
 14 31  1  0
 14 32  1  0
 15 33  1  0
 15 34  1  0
 15 35  1  0
 19 36  1  0
M  END
>  <UniqueID>  (16) 
16

>  <SMILES>  (16) 
CSc1nc2ccc(-n3nc(C(C)(C)C)sc3=O)cc2s1

>  <Energy>  (16) 
103.29555265023541

>  <Genealogy>  (16) 
CSc1nc2ccc(-n3nc(C(C)(C)C)sc3=O)cc2s1 (3D coordinates assigned)
CSc1nc2ccc(-n3nc(C(C)(C)C)sc3=O)cc2s1 (optimized conformer: 103.29555265023541 kcal/mol)

>  <smiles>  (16) 
CSc1nc2ccc(-n3nc(C(C)(C)C)sc3=O)cc2s1

>  <score_type>  (16) 
oracle

>  <origin>  (16) 
adg

>  <m_score__min__energy>  (16) 
-7.6299999999999999

>  <m_primary>  (16) 
energy

$$$$
16:0
     RDKit          3D

 46 49  0  0  1  0  0  0  0  0999 V2000
   56.2240   30.2970   43.0760 C   0  0  0  0  0  0  0  0  0  0  0  0
   57.3880   31.0160   42.8970 C   0  0  0  0  0  0  0  0  0  0  0  0
   58.2700   31.0760   43.9420 C   0  0  0  0  0  0  0  0  0  0  0  0
   57.9680   30.4220   45.1220 C   0  0  0  0  0  0  0  0  0  0  0  0
   58.9010   30.4760   46.2580 C   0  0  0  0  0  0  0  0  0  0  0  0
   59.9940   31.2240   46.1440 N   0  0  0  0  0  0  0  0  0  0  0  0
   60.8890   31.3200   47.1470 C   0  0  0  0  0  0  0  0  0  0  0  0
   61.8740   32.0370   46.9940 N   0  0  0  0  0  0  0  0  0  0  0  0
   62.0870   33.3850   47.1440 C   0  0  0  0  0  0  0  0  0  0  0  0
   60.9770   34.2150   47.7450 C   0  0  0  0  0  0  0  0  0  0  0  0
   59.8360   34.1170   46.9230 N   0  0  0  0  0  0  0  0  0  0  0  0
   58.5690   34.0060   47.5140 C   0  0  0  0  0  0  0  0  0  0  0  0
   57.4890   33.4540   46.6390 C   0  0  0  0  0  0  0  0  0  0  0  0
   57.7130   33.6300   45.2880 O   0  0  0  0  0  0  0  0  0  0  0  0
   58.5870   34.6530   44.9900 C   0  0  0  0  0  0  0  0  0  0  0  0
   59.9600   34.2380   45.5310 C   0  0  0  0  0  0  0  0  0  0  0  0
   60.6830   30.6360   48.3190 C   0  0  0  0  0  0  0  0  0  0  0  0
   61.5880   30.7350   49.3260 C   0  0  0  0  0  0  0  0  0  0  0  0
   61.3140   30.0080   50.5070 C   0  0  0  0  0  0  0  0  0  0  0  0
   60.1730   29.2690   50.5410 C   0  0  0  0  0  0  0  0  0  0  0  0
   59.2580   29.1680   49.5200 C   0  0  0  0  0  0  0  0  0  0  0  0
   59.5290   29.8770   48.3780 C   0  0  0  0  0  0  0  0  0  0  0  0
   58.6400   29.7840   47.3760 N   0  0  0  0  0  0  0  0  0  0  0  0
   56.8140   29.7260   45.2590 N   0  0  0  0  0  0  0  0  0  0  0  0
   55.9200   29.6420   44.2570 C   0  0  0  0  0  0  0  0  0  0  0  0
   55.5064   30.2419   42.2441 H   0  0  0  0  0  0  0  0  0  0  0  0
   57.6003   31.5246   41.9451 H   0  0  0  0  0  0  0  0  0  0  0  0
   59.2099   31.6390   43.8439 H   0  0  0  0  0  0  0  0  0  0  0  0
   62.9715   33.5071   47.7864 H   0  0  0  0  0  0  0  0  0  0  0  0
   62.1881   33.7636   46.1162 H   0  0  0  0  0  0  0  0  0  0  0  0
   60.7398   33.8406   48.7518 H   0  0  0  0  0  0  0  0  0  0  0  0
   61.2949   35.2656   47.8170 H   0  0  0  0  0  0  0  0  0  0  0  0
   58.6620   33.3485   48.3909 H   0  0  0  0  0  0  0  0  0  0  0  0
   58.2612   35.0339   47.7563 H   0  0  0  0  0  0  0  0  0  0  0  0
   57.4014   32.3755   46.8370 H   0  0  0  0  0  0  0  0  0  0  0  0
   56.5697   34.0067   46.8828 H   0  0  0  0  0  0  0  0  0  0  0  0
   58.6386   34.8013   43.9013 H   0  0  0  0  0  0  0  0  0  0  0  0
   58.2550   35.5988   45.4430 H   0  0  0  0  0  0  0  0  0  0  0  0
   60.2622   33.2748   45.0941 H   0  0  0  0  0  0  0  0  0  0  0  0
   60.7253   34.9837   45.2697 H   0  0  0  0  0  0  0  0  0  0  0  0
   62.4930   31.3525   49.2275 H   0  0  0  0  0  0  0  0  0  0  0  0
   61.9989   30.0390   51.3672 H   0  0  0  0  0  0  0  0  0  0  0  0
   59.9648   28.7050   51.4622 H   0  0  0  0  0  0  0  0  0  0  0  0
   58.3535   28.5492   49.6144 H   0  0  0  0  0  0  0  0  0  0  0  0
   57.7730   29.2160   47.4120 H   0  0  0  0  0  0  0  0  0  0  0  0
   54.9843   29.0751   44.3718 H   0  0  0  0  0  0  0  0  0  0  0  0
  1  2  2  0
  2  3  1  0
  3  4  2  0
  4  5  1  0
  5  6  2  0
  6  7  1  0
  7  8  2  0
  8  9  1  0
  9 10  1  0
 10 11  1  0
 11 12  1  0
 12 13  1  0
 13 14  1  0
 14 15  1  0
 15 16  1  0
  7 17  1  0
 17 18  2  0
 18 19  1  0
 19 20  2  0
 20 21  1  0
 21 22  2  0
 22 23  1  0
  4 24  1  0
 24 25  2  0
 25  1  1  0
 23  5  1  0
 16 11  1  0
 22 17  1  0
  1 26  1  0
  2 27  1  0
  3 28  1  0
  9 29  1  0
  9 30  1  0
 10 31  1  0
 10 32  1  0
 12 33  1  0
 12 34  1  0
 13 35  1  0
 13 36  1  0
 15 37  1  0
 15 38  1  0
 16 39  1  0
 16 40  1  0
 18 41  1  0
 19 42  1  0
 20 43  1  0
 21 44  1  0
 23 45  1  0
 25 46  1  0
M  END
>  <smiles>  (17) 
c1ccc(-c2nc(=NCCN3CCOCC3)c3ccccc3[nH]2)nc1

>  <score_type>  (17) 
oracle

>  <origin>  (17) 
adg

>  <m_score__min__energy>  (17) 
-7.79

>  <m_primary>  (17) 
energy

$$$$
17:0
     RDKit          3D

 29 31  0  0  0  0  0  0  0  0999 V2000
   56.6690   30.4020   43.3650 C   0  0  0  0  0  0  0  0  0  0  0  0
   56.6180   31.2080   44.5370 O   0  0  0  0  0  0  0  0  0  0  0  0
   57.7350   31.5520   45.3130 C   0  0  0  0  0  0  0  0  0  0  0  0
   58.5400   30.5240   45.8110 C   0  0  0  0  0  0  0  0  0  0  0  0
   59.6650   30.8140   46.5890 C   0  0  0  0  0  0  0  0  0  0  0  0
   60.0060   32.1450   46.8840 C   0  0  0  0  0  0  0  0  0  0  0  0
   61.2040   32.4370   47.7120 C   0  0  0  0  0  0  0  0  0  0  0  0
   62.5090   31.9750   47.4750 C   0  0  0  0  0  0  0  0  0  0  0  0
   63.2360   32.4910   48.4660 N   0  0  0  0  0  0  0  0  0  0  0  0
   64.5190   32.4730   48.7890 N   0  0  0  0  0  0  0  0  0  0  0  0
   64.7300   33.2220   49.9080 C   0  0  0  0  0  0  0  0  0  0  0  0
   66.0810   33.4650   50.4910 C   0  0  0  0  0  0  0  0  0  0  0  0
   63.2780   33.9530   50.4810 S   0  0  0  0  0  0  0  0  0  0  0  0
   62.4470   33.2040   49.2290 C   0  0  0  0  0  0  0  0  0  0  0  0
   61.1640   33.2280   48.8300 N   0  0  0  0  0  0  0  0  0  0  0  0
   59.1950   33.1800   46.3800 C   0  0  0  0  0  0  0  0  0  0  0  0
   58.0710   32.8870   45.6020 C   0  0  0  0  0  0  0  0  0  0  0  0
   56.7361   29.3421   43.6515 H   0  0  0  0  0  0  0  0  0  0  0  0
   55.7588   30.5638   42.7688 H   0  0  0  0  0  0  0  0  0  0  0  0
   57.5515   30.6772   42.7688 H   0  0  0  0  0  0  0  0  0  0  0  0
   58.2863   29.4770   45.5889 H   0  0  0  0  0  0  0  0  0  0  0  0
   60.2884   29.9933   46.9734 H   0  0  0  0  0  0  0  0  0  0  0  0
   62.8546   31.3302   46.6535 H   0  0  0  0  0  0  0  0  0  0  0  0
   65.2520   31.9650   48.2460 H   0  0  0  0  0  0  0  0  0  0  0  0
   66.0141   33.4530   51.5889 H   0  0  0  0  0  0  0  0  0  0  0  0
   66.7717   32.6767   50.1571 H   0  0  0  0  0  0  0  0  0  0  0  0
   66.4537   34.4446   50.1571 H   0  0  0  0  0  0  0  0  0  0  0  0
   59.4479   34.2276   46.6003 H   0  0  0  0  0  0  0  0  0  0  0  0
   57.4461   33.7048   45.2138 H   0  0  0  0  0  0  0  0  0  0  0  0
  1  2  1  0
  2  3  1  0
  3  4  2  0
  4  5  1  0
  5  6  2  0
  6  7  1  0
  7  8  2  0
  8  9  1  0
  9 10  1  0
 10 11  2  0
 11 12  1  0
 11 13  1  0
 13 14  1  0
 14 15  2  0
  6 16  1  0
 16 17  2  0
 17  3  1  0
 15  7  1  0
 14  9  1  0
  1 18  1  0
  1 19  1  0
  1 20  1  0
  4 21  1  0
  5 22  1  0
  8 23  1  0
 10 24  1  0
 12 25  1  0
 12 26  1  0
 12 27  1  0
 16 28  1  0
 17 29  1  0
M  CHG  1  10   1
M  END
>  <UniqueID>  (18) 
17

>  <SMILES>  (18) 
COc1ccc(-c2cn3[nH+]c(C)sc3n2)cc1

>  <Energy>  (18) 
114.47030435495721

>  <Genealogy>  (18) 
COc1ccc(-c2cn3[nH+]c(C)sc3n2)cc1 (protonated)
COc1ccc(-c2cn3[nH+]c(C)sc3n2)cc1 (3D coordinates assigned)
COc1ccc(-c2cn3[nH+]c(C)sc3n2)cc1 (optimized conformer: 114.47030435495721 kcal/mol)

>  <smiles>  (18) 
COc1ccc(-c2cn3nc(C)sc3n2)cc1

>  <score_type>  (18) 
oracle

>  <origin>  (18) 
adg

>  <m_score__min__energy>  (18) 
-4.9199999999999999

>  <m_primary>  (18) 
energy

$$$$
18:0
     RDKit          3D

 33 35  0  0  0  0  0  0  0  0999 V2000
   56.5560   30.3350   43.4670 C   0  0  0  0  0  0  0  0  0  0  0  0
   56.4190   31.2100   44.5800 O   0  0  0  0  0  0  0  0  0  0  0  0
   57.5160   31.7670   45.2440 C   0  0  0  0  0  0  0  0  0  0  0  0
   57.7940   33.1250   45.0920 C   0  0  0  0  0  0  0  0  0  0  0  0
   58.8900   33.6790   45.7550 C   0  0  0  0  0  0  0  0  0  0  0  0
   59.7160   32.8780   46.5620 C   0  0  0  0  0  0  0  0  0  0  0  0
   60.8860   33.5070   47.3050 C   0  0  2  0  0  0  0  0  0  0  0  0
   62.1010   33.8330   46.3620 C   0  0  0  0  0  0  0  0  0  0  0  0
   63.3900   33.9390   47.1630 C   0  0  0  0  0  0  0  0  0  0  0  0
   63.5020   33.1780   48.2780 C   0  0  0  0  0  0  0  0  0  0  0  0
   63.1860   33.9020   49.5570 C   0  0  0  0  0  0  0  0  0  0  0  0
   61.6850   33.5980   49.7580 C   0  0  0  0  0  0  0  0  0  0  0  0
   61.2960   32.6600   48.5810 C   0  0  2  0  0  0  0  0  0  0  0  0
   62.6320   31.9600   48.3360 C   0  0  0  0  0  0  0  0  0  0  0  0
   62.6740   31.2070   47.1750 F   0  0  0  0  0  0  0  0  0  0  0  0
   62.9780   31.1410   49.4020 F   0  0  0  0  0  0  0  0  0  0  0  0
   59.3860   31.5170   46.6940 C   0  0  0  0  0  0  0  0  0  0  0  0
   58.3140   31.0000   46.0380 N   0  0  0  0  0  0  0  0  0  0  0  0
   56.7168   29.3077   43.8258 H   0  0  0  0  0  0  0  0  0  0  0  0
   55.6412   30.3714   42.8572 H   0  0  0  0  0  0  0  0  0  0  0  0
   57.4159   30.6492   42.8572 H   0  0  0  0  0  0  0  0  0  0  0  0
   57.1549   33.7542   44.4550 H   0  0  0  0  0  0  0  0  0  0  0  0
   59.1091   34.7513   45.6450 H   0  0  0  0  0  0  0  0  0  0  0  0
   60.5399   34.4822   47.6781 H   0  0  0  0  0  0  0  0  0  0  0  0
   62.2043   33.0313   45.6160 H   0  0  0  0  0  0  0  0  0  0  0  0
   61.9138   34.7958   45.8641 H   0  0  0  0  0  0  0  0  0  0  0  0
   64.2026   34.6101   46.8478 H   0  0  0  0  0  0  0  0  0  0  0  0
   63.7852   33.5109   50.3925 H   0  0  0  0  0  0  0  0  0  0  0  0
   63.4117   34.9778   49.5165 H   0  0  0  0  0  0  0  0  0  0  0  0
   61.5193   33.0954   50.7223 H   0  0  0  0  0  0  0  0  0  0  0  0
   61.0784   34.5155   49.7693 H   0  0  0  0  0  0  0  0  0  0  0  0
   60.4457   31.9927   48.7852 H   0  0  0  0  0  0  0  0  0  0  0  0
   60.0005   30.8660   47.3333 H   0  0  0  0  0  0  0  0  0  0  0  0
  1  2  1  0
  2  3  1  0
  3  4  2  0
  4  5  1  0
  5  6  2  0
  6  7  1  0
  7  8  1  0
  8  9  1  0
  9 10  2  0
 10 11  1  0
 11 12  1  0
 12 13  1  0
 13 14  1  0
 14 15  1  0
 14 16  1  0
  6 17  1  0
 17 18  2  0
 18  3  1  0
 13  7  1  0
 14 10  1  0
  1 19  1  0
  1 20  1  0
  1 21  1  0
  4 22  1  0
  5 23  1  0
  7 24  1  1
  8 25  1  0
  8 26  1  0
  9 27  1  0
 11 28  1  0
 11 29  1  0
 12 30  1  0
 12 31  1  0
 13 32  1  1
 17 33  1  0
M  END
>  <UniqueID>  (19) 
18

>  <SMILES>  (19) 
COc1ccc([C@@H]2CC=C3CC[C@@H]2C3(F)F)cn1

>  <Energy>  (19) 
86.66897599507926

>  <Genealogy>  (19) 
COc1ccc([C@@H]2CC=C3CC[C@@H]2C3(F)F)cn1 (chirality)
COc1ccc([C@@H]2CC=C3CC[C@@H]2C3(F)F)cn1 (3D coordinates assigned)
COc1ccc([C@@H]2CC=C3CC[C@@H]2C3(F)F)cn1 (nonaromatic ring conformer: 86.66897599507926 kcal/mol)

>  <smiles>  (19) 
COc1ccc(C2CC=C3CCC2C3(F)F)cn1

>  <score_type>  (19) 
oracle

>  <origin>  (19) 
adg

>  <m_score__min__energy>  (19) 
-6.4900000000000002

>  <m_primary>  (19) 
energy

$$$$
19:0
     RDKit          3D

 37 37  0  0  0  0  0  0  0  0999 V2000
   59.4890   34.9520   47.0860 C   0  0  0  0  0  0  0  0  0  0  0  0
   58.8680   33.5830   47.3650 C   0  0  0  0  0  0  0  0  0  0  0  0
   57.4700   33.4300   46.7470 C   0  0  0  0  0  0  0  0  0  0  0  0
   57.3820   34.0400   45.3370 C   0  0  0  0  0  0  0  0  0  0  0  0
   58.3710   33.3970   44.3480 C   0  0  0  0  0  0  0  0  0  0  0  0
   57.7630   32.2910   43.4700 C   0  0  0  0  0  0  0  0  0  0  0  0
   57.4760   31.0460   44.2520 C   0  0  0  0  0  0  0  0  0  0  0  0
   58.3940   30.2580   44.9120 C   0  0  0  0  0  0  0  0  0  0  0  0
   57.6800   29.3000   45.5270 N   0  0  0  0  0  0  0  0  0  0  0  0
   58.2060   28.1900   46.3130 C   0  0  0  0  0  0  0  0  0  0  0  0
   58.4740   26.9850   45.4080 C   0  0  0  0  0  0  0  0  0  0  0  0
   57.9480   27.2240   44.0570 N   0  0  0  0  0  0  0  0  0  0  0  0
   57.7760   25.9700   43.3190 C   0  0  0  0  0  0  0  0  0  0  0  0
   56.3990   29.4830   45.2520 N   0  0  0  0  0  0  0  0  0  0  0  0
   56.2420   30.5510   44.4830 N   0  0  0  0  0  0  0  0  0  0  0  0
   59.7161   35.4527   48.0388 H   0  0  0  0  0  0  0  0  0  0  0  0
   60.4168   34.8231   46.5092 H   0  0  0  0  0  0  0  0  0  0  0  0
   58.7809   35.5652   46.5092 H   0  0  0  0  0  0  0  0  0  0  0  0
   59.5250   32.8065   46.9462 H   0  0  0  0  0  0  0  0  0  0  0  0
   58.7626   33.4815   48.4552 H   0  0  0  0  0  0  0  0  0  0  0  0
   57.2267   32.3591   46.6844 H   0  0  0  0  0  0  0  0  0  0  0  0
   56.7582   33.9681   47.3903 H   0  0  0  0  0  0  0  0  0  0  0  0
   56.3602   33.8977   44.9553 H   0  0  0  0  0  0  0  0  0  0  0  0
   57.6410   35.1059   45.4197 H   0  0  0  0  0  0  0  0  0  0  0  0
   58.7589   34.1863   43.6874 H   0  0  0  0  0  0  0  0  0  0  0  0
   59.1558   32.9207   44.9540 H   0  0  0  0  0  0  0  0  0  0  0  0
   56.8233   32.6606   43.0338 H   0  0  0  0  0  0  0  0  0  0  0  0
   58.4938   32.0391   42.6874 H   0  0  0  0  0  0  0  0  0  0  0  0
   59.4863   30.3867   44.9314 H   0  0  0  0  0  0  0  0  0  0  0  0
   59.1451   28.4987   46.7954 H   0  0  0  0  0  0  0  0  0  0  0  0
   57.4672   27.9085   47.0778 H   0  0  0  0  0  0  0  0  0  0  0  0
   59.5587   26.8124   45.3480 H   0  0  0  0  0  0  0  0  0  0  0  0
   57.9707   26.1041   45.8331 H   0  0  0  0  0  0  0  0  0  0  0  0
   56.9970   27.6550   44.1550 H   0  0  0  0  0  0  0  0  0  0  0  0
   57.6620   25.1387   44.0302 H   0  0  0  0  0  0  0  0  0  0  0  0
   56.8786   26.0370   42.6863 H   0  0  0  0  0  0  0  0  0  0  0  0
   58.6583   25.7929   42.6863 H   0  0  0  0  0  0  0  0  0  0  0  0
  1  2  1  0
  2  3  1  0
  3  4  1  0
  4  5  1  0
  5  6  1  0
  6  7  1  0
  7  8  2  0
  8  9  1  0
  9 10  1  0
 10 11  1  0
 11 12  1  0
 12 13  1  0
  9 14  1  0
 14 15  2  0
 15  7  1  0
  1 16  1  0
  1 17  1  0
  1 18  1  0
  2 19  1  0
  2 20  1  0
  3 21  1  0
  3 22  1  0
  4 23  1  0
  4 24  1  0
  5 25  1  0
  5 26  1  0
  6 27  1  0
  6 28  1  0
  8 29  1  0
 10 30  1  0
 10 31  1  0
 11 32  1  0
 11 33  1  0
 12 34  1  0
 13 35  1  0
 13 36  1  0
 13 37  1  0
M  END
>  <UniqueID>  (20) 
19

>  <SMILES>  (20) 
CCCCCCc1cn(CCNC)nn1

>  <Energy>  (20) 
54.58200160649225

>  <Genealogy>  (20) 
CCCCCCc1cn(CCNC)nn1 (3D coordinates assigned)
CCCCCCc1cn(CCNC)nn1 (optimized conformer: 54.58200160649225 kcal/mol)

>  <smiles>  (20) 
CCCCCCc1cn(CCNC)nn1

>  <score_type>  (20) 
oracle

>  <origin>  (20) 
adg

>  <m_score__min__energy>  (20) 
-6.4000000000000004

>  <m_primary>  (20) 
energy

$$$$
20:0
     RDKit          3D

 69 73  0  0  0  0  0  0  0  0999 V2000
   61.2230   33.8330   49.9990 C   0  0  0  0  0  0  0  0  0  0  0  0
   59.7130   33.7370   49.8120 C   0  0  0  0  0  0  0  0  0  0  0  0
   59.3930   33.2390   48.4640 N   0  0  0  0  0  0  0  0  0  0  0  0
   59.0610   31.9520   48.3160 N   0  0  0  0  0  0  0  0  0  0  0  0
   58.7520   31.4470   47.1260 N   0  0  0  0  0  0  0  0  0  0  0  0
   58.7540   32.2110   46.0080 C   0  0  0  0  0  0  0  0  0  0  0  0
   58.4230   31.6500   44.7620 C   0  0  0  0  0  0  0  0  0  0  0  0
   58.1280   30.2480   44.6150 N   0  0  0  0  0  0  0  0  0  0  0  0
   56.7560   29.7500   44.7920 C   0  0  0  0  0  0  0  0  0  0  0  0
   56.7760   28.4600   45.6140 C   0  0  0  0  0  0  0  0  0  0  0  0
   57.6330   27.3530   44.9460 C   0  0  0  0  0  0  0  0  0  0  0  0
   58.2240   26.4430   46.0070 C   0  0  0  0  0  0  0  0  0  0  0  0
   57.9800   25.2070   45.9430 O   0  0  0  0  0  0  0  0  0  0  0  0
   59.0780   26.9350   47.0700 N   0  0  0  0  0  0  0  0  0  0  0  0
   59.2800   26.0810   48.2540 C   0  0  0  0  0  0  0  0  0  0  0  0
   60.3690   26.6270   49.1860 C   0  0  0  0  0  0  0  0  0  0  0  0
   60.1910   28.0680   49.3980 N   0  0  0  0  0  0  0  0  0  0  0  0
   60.6190   28.6610   50.6390 C   0  0  0  0  0  0  0  0  0  0  0  0
   61.6940   28.0970   51.3460 C   0  0  0  0  0  0  0  0  0  0  0  0
   62.1370   28.6700   52.5400 C   0  0  0  0  0  0  0  0  0  0  0  0
   61.5100   29.8100   53.0420 C   0  0  0  0  0  0  0  0  0  0  0  0
   60.4360   30.3800   52.3540 C   0  0  0  0  0  0  0  0  0  0  0  0
   59.9760   29.8090   51.1490 C   0  0  0  0  0  0  0  0  0  0  0  0
   58.8820   30.3430   50.4500 O   0  0  0  0  0  0  0  0  0  0  0  0
   57.7170   30.8900   51.0630 C   0  0  0  0  0  0  0  0  0  0  0  0
   59.8540   28.9440   48.2650 C   0  0  0  0  0  0  0  0  0  0  0  0
   59.8630   28.1750   46.9400 C   0  0  0  0  0  0  0  0  0  0  0  0
   58.7290   27.9230   44.0050 C   0  0  0  0  0  0  0  0  0  0  0  0
   59.2390   29.3000   44.4540 C   0  0  0  0  0  0  0  0  0  0  0  0
   58.3750   32.4590   43.6720 N   0  0  0  0  0  0  0  0  0  0  0  0
   58.6540   33.7590   43.7470 N   0  0  0  0  0  0  0  0  0  0  0  0
   59.0010   34.3610   44.9160 C   0  0  0  0  0  0  0  0  0  0  0  0
   59.2940   35.8330   44.8710 C   0  0  0  0  0  0  0  0  0  0  0  0
   59.0550   33.5810   46.1030 C   0  0  0  0  0  0  0  0  0  0  0  0
   59.3810   34.0840   47.3840 C   0  0  0  0  0  0  0  0  0  0  0  0
   59.6550   35.3050   47.5460 O   0  0  0  0  0  0  0  0  0  0  0  0
   61.4592   33.8480   51.0732 H   0  0  0  0  0  0  0  0  0  0  0  0
   61.7066   32.9638   49.5293 H   0  0  0  0  0  0  0  0  0  0  0  0
   61.5927   34.7565   49.5293 H   0  0  0  0  0  0  0  0  0  0  0  0
   59.2982   33.0467   50.5613 H   0  0  0  0  0  0  0  0  0  0  0  0
   59.2739   34.7379   49.9359 H   0  0  0  0  0  0  0  0  0  0  0  0
   59.0380   31.3110   49.1430 H   0  0  0  0  0  0  0  0  0  0  0  0
   56.1569   30.5085   45.3171 H   0  0  0  0  0  0  0  0  0  0  0  0
   56.3132   29.5460   43.8059 H   0  0  0  0  0  0  0  0  0  0  0  0
   57.1931   28.6796   46.6079 H   0  0  0  0  0  0  0  0  0  0  0  0
   55.7428   28.0896   45.6865 H   0  0  0  0  0  0  0  0  0  0  0  0
   56.9657   26.7615   44.3019 H   0  0  0  0  0  0  0  0  0  0  0  0
   58.3341   26.0206   48.8123 H   0  0  0  0  0  0  0  0  0  0  0  0
   59.6030   25.0898   47.9031 H   0  0  0  0  0  0  0  0  0  0  0  0
   60.3094   26.1088   50.1545 H   0  0  0  0  0  0  0  0  0  0  0  0
   61.3518   26.4549   48.7228 H   0  0  0  0  0  0  0  0  0  0  0  0
   62.1909   27.1965   50.9558 H   0  0  0  0  0  0  0  0  0  0  0  0
   62.9810   28.2219   53.0848 H   0  0  0  0  0  0  0  0  0  0  0  0
   61.8617   30.2613   53.9815 H   0  0  0  0  0  0  0  0  0  0  0  0
   59.9460   31.2797   52.7545 H   0  0  0  0  0  0  0  0  0  0  0  0
   57.8210   30.8412   52.1570 H   0  0  0  0  0  0  0  0  0  0  0  0
   57.5972   31.9385   50.7525 H   0  0  0  0  0  0  0  0  0  0  0  0
   56.8338   30.3125   50.7525 H   0  0  0  0  0  0  0  0  0  0  0  0
   58.8515   29.3673   48.4260 H   0  0  0  0  0  0  0  0  0  0  0  0
   60.6103   29.7407   48.2073 H   0  0  0  0  0  0  0  0  0  0  0  0
   59.4231   28.8033   46.1515 H   0  0  0  0  0  0  0  0  0  0  0  0
   60.9004   27.9191   46.6788 H   0  0  0  0  0  0  0  0  0  0  0  0
   59.5768   27.2224   43.9876 H   0  0  0  0  0  0  0  0  0  0  0  0
   58.2803   28.0441   43.0080 H   0  0  0  0  0  0  0  0  0  0  0  0
   59.7626   29.1933   45.4155 H   0  0  0  0  0  0  0  0  0  0  0  0
   59.9213   29.6885   43.6836 H   0  0  0  0  0  0  0  0  0  0  0  0
   59.3716   36.2229   45.8966 H   0  0  0  0  0  0  0  0  0  0  0  0
   60.2434   36.0019   44.3417 H   0  0  0  0  0  0  0  0  0  0  0  0
   58.4816   36.3525   44.3417 H   0  0  0  0  0  0  0  0  0  0  0  0
  1  2  1  0
  2  3  1  0
  3  4  1  0
  4  5  2  0
  5  6  1  0
  6  7  2  0
  7  8  1  0
  8  9  1  0
  9 10  1  0
 10 11  1  0
 11 12  1  0
 12 13  2  0
 12 14  1  0
 14 15  1  0
 15 16  1  0
 16 17  1  0
 17 18  1  0
 18 19  2  0
 19 20  1  0
 20 21  2  0
 21 22  1  0
 22 23  2  0
 23 24  1  0
 24 25  1  0
 17 26  1  0
 26 27  1  0
 11 28  1  0
 28 29  1  0
  7 30  1  0
 30 31  2  0
 31 32  1  0
 32 33  1  0
 32 34  2  0
 34 35  1  0
 35 36  2  0
 35  3  1  0
 34  6  1  0
 29  8  1  0
 27 14  1  0
 23 18  1  0
  1 37  1  0
  1 38  1  0
  1 39  1  0
  2 40  1  0
  2 41  1  0
  4 42  1  0
  9 43  1  0
  9 44  1  0
 10 45  1  0
 10 46  1  0
 11 47  1  0
 15 48  1  0
 15 49  1  0
 16 50  1  0
 16 51  1  0
 19 52  1  0
 20 53  1  0
 21 54  1  0
 22 55  1  0
 25 56  1  0
 25 57  1  0
 25 58  1  0
 26 59  1  0
 26 60  1  0
 27 61  1  0
 27 62  1  0
 28 63  1  0
 28 64  1  0
 29 65  1  0
 29 66  1  0
 33 67  1  0
 33 68  1  0
 33 69  1  0
M  CHG  1   4   1
M  END
>  <UniqueID>  (21) 
20

>  <SMILES>  (21) 
CCn1[nH+]nc2c(N3CCC(C(=O)N4CCN(c5ccccc5OC)CC4)CC3)nnc(C)c2c1=O

>  <Energy>  (21) 
93.10560929051087

>  <Genealogy>  (21) 
CCn1[nH+]nc2c(N3CCC(C(=O)N4CCN(c5ccccc5OC)CC4)CC3)nnc(C)c2c1=O (protonated)
CCn1[nH+]nc2c(N3CCC(C(=O)N4CCN(c5ccccc5OC)CC4)CC3)nnc(C)c2c1=O (3D coordinates assigned)
CCn1[nH+]nc2c(N3CCC(C(=O)N4CCN(c5ccccc5OC)CC4)CC3)nnc(C)c2c1=O (nonaromatic ring conformer: 93.10560929051087 kcal/mol)

>  <smiles>  (21) 
CCn1nnc2c(N3CCC(C(=O)N4CCN(c5ccccc5OC)CC4)CC3)nnc(C)c2c1=O

>  <score_type>  (21) 
oracle

>  <origin>  (21) 
adg

>  <m_score__min__energy>  (21) 
-8.0199999999999996

>  <m_primary>  (21) 
energy

$$$$
21:0
     RDKit          3D

 30 32  0  0  0  0  0  0  0  0999 V2000
   56.2810   29.4990   43.6540 C   0  0  0  0  0  0  0  0  0  0  0  0
   56.9170   30.8450   43.8010 C   0  0  0  0  0  0  0  0  0  0  0  0
   57.5480   31.4540   42.7080 C   0  0  0  0  0  0  0  0  0  0  0  0
   58.1410   32.7080   42.8720 C   0  0  0  0  0  0  0  0  0  0  0  0
   58.1020   33.3380   44.1160 C   0  0  0  0  0  0  0  0  0  0  0  0
   57.4690   32.6970   45.1870 C   0  0  0  0  0  0  0  0  0  0  0  0
   57.4140   33.4730   46.8000 S   0  0  0  0  0  0  0  0  0  0  0  0
   58.9030   32.6410   47.3440 C   0  0  0  0  0  0  0  0  0  0  0  0
   58.8260   31.4810   48.0630 N   0  0  0  0  0  0  0  0  0  0  0  0
   59.9540   30.8230   48.4830 C   0  0  0  0  0  0  0  0  0  0  0  0
   61.1960   31.3160   48.1890 N   0  0  0  0  0  0  0  0  0  0  0  0
   61.2720   32.4690   47.4780 C   0  0  0  0  0  0  0  0  0  0  0  0
   60.1690   33.1360   47.0560 C   0  0  0  0  0  0  0  0  0  0  0  0
   60.6420   34.2420   46.3800 C   0  0  0  0  0  0  0  0  0  0  0  0
   61.9990   34.2110   46.4120 N   0  0  0  0  0  0  0  0  0  0  0  0
   62.3750   33.1260   47.0830 N   0  0  0  0  0  0  0  0  0  0  0  0
   63.7610   32.7490   47.3300 C   0  0  0  0  0  0  0  0  0  0  0  0
   56.8950   31.4780   45.0060 N   0  0  0  0  0  0  0  0  0  0  0  0
   56.0816   29.0769   44.6500 H   0  0  0  0  0  0  0  0  0  0  0  0
   55.3348   29.5989   43.1019 H   0  0  0  0  0  0  0  0  0  0  0  0
   56.9589   28.8314   43.1019 H   0  0  0  0  0  0  0  0  0  0  0  0
   57.5760   30.9497   41.7308 H   0  0  0  0  0  0  0  0  0  0  0  0
   58.6379   33.1979   42.0217 H   0  0  0  0  0  0  0  0  0  0  0  0
   58.5634   34.3270   44.2535 H   0  0  0  0  0  0  0  0  0  0  0  0
   59.8593   29.8917   49.0607 H   0  0  0  0  0  0  0  0  0  0  0  0
   62.0550   30.8160   48.5060 H   0  0  0  0  0  0  0  0  0  0  0  0
   60.0259   35.0155   45.8982 H   0  0  0  0  0  0  0  0  0  0  0  0
   63.9401   32.7003   48.4142 H   0  0  0  0  0  0  0  0  0  0  0  0
   63.9588   31.7644   46.8811 H   0  0  0  0  0  0  0  0  0  0  0  0
   64.4302   33.4977   46.8811 H   0  0  0  0  0  0  0  0  0  0  0  0
  1  2  1  0
  2  3  2  0
  3  4  1  0
  4  5  2  0
  5  6  1  0
  6  7  1  0
  7  8  1  0
  8  9  2  0
  9 10  1  0
 10 11  2  0
 11 12  1  0
 12 13  2  0
 13 14  1  0
 14 15  2  0
 15 16  1  0
 16 17  1  0
  6 18  2  0
 18  2  1  0
 13  8  1  0
 16 12  1  0
  1 19  1  0
  1 20  1  0
  1 21  1  0
  3 22  1  0
  4 23  1  0
  5 24  1  0
 10 25  1  0
 11 26  1  0
 14 27  1  0
 17 28  1  0
 17 29  1  0
 17 30  1  0
M  CHG  1  11   1
M  END
>  <UniqueID>  (22) 
21

>  <SMILES>  (22) 
Cc1cccc(Sc2nc[nH+]c3c2cnn3C)n1

>  <Energy>  (22) 
68.03982002119898

>  <Genealogy>  (22) 
Cc1cccc(Sc2nc[nH+]c3c2cnn3C)n1 (protonated)
Cc1cccc(Sc2nc[nH+]c3c2cnn3C)n1 (3D coordinates assigned)
Cc1cccc(Sc2nc[nH+]c3c2cnn3C)n1 (optimized conformer: 68.03982002119898 kcal/mol)

>  <smiles>  (22) 
Cc1cccc(Sc2ncnc3c2cnn3C)n1

>  <score_type>  (22) 
oracle

>  <origin>  (22) 
adg

>  <m_score__min__energy>  (22) 
-5.6299999999999999

>  <m_primary>  (22) 
energy

$$$$
22:0
     RDKit          3D

 48 51  0  0  0  0  0  0  0  0999 V2000
   57.8030   27.2530   42.9730 C   0  0  0  0  0  0  0  0  0  0  0  0
   57.4750   28.6280   43.3280 N   0  0  0  0  0  0  0  0  0  0  0  0
   58.1400   29.3960   44.2110 C   0  0  0  0  0  0  0  0  0  0  0  0
   57.5670   30.6620   44.2040 C   0  0  0  0  0  0  0  0  0  0  0  0
   57.9660   31.8410   45.0140 C   0  0  0  0  0  0  0  0  0  0  0  0
   57.4040   33.1020   44.7570 C   0  0  0  0  0  0  0  0  0  0  0  0
   57.7850   34.2120   45.5060 C   0  0  0  0  0  0  0  0  0  0  0  0
   58.7240   34.0810   46.5280 C   0  0  0  0  0  0  0  0  0  0  0  0
   59.2930   32.8280   46.8380 C   0  0  0  0  0  0  0  0  0  0  0  0
   60.3540   32.7540   47.9610 C   0  0  0  0  0  0  0  0  0  0  0  0
   59.6200   32.8650   49.3180 C   0  0  0  0  0  0  0  0  0  0  0  0
   59.9630   33.8070   50.3170 C   0  0  0  0  0  0  0  0  0  0  0  0
   59.2820   33.8350   51.5380 C   0  0  0  0  0  0  0  0  0  0  0  0
   58.2600   32.9220   51.7950 C   0  0  0  0  0  0  0  0  0  0  0  0
   57.9210   31.9700   50.8350 C   0  0  0  0  0  0  0  0  0  0  0  0
   58.5970   31.9350   49.6130 C   0  0  0  0  0  0  0  0  0  0  0  0
   61.3600   33.9250   47.6880 C   0  0  0  0  0  0  0  0  0  0  0  0
   62.7670   33.6190   48.2300 C   0  0  0  0  0  0  0  0  0  0  0  0
   63.3740   32.4510   47.5650 N   0  0  0  0  0  0  0  0  0  0  0  0
   62.4040   31.4300   47.1230 C   0  0  0  0  0  0  0  0  0  0  0  0
   61.1420   31.4000   48.0040 C   0  0  0  0  0  0  0  0  0  0  0  0
   58.9150   31.7160   46.0490 C   0  0  0  0  0  0  0  0  0  0  0  0
   56.5480   30.5860   43.2630 C   0  0  0  0  0  0  0  0  0  0  0  0
   56.5280   29.3450   42.7480 N   0  0  0  0  0  0  0  0  0  0  0  0
   57.9441   26.6614   43.8895 H   0  0  0  0  0  0  0  0  0  0  0  0
   56.9826   26.8215   42.3808 H   0  0  0  0  0  0  0  0  0  0  0  0
   58.7298   27.2383   42.3808 H   0  0  0  0  0  0  0  0  0  0  0  0
   58.9904   29.0766   44.8312 H   0  0  0  0  0  0  0  0  0  0  0  0
   56.6568   33.2136   43.9575 H   0  0  0  0  0  0  0  0  0  0  0  0
   57.3434   35.1962   45.2905 H   0  0  0  0  0  0  0  0  0  0  0  0
   59.0262   34.9693   47.1021 H   0  0  0  0  0  0  0  0  0  0  0  0
   60.7748   34.5255   50.1308 H   0  0  0  0  0  0  0  0  0  0  0  0
   59.5539   34.5809   52.2994 H   0  0  0  0  0  0  0  0  0  0  0  0
   57.7220   32.9530   52.7540 H   0  0  0  0  0  0  0  0  0  0  0  0
   57.1196   31.2449   51.0400 H   0  0  0  0  0  0  0  0  0  0  0  0
   58.3289   31.1713   48.8681 H   0  0  0  0  0  0  0  0  0  0  0  0
   61.4264   34.0895   46.6024 H   0  0  0  0  0  0  0  0  0  0  0  0
   60.9854   34.8203   48.2058 H   0  0  0  0  0  0  0  0  0  0  0  0
   63.4099   34.4960   48.0638 H   0  0  0  0  0  0  0  0  0  0  0  0
   62.6754   33.3897   49.3019 H   0  0  0  0  0  0  0  0  0  0  0  0
   64.0430   32.0060   48.2370 H   0  0  0  0  0  0  0  0  0  0  0  0
   62.1066   31.6501   46.0871 H   0  0  0  0  0  0  0  0  0  0  0  0
   62.8918   30.4472   47.2018 H   0  0  0  0  0  0  0  0  0  0  0  0
   60.4817   30.5951   47.6488 H   0  0  0  0  0  0  0  0  0  0  0  0
   61.4609   31.2292   49.0428 H   0  0  0  0  0  0  0  0  0  0  0  0
   59.3706   30.7346   46.2471 H   0  0  0  0  0  0  0  0  0  0  0  0
   55.8696   31.4061   42.9853 H   0  0  0  0  0  0  0  0  0  0  0  0
   55.8830   28.9960   42.0030 H   0  0  0  0  0  0  0  0  0  0  0  0
  1  2  1  0
  2  3  1  0
  3  4  2  0
  4  5  1  0
  5  6  2  0
  6  7  1  0
  7  8  2  0
  8  9  1  0
  9 10  1  0
 10 11  1  0
 11 12  2  0
 12 13  1  0
 13 14  2  0
 14 15  1  0
 15 16  2  0
 10 17  1  0
 17 18  1  0
 18 19  1  0
 19 20  1  0
 20 21  1  0
  9 22  2  0
  4 23  1  0
 23 24  2  0
 24  2  1  0
 22  5  1  0
 21 10  1  0
 16 11  1  0
  1 25  1  0
  1 26  1  0
  1 27  1  0
  3 28  1  0
  6 29  1  0
  7 30  1  0
  8 31  1  0
 12 32  1  0
 13 33  1  0
 14 34  1  0
 15 35  1  0
 16 36  1  0
 17 37  1  0
 17 38  1  0
 18 39  1  0
 18 40  1  0
 19 41  1  0
 20 42  1  0
 20 43  1  0
 21 44  1  0
 21 45  1  0
 22 46  1  0
 23 47  1  0
 24 48  1  0
M  CHG  1  24   1
M  END
>  <UniqueID>  (23) 
22

>  <SMILES>  (23) 
Cn1cc(-c2cccc(C3(c4ccccc4)CCNCC3)c2)c[nH+]1

>  <Energy>  (23) 
102.570383128504

>  <Genealogy>  (23) 
Cn1cc(-c2cccc(C3(c4ccccc4)CCNCC3)c2)c[nH+]1 (protonated)
Cn1cc(-c2cccc(C3(c4ccccc4)CCNCC3)c2)c[nH+]1 (3D coordinates assigned)
Cn1cc(-c2cccc(C3(c4ccccc4)CCNCC3)c2)c[nH+]1 (nonaromatic ring conformer: 102.570383128504 kcal/mol)

>  <smiles>  (23) 
Cn1cc(-c2cccc(C3(c4ccccc4)CCNCC3)c2)cn1

>  <score_type>  (23) 
oracle

>  <origin>  (23) 
adg

>  <m_score__min__energy>  (23) 
-7.5099999999999998

>  <m_primary>  (23) 
energy

$$$$
23:0
     RDKit          3D

 44 47  0  0  0  0  0  0  0  0999 V2000
   65.7160   33.0670   50.0000 C   0  0  0  0  0  0  0  0  0  0  0  0
   64.4210   32.6750   49.3540 C   0  0  0  0  0  0  0  0  0  0  0  0
   64.1530   33.0440   48.0270 C   0  0  0  0  0  0  0  0  0  0  0  0
   62.9630   32.6460   47.4110 C   0  0  0  0  0  0  0  0  0  0  0  0
   62.0410   31.8480   48.1050 C   0  0  0  0  0  0  0  0  0  0  0  0
   60.7750   31.4480   47.4730 C   0  0  0  0  0  0  0  0  0  0  0  0
   60.3600   30.1590   47.4160 N   0  0  0  0  0  0  0  0  0  0  0  0
   59.1610   30.1260   46.8460 N   0  0  0  0  0  0  0  0  0  0  0  0
   58.4100   28.9150   46.6370 C   0  0  0  0  0  0  0  0  0  0  0  0
   57.3510   28.8620   45.7120 C   0  0  0  0  0  0  0  0  0  0  0  0
   56.6390   27.6750   45.5180 C   0  0  0  0  0  0  0  0  0  0  0  0
   56.9800   26.5210   46.2330 C   0  0  0  0  0  0  0  0  0  0  0  0
   56.0700   25.0320   45.9970 S   0  0  0  0  0  0  0  0  0  0  0  0
   54.3900   25.4000   45.8400 N   0  0  0  0  0  0  0  0  0  0  0  0
   56.5510   24.3340   44.7560 O   0  0  0  0  0  0  0  0  0  0  0  0
   56.2730   24.1180   47.1730 O   0  0  0  0  0  0  0  0  0  0  0  0
   58.0360   26.5650   47.1520 C   0  0  0  0  0  0  0  0  0  0  0  0
   58.7510   27.7510   47.3460 C   0  0  0  0  0  0  0  0  0  0  0  0
   58.8030   31.3900   46.5480 C   0  0  0  0  0  0  0  0  0  0  0  0
   57.6660   31.7940   46.0010 O   0  0  0  0  0  0  0  0  0  0  0  0
   57.4560   33.0890   45.7580 C   0  0  0  0  0  0  0  0  0  0  0  0
   56.3690   33.4570   45.2430 O   0  0  0  0  0  0  0  0  0  0  0  0
   58.4480   34.0470   46.0680 C   0  0  0  0  0  0  0  0  0  0  0  0
   59.6670   33.6310   46.6430 C   0  0  0  0  0  0  0  0  0  0  0  0
   60.7460   34.6320   46.9340 C   0  0  0  0  0  0  0  0  0  0  0  0
   59.7950   32.2600   46.9130 C   0  0  0  0  0  0  0  0  0  0  0  0
   62.3030   31.4870   49.4330 C   0  0  0  0  0  0  0  0  0  0  0  0
   63.4940   31.8840   50.0490 C   0  0  0  0  0  0  0  0  0  0  0  0
   65.6050   33.0334   51.0939 H   0  0  0  0  0  0  0  0  0  0  0  0
   66.5067   32.3680   49.6900 H   0  0  0  0  0  0  0  0  0  0  0  0
   65.9863   34.0872   49.6900 H   0  0  0  0  0  0  0  0  0  0  0  0
   64.8826   33.6492   47.4690 H   0  0  0  0  0  0  0  0  0  0  0  0
   62.7487   32.9595   46.3786 H   0  0  0  0  0  0  0  0  0  0  0  0
   57.0817   29.7607   45.1377 H   0  0  0  0  0  0  0  0  0  0  0  0
   55.8064   27.6476   44.7997 H   0  0  0  0  0  0  0  0  0  0  0  0
   54.3220   26.2820   45.2840 H   0  0  0  0  0  0  0  0  0  0  0  0
   58.3038   25.6637   47.7230 H   0  0  0  0  0  0  0  0  0  0  0  0
   59.5876   27.7728   48.0599 H   0  0  0  0  0  0  0  0  0  0  0  0
   58.2701   35.1127   45.8617 H   0  0  0  0  0  0  0  0  0  0  0  0
   60.8622   34.7398   48.0225 H   0  0  0  0  0  0  0  0  0  0  0  0
   61.6943   34.2866   46.4964 H   0  0  0  0  0  0  0  0  0  0  0  0
   60.4726   35.6035   46.4964 H   0  0  0  0  0  0  0  0  0  0  0  0
   61.5692   30.8890   49.9933 H   0  0  0  0  0  0  0  0  0  0  0  0
   63.7050   31.5746   51.0833 H   0  0  0  0  0  0  0  0  0  0  0  0
  1  2  1  0
  2  3  2  0
  3  4  1  0
  4  5  2  0
  5  6  1  0
  6  7  2  0
  7  8  1  0
  8  9  1  0
  9 10  2  0
 10 11  1  0
 11 12  2  0
 12 13  1  0
 13 14  1  0
 13 15  2  0
 13 16  2  0
 12 17  1  0
 17 18  2  0
  8 19  1  0
 19 20  1  0
 20 21  1  0
 21 22  2  0
 21 23  1  0
 23 24  2  0
 24 25  1  0
 24 26  1  0
  5 27  1  0
 27 28  2  0
 28  2  1  0
 26  6  1  0
 18  9  1  0
 26 19  2  0
  1 29  1  0
  1 30  1  0
  1 31  1  0
  3 32  1  0
  4 33  1  0
 10 34  1  0
 11 35  1  0
 14 36  1  0
 17 37  1  0
 18 38  1  0
 23 39  1  0
 25 40  1  0
 25 41  1  0
 25 42  1  0
 27 43  1  0
 28 44  1  0
M  CHG  1  14  -1
M  END
>  <UniqueID>  (24) 
23

>  <SMILES>  (24) 
Cc1ccc(-c2nn(-c3ccc(S([NH-])(=O)=O)cc3)c3oc(=O)cc(C)c23)cc1

>  <Energy>  (24) 
99.31597313416775

>  <Genealogy>  (24) 
Cc1ccc(-c2nn(-c3ccc(S([NH-])(=O)=O)cc3)c3oc(=O)cc(C)c23)cc1 (protonated)
Cc1ccc(-c2nn(-c3ccc(S([NH-])(=O)=O)cc3)c3oc(=O)cc(C)c23)cc1 (3D coordinates assigned)
Cc1ccc(-c2nn(-c3ccc(S([NH-])(=O)=O)cc3)c3oc(=O)cc(C)c23)cc1 (optimized conformer: 99.31597313416775 kcal/mol)

>  <smiles>  (24) 
Cc1ccc(-c2nn(-c3ccc(S(N)(=O)=O)cc3)c3oc(=O)cc(C)c23)cc1

>  <score_type>  (24) 
oracle

>  <origin>  (24) 
adg

>  <m_score__min__energy>  (24) 
-11.26

>  <m_primary>  (24) 
energy

$$$$
24:0
     RDKit          3D

 38 40  0  0  0  0  0  0  0  0999 V2000
   59.9940   27.7470   45.6600 C   0  0  0  0  0  0  0  0  0  0  0  0
   59.1550   27.2690   46.7700 N   0  0  0  0  0  0  0  0  0  0  0  0
   59.6240   27.8370   48.0480 C   0  0  0  0  0  0  0  0  0  0  0  0
   57.7080   27.4850   46.5050 C   0  0  2  0  0  0  0  0  0  0  0  0
   57.0460   26.3140   45.7920 C   0  0  0  0  0  0  0  0  0  0  0  0
   57.6710   25.6310   44.7310 C   0  0  0  0  0  0  0  0  0  0  0  0
   57.0200   24.5540   44.1270 C   0  0  0  0  0  0  0  0  0  0  0  0
   55.7610   24.1600   44.5800 C   0  0  0  0  0  0  0  0  0  0  0  0
   55.1690   24.8530   45.6370 C   0  0  0  0  0  0  0  0  0  0  0  0
   55.8170   25.9000   46.2130 N   0  0  0  0  0  0  0  0  0  0  0  0
   57.4720   28.8040   45.8080 C   0  0  0  0  0  0  0  0  0  0  0  0
   58.0370   29.9690   46.1980 N   0  0  0  0  0  0  0  0  0  0  0  0
   57.7710   30.9970   45.3440 C   0  0  0  0  0  0  0  0  0  0  0  0
   58.2760   32.3700   45.6100 C   0  0  0  0  0  0  0  0  0  0  0  0
   58.4100   33.3210   44.5770 C   0  0  0  0  0  0  0  0  0  0  0  0
   58.8880   34.6050   44.8540 C   0  0  0  0  0  0  0  0  0  0  0  0
   59.2400   34.9570   46.1590 C   0  0  0  0  0  0  0  0  0  0  0  0
   59.7040   36.2050   46.4240 F   0  0  0  0  0  0  0  0  0  0  0  0
   59.1170   34.0250   47.1900 C   0  0  0  0  0  0  0  0  0  0  0  0
   58.6400   32.7390   46.9200 C   0  0  0  0  0  0  0  0  0  0  0  0
   57.0030   30.6370   44.2320 C   0  0  0  0  0  0  0  0  0  0  0  0
   56.6680   28.9950   44.3430 S   0  0  0  0  0  0  0  0  0  0  0  0
   60.8830   28.2535   46.0640 H   0  0  0  0  0  0  0  0  0  0  0  0
   60.3078   26.8921   45.0430 H   0  0  0  0  0  0  0  0  0  0  0  0
   59.4186   28.4528   45.0430 H   0  0  0  0  0  0  0  0  0  0  0  0
   59.1685   27.2853   48.8836 H   0  0  0  0  0  0  0  0  0  0  0  0
   60.7192   27.7528   48.1067 H   0  0  0  0  0  0  0  0  0  0  0  0
   59.3341   28.8965   48.1067 H   0  0  0  0  0  0  0  0  0  0  0  0
   57.2100   27.5386   47.4844 H   0  0  0  0  0  0  0  0  0  0  0  0
   58.6656   25.9441   44.3805 H   0  0  0  0  0  0  0  0  0  0  0  0
   57.4991   24.0169   43.2951 H   0  0  0  0  0  0  0  0  0  0  0  0
   55.2406   23.3127   44.1095 H   0  0  0  0  0  0  0  0  0  0  0  0
   54.1769   24.5516   46.0044 H   0  0  0  0  0  0  0  0  0  0  0  0
   58.1365   33.0504   43.5465 H   0  0  0  0  0  0  0  0  0  0  0  0
   58.9872   35.3403   44.0419 H   0  0  0  0  0  0  0  0  0  0  0  0
   59.3959   34.3027   48.2172 H   0  0  0  0  0  0  0  0  0  0  0  0
   58.5481   32.0088   47.7375 H   0  0  0  0  0  0  0  0  0  0  0  0
   56.6759   31.3108   43.4264 H   0  0  0  0  0  0  0  0  0  0  0  0
  1  2  1  0
  2  3  1  0
  2  4  1  0
  4  5  1  0
  5  6  2  0
  6  7  1  0
  7  8  2  0
  8  9  1  0
  9 10  2  0
  4 11  1  0
 11 12  2  0
 12 13  1  0
 13 14  1  0
 14 15  2  0
 15 16  1  0
 16 17  2  0
 17 18  1  0
 17 19  1  0
 19 20  2  0
 13 21  2  0
 21 22  1  0
 10  5  1  0
 22 11  1  0
 20 14  1  0
  1 23  1  0
  1 24  1  0
  1 25  1  0
  3 26  1  0
  3 27  1  0
  3 28  1  0
  4 29  1  1
  6 30  1  0
  7 31  1  0
  8 32  1  0
  9 33  1  0
 15 34  1  0
 16 35  1  0
 19 36  1  0
 20 37  1  0
 21 38  1  0
M  END
>  <UniqueID>  (25) 
24

>  <SMILES>  (25) 
CN(C)[C@H](c1ccccn1)c1nc(-c2ccc(F)cc2)cs1

>  <Energy>  (25) 
77.85549353144883

>  <Genealogy>  (25) 
CN(C)[C@H](c1ccccn1)c1nc(-c2ccc(F)cc2)cs1 (chirality)
CN(C)[C@H](c1ccccn1)c1nc(-c2ccc(F)cc2)cs1 (3D coordinates assigned)
CN(C)[C@H](c1ccccn1)c1nc(-c2ccc(F)cc2)cs1 (optimized conformer: 77.85549353144883 kcal/mol)

>  <smiles>  (25) 
CN(C)C(c1ccccn1)c1nc(-c2ccc(F)cc2)cs1

>  <score_type>  (25) 
oracle

>  <origin>  (25) 
adg

>  <m_score__min__energy>  (25) 
-7.2699999999999996

>  <m_primary>  (25) 
energy

$$$$
25:0
     RDKit          3D

 61 64  0  0  0  0  0  0  0  0999 V2000
   65.6280   30.3970   51.6260 C   0  0  0  0  0  0  0  0  0  0  0  0
   66.5860   31.5690   51.8480 C   0  0  0  0  0  0  0  0  0  0  0  0
   66.2940   32.6830   50.9130 N   0  0  0  0  0  0  0  0  0  0  0  0
   67.5050   33.1010   50.1600 C   0  0  0  0  0  0  0  0  0  0  0  0
   68.2020   34.2390   50.8980 C   0  0  0  0  0  0  0  0  0  0  0  0
   65.6580   33.8210   51.6220 C   0  0  0  0  0  0  0  0  0  0  0  0
   64.2360   34.1010   51.0770 C   0  0  0  0  0  0  0  0  0  0  0  0
   63.6620   32.9450   50.3520 N   0  0  1  0  0  0  0  0  0  0  0  0
   62.5380   32.4090   51.0680 C   0  0  0  0  0  0  0  0  0  0  0  0
   62.6460   31.8410   52.1900 O   0  0  0  0  0  0  0  0  0  0  0  0
   61.2850   32.5220   50.3310 C   0  0  0  0  0  0  0  0  0  0  0  0
   60.0140   31.9010   50.7350 C   0  0  0  0  0  0  0  0  0  0  0  0
   59.8340   30.5160   50.6130 C   0  0  0  0  0  0  0  0  0  0  0  0
   58.6270   29.9290   51.0090 C   0  0  0  0  0  0  0  0  0  0  0  0
   57.5780   30.7180   51.5000 C   0  0  0  0  0  0  0  0  0  0  0  0
   56.3830   30.0840   51.8680 O   0  0  0  0  0  0  0  0  0  0  0  0
   55.1540   30.7690   52.1090 C   0  0  0  0  0  0  0  0  0  0  0  0
   57.7570   32.1120   51.6050 C   0  0  0  0  0  0  0  0  0  0  0  0
   58.9710   32.6970   51.2310 C   0  0  0  0  0  0  0  0  0  0  0  0
   61.5580   33.0740   49.1540 C   0  0  0  0  0  0  0  0  0  0  0  0
   60.6100   33.3010   48.0370 C   0  0  0  0  0  0  0  0  0  0  0  0
   60.2310   34.6030   47.6750 C   0  0  0  0  0  0  0  0  0  0  0  0
   59.3340   34.8190   46.6280 C   0  0  0  0  0  0  0  0  0  0  0  0
   58.8090   33.7320   45.9130 C   0  0  0  0  0  0  0  0  0  0  0  0
   57.9060   33.9390   44.8590 C   0  0  0  0  0  0  0  0  0  0  0  0
   57.3930   32.8480   44.1510 C   0  0  0  0  0  0  0  0  0  0  0  0
   57.7810   31.5480   44.4850 C   0  0  0  0  0  0  0  0  0  0  0  0
   58.6810   31.3300   45.5330 C   0  0  0  0  0  0  0  0  0  0  0  0
   59.1990   32.4160   46.2560 C   0  0  0  0  0  0  0  0  0  0  0  0
   60.0960   32.2110   47.3150 C   0  0  0  0  0  0  0  0  0  0  0  0
   62.9970   33.3440   49.1370 C   0  0  0  0  0  0  0  0  0  0  0  0
   63.6050   33.8540   48.1560 O   0  0  0  0  0  0  0  0  0  0  0  0
   65.3032   29.9996   52.5989 H   0  0  0  0  0  0  0  0  0  0  0  0
   64.7506   30.7428   51.0597 H   0  0  0  0  0  0  0  0  0  0  0  0
   66.1414   29.6060   51.0597 H   0  0  0  0  0  0  0  0  0  0  0  0
   66.4783   31.9300   52.8815 H   0  0  0  0  0  0  0  0  0  0  0  0
   67.6129   31.2198   51.6650 H   0  0  0  0  0  0  0  0  0  0  0  0
   68.1930   32.2473   50.0711 H   0  0  0  0  0  0  0  0  0  0  0  0
   67.2101   33.4439   49.1573 H   0  0  0  0  0  0  0  0  0  0  0  0
   68.1074   34.0846   51.9830 H   0  0  0  0  0  0  0  0  0  0  0  0
   69.2666   34.2575   50.6217 H   0  0  0  0  0  0  0  0  0  0  0  0
   67.7348   35.1957   50.6217 H   0  0  0  0  0  0  0  0  0  0  0  0
   65.5902   33.5824   52.6937 H   0  0  0  0  0  0  0  0  0  0  0  0
   66.2740   34.7179   51.4606 H   0  0  0  0  0  0  0  0  0  0  0  0
   63.5775   34.3475   51.9230 H   0  0  0  0  0  0  0  0  0  0  0  0
   64.3128   34.9347   50.3635 H   0  0  0  0  0  0  0  0  0  0  0  0
   64.3510   32.1830   50.1630 H   0  0  0  0  0  0  0  0  0  0  0  0
   60.6420   29.8904   50.2058 H   0  0  0  0  0  0  0  0  0  0  0  0
   58.5005   28.8389   50.9342 H   0  0  0  0  0  0  0  0  0  0  0  0
   54.9913   30.8597   53.1931 H   0  0  0  0  0  0  0  0  0  0  0  0
   55.1991   31.7721   51.6598 H   0  0  0  0  0  0  0  0  0  0  0  0
   54.3246   30.2031   51.6598 H   0  0  0  0  0  0  0  0  0  0  0  0
   56.9385   32.7425   51.9827 H   0  0  0  0  0  0  0  0  0  0  0  0
   59.1083   33.7843   51.3261 H   0  0  0  0  0  0  0  0  0  0  0  0
   60.6455   35.4624   48.2224 H   0  0  0  0  0  0  0  0  0  0  0  0
   59.0377   35.8445   46.3625 H   0  0  0  0  0  0  0  0  0  0  0  0
   57.6014   34.9610   44.5895 H   0  0  0  0  0  0  0  0  0  0  0  0
   56.6817   33.0136   43.3284 H   0  0  0  0  0  0  0  0  0  0  0  0
   57.3774   30.6935   43.9220 H   0  0  0  0  0  0  0  0  0  0  0  0
   58.9838   30.3046   45.7915 H   0  0  0  0  0  0  0  0  0  0  0  0
   60.3995   31.1880   47.5823 H   0  0  0  0  0  0  0  0  0  0  0  0
  1  2  1  0
  2  3  1  0
  3  4  1  0
  4  5  1  0
  3  6  1  0
  6  7  1  0
  7  8  1  0
  8  9  1  0
  9 10  2  0
  9 11  1  0
 11 12  1  0
 12 13  2  0
 13 14  1  0
 14 15  2  0
 15 16  1  0
 16 17  1  0
 15 18  1  0
 18 19  2  0
 11 20  2  0
 20 21  1  0
 21 22  2  0
 22 23  1  0
 23 24  2  0
 24 25  1  0
 25 26  2  0
 26 27  1  0
 27 28  2  0
 28 29  1  0
 29 30  2  0
 20 31  1  0
 31 32  2  0
 31  8  1  0
 19 12  1  0
 30 21  1  0
 29 24  1  0
  1 33  1  0
  1 34  1  0
  1 35  1  0
  2 36  1  0
  2 37  1  0
  4 38  1  0
  4 39  1  0
  5 40  1  0
  5 41  1  0
  5 42  1  0
  6 43  1  0
  6 44  1  0
  7 45  1  0
  7 46  1  0
  8 47  1  6
 13 48  1  0
 14 49  1  0
 17 50  1  0
 17 51  1  0
 17 52  1  0
 18 53  1  0
 19 54  1  0
 22 55  1  0
 23 56  1  0
 25 57  1  0
 26 58  1  0
 27 59  1  0
 28 60  1  0
 30 61  1  0
M  CHG  1   8   1
M  END
>  <UniqueID>  (26) 
25

>  <SMILES>  (26) 
CCN(CC)CC[N@H+]1C(=O)C(c2ccc(OC)cc2)=C(c2ccc3ccccc3c2)C1=O

>  <Energy>  (26) 
100.78315784240125

>  <Genealogy>  (26) 
CCN(CC)CC[NH+]1C(=O)C(c2ccc(OC)cc2)=C(c2ccc3ccccc3c2)C1=O (protonated)
CCN(CC)CC[N@H+]1C(=O)C(c2ccc(OC)cc2)=C(c2ccc3ccccc3c2)C1=O (chirality)
CCN(CC)CC[N@H+]1C(=O)C(c2ccc(OC)cc2)=C(c2ccc3ccccc3c2)C1=O (3D coordinates assigned)
CCN(CC)CC[N@H+]1C(=O)C(c2ccc(OC)cc2)=C(c2ccc3ccccc3c2)C1=O (nonaromatic ring conformer: 100.78315784240125 kcal/mol)

>  <smiles>  (26) 
CCN(CC)CCN1C(=O)C(c2ccc(OC)cc2)=C(c2ccc3ccccc3c2)C1=O

>  <score_type>  (26) 
oracle

>  <origin>  (26) 
adg

>  <m_score__min__energy>  (26) 
-7.29

>  <m_primary>  (26) 
energy

$$$$
26:0
     RDKit          3D

 47 48  0  0  0  0  0  0  0  0999 V2000
   58.0800   32.3250   42.8840 C   0  0  0  0  0  0  0  0  0  0  0  0
   57.0180   31.2340   42.7980 C   0  0  0  0  0  0  0  0  0  0  0  0
   57.5180   30.0060   43.3200 O   0  0  0  0  0  0  0  0  0  0  0  0
   57.3190   29.5880   44.6420 C   0  0  0  0  0  0  0  0  0  0  0  0
   56.1950   29.7560   45.1930 O   0  0  0  0  0  0  0  0  0  0  0  0
   58.4820   28.9610   45.4060 C   0  0  2  0  0  0  0  0  0  0  0  0
   59.7620   29.0080   44.5260 C   0  0  0  0  0  0  0  0  0  0  0  0
   58.1050   27.4620   45.6950 C   0  0  0  0  0  0  0  0  0  0  0  0
   58.4250   26.9810   47.1210 C   0  0  0  0  0  0  0  0  0  0  0  0
   59.7710   27.5300   47.6070 C   0  0  2  0  0  0  0  0  0  0  0  0
   60.1070   26.9430   48.8400 O   0  0  0  0  0  0  0  0  0  0  0  0
   59.7530   29.0890   47.7060 C   0  0  2  0  0  0  0  0  0  0  0  0
   59.5330   29.5820   49.1510 C   0  0  0  0  0  0  0  0  0  0  0  0
   58.6890   29.7420   46.7550 C   0  0  1  0  0  0  0  0  0  0  0  0
   58.9170   31.2460   46.5600 C   0  0  0  0  0  0  0  0  0  0  0  0
   57.8540   32.1410   46.3310 C   0  0  0  0  0  0  0  0  0  0  0  0
   58.0960   33.5080   46.1680 C   0  0  0  0  0  0  0  0  0  0  0  0
   59.4010   34.0110   46.2460 C   0  0  0  0  0  0  0  0  0  0  0  0
   59.6630   35.4720   46.0340 C   0  0  0  0  0  0  0  0  0  0  0  0
   60.4660   33.1260   46.4570 C   0  0  0  0  0  0  0  0  0  0  0  0
   60.2270   31.7600   46.6200 C   0  0  0  0  0  0  0  0  0  0  0  0
   58.2946   32.5454   43.9401 H   0  0  0  0  0  0  0  0  0  0  0  0
   58.9993   31.9818   42.3870 H   0  0  0  0  0  0  0  0  0  0  0  0
   57.7122   33.2348   42.3870 H   0  0  0  0  0  0  0  0  0  0  0  0
   56.1359   31.5414   43.3789 H   0  0  0  0  0  0  0  0  0  0  0  0
   56.7456   31.0863   41.7426 H   0  0  0  0  0  0  0  0  0  0  0  0
   60.6509   29.0406   45.1732 H   0  0  0  0  0  0  0  0  0  0  0  0
   59.8035   28.1108   43.8910 H   0  0  0  0  0  0  0  0  0  0  0  0
   59.7376   29.9059   43.8910 H   0  0  0  0  0  0  0  0  0  0  0  0
   57.0244   27.3423   45.5276 H   0  0  0  0  0  0  0  0  0  0  0  0
   58.7189   26.8514   45.0165 H   0  0  0  0  0  0  0  0  0  0  0  0
   57.6317   27.3245   47.8011 H   0  0  0  0  0  0  0  0  0  0  0  0
   58.4820   25.8825   47.1114 H   0  0  0  0  0  0  0  0  0  0  0  0
   60.5424   27.2664   46.8684 H   0  0  0  0  0  0  0  0  0  0  0  0
   59.5820   27.4130   49.5400 H   0  0  0  0  0  0  0  0  0  0  0  0
   60.7512   29.4125   47.3761 H   0  0  0  0  0  0  0  0  0  0  0  0
   59.8766   28.8120   49.8574 H   0  0  0  0  0  0  0  0  0  0  0  0
   60.1029   30.5088   49.3130 H   0  0  0  0  0  0  0  0  0  0  0  0
   58.4626   29.7768   49.3130 H   0  0  0  0  0  0  0  0  0  0  0  0
   57.7268   29.6480   47.2798 H   0  0  0  0  0  0  0  0  0  0  0  0
   56.8232   31.7605   46.2799 H   0  0  0  0  0  0  0  0  0  0  0  0
   57.2566   34.1929   45.9773 H   0  0  0  0  0  0  0  0  0  0  0  0
   59.7530   35.9736   47.0088 H   0  0  0  0  0  0  0  0  0  0  0  0
   60.5982   35.5986   45.4688 H   0  0  0  0  0  0  0  0  0  0  0  0
   58.8301   35.9157   45.4688 H   0  0  0  0  0  0  0  0  0  0  0  0
   61.4964   33.5093   46.4945 H   0  0  0  0  0  0  0  0  0  0  0  0
   61.0713   31.0776   46.7973 H   0  0  0  0  0  0  0  0  0  0  0  0
  1  2  1  0
  2  3  1  0
  3  4  1  0
  4  5  2  0
  4  6  1  0
  6  7  1  6
  6  8  1  0
  8  9  1  0
  9 10  1  0
 10 11  1  0
 10 12  1  0
 12 13  1  0
 12 14  1  0
 14 15  1  0
 15 16  2  0
 16 17  1  0
 17 18  2  0
 18 19  1  0
 18 20  1  0
 20 21  2  0
 14  6  1  0
 21 15  1  0
  1 22  1  0
  1 23  1  0
  1 24  1  0
  2 25  1  0
  2 26  1  0
  7 27  1  0
  7 28  1  0
  7 29  1  0
  8 30  1  0
  8 31  1  0
  9 32  1  0
  9 33  1  0
 10 34  1  6
 11 35  1  0
 12 36  1  6
 13 37  1  0
 13 38  1  0
 13 39  1  0
 14 40  1  1
 16 41  1  0
 17 42  1  0
 19 43  1  0
 19 44  1  0
 19 45  1  0
 20 46  1  0
 21 47  1  0
M  END
>  <UniqueID>  (27) 
26

>  <SMILES>  (27) 
CCOC(=O)[C@]1(C)CC[C@H](O)C(C)C1c1ccc(C)cc1

>  <Energy>  (27) 
53.21930270028894

>  <Genealogy>  (27) 
CCOC(=O)[C@]1(C)CC[C@H](O)C(C)C1c1ccc(C)cc1 (chirality)
CCOC(=O)[C@]1(C)CC[C@H](O)C(C)C1c1ccc(C)cc1 (3D coordinates assigned)
CCOC(=O)[C@]1(C)CC[C@H](O)C(C)C1c1ccc(C)cc1 (nonaromatic ring conformer: 53.21930270028894 kcal/mol)

>  <smiles>  (27) 
CCOC(=O)C1(C)CCC(O)C(C)C1c1ccc(C)cc1

>  <score_type>  (27) 
oracle

>  <origin>  (27) 
adg

>  <m_score__min__energy>  (27) 
-7.0499999999999998

>  <m_primary>  (27) 
energy

$$$$
27:0
     RDKit          3D

 36 37  0  0  0  0  0  0  0  0999 V2000
   60.7030   29.3810   47.8820 C   0  0  0  0  0  0  0  0  0  0  0  0
   59.9600   28.4940   46.9270 C   0  0  0  0  0  0  0  0  0  0  0  0
   59.8790   27.1160   47.1580 C   0  0  0  0  0  0  0  0  0  0  0  0
   59.1590   26.2970   46.2870 C   0  0  0  0  0  0  0  0  0  0  0  0
   58.5070   26.8410   45.1690 C   0  0  0  0  0  0  0  0  0  0  0  0
   57.7600   25.9250   44.2360 C   0  0  0  0  0  0  0  0  0  0  0  0
   58.5660   28.2360   44.9380 C   0  0  0  0  0  0  0  0  0  0  0  0
   57.8960   28.8220   43.8060 N   0  0  0  0  0  0  0  0  0  0  0  0
   56.7130   30.0800   43.9710 S   0  0  0  0  0  0  0  0  0  0  0  0
   55.5950   29.5970   44.8520 O   0  0  0  0  0  0  0  0  0  0  0  0
   56.1540   30.4240   42.6190 O   0  0  0  0  0  0  0  0  0  0  0  0
   57.4730   31.5170   44.6500 C   0  0  0  0  0  0  0  0  0  0  0  0
   57.8300   32.5720   43.8030 C   0  0  0  0  0  0  0  0  0  0  0  0
   58.4730   33.6990   44.3170 C   0  0  0  0  0  0  0  0  0  0  0  0
   58.7670   33.7840   45.6820 C   0  0  0  0  0  0  0  0  0  0  0  0
   59.6610   35.3560   46.3240 Br  0  0  0  0  0  0  0  0  0  0  0  0
   58.4110   32.7280   46.5460 C   0  0  0  0  0  0  0  0  0  0  0  0
   58.7270   32.7930   48.0140 C   0  0  0  0  0  0  0  0  0  0  0  0
   57.7630   31.5970   46.0190 C   0  0  0  0  0  0  0  0  0  0  0  0
   59.2820   29.0500   45.8340 C   0  0  0  0  0  0  0  0  0  0  0  0
   60.4607   29.0917   48.9152 H   0  0  0  0  0  0  0  0  0  0  0  0
   61.7851   29.2741   47.7155 H   0  0  0  0  0  0  0  0  0  0  0  0
   60.4080   30.4276   47.7155 H   0  0  0  0  0  0  0  0  0  0  0  0
   60.3852   26.6764   48.0301 H   0  0  0  0  0  0  0  0  0  0  0  0
   59.1018   25.2153   46.4782 H   0  0  0  0  0  0  0  0  0  0  0  0
   57.1720   25.2040   44.8229 H   0  0  0  0  0  0  0  0  0  0  0  0
   57.0851   26.5186   43.6018 H   0  0  0  0  0  0  0  0  0  0  0  0
   58.4772   25.3833   43.6018 H   0  0  0  0  0  0  0  0  0  0  0  0
   58.2060   28.5950   42.8350 H   0  0  0  0  0  0  0  0  0  0  0  0
   57.6031   32.5129   42.7283 H   0  0  0  0  0  0  0  0  0  0  0  0
   58.7501   34.5248   43.6452 H   0  0  0  0  0  0  0  0  0  0  0  0
   57.8119   32.6048   48.5947 H   0  0  0  0  0  0  0  0  0  0  0  0
   59.4811   32.0312   48.2608 H   0  0  0  0  0  0  0  0  0  0  0  0
   59.1192   33.7906   48.2608 H   0  0  0  0  0  0  0  0  0  0  0  0
   57.4815   30.7688   46.6860 H   0  0  0  0  0  0  0  0  0  0  0  0
   59.3101   30.1380   45.6746 H   0  0  0  0  0  0  0  0  0  0  0  0
  1  2  1  0
  2  3  2  0
  3  4  1  0
  4  5  2  0
  5  6  1  0
  5  7  1  0
  7  8  1  0
  8  9  1  0
  9 10  2  0
  9 11  2  0
  9 12  1  0
 12 13  2  0
 13 14  1  0
 14 15  2  0
 15 16  1  0
 15 17  1  0
 17 18  1  0
 17 19  2  0
  7 20  2  0
 20  2  1  0
 19 12  1  0
  1 21  1  0
  1 22  1  0
  1 23  1  0
  3 24  1  0
  4 25  1  0
  6 26  1  0
  6 27  1  0
  6 28  1  0
  8 29  1  0
 13 30  1  0
 14 31  1  0
 18 32  1  0
 18 33  1  0
 18 34  1  0
 19 35  1  0
 20 36  1  0
M  END
>  <UniqueID>  (28) 
27

>  <SMILES>  (28) 
Cc1ccc(C)c(NS(=O)(=O)c2ccc(Br)c(C)c2)c1

>  <Energy>  (28) 
39.01644454620622

>  <Genealogy>  (28) 
Cc1ccc(C)c(NS(=O)(=O)c2ccc(Br)c(C)c2)c1 (3D coordinates assigned)
Cc1ccc(C)c(NS(=O)(=O)c2ccc(Br)c(C)c2)c1 (optimized conformer: 39.01644454620622 kcal/mol)

>  <smiles>  (28) 
Cc1ccc(C)c(NS(=O)(=O)c2ccc(Br)c(C)c2)c1

>  <score_type>  (28) 
oracle

>  <origin>  (28) 
adg

>  <m_score__min__energy>  (28) 
-8.6500000000000004

>  <m_primary>  (28) 
energy

$$$$
28:0
     RDKit          3D

 36 38  0  0  0  0  0  0  0  0999 V2000
   56.8150   30.6050   43.7920 C   0  0  0  0  0  0  0  0  0  0  0  0
   56.8450   31.3840   44.9820 O   0  0  0  0  0  0  0  0  0  0  0  0
   58.0160   31.7280   45.6740 C   0  0  0  0  0  0  0  0  0  0  0  0
   58.3130   33.0530   46.0450 C   0  0  0  0  0  0  0  0  0  0  0  0
   59.4940   33.3440   46.7370 C   0  0  0  0  0  0  0  0  0  0  0  0
   60.3890   32.3170   47.0760 C   0  0  0  0  0  0  0  0  0  0  0  0
   61.6370   32.6300   47.8160 C   0  0  0  0  0  0  0  0  0  0  0  0
   62.8390   32.7550   47.0990 C   0  0  0  0  0  0  0  0  0  0  0  0
   64.0110   32.9780   47.7490 N   0  0  0  0  0  0  0  0  0  0  0  0
   64.0640   33.0880   49.1020 C   0  0  0  0  0  0  0  0  0  0  0  0
   62.9000   32.9830   49.8610 C   0  0  0  0  0  0  0  0  0  0  0  0
   61.6670   32.7650   49.2270 C   0  0  0  0  0  0  0  0  0  0  0  0
   60.4370   32.7280   50.0520 C   0  0  0  0  0  0  0  0  0  0  0  0
   60.0770   33.8290   50.8500 C   0  0  0  0  0  0  0  0  0  0  0  0
   58.9120   33.7910   51.6220 C   0  0  0  0  0  0  0  0  0  0  0  0
   58.1010   32.6520   51.6110 C   0  0  0  0  0  0  0  0  0  0  0  0
   56.9720   32.6170   52.3600 F   0  0  0  0  0  0  0  0  0  0  0  0
   58.4570   31.5490   50.8300 C   0  0  0  0  0  0  0  0  0  0  0  0
   59.6210   31.5830   50.0560 C   0  0  0  0  0  0  0  0  0  0  0  0
   60.0970   30.9990   46.6940 C   0  0  0  0  0  0  0  0  0  0  0  0
   58.9170   30.7090   46.0040 C   0  0  0  0  0  0  0  0  0  0  0  0
   56.7739   29.5374   44.0536 H   0  0  0  0  0  0  0  0  0  0  0  0
   55.9265   30.8722   43.2011 H   0  0  0  0  0  0  0  0  0  0  0  0
   57.7214   30.8031   43.2011 H   0  0  0  0  0  0  0  0  0  0  0  0
   57.6139   33.8630   45.7899 H   0  0  0  0  0  0  0  0  0  0  0  0
   59.7222   34.3830   47.0168 H   0  0  0  0  0  0  0  0  0  0  0  0
   62.8310   32.6716   46.0022 H   0  0  0  0  0  0  0  0  0  0  0  0
   64.8930   33.0620   47.1960 H   0  0  0  0  0  0  0  0  0  0  0  0
   65.0294   33.2606   49.6003 H   0  0  0  0  0  0  0  0  0  0  0  0
   62.9476   33.0709   50.9564 H   0  0  0  0  0  0  0  0  0  0  0  0
   60.7154   34.7246   50.8667 H   0  0  0  0  0  0  0  0  0  0  0  0
   58.6331   34.6581   52.2387 H   0  0  0  0  0  0  0  0  0  0  0  0
   57.8201   30.6522   50.8242 H   0  0  0  0  0  0  0  0  0  0  0  0
   59.8996   30.7100   49.4475 H   0  0  0  0  0  0  0  0  0  0  0  0
   60.8006   30.1897   46.9389 H   0  0  0  0  0  0  0  0  0  0  0  0
   58.6942   29.6706   45.7176 H   0  0  0  0  0  0  0  0  0  0  0  0
  1  2  1  0
  2  3  1  0
  3  4  2  0
  4  5  1  0
  5  6  2  0
  6  7  1  0
  7  8  2  0
  8  9  1  0
  9 10  2  0
 10 11  1  0
 11 12  2  0
 12 13  1  0
 13 14  2  0
 14 15  1  0
 15 16  2  0
 16 17  1  0
 16 18  1  0
 18 19  2  0
  6 20  1  0
 20 21  2  0
 21  3  1  0
 12  7  1  0
 19 13  1  0
  1 22  1  0
  1 23  1  0
  1 24  1  0
  4 25  1  0
  5 26  1  0
  8 27  1  0
  9 28  1  0
 10 29  1  0
 11 30  1  0
 14 31  1  0
 15 32  1  0
 18 33  1  0
 19 34  1  0
 20 35  1  0
 21 36  1  0
M  CHG  1   9   1
M  END
>  <UniqueID>  (29) 
28

>  <SMILES>  (29) 
COc1ccc(-c2c[nH+]ccc2-c2ccc(F)cc2)cc1

>  <Energy>  (29) 
50.7129633118346

>  <Genealogy>  (29) 
COc1ccc(-c2c[nH+]ccc2-c2ccc(F)cc2)cc1 (protonated)
COc1ccc(-c2c[nH+]ccc2-c2ccc(F)cc2)cc1 (3D coordinates assigned)
COc1ccc(-c2c[nH+]ccc2-c2ccc(F)cc2)cc1 (optimized conformer: 50.7129633118346 kcal/mol)

>  <smiles>  (29) 
COc1ccc(-c2cnccc2-c2ccc(F)cc2)cc1

>  <score_type>  (29) 
oracle

>  <origin>  (29) 
adg

>  <m_score__min__energy>  (29) 
-5.4500000000000002

>  <m_primary>  (29) 
energy

$$$$
29:0
     RDKit          3D

 43 46  0  0  0  0  0  0  0  0999 V2000
   55.9110   30.3230   43.3840 C   0  0  0  0  0  0  0  0  0  0  0  0
   56.2710   30.4360   44.7570 O   0  0  0  0  0  0  0  0  0  0  0  0
   57.2650   29.6700   45.3880 C   0  0  0  0  0  0  0  0  0  0  0  0
   57.1550   28.2710   45.5160 C   0  0  0  0  0  0  0  0  0  0  0  0
   58.1470   27.5250   46.1770 C   0  0  0  0  0  0  0  0  0  0  0  0
   58.0220   26.0920   46.3100 N   0  0  0  0  0  0  0  0  0  0  0  0
   56.7330   25.4890   46.6770 C   0  0  0  0  0  0  0  0  0  0  0  0
   56.9580   24.1260   47.3400 C   0  0  0  0  0  0  0  0  0  0  0  0
   57.7180   23.2020   46.4780 N   0  0  0  0  0  0  0  0  0  0  0  0
   58.7390   23.8420   45.6230 C   0  0  0  0  0  0  0  0  0  0  0  0
   59.1880   25.2180   46.1330 C   0  0  0  0  0  0  0  0  0  0  0  0
   59.2550   28.1970   46.7170 C   0  0  0  0  0  0  0  0  0  0  0  0
   59.3750   29.5820   46.5920 C   0  0  0  0  0  0  0  0  0  0  0  0
   58.3940   30.3250   45.9200 C   0  0  0  0  0  0  0  0  0  0  0  0
   58.5560   31.7900   45.7930 C   0  0  0  0  0  0  0  0  0  0  0  0
   58.3840   32.4330   44.5490 C   0  0  0  0  0  0  0  0  0  0  0  0
   58.5430   33.8330   44.4490 C   0  0  0  0  0  0  0  0  0  0  0  0
   58.8520   34.5790   45.5500 N   0  0  0  0  0  0  0  0  0  0  0  0
   59.0070   33.9570   46.7440 C   0  0  0  0  0  0  0  0  0  0  0  0
   59.2800   34.5520   47.9140 N   0  0  0  0  0  0  0  0  0  0  0  0
   59.3060   33.5570   48.8280 C   0  0  0  0  0  0  0  0  0  0  0  0
   59.0480   32.3270   48.2300 C   0  0  0  0  0  0  0  0  0  0  0  0
   58.8660   32.6040   46.8890 C   0  0  0  0  0  0  0  0  0  0  0  0
   54.8642   29.9944   43.3053 H   0  0  0  0  0  0  0  0  0  0  0  0
   56.0264   31.3006   42.8930 H   0  0  0  0  0  0  0  0  0  0  0  0
   56.5643   29.5867   42.8930 H   0  0  0  0  0  0  0  0  0  0  0  0
   56.2806   27.7550   45.0928 H   0  0  0  0  0  0  0  0  0  0  0  0
   56.2078   26.1529   47.3795 H   0  0  0  0  0  0  0  0  0  0  0  0
   56.1286   25.3515   45.7683 H   0  0  0  0  0  0  0  0  0  0  0  0
   57.5160   24.2759   48.2760 H   0  0  0  0  0  0  0  0  0  0  0  0
   55.9717   23.6764   47.5273 H   0  0  0  0  0  0  0  0  0  0  0  0
   58.1910   22.5030   47.0980 H   0  0  0  0  0  0  0  0  0  0  0  0
   59.6186   23.1831   45.5782 H   0  0  0  0  0  0  0  0  0  0  0  0
   58.2830   23.9961   44.6339 H   0  0  0  0  0  0  0  0  0  0  0  0
   59.7037   25.0987   47.0973 H   0  0  0  0  0  0  0  0  0  0  0  0
   59.8707   25.6705   45.3987 H   0  0  0  0  0  0  0  0  0  0  0  0
   60.0352   27.6273   47.2431 H   0  0  0  0  0  0  0  0  0  0  0  0
   60.2467   30.0950   47.0244 H   0  0  0  0  0  0  0  0  0  0  0  0
   58.1260   31.8439   43.6566 H   0  0  0  0  0  0  0  0  0  0  0  0
   58.4166   34.3271   43.4744 H   0  0  0  0  0  0  0  0  0  0  0  0
   59.4270   35.5720   48.0870 H   0  0  0  0  0  0  0  0  0  0  0  0
   59.5044   33.7000   49.9005 H   0  0  0  0  0  0  0  0  0  0  0  0
   58.9994   31.3437   48.7207 H   0  0  0  0  0  0  0  0  0  0  0  0
  1  2  1  0
  2  3  1  0
  3  4  2  0
  4  5  1  0
  5  6  1  0
  6  7  1  0
  7  8  1  0
  8  9  1  0
  9 10  1  0
 10 11  1  0
  5 12  2  0
 12 13  1  0
 13 14  2  0
 14 15  1  0
 15 16  2  0
 16 17  1  0
 17 18  2  0
 18 19  1  0
 19 20  1  0
 20 21  1  0
 21 22  2  0
 22 23  1  0
 14  3  1  0
 23 15  1  0
 11  6  1  0
 23 19  2  0
  1 24  1  0
  1 25  1  0
  1 26  1  0
  4 27  1  0
  7 28  1  0
  7 29  1  0
  8 30  1  0
  8 31  1  0
  9 32  1  0
 10 33  1  0
 10 34  1  0
 11 35  1  0
 11 36  1  0
 12 37  1  0
 13 38  1  0
 16 39  1  0
 17 40  1  0
 20 41  1  0
 21 42  1  0
 22 43  1  0
M  END
>  <UniqueID>  (30) 
29

>  <SMILES>  (30) 
COc1cc(N2CCNCC2)ccc1-c1ccnc2[nH]ccc12

>  <Energy>  (30) 
94.37532641811555

>  <Genealogy>  (30) 
COc1cc(N2CCNCC2)ccc1-c1ccnc2[nH]ccc12 (3D coordinates assigned)
COc1cc(N2CCNCC2)ccc1-c1ccnc2[nH]ccc12 (nonaromatic ring conformer: 94.37532641811555 kcal/mol)

>  <smiles>  (30) 
COc1cc(N2CCNCC2)ccc1-c1ccnc2[nH]ccc12

>  <score_type>  (30) 
oracle

>  <origin>  (30) 
adg

>  <m_score__min__energy>  (30) 
-7.1600000000000001

>  <m_primary>  (30) 
energy

$$$$
30:0
     RDKit          3D

 45 48  0  0  0  0  0  0  0  0999 V2000
   65.0660   32.2090   50.1250 C   0  0  0  0  0  0  0  0  0  0  0  0
   64.8210   33.0280   48.9870 O   0  0  0  0  0  0  0  0  0  0  0  0
   63.5440   33.3520   48.5040 C   0  0  0  0  0  0  0  0  0  0  0  0
   62.5460   33.9100   49.3270 C   0  0  0  0  0  0  0  0  0  0  0  0
   61.2860   34.2120   48.7990 C   0  0  0  0  0  0  0  0  0  0  0  0
   61.0100   33.9660   47.4480 C   0  0  0  0  0  0  0  0  0  0  0  0
   59.4040   34.3110   46.8160 S   0  0  0  0  0  0  0  0  0  0  0  0
   59.4390   34.4030   45.3160 O   0  0  0  0  0  0  0  0  0  0  0  0
   58.9160   35.6170   47.3760 O   0  0  0  0  0  0  0  0  0  0  0  0
   58.3360   33.0560   47.2710 O   0  0  0  0  0  0  0  0  0  0  0  0
   58.3460   31.8030   46.6530 C   0  0  0  0  0  0  0  0  0  0  0  0
   57.6620   31.6060   45.4940 N   0  0  0  0  0  0  0  0  0  0  0  0
   57.6860   30.4150   44.8470 C   0  0  0  0  0  0  0  0  0  0  0  0
   56.9800   30.2430   43.6520 C   0  0  0  0  0  0  0  0  0  0  0  0
   57.0180   29.0130   42.9900 C   0  0  0  0  0  0  0  0  0  0  0  0
   57.7610   27.9520   43.5220 C   0  0  0  0  0  0  0  0  0  0  0  0
   58.4700   28.1180   44.7160 C   0  0  0  0  0  0  0  0  0  0  0  0
   58.4370   29.3520   45.3860 C   0  0  0  0  0  0  0  0  0  0  0  0
   59.1190   29.5400   46.5510 N   0  0  0  0  0  0  0  0  0  0  0  0
   59.0880   30.7390   47.2060 C   0  0  0  0  0  0  0  0  0  0  0  0
   59.8490   30.9080   48.4670 C   0  0  0  0  0  0  0  0  0  0  0  0
   59.2540   31.5070   49.5930 C   0  0  0  0  0  0  0  0  0  0  0  0
   59.9780   31.6520   50.7810 C   0  0  0  0  0  0  0  0  0  0  0  0
   61.2950   31.1920   50.8590 C   0  0  0  0  0  0  0  0  0  0  0  0
   61.8900   30.5860   49.7490 C   0  0  0  0  0  0  0  0  0  0  0  0
   61.1720   30.4430   48.5590 C   0  0  0  0  0  0  0  0  0  0  0  0
   62.0020   33.4110   46.6280 C   0  0  0  0  0  0  0  0  0  0  0  0
   63.2600   33.1080   47.1550 C   0  0  0  0  0  0  0  0  0  0  0  0
   64.8915   32.7924   51.0411 H   0  0  0  0  0  0  0  0  0  0  0  0
   64.3875   31.3434   50.1067 H   0  0  0  0  0  0  0  0  0  0  0  0
   66.1084   31.8582   50.1067 H   0  0  0  0  0  0  0  0  0  0  0  0
   62.7580   34.1089   50.3879 H   0  0  0  0  0  0  0  0  0  0  0  0
   60.5094   34.6442   49.4472 H   0  0  0  0  0  0  0  0  0  0  0  0
   56.3952   31.0754   43.2335 H   0  0  0  0  0  0  0  0  0  0  0  0
   56.4635   28.8780   42.0496 H   0  0  0  0  0  0  0  0  0  0  0  0
   57.7871   26.9846   42.9990 H   0  0  0  0  0  0  0  0  0  0  0  0
   59.0533   27.2824   45.1303 H   0  0  0  0  0  0  0  0  0  0  0  0
   59.6640   28.7460   46.9580 H   0  0  0  0  0  0  0  0  0  0  0  0
   58.2146   31.8629   49.5386 H   0  0  0  0  0  0  0  0  0  0  0  0
   59.5100   32.1287   51.6549 H   0  0  0  0  0  0  0  0  0  0  0  0
   61.8634   31.3068   51.7938 H   0  0  0  0  0  0  0  0  0  0  0  0
   62.9257   30.2209   49.8124 H   0  0  0  0  0  0  0  0  0  0  0  0
   61.6449   29.9637   47.6892 H   0  0  0  0  0  0  0  0  0  0  0  0
   61.7896   33.2135   45.5669 H   0  0  0  0  0  0  0  0  0  0  0  0
   64.0337   32.6741   46.5046 H   0  0  0  0  0  0  0  0  0  0  0  0
  1  2  1  0
  2  3  1  0
  3  4  2  0
  4  5  1  0
  5  6  2  0
  6  7  1  0
  7  8  2  0
  7  9  2  0
  7 10  1  0
 10 11  1  0
 11 12  2  0
 12 13  1  0
 13 14  2  0
 14 15  1  0
 15 16  2  0
 16 17  1  0
 17 18  2  0
 18 19  1  0
 19 20  2  0
 20 21  1  0
 21 22  2  0
 22 23  1  0
 23 24  2  0
 24 25  1  0
 25 26  2  0
  6 27  1  0
 27 28  2  0
 28  3  1  0
 20 11  1  0
 26 21  1  0
 18 13  1  0
  1 29  1  0
  1 30  1  0
  1 31  1  0
  4 32  1  0
  5 33  1  0
 14 34  1  0
 15 35  1  0
 16 36  1  0
 17 37  1  0
 19 38  1  0
 22 39  1  0
 23 40  1  0
 24 41  1  0
 25 42  1  0
 26 43  1  0
 27 44  1  0
 28 45  1  0
M  CHG  1  19   1
M  END
>  <UniqueID>  (31) 
30

>  <SMILES>  (31) 
COc1ccc(S(=O)(=O)Oc2nc3ccccc3[nH+]c2-c2ccccc2)cc1

>  <Energy>  (31) 
56.03437875162465

>  <Genealogy>  (31) 
COc1ccc(S(=O)(=O)Oc2nc3ccccc3[nH+]c2-c2ccccc2)cc1 (protonated)
COc1ccc(S(=O)(=O)Oc2nc3ccccc3[nH+]c2-c2ccccc2)cc1 (3D coordinates assigned)
COc1ccc(S(=O)(=O)Oc2nc3ccccc3[nH+]c2-c2ccccc2)cc1 (optimized conformer: 56.03437875162465 kcal/mol)

>  <smiles>  (31) 
COc1ccc(S(=O)(=O)Oc2nc3ccccc3nc2-c2ccccc2)cc1

>  <score_type>  (31) 
oracle

>  <origin>  (31) 
adg

>  <m_score__min__energy>  (31) 
-6.8300000000000001

>  <m_primary>  (31) 
energy

$$$$
31:0
     RDKit          3D

 34 36  0  0  0  0  0  0  0  0999 V2000
   57.6400   25.7750   46.8180 F   0  0  0  0  0  0  0  0  0  0  0  0
   57.8450   26.8910   46.0760 C   0  0  0  0  0  0  0  0  0  0  0  0
   58.1010   28.1110   46.7080 C   0  0  0  0  0  0  0  0  0  0  0  0
   58.3100   29.2650   45.9460 C   0  0  0  0  0  0  0  0  0  0  0  0
   58.2730   29.2040   44.5400 C   0  0  0  0  0  0  0  0  0  0  0  0
   58.4590   30.3980   43.7530 N   0  0  0  0  0  0  0  0  0  0  0  0
   57.4370   31.3930   44.1010 C   0  0  0  0  0  0  0  0  0  0  0  0
   58.0130   32.4360   45.0090 C   0  0  0  0  0  0  0  0  0  0  0  0
   57.3660   33.5740   45.4450 C   0  0  0  0  0  0  0  0  0  0  0  0
   58.2570   34.2140   46.2800 C   0  0  0  0  0  0  0  0  0  0  0  0
   59.3950   33.4190   46.3050 C   0  0  0  0  0  0  0  0  0  0  0  0
   60.6420   33.6720   47.0620 C   0  0  0  0  0  0  0  0  0  0  0  0
   60.6230   33.9870   48.4330 C   0  0  0  0  0  0  0  0  0  0  0  0
   61.8250   34.2180   49.1060 C   0  0  0  0  0  0  0  0  0  0  0  0
   63.0070   34.1380   48.4410 N   0  0  0  0  0  0  0  0  0  0  0  0
   63.0600   33.8360   47.1170 C   0  0  0  0  0  0  0  0  0  0  0  0
   61.8810   33.5970   46.4050 C   0  0  0  0  0  0  0  0  0  0  0  0
   59.2120   32.3670   45.5380 O   0  0  0  0  0  0  0  0  0  0  0  0
   58.0020   27.9730   43.9150 C   0  0  0  0  0  0  0  0  0  0  0  0
   57.7930   26.8230   44.6810 C   0  0  0  0  0  0  0  0  0  0  0  0
   58.1382   28.1636   47.8061 H   0  0  0  0  0  0  0  0  0  0  0  0
   58.5042   30.2246   46.4475 H   0  0  0  0  0  0  0  0  0  0  0  0
   59.4130   30.7920   43.9300 H   0  0  0  0  0  0  0  0  0  0  0  0
   58.3900   30.1630   42.7340 H   0  0  0  0  0  0  0  0  0  0  0  0
   57.0715   31.8742   43.1818 H   0  0  0  0  0  0  0  0  0  0  0  0
   56.6078   30.8877   44.6179 H   0  0  0  0  0  0  0  0  0  0  0  0
   56.3499   33.9025   45.1811 H   0  0  0  0  0  0  0  0  0  0  0  0
   58.0987   35.1610   46.8168 H   0  0  0  0  0  0  0  0  0  0  0  0
   59.6664   34.0511   48.9723 H   0  0  0  0  0  0  0  0  0  0  0  0
   61.8145   34.4655   50.1778 H   0  0  0  0  0  0  0  0  0  0  0  0
   64.0319   33.7796   46.6050 H   0  0  0  0  0  0  0  0  0  0  0  0
   61.9235   33.3510   45.3337 H   0  0  0  0  0  0  0  0  0  0  0  0
   57.9544   27.9154   42.8175 H   0  0  0  0  0  0  0  0  0  0  0  0
   57.5873   25.8628   44.1853 H   0  0  0  0  0  0  0  0  0  0  0  0
  1  2  1  0
  2  3  2  0
  3  4  1  0
  4  5  2  0
  5  6  1  0
  6  7  1  0
  7  8  1  0
  8  9  2  0
  9 10  1  0
 10 11  2  0
 11 12  1  0
 12 13  2  0
 13 14  1  0
 14 15  2  0
 15 16  1  0
 16 17  2  0
 11 18  1  0
  5 19  1  0
 19 20  2  0
 20  2  1  0
 18  8  1  0
 17 12  1  0
  3 21  1  0
  4 22  1  0
  6 23  1  0
  6 24  1  0
  7 25  1  0
  7 26  1  0
  9 27  1  0
 10 28  1  0
 13 29  1  0
 14 30  1  0
 16 31  1  0
 17 32  1  0
 19 33  1  0
 20 34  1  0
M  CHG  1   6   1
M  END
>  <UniqueID>  (32) 
31

>  <SMILES>  (32) 
Fc1ccc([NH2+]Cc2ccc(-c3ccncc3)o2)cc1

>  <Energy>  (32) 
63.999344807379586

>  <Genealogy>  (32) 
Fc1ccc([NH2+]Cc2ccc(-c3ccncc3)o2)cc1 (protonated)
Fc1ccc([NH2+]Cc2ccc(-c3ccncc3)o2)cc1 (3D coordinates assigned)
Fc1ccc([NH2+]Cc2ccc(-c3ccncc3)o2)cc1 (optimized conformer: 63.999344807379586 kcal/mol)

>  <smiles>  (32) 
Fc1ccc(NCc2ccc(-c3ccncc3)o2)cc1

>  <score_type>  (32) 
oracle

>  <origin>  (32) 
adg

>  <m_score__min__energy>  (32) 
-6.25

>  <m_primary>  (32) 
energy

$$$$
32:0
     RDKit          3D

 47 50  0  0  0  0  0  0  0  0999 V2000
   58.4605   26.0999   47.6614 H   0  0  0  0  0  0  0  0  0  0  0  0
   58.5590   27.1710   47.4310 C   0  0  0  0  0  0  0  0  0  0  0  0
   57.6880   27.7630   46.5750 N   0  0  0  0  0  0  0  0  0  0  0  0
   57.7870   29.0850   46.2770 C   0  0  0  0  0  0  0  0  0  0  0  0
   56.9510   29.6080   45.4280 N   0  0  0  0  0  0  0  0  0  0  0  0
   57.2280   30.6520   44.4780 C   0  0  0  0  0  0  0  0  0  0  0  0
   56.9760   30.4980   43.1020 C   0  0  0  0  0  0  0  0  0  0  0  0
   56.5402   29.5604   42.7265 H   0  0  0  0  0  0  0  0  0  0  0  0
   57.2770   31.5310   42.2110 C   0  0  0  0  0  0  0  0  0  0  0  0
   57.0582   31.4124   41.1395 H   0  0  0  0  0  0  0  0  0  0  0  0
   57.8550   32.7140   42.6770 C   0  0  0  0  0  0  0  0  0  0  0  0
   58.0717   33.5322   41.9744 H   0  0  0  0  0  0  0  0  0  0  0  0
   58.1600   32.8620   44.0380 C   0  0  0  0  0  0  0  0  0  0  0  0
   58.7600   34.1400   44.5430 C   0  0  0  0  0  0  0  0  0  0  0  0
   58.7583   34.1363   45.6430 H   0  0  0  0  0  0  0  0  0  0  0  0
   59.7939   34.2289   44.1782 H   0  0  0  0  0  0  0  0  0  0  0  0
   58.1679   34.9923   44.1782 H   0  0  0  0  0  0  0  0  0  0  0  0
   57.8390   31.8290   44.9340 C   0  0  0  0  0  0  0  0  0  0  0  0
   58.0691   31.9444   46.0035 H   0  0  0  0  0  0  0  0  0  0  0  0
   58.7840   29.8240   46.8350 N   0  0  0  0  0  0  0  0  0  0  0  0
   59.6780   29.2840   47.7090 C   0  0  0  0  0  0  0  0  0  0  0  0
   60.7400   30.1430   48.2880 C   0  0  0  0  0  0  0  0  0  0  0  0
   61.1850   29.9100   49.5990 C   0  0  0  0  0  0  0  0  0  0  0  0
   60.7456   29.0962   50.1946 H   0  0  0  0  0  0  0  0  0  0  0  0
   62.1850   30.7130   50.1430 C   0  0  0  0  0  0  0  0  0  0  0  0
   62.5325   30.5346   51.1713 H   0  0  0  0  0  0  0  0  0  0  0  0
   62.7480   31.7440   49.3870 C   0  0  0  0  0  0  0  0  0  0  0  0
   63.7710   32.5720   49.9590 N   0  0  0  0  0  0  0  0  0  0  0  0
   63.4970   33.5990   50.9470 C   0  0  0  0  0  0  0  0  0  0  0  0
   62.8166   34.3585   50.5346 H   0  0  0  0  0  0  0  0  0  0  0  0
   63.0089   33.1867   51.8424 H   0  0  0  0  0  0  0  0  0  0  0  0
   64.8510   34.2160   51.2720 C   0  0  0  0  0  0  0  0  0  0  0  0
   64.9677   35.1783   50.7520 H   0  0  0  0  0  0  0  0  0  0  0  0
   64.9567   34.4135   52.3490 H   0  0  0  0  0  0  0  0  0  0  0  0
   65.8960   33.2160   50.7800 C   0  0  0  0  0  0  0  0  0  0  0  0
   66.7379   33.7443   50.3086 H   0  0  0  0  0  0  0  0  0  0  0  0
   66.3061   32.6220   51.6100 H   0  0  0  0  0  0  0  0  0  0  0  0
   65.1880   32.3330   49.7600 C   0  0  0  0  0  0  0  0  0  0  0  0
   65.4852   32.6115   48.7382 H   0  0  0  0  0  0  0  0  0  0  0  0
   65.4454   31.2715   49.8901 H   0  0  0  0  0  0  0  0  0  0  0  0
   62.2990   31.9410   48.0680 C   0  0  0  0  0  0  0  0  0  0  0  0
   62.9010   32.9520   47.2300 C   0  0  0  0  0  0  0  0  0  0  0  0
   63.3820   33.7620   46.5590 N   0  0  0  0  0  0  0  0  0  0  0  0
   61.3190   31.1430   47.5540 N   0  0  0  0  0  0  0  0  0  0  0  0
   61.0360   31.2880   46.5590 H   0  0  0  0  0  0  0  0  0  0  0  0
   59.5790   27.9190   48.0190 C   0  0  0  0  0  0  0  0  0  0  0  0
   60.2917   27.4481   48.7121 H   0  0  0  0  0  0  0  0  0  0  0  0
  1  2  1  0
  2  3  1  0
  3  4  1  0
  4  5  2  0
  5  6  1  0
  6  7  2  0
  7  8  1  0
  7  9  1  0
  9 10  1  0
  9 11  2  0
 11 12  1  0
 11 13  1  0
 13 14  1  0
 14 15  1  0
 14 16  1  0
 14 17  1  0
 13 18  2  0
 18 19  1  0
  4 20  1  0
 20 21  2  0
 21 22  1  0
 22 23  2  0
 23 24  1  0
 23 25  1  0
 25 26  1  0
 25 27  2  0
 27 28  1  0
 28 29  1  0
 29 30  1  0
 29 31  1  0
 29 32  1  0
 32 33  1  0
 32 34  1  0
 32 35  1  0
 35 36  1  0
 35 37  1  0
 35 38  1  0
 38 39  1  0
 38 40  1  0
 27 41  1  0
 41 42  1  0
 42 43  3  0
 41 44  2  0
 44 45  1  0
 21 46  1  0
 46 47  1  0
 46  2  2  0
 18  6  1  0
 44 22  1  0
 38 28  1  0
M  CHG  2   3  -1  44   1
M  END
>  <UniqueID>  (33) 
32

>  <SMILES>  (33) 
Cc1cccc(/N=c2\nc(-c3ccc(N4CCCC4)c(C#N)[nH+]3)cc[n-]2)c1

>  <Energy>  (33) 
65.51771737383427

>  <Genealogy>  (33) 
Cc1cccc(N=c2nc(-c3ccc(N4CCCC4)c(C#N)[nH+]3)cc[n-]2)c1 (protonated)
Cc1cccc(/N=c2\nc(-c3ccc(N4CCCC4)c(C#N)[nH+]3)cc[n-]2)c1 (cis-trans isomerization)
Cc1cccc(/N=c2\nc(-c3ccc(N4CCCC4)c(C#N)[nH+]3)cc[n-]2)c1 (3D coordinates assigned)
Cc1cccc(/N=c2\nc(-c3ccc(N4CCCC4)c(C#N)[nH+]3)cc[n-]2)c1 (nonaromatic ring conformer: 65.51771737383427 kcal/mol)

>  <smiles>  (33) 
Cc1cccc(N=c2nc(-c3ccc(N4CCCC4)c(C#N)n3)cc[nH]2)c1

>  <score_type>  (33) 
oracle

>  <origin>  (33) 
adg

>  <m_score__min__energy>  (33) 
-7.7000000000000002

>  <m_primary>  (33) 
energy

$$$$
33:0
     RDKit          3D

 49 52  0  0  0  0  0  0  0  0999 V2000
   56.9680   30.8410   44.9570 O   0  0  0  0  0  0  0  0  0  0  0  0
   57.4270   29.8580   45.5740 N   0  0  0  0  0  0  0  0  0  0  0  0
   56.7340   28.6710   45.5630 O   0  0  0  0  0  0  0  0  0  0  0  0
   58.6630   29.9680   46.2840 C   0  0  0  0  0  0  0  0  0  0  0  0
   59.9270   29.9510   45.7060 C   0  0  0  0  0  0  0  0  0  0  0  0
   60.9570   30.0760   46.6460 C   0  0  0  0  0  0  0  0  0  0  0  0
   60.4970   30.1890   47.9550 C   0  0  0  0  0  0  0  0  0  0  0  0
   61.3460   30.3330   49.1440 C   0  0  0  0  0  0  0  0  0  0  0  0
   61.0250   29.9330   50.4280 C   0  0  0  0  0  0  0  0  0  0  0  0
   62.1120   30.2680   51.2070 C   0  0  0  0  0  0  0  0  0  0  0  0
   63.0230   30.8500   50.3480 C   0  0  0  0  0  0  0  0  0  0  0  0
   64.3680   31.3970   50.7330 C   0  0  0  0  0  0  0  0  0  0  0  0
   65.0260   32.0860   49.6100 N   0  0  0  0  0  0  0  0  0  0  0  0
   64.5940   33.4850   49.4670 C   0  0  0  0  0  0  0  0  0  0  0  0
   63.2900   33.5700   48.7200 C   0  0  0  0  0  0  0  0  0  0  0  0
   63.2350   33.3010   47.3480 C   0  0  0  0  0  0  0  0  0  0  0  0
   62.0190   33.3600   46.6610 C   0  0  0  0  0  0  0  0  0  0  0  0
   60.8160   33.6940   47.3300 C   0  0  0  0  0  0  0  0  0  0  0  0
   59.5440   33.7580   46.6140 N   0  0  0  0  0  0  0  0  0  0  0  0
   58.2910   33.4440   47.3340 C   0  0  0  0  0  0  0  0  0  0  0  0
   57.0470   33.4710   46.4420 C   0  0  0  0  0  0  0  0  0  0  0  0
   57.1220   34.5190   45.5050 O   0  0  0  0  0  0  0  0  0  0  0  0
   58.1340   34.2110   44.5760 C   0  0  0  0  0  0  0  0  0  0  0  0
   59.5170   34.2770   45.2290 C   0  0  0  0  0  0  0  0  0  0  0  0
   60.8910   33.9540   48.7190 C   0  0  0  0  0  0  0  0  0  0  0  0
   62.1100   33.8920   49.4000 C   0  0  0  0  0  0  0  0  0  0  0  0
   62.5410   30.8770   49.1270 O   0  0  0  0  0  0  0  0  0  0  0  0
   58.8120   30.1350   47.9530 S   0  0  0  0  0  0  0  0  0  0  0  0
   60.0998   29.8500   44.6244 H   0  0  0  0  0  0  0  0  0  0  0  0
   62.0236   30.0841   46.3770 H   0  0  0  0  0  0  0  0  0  0  0  0
   60.0950   29.4480   50.7593 H   0  0  0  0  0  0  0  0  0  0  0  0
   62.2292   30.1054   52.2886 H   0  0  0  0  0  0  0  0  0  0  0  0
   64.2376   32.1105   51.5600 H   0  0  0  0  0  0  0  0  0  0  0  0
   65.0050   30.5519   51.0330 H   0  0  0  0  0  0  0  0  0  0  0  0
   64.8030   31.5770   48.7230 H   0  0  0  0  0  0  0  0  0  0  0  0
   64.4662   33.9265   50.4663 H   0  0  0  0  0  0  0  0  0  0  0  0
   65.3606   34.0337   48.9001 H   0  0  0  0  0  0  0  0  0  0  0  0
   64.1560   33.0410   46.8056 H   0  0  0  0  0  0  0  0  0  0  0  0
   61.9960   33.1434   45.5828 H   0  0  0  0  0  0  0  0  0  0  0  0
   58.3837   32.4387   47.7708 H   0  0  0  0  0  0  0  0  0  0  0  0
   58.1555   34.2224   48.0993 H   0  0  0  0  0  0  0  0  0  0  0  0
   56.9677   32.5138   45.9058 H   0  0  0  0  0  0  0  0  0  0  0  0
   56.1632   33.6307   47.0771 H   0  0  0  0  0  0  0  0  0  0  0  0
   57.9681   33.1956   44.1868 H   0  0  0  0  0  0  0  0  0  0  0  0
   58.0964   34.9475   43.7599 H   0  0  0  0  0  0  0  0  0  0  0  0
   60.2168   33.6840   44.6218 H   0  0  0  0  0  0  0  0  0  0  0  0
   59.8004   35.3388   45.2771 H   0  0  0  0  0  0  0  0  0  0  0  0
   59.9749   34.2091   49.2718 H   0  0  0  0  0  0  0  0  0  0  0  0
   62.1421   34.0981   50.4800 H   0  0  0  0  0  0  0  0  0  0  0  0
  1  2  2  0
  2  3  1  0
  2  4  1  0
  4  5  2  0
  5  6  1  0
  6  7  2  0
  7  8  1  0
  8  9  2  0
  9 10  1  0
 10 11  2  0
 11 12  1  0
 12 13  1  0
 13 14  1  0
 14 15  1  0
 15 16  2  0
 16 17  1  0
 17 18  2  0
 18 19  1  0
 19 20  1  0
 20 21  1  0
 21 22  1  0
 22 23  1  0
 23 24  1  0
 18 25  1  0
 25 26  2  0
 11 27  1  0
  7 28  1  0
 28  4  1  0
 27  8  1  0
 26 15  1  0
 24 19  1  0
  5 29  1  0
  6 30  1  0
  9 31  1  0
 10 32  1  0
 12 33  1  0
 12 34  1  0
 13 35  1  0
 14 36  1  0
 14 37  1  0
 16 38  1  0
 17 39  1  0
 20 40  1  0
 20 41  1  0
 21 42  1  0
 21 43  1  0
 23 44  1  0
 23 45  1  0
 24 46  1  0
 24 47  1  0
 25 48  1  0
 26 49  1  0
M  CHG  2   2   1   3  -1
M  END
>  <UniqueID>  (34) 
33

>  <SMILES>  (34) 
O=[N+]([O-])c1ccc(-c2ccc(CNCc3ccc(N4CCOCC4)cc3)o2)s1

>  <Energy>  (34) 
110.59613327764124

>  <Genealogy>  (34) 
O=[N+]([O-])c1ccc(-c2ccc(CNCc3ccc(N4CCOCC4)cc3)o2)s1 (3D coordinates assigned)
O=[N+]([O-])c1ccc(-c2ccc(CNCc3ccc(N4CCOCC4)cc3)o2)s1 (nonaromatic ring conformer: 110.59613327764124 kcal/mol)

>  <smiles>  (34) 
O=[N+]([O-])c1ccc(-c2ccc(CNCc3ccc(N4CCOCC4)cc3)o2)s1

>  <score_type>  (34) 
oracle

>  <origin>  (34) 
adg

>  <m_score__min__energy>  (34) 
-8.7400000000000002

>  <m_primary>  (34) 
energy

$$$$
34:0
     RDKit          3D

 47 49  0  0  0  0  0  0  0  0999 V2000
   58.7400   33.0420   46.7820 C   0  0  0  0  0  0  0  0  0  0  0  0
   59.3280   31.8420   47.3780 N   0  0  0  0  0  0  0  0  0  0  0  0
   59.8760   30.9330   46.3560 C   0  0  0  0  0  0  0  0  0  0  0  0
   58.8240   29.9680   45.8030 C   0  0  0  0  0  0  0  0  0  0  0  0
   58.5080   28.7660   46.4990 C   0  0  0  0  0  0  0  0  0  0  0  0
   59.2400   28.3700   47.7250 C   0  0  0  0  0  0  0  0  0  0  0  0
   60.1230   27.2890   47.7220 C   0  0  0  0  0  0  0  0  0  0  0  0
   60.7970   26.9630   48.8520 N   0  0  0  0  0  0  0  0  0  0  0  0
   60.6470   27.6720   50.0050 C   0  0  0  0  0  0  0  0  0  0  0  0
   61.3870   27.2800   51.1850 N   0  0  0  0  0  0  0  0  0  0  0  0
   61.2290   25.9180   51.7070 C   0  0  0  0  0  0  0  0  0  0  0  0
   62.2870   28.2200   51.8620 C   0  0  0  0  0  0  0  0  0  0  0  0
   59.7980   28.7450   50.0200 N   0  0  0  0  0  0  0  0  0  0  0  0
   59.1050   29.1040   48.9080 C   0  0  0  0  0  0  0  0  0  0  0  0
   57.4940   27.9170   45.9980 C   0  0  0  0  0  0  0  0  0  0  0  0
   57.1120   26.6330   46.7110 C   0  0  0  0  0  0  0  0  0  0  0  0
   55.8650   26.0570   46.2080 N   0  0  0  0  0  0  0  0  0  0  0  0
   56.8220   28.2680   44.8720 N   0  0  0  0  0  0  0  0  0  0  0  0
   57.0980   29.3920   44.1710 C   0  0  0  0  0  0  0  0  0  0  0  0
   56.3660   29.6660   43.0100 C   0  0  0  0  0  0  0  0  0  0  0  0
   56.6380   30.8090   42.2600 C   0  0  0  0  0  0  0  0  0  0  0  0
   57.6450   31.6850   42.6650 C   0  0  0  0  0  0  0  0  0  0  0  0
   57.9100   32.7930   41.9310 F   0  0  0  0  0  0  0  0  0  0  0  0
   58.3800   31.4240   43.8250 C   0  0  0  0  0  0  0  0  0  0  0  0
   58.1150   30.2740   44.6060 C   0  0  0  0  0  0  0  0  0  0  0  0
   58.4068   33.7220   47.5798 H   0  0  0  0  0  0  0  0  0  0  0  0
   59.4921   33.5482   46.1591 H   0  0  0  0  0  0  0  0  0  0  0  0
   57.8791   32.7578   46.1591 H   0  0  0  0  0  0  0  0  0  0  0  0
   60.0820   32.1440   48.0360 H   0  0  0  0  0  0  0  0  0  0  0  0
   60.2734   31.5349   45.5255 H   0  0  0  0  0  0  0  0  0  0  0  0
   60.6633   30.3307   46.8328 H   0  0  0  0  0  0  0  0  0  0  0  0
   60.2718   26.7022   46.8036 H   0  0  0  0  0  0  0  0  0  0  0  0
   61.2320   25.9441   52.8067 H   0  0  0  0  0  0  0  0  0  0  0  0
   60.2761   25.4978   51.3528 H   0  0  0  0  0  0  0  0  0  0  0  0
   62.0604   25.2908   51.3528 H   0  0  0  0  0  0  0  0  0  0  0  0
   62.1810   28.1092   52.9513 H   0  0  0  0  0  0  0  0  0  0  0  0
   63.3262   28.0067   51.5712 H   0  0  0  0  0  0  0  0  0  0  0  0
   62.0287   29.2489   51.5712 H   0  0  0  0  0  0  0  0  0  0  0  0
   59.6600   29.3170   50.8810 H   0  0  0  0  0  0  0  0  0  0  0  0
   58.4348   29.9757   48.9381 H   0  0  0  0  0  0  0  0  0  0  0  0
   57.9198   25.8995   46.5716 H   0  0  0  0  0  0  0  0  0  0  0  0
   56.9611   26.8753   47.7733 H   0  0  0  0  0  0  0  0  0  0  0  0
   55.6980   26.4020   45.2340 H   0  0  0  0  0  0  0  0  0  0  0  0
   55.0720   26.3770   46.8100 H   0  0  0  0  0  0  0  0  0  0  0  0
   55.5722   28.9760   42.6878 H   0  0  0  0  0  0  0  0  0  0  0  0
   56.0587   31.0201   41.3490 H   0  0  0  0  0  0  0  0  0  0  0  0
   59.1734   32.1204   44.1343 H   0  0  0  0  0  0  0  0  0  0  0  0
  1  2  1  0
  2  3  1  0
  3  4  1  0
  4  5  2  0
  5  6  1  0
  6  7  2  0
  7  8  1  0
  8  9  2  0
  9 10  1  0
 10 11  1  0
 10 12  1  0
  9 13  1  0
 13 14  2  0
  5 15  1  0
 15 16  1  0
 16 17  1  0
 15 18  2  0
 18 19  1  0
 19 20  2  0
 20 21  1  0
 21 22  2  0
 22 23  1  0
 22 24  1  0
 24 25  2  0
 25  4  1  0
 14  6  1  0
 25 19  1  0
  1 26  1  0
  1 27  1  0
  1 28  1  0
  2 29  1  0
  3 30  1  0
  3 31  1  0
  7 32  1  0
 11 33  1  0
 11 34  1  0
 11 35  1  0
 12 36  1  0
 12 37  1  0
 12 38  1  0
 13 39  1  0
 14 40  1  0
 16 41  1  0
 16 42  1  0
 17 43  1  0
 17 44  1  0
 20 45  1  0
 21 46  1  0
 24 47  1  0
M  CHG  1  13   1
M  END
>  <UniqueID>  (35) 
34

>  <SMILES>  (35) 
CNCc1c(-c2cnc(N(C)C)[nH+]c2)c(CN)nc2ccc(F)cc12

>  <Energy>  (35) 
63.719510011189286

>  <Genealogy>  (35) 
CNCc1c(-c2cnc(N(C)C)[nH+]c2)c(CN)nc2ccc(F)cc12 (protonated)
CNCc1c(-c2cnc(N(C)C)[nH+]c2)c(CN)nc2ccc(F)cc12 (3D coordinates assigned)
CNCc1c(-c2cnc(N(C)C)[nH+]c2)c(CN)nc2ccc(F)cc12 (optimized conformer: 63.719510011189286 kcal/mol)

>  <smiles>  (35) 
CNCc1c(-c2cnc(N(C)C)nc2)c(CN)nc2ccc(F)cc12

>  <score_type>  (35) 
oracle

>  <origin>  (35) 
adg

>  <m_score__min__energy>  (35) 
-6.21

>  <m_primary>  (35) 
energy

$$$$
35:0
     RDKit          3D

 61 65  0  0  0  0  0  0  0  0999 V2000
   67.7290   28.4330   50.8140 C   0  0  0  0  0  0  0  0  0  0  0  0
   67.3680   29.0930   52.1420 C   0  0  0  0  0  0  0  0  0  0  0  0
   67.4780   30.6310   52.0450 C   0  0  0  0  0  0  0  0  0  0  0  0
   66.1780   31.3250   51.8680 N   0  0  0  0  0  0  0  0  0  0  0  0
   66.1060   32.6020   52.6390 C   0  0  0  0  0  0  0  0  0  0  0  0
   65.4390   33.7630   51.8770 C   0  0  0  0  0  0  0  0  0  0  0  0
   64.2820   33.2890   51.1050 N   0  0  0  0  0  0  0  0  0  0  0  0
   63.1890   34.1900   50.8420 C   0  0  0  0  0  0  0  0  0  0  0  0
   63.3950   35.4340   50.8300 O   0  0  0  0  0  0  0  0  0  0  0  0
   61.8260   33.6850   50.5690 C   0  0  0  0  0  0  0  0  0  0  0  0
   61.2470   33.8740   49.2890 C   0  0  0  0  0  0  0  0  0  0  0  0
   59.9470   33.4010   48.9980 C   0  0  0  0  0  0  0  0  0  0  0  0
   59.3730   33.5740   47.6470 C   0  0  0  0  0  0  0  0  0  0  0  0
   59.5710   34.7740   46.9460 C   0  0  0  0  0  0  0  0  0  0  0  0
   59.0390   34.9320   45.6660 C   0  0  0  0  0  0  0  0  0  0  0  0
   58.3190   33.8850   45.0910 C   0  0  0  0  0  0  0  0  0  0  0  0
   58.1470   32.7220   45.7720 N   0  0  0  0  0  0  0  0  0  0  0  0
   58.6540   32.5410   47.0210 C   0  0  0  0  0  0  0  0  0  0  0  0
   58.4840   31.3440   47.6370 F   0  0  0  0  0  0  0  0  0  0  0  0
   59.2390   32.7740   50.0340 C   0  0  0  0  0  0  0  0  0  0  0  0
   57.9690   32.3050   50.0040 N   0  0  0  0  0  0  0  0  0  0  0  0
   57.7430   31.8300   51.2480 C   0  0  0  0  0  0  0  0  0  0  0  0
   56.5680   31.2540   51.7270 C   0  0  0  0  0  0  0  0  0  0  0  0
   56.5370   30.8320   53.0710 C   0  0  0  0  0  0  0  0  0  0  0  0
   55.0400   30.1030   53.7430 S   0  0  0  0  0  0  0  0  0  0  0  0
   53.9940   30.5310   52.3120 C   0  0  0  0  0  0  0  0  0  0  0  0
   52.6730   30.2370   52.5870 F   0  0  0  0  0  0  0  0  0  0  0  0
   54.1200   31.8730   52.0140 F   0  0  0  0  0  0  0  0  0  0  0  0
   54.4010   29.7940   51.2190 F   0  0  0  0  0  0  0  0  0  0  0  0
   57.6690   31.0070   53.9000 C   0  0  0  0  0  0  0  0  0  0  0  0
   58.8420   31.5970   53.3940 C   0  0  0  0  0  0  0  0  0  0  0  0
   58.8430   31.9940   52.0600 C   0  0  0  0  0  0  0  0  0  0  0  0
   59.8030   32.6050   51.2830 C   0  0  0  0  0  0  0  0  0  0  0  0
   61.0880   33.0460   51.5860 C   0  0  0  0  0  0  0  0  0  0  0  0
   64.3970   32.0540   50.3190 C   0  0  0  0  0  0  0  0  0  0  0  0
   65.8030   31.4600   50.4430 C   0  0  0  0  0  0  0  0  0  0  0  0
   68.2487   27.4828   51.0061 H   0  0  0  0  0  0  0  0  0  0  0  0
   66.8112   28.2393   50.2394 H   0  0  0  0  0  0  0  0  0  0  0  0
   68.3872   29.1013   50.2394 H   0  0  0  0  0  0  0  0  0  0  0  0
   66.3358   28.8225   52.4091 H   0  0  0  0  0  0  0  0  0  0  0  0
   68.0707   28.7396   52.9109 H   0  0  0  0  0  0  0  0  0  0  0  0
   67.9440   31.0023   52.9697 H   0  0  0  0  0  0  0  0  0  0  0  0
   68.0767   30.8487   51.1482 H   0  0  0  0  0  0  0  0  0  0  0  0
   65.4660   30.6800   52.2930 H   0  0  0  0  0  0  0  0  0  0  0  0
   65.5314   32.4178   53.5587 H   0  0  0  0  0  0  0  0  0  0  0  0
   67.1431   32.9095   52.8388 H   0  0  0  0  0  0  0  0  0  0  0  0
   65.1034   34.5218   52.5992 H   0  0  0  0  0  0  0  0  0  0  0  0
   66.1734   34.1932   51.1802 H   0  0  0  0  0  0  0  0  0  0  0  0
   61.8190   34.3976   48.5089 H   0  0  0  0  0  0  0  0  0  0  0  0
   60.1463   35.5907   47.4065 H   0  0  0  0  0  0  0  0  0  0  0  0
   59.1860   35.8731   45.1157 H   0  0  0  0  0  0  0  0  0  0  0  0
   57.8898   34.0010   44.0848 H   0  0  0  0  0  0  0  0  0  0  0  0
   57.2930   32.3210   49.2100 H   0  0  0  0  0  0  0  0  0  0  0  0
   55.6904   31.1323   51.0750 H   0  0  0  0  0  0  0  0  0  0  0  0
   57.6324   30.6791   54.9494 H   0  0  0  0  0  0  0  0  0  0  0  0
   59.7276   31.7395   54.0307 H   0  0  0  0  0  0  0  0  0  0  0  0
   61.5149   32.9002   52.5892 H   0  0  0  0  0  0  0  0  0  0  0  0
   63.6626   31.3225   50.6871 H   0  0  0  0  0  0  0  0  0  0  0  0
   64.2056   32.2896   49.2617 H   0  0  0  0  0  0  0  0  0  0  0  0
   65.8216   30.4685   49.9671 H   0  0  0  0  0  0  0  0  0  0  0  0
   66.5201   32.1295   49.9455 H   0  0  0  0  0  0  0  0  0  0  0  0
  1  2  1  0
  2  3  1  0
  3  4  1  0
  4  5  1  0
  5  6  1  0
  6  7  1  0
  7  8  1  0
  8  9  2  0
  8 10  1  0
 10 11  2  0
 11 12  1  0
 12 13  1  0
 13 14  2  0
 14 15  1  0
 15 16  2  0
 16 17  1  0
 17 18  2  0
 18 19  1  0
 12 20  2  0
 20 21  1  0
 21 22  1  0
 22 23  2  0
 23 24  1  0
 24 25  1  0
 25 26  1  0
 26 27  1  0
 26 28  1  0
 26 29  1  0
 24 30  2  0
 30 31  1  0
 31 32  2  0
 32 33  1  0
 33 34  2  0
  7 35  1  0
 35 36  1  0
 36  4  1  0
 34 10  1  0
 18 13  1  0
 33 20  1  0
 32 22  1  0
  1 37  1  0
  1 38  1  0
  1 39  1  0
  2 40  1  0
  2 41  1  0
  3 42  1  0
  3 43  1  0
  4 44  1  0
  5 45  1  0
  5 46  1  0
  6 47  1  0
  6 48  1  0
 11 49  1  0
 14 50  1  0
 15 51  1  0
 16 52  1  0
 21 53  1  0
 23 54  1  0
 30 55  1  0
 31 56  1  0
 34 57  1  0
 35 58  1  0
 35 59  1  0
 36 60  1  0
 36 61  1  0
M  CHG  1   4   1
M  END
>  <UniqueID>  (36) 
35

>  <SMILES>  (36) 
CCC[NH+]1CCN(C(=O)c2cc(-c3cccnc3F)c3[nH]c4cc(SC(F)(F)F)ccc4c3c2)CC1

>  <Energy>  (36) 
120.67205663648019

>  <Genealogy>  (36) 
CCC[NH+]1CCN(C(=O)c2cc(-c3cccnc3F)c3[nH]c4cc(SC(F)(F)F)ccc4c3c2)CC1 (protonated)
CCC[NH+]1CCN(C(=O)c2cc(-c3cccnc3F)c3[nH]c4cc(SC(F)(F)F)ccc4c3c2)CC1 (3D coordinates assigned)
CCC[NH+]1CCN(C(=O)c2cc(-c3cccnc3F)c3[nH]c4cc(SC(F)(F)F)ccc4c3c2)CC1 (nonaromatic ring conformer: 120.67205663648019 kcal/mol)

>  <smiles>  (36) 
CCCN1CCN(C(=O)c2cc(-c3cccnc3F)c3[nH]c4cc(SC(F)(F)F)ccc4c3c2)CC1

>  <score_type>  (36) 
oracle

>  <origin>  (36) 
adg

>  <m_score__min__energy>  (36) 
-7.0300000000000002

>  <m_primary>  (36) 
energy

$$$$
36:0
     RDKit          3D

 34 35  0  0  0  0  0  0  0  0999 V2000
   56.1720   29.9770   44.0070 C   0  0  0  0  0  0  0  0  0  0  0  0
   56.9460   29.8040   45.2490 N   0  0  0  0  0  0  0  0  0  0  0  0
   57.0300   28.3740   45.5830 C   0  0  0  0  0  0  0  0  0  0  0  0
   58.3020   30.3720   45.1070 C   0  0  0  0  0  0  0  0  0  0  0  0
   58.3040   31.8420   45.4550 C   0  0  0  0  0  0  0  0  0  0  0  0
   57.7330   32.7600   44.5530 C   0  0  0  0  0  0  0  0  0  0  0  0
   57.6670   34.1190   44.8700 C   0  0  0  0  0  0  0  0  0  0  0  0
   58.1560   34.5770   46.0920 C   0  0  0  0  0  0  0  0  0  0  0  0
   58.7220   33.6790   46.9990 C   0  0  0  0  0  0  0  0  0  0  0  0
   58.8180   32.3150   46.6850 C   0  0  0  0  0  0  0  0  0  0  0  0
   59.5570   31.2070   47.9020 S   0  0  0  0  0  0  0  0  0  0  0  0
   61.1210   32.0880   47.9450 C   0  0  0  0  0  0  0  0  0  0  0  0
   62.1830   31.6870   47.1250 C   0  0  0  0  0  0  0  0  0  0  0  0
   63.4010   32.3720   47.1660 C   0  0  0  0  0  0  0  0  0  0  0  0
   63.5650   33.4560   48.0360 C   0  0  0  0  0  0  0  0  0  0  0  0
   62.5150   33.8460   48.8700 C   0  0  0  0  0  0  0  0  0  0  0  0
   61.2970   33.1620   48.8310 C   0  0  0  0  0  0  0  0  0  0  0  0
   55.1264   30.2107   44.2561 H   0  0  0  0  0  0  0  0  0  0  0  0
   56.6018   30.8012   43.4189 H   0  0  0  0  0  0  0  0  0  0  0  0
   56.2100   29.0482   43.4189 H   0  0  0  0  0  0  0  0  0  0  0  0
   57.0371   28.2526   46.6763 H   0  0  0  0  0  0  0  0  0  0  0  0
   56.1612   27.8473   45.1613 H   0  0  0  0  0  0  0  0  0  0  0  0
   57.9544   27.9526   45.1613 H   0  0  0  0  0  0  0  0  0  0  0  0
   58.9888   29.8402   45.7819 H   0  0  0  0  0  0  0  0  0  0  0  0
   58.6269   30.2553   44.0626 H   0  0  0  0  0  0  0  0  0  0  0  0
   57.3357   32.4043   43.5909 H   0  0  0  0  0  0  0  0  0  0  0  0
   57.2281   34.8290   44.1536 H   0  0  0  0  0  0  0  0  0  0  0  0
   58.0960   35.6465   46.3421 H   0  0  0  0  0  0  0  0  0  0  0  0
   59.0955   34.0438   47.9672 H   0  0  0  0  0  0  0  0  0  0  0  0
   62.0584   30.8303   46.4464 H   0  0  0  0  0  0  0  0  0  0  0  0
   64.2303   32.0591   46.5146 H   0  0  0  0  0  0  0  0  0  0  0  0
   64.5204   34.0005   48.0628 H   0  0  0  0  0  0  0  0  0  0  0  0
   62.6469   34.6933   49.5590 H   0  0  0  0  0  0  0  0  0  0  0  0
   60.4750   33.4659   49.4958 H   0  0  0  0  0  0  0  0  0  0  0  0
  1  2  1  0
  2  3  1  0
  2  4  1  0
  4  5  1  0
  5  6  2  0
  6  7  1  0
  7  8  2  0
  8  9  1  0
  9 10  2  0
 10 11  1  0
 11 12  1  0
 12 13  2  0
 13 14  1  0
 14 15  2  0
 15 16  1  0
 16 17  2  0
 10  5  1  0
 17 12  1  0
  1 18  1  0
  1 19  1  0
  1 20  1  0
  3 21  1  0
  3 22  1  0
  3 23  1  0
  4 24  1  0
  4 25  1  0
  6 26  1  0
  7 27  1  0
  8 28  1  0
  9 29  1  0
 13 30  1  0
 14 31  1  0
 15 32  1  0
 16 33  1  0
 17 34  1  0
M  END
>  <UniqueID>  (37) 
36

>  <SMILES>  (37) 
CN(C)Cc1ccccc1Sc1ccccc1

>  <Energy>  (37) 
30.624514826714435

>  <Genealogy>  (37) 
CN(C)Cc1ccccc1Sc1ccccc1 (3D coordinates assigned)
CN(C)Cc1ccccc1Sc1ccccc1 (optimized conformer: 30.624514826714435 kcal/mol)

>  <smiles>  (37) 
CN(C)Cc1ccccc1Sc1ccccc1

>  <score_type>  (37) 
oracle

>  <origin>  (37) 
adg

>  <m_score__min__energy>  (37) 
-6.5899999999999999

>  <m_primary>  (37) 
energy

$$$$
37:0
     RDKit          3D

 25 26  0  0  0  0  0  0  0  0999 V2000
   55.9230   29.3520   44.5310 C   0  0  0  0  0  0  0  0  0  0  0  0
   56.7030   30.5500   44.0920 C   0  0  0  0  0  0  0  0  0  0  0  0
   56.8510   30.8410   42.7350 C   0  0  0  0  0  0  0  0  0  0  0  0
   57.5810   31.9750   42.3680 C   0  0  0  0  0  0  0  0  0  0  0  0
   57.7220   32.3390   40.9190 C   0  0  0  0  0  0  0  0  0  0  0  0
   58.1040   32.7840   43.3320 N   0  0  0  0  0  0  0  0  0  0  0  0
   57.9530   32.4880   44.6580 C   0  0  0  0  0  0  0  0  0  0  0  0
   58.5110   33.3340   45.6830 N   0  0  0  0  0  0  0  0  0  0  0  0
   59.2170   34.4640   45.4660 C   0  0  0  0  0  0  0  0  0  0  0  0
   59.5830   35.0290   46.6690 C   0  0  0  0  0  0  0  0  0  0  0  0
   59.0760   34.2130   47.6590 C   0  0  0  0  0  0  0  0  0  0  0  0
   58.4200   33.1800   47.0230 C   0  0  0  0  0  0  0  0  0  0  0  0
   57.2510   31.3780   45.0190 N   0  0  0  0  0  0  0  0  0  0  0  0
   55.8979   29.3134   45.6300 H   0  0  0  0  0  0  0  0  0  0  0  0
   54.8960   29.4207   44.1429 H   0  0  0  0  0  0  0  0  0  0  0  0
   56.4014   28.4406   44.1429 H   0  0  0  0  0  0  0  0  0  0  0  0
   56.4021   30.1909   41.9696 H   0  0  0  0  0  0  0  0  0  0  0  0
   58.1182   33.3617   40.8347 H   0  0  0  0  0  0  0  0  0  0  0  0
   58.4131   31.6366   40.4301 H   0  0  0  0  0  0  0  0  0  0  0  0
   56.7381   32.2855   40.4301 H   0  0  0  0  0  0  0  0  0  0  0  0
   58.6120   33.6460   43.0390 H   0  0  0  0  0  0  0  0  0  0  0  0
   59.4638   34.8735   44.4754 H   0  0  0  0  0  0  0  0  0  0  0  0
   60.1658   35.9509   46.8117 H   0  0  0  0  0  0  0  0  0  0  0  0
   59.1756   34.3581   48.7448 H   0  0  0  0  0  0  0  0  0  0  0  0
   57.9002   32.3539   47.5304 H   0  0  0  0  0  0  0  0  0  0  0  0
  1  2  1  0
  2  3  2  0
  3  4  1  0
  4  5  1  0
  4  6  2  0
  6  7  1  0
  7  8  1  0
  8  9  1  0
  9 10  2  0
 10 11  1  0
 11 12  2  0
  7 13  2  0
 13  2  1  0
 12  8  1  0
  1 14  1  0
  1 15  1  0
  1 16  1  0
  3 17  1  0
  5 18  1  0
  5 19  1  0
  5 20  1  0
  6 21  1  0
  9 22  1  0
 10 23  1  0
 11 24  1  0
 12 25  1  0
M  CHG  1   6   1
M  END
>  <UniqueID>  (38) 
37

>  <SMILES>  (38) 
Cc1cc(C)[nH+]c(-n2cccc2)n1

>  <Energy>  (38) 
50.538823170173956

>  <Genealogy>  (38) 
Cc1cc(C)[nH+]c(-n2cccc2)n1 (protonated)
Cc1cc(C)[nH+]c(-n2cccc2)n1 (3D coordinates assigned)
Cc1cc(C)[nH+]c(-n2cccc2)n1 (optimized conformer: 50.538823170173956 kcal/mol)

>  <smiles>  (38) 
Cc1cc(C)nc(-n2cccc2)n1

>  <score_type>  (38) 
oracle

>  <origin>  (38) 
adg

>  <m_score__min__energy>  (38) 
-4.3700000000000001

>  <m_primary>  (38) 
energy

$$$$
38:0
     RDKit          3D

 21 22  0  0  0  0  0  0  0  0999 V2000
   57.0300   28.9800   44.0220 C   0  0  0  0  0  0  0  0  0  0  0  0
   56.6610   30.0580   44.8770 O   0  0  0  0  0  0  0  0  0  0  0  0
   57.3210   31.2950   44.9220 C   0  0  0  0  0  0  0  0  0  0  0  0
   57.5390   31.9730   43.7160 C   0  0  0  0  0  0  0  0  0  0  0  0
   58.1900   33.2100   43.7000 C   0  0  0  0  0  0  0  0  0  0  0  0
   58.6350   33.7830   44.8950 C   0  0  0  0  0  0  0  0  0  0  0  0
   59.2700   34.9860   44.8830 N   0  0  0  0  0  0  0  0  0  0  0  0
   59.7130   35.5720   46.0270 C   0  0  0  0  0  0  0  0  0  0  0  0
   59.5230   34.9400   47.2580 C   0  0  0  0  0  0  0  0  0  0  0  0
   58.8750   33.7040   47.3050 C   0  0  0  0  0  0  0  0  0  0  0  0
   58.4220   33.1100   46.1190 C   0  0  0  0  0  0  0  0  0  0  0  0
   57.7670   31.8700   46.1300 C   0  0  0  0  0  0  0  0  0  0  0  0
   57.3266   28.1136   44.6314 H   0  0  0  0  0  0  0  0  0  0  0  0
   56.1744   28.7061   43.3872 H   0  0  0  0  0  0  0  0  0  0  0  0
   57.8739   29.2878   43.3872 H   0  0  0  0  0  0  0  0  0  0  0  0
   57.1943   31.5273   42.7713 H   0  0  0  0  0  0  0  0  0  0  0  0
   58.3523   33.7331   42.7460 H   0  0  0  0  0  0  0  0  0  0  0  0
   60.2222   36.5460   45.9830 H   0  0  0  0  0  0  0  0  0  0  0  0
   59.8814   35.4128   48.1843 H   0  0  0  0  0  0  0  0  0  0  0  0
   58.7206   33.1982   48.2695 H   0  0  0  0  0  0  0  0  0  0  0  0
   57.6009   31.3451   47.0823 H   0  0  0  0  0  0  0  0  0  0  0  0
  1  2  1  0
  2  3  1  0
  3  4  2  0
  4  5  1  0
  5  6  2  0
  6  7  1  0
  7  8  2  0
  8  9  1  0
  9 10  2  0
 10 11  1  0
 11 12  2  0
 12  3  1  0
 11  6  1  0
  1 13  1  0
  1 14  1  0
  1 15  1  0
  4 16  1  0
  5 17  1  0
  8 18  1  0
  9 19  1  0
 10 20  1  0
 12 21  1  0
M  END
>  <UniqueID>  (39) 
38

>  <SMILES>  (39) 
COc1ccc2ncccc2c1

>  <Energy>  (39) 
24.237249065295796

>  <Genealogy>  (39) 
COc1ccc2ncccc2c1 (3D coordinates assigned)
COc1ccc2ncccc2c1 (optimized conformer: 24.237249065295796 kcal/mol)

>  <smiles>  (39) 
COc1ccc2ncccc2c1

>  <score_type>  (39) 
oracle

>  <origin>  (39) 
adg

>  <m_score__min__energy>  (39) 
-5.1299999999999999

>  <m_primary>  (39) 
energy

$$$$
39:0
     RDKit          3D

 45 46  0  0  0  0  0  0  0  0999 V2000
   56.6560   26.2870   45.6760 C   0  0  0  0  0  0  0  0  0  0  0  0
   55.9010   27.4920   45.6130 O   0  0  0  0  0  0  0  0  0  0  0  0
   56.4450   28.7230   45.2260 C   0  0  0  0  0  0  0  0  0  0  0  0
   55.7830   29.4350   44.2180 C   0  0  0  0  0  0  0  0  0  0  0  0
   56.2770   30.6600   43.7680 C   0  0  0  0  0  0  0  0  0  0  0  0
   57.4370   31.1950   44.3320 C   0  0  0  0  0  0  0  0  0  0  0  0
   58.1160   32.8690   43.7090 Br  0  0  0  0  0  0  0  0  0  0  0  0
   58.0970   30.5090   45.3540 C   0  0  0  0  0  0  0  0  0  0  0  0
   57.6090   29.2760   45.8230 C   0  0  0  0  0  0  0  0  0  0  0  0
   58.3140   28.6040   46.9810 C   0  0  0  0  0  0  0  0  0  0  0  0
   59.7750   28.8210   46.9140 N   0  0  0  0  0  0  0  0  0  0  0  0
   60.3560   28.0470   45.7980 C   0  0  0  0  0  0  0  0  0  0  0  0
   60.4150   28.4490   48.1960 C   0  0  0  0  0  0  0  0  0  0  0  0
   60.7560   29.6940   49.0170 C   0  0  0  0  0  0  0  0  0  0  0  0
   60.3790   30.8610   48.2920 O   0  0  0  0  0  0  0  0  0  0  0  0
   61.2810   31.8110   47.7860 C   0  0  0  0  0  0  0  0  0  0  0  0
   62.6590   31.7670   48.0880 C   0  0  0  0  0  0  0  0  0  0  0  0
   63.5250   32.7260   47.5620 C   0  0  0  0  0  0  0  0  0  0  0  0
   63.0320   33.7390   46.7400 C   0  0  0  0  0  0  0  0  0  0  0  0
   61.6710   33.7980   46.4380 C   0  0  0  0  0  0  0  0  0  0  0  0
   60.7850   32.8280   46.9540 C   0  0  0  0  0  0  0  0  0  0  0  0
   59.4100   32.8360   46.6650 O   0  0  0  0  0  0  0  0  0  0  0  0
   58.4080   33.4950   47.4370 C   0  0  0  0  0  0  0  0  0  0  0  0
   58.1240   32.7290   48.5520 F   0  0  0  0  0  0  0  0  0  0  0  0
   57.2520   33.6410   46.6920 F   0  0  0  0  0  0  0  0  0  0  0  0
   58.8640   34.7320   47.8520 F   0  0  0  0  0  0  0  0  0  0  0  0
   56.8261   26.0155   46.7283 H   0  0  0  0  0  0  0  0  0  0  0  0
   56.1016   25.4803   45.1742 H   0  0  0  0  0  0  0  0  0  0  0  0
   57.6238   26.4340   45.1742 H   0  0  0  0  0  0  0  0  0  0  0  0
   54.8633   29.0240   43.7761 H   0  0  0  0  0  0  0  0  0  0  0  0
   55.7525   31.2043   42.9688 H   0  0  0  0  0  0  0  0  0  0  0  0
   59.0082   30.9376   45.7969 H   0  0  0  0  0  0  0  0  0  0  0  0
   57.9320   29.0207   47.9246 H   0  0  0  0  0  0  0  0  0  0  0  0
   58.1190   27.5227   46.9283 H   0  0  0  0  0  0  0  0  0  0  0  0
   60.9706   27.2283   46.2005 H   0  0  0  0  0  0  0  0  0  0  0  0
   59.5467   27.6290   45.1813 H   0  0  0  0  0  0  0  0  0  0  0  0
   60.9833   28.7074   45.1813 H   0  0  0  0  0  0  0  0  0  0  0  0
   59.7251   27.8152   48.7725 H   0  0  0  0  0  0  0  0  0  0  0  0
   61.3461   27.9049   47.9793 H   0  0  0  0  0  0  0  0  0  0  0  0
   60.2107   29.6638   49.9718 H   0  0  0  0  0  0  0  0  0  0  0  0
   61.8382   29.7183   49.2124 H   0  0  0  0  0  0  0  0  0  0  0  0
   63.0517   30.9734   48.7407 H   0  0  0  0  0  0  0  0  0  0  0  0
   64.5989   32.6830   47.7961 H   0  0  0  0  0  0  0  0  0  0  0  0
   63.7182   34.4938   46.3284 H   0  0  0  0  0  0  0  0  0  0  0  0
   61.2870   34.6038   45.7951 H   0  0  0  0  0  0  0  0  0  0  0  0
  1  2  1  0
  2  3  1  0
  3  4  2  0
  4  5  1  0
  5  6  2  0
  6  7  1  0
  6  8  1  0
  8  9  2  0
  9 10  1  0
 10 11  1  0
 11 12  1  0
 11 13  1  0
 13 14  1  0
 14 15  1  0
 15 16  1  0
 16 17  2  0
 17 18  1  0
 18 19  2  0
 19 20  1  0
 20 21  2  0
 21 22  1  0
 22 23  1  0
 23 24  1  0
 23 25  1  0
 23 26  1  0
  9  3  1  0
 21 16  1  0
  1 27  1  0
  1 28  1  0
  1 29  1  0
  4 30  1  0
  5 31  1  0
  8 32  1  0
 10 33  1  0
 10 34  1  0
 12 35  1  0
 12 36  1  0
 12 37  1  0
 13 38  1  0
 13 39  1  0
 14 40  1  0
 14 41  1  0
 17 42  1  0
 18 43  1  0
 19 44  1  0
 20 45  1  0
M  END
>  <UniqueID>  (40) 
39

>  <SMILES>  (40) 
COc1ccc(Br)cc1CN(C)CCOc1ccccc1OC(F)(F)F

>  <Energy>  (40) 
52.060608025289014

>  <Genealogy>  (40) 
COc1ccc(Br)cc1CN(C)CCOc1ccccc1OC(F)(F)F (3D coordinates assigned)
COc1ccc(Br)cc1CN(C)CCOc1ccccc1OC(F)(F)F (optimized conformer: 52.060608025289014 kcal/mol)

>  <smiles>  (40) 
COc1ccc(Br)cc1CN(C)CCOc1ccccc1OC(F)(F)F

>  <score_type>  (40) 
oracle

>  <origin>  (40) 
adg

>  <m_score__min__energy>  (40) 
-6.2000000000000002

>  <m_primary>  (40) 
energy

$$$$
40:0
     RDKit          3D

 55 58  0  0  0  0  0  0  0  0999 V2000
   55.4594   31.9811   44.5065 H   0  0  0  0  0  0  0  0  0  0  0  0
   56.1970   31.1900   44.3060 C   0  0  0  0  0  0  0  0  0  0  0  0
   55.9110   29.5320   44.3690 S   0  0  0  0  0  0  0  0  0  0  0  0
   57.4950   29.1370   43.9420 C   0  0  0  0  0  0  0  0  0  0  0  0
   57.9660   27.9340   43.7940 N   0  0  0  0  0  0  0  0  0  0  0  0
   58.7460   27.2610   44.7900 C   0  0  0  0  0  0  0  0  0  0  0  0
   59.8000   27.9440   45.4070 C   0  0  0  0  0  0  0  0  0  0  0  0
   59.9979   28.9944   45.1471 H   0  0  0  0  0  0  0  0  0  0  0  0
   60.6020   27.2990   46.3510 C   0  0  0  0  0  0  0  0  0  0  0  0
   61.4308   27.8412   46.8295 H   0  0  0  0  0  0  0  0  0  0  0  0
   60.3540   25.9690   46.6880 C   0  0  0  0  0  0  0  0  0  0  0  0
   60.9928   25.4615   47.4258 H   0  0  0  0  0  0  0  0  0  0  0  0
   59.2950   25.2790   46.0900 C   0  0  0  0  0  0  0  0  0  0  0  0
   59.1073   24.2279   46.3545 H   0  0  0  0  0  0  0  0  0  0  0  0
   58.4690   25.9230   45.1520 C   0  0  0  0  0  0  0  0  0  0  0  0
   57.3400   25.1610   44.5120 C   0  0  0  0  0  0  0  0  0  0  0  0
   56.6994   24.7286   45.2947 H   0  0  0  0  0  0  0  0  0  0  0  0
   56.7453   25.8432   43.8868 H   0  0  0  0  0  0  0  0  0  0  0  0
   57.7502   24.3543   43.8868 H   0  0  0  0  0  0  0  0  0  0  0  0
   58.2430   30.2420   43.7470 N   0  0  0  0  0  0  0  0  0  0  0  0
   59.2480   30.2230   43.4630 H   0  0  0  0  0  0  0  0  0  0  0  0
   57.5330   31.3850   43.9550 C   0  0  0  0  0  0  0  0  0  0  0  0
   58.1390   32.7440   43.7660 C   0  0  0  0  0  0  0  0  0  0  0  0
   59.2329   32.6496   43.6984 H   0  0  0  0  0  0  0  0  0  0  0  0
   57.7469   33.1903   42.8402 H   0  0  0  0  0  0  0  0  0  0  0  0
   57.7860   33.6260   44.9290 C   0  0  0  0  0  0  0  0  0  0  0  0
   56.9620   34.5640   44.7640 O   0  0  0  0  0  0  0  0  0  0  0  0
   58.4070   33.4450   46.2120 N   0  0  0  0  0  0  0  0  0  0  0  0
   58.4930   32.1190   46.8350 C   0  0  0  0  0  0  0  0  0  0  0  0
   57.8581   32.0937   47.7329 H   0  0  0  0  0  0  0  0  0  0  0  0
   58.1493   31.3554   46.1217 H   0  0  0  0  0  0  0  0  0  0  0  0
   59.9440   31.8340   47.2280 C   0  0  0  0  0  0  0  0  0  0  0  0
   59.9666   30.9842   47.9261 H   0  0  0  0  0  0  0  0  0  0  0  0
   60.5131   31.6012   46.3159 H   0  0  0  0  0  0  0  0  0  0  0  0
   60.5580   33.0030   47.8750 N   0  0  0  0  0  0  0  0  0  0  0  0
   61.8630   32.8720   48.4560 C   0  0  0  0  0  0  0  0  0  0  0  0
   61.9890   32.3360   49.7470 C   0  0  0  0  0  0  0  0  0  0  0  0
   61.0887   32.0406   50.3058 H   0  0  0  0  0  0  0  0  0  0  0  0
   63.2480   32.1750   50.3270 C   0  0  0  0  0  0  0  0  0  0  0  0
   63.3378   31.7546   51.3395 H   0  0  0  0  0  0  0  0  0  0  0  0
   64.3940   32.5480   49.6210 C   0  0  0  0  0  0  0  0  0  0  0  0
   65.3867   32.4137   50.0755 H   0  0  0  0  0  0  0  0  0  0  0  0
   64.2820   33.0920   48.3370 C   0  0  0  0  0  0  0  0  0  0  0  0
   65.1887   33.3775   47.7835 H   0  0  0  0  0  0  0  0  0  0  0  0
   63.0190   33.2760   47.7500 C   0  0  0  0  0  0  0  0  0  0  0  0
   62.9290   33.8620   46.3660 C   0  0  0  0  0  0  0  0  0  0  0  0
   62.7624   34.9470   46.4373 H   0  0  0  0  0  0  0  0  0  0  0  0
   63.8672   33.6699   45.8248 H   0  0  0  0  0  0  0  0  0  0  0  0
   62.0917   33.3972   45.8248 H   0  0  0  0  0  0  0  0  0  0  0  0
   59.7660   34.2090   48.1490 C   0  0  0  0  0  0  0  0  0  0  0  0
   59.0632   34.0047   48.9702 H   0  0  0  0  0  0  0  0  0  0  0  0
   60.4422   35.0289   48.4327 H   0  0  0  0  0  0  0  0  0  0  0  0
   58.9790   34.6150   46.8950 C   0  0  0  0  0  0  0  0  0  0  0  0
   58.1626   35.2909   47.1893 H   0  0  0  0  0  0  0  0  0  0  0  0
   59.6714   35.1139   46.2010 H   0  0  0  0  0  0  0  0  0  0  0  0
  1  2  1  0
  2  3  1  0
  3  4  1  0
  4  5  2  0
  5  6  1  0
  6  7  2  0
  7  8  1  0
  7  9  1  0
  9 10  1  0
  9 11  2  0
 11 12  1  0
 11 13  1  0
 13 14  1  0
 13 15  2  0
 15 16  1  0
 16 17  1  0
 16 18  1  0
 16 19  1  0
  4 20  1  0
 20 21  1  0
 20 22  1  0
 22 23  1  0
 23 24  1  0
 23 25  1  0
 23 26  1  0
 26 27  2  0
 26 28  1  0
 28 29  1  0
 29 30  1  0
 29 31  1  0
 29 32  1  0
 32 33  1  0
 32 34  1  0
 32 35  1  0
 35 36  1  0
 36 37  2  0
 37 38  1  0
 37 39  1  0
 39 40  1  0
 39 41  2  0
 41 42  1  0
 41 43  1  0
 43 44  1  0
 43 45  2  0
 45 46  1  0
 46 47  1  0
 46 48  1  0
 46 49  1  0
 35 50  1  0
 50 51  1  0
 50 52  1  0
 50 53  1  0
 53 54  1  0
 53 55  1  0
 22  2  2  0
 53 28  1  0
 15  6  1  0
 45 36  1  0
M  END
>  <UniqueID>  (41) 
40

>  <SMILES>  (41) 
Cc1ccccc1/N=c1/[nH]c(CC(=O)N2CCN(c3ccccc3C)CC2)cs1

>  <Energy>  (41) 
101.89491112125273

>  <Genealogy>  (41) 
Cc1ccccc1/N=c1/[nH]c(CC(=O)N2CCN(c3ccccc3C)CC2)cs1 (cis-trans isomerization)
Cc1ccccc1/N=c1/[nH]c(CC(=O)N2CCN(c3ccccc3C)CC2)cs1 (3D coordinates assigned)
Cc1ccccc1/N=c1/[nH]c(CC(=O)N2CCN(c3ccccc3C)CC2)cs1 (nonaromatic ring conformer: 101.89491112125273 kcal/mol)

>  <smiles>  (41) 
Cc1ccccc1N=c1[nH]c(CC(=O)N2CCN(c3ccccc3C)CC2)cs1

>  <score_type>  (41) 
oracle

>  <origin>  (41) 
adg

>  <m_score__min__energy>  (41) 
-9.2400000000000002

>  <m_primary>  (41) 
energy

$$$$
41:0
     RDKit          3D

 33 34  0  0  0  0  0  0  0  0999 V2000
   58.7310   31.1649   48.2794 H   0  0  0  0  0  0  0  0  0  0  0  0
   59.3840   30.4570   47.7480 C   0  0  0  0  0  0  0  0  0  0  0  0
   58.7850   29.5550   46.7470 C   0  0  0  0  0  0  0  0  0  0  0  0
   58.2080   28.5060   47.1430 O   0  0  0  0  0  0  0  0  0  0  0  0
   58.8500   29.8450   45.3430 N   0  0  0  0  0  0  0  0  0  0  0  0
   59.5950   30.4780   44.9780 H   0  0  0  0  0  0  0  0  0  0  0  0
   57.8560   29.3330   44.4010 C   0  0  0  0  0  0  0  0  0  0  0  0
   57.8552   28.2336   44.4381 H   0  0  0  0  0  0  0  0  0  0  0  0
   58.1144   29.6790   43.3893 H   0  0  0  0  0  0  0  0  0  0  0  0
   56.4890   29.8390   44.7510 C   0  0  0  0  0  0  0  0  0  0  0  0
   55.5480   29.0140   44.9040 O   0  0  0  0  0  0  0  0  0  0  0  0
   56.2450   31.2510   44.8020 N   0  0  0  0  0  0  0  0  0  0  0  0
   57.1890   32.2950   45.0820 C   0  0  0  0  0  0  0  0  0  0  0  0
   57.4050   32.7750   46.3890 C   0  0  0  0  0  0  0  0  0  0  0  0
   56.8270   32.3597   47.2277 H   0  0  0  0  0  0  0  0  0  0  0  0
   58.3510   33.7770   46.6240 C   0  0  0  0  0  0  0  0  0  0  0  0
   58.5066   34.1554   47.6451 H   0  0  0  0  0  0  0  0  0  0  0  0
   59.0990   34.2990   45.5670 C   0  0  0  0  0  0  0  0  0  0  0  0
   59.8346   35.0952   45.7541 H   0  0  0  0  0  0  0  0  0  0  0  0
   58.9130   33.8100   44.2720 C   0  0  0  0  0  0  0  0  0  0  0  0
   59.5100   34.2151   43.4417 H   0  0  0  0  0  0  0  0  0  0  0  0
   57.9690   32.8060   44.0280 C   0  0  0  0  0  0  0  0  0  0  0  0
   57.7620   32.1430   42.2420 Br  0  0  0  0  0  0  0  0  0  0  0  0
   60.6900   30.4480   48.0350 C   0  0  0  0  0  0  0  0  0  0  0  0
   61.1320   29.5334   48.4571 H   0  0  0  0  0  0  0  0  0  0  0  0
   61.5600   31.6150   47.8080 C   0  0  0  0  0  0  0  0  0  0  0  0
   61.2540   33.2100   48.2590 S   0  0  0  0  0  0  0  0  0  0  0  0
   62.6820   33.8540   47.6480 C   0  0  0  0  0  0  0  0  0  0  0  0
   62.9822   34.9114   47.6903 H   0  0  0  0  0  0  0  0  0  0  0  0
   63.4170   32.8220   47.0810 C   0  0  0  0  0  0  0  0  0  0  0  0
   64.3978   32.9723   46.6062 H   0  0  0  0  0  0  0  0  0  0  0  0
   62.7930   31.5720   47.1700 C   0  0  0  0  0  0  0  0  0  0  0  0
   63.2358   30.6464   46.7735 H   0  0  0  0  0  0  0  0  0  0  0  0
  1  2  1  0
  2  3  1  0
  3  4  2  0
  3  5  1  0
  5  6  1  0
  5  7  1  0
  7  8  1  0
  7  9  1  0
  7 10  1  0
 10 11  2  0
 10 12  1  0
 12 13  1  0
 13 14  2  0
 14 15  1  0
 14 16  1  0
 16 17  1  0
 16 18  2  0
 18 19  1  0
 18 20  1  0
 20 21  1  0
 20 22  2  0
 22 23  1  0
  2 24  2  0
 24 25  1  0
 24 26  1  0
 26 27  1  0
 27 28  1  0
 28 29  1  0
 28 30  2  0
 30 31  1  0
 30 32  1  0
 32 33  1  0
 22 13  1  0
 32 26  2  0
M  CHG  1  12  -1
M  END
>  <UniqueID>  (42) 
41

>  <SMILES>  (42) 
O=C(CNC(=O)/C=C/c1cccs1)[N-]c1ccccc1Br

>  <Energy>  (42) 
59.762478540892026

>  <Genealogy>  (42) 
O=C(CNC(=O)C=Cc1cccs1)[N-]c1ccccc1Br (protonated)
O=C(CNC(=O)/C=C/c1cccs1)[N-]c1ccccc1Br (cis-trans isomerization)
O=C(CNC(=O)/C=C/c1cccs1)[N-]c1ccccc1Br (3D coordinates assigned)
O=C(CNC(=O)/C=C/c1cccs1)[N-]c1ccccc1Br (optimized conformer: 59.762478540892026 kcal/mol)

>  <smiles>  (42) 
O=C(C=Cc1cccs1)NCC(=O)Nc1ccccc1Br

>  <score_type>  (42) 
oracle

>  <origin>  (42) 
adg

>  <m_score__min__energy>  (42) 
-9.5999999999999996

>  <m_primary>  (42) 
energy

$$$$
42:0
     RDKit          3D

 40 42  0  0  0  0  0  0  0  0999 V2000
   56.7240   30.5220   43.3100 C   0  0  0  0  0  0  0  0  0  0  0  0
   57.5490   30.2580   44.4810 N   0  0  0  0  0  0  0  0  0  0  0  0
   58.8850   30.3980   44.5490 C   0  0  0  0  0  0  0  0  0  0  0  0
   59.2870   29.9900   45.8030 C   0  0  0  0  0  0  0  0  0  0  0  0
   60.6830   29.9500   46.3410 C   0  0  0  0  0  0  0  0  0  0  0  0
   60.7770   30.3020   47.8460 C   0  0  0  0  0  0  0  0  0  0  0  0
   61.7480   31.3700   48.2250 N   0  0  1  0  0  0  0  0  0  0  0  0
   62.7120   31.6780   47.1520 C   0  0  0  0  0  0  0  0  0  0  0  0
   61.1150   32.6130   48.7290 C   0  0  0  0  0  0  0  0  0  0  0  0
   59.7010   32.7720   48.2370 C   0  0  0  0  0  0  0  0  0  0  0  0
   58.5340   32.4170   48.9080 C   0  0  0  0  0  0  0  0  0  0  0  0
   57.4790   32.7230   48.1740 O   0  0  0  0  0  0  0  0  0  0  0  0
   57.9100   33.2580   47.0570 C   0  0  0  0  0  0  0  0  0  0  0  0
   57.1470   33.7270   45.9900 C   0  0  0  0  0  0  0  0  0  0  0  0
   57.8280   34.2610   44.8800 C   0  0  0  0  0  0  0  0  0  0  0  0
   59.2400   34.3120   44.8630 C   0  0  0  0  0  0  0  0  0  0  0  0
   59.9830   33.8310   45.9560 C   0  0  0  0  0  0  0  0  0  0  0  0
   59.2780   33.3120   47.0430 C   0  0  0  0  0  0  0  0  0  0  0  0
   58.1310   29.5870   46.4460 C   0  0  0  0  0  0  0  0  0  0  0  0
   57.0830   29.7570   45.6140 N   0  0  0  0  0  0  0  0  0  0  0  0
   55.7222   30.8426   43.6320 H   0  0  0  0  0  0  0  0  0  0  0  0
   57.1871   31.3168   42.7068 H   0  0  0  0  0  0  0  0  0  0  0  0
   56.6396   29.6060   42.7068 H   0  0  0  0  0  0  0  0  0  0  0  0
   59.5396   30.7712   43.7476 H   0  0  0  0  0  0  0  0  0  0  0  0
   61.0830   28.9357   46.1953 H   0  0  0  0  0  0  0  0  0  0  0  0
   61.2613   30.7099   45.7950 H   0  0  0  0  0  0  0  0  0  0  0  0
   59.7790   30.6267   48.1754 H   0  0  0  0  0  0  0  0  0  0  0  0
   61.1471   29.3883   48.3341 H   0  0  0  0  0  0  0  0  0  0  0  0
   62.3210   30.9770   49.0100 H   0  0  0  0  0  0  0  0  0  0  0  0
   63.6703   31.9842   47.5968 H   0  0  0  0  0  0  0  0  0  0  0  0
   62.8657   30.7842   46.5295 H   0  0  0  0  0  0  0  0  0  0  0  0
   62.3190   32.4953   46.5295 H   0  0  0  0  0  0  0  0  0  0  0  0
   61.1063   32.5852   49.8286 H   0  0  0  0  0  0  0  0  0  0  0  0
   61.7004   33.4656   48.3543 H   0  0  0  0  0  0  0  0  0  0  0  0
   58.4959   31.9502   49.9033 H   0  0  0  0  0  0  0  0  0  0  0  0
   56.0482   33.6815   46.0142 H   0  0  0  0  0  0  0  0  0  0  0  0
   57.2572   34.6412   44.0200 H   0  0  0  0  0  0  0  0  0  0  0  0
   59.7613   34.7305   43.9895 H   0  0  0  0  0  0  0  0  0  0  0  0
   61.0825   33.8628   45.9542 H   0  0  0  0  0  0  0  0  0  0  0  0
   58.0751   29.1915   47.4709 H   0  0  0  0  0  0  0  0  0  0  0  0
  1  2  1  0
  2  3  1  0
  3  4  2  0
  4  5  1  0
  5  6  1  0
  6  7  1  0
  7  8  1  0
  7  9  1  0
  9 10  1  0
 10 11  2  0
 11 12  1  0
 12 13  1  0
 13 14  2  0
 14 15  1  0
 15 16  2  0
 16 17  1  0
 17 18  2  0
  4 19  1  0
 19 20  2  0
 20  2  1  0
 18 10  1  0
 18 13  1  0
  1 21  1  0
  1 22  1  0
  1 23  1  0
  3 24  1  0
  5 25  1  0
  5 26  1  0
  6 27  1  0
  6 28  1  0
  7 29  1  1
  8 30  1  0
  8 31  1  0
  8 32  1  0
  9 33  1  0
  9 34  1  0
 11 35  1  0
 14 36  1  0
 15 37  1  0
 16 38  1  0
 17 39  1  0
 19 40  1  0
M  CHG  1   7   1
M  END
>  <UniqueID>  (43) 
42

>  <SMILES>  (43) 
Cn1cc(CC[N@@H+](C)Cc2coc3ccccc23)cn1

>  <Energy>  (43) 
108.2559490922474

>  <Genealogy>  (43) 
Cn1cc(CC[NH+](C)Cc2coc3ccccc23)cn1 (protonated)
Cn1cc(CC[N@@H+](C)Cc2coc3ccccc23)cn1 (chirality)
Cn1cc(CC[N@@H+](C)Cc2coc3ccccc23)cn1 (3D coordinates assigned)
Cn1cc(CC[N@@H+](C)Cc2coc3ccccc23)cn1 (optimized conformer: 108.2559490922474 kcal/mol)

>  <smiles>  (43) 
CN(CCc1cnn(C)c1)Cc1coc2ccccc12

>  <score_type>  (43) 
oracle

>  <origin>  (43) 
adg

>  <m_score__min__energy>  (43) 
-5.5300000000000002

>  <m_primary>  (43) 
energy

$$$$
43:0
     RDKit          3D

 26 27  0  0  0  0  0  0  0  0999 V2000
   55.2090   29.3320   44.8770 O   0  0  0  0  0  0  0  0  0  0  0  0
   56.4140   30.0560   44.3410 S   0  0  0  0  0  0  0  0  0  0  0  0
   56.4070   29.9490   42.8420 O   0  0  0  0  0  0  0  0  0  0  0  0
   56.3310   31.7360   44.7900 N   0  0  0  0  0  0  0  0  0  0  0  0
   57.3950   32.5110   44.1480 C   0  0  0  0  0  0  0  0  0  0  0  0
   58.1090   33.3660   45.1490 C   0  0  0  0  0  0  0  0  0  0  0  0
   59.1270   34.2720   44.8730 C   0  0  0  0  0  0  0  0  0  0  0  0
   59.5960   34.9350   46.0120 C   0  0  0  0  0  0  0  0  0  0  0  0
   58.9410   34.5680   47.1810 C   0  0  0  0  0  0  0  0  0  0  0  0
   57.7760   33.4160   46.7960 S   0  0  0  0  0  0  0  0  0  0  0  0
   57.8950   29.3240   44.9530 C   0  0  0  0  0  0  0  0  0  0  0  0
   58.1780   27.9710   44.7130 C   0  0  0  0  0  0  0  0  0  0  0  0
   59.3340   27.3920   45.2480 C   0  0  0  0  0  0  0  0  0  0  0  0
   60.2070   28.1600   46.0230 C   0  0  0  0  0  0  0  0  0  0  0  0
   59.9320   29.5100   46.2600 C   0  0  0  0  0  0  0  0  0  0  0  0
   61.1120   30.5530   47.3390 Br  0  0  0  0  0  0  0  0  0  0  0  0
   58.7810   30.0920   45.7200 C   0  0  0  0  0  0  0  0  0  0  0  0
   58.1151   31.8202   43.6850 H   0  0  0  0  0  0  0  0  0  0  0  0
   56.9447   33.1631   43.3851 H   0  0  0  0  0  0  0  0  0  0  0  0
   59.5231   34.4493   43.8622 H   0  0  0  0  0  0  0  0  0  0  0  0
   60.4073   35.6773   45.9847 H   0  0  0  0  0  0  0  0  0  0  0  0
   59.1484   34.9629   48.1865 H   0  0  0  0  0  0  0  0  0  0  0  0
   57.4909   27.3652   44.1040 H   0  0  0  0  0  0  0  0  0  0  0  0
   59.5557   26.3314   45.0584 H   0  0  0  0  0  0  0  0  0  0  0  0
   61.1123   27.7014   46.4474 H   0  0  0  0  0  0  0  0  0  0  0  0
   58.5703   31.1569   45.8980 H   0  0  0  0  0  0  0  0  0  0  0  0
  1  2  2  0
  2  3  2  0
  2  4  1  0
  4  5  1  0
  5  6  1  0
  6  7  2  0
  7  8  1  0
  8  9  2  0
  9 10  1  0
  2 11  1  0
 11 12  2  0
 12 13  1  0
 13 14  2  0
 14 15  1  0
 15 16  1  0
 15 17  2  0
 10  6  1  0
 17 11  1  0
  5 18  1  0
  5 19  1  0
  7 20  1  0
  8 21  1  0
  9 22  1  0
 12 23  1  0
 13 24  1  0
 14 25  1  0
 17 26  1  0
M  CHG  1   4  -1
M  END
>  <UniqueID>  (44) 
43

>  <SMILES>  (44) 
O=S(=O)([N-]Cc1cccs1)c1cccc(Br)c1

>  <Energy>  (44) 
47.55556962344479

>  <Genealogy>  (44) 
O=S(=O)([N-]Cc1cccs1)c1cccc(Br)c1 (protonated)
O=S(=O)([N-]Cc1cccs1)c1cccc(Br)c1 (3D coordinates assigned)
O=S(=O)([N-]Cc1cccs1)c1cccc(Br)c1 (optimized conformer: 47.55556962344479 kcal/mol)

>  <smiles>  (44) 
O=S(=O)(NCc1cccs1)c1cccc(Br)c1

>  <score_type>  (44) 
oracle

>  <origin>  (44) 
adg

>  <m_score__min__energy>  (44) 
-9.1300000000000008

>  <m_primary>  (44) 
energy

$$$$
44:0
     RDKit          3D

 35 38  0  0  0  0  0  0  0  0999 V2000
   57.0330   31.1730   42.3630 C   0  0  0  0  0  0  0  0  0  0  0  0
   57.3810   30.7860   43.7300 N   0  0  0  0  0  0  0  0  0  0  0  0
   57.4210   31.5660   44.8450 C   0  0  0  0  0  0  0  0  0  0  0  0
   57.2530   33.0560   44.8490 C   0  0  0  0  0  0  0  0  0  0  0  0
   57.3890   33.7300   46.5430 S   0  0  0  0  0  0  0  0  0  0  0  0
   59.1580   33.4720   46.6700 C   0  0  0  0  0  0  0  0  0  0  0  0
   59.7140   32.3180   47.1070 N   0  0  0  0  0  0  0  0  0  0  0  0
   61.0680   32.4030   47.1570 C   0  0  0  0  0  0  0  0  0  0  0  0
   61.9180   31.3820   47.5870 C   0  0  0  0  0  0  0  0  0  0  0  0
   63.3040   31.6160   47.5930 C   0  0  0  0  0  0  0  0  0  0  0  0
   63.8200   32.8600   47.1740 C   0  0  0  0  0  0  0  0  0  0  0  0
   62.9550   33.8800   46.7460 C   0  0  0  0  0  0  0  0  0  0  0  0
   61.5870   33.6230   46.7490 C   0  0  0  0  0  0  0  0  0  0  0  0
   60.3240   34.6460   46.3140 S   0  0  0  0  0  0  0  0  0  0  0  0
   57.7160   30.8700   45.9770 N   0  0  0  0  0  0  0  0  0  0  0  0
   57.8420   29.6080   45.5340 C   0  0  0  0  0  0  0  0  0  0  0  0
   58.1400   28.4730   46.2830 C   0  0  0  0  0  0  0  0  0  0  0  0
   58.2150   27.2410   45.6060 C   0  0  0  0  0  0  0  0  0  0  0  0
   57.9890   27.1770   44.2120 C   0  0  0  0  0  0  0  0  0  0  0  0
   57.6920   28.3430   43.4820 C   0  0  0  0  0  0  0  0  0  0  0  0
   57.6320   29.5480   44.1870 C   0  0  0  0  0  0  0  0  0  0  0  0
   56.2977   31.9907   42.3893 H   0  0  0  0  0  0  0  0  0  0  0  0
   57.9376   31.5102   41.8358 H   0  0  0  0  0  0  0  0  0  0  0  0
   56.6020   30.3091   41.8358 H   0  0  0  0  0  0  0  0  0  0  0  0
   58.0339   33.5071   44.2192 H   0  0  0  0  0  0  0  0  0  0  0  0
   56.2535   33.2956   44.4572 H   0  0  0  0  0  0  0  0  0  0  0  0
   59.1660   31.4740   47.3890 H   0  0  0  0  0  0  0  0  0  0  0  0
   61.5111   30.4139   47.9145 H   0  0  0  0  0  0  0  0  0  0  0  0
   63.9906   30.8239   47.9266 H   0  0  0  0  0  0  0  0  0  0  0  0
   64.9064   33.0322   47.1826 H   0  0  0  0  0  0  0  0  0  0  0  0
   63.3471   34.8539   46.4178 H   0  0  0  0  0  0  0  0  0  0  0  0
   58.3112   28.5367   47.3677 H   0  0  0  0  0  0  0  0  0  0  0  0
   58.4507   26.3232   46.1647 H   0  0  0  0  0  0  0  0  0  0  0  0
   58.0457   26.2083   43.6938 H   0  0  0  0  0  0  0  0  0  0  0  0
   57.5138   28.3071   42.3971 H   0  0  0  0  0  0  0  0  0  0  0  0
  1  2  1  0
  2  3  1  0
  3  4  1  0
  4  5  1  0
  5  6  1  0
  6  7  2  0
  7  8  1  0
  8  9  2  0
  9 10  1  0
 10 11  2  0
 11 12  1  0
 12 13  2  0
 13 14  1  0
  3 15  2  0
 15 16  1  0
 16 17  2  0
 17 18  1  0
 18 19  2  0
 19 20  1  0
 20 21  2  0
 21  2  1  0
 14  6  1  0
 21 16  1  0
 13  8  1  0
  1 22  1  0
  1 23  1  0
  1 24  1  0
  4 25  1  0
  4 26  1  0
  7 27  1  0
  9 28  1  0
 10 29  1  0
 11 30  1  0
 12 31  1  0
 17 32  1  0
 18 33  1  0
 19 34  1  0
 20 35  1  0
M  CHG  1   7   1
M  END
>  <UniqueID>  (45) 
44

>  <SMILES>  (45) 
Cn1c(CSc2[nH+]c3ccccc3s2)nc2ccccc21

>  <Energy>  (45) 
104.87770157284774

>  <Genealogy>  (45) 
Cn1c(CSc2[nH+]c3ccccc3s2)nc2ccccc21 (protonated)
Cn1c(CSc2[nH+]c3ccccc3s2)nc2ccccc21 (3D coordinates assigned)
Cn1c(CSc2[nH+]c3ccccc3s2)nc2ccccc21 (optimized conformer: 104.87770157284774 kcal/mol)

>  <smiles>  (45) 
Cn1c(CSc2nc3ccccc3s2)nc2ccccc21

>  <score_type>  (45) 
oracle

>  <origin>  (45) 
adg

>  <m_score__min__energy>  (45) 
-6.5899999999999999

>  <m_primary>  (45) 
energy

$$$$
45:0
     RDKit          3D

 54 56  0  0  0  0  0  0  0  0999 V2000
   60.1990   29.9610   46.8720 C   0  0  0  0  0  0  0  0  0  0  0  0
   58.9980   30.1110   47.8010 C   0  0  0  0  0  0  0  0  0  0  0  0
   58.6930   31.5870   48.0800 C   0  0  0  0  0  0  0  0  0  0  0  0
   58.8720   32.4100   46.8220 C   0  0  0  0  0  0  0  0  0  0  0  0
   59.7240   33.5380   46.8280 C   0  0  0  0  0  0  0  0  0  0  0  0
   60.3710   33.8840   48.0310 O   0  0  0  0  0  0  0  0  0  0  0  0
   59.7480   34.1800   49.2830 C   0  0  0  0  0  0  0  0  0  0  0  0
   60.2460   33.2420   50.3920 C   0  0  0  0  0  0  0  0  0  0  0  0
   61.7000   33.5100   50.7940 C   0  0  0  0  0  0  0  0  0  0  0  0
   62.5500   32.3550   50.4110 N   0  0  0  0  0  0  0  0  0  0  0  0
   63.9420   32.7470   50.1160 C   0  0  0  0  0  0  0  0  0  0  0  0
   64.0770   33.5000   48.7720 C   0  0  0  0  0  0  0  0  0  0  0  0
   62.9820   33.1900   47.8220 N   0  0  0  0  0  0  0  0  0  0  0  0
   63.4060   33.4780   46.4390 C   0  0  0  0  0  0  0  0  0  0  0  0
   62.5530   31.7850   47.9410 C   0  0  0  0  0  0  0  0  0  0  0  0
   61.9730   31.4990   49.3450 C   0  0  0  0  0  0  0  0  0  0  0  0
   59.9070   34.2730   45.6390 C   0  0  0  0  0  0  0  0  0  0  0  0
   59.2540   33.9020   44.4650 C   0  0  0  0  0  0  0  0  0  0  0  0
   58.4180   32.7820   44.4500 C   0  0  0  0  0  0  0  0  0  0  0  0
   57.7620   32.3810   43.2820 C   0  0  0  0  0  0  0  0  0  0  0  0
   56.9470   31.2510   43.3070 C   0  0  0  0  0  0  0  0  0  0  0  0
   56.8080   30.5450   44.5040 C   0  0  0  0  0  0  0  0  0  0  0  0
   56.0780   29.5200   44.5480 O   0  0  0  0  0  0  0  0  0  0  0  0
   57.4410   30.9500   45.6010 O   0  0  0  0  0  0  0  0  0  0  0  0
   58.2300   32.0250   45.6270 C   0  0  0  0  0  0  0  0  0  0  0  0
   61.1142   29.8467   47.4714 H   0  0  0  0  0  0  0  0  0  0  0  0
   60.0630   29.0729   46.2374 H   0  0  0  0  0  0  0  0  0  0  0  0
   60.2856   30.8553   46.2374 H   0  0  0  0  0  0  0  0  0  0  0  0
   58.1196   29.6461   47.3295 H   0  0  0  0  0  0  0  0  0  0  0  0
   59.2328   29.6177   48.7557 H   0  0  0  0  0  0  0  0  0  0  0  0
   57.6549   31.6825   48.4309 H   0  0  0  0  0  0  0  0  0  0  0  0
   59.3875   31.9556   48.8493 H   0  0  0  0  0  0  0  0  0  0  0  0
   59.9801   35.2185   49.5616 H   0  0  0  0  0  0  0  0  0  0  0  0
   58.6628   34.0390   49.1717 H   0  0  0  0  0  0  0  0  0  0  0  0
   59.6071   33.3757   51.2774 H   0  0  0  0  0  0  0  0  0  0  0  0
   60.1964   32.2149   50.0014 H   0  0  0  0  0  0  0  0  0  0  0  0
   62.0598   34.4140   50.2808 H   0  0  0  0  0  0  0  0  0  0  0  0
   61.7543   33.6548   51.8831 H   0  0  0  0  0  0  0  0  0  0  0  0
   64.3023   33.4010   50.9237 H   0  0  0  0  0  0  0  0  0  0  0  0
   64.5385   31.8257   50.0425 H   0  0  0  0  0  0  0  0  0  0  0  0
   64.0704   34.5813   48.9738 H   0  0  0  0  0  0  0  0  0  0  0  0
   65.0189   33.1751   48.3059 H   0  0  0  0  0  0  0  0  0  0  0  0
   62.1620   33.8100   48.0230 H   0  0  0  0  0  0  0  0  0  0  0  0
   64.3158   34.0960   46.4556 H   0  0  0  0  0  0  0  0  0  0  0  0
   63.6138   32.5334   45.9150 H   0  0  0  0  0  0  0  0  0  0  0  0
   62.6045   34.0194   45.9150 H   0  0  0  0  0  0  0  0  0  0  0  0
   61.7814   31.5793   47.1845 H   0  0  0  0  0  0  0  0  0  0  0  0
   63.4283   31.1373   47.7852 H   0  0  0  0  0  0  0  0  0  0  0  0
   60.8864   31.6676   49.3135 H   0  0  0  0  0  0  0  0  0  0  0  0
   62.2275   30.4581   49.5936 H   0  0  0  0  0  0  0  0  0  0  0  0
   60.5725   35.1489   45.6379 H   0  0  0  0  0  0  0  0  0  0  0  0
   59.3969   34.4922   43.5478 H   0  0  0  0  0  0  0  0  0  0  0  0
   57.8883   32.9530   42.3509 H   0  0  0  0  0  0  0  0  0  0  0  0
   56.4217   30.9204   42.3988 H   0  0  0  0  0  0  0  0  0  0  0  0
  1  2  1  0
  2  3  1  0
  3  4  1  0
  4  5  2  0
  5  6  1  0
  6  7  1  0
  7  8  1  0
  8  9  1  0
  9 10  1  0
 10 11  1  0
 11 12  1  0
 12 13  1  0
 13 14  1  0
 13 15  1  0
 15 16  1  0
  5 17  1  0
 17 18  2  0
 18 19  1  0
 19 20  1  0
 20 21  2  0
 21 22  1  0
 22 23  2  0
 22 24  1  0
 24 25  1  0
 25  4  1  0
 16 10  1  0
 25 19  2  0
  1 26  1  0
  1 27  1  0
  1 28  1  0
  2 29  1  0
  2 30  1  0
  3 31  1  0
  3 32  1  0
  7 33  1  0
  7 34  1  0
  8 35  1  0
  8 36  1  0
  9 37  1  0
  9 38  1  0
 11 39  1  0
 11 40  1  0
 12 41  1  0
 12 42  1  0
 13 43  1  0
 14 44  1  0
 14 45  1  0
 14 46  1  0
 15 47  1  0
 15 48  1  0
 16 49  1  0
 16 50  1  0
 17 51  1  0
 18 52  1  0
 20 53  1  0
 21 54  1  0
M  CHG  1  13   1
M  END
>  <UniqueID>  (46) 
45

>  <SMILES>  (46) 
CCCc1c(OCCCN2CC[NH+](C)CC2)ccc2ccc(=O)oc12

>  <Energy>  (46) 
65.24808861449229

>  <Genealogy>  (46) 
CCCc1c(OCCCN2CC[NH+](C)CC2)ccc2ccc(=O)oc12 (protonated)
CCCc1c(OCCCN2CC[NH+](C)CC2)ccc2ccc(=O)oc12 (3D coordinates assigned)
CCCc1c(OCCCN2CC[NH+](C)CC2)ccc2ccc(=O)oc12 (nonaromatic ring conformer: 65.24808861449229 kcal/mol)

>  <smiles>  (46) 
CCCc1c(OCCCN2CCN(C)CC2)ccc2ccc(=O)oc12

>  <score_type>  (46) 
oracle

>  <origin>  (46) 
adg

>  <m_score__min__energy>  (46) 
-6.5599999999999996

>  <m_primary>  (46) 
energy

$$$$
46:0
     RDKit          3D

 38 41  0  0  0  0  0  0  0  0999 V2000
   62.6390   34.6060   49.6570 C   0  0  0  0  0  0  0  0  0  0  0  0
   61.5740   34.1290   48.7140 C   0  0  0  0  0  0  0  0  0  0  0  0
   61.9250   33.5330   47.4930 C   0  0  0  0  0  0  0  0  0  0  0  0
   60.9340   33.0540   46.6310 C   0  0  0  0  0  0  0  0  0  0  0  0
   59.5770   33.1660   46.9810 C   0  0  0  0  0  0  0  0  0  0  0  0
   58.5540   32.6830   46.1500 O   0  0  0  0  0  0  0  0  0  0  0  0
   58.1770   31.3380   46.0220 C   0  0  0  0  0  0  0  0  0  0  0  0
   58.6010   30.3560   46.9350 C   0  0  0  0  0  0  0  0  0  0  0  0
   58.2180   29.0230   46.7660 C   0  0  0  0  0  0  0  0  0  0  0  0
   57.4160   28.6450   45.6740 C   0  0  0  0  0  0  0  0  0  0  0  0
   57.0090   27.2330   45.4940 C   0  0  0  0  0  0  0  0  0  0  0  0
   57.7400   26.3390   44.7740 N   0  0  0  0  0  0  0  0  0  0  0  0
   57.0160   25.2170   44.8750 C   0  0  0  0  0  0  0  0  0  0  0  0
   57.2970   23.9680   44.3240 C   0  0  0  0  0  0  0  0  0  0  0  0
   56.3800   22.9250   44.5670 C   0  0  0  0  0  0  0  0  0  0  0  0
   56.6760   21.3310   43.9010 Cl  0  0  0  0  0  0  0  0  0  0  0  0
   55.2230   23.1610   45.3470 C   0  0  0  0  0  0  0  0  0  0  0  0
   54.9750   24.4360   45.8870 C   0  0  0  0  0  0  0  0  0  0  0  0
   55.9030   25.4410   45.6240 C   0  0  0  0  0  0  0  0  0  0  0  0
   55.8710   26.7170   46.0320 N   0  0  0  0  0  0  0  0  0  0  0  0
   57.0130   29.6270   44.7530 C   0  0  0  0  0  0  0  0  0  0  0  0
   57.3970   30.9600   44.9250 C   0  0  0  0  0  0  0  0  0  0  0  0
   59.2310   33.7250   48.2160 C   0  0  0  0  0  0  0  0  0  0  0  0
   60.2210   34.2040   49.0790 C   0  0  0  0  0  0  0  0  0  0  0  0
   62.3044   34.4561   50.6941 H   0  0  0  0  0  0  0  0  0  0  0  0
   63.5639   34.0361   49.4841 H   0  0  0  0  0  0  0  0  0  0  0  0
   62.8296   35.6755   49.4841 H   0  0  0  0  0  0  0  0  0  0  0  0
   62.9848   33.4423   47.2128 H   0  0  0  0  0  0  0  0  0  0  0  0
   61.2170   32.5879   45.6757 H   0  0  0  0  0  0  0  0  0  0  0  0
   59.2374   30.6388   47.7865 H   0  0  0  0  0  0  0  0  0  0  0  0
   58.5458   28.2641   47.4917 H   0  0  0  0  0  0  0  0  0  0  0  0
   58.2019   23.8019   43.7211 H   0  0  0  0  0  0  0  0  0  0  0  0
   54.5127   22.3418   45.5323 H   0  0  0  0  0  0  0  0  0  0  0  0
   54.0799   24.6325   46.4954 H   0  0  0  0  0  0  0  0  0  0  0  0
   56.3910   29.3447   43.8907 H   0  0  0  0  0  0  0  0  0  0  0  0
   57.0831   31.7174   44.1916 H   0  0  0  0  0  0  0  0  0  0  0  0
   58.1729   33.7880   48.5099 H   0  0  0  0  0  0  0  0  0  0  0  0
   59.9384   34.6414   50.0479 H   0  0  0  0  0  0  0  0  0  0  0  0
  1  2  1  0
  2  3  2  0
  3  4  1  0
  4  5  2  0
  5  6  1  0
  6  7  1  0
  7  8  2  0
  8  9  1  0
  9 10  2  0
 10 11  1  0
 11 12  2  0
 12 13  1  0
 13 14  2  0
 14 15  1  0
 15 16  1  0
 15 17  2  0
 17 18  1  0
 18 19  2  0
 19 20  1  0
 10 21  1  0
 21 22  2  0
  5 23  1  0
 23 24  2  0
 24  2  1  0
 22  7  1  0
 20 11  1  0
 19 13  1  0
  1 25  1  0
  1 26  1  0
  1 27  1  0
  3 28  1  0
  4 29  1  0
  8 30  1  0
  9 31  1  0
 14 32  1  0
 17 33  1  0
 18 34  1  0
 21 35  1  0
 22 36  1  0
 23 37  1  0
 24 38  1  0
M  CHG  1  20  -1
M  END
>  <UniqueID>  (47) 
46

>  <SMILES>  (47) 
Cc1ccc(Oc2ccc(-c3nc4cc(Cl)ccc4[n-]3)cc2)cc1

>  <Energy>  (47) 
83.8120625307843

>  <Genealogy>  (47) 
Cc1ccc(Oc2ccc(-c3nc4cc(Cl)ccc4[n-]3)cc2)cc1 (protonated)
Cc1ccc(Oc2ccc(-c3nc4cc(Cl)ccc4[n-]3)cc2)cc1 (3D coordinates assigned)
Cc1ccc(Oc2ccc(-c3nc4cc(Cl)ccc4[n-]3)cc2)cc1 (optimized conformer: 83.8120625307843 kcal/mol)

>  <smiles>  (47) 
Cc1ccc(Oc2ccc(-c3nc4cc(Cl)ccc4[nH]3)cc2)cc1

>  <score_type>  (47) 
oracle

>  <origin>  (47) 
adg

>  <m_score__min__energy>  (47) 
-8.6600000000000001

>  <m_primary>  (47) 
energy

$$$$
