0:0
     RDKit          3D

 65 68  0  0  1  0  0  0  0  0999 V2000
   58.1480   27.1260   42.9480 C   0  0  0  0  0  0  0  0  0  0  0  0
   58.3970   27.1280   44.4050 C   0  0  0  0  0  0  0  0  0  0  0  0
   58.1300   28.4300   45.0750 N   0  0  0  0  0  0  0  0  0  0  0  0
   58.2730   28.0580   46.5010 C   0  0  0  0  0  0  0  0  0  0  0  0
   59.7150   28.1490   46.9090 C   0  0  0  0  0  0  0  0  0  0  0  0
   56.7060   28.6720   44.7780 C   0  0  0  0  0  0  0  0  0  0  0  0
   56.4740   29.8730   43.9260 C   0  0  0  0  0  0  0  0  0  0  0  0
   57.6680   30.7130   43.8080 N   0  0  0  0  0  0  0  0  0  0  0  0
   58.0770   31.7020   44.7000 C   0  0  0  0  0  0  0  0  0  0  0  0
   58.8590   31.2940   45.7900 C   0  0  0  0  0  0  0  0  0  0  0  0
   59.3210   32.1920   46.7250 C   0  0  0  0  0  0  0  0  0  0  0  0
   59.0410   33.5300   46.6380 C   0  0  0  0  0  0  0  0  0  0  0  0
   59.5640   34.4190   47.7000 C   0  0  0  0  0  0  0  0  0  0  0  0
   60.7980   33.8000   48.2710 C   0  0  0  0  0  0  0  0  0  0  0  0
   62.4170   33.8130   47.5400 S   0  0  0  0  0  0  0  0  0  0  0  0
   63.1530   32.8240   48.9810 C   0  0  0  0  0  0  0  0  0  0  0  0
   64.3550   32.5230   49.0180 N   0  0  0  0  0  0  0  0  0  0  0  0
   65.2870   32.9870   49.9870 C   0  0  0  0  0  0  0  0  0  0  0  0
   66.6140   32.6970   49.9990 C   0  0  0  0  0  0  0  0  0  0  0  0
   67.4330   33.2100   50.9960 C   0  0  0  0  0  0  0  0  0  0  0  0
   66.9510   34.0270   52.0090 C   0  0  0  0  0  0  0  0  0  0  0  0
   65.5860   34.3240   51.9950 C   0  0  0  0  0  0  0  0  0  0  0  0
   64.7740   33.8080   50.9960 C   0  0  0  0  0  0  0  0  0  0  0  0
   62.0880   32.6560   49.7440 N   0  0  0  0  0  0  0  0  0  0  0  0
   60.9480   33.1150   49.4240 N   0  0  0  0  0  0  0  0  0  0  0  0
   59.7630   32.9350   50.2690 C   0  0  0  0  0  0  0  0  0  0  0  0
   59.6380   33.8320   51.3070 C   0  0  0  0  0  0  0  0  0  0  0  0
   58.5450   33.7120   52.1320 C   0  0  0  0  0  0  0  0  0  0  0  0
   57.5980   32.7140   51.9210 C   0  0  0  0  0  0  0  0  0  0  0  0
   57.7730   31.8390   50.8640 C   0  0  0  0  0  0  0  0  0  0  0  0
   58.8670   31.9270   50.0040 C   0  0  0  0  0  0  0  0  0  0  0  0
   58.2760   33.9570   45.5790 C   0  0  0  0  0  0  0  0  0  0  0  0
   57.8090   33.0410   44.6320 C   0  0  0  0  0  0  0  0  0  0  0  0
   57.0640   27.1173   42.7613 H   0  0  0  0  0  0  0  0  0  0  0  0
   58.5901   28.0277   42.4992 H   0  0  0  0  0  0  0  0  0  0  0  0
   58.6046   26.2315   42.4992 H   0  0  0  0  0  0  0  0  0  0  0  0
   57.7507   26.3660   44.8650 H   0  0  0  0  0  0  0  0  0  0  0  0
   59.4689   26.9210   44.5395 H   0  0  0  0  0  0  0  0  0  0  0  0
   57.6748   28.7438   47.1189 H   0  0  0  0  0  0  0  0  0  0  0  0
   57.9199   27.0261   46.6440 H   0  0  0  0  0  0  0  0  0  0  0  0
   59.7859   28.1535   48.0067 H   0  0  0  0  0  0  0  0  0  0  0  0
   60.2644   27.2837   46.5096 H   0  0  0  0  0  0  0  0  0  0  0  0
   60.1512   29.0765   46.5096 H   0  0  0  0  0  0  0  0  0  0  0  0
   56.3043   27.7912   44.2556 H   0  0  0  0  0  0  0  0  0  0  0  0
   56.2005   28.8528   45.7381 H   0  0  0  0  0  0  0  0  0  0  0  0
   56.1751   29.5407   42.9209 H   0  0  0  0  0  0  0  0  0  0  0  0
   55.6862   30.4750   44.4024 H   0  0  0  0  0  0  0  0  0  0  0  0
   58.2450   30.5060   42.9390 H   0  0  0  0  0  0  0  0  0  0  0  0
   59.1097   30.2287   45.9006 H   0  0  0  0  0  0  0  0  0  0  0  0
   59.9309   31.8257   47.5639 H   0  0  0  0  0  0  0  0  0  0  0  0
   59.8059   35.4038   47.2738 H   0  0  0  0  0  0  0  0  0  0  0  0
   58.8082   34.5495   48.4885 H   0  0  0  0  0  0  0  0  0  0  0  0
   67.0413   32.0534   49.2160 H   0  0  0  0  0  0  0  0  0  0  0  0
   68.5040   32.9594   50.9824 H   0  0  0  0  0  0  0  0  0  0  0  0
   67.6159   34.4241   52.7902 H   0  0  0  0  0  0  0  0  0  0  0  0
   65.1551   34.9672   52.7764 H   0  0  0  0  0  0  0  0  0  0  0  0
   63.7010   34.0503   50.9975 H   0  0  0  0  0  0  0  0  0  0  0  0
   62.2250   32.0970   50.6770 H   0  0  0  0  0  0  0  0  0  0  0  0
   60.3888   34.6191   51.4705 H   0  0  0  0  0  0  0  0  0  0  0  0
   58.4172   34.4136   52.9695 H   0  0  0  0  0  0  0  0  0  0  0  0
   56.7249   32.6226   52.5838 H   0  0  0  0  0  0  0  0  0  0  0  0
   57.0258   31.0492   50.6967 H   0  0  0  0  0  0  0  0  0  0  0  0
   59.0048   31.2310   49.1634 H   0  0  0  0  0  0  0  0  0  0  0  0
   58.0302   35.0242   45.4762 H   0  0  0  0  0  0  0  0  0  0  0  0
   57.1993   33.4137   43.7957 H   0  0  0  0  0  0  0  0  0  0  0  0
  1  2  1  0
  2  3  1  0
  3  4  1  0
  4  5  1  0
  3  6  1  0
  6  7  1  0
  7  8  1  0
  8  9  1  0
  9 10  2  0
 10 11  1  0
 11 12  2  0
 12 13  1  0
 13 14  1  0
 14 15  1  0
 15 16  1  0
 16 17  2  0
 17 18  1  0
 18 19  2  0
 19 20  1  0
 20 21  2  0
 21 22  1  0
 22 23  2  0
 16 24  1  0
 24 25  1  0
 25 26  1  0
 26 27  2  0
 27 28  1  0
 28 29  2  0
 29 30  1  0
 30 31  2  0
 12 32  1  0
 32 33  2  0
 33  9  1  0
 25 14  2  0
 31 26  1  0
 23 18  1  0
  1 34  1  0
  1 35  1  0
  1 36  1  0
  2 37  1  0
  2 38  1  0
  4 39  1  0
  4 40  1  0
  5 41  1  0
  5 42  1  0
  5 43  1  0
  6 44  1  0
  6 45  1  0
  7 46  1  0
  7 47  1  0
  8 48  1  0
 10 49  1  0
 11 50  1  0
 13 51  1  0
 13 52  1  0
 19 53  1  0
 20 54  1  0
 21 55  1  0
 22 56  1  0
 23 57  1  0
 24 58  1  0
 27 59  1  0
 28 60  1  0
 29 61  1  0
 30 62  1  0
 31 63  1  0
 32 64  1  0
 33 65  1  0
M  CHG  1  25   1
M  END
>  <smiles>  (1) 
CCN(CC)CCNc1ccc(Cc2sc(=Nc3ccccc3)[nH][n+]2-c2ccccc2)cc1

>  <score_type>  (1) 
oracle

>  <origin>  (1) 
adg

>  <m_score__min__energy>  (1) 
-7.6500000000000004

>  <m_primary>  (1) 
energy

$$$$
1:0
     RDKit          3D

 38 38  0  0  0  0  0  0  0  0999 V2000
   57.5060   32.3410   41.2050 C   0  0  0  0  0  0  0  0  0  0  0  0
   58.0480   31.8820   42.5580 C   0  0  0  0  0  0  0  0  0  0  0  0
   58.2160   33.0450   43.5370 C   0  0  0  0  0  0  0  0  0  0  0  0
   57.0910   32.8670   44.9650 S   0  0  0  0  0  0  0  0  0  0  0  0
   58.3590   33.2810   46.1710 C   0  0  0  0  0  0  0  0  0  0  0  0
   58.4460   34.5730   46.5860 N   0  0  0  0  0  0  0  0  0  0  0  0
   59.3320   34.9700   47.5360 C   0  0  0  0  0  0  0  0  0  0  0  0
   60.1780   34.0370   48.1340 C   0  0  0  0  0  0  0  0  0  0  0  0
   60.1130   32.7020   47.7350 C   0  0  0  0  0  0  0  0  0  0  0  0
   59.2140   32.3040   46.7330 C   0  0  0  0  0  0  0  0  0  0  0  0
   59.1690   30.8820   46.3320 C   0  0  0  0  0  0  0  0  0  0  0  0
   60.2480   30.2680   46.1080 O   0  0  0  0  0  0  0  0  0  0  0  0
   57.9150   30.2090   46.1560 N   0  0  0  0  0  0  0  0  0  0  0  0
   57.8450   28.7570   45.9950 C   0  0  0  0  0  0  0  0  0  0  0  0
   56.6550   28.3600   45.1240 C   0  0  0  0  0  0  0  0  0  0  0  0
   55.6510   29.3480   45.2290 O   0  0  0  0  0  0  0  0  0  0  0  0
   55.5160   30.0550   44.0120 C   0  0  0  0  0  0  0  0  0  0  0  0
   56.3010   29.3530   42.9090 C   0  0  0  0  0  0  0  0  0  0  0  0
   56.6752   33.0446   41.3624 H   0  0  0  0  0  0  0  0  0  0  0  0
   58.3068   32.8398   40.6393 H   0  0  0  0  0  0  0  0  0  0  0  0
   57.1459   31.4690   40.6393 H   0  0  0  0  0  0  0  0  0  0  0  0
   57.3479   31.1525   42.9912 H   0  0  0  0  0  0  0  0  0  0  0  0
   59.0391   31.4349   42.3910 H   0  0  0  0  0  0  0  0  0  0  0  0
   59.2549   33.0641   43.8979 H   0  0  0  0  0  0  0  0  0  0  0  0
   57.9723   33.9813   43.0137 H   0  0  0  0  0  0  0  0  0  0  0  0
   59.3820   36.0278   47.8336 H   0  0  0  0  0  0  0  0  0  0  0  0
   60.8893   34.3504   48.9123 H   0  0  0  0  0  0  0  0  0  0  0  0
   60.7697   31.9571   48.2081 H   0  0  0  0  0  0  0  0  0  0  0  0
   57.0380   30.7770   46.1380 H   0  0  0  0  0  0  0  0  0  0  0  0
   58.7721   28.4025   45.5208 H   0  0  0  0  0  0  0  0  0  0  0  0
   57.7209   28.2998   46.9877 H   0  0  0  0  0  0  0  0  0  0  0  0
   56.9786   28.2745   44.0762 H   0  0  0  0  0  0  0  0  0  0  0  0
   56.2569   27.3919   45.4621 H   0  0  0  0  0  0  0  0  0  0  0  0
   54.4531   30.0975   43.7317 H   0  0  0  0  0  0  0  0  0  0  0  0
   55.9095   31.0740   44.1417 H   0  0  0  0  0  0  0  0  0  0  0  0
   57.0489   28.6842   43.3600 H   0  0  0  0  0  0  0  0  0  0  0  0
   55.6115   28.7647   42.2857 H   0  0  0  0  0  0  0  0  0  0  0  0
   56.8089   30.1037   42.2857 H   0  0  0  0  0  0  0  0  0  0  0  0
  1  2  1  0
  2  3  1  0
  3  4  1  0
  4  5  1  0
  5  6  2  0
  6  7  1  0
  7  8  2  0
  8  9  1  0
  9 10  2  0
 10 11  1  0
 11 12  2  0
 11 13  1  0
 13 14  1  0
 14 15  1  0
 15 16  1  0
 16 17  1  0
 17 18  1  0
 10  5  1  0
  1 19  1  0
  1 20  1  0
  1 21  1  0
  2 22  1  0
  2 23  1  0
  3 24  1  0
  3 25  1  0
  7 26  1  0
  8 27  1  0
  9 28  1  0
 13 29  1  0
 14 30  1  0
 14 31  1  0
 15 32  1  0
 15 33  1  0
 17 34  1  0
 17 35  1  0
 18 36  1  0
 18 37  1  0
 18 38  1  0
M  END
>  <UniqueID>  (2) 
1

>  <SMILES>  (2) 
CCCSc1ncccc1C(=O)NCCOCC

>  <Energy>  (2) 
26.716913964484633

>  <Genealogy>  (2) 
CCCSc1ncccc1C(=O)NCCOCC (3D coordinates assigned)
CCCSc1ncccc1C(=O)NCCOCC (optimized conformer: 26.716913964484633 kcal/mol)

>  <smiles>  (2) 
CCCSc1ncccc1C(=O)NCCOCC

>  <score_type>  (2) 
oracle

>  <origin>  (2) 
adg

>  <m_score__min__energy>  (2) 
-5.5800000000000001

>  <m_primary>  (2) 
energy

$$$$
2:0
     RDKit          3D

 55 57  0  0  0  0  0  0  0  0999 V2000
   63.2790   33.8690   46.3680 C   0  0  0  0  0  0  0  0  0  0  0  0
   63.6950   32.7620   47.3480 C   0  0  0  0  0  0  0  0  0  0  0  0
   62.9660   32.7800   48.6410 N   0  0  2  0  0  0  0  0  0  0  0  0
   62.4470   34.1280   48.9560 C   0  0  0  0  0  0  0  0  0  0  0  0
   63.7900   32.2330   49.7490 C   0  0  0  0  0  0  0  0  0  0  0  0
   62.9930   31.2500   50.6380 C   0  0  0  0  0  0  0  0  0  0  0  0
   62.0080   30.4570   49.8830 N   0  0  0  0  0  0  0  0  0  0  0  0
   60.6200   30.5920   50.3580 C   0  0  0  0  0  0  0  0  0  0  0  0
   59.6470   30.9500   49.2210 C   0  0  0  0  0  0  0  0  0  0  0  0
   60.2570   30.7690   47.9030 N   0  0  0  0  0  0  0  0  0  0  0  0
   59.4940   31.0230   46.7140 C   0  0  0  0  0  0  0  0  0  0  0  0
   59.3220   32.3360   46.2450 C   0  0  0  0  0  0  0  0  0  0  0  0
   59.8370   33.4340   46.9660 C   0  0  0  0  0  0  0  0  0  0  0  0
   59.6230   34.7370   46.5270 C   0  0  0  0  0  0  0  0  0  0  0  0
   58.8790   34.9710   45.3760 C   0  0  0  0  0  0  0  0  0  0  0  0
   58.3620   33.9010   44.6450 C   0  0  0  0  0  0  0  0  0  0  0  0
   58.5950   32.5600   45.0440 C   0  0  0  0  0  0  0  0  0  0  0  0
   58.1180   31.4880   44.3110 N   0  0  0  0  0  0  0  0  0  0  0  0
   57.6170   31.6980   42.9350 C   0  0  0  0  0  0  0  0  0  0  0  0
   58.1290   30.2180   44.8570 C   0  0  0  0  0  0  0  0  0  0  0  0
   57.4190   29.1420   44.2650 C   0  0  0  0  0  0  0  0  0  0  0  0
   57.4880   27.8550   44.7950 C   0  0  0  0  0  0  0  0  0  0  0  0
   58.2510   27.6050   45.9290 C   0  0  0  0  0  0  0  0  0  0  0  0
   58.9260   28.6470   46.5590 C   0  0  0  0  0  0  0  0  0  0  0  0
   58.8540   29.9620   46.0520 C   0  0  0  0  0  0  0  0  0  0  0  0
   62.9469   34.7527   46.9326 H   0  0  0  0  0  0  0  0  0  0  0  0
   64.1368   34.1395   45.7348 H   0  0  0  0  0  0  0  0  0  0  0  0
   62.4553   33.5076   45.7348 H   0  0  0  0  0  0  0  0  0  0  0  0
   63.5149   31.7901   46.8653 H   0  0  0  0  0  0  0  0  0  0  0  0
   64.7555   32.9346   47.5838 H   0  0  0  0  0  0  0  0  0  0  0  0
   62.1370   32.1530   48.5100 H   0  0  0  0  0  0  0  0  0  0  0  0
   62.3977   34.2561   50.0474 H   0  0  0  0  0  0  0  0  0  0  0  0
   63.1167   34.8881   48.5275 H   0  0  0  0  0  0  0  0  0  0  0  0
   61.4404   34.2427   48.5275 H   0  0  0  0  0  0  0  0  0  0  0  0
   64.6534   31.7030   49.3204 H   0  0  0  0  0  0  0  0  0  0  0  0
   64.1107   33.0753   50.3796 H   0  0  0  0  0  0  0  0  0  0  0  0
   63.7017   30.5607   51.1203 H   0  0  0  0  0  0  0  0  0  0  0  0
   62.4368   31.8499   51.3734 H   0  0  0  0  0  0  0  0  0  0  0  0
   62.2800   29.4470   49.9300 H   0  0  0  0  0  0  0  0  0  0  0  0
   60.3050   29.6382   50.8062 H   0  0  0  0  0  0  0  0  0  0  0  0
   60.5937   31.4092   51.0939 H   0  0  0  0  0  0  0  0  0  0  0  0
   58.7607   30.3027   49.2945 H   0  0  0  0  0  0  0  0  0  0  0  0
   59.3739   32.0102   49.3274 H   0  0  0  0  0  0  0  0  0  0  0  0
   61.2920   30.6700   47.8060 H   0  0  0  0  0  0  0  0  0  0  0  0
   60.4143   33.2580   47.8857 H   0  0  0  0  0  0  0  0  0  0  0  0
   60.0429   35.5828   47.0912 H   0  0  0  0  0  0  0  0  0  0  0  0
   58.6975   36.0028   45.0407 H   0  0  0  0  0  0  0  0  0  0  0  0
   57.7635   34.1008   43.7439 H   0  0  0  0  0  0  0  0  0  0  0  0
   56.6032   32.1230   42.9748 H   0  0  0  0  0  0  0  0  0  0  0  0
   58.2848   32.3919   42.4035 H   0  0  0  0  0  0  0  0  0  0  0  0
   57.5904   30.7353   42.4035 H   0  0  0  0  0  0  0  0  0  0  0  0
   56.8034   29.3267   43.3723 H   0  0  0  0  0  0  0  0  0  0  0  0
   56.9363   27.0340   44.3138 H   0  0  0  0  0  0  0  0  0  0  0  0
   58.3218   26.5829   46.3293 H   0  0  0  0  0  0  0  0  0  0  0  0
   59.5215   28.4432   47.4611 H   0  0  0  0  0  0  0  0  0  0  0  0
  1  2  1  0
  2  3  1  0
  3  4  1  0
  3  5  1  0
  5  6  1  0
  6  7  1  0
  7  8  1  0
  8  9  1  0
  9 10  1  0
 10 11  1  0
 11 12  2  0
 12 13  1  0
 13 14  2  0
 14 15  1  0
 15 16  2  0
 16 17  1  0
 17 18  2  0
 18 19  1  0
 18 20  1  0
 20 21  2  0
 21 22  1  0
 22 23  2  0
 23 24  1  0
 24 25  2  0
 25 11  1  0
 17 12  1  0
 25 20  1  0
  1 26  1  0
  1 27  1  0
  1 28  1  0
  2 29  1  0
  2 30  1  0
  3 31  1  6
  4 32  1  0
  4 33  1  0
  4 34  1  0
  5 35  1  0
  5 36  1  0
  6 37  1  0
  6 38  1  0
  7 39  1  0
  8 40  1  0
  8 41  1  0
  9 42  1  0
  9 43  1  0
 10 44  1  0
 13 45  1  0
 14 46  1  0
 15 47  1  0
 16 48  1  0
 19 49  1  0
 19 50  1  0
 19 51  1  0
 21 52  1  0
 22 53  1  0
 23 54  1  0
 24 55  1  0
M  CHG  2   3   1  18   1
M  END
>  <UniqueID>  (3) 
2

>  <SMILES>  (3) 
CC[N@H+](C)CCNCCNc1c2ccccc2[n+](C)c2ccccc12

>  <Energy>  (3) 
84.38483676450396

>  <Genealogy>  (3) 
CC[NH+](C)CCNCCNc1c2ccccc2[n+](C)c2ccccc12 (protonated)
CC[N@H+](C)CCNCCNc1c2ccccc2[n+](C)c2ccccc12 (chirality)
CC[N@H+](C)CCNCCNc1c2ccccc2[n+](C)c2ccccc12 (3D coordinates assigned)
CC[N@H+](C)CCNCCNc1c2ccccc2[n+](C)c2ccccc12 (optimized conformer: 84.38483676450396 kcal/mol)

>  <smiles>  (3) 
CCN(C)CCNCCNc1c2ccccc2[n+](C)c2ccccc12

>  <score_type>  (3) 
oracle

>  <origin>  (3) 
adg

>  <m_score__min__energy>  (3) 
-3.9300000000000002

>  <m_primary>  (3) 
energy

$$$$
3:0
     RDKit          3D

 60 62  0  0  0  0  0  0  0  0999 V2000
   57.8020   28.2600   44.0360 C   0  0  0  0  0  0  0  0  0  0  0  0
   56.9020   28.6170   45.2080 C   0  0  0  0  0  0  0  0  0  0  0  0
   56.1340   29.7530   44.8720 O   0  0  0  0  0  0  0  0  0  0  0  0
   56.6410   30.3300   43.6880 C   0  0  0  0  0  0  0  0  0  0  0  0
   57.4120   31.6070   44.0340 C   0  0  0  0  0  0  0  0  0  0  0  0
   57.2510   31.9660   45.4620 N   0  0  0  0  0  0  0  0  0  0  0  0
   58.3390   31.4070   46.3100 C   0  0  0  0  0  0  0  0  0  0  0  0
   58.9760   32.4330   47.2660 C   0  0  0  0  0  0  0  0  0  0  0  0
   59.3680   33.6700   46.5660 N   0  0  0  0  0  0  0  0  0  0  0  0
   60.7900   33.7580   46.1490 C   0  0  0  0  0  0  0  0  0  0  0  0
   61.7880   33.7370   47.3040 C   0  0  0  0  0  0  0  0  0  0  0  0
   63.1200   33.3910   47.0280 C   0  0  0  0  0  0  0  0  0  0  0  0
   64.0130   33.2270   48.0320 N   0  0  0  0  0  0  0  0  0  0  0  0
   63.6650   33.4310   49.3260 C   0  0  0  0  0  0  0  0  0  0  0  0
   64.6710   33.1360   50.4140 C   0  0  0  0  0  0  0  0  0  0  0  0
   64.1780   32.0300   51.3890 C   0  0  0  0  0  0  0  0  0  0  0  0
   64.9600   30.7160   51.2500 C   0  0  0  0  0  0  0  0  0  0  0  0
   66.4730   30.9260   51.4400 C   0  0  0  0  0  0  0  0  0  0  0  0
   67.0000   32.2470   50.8400 C   0  0  0  0  0  0  0  0  0  0  0  0
   66.0500   32.8280   49.7900 C   0  0  0  0  0  0  0  0  0  0  0  0
   62.4060   33.8550   49.6240 N   0  0  0  0  0  0  0  0  0  0  0  0
   61.4700   34.0600   48.6520 C   0  0  0  0  0  0  0  0  0  0  0  0
   60.1230   34.5810   49.0840 C   0  0  0  0  0  0  0  0  0  0  0  0
   58.3830   34.1850   45.5870 C   0  0  0  0  0  0  0  0  0  0  0  0
   57.0510   33.4210   45.6400 C   0  0  0  0  0  0  0  0  0  0  0  0
   58.7623   27.8791   44.4138 H   0  0  0  0  0  0  0  0  0  0  0  0
   57.3163   27.4864   43.4231 H   0  0  0  0  0  0  0  0  0  0  0  0
   57.9786   29.1562   43.4231 H   0  0  0  0  0  0  0  0  0  0  0  0
   56.2329   27.7724   45.4291 H   0  0  0  0  0  0  0  0  0  0  0  0
   57.5165   28.8342   46.0941 H   0  0  0  0  0  0  0  0  0  0  0  0
   57.3159   29.6169   43.1920 H   0  0  0  0  0  0  0  0  0  0  0  0
   55.8079   30.5754   43.0129 H   0  0  0  0  0  0  0  0  0  0  0  0
   58.4799   31.4484   43.8231 H   0  0  0  0  0  0  0  0  0  0  0  0
   57.0111   32.4294   43.4232 H   0  0  0  0  0  0  0  0  0  0  0  0
   57.9219   30.5859   46.9115 H   0  0  0  0  0  0  0  0  0  0  0  0
   59.1337   31.0702   45.6281 H   0  0  0  0  0  0  0  0  0  0  0  0
   58.2492   32.6849   48.0524 H   0  0  0  0  0  0  0  0  0  0  0  0
   59.8837   31.9818   47.6933 H   0  0  0  0  0  0  0  0  0  0  0  0
   61.0087   32.9050   45.4897 H   0  0  0  0  0  0  0  0  0  0  0  0
   60.9106   34.7295   45.6473 H   0  0  0  0  0  0  0  0  0  0  0  0
   63.4415   33.2517   45.9853 H   0  0  0  0  0  0  0  0  0  0  0  0
   64.7842   34.0347   51.0381 H   0  0  0  0  0  0  0  0  0  0  0  0
   64.2891   32.3967   52.4201 H   0  0  0  0  0  0  0  0  0  0  0  0
   63.1281   31.8161   51.1403 H   0  0  0  0  0  0  0  0  0  0  0  0
   64.6012   30.0064   52.0101 H   0  0  0  0  0  0  0  0  0  0  0  0
   64.7946   30.3265   50.2347 H   0  0  0  0  0  0  0  0  0  0  0  0
   66.6905   30.9240   52.5183 H   0  0  0  0  0  0  0  0  0  0  0  0
   66.9790   30.1080   50.9063 H   0  0  0  0  0  0  0  0  0  0  0  0
   67.1218   32.9801   51.6510 H   0  0  0  0  0  0  0  0  0  0  0  0
   67.9585   32.0328   50.3447 H   0  0  0  0  0  0  0  0  0  0  0  0
   66.4804   33.7571   49.3881 H   0  0  0  0  0  0  0  0  0  0  0  0
   65.9177   32.0900   48.9851 H   0  0  0  0  0  0  0  0  0  0  0  0
   62.1480   34.0240   50.6210 H   0  0  0  0  0  0  0  0  0  0  0  0
   60.0726   34.6005   50.1827 H   0  0  0  0  0  0  0  0  0  0  0  0
   59.9808   35.5990   48.6923 H   0  0  0  0  0  0  0  0  0  0  0  0
   59.3328   33.9237   48.6923 H   0  0  0  0  0  0  0  0  0  0  0  0
   58.1906   35.2461   45.8041 H   0  0  0  0  0  0  0  0  0  0  0  0
   58.8075   34.0502   44.5812 H   0  0  0  0  0  0  0  0  0  0  0  0
   56.5756   33.5994   46.6158 H   0  0  0  0  0  0  0  0  0  0  0  0
   56.4132   33.7837   44.8205 H   0  0  0  0  0  0  0  0  0  0  0  0
  1  2  1  0
  2  3  1  0
  3  4  1  0
  4  5  1  0
  5  6  1  0
  6  7  1  0
  7  8  1  0
  8  9  1  0
  9 10  1  0
 10 11  1  0
 11 12  2  0
 12 13  1  0
 13 14  2  0
 14 15  1  0
 15 16  1  0
 16 17  1  0
 17 18  1  0
 18 19  1  0
 19 20  1  0
 14 21  1  0
 21 22  2  0
 22 23  1  0
  9 24  1  0
 24 25  1  0
 25  6  1  0
 22 11  1  0
 20 15  1  0
  1 26  1  0
  1 27  1  0
  1 28  1  0
  2 29  1  0
  2 30  1  0
  4 31  1  0
  4 32  1  0
  5 33  1  0
  5 34  1  0
  7 35  1  0
  7 36  1  0
  8 37  1  0
  8 38  1  0
 10 39  1  0
 10 40  1  0
 12 41  1  0
 15 42  1  0
 16 43  1  0
 16 44  1  0
 17 45  1  0
 17 46  1  0
 18 47  1  0
 18 48  1  0
 19 49  1  0
 19 50  1  0
 20 51  1  0
 20 52  1  0
 21 53  1  0
 23 54  1  0
 23 55  1  0
 23 56  1  0
 24 57  1  0
 24 58  1  0
 25 59  1  0
 25 60  1  0
M  CHG  1  21   1
M  END
>  <UniqueID>  (4) 
3

>  <SMILES>  (4) 
CCOCCN1CCN(Cc2cnc(C3CCCCC3)[nH+]c2C)CC1

>  <Energy>  (4) 
78.49651964261275

>  <Genealogy>  (4) 
CCOCCN1CCN(Cc2cnc(C3CCCCC3)[nH+]c2C)CC1 (protonated)
CCOCCN1CCN(Cc2cnc(C3CCCCC3)[nH+]c2C)CC1 (3D coordinates assigned)
CCOCCN1CCN(Cc2cnc(C3CCCCC3)[nH+]c2C)CC1 (nonaromatic ring conformer: 78.49651964261275 kcal/mol)

>  <smiles>  (4) 
CCOCCN1CCN(Cc2cnc(C3CCCCC3)nc2C)CC1

>  <score_type>  (4) 
oracle

>  <origin>  (4) 
adg

>  <m_score__min__energy>  (4) 
-7.2000000000000002

>  <m_primary>  (4) 
energy

$$$$
4:0
     RDKit          3D

 42 44  0  0  0  0  0  0  0  0999 V2000
   57.7630   35.2235   44.8286 H   0  0  0  0  0  0  0  0  0  0  0  0
   58.3630   34.3140   44.9800 C   0  0  0  0  0  0  0  0  0  0  0  0
   58.2010   33.2840   44.1360 C   0  0  0  0  0  0  0  0  0  0  0  0
   58.0970   33.5003   43.0625 H   0  0  0  0  0  0  0  0  0  0  0  0
   58.1550   31.8690   44.5760 C   0  0  0  0  0  0  0  0  0  0  0  0
   57.0500   31.0870   44.2170 C   0  0  0  0  0  0  0  0  0  0  0  0
   56.2384   31.5225   43.6156 H   0  0  0  0  0  0  0  0  0  0  0  0
   56.9810   29.7540   44.6240 C   0  0  0  0  0  0  0  0  0  0  0  0
   56.1212   29.1334   44.3314 H   0  0  0  0  0  0  0  0  0  0  0  0
   58.0090   29.2050   45.4070 C   0  0  0  0  0  0  0  0  0  0  0  0
   58.0110   27.8720   45.8520 O   0  0  0  0  0  0  0  0  0  0  0  0
   57.2970   26.7870   45.2580 C   0  0  0  0  0  0  0  0  0  0  0  0
   58.0117   26.1185   44.7558 H   0  0  0  0  0  0  0  0  0  0  0  0
   56.5771   27.1966   44.5341 H   0  0  0  0  0  0  0  0  0  0  0  0
   56.5270   25.9930   46.3130 C   0  0  0  0  0  0  0  0  0  0  0  0
   56.7324   26.4146   47.3080 H   0  0  0  0  0  0  0  0  0  0  0  0
   56.8487   24.9416   46.2797 H   0  0  0  0  0  0  0  0  0  0  0  0
   55.1410   26.0620   46.0530 O   0  0  0  0  0  0  0  0  0  0  0  0
   54.6910   24.8130   45.5830 C   0  0  0  0  0  0  0  0  0  0  0  0
   54.4565   24.1622   46.4383 H   0  0  0  0  0  0  0  0  0  0  0  0
   53.7875   24.9551   44.9718 H   0  0  0  0  0  0  0  0  0  0  0  0
   55.4775   24.3462   44.9718 H   0  0  0  0  0  0  0  0  0  0  0  0
   59.0900   30.0210   45.7550 C   0  0  0  0  0  0  0  0  0  0  0  0
   59.9078   29.6093   46.3647 H   0  0  0  0  0  0  0  0  0  0  0  0
   59.1420   31.3190   45.3480 N   0  0  0  0  0  0  0  0  0  0  0  0
   59.9520   31.8910   45.6710 H   0  0  0  0  0  0  0  0  0  0  0  0
   59.3190   34.2700   46.1060 C   0  0  0  0  0  0  0  0  0  0  0  0
   60.6190   33.9090   45.9030 N   0  0  0  0  0  0  0  0  0  0  0  0
   61.5220   33.8600   46.9170 C   0  0  0  0  0  0  0  0  0  0  0  0
   62.8450   33.4820   46.6630 C   0  0  0  0  0  0  0  0  0  0  0  0
   63.1560   33.2225   45.6403 H   0  0  0  0  0  0  0  0  0  0  0  0
   63.7720   33.4340   47.7090 C   0  0  0  0  0  0  0  0  0  0  0  0
   64.8116   33.1368   47.5071 H   0  0  0  0  0  0  0  0  0  0  0  0
   63.3810   33.7630   49.0120 C   0  0  0  0  0  0  0  0  0  0  0  0
   64.1140   33.7235   49.8313 H   0  0  0  0  0  0  0  0  0  0  0  0
   62.0600   34.1420   49.2750 C   0  0  0  0  0  0  0  0  0  0  0  0
   61.7548   34.3997   50.2999 H   0  0  0  0  0  0  0  0  0  0  0  0
   61.1250   34.1930   48.2300 C   0  0  0  0  0  0  0  0  0  0  0  0
   59.7970   34.5680   48.4610 C   0  0  0  0  0  0  0  0  0  0  0  0
   59.4673   34.8308   49.4770 H   0  0  0  0  0  0  0  0  0  0  0  0
   58.8900   34.6080   47.3980 C   0  0  0  0  0  0  0  0  0  0  0  0
   57.8450   34.9031   47.5739 H   0  0  0  0  0  0  0  0  0  0  0  0
  1  2  1  0
  2  3  2  0
  3  4  1  0
  3  5  1  0
  5  6  2  0
  6  7  1  0
  6  8  1  0
  8  9  1  0
  8 10  2  0
 10 11  1  0
 11 12  1  0
 12 13  1  0
 12 14  1  0
 12 15  1  0
 15 16  1  0
 15 17  1  0
 15 18  1  0
 18 19  1  0
 19 20  1  0
 19 21  1  0
 19 22  1  0
 10 23  1  0
 23 24  1  0
 23 25  2  0
 25 26  1  0
  2 27  1  0
 27 28  2  0
 28 29  1  0
 29 30  2  0
 30 31  1  0
 30 32  1  0
 32 33  1  0
 32 34  2  0
 34 35  1  0
 34 36  1  0
 36 37  1  0
 36 38  2  0
 38 39  1  0
 39 40  1  0
 39 41  2  0
 41 42  1  0
 25  5  1  0
 41 27  1  0
 38 29  1  0
M  CHG  1  25   1
M  END
>  <UniqueID>  (5) 
4

>  <SMILES>  (5) 
COCCOc1ccc(/C=C/c2ccc3ccccc3n2)[nH+]c1

>  <Energy>  (5) 
49.09286847283637

>  <Genealogy>  (5) 
COCCOc1ccc(C=Cc2ccc3ccccc3n2)[nH+]c1 (protonated)
COCCOc1ccc(/C=C/c2ccc3ccccc3n2)[nH+]c1 (cis-trans isomerization)
COCCOc1ccc(/C=C/c2ccc3ccccc3n2)[nH+]c1 (3D coordinates assigned)
COCCOc1ccc(/C=C/c2ccc3ccccc3n2)[nH+]c1 (optimized conformer: 49.09286847283637 kcal/mol)

>  <smiles>  (5) 
COCCOc1ccc(C=Cc2ccc3ccccc3n2)nc1

>  <score_type>  (5) 
oracle

>  <origin>  (5) 
adg

>  <m_score__min__energy>  (5) 
-6.4699999999999998

>  <m_primary>  (5) 
energy

$$$$
5:0
     RDKit          3D

 62 66  0  0  0  0  0  0  0  0999 V2000
   58.5920   28.2100   46.7180 C   0  0  0  0  0  0  0  0  0  0  0  0
   58.1640   29.6770   46.7260 C   0  0  0  0  0  0  0  0  0  0  0  0
   57.7180   30.1160   45.3500 C   0  0  0  0  0  0  0  0  0  0  0  0
   57.0690   29.1880   44.5190 C   0  0  0  0  0  0  0  0  0  0  0  0
   56.6490   29.5530   43.2370 C   0  0  0  0  0  0  0  0  0  0  0  0
   56.8810   30.8460   42.7670 C   0  0  0  0  0  0  0  0  0  0  0  0
   57.5310   31.7790   43.5770 C   0  0  0  0  0  0  0  0  0  0  0  0
   57.9500   31.4310   44.8730 C   0  0  0  0  0  0  0  0  0  0  0  0
   58.6490   32.3950   45.6800 N   0  0  0  0  0  0  0  0  0  0  0  0
   58.6510   33.8010   45.3900 C   0  0  0  0  0  0  0  0  0  0  0  0
   57.8970   34.2710   44.4950 O   0  0  0  0  0  0  0  0  0  0  0  0
   59.5620   34.7210   46.1420 C   0  0  0  0  0  0  0  0  0  0  0  0
   59.7810   34.1960   47.5230 C   0  0  0  0  0  0  0  0  0  0  0  0
   58.8540   33.4620   48.1940 N   0  0  0  0  0  0  0  0  0  0  0  0
   59.4680   33.2880   49.3810 C   0  0  0  0  0  0  0  0  0  0  0  0
   58.9840   32.5940   50.4900 C   0  0  0  0  0  0  0  0  0  0  0  0
   57.7400   31.9480   50.5080 C   0  0  0  0  0  0  0  0  0  0  0  0
   57.3300   31.2700   51.6610 C   0  0  0  0  0  0  0  0  0  0  0  0
   58.1560   31.2350   52.7910 C   0  0  0  0  0  0  0  0  0  0  0  0
   59.3980   31.8810   52.7800 C   0  0  0  0  0  0  0  0  0  0  0  0
   59.8220   32.5610   51.6330 C   0  0  0  0  0  0  0  0  0  0  0  0
   61.0370   33.1890   51.6140 N   0  0  0  0  0  0  0  0  0  0  0  0
   61.4710   33.8500   50.5040 C   0  0  0  0  0  0  0  0  0  0  0  0
   63.0750   34.6540   50.4980 S   0  0  0  0  0  0  0  0  0  0  0  0
   64.0290   33.1000   50.3760 C   0  0  0  0  0  0  0  0  0  0  0  0
   64.0110   32.5620   48.9330 C   0  0  0  0  0  0  0  0  0  0  0  0
   62.7360   31.9300   48.5270 N   0  0  0  0  0  0  0  0  0  0  0  0
   62.7180   31.4450   47.1370 C   0  0  0  0  0  0  0  0  0  0  0  0
   61.2830   31.0190   46.7580 C   0  0  0  0  0  0  0  0  0  0  0  0
   60.4180   30.9530   47.8810 O   0  0  0  0  0  0  0  0  0  0  0  0
   61.0170   30.1840   48.9080 C   0  0  0  0  0  0  0  0  0  0  0  0
   62.2640   30.8960   49.4660 C   0  0  0  0  0  0  0  0  0  0  0  0
   60.6630   33.8810   49.4140 N   0  0  0  0  0  0  0  0  0  0  0  0
   60.8860   34.4690   48.2560 N   0  0  0  0  0  0  0  0  0  0  0  0
   58.6962   27.8528   47.7532 H   0  0  0  0  0  0  0  0  0  0  0  0
   57.8317   27.6091   46.1975 H   0  0  0  0  0  0  0  0  0  0  0  0
   59.5561   28.1122   46.1975 H   0  0  0  0  0  0  0  0  0  0  0  0
   57.3308   29.8053   47.4327 H   0  0  0  0  0  0  0  0  0  0  0  0
   59.0236   30.2924   47.0299 H   0  0  0  0  0  0  0  0  0  0  0  0
   56.8897   28.1647   44.8805 H   0  0  0  0  0  0  0  0  0  0  0  0
   56.1349   28.8201   42.5978 H   0  0  0  0  0  0  0  0  0  0  0  0
   56.5513   31.1307   41.7569 H   0  0  0  0  0  0  0  0  0  0  0  0
   57.7168   32.7948   43.1980 H   0  0  0  0  0  0  0  0  0  0  0  0
   59.1440   32.0680   46.5390 H   0  0  0  0  0  0  0  0  0  0  0  0
   60.5274   34.7875   45.6189 H   0  0  0  0  0  0  0  0  0  0  0  0
   59.1036   35.7192   46.2006 H   0  0  0  0  0  0  0  0  0  0  0  0
   57.0901   31.9740   49.6209 H   0  0  0  0  0  0  0  0  0  0  0  0
   56.3544   30.7622   51.6799 H   0  0  0  0  0  0  0  0  0  0  0  0
   57.8273   30.6970   53.6924 H   0  0  0  0  0  0  0  0  0  0  0  0
   60.0402   31.8540   53.6727 H   0  0  0  0  0  0  0  0  0  0  0  0
   65.0696   33.2905   50.6774 H   0  0  0  0  0  0  0  0  0  0  0  0
   63.5709   32.3508   51.0385 H   0  0  0  0  0  0  0  0  0  0  0  0
   64.2100   33.4020   48.2512 H   0  0  0  0  0  0  0  0  0  0  0  0
   64.7783   31.7754   48.8840 H   0  0  0  0  0  0  0  0  0  0  0  0
   63.0515   32.2487   46.4641 H   0  0  0  0  0  0  0  0  0  0  0  0
   63.3935   30.5821   47.0414 H   0  0  0  0  0  0  0  0  0  0  0  0
   60.8763   31.7490   46.0426 H   0  0  0  0  0  0  0  0  0  0  0  0
   61.3394   30.0108   46.3216 H   0  0  0  0  0  0  0  0  0  0  0  0
   60.2902   30.0390   49.7209 H   0  0  0  0  0  0  0  0  0  0  0  0
   61.3219   29.2132   48.4902 H   0  0  0  0  0  0  0  0  0  0  0  0
   62.0108   31.3686   50.4265 H   0  0  0  0  0  0  0  0  0  0  0  0
   63.0631   30.1532   49.6059 H   0  0  0  0  0  0  0  0  0  0  0  0
  1  2  1  0
  2  3  1  0
  3  4  2  0
  4  5  1  0
  5  6  2  0
  6  7  1  0
  7  8  2  0
  8  9  1  0
  9 10  1  0
 10 11  2  0
 10 12  1  0
 12 13  1  0
 13 14  1  0
 14 15  2  0
 15 16  1  0
 16 17  2  0
 17 18  1  0
 18 19  2  0
 19 20  1  0
 20 21  2  0
 21 22  1  0
 22 23  2  0
 23 24  1  0
 24 25  1  0
 25 26  1  0
 26 27  1  0
 27 28  1  0
 28 29  1  0
 29 30  1  0
 30 31  1  0
 31 32  1  0
 23 33  1  0
 33 34  1  0
  8  3  1  0
 34 13  2  0
 33 15  1  0
 21 16  1  0
 32 27  1  0
  1 35  1  0
  1 36  1  0
  1 37  1  0
  2 38  1  0
  2 39  1  0
  4 40  1  0
  5 41  1  0
  6 42  1  0
  7 43  1  0
  9 44  1  0
 12 45  1  0
 12 46  1  0
 17 47  1  0
 18 48  1  0
 19 49  1  0
 20 50  1  0
 25 51  1  0
 25 52  1  0
 26 53  1  0
 26 54  1  0
 28 55  1  0
 28 56  1  0
 29 57  1  0
 29 58  1  0
 31 59  1  0
 31 60  1  0
 32 61  1  0
 32 62  1  0
M  END
>  <UniqueID>  (6) 
5

>  <SMILES>  (6) 
CCc1ccccc1NC(=O)Cc1nc2c3ccccc3nc(SCCN3CCOCC3)n2n1

>  <Energy>  (6) 
115.01657250145882

>  <Genealogy>  (6) 
CCc1ccccc1NC(=O)Cc1nc2c3ccccc3nc(SCCN3CCOCC3)n2n1 (3D coordinates assigned)
CCc1ccccc1NC(=O)Cc1nc2c3ccccc3nc(SCCN3CCOCC3)n2n1 (nonaromatic ring conformer: 115.01657250145882 kcal/mol)

>  <smiles>  (6) 
CCc1ccccc1NC(=O)Cc1nc2c3ccccc3nc(SCCN3CCOCC3)n2n1

>  <score_type>  (6) 
oracle

>  <origin>  (6) 
adg

>  <m_score__min__energy>  (6) 
-9.5299999999999994

>  <m_primary>  (6) 
energy

$$$$
6:0
     RDKit          3D

 44 45  0  0  0  0  0  0  0  0999 V2000
   60.9800   29.7620   48.4350 C   0  0  0  0  0  0  0  0  0  0  0  0
   60.9640   31.1160   47.8530 N   0  0  0  0  0  0  0  0  0  0  0  0
   59.7740   31.6530   47.4170 C   0  0  0  0  0  0  0  0  0  0  0  0
   58.6940   31.0050   47.5160 O   0  0  0  0  0  0  0  0  0  0  0  0
   59.7890   32.9290   46.8660 C   0  0  0  0  0  0  0  0  0  0  0  0
   60.9530   33.6110   46.7510 C   0  0  0  0  0  0  0  0  0  0  0  0
   60.7460   34.8290   46.2100 N   0  0  0  0  0  0  0  0  0  0  0  0
   59.4030   34.8440   46.0050 C   0  0  0  0  0  0  0  0  0  0  0  0
   58.7900   33.6960   46.3870 N   0  0  0  0  0  0  0  0  0  0  0  0
   57.3560   33.4180   46.3250 C   0  0  0  0  0  0  0  0  0  0  0  0
   57.0140   32.6590   45.0420 C   0  0  0  0  0  0  0  0  0  0  0  0
   57.3160   31.2310   45.2120 N   0  0  0  0  0  0  0  0  0  0  0  0
   57.5210   30.5690   43.9150 C   0  0  0  0  0  0  0  0  0  0  0  0
   58.0210   29.1270   44.1300 C   0  0  0  0  0  0  0  0  0  0  0  0
   58.9170   29.0050   45.3050 N   0  0  0  0  0  0  0  0  0  0  0  0
   58.5860   27.7850   46.0600 C   0  0  0  0  0  0  0  0  0  0  0  0
   60.3360   28.9640   44.9020 C   0  0  0  0  0  0  0  0  0  0  0  0
   62.1480   33.0790   47.1280 N   0  0  0  0  0  0  0  0  0  0  0  0
   63.3950   33.8450   46.9900 C   0  0  0  0  0  0  0  0  0  0  0  0
   62.1480   31.8200   47.6890 C   0  0  0  0  0  0  0  0  0  0  0  0
   63.2420   31.3010   48.0520 O   0  0  0  0  0  0  0  0  0  0  0  0
   60.9791   29.8347   49.5326 H   0  0  0  0  0  0  0  0  0  0  0  0
   60.0883   29.2098   48.1034 H   0  0  0  0  0  0  0  0  0  0  0  0
   61.8845   29.2310   48.1034 H   0  0  0  0  0  0  0  0  0  0  0  0
   58.8665   35.7014   45.5725 H   0  0  0  0  0  0  0  0  0  0  0  0
   57.0672   32.8088   47.1942 H   0  0  0  0  0  0  0  0  0  0  0  0
   56.8075   34.3715   46.3320 H   0  0  0  0  0  0  0  0  0  0  0  0
   55.9438   32.7818   44.8195 H   0  0  0  0  0  0  0  0  0  0  0  0
   57.6140   33.0605   44.2120 H   0  0  0  0  0  0  0  0  0  0  0  0
   58.2130   31.1640   45.7530 H   0  0  0  0  0  0  0  0  0  0  0  0
   56.5693   30.5458   43.3638 H   0  0  0  0  0  0  0  0  0  0  0  0
   58.2729   31.1290   43.3396 H   0  0  0  0  0  0  0  0  0  0  0  0
   57.1510   28.4709   44.2804 H   0  0  0  0  0  0  0  0  0  0  0  0
   58.5975   28.8373   43.2391 H   0  0  0  0  0  0  0  0  0  0  0  0
   58.7730   29.8240   45.9430 H   0  0  0  0  0  0  0  0  0  0  0  0
   58.6428   27.9944   47.1384 H   0  0  0  0  0  0  0  0  0  0  0  0
   57.5671   27.4597   45.8028 H   0  0  0  0  0  0  0  0  0  0  0  0
   59.3008   26.9894   45.8028 H   0  0  0  0  0  0  0  0  0  0  0  0
   60.9717   28.9456   45.7995 H   0  0  0  0  0  0  0  0  0  0  0  0
   60.5211   28.0601   44.3030 H   0  0  0  0  0  0  0  0  0  0  0  0
   60.5730   29.8557   44.3030 H   0  0  0  0  0  0  0  0  0  0  0  0
   63.7890   34.0870   47.9881 H   0  0  0  0  0  0  0  0  0  0  0  0
   64.1347   33.2453   46.4393 H   0  0  0  0  0  0  0  0  0  0  0  0
   63.1945   34.7759   46.4393 H   0  0  0  0  0  0  0  0  0  0  0  0
  1  2  1  0
  2  3  1  0
  3  4  2  0
  3  5  1  0
  5  6  2  0
  6  7  1  0
  7  8  2  0
  8  9  1  0
  9 10  1  0
 10 11  1  0
 11 12  1  0
 12 13  1  0
 13 14  1  0
 14 15  1  0
 15 16  1  0
 15 17  1  0
  6 18  1  0
 18 19  1  0
 18 20  1  0
 20 21  2  0
 20  2  1  0
  9  5  1  0
  1 22  1  0
  1 23  1  0
  1 24  1  0
  8 25  1  0
 10 26  1  0
 10 27  1  0
 11 28  1  0
 11 29  1  0
 12 30  1  0
 13 31  1  0
 13 32  1  0
 14 33  1  0
 14 34  1  0
 15 35  1  0
 16 36  1  0
 16 37  1  0
 16 38  1  0
 17 39  1  0
 17 40  1  0
 17 41  1  0
 19 42  1  0
 19 43  1  0
 19 44  1  0
M  CHG  1  15   1
M  END
>  <UniqueID>  (7) 
6

>  <SMILES>  (7) 
Cn1c(=O)c2c(ncn2CCNCC[NH+](C)C)n(C)c1=O

>  <Energy>  (7) 
85.17616438815345

>  <Genealogy>  (7) 
Cn1c(=O)c2c(ncn2CCNCC[NH+](C)C)n(C)c1=O (protonated)
Cn1c(=O)c2c(ncn2CCNCC[NH+](C)C)n(C)c1=O (3D coordinates assigned)
Cn1c(=O)c2c(ncn2CCNCC[NH+](C)C)n(C)c1=O (optimized conformer: 85.17616438815345 kcal/mol)

>  <smiles>  (7) 
CN(C)CCNCCn1cnc2c1c(=O)n(C)c(=O)n2C

>  <score_type>  (7) 
oracle

>  <origin>  (7) 
adg

>  <m_score__min__energy>  (7) 
-3.5600000000000001

>  <m_primary>  (7) 
energy

$$$$
7:0
     RDKit          3D

 54 56  0  0  0  0  0  0  0  0999 V2000
   64.3030   32.7700   49.0180 C   0  0  0  0  0  0  0  0  0  0  0  0
   63.2030   31.7030   49.0590 C   0  0  0  0  0  0  0  0  0  0  0  0
   61.8850   32.2340   48.6300 N   0  0  0  0  0  0  0  0  0  0  0  0
   61.7260   32.1980   47.1450 C   0  0  0  0  0  0  0  0  0  0  0  0
   61.9350   33.5740   46.4870 C   0  0  0  0  0  0  0  0  0  0  0  0
   61.0150   34.5970   47.0370 N   0  0  0  0  0  0  0  0  0  0  0  0
   59.9040   34.9850   46.1360 C   0  0  0  0  0  0  0  0  0  0  0  0
   58.9990   33.8320   45.7470 C   0  0  0  0  0  0  0  0  0  0  0  0
   58.5760   32.9080   46.7130 C   0  0  0  0  0  0  0  0  0  0  0  0
   57.7820   31.8190   46.3520 C   0  0  0  0  0  0  0  0  0  0  0  0
   57.3810   31.6410   45.0150 C   0  0  0  0  0  0  0  0  0  0  0  0
   56.6150   30.5380   44.6040 O   0  0  0  0  0  0  0  0  0  0  0  0
   57.1180   29.4050   43.8920 C   0  0  0  0  0  0  0  0  0  0  0  0
   58.2560   28.7670   44.6450 C   0  0  0  0  0  0  0  0  0  0  0  0
   59.5690   29.2480   44.4980 C   0  0  0  0  0  0  0  0  0  0  0  0
   60.6210   28.6450   45.1940 C   0  0  0  0  0  0  0  0  0  0  0  0
   60.3700   27.5660   46.0450 C   0  0  0  0  0  0  0  0  0  0  0  0
   59.0670   27.0900   46.2060 C   0  0  0  0  0  0  0  0  0  0  0  0
   58.0120   27.6900   45.5120 C   0  0  0  0  0  0  0  0  0  0  0  0
   57.7540   32.5880   44.0500 C   0  0  0  0  0  0  0  0  0  0  0  0
   57.3200   32.3980   42.7280 O   0  0  0  0  0  0  0  0  0  0  0  0
   58.1810   32.3390   41.5970 C   0  0  0  0  0  0  0  0  0  0  0  0
   58.5530   33.6870   44.4230 C   0  0  0  0  0  0  0  0  0  0  0  0
   60.5950   34.3550   48.4340 C   0  0  0  0  0  0  0  0  0  0  0  0
   61.6770   33.5900   49.2020 C   0  0  0  0  0  0  0  0  0  0  0  0
   64.5860   33.0445   50.0449 H   0  0  0  0  0  0  0  0  0  0  0  0
   65.1815   32.3709   48.4898 H   0  0  0  0  0  0  0  0  0  0  0  0
   63.9308   33.6602   48.4898 H   0  0  0  0  0  0  0  0  0  0  0  0
   63.4863   30.8773   48.3896 H   0  0  0  0  0  0  0  0  0  0  0  0
   63.1049   31.3615   50.1000 H   0  0  0  0  0  0  0  0  0  0  0  0
   61.1390   31.6210   49.0410 H   0  0  0  0  0  0  0  0  0  0  0  0
   62.4631   31.4948   46.7300 H   0  0  0  0  0  0  0  0  0  0  0  0
   60.6941   31.8828   46.9309 H   0  0  0  0  0  0  0  0  0  0  0  0
   62.9716   33.8977   46.6619 H   0  0  0  0  0  0  0  0  0  0  0  0
   61.7265   33.4720   45.4118 H   0  0  0  0  0  0  0  0  0  0  0  0
   59.2953   35.7471   46.6446 H   0  0  0  0  0  0  0  0  0  0  0  0
   60.3606   35.3604   45.2083 H   0  0  0  0  0  0  0  0  0  0  0  0
   58.8724   33.0427   47.7637 H   0  0  0  0  0  0  0  0  0  0  0  0
   57.4674   31.0947   47.1177 H   0  0  0  0  0  0  0  0  0  0  0  0
   56.3100   28.6691   43.7667 H   0  0  0  0  0  0  0  0  0  0  0  0
   57.4855   29.7382   42.9102 H   0  0  0  0  0  0  0  0  0  0  0  0
   59.7691   30.1013   43.8334 H   0  0  0  0  0  0  0  0  0  0  0  0
   61.6476   29.0207   45.0713 H   0  0  0  0  0  0  0  0  0  0  0  0
   61.1996   27.0907   46.5889 H   0  0  0  0  0  0  0  0  0  0  0  0
   58.8706   26.2425   46.8792 H   0  0  0  0  0  0  0  0  0  0  0  0
   56.9860   27.3165   45.6459 H   0  0  0  0  0  0  0  0  0  0  0  0
   59.2255   32.2674   41.9346 H   0  0  0  0  0  0  0  0  0  0  0  0
   57.9302   31.4559   40.9909 H   0  0  0  0  0  0  0  0  0  0  0  0
   58.0530   33.2480   40.9909 H   0  0  0  0  0  0  0  0  0  0  0  0
   58.8303   34.4391   43.6697 H   0  0  0  0  0  0  0  0  0  0  0  0
   60.4157   35.3207   48.9292 H   0  0  0  0  0  0  0  0  0  0  0  0
   59.6749   33.7522   48.4264 H   0  0  0  0  0  0  0  0  0  0  0  0
   62.6213   34.1515   49.1466 H   0  0  0  0  0  0  0  0  0  0  0  0
   61.3513   33.4811   50.2470 H   0  0  0  0  0  0  0  0  0  0  0  0
  1  2  1  0
  2  3  1  0
  3  4  1  0
  4  5  1  0
  5  6  1  0
  6  7  1  0
  7  8  1  0
  8  9  2  0
  9 10  1  0
 10 11  2  0
 11 12  1  0
 12 13  1  0
 13 14  1  0
 14 15  2  0
 15 16  1  0
 16 17  2  0
 17 18  1  0
 18 19  2  0
 11 20  1  0
 20 21  1  0
 21 22  1  0
 20 23  2  0
  6 24  1  0
 24 25  1  0
 25  3  1  0
 23  8  1  0
 19 14  1  0
  1 26  1  0
  1 27  1  0
  1 28  1  0
  2 29  1  0
  2 30  1  0
  3 31  1  0
  4 32  1  0
  4 33  1  0
  5 34  1  0
  5 35  1  0
  7 36  1  0
  7 37  1  0
  9 38  1  0
 10 39  1  0
 13 40  1  0
 13 41  1  0
 15 42  1  0
 16 43  1  0
 17 44  1  0
 18 45  1  0
 19 46  1  0
 22 47  1  0
 22 48  1  0
 22 49  1  0
 23 50  1  0
 24 51  1  0
 24 52  1  0
 25 53  1  0
 25 54  1  0
M  CHG  1   3   1
M  END
>  <UniqueID>  (8) 
7

>  <SMILES>  (8) 
CC[NH+]1CCN(Cc2ccc(OCc3ccccc3)c(OC)c2)CC1

>  <Energy>  (8) 
68.52475797758406

>  <Genealogy>  (8) 
CC[NH+]1CCN(Cc2ccc(OCc3ccccc3)c(OC)c2)CC1 (protonated)
CC[NH+]1CCN(Cc2ccc(OCc3ccccc3)c(OC)c2)CC1 (3D coordinates assigned)
CC[NH+]1CCN(Cc2ccc(OCc3ccccc3)c(OC)c2)CC1 (nonaromatic ring conformer: 68.52475797758406 kcal/mol)

>  <smiles>  (8) 
CCN1CCN(Cc2ccc(OCc3ccccc3)c(OC)c2)CC1

>  <score_type>  (8) 
oracle

>  <origin>  (8) 
adg

>  <m_score__min__energy>  (8) 
-6.2699999999999996

>  <m_primary>  (8) 
energy

$$$$
8:0
     RDKit          3D

 55 58  0  0  0  0  0  0  0  0999 V2000
   61.1440   34.1890   49.6910 C   0  0  0  0  0  0  0  0  0  0  0  0
   62.5710   34.2180   49.1450 C   0  0  0  0  0  0  0  0  0  0  0  0
   63.1810   32.8730   49.2230 N   0  0  0  0  0  0  0  0  0  0  0  0
   64.2010   32.8390   50.2850 C   0  0  0  0  0  0  0  0  0  0  0  0
   63.7670   32.4620   47.9250 C   0  0  0  0  0  0  0  0  0  0  0  0
   62.7340   31.6660   47.1140 C   0  0  0  0  0  0  0  0  0  0  0  0
   61.5270   31.3350   47.8940 N   0  0  0  0  0  0  0  0  0  0  0  0
   60.3400   31.2510   47.0600 C   0  0  0  0  0  0  0  0  0  0  0  0
   59.7670   32.3750   46.3890 C   0  0  0  0  0  0  0  0  0  0  0  0
   60.3110   33.6760   46.5090 C   0  0  0  0  0  0  0  0  0  0  0  0
   59.7070   34.7680   45.8900 C   0  0  0  0  0  0  0  0  0  0  0  0
   58.5460   34.6010   45.1500 C   0  0  0  0  0  0  0  0  0  0  0  0
   57.9880   33.3350   44.9950 C   0  0  0  0  0  0  0  0  0  0  0  0
   58.5920   32.1920   45.5740 C   0  0  0  0  0  0  0  0  0  0  0  0
   58.0560   30.9280   45.3840 N   0  0  0  0  0  0  0  0  0  0  0  0
   57.0570   30.6620   44.3350 C   0  0  0  0  0  0  0  0  0  0  0  0
   58.5420   29.9010   46.1490 C   0  0  0  0  0  0  0  0  0  0  0  0
   59.6700   30.0290   46.9290 C   0  0  0  0  0  0  0  0  0  0  0  0
   59.9840   28.8600   47.5310 N   0  0  0  0  0  0  0  0  0  0  0  0
   59.0230   27.9950   47.1550 C   0  0  0  0  0  0  0  0  0  0  0  0
   58.8940   26.6730   47.5740 C   0  0  0  0  0  0  0  0  0  0  0  0
   57.7770   25.9460   47.1350 C   0  0  0  0  0  0  0  0  0  0  0  0
   56.7970   26.5470   46.3150 C   0  0  0  0  0  0  0  0  0  0  0  0
   55.6890   25.7750   45.9380 O   0  0  0  0  0  0  0  0  0  0  0  0
   55.7710   24.5390   45.2340 C   0  0  0  0  0  0  0  0  0  0  0  0
   56.9520   27.8950   45.9100 C   0  0  0  0  0  0  0  0  0  0  0  0
   58.1000   28.5870   46.3170 C   0  0  0  0  0  0  0  0  0  0  0  0
   61.1721   34.1896   50.7906 H   0  0  0  0  0  0  0  0  0  0  0  0
   60.5981   35.0762   49.3377 H   0  0  0  0  0  0  0  0  0  0  0  0
   60.6346   33.2803   49.3377 H   0  0  0  0  0  0  0  0  0  0  0  0
   62.5507   34.5463   48.0953 H   0  0  0  0  0  0  0  0  0  0  0  0
   63.1695   34.9164   49.7484 H   0  0  0  0  0  0  0  0  0  0  0  0
   63.7076   32.8554   51.2680 H   0  0  0  0  0  0  0  0  0  0  0  0
   64.7987   31.9204   50.1901 H   0  0  0  0  0  0  0  0  0  0  0  0
   64.8585   33.7157   50.1901 H   0  0  0  0  0  0  0  0  0  0  0  0
   64.0638   33.3573   47.3590 H   0  0  0  0  0  0  0  0  0  0  0  0
   64.6480   31.8297   48.1093 H   0  0  0  0  0  0  0  0  0  0  0  0
   62.4351   32.2651   46.2412 H   0  0  0  0  0  0  0  0  0  0  0  0
   63.2060   30.7181   46.8160 H   0  0  0  0  0  0  0  0  0  0  0  0
   61.6820   30.4800   48.4700 H   0  0  0  0  0  0  0  0  0  0  0  0
   61.3800   32.0920   48.6000 H   0  0  0  0  0  0  0  0  0  0  0  0
   61.2258   33.8274   47.1008 H   0  0  0  0  0  0  0  0  0  0  0  0
   60.1534   35.7685   45.9887 H   0  0  0  0  0  0  0  0  0  0  0  0
   58.0639   35.4727   44.6835 H   0  0  0  0  0  0  0  0  0  0  0  0
   57.0618   33.2203   44.4127 H   0  0  0  0  0  0  0  0  0  0  0  0
   56.0945   30.4057   44.8018 H   0  0  0  0  0  0  0  0  0  0  0  0
   56.9341   31.5587   43.7099 H   0  0  0  0  0  0  0  0  0  0  0  0
   57.3963   29.8229   43.7099 H   0  0  0  0  0  0  0  0  0  0  0  0
   60.7770   28.6590   48.1810 H   0  0  0  0  0  0  0  0  0  0  0  0
   59.6465   26.2118   48.2305 H   0  0  0  0  0  0  0  0  0  0  0  0
   57.6632   24.8935   47.4337 H   0  0  0  0  0  0  0  0  0  0  0  0
   55.8260   23.7096   45.9545 H   0  0  0  0  0  0  0  0  0  0  0  0
   54.8790   24.4171   44.6020 H   0  0  0  0  0  0  0  0  0  0  0  0
   56.6713   24.5360   44.6020 H   0  0  0  0  0  0  0  0  0  0  0  0
   56.1884   28.3875   45.2900 H   0  0  0  0  0  0  0  0  0  0  0  0
  1  2  1  0
  2  3  1  0
  3  4  1  0
  3  5  1  0
  5  6  1  0
  6  7  1  0
  7  8  1  0
  8  9  2  0
  9 10  1  0
 10 11  2  0
 11 12  1  0
 12 13  2  0
 13 14  1  0
 14 15  2  0
 15 16  1  0
 15 17  1  0
 17 18  2  0
 18 19  1  0
 19 20  1  0
 20 21  2  0
 21 22  1  0
 22 23  2  0
 23 24  1  0
 24 25  1  0
 23 26  1  0
 26 27  2  0
 18  8  1  0
 27 20  1  0
 14  9  1  0
 27 17  1  0
  1 28  1  0
  1 29  1  0
  1 30  1  0
  2 31  1  0
  2 32  1  0
  4 33  1  0
  4 34  1  0
  4 35  1  0
  5 36  1  0
  5 37  1  0
  6 38  1  0
  6 39  1  0
  7 40  1  0
  7 41  1  0
 10 42  1  0
 11 43  1  0
 12 44  1  0
 13 45  1  0
 16 46  1  0
 16 47  1  0
 16 48  1  0
 19 49  1  0
 21 50  1  0
 22 51  1  0
 25 52  1  0
 25 53  1  0
 25 54  1  0
 26 55  1  0
M  CHG  2   7   1  15   1
M  END
>  <UniqueID>  (9) 
8

>  <SMILES>  (9) 
CCN(C)CC[NH2+]c1c2ccccc2[n+](C)c2c1[nH]c1ccc(OC)cc12

>  <Energy>  (9) 
116.98489674695821

>  <Genealogy>  (9) 
CCN(C)CC[NH2+]c1c2ccccc2[n+](C)c2c1[nH]c1ccc(OC)cc12 (protonated)
CCN(C)CC[NH2+]c1c2ccccc2[n+](C)c2c1[nH]c1ccc(OC)cc12 (3D coordinates assigned)
CCN(C)CC[NH2+]c1c2ccccc2[n+](C)c2c1[nH]c1ccc(OC)cc12 (optimized conformer: 116.98489674695821 kcal/mol)

>  <smiles>  (9) 
CCN(C)CCNc1c2ccccc2[n+](C)c2c1[nH]c1ccc(OC)cc12

>  <score_type>  (9) 
oracle

>  <origin>  (9) 
adg

>  <m_score__min__energy>  (9) 
-4.6900000000000004

>  <m_primary>  (9) 
energy

$$$$
9:0
     RDKit          3D

 42 44  0  0  0  0  0  0  0  0999 V2000
   60.7990   30.0500   46.3490 C   0  0  0  0  0  0  0  0  0  0  0  0
   59.8120   30.8310   45.6840 O   0  0  0  0  0  0  0  0  0  0  0  0
   58.5620   30.3520   45.2620 C   0  0  0  0  0  0  0  0  0  0  0  0
   58.0880   29.0860   45.6630 C   0  0  0  0  0  0  0  0  0  0  0  0
   56.8230   28.6460   45.2720 C   0  0  0  0  0  0  0  0  0  0  0  0
   56.0060   29.4660   44.4960 C   0  0  0  0  0  0  0  0  0  0  0  0
   54.7720   29.0430   44.1300 F   0  0  0  0  0  0  0  0  0  0  0  0
   56.4630   30.7210   44.0860 C   0  0  0  0  0  0  0  0  0  0  0  0
   57.7540   31.1620   44.4320 C   0  0  0  0  0  0  0  0  0  0  0  0
   58.2370   32.5050   43.9140 C   0  0  0  0  0  0  0  0  0  0  0  0
   57.9330   33.6450   44.8140 N   0  0  0  0  0  0  0  0  0  0  0  0
   58.9310   34.7360   44.8590 C   0  0  0  0  0  0  0  0  0  0  0  0
   60.0200   34.4920   45.9240 C   0  0  0  0  0  0  0  0  0  0  0  0
   59.4820   33.7770   47.0900 N   0  0  0  0  0  0  0  0  0  0  0  0
   60.3160   32.9190   47.9030 C   0  0  0  0  0  0  0  0  0  0  0  0
   59.7810   32.0690   48.6650 O   0  0  0  0  0  0  0  0  0  0  0  0
   61.7910   32.9880   47.8630 C   0  0  0  0  0  0  0  0  0  0  0  0
   62.6490   32.1910   48.5960 C   0  0  0  0  0  0  0  0  0  0  0  0
   63.9210   32.5920   48.2490 C   0  0  0  0  0  0  0  0  0  0  0  0
   63.7630   33.6110   47.3320 C   0  0  0  0  0  0  0  0  0  0  0  0
   62.4840   33.8260   47.1250 O   0  0  0  0  0  0  0  0  0  0  0  0
   58.0380   33.8560   47.3220 C   0  0  0  0  0  0  0  0  0  0  0  0
   57.2870   33.3030   46.1040 C   0  0  0  0  0  0  0  0  0  0  0  0
   60.6733   30.1495   47.4373 H   0  0  0  0  0  0  0  0  0  0  0  0
   60.6859   28.9942   46.0618 H   0  0  0  0  0  0  0  0  0  0  0  0
   61.8005   30.4028   46.0618 H   0  0  0  0  0  0  0  0  0  0  0  0
   58.7208   28.4399   46.2893 H   0  0  0  0  0  0  0  0  0  0  0  0
   56.4699   27.6498   45.5769 H   0  0  0  0  0  0  0  0  0  0  0  0
   55.8077   31.3705   43.4871 H   0  0  0  0  0  0  0  0  0  0  0  0
   59.3275   32.4518   43.7797 H   0  0  0  0  0  0  0  0  0  0  0  0
   57.7022   32.6930   42.9713 H   0  0  0  0  0  0  0  0  0  0  0  0
   59.4123   34.8156   43.8731 H   0  0  0  0  0  0  0  0  0  0  0  0
   58.4028   35.6635   45.1252 H   0  0  0  0  0  0  0  0  0  0  0  0
   60.8278   33.8927   45.4786 H   0  0  0  0  0  0  0  0  0  0  0  0
   60.3976   35.4684   46.2617 H   0  0  0  0  0  0  0  0  0  0  0  0
   62.3738   31.4000   49.3091 H   0  0  0  0  0  0  0  0  0  0  0  0
   64.8697   32.1828   48.6264 H   0  0  0  0  0  0  0  0  0  0  0  0
   64.5840   34.1601   46.8477 H   0  0  0  0  0  0  0  0  0  0  0  0
   57.7778   33.2638   48.2117 H   0  0  0  0  0  0  0  0  0  0  0  0
   57.7516   34.9062   47.4802 H   0  0  0  0  0  0  0  0  0  0  0  0
   57.2386   32.2075   46.1910 H   0  0  0  0  0  0  0  0  0  0  0  0
   56.2874   33.7621   46.1005 H   0  0  0  0  0  0  0  0  0  0  0  0
  1  2  1  0
  2  3  1  0
  3  4  2  0
  4  5  1  0
  5  6  2  0
  6  7  1  0
  6  8  1  0
  8  9  2  0
  9 10  1  0
 10 11  1  0
 11 12  1  0
 12 13  1  0
 13 14  1  0
 14 15  1  0
 15 16  2  0
 15 17  1  0
 17 18  2  0
 18 19  1  0
 19 20  2  0
 20 21  1  0
 14 22  1  0
 22 23  1  0
  9  3  1  0
 23 11  1  0
 21 17  1  0
  1 24  1  0
  1 25  1  0
  1 26  1  0
  4 27  1  0
  5 28  1  0
  8 29  1  0
 10 30  1  0
 10 31  1  0
 12 32  1  0
 12 33  1  0
 13 34  1  0
 13 35  1  0
 18 36  1  0
 19 37  1  0
 20 38  1  0
 22 39  1  0
 22 40  1  0
 23 41  1  0
 23 42  1  0
M  END
>  <UniqueID>  (10) 
9

>  <SMILES>  (10) 
COc1ccc(F)cc1CN1CCN(C(=O)c2ccco2)CC1

>  <Energy>  (10) 
81.58382870589976

>  <Genealogy>  (10) 
COc1ccc(F)cc1CN1CCN(C(=O)c2ccco2)CC1 (3D coordinates assigned)
COc1ccc(F)cc1CN1CCN(C(=O)c2ccco2)CC1 (nonaromatic ring conformer: 81.58382870589976 kcal/mol)

>  <smiles>  (10) 
COc1ccc(F)cc1CN1CCN(C(=O)c2ccco2)CC1

>  <score_type>  (10) 
oracle

>  <origin>  (10) 
adg

>  <m_score__min__energy>  (10) 
-7.2199999999999998

>  <m_primary>  (10) 
energy

$$$$
10:0
     RDKit          3D

 54 57  0  0  0  0  0  0  0  0999 V2000
   63.3800   33.6420   46.4280 C   0  0  0  0  0  0  0  0  0  0  0  0
   62.5510   33.7360   47.7170 C   0  0  0  0  0  0  0  0  0  0  0  0
   62.3020   32.4360   48.3870 N   0  0  0  0  0  0  0  0  0  0  0  0
   62.7430   32.4250   49.7910 C   0  0  0  0  0  0  0  0  0  0  0  0
   62.8030   31.2590   47.6460 C   0  0  0  0  0  0  0  0  0  0  0  0
   61.7180   30.6380   46.7390 C   0  0  0  0  0  0  0  0  0  0  0  0
   60.4170   30.4740   47.4230 N   0  0  0  0  0  0  0  0  0  0  0  0
   59.2910   30.5060   46.4980 C   0  0  0  0  0  0  0  0  0  0  0  0
   58.9770   29.3690   45.6960 C   0  0  0  0  0  0  0  0  0  0  0  0
   59.4520   28.0790   46.0310 C   0  0  0  0  0  0  0  0  0  0  0  0
   59.1530   26.9760   45.2380 C   0  0  0  0  0  0  0  0  0  0  0  0
   58.3690   27.1240   44.1010 C   0  0  0  0  0  0  0  0  0  0  0  0
   57.8810   28.3780   43.7440 C   0  0  0  0  0  0  0  0  0  0  0  0
   58.1730   29.5250   44.5230 C   0  0  0  0  0  0  0  0  0  0  0  0
   57.7080   30.7740   44.1620 N   0  0  0  0  0  0  0  0  0  0  0  0
   56.9870   30.9830   42.8900 C   0  0  0  0  0  0  0  0  0  0  0  0
   57.8760   31.8130   45.0340 C   0  0  0  0  0  0  0  0  0  0  0  0
   57.2700   33.3760   44.8770 S   0  0  0  0  0  0  0  0  0  0  0  0
   57.8490   33.9380   46.3440 C   0  0  0  0  0  0  0  0  0  0  0  0
   58.5150   32.9030   46.9990 C   0  0  0  0  0  0  0  0  0  0  0  0
   58.8490   33.0460   48.4310 C   0  0  0  0  0  0  0  0  0  0  0  0
   59.7090   34.0710   48.8580 C   0  0  0  0  0  0  0  0  0  0  0  0
   60.0150   34.2130   50.2150 C   0  0  0  0  0  0  0  0  0  0  0  0
   59.4580   33.3410   51.1540 C   0  0  0  0  0  0  0  0  0  0  0  0
   58.5900   32.3270   50.7400 C   0  0  0  0  0  0  0  0  0  0  0  0
   58.2810   32.1810   49.3840 C   0  0  0  0  0  0  0  0  0  0  0  0
   58.5830   31.7040   46.2290 C   0  0  0  0  0  0  0  0  0  0  0  0
   64.4431   33.5215   46.6837 H   0  0  0  0  0  0  0  0  0  0  0  0
   63.0442   32.7762   45.8384 H   0  0  0  0  0  0  0  0  0  0  0  0
   63.2466   34.5610   45.8384 H   0  0  0  0  0  0  0  0  0  0  0  0
   63.0862   34.3886   48.4224 H   0  0  0  0  0  0  0  0  0  0  0  0
   61.5663   34.1307   47.4264 H   0  0  0  0  0  0  0  0  0  0  0  0
   61.8638   32.4469   50.4517 H   0  0  0  0  0  0  0  0  0  0  0  0
   63.3250   31.5121   49.9854 H   0  0  0  0  0  0  0  0  0  0  0  0
   63.3698   33.3078   49.9854 H   0  0  0  0  0  0  0  0  0  0  0  0
   63.6531   31.5692   47.0206 H   0  0  0  0  0  0  0  0  0  0  0  0
   63.1049   30.4990   48.3817 H   0  0  0  0  0  0  0  0  0  0  0  0
   61.5750   31.2916   45.8658 H   0  0  0  0  0  0  0  0  0  0  0  0
   62.0659   29.6355   46.4492 H   0  0  0  0  0  0  0  0  0  0  0  0
   60.3680   31.2160   48.1450 H   0  0  0  0  0  0  0  0  0  0  0  0
   60.4040   29.5750   47.9540 H   0  0  0  0  0  0  0  0  0  0  0  0
   60.0675   27.9462   46.9329 H   0  0  0  0  0  0  0  0  0  0  0  0
   59.5388   25.9831   45.5123 H   0  0  0  0  0  0  0  0  0  0  0  0
   58.1328   26.2471   43.4803 H   0  0  0  0  0  0  0  0  0  0  0  0
   57.2587   28.4800   42.8427 H   0  0  0  0  0  0  0  0  0  0  0  0
   55.9502   31.2835   43.1013 H   0  0  0  0  0  0  0  0  0  0  0  0
   57.4870   31.7732   42.3107 H   0  0  0  0  0  0  0  0  0  0  0  0
   56.9869   30.0479   42.3107 H   0  0  0  0  0  0  0  0  0  0  0  0
   57.7239   34.9606   46.7295 H   0  0  0  0  0  0  0  0  0  0  0  0
   60.1432   34.7643   48.1226 H   0  0  0  0  0  0  0  0  0  0  0  0
   60.6953   35.0124   50.5438 H   0  0  0  0  0  0  0  0  0  0  0  0
   59.7030   33.4528   52.2205 H   0  0  0  0  0  0  0  0  0  0  0  0
   58.1497   31.6435   51.4810 H   0  0  0  0  0  0  0  0  0  0  0  0
   57.5914   31.3870   49.0614 H   0  0  0  0  0  0  0  0  0  0  0  0
  1  2  1  0
  2  3  1  0
  3  4  1  0
  3  5  1  0
  5  6  1  0
  6  7  1  0
  7  8  1  0
  8  9  2  0
  9 10  1  0
 10 11  2  0
 11 12  1  0
 12 13  2  0
 13 14  1  0
 14 15  2  0
 15 16  1  0
 15 17  1  0
 17 18  1  0
 18 19  1  0
 19 20  2  0
 20 21  1  0
 21 22  2  0
 22 23  1  0
 23 24  2  0
 24 25  1  0
 25 26  2  0
 20 27  1  0
 27  8  1  0
 14  9  1  0
 27 17  2  0
 26 21  1  0
  1 28  1  0
  1 29  1  0
  1 30  1  0
  2 31  1  0
  2 32  1  0
  4 33  1  0
  4 34  1  0
  4 35  1  0
  5 36  1  0
  5 37  1  0
  6 38  1  0
  6 39  1  0
  7 40  1  0
  7 41  1  0
 10 42  1  0
 11 43  1  0
 12 44  1  0
 13 45  1  0
 16 46  1  0
 16 47  1  0
 16 48  1  0
 19 49  1  0
 22 50  1  0
 23 51  1  0
 24 52  1  0
 25 53  1  0
 26 54  1  0
M  CHG  2   7   1  15   1
M  END
>  <UniqueID>  (11) 
10

>  <SMILES>  (11) 
CCN(C)CC[NH2+]c1c2ccccc2[n+](C)c2scc(-c3ccccc3)c12

>  <Energy>  (11) 
116.85132819816577

>  <Genealogy>  (11) 
CCN(C)CC[NH2+]c1c2ccccc2[n+](C)c2scc(-c3ccccc3)c12 (protonated)
CCN(C)CC[NH2+]c1c2ccccc2[n+](C)c2scc(-c3ccccc3)c12 (3D coordinates assigned)
CCN(C)CC[NH2+]c1c2ccccc2[n+](C)c2scc(-c3ccccc3)c12 (optimized conformer: 116.85132819816577 kcal/mol)

>  <smiles>  (11) 
CCN(C)CCNc1c2ccccc2[n+](C)c2scc(-c3ccccc3)c12

>  <score_type>  (11) 
oracle

>  <origin>  (11) 
adg

>  <m_score__min__energy>  (11) 
-5.1600000000000001

>  <m_primary>  (11) 
energy

$$$$
11:0
     RDKit          3D

 69 72  0  0  0  0  0  0  0  0999 V2000
   57.9810   27.0840   46.7490 C   0  0  0  0  0  0  0  0  0  0  0  0
   56.9850   27.3700   45.6310 C   0  0  0  0  0  0  0  0  0  0  0  0
   57.2780   28.6960   44.9800 C   0  0  0  0  0  0  0  0  0  0  0  0
   56.2510   29.4220   44.3580 C   0  0  0  0  0  0  0  0  0  0  0  0
   56.5200   30.6610   43.7680 C   0  0  0  0  0  0  0  0  0  0  0  0
   57.8210   31.1910   43.7950 C   0  0  0  0  0  0  0  0  0  0  0  0
   58.1170   32.5230   43.1530 C   0  0  0  0  0  0  0  0  0  0  0  0
   57.9050   33.6170   44.1030 N   0  0  0  0  0  0  0  0  0  0  0  0
   58.2830   33.5750   45.4920 C   0  0  0  0  0  0  0  0  0  0  0  0
   57.4540   32.8790   46.4100 C   0  0  0  0  0  0  0  0  0  0  0  0
   57.7920   32.7980   47.7730 C   0  0  0  0  0  0  0  0  0  0  0  0
   58.9580   33.4400   48.1930 C   0  0  0  0  0  0  0  0  0  0  0  0
   59.7690   34.0980   47.3160 C   0  0  0  0  0  0  0  0  0  0  0  0
   59.4660   34.1990   45.9620 C   0  0  0  0  0  0  0  0  0  0  0  0
   60.8620   34.5670   47.9440 N   0  0  0  0  0  0  0  0  0  0  0  0
   60.6760   34.1660   49.2280 C   0  0  0  0  0  0  0  0  0  0  0  0
   59.5200   33.4810   49.4130 N   0  0  0  0  0  0  0  0  0  0  0  0
   59.0350   32.9320   50.6500 C   0  0  0  0  0  0  0  0  0  0  0  0
   58.8850   33.7460   51.7820 C   0  0  0  0  0  0  0  0  0  0  0  0
   58.4240   33.2070   52.9850 C   0  0  0  0  0  0  0  0  0  0  0  0
   58.0840   31.8420   53.0750 C   0  0  0  0  0  0  0  0  0  0  0  0
   57.6140   31.2760   54.3240 N   0  0  0  0  0  0  0  0  0  0  0  0
   57.5740   29.8000   54.3150 C   0  0  0  0  0  0  0  0  0  0  0  0
   56.2310   29.1910   53.8190 C   0  0  0  0  0  0  0  0  0  0  0  0
   55.1490   30.1500   53.4620 N   0  0  0  0  0  0  0  0  0  0  0  0
   53.8140   29.9020   54.0490 C   0  0  0  0  0  0  0  0  0  0  0  0
   53.4560   28.4150   54.0250 C   0  0  0  0  0  0  0  0  0  0  0  0
   55.1010   30.4980   52.0280 C   0  0  0  0  0  0  0  0  0  0  0  0
   53.6720   30.8440   51.6230 C   0  0  0  0  0  0  0  0  0  0  0  0
   58.2940   31.0200   51.9530 C   0  0  0  0  0  0  0  0  0  0  0  0
   58.7590   31.5610   50.7510 C   0  0  0  0  0  0  0  0  0  0  0  0
   58.8400   30.4770   44.4460 C   0  0  0  0  0  0  0  0  0  0  0  0
   58.5700   29.2390   45.0330 C   0  0  0  0  0  0  0  0  0  0  0  0
   57.4895   27.2251   47.7229 H   0  0  0  0  0  0  0  0  0  0  0  0
   58.3382   26.0470   46.6654 H   0  0  0  0  0  0  0  0  0  0  0  0
   58.8340   27.7735   46.6654 H   0  0  0  0  0  0  0  0  0  0  0  0
   57.0533   26.5741   44.8748 H   0  0  0  0  0  0  0  0  0  0  0  0
   55.9729   27.4041   46.0606 H   0  0  0  0  0  0  0  0  0  0  0  0
   55.2295   29.0147   44.3344 H   0  0  0  0  0  0  0  0  0  0  0  0
   55.7097   31.2230   43.2807 H   0  0  0  0  0  0  0  0  0  0  0  0
   59.1640   32.5360   42.8158 H   0  0  0  0  0  0  0  0  0  0  0  0
   57.4378   32.6613   42.2989 H   0  0  0  0  0  0  0  0  0  0  0  0
   57.4060   34.4660   43.7500 H   0  0  0  0  0  0  0  0  0  0  0  0
   56.5336   32.3958   46.0503 H   0  0  0  0  0  0  0  0  0  0  0  0
   57.1587   32.2472   48.4840 H   0  0  0  0  0  0  0  0  0  0  0  0
   60.1264   34.7481   45.2747 H   0  0  0  0  0  0  0  0  0  0  0  0
   61.3912   34.3757   50.0370 H   0  0  0  0  0  0  0  0  0  0  0  0
   59.1321   34.8162   51.7220 H   0  0  0  0  0  0  0  0  0  0  0  0
   58.3254   33.8531   53.8698 H   0  0  0  0  0  0  0  0  0  0  0  0
   58.1850   31.6030   55.1360 H   0  0  0  0  0  0  0  0  0  0  0  0
   56.6410   31.6270   54.4850 H   0  0  0  0  0  0  0  0  0  0  0  0
   58.3781   29.4391   53.6568 H   0  0  0  0  0  0  0  0  0  0  0  0
   57.6946   29.4787   55.3601 H   0  0  0  0  0  0  0  0  0  0  0  0
   56.4492   28.5880   52.9252 H   0  0  0  0  0  0  0  0  0  0  0  0
   55.8398   28.6221   54.6753 H   0  0  0  0  0  0  0  0  0  0  0  0
   53.8116   30.2530   55.0915 H   0  0  0  0  0  0  0  0  0  0  0  0
   53.0683   30.4452   53.4499 H   0  0  0  0  0  0  0  0  0  0  0  0
   53.3664   28.0427   55.0562 H   0  0  0  0  0  0  0  0  0  0  0  0
   52.4989   28.2767   53.5008 H   0  0  0  0  0  0  0  0  0  0  0  0
   54.2453   27.8562   53.5008 H   0  0  0  0  0  0  0  0  0  0  0  0
   55.7525   31.3645   51.8414 H   0  0  0  0  0  0  0  0  0  0  0  0
   55.4460   29.6376   51.4358 H   0  0  0  0  0  0  0  0  0  0  0  0
   53.0608   30.9920   52.5255 H   0  0  0  0  0  0  0  0  0  0  0  0
   53.6736   31.7677   51.0257 H   0  0  0  0  0  0  0  0  0  0  0  0
   53.2509   30.0219   51.0257 H   0  0  0  0  0  0  0  0  0  0  0  0
   58.0903   29.9412   52.0222 H   0  0  0  0  0  0  0  0  0  0  0  0
   58.9093   30.9073   49.8791 H   0  0  0  0  0  0  0  0  0  0  0  0
   59.8563   30.8951   44.4938 H   0  0  0  0  0  0  0  0  0  0  0  0
   59.3751   28.6867   45.5397 H   0  0  0  0  0  0  0  0  0  0  0  0
  1  2  1  0
  2  3  1  0
  3  4  2  0
  4  5  1  0
  5  6  2  0
  6  7  1  0
  7  8  1  0
  8  9  1  0
  9 10  2  0
 10 11  1  0
 11 12  2  0
 12 13  1  0
 13 14  2  0
 13 15  1  0
 15 16  2  0
 16 17  1  0
 17 18  1  0
 18 19  2  0
 19 20  1  0
 20 21  2  0
 21 22  1  0
 22 23  1  0
 23 24  1  0
 24 25  1  0
 25 26  1  0
 26 27  1  0
 25 28  1  0
 28 29  1  0
 21 30  1  0
 30 31  2  0
  6 32  1  0
 32 33  2  0
 33  3  1  0
 14  9  1  0
 31 18  1  0
 17 12  1  0
  1 34  1  0
  1 35  1  0
  1 36  1  0
  2 37  1  0
  2 38  1  0
  4 39  1  0
  5 40  1  0
  7 41  1  0
  7 42  1  0
  8 43  1  0
 10 44  1  0
 11 45  1  0
 14 46  1  0
 16 47  1  0
 19 48  1  0
 20 49  1  0
 22 50  1  0
 22 51  1  0
 23 52  1  0
 23 53  1  0
 24 54  1  0
 24 55  1  0
 26 56  1  0
 26 57  1  0
 27 58  1  0
 27 59  1  0
 27 60  1  0
 28 61  1  0
 28 62  1  0
 29 63  1  0
 29 64  1  0
 29 65  1  0
 30 66  1  0
 31 67  1  0
 32 68  1  0
 33 69  1  0
M  CHG  1  22   1
M  END
>  <UniqueID>  (12) 
11

>  <SMILES>  (12) 
CCc1ccc(CNc2ccc3c(c2)ncn3-c2ccc([NH2+]CCN(CC)CC)cc2)cc1

>  <Energy>  (12) 
119.73837439494835

>  <Genealogy>  (12) 
CCc1ccc(CNc2ccc3c(c2)ncn3-c2ccc([NH2+]CCN(CC)CC)cc2)cc1 (protonated)
CCc1ccc(CNc2ccc3c(c2)ncn3-c2ccc([NH2+]CCN(CC)CC)cc2)cc1 (3D coordinates assigned)
CCc1ccc(CNc2ccc3c(c2)ncn3-c2ccc([NH2+]CCN(CC)CC)cc2)cc1 (optimized conformer: 119.73837439494835 kcal/mol)

>  <smiles>  (12) 
CCc1ccc(CNc2ccc3c(c2)ncn3-c2ccc(NCCN(CC)CC)cc2)cc1

>  <score_type>  (12) 
oracle

>  <origin>  (12) 
adg

>  <m_score__min__energy>  (12) 
-6.8600000000000003

>  <m_primary>  (12) 
energy

$$$$
12:0
     RDKit          3D

 52 55  0  0  0  0  0  0  0  0999 V2000
   54.0080   28.6150   53.1730 C   0  0  0  0  0  0  0  0  0  0  0  0
   55.3860   28.6850   53.5240 O   0  0  0  0  0  0  0  0  0  0  0  0
   56.3290   29.4920   52.8710 C   0  0  0  0  0  0  0  0  0  0  0  0
   57.6830   29.1260   52.7520 C   0  0  0  0  0  0  0  0  0  0  0  0
   58.5860   29.9650   52.0910 C   0  0  0  0  0  0  0  0  0  0  0  0
   58.1530   31.1820   51.5390 C   0  0  0  0  0  0  0  0  0  0  0  0
   59.1030   32.0750   50.8470 C   0  0  0  0  0  0  0  0  0  0  0  0
   58.7510   32.9200   49.8530 N   0  0  0  0  0  0  0  0  0  0  0  0
   59.9150   33.4970   49.5000 C   0  0  0  0  0  0  0  0  0  0  0  0
   60.0220   34.5870   48.4670 C   0  0  0  0  0  0  0  0  0  0  0  0
   60.2810   34.1200   47.0790 N   0  0  0  0  0  0  0  0  0  0  0  0
   59.6940   34.9740   46.0090 C   0  0  0  0  0  0  0  0  0  0  0  0
   58.2960   34.5390   45.5430 C   0  0  0  0  0  0  0  0  0  0  0  0
   58.2580   33.0960   45.3420 N   0  0  0  0  0  0  0  0  0  0  0  0
   58.0010   32.5350   44.0430 C   0  0  0  0  0  0  0  0  0  0  0  0
   58.5210   33.0620   43.0230 O   0  0  0  0  0  0  0  0  0  0  0  0
   57.1230   31.3660   43.8700 C   0  0  0  0  0  0  0  0  0  0  0  0
   56.8220   30.7300   42.6800 C   0  0  0  0  0  0  0  0  0  0  0  0
   55.9850   29.6890   43.0160 C   0  0  0  0  0  0  0  0  0  0  0  0
   55.8310   29.7480   44.3860 C   0  0  0  0  0  0  0  0  0  0  0  0
   56.5240   30.7550   44.8660 O   0  0  0  0  0  0  0  0  0  0  0  0
   58.6790   32.2640   46.4640 C   0  0  0  0  0  0  0  0  0  0  0  0
   60.1000   32.6590   46.8770 C   0  0  0  0  0  0  0  0  0  0  0  0
   60.9180   33.0170   50.3230 C   0  0  0  0  0  0  0  0  0  0  0  0
   62.3600   33.4090   50.3430 C   0  0  0  0  0  0  0  0  0  0  0  0
   60.3870   32.1320   51.1290 O   0  0  0  0  0  0  0  0  0  0  0  0
   56.8020   31.5450   51.6610 C   0  0  0  0  0  0  0  0  0  0  0  0
   55.9010   30.7050   52.3220 C   0  0  0  0  0  0  0  0  0  0  0  0
   53.3978   28.5840   54.0877 H   0  0  0  0  0  0  0  0  0  0  0  0
   53.7352   29.5004   52.5801 H   0  0  0  0  0  0  0  0  0  0  0  0
   53.8263   27.7065   52.5801 H   0  0  0  0  0  0  0  0  0  0  0  0
   58.0327   28.1754   53.1810 H   0  0  0  0  0  0  0  0  0  0  0  0
   59.6420   29.6700   52.0028 H   0  0  0  0  0  0  0  0  0  0  0  0
   59.0765   35.1492   48.4662 H   0  0  0  0  0  0  0  0  0  0  0  0
   60.8936   35.1942   48.7527 H   0  0  0  0  0  0  0  0  0  0  0  0
   61.3160   34.2620   46.9800 H   0  0  0  0  0  0  0  0  0  0  0  0
   59.6244   36.0034   46.3903 H   0  0  0  0  0  0  0  0  0  0  0  0
   60.3575   34.8830   45.1363 H   0  0  0  0  0  0  0  0  0  0  0  0
   57.5552   34.8190   46.3064 H   0  0  0  0  0  0  0  0  0  0  0  0
   58.0632   35.0398   44.5917 H   0  0  0  0  0  0  0  0  0  0  0  0
   57.1770   30.9992   41.6743 H   0  0  0  0  0  0  0  0  0  0  0  0
   55.5310   28.9582   42.3306 H   0  0  0  0  0  0  0  0  0  0  0  0
   55.2204   29.0565   44.9852 H   0  0  0  0  0  0  0  0  0  0  0  0
   57.9940   32.4147   47.3114 H   0  0  0  0  0  0  0  0  0  0  0  0
   58.6609   31.2051   46.1667 H   0  0  0  0  0  0  0  0  0  0  0  0
   60.3427   32.1458   47.8192 H   0  0  0  0  0  0  0  0  0  0  0  0
   60.7669   32.3642   46.0534 H   0  0  0  0  0  0  0  0  0  0  0  0
   62.7004   33.5015   51.3849 H   0  0  0  0  0  0  0  0  0  0  0  0
   62.9561   32.6403   49.8294 H   0  0  0  0  0  0  0  0  0  0  0  0
   62.4849   34.3737   49.8294 H   0  0  0  0  0  0  0  0  0  0  0  0
   56.4506   32.4959   51.2340 H   0  0  0  0  0  0  0  0  0  0  0  0
   54.8453   31.0009   52.4112 H   0  0  0  0  0  0  0  0  0  0  0  0
  1  2  1  0
  2  3  1  0
  3  4  2  0
  4  5  1  0
  5  6  2  0
  6  7  1  0
  7  8  2  0
  8  9  1  0
  9 10  1  0
 10 11  1  0
 11 12  1  0
 12 13  1  0
 13 14  1  0
 14 15  1  0
 15 16  2  0
 15 17  1  0
 17 18  2  0
 18 19  1  0
 19 20  2  0
 20 21  1  0
 14 22  1  0
 22 23  1  0
  9 24  2  0
 24 25  1  0
 24 26  1  0
  6 27  1  0
 27 28  2  0
 28  3  1  0
 26  7  1  0
 23 11  1  0
 21 17  1  0
  1 29  1  0
  1 30  1  0
  1 31  1  0
  4 32  1  0
  5 33  1  0
 10 34  1  0
 10 35  1  0
 11 36  1  0
 12 37  1  0
 12 38  1  0
 13 39  1  0
 13 40  1  0
 18 41  1  0
 19 42  1  0
 20 43  1  0
 22 44  1  0
 22 45  1  0
 23 46  1  0
 23 47  1  0
 25 48  1  0
 25 49  1  0
 25 50  1  0
 27 51  1  0
 28 52  1  0
M  CHG  1  11   1
M  END
>  <UniqueID>  (13) 
12

>  <SMILES>  (13) 
COc1ccc(-c2nc(C[NH+]3CCN(C(=O)c4ccco4)CC3)c(C)o2)cc1

>  <Energy>  (13) 
121.59428650963771

>  <Genealogy>  (13) 
COc1ccc(-c2nc(C[NH+]3CCN(C(=O)c4ccco4)CC3)c(C)o2)cc1 (protonated)
COc1ccc(-c2nc(C[NH+]3CCN(C(=O)c4ccco4)CC3)c(C)o2)cc1 (3D coordinates assigned)
COc1ccc(-c2nc(C[NH+]3CCN(C(=O)c4ccco4)CC3)c(C)o2)cc1 (nonaromatic ring conformer: 121.59428650963771 kcal/mol)

>  <smiles>  (13) 
COc1ccc(-c2nc(CN3CCN(C(=O)c4ccco4)CC3)c(C)o2)cc1

>  <score_type>  (13) 
oracle

>  <origin>  (13) 
adg

>  <m_score__min__energy>  (13) 
-5.7800000000000002

>  <m_primary>  (13) 
energy

$$$$
13:0
     RDKit          3D

 45 47  0  0  0  0  0  0  0  0999 V2000
   59.7215   35.0284   49.3744 H   0  0  0  0  0  0  0  0  0  0  0  0
   60.0260   34.0090   49.0950 C   0  0  0  0  0  0  0  0  0  0  0  0
   59.1820   33.0090   49.3910 C   0  0  0  0  0  0  0  0  0  0  0  0
   58.1181   33.1592   49.1552 H   0  0  0  0  0  0  0  0  0  0  0  0
   59.5740   31.6930   50.0220 C   0  0  0  0  0  0  0  0  0  0  0  0
   58.8351   31.4348   50.7949 H   0  0  0  0  0  0  0  0  0  0  0  0
   60.5778   31.8082   50.4569 H   0  0  0  0  0  0  0  0  0  0  0  0
   59.6270   30.6050   49.0310 N   0  0  0  0  0  0  0  0  0  0  0  0
   58.8240   29.9580   49.2140 H   0  0  0  0  0  0  0  0  0  0  0  0
   60.5130   30.0610   49.1420 H   0  0  0  0  0  0  0  0  0  0  0  0
   59.5190   31.1050   47.6500 C   0  0  0  0  0  0  0  0  0  0  0  0
   60.5283   31.2667   47.2436 H   0  0  0  0  0  0  0  0  0  0  0  0
   58.9569   32.0505   47.6570 H   0  0  0  0  0  0  0  0  0  0  0  0
   58.7850   30.1050   46.7790 C   0  0  0  0  0  0  0  0  0  0  0  0
   58.9150   28.7240   47.0460 C   0  0  0  0  0  0  0  0  0  0  0  0
   59.7220   28.3090   48.1200 O   0  0  0  0  0  0  0  0  0  0  0  0
   60.4180   27.0670   48.1800 C   0  0  0  0  0  0  0  0  0  0  0  0
   60.5757   26.7855   49.2316 H   0  0  0  0  0  0  0  0  0  0  0  0
   59.8243   26.2893   47.6774 H   0  0  0  0  0  0  0  0  0  0  0  0
   61.3913   27.1674   47.6774 H   0  0  0  0  0  0  0  0  0  0  0  0
   58.2440   27.7940   46.2320 C   0  0  0  0  0  0  0  0  0  0  0  0
   58.3335   26.7182   46.4434 H   0  0  0  0  0  0  0  0  0  0  0  0
   57.4670   28.2260   45.1600 C   0  0  0  0  0  0  0  0  0  0  0  0
   56.9381   27.4891   44.5377 H   0  0  0  0  0  0  0  0  0  0  0  0
   57.3540   29.5850   44.8690 C   0  0  0  0  0  0  0  0  0  0  0  0
   56.2870   30.0960   43.3620 Br  0  0  0  0  0  0  0  0  0  0  0  0
   58.0180   30.5350   45.6660 C   0  0  0  0  0  0  0  0  0  0  0  0
   57.9210   31.9250   45.3320 N   0  0  0  0  0  0  0  0  0  0  0  0
   58.1790   33.1120   44.4600 C   0  0  0  0  0  0  0  0  0  0  0  0
   59.1989   33.5167   44.3820 H   0  0  0  0  0  0  0  0  0  0  0  0
   57.9998   33.3304   43.3969 H   0  0  0  0  0  0  0  0  0  0  0  0
   57.4530   33.3170   45.6120 C   0  0  0  0  0  0  0  0  0  0  0  0
   57.9006   33.8834   46.4420 H   0  0  0  0  0  0  0  0  0  0  0  0
   56.4699   33.7624   45.8243 H   0  0  0  0  0  0  0  0  0  0  0  0
   61.3310   33.8490   48.4240 C   0  0  0  0  0  0  0  0  0  0  0  0
   62.5010   33.5680   49.1510 C   0  0  0  0  0  0  0  0  0  0  0  0
   62.4596   33.4926   50.2476 H   0  0  0  0  0  0  0  0  0  0  0  0
   63.7170   33.3840   48.4860 C   0  0  0  0  0  0  0  0  0  0  0  0
   64.6320   33.1798   49.0614 H   0  0  0  0  0  0  0  0  0  0  0  0
   63.7720   33.4590   47.0920 C   0  0  0  0  0  0  0  0  0  0  0  0
   64.7309   33.3221   46.5706 H   0  0  0  0  0  0  0  0  0  0  0  0
   62.6080   33.7080   46.3610 C   0  0  0  0  0  0  0  0  0  0  0  0
   62.6497   33.7595   45.2630 H   0  0  0  0  0  0  0  0  0  0  0  0
   61.3890   33.8920   47.0230 C   0  0  0  0  0  0  0  0  0  0  0  0
   60.4721   34.0712   46.4423 H   0  0  0  0  0  0  0  0  0  0  0  0
  1  2  1  0
  2  3  2  0
  3  4  1  0
  3  5  1  0
  5  6  1  0
  5  7  1  0
  5  8  1  0
  8  9  1  0
  8 10  1  0
  8 11  1  0
 11 12  1  0
 11 13  1  0
 11 14  1  0
 14 15  2  0
 15 16  1  0
 16 17  1  0
 17 18  1  0
 17 19  1  0
 17 20  1  0
 15 21  1  0
 21 22  1  0
 21 23  2  0
 23 24  1  0
 23 25  1  0
 25 26  1  0
 25 27  2  0
 27 28  1  0
 28 29  1  0
 29 30  1  0
 29 31  1  0
 29 32  1  0
 32 33  1  0
 32 34  1  0
  2 35  1  0
 35 36  2  0
 36 37  1  0
 36 38  1  0
 38 39  1  0
 38 40  2  0
 40 41  1  0
 40 42  1  0
 42 43  1  0
 42 44  2  0
 44 45  1  0
 27 14  1  0
 32 28  1  0
 44 35  1  0
M  CHG  1   8   1
M  END
>  <UniqueID>  (14) 
13

>  <SMILES>  (14) 
COc1ccc(Br)c(N2CC2)c1C[NH2+]C/C=C\c1ccccc1

>  <Energy>  (14) 
283.82635368297383

>  <Genealogy>  (14) 
COc1ccc(Br)c(N2CC2)c1C[NH2+]CC=Cc1ccccc1 (protonated)
COc1ccc(Br)c(N2CC2)c1C[NH2+]C/C=C\c1ccccc1 (cis-trans isomerization)
COc1ccc(Br)c(N2CC2)c1C[NH2+]C/C=C\c1ccccc1 (3D coordinates assigned)
COc1ccc(Br)c(N2CC2)c1C[NH2+]C/C=C\c1ccccc1 (nonaromatic ring conformer: 283.82635368297383 kcal/mol)

>  <smiles>  (14) 
COc1ccc(Br)c(N2CC2)c1CNCC=Cc1ccccc1

>  <score_type>  (14) 
oracle

>  <origin>  (14) 
adg

>  <m_score__min__energy>  (14) 
-5.5499999999999998

>  <m_primary>  (14) 
energy

$$$$
14:0
     RDKit          3D

 48 51  0  0  0  0  0  0  0  0999 V2000
   56.6420   30.1100   42.7700 C   0  0  0  0  0  0  0  0  0  0  0  0
   55.8820   30.4490   44.0530 C   0  0  0  0  0  0  0  0  0  0  0  0
   55.8960   29.3430   45.0230 N   0  0  0  0  0  0  0  0  0  0  0  0
   57.0480   28.4340   44.8680 C   0  0  0  0  0  0  0  0  0  0  0  0
   57.5410   27.8660   46.2090 C   0  0  0  0  0  0  0  0  0  0  0  0
   58.9970   27.9570   46.3250 N   0  0  0  0  0  0  0  0  0  0  0  0
   59.5860   28.9820   47.1360 C   0  0  0  0  0  0  0  0  0  0  0  0
   59.5140   30.3080   46.7240 C   0  0  0  0  0  0  0  0  0  0  0  0
   60.0250   31.3240   47.5070 C   0  0  0  0  0  0  0  0  0  0  0  0
   60.7310   31.0700   48.6560 N   0  0  0  0  0  0  0  0  0  0  0  0
   61.5230   32.1400   49.2870 C   0  0  0  0  0  0  0  0  0  0  0  0
   60.7400   29.7760   49.1540 C   0  0  0  0  0  0  0  0  0  0  0  0
   61.2690   29.4730   50.4330 C   0  0  0  0  0  0  0  0  0  0  0  0
   61.3250   28.1580   50.8940 C   0  0  0  0  0  0  0  0  0  0  0  0
   60.8550   27.1150   50.1020 C   0  0  0  0  0  0  0  0  0  0  0  0
   60.2950   27.3810   48.8540 C   0  0  0  0  0  0  0  0  0  0  0  0
   60.1960   28.7020   48.3780 C   0  0  0  0  0  0  0  0  0  0  0  0
   59.6840   32.5980   46.8590 C   0  0  0  0  0  0  0  0  0  0  0  0
   59.7690   33.9240   47.3100 C   0  0  0  0  0  0  0  0  0  0  0  0
   59.2770   34.9490   46.4850 C   0  0  0  0  0  0  0  0  0  0  0  0
   58.6730   34.6450   45.2540 C   0  0  0  0  0  0  0  0  0  0  0  0
   58.5330   33.3110   44.8470 C   0  0  0  0  0  0  0  0  0  0  0  0
   59.0360   32.3030   45.6690 C   0  0  0  0  0  0  0  0  0  0  0  0
   58.8750   30.8290   45.4710 C   0  0  0  0  0  0  0  0  0  0  0  0
   57.6188   29.6743   43.0267 H   0  0  0  0  0  0  0  0  0  0  0  0
   56.0610   29.3857   42.1802 H   0  0  0  0  0  0  0  0  0  0  0  0
   56.7928   31.0262   42.1802 H   0  0  0  0  0  0  0  0  0  0  0  0
   56.3477   31.3312   44.5166 H   0  0  0  0  0  0  0  0  0  0  0  0
   54.8340   30.6423   43.7804 H   0  0  0  0  0  0  0  0  0  0  0  0
   55.8160   29.7210   45.9960 H   0  0  0  0  0  0  0  0  0  0  0  0
   56.7508   27.5968   44.2193 H   0  0  0  0  0  0  0  0  0  0  0  0
   57.8730   29.0152   44.4302 H   0  0  0  0  0  0  0  0  0  0  0  0
   57.0804   28.4354   47.0297 H   0  0  0  0  0  0  0  0  0  0  0  0
   57.2554   26.8050   46.2613 H   0  0  0  0  0  0  0  0  0  0  0  0
   59.5770   27.5800   45.5410 H   0  0  0  0  0  0  0  0  0  0  0  0
   61.4558   32.0493   50.3812 H   0  0  0  0  0  0  0  0  0  0  0  0
   62.5742   32.0505   48.9755 H   0  0  0  0  0  0  0  0  0  0  0  0
   61.1304   33.1192   48.9755 H   0  0  0  0  0  0  0  0  0  0  0  0
   61.6412   30.2873   51.0720 H   0  0  0  0  0  0  0  0  0  0  0  0
   61.7429   27.9442   51.8888 H   0  0  0  0  0  0  0  0  0  0  0  0
   60.9257   26.0779   50.4619 H   0  0  0  0  0  0  0  0  0  0  0  0
   59.9265   26.5501   48.2345 H   0  0  0  0  0  0  0  0  0  0  0  0
   60.2119   34.1562   48.2897 H   0  0  0  0  0  0  0  0  0  0  0  0
   59.3654   35.9976   46.8055 H   0  0  0  0  0  0  0  0  0  0  0  0
   58.3086   35.4566   44.6070 H   0  0  0  0  0  0  0  0  0  0  0  0
   58.0359   33.0640   43.8974 H   0  0  0  0  0  0  0  0  0  0  0  0
   57.8150   30.5421   45.4072 H   0  0  0  0  0  0  0  0  0  0  0  0
   59.3152   30.4429   44.5398 H   0  0  0  0  0  0  0  0  0  0  0  0
  1  2  1  0
  2  3  1  0
  3  4  1  0
  4  5  1  0
  5  6  1  0
  6  7  1  0
  7  8  2  0
  8  9  1  0
  9 10  2  0
 10 11  1  0
 10 12  1  0
 12 13  2  0
 13 14  1  0
 14 15  2  0
 15 16  1  0
 16 17  2  0
  9 18  1  0
 18 19  2  0
 19 20  1  0
 20 21  2  0
 21 22  1  0
 22 23  2  0
 23 24  1  0
 17  7  1  0
 23 18  1  0
 24  8  1  0
 17 12  1  0
  1 25  1  0
  1 26  1  0
  1 27  1  0
  2 28  1  0
  2 29  1  0
  3 30  1  0
  4 31  1  0
  4 32  1  0
  5 33  1  0
  5 34  1  0
  6 35  1  0
 11 36  1  0
 11 37  1  0
 11 38  1  0
 13 39  1  0
 14 40  1  0
 15 41  1  0
 16 42  1  0
 19 43  1  0
 20 44  1  0
 21 45  1  0
 22 46  1  0
 24 47  1  0
 24 48  1  0
M  CHG  1  10   1
M  END
>  <UniqueID>  (15) 
14

>  <SMILES>  (15) 
CCNCCNc1c2c([n+](C)c3ccccc13)-c1ccccc1C2

>  <Energy>  (15) 
93.02784080501176

>  <Genealogy>  (15) 
CCNCCNc1c2c([n+](C)c3ccccc13)-c1ccccc1C2 (3D coordinates assigned)
CCNCCNc1c2c([n+](C)c3ccccc13)-c1ccccc1C2 (nonaromatic ring conformer: 93.02784080501176 kcal/mol)

>  <smiles>  (15) 
CCNCCNc1c2c([n+](C)c3ccccc13)-c1ccccc1C2

>  <score_type>  (15) 
oracle

>  <origin>  (15) 
adg

>  <m_score__min__energy>  (15) 
-6.2999999999999998

>  <m_primary>  (15) 
energy

$$$$
15:0
     RDKit          3D

 57 60  0  0  0  0  0  0  0  0999 V2000
   57.7900   34.5700   44.9330 C   0  0  0  0  0  0  0  0  0  0  0  0
   59.2750   34.4980   44.5920 C   0  0  0  0  0  0  0  0  0  0  0  0
   60.0510   34.7130   45.7550 O   0  0  0  0  0  0  0  0  0  0  0  0
   59.2270   34.8090   46.9010 C   0  0  0  0  0  0  0  0  0  0  0  0
   59.6060   33.7090   47.8960 C   0  0  0  0  0  0  0  0  0  0  0  0
   59.6800   32.4030   47.2230 N   0  0  0  0  0  0  0  0  0  0  0  0
   58.5430   32.0030   46.4280 C   0  0  0  0  0  0  0  0  0  0  0  0
   58.5420   30.8550   45.7330 C   0  0  0  0  0  0  0  0  0  0  0  0
   57.3650   30.4380   44.9350 C   0  0  0  0  0  0  0  0  0  0  0  0
   56.3660   31.2040   44.8480 O   0  0  0  0  0  0  0  0  0  0  0  0
   57.2920   29.0550   44.3130 C   0  0  2  0  0  0  0  0  0  0  0  0
   56.6350   29.1770   42.9180 C   0  0  0  0  0  0  0  0  0  0  0  0
   56.4780   28.2630   45.1880 O   0  0  0  0  0  0  0  0  0  0  0  0
   56.9020   27.1810   45.9740 C   0  0  0  0  0  0  0  0  0  0  0  0
   57.7120   27.3450   46.9270 O   0  0  0  0  0  0  0  0  0  0  0  0
   56.4240   25.7970   45.6150 C   0  0  0  0  0  0  0  0  0  0  0  0
   56.4260   24.8510   46.8150 C   0  0  0  0  0  0  0  0  0  0  0  0
   57.7690   24.1250   46.7900 C   0  0  0  0  0  0  0  0  0  0  0  0
   58.3840   24.3670   45.4120 C   0  0  0  0  0  0  0  0  0  0  0  0
   57.3570   25.1460   44.6010 C   0  0  0  0  0  0  0  0  0  0  0  0
   58.6790   28.4370   44.1950 C   0  0  0  0  0  0  0  0  0  0  0  0
   58.8770   27.4770   43.4020 O   0  0  0  0  0  0  0  0  0  0  0  0
   59.8030   28.8800   45.0370 C   0  0  0  0  0  0  0  0  0  0  0  0
   59.7410   29.9980   45.7660 C   0  0  0  0  0  0  0  0  0  0  0  0
   60.8900   30.4070   46.5940 C   0  0  0  0  0  0  0  0  0  0  0  0
   60.8490   31.5410   47.3100 C   0  0  0  0  0  0  0  0  0  0  0  0
   62.0250   31.8710   48.1490 C   0  0  0  0  0  0  0  0  0  0  0  0
   63.0470   32.6440   47.7160 N   0  0  0  0  0  0  0  0  0  0  0  0
   64.0580   32.7220   48.6230 C   0  0  0  0  0  0  0  0  0  0  0  0
   63.8630   31.9890   49.7870 C   0  0  0  0  0  0  0  0  0  0  0  0
   62.3730   31.2210   49.6630 S   0  0  0  0  0  0  0  0  0  0  0  0
   57.6646   34.5761   46.0258 H   0  0  0  0  0  0  0  0  0  0  0  0
   57.3607   35.4900   44.5095 H   0  0  0  0  0  0  0  0  0  0  0  0
   57.2737   33.6958   44.5095 H   0  0  0  0  0  0  0  0  0  0  0  0
   59.5058   33.5050   44.1788 H   0  0  0  0  0  0  0  0  0  0  0  0
   59.5128   35.2757   43.8513 H   0  0  0  0  0  0  0  0  0  0  0  0
   59.3670   35.7933   47.3718 H   0  0  0  0  0  0  0  0  0  0  0  0
   58.1739   34.6897   46.6063 H   0  0  0  0  0  0  0  0  0  0  0  0
   60.5856   33.9436   48.3380 H   0  0  0  0  0  0  0  0  0  0  0  0
   58.8358   33.6601   48.6799 H   0  0  0  0  0  0  0  0  0  0  0  0
   57.6573   32.6542   46.3912 H   0  0  0  0  0  0  0  0  0  0  0  0
   55.5597   29.3767   43.0354 H   0  0  0  0  0  0  0  0  0  0  0  0
   57.1030   30.0036   42.3633 H   0  0  0  0  0  0  0  0  0  0  0  0
   56.7751   28.2375   42.3633 H   0  0  0  0  0  0  0  0  0  0  0  0
   55.4058   25.9373   45.2232 H   0  0  0  0  0  0  0  0  0  0  0  0
   56.3194   25.4216   47.7494 H   0  0  0  0  0  0  0  0  0  0  0  0
   55.5878   24.1405   46.7638 H   0  0  0  0  0  0  0  0  0  0  0  0
   58.4291   24.5253   47.5736 H   0  0  0  0  0  0  0  0  0  0  0  0
   57.6364   23.0491   46.9765 H   0  0  0  0  0  0  0  0  0  0  0  0
   59.3115   24.9505   45.5087 H   0  0  0  0  0  0  0  0  0  0  0  0
   58.6355   23.4158   44.9200 H   0  0  0  0  0  0  0  0  0  0  0  0
   57.8549   25.9147   43.9918 H   0  0  0  0  0  0  0  0  0  0  0  0
   56.8063   24.4887   43.9120 H   0  0  0  0  0  0  0  0  0  0  0  0
   60.7199   28.2731   45.0666 H   0  0  0  0  0  0  0  0  0  0  0  0
   61.7904   29.7759   46.6252 H   0  0  0  0  0  0  0  0  0  0  0  0
   64.9635   33.3215   48.4476 H   0  0  0  0  0  0  0  0  0  0  0  0
   64.5584   31.9231   50.6367 H   0  0  0  0  0  0  0  0  0  0  0  0
  1  2  1  0
  2  3  1  0
  3  4  1  0
  4  5  1  0
  5  6  1  0
  6  7  1  0
  7  8  2  0
  8  9  1  0
  9 10  2  0
  9 11  1  0
 11 12  1  0
 11 13  1  1
 13 14  1  0
 14 15  2  0
 14 16  1  0
 16 17  1  0
 17 18  1  0
 18 19  1  0
 19 20  1  0
 11 21  1  0
 21 22  2  0
 21 23  1  0
 23 24  2  0
 24 25  1  0
 25 26  2  0
 26 27  1  0
 27 28  2  0
 28 29  1  0
 29 30  2  0
 30 31  1  0
 26  6  1  0
 31 27  1  0
 24  8  1  0
 20 16  1  0
  1 32  1  0
  1 33  1  0
  1 34  1  0
  2 35  1  0
  2 36  1  0
  4 37  1  0
  4 38  1  0
  5 39  1  0
  5 40  1  0
  7 41  1  0
 12 42  1  0
 12 43  1  0
 12 44  1  0
 16 45  1  0
 17 46  1  0
 17 47  1  0
 18 48  1  0
 18 49  1  0
 19 50  1  0
 19 51  1  0
 20 52  1  0
 20 53  1  0
 23 54  1  0
 25 55  1  0
 29 56  1  0
 30 57  1  0
M  END
>  <UniqueID>  (16) 
15

>  <SMILES>  (16) 
CCOCCN1C=C2C(=O)[C@](C)(OC(=O)C3CCCC3)C(=O)C=C2C=C1c1nccs1

>  <Energy>  (16) 
94.80106478709743

>  <Genealogy>  (16) 
CCOCCN1C=C2C(=O)[C@](C)(OC(=O)C3CCCC3)C(=O)C=C2C=C1c1nccs1 (chirality)
CCOCCN1C=C2C(=O)[C@](C)(OC(=O)C3CCCC3)C(=O)C=C2C=C1c1nccs1 (3D coordinates assigned)
CCOCCN1C=C2C(=O)[C@](C)(OC(=O)C3CCCC3)C(=O)C=C2C=C1c1nccs1 (nonaromatic ring conformer: 94.80106478709743 kcal/mol)

>  <smiles>  (16) 
CCOCCN1C=C2C(=O)C(C)(OC(=O)C3CCCC3)C(=O)C=C2C=C1c1nccs1

>  <score_type>  (16) 
oracle

>  <origin>  (16) 
adg

>  <m_score__min__energy>  (16) 
-9.3000000000000007

>  <m_primary>  (16) 
energy

$$$$
16:0
     RDKit          3D

 55 56  0  0  0  0  0  0  0  0999 V2000
   57.7620   28.5150   45.8870 C   0  0  0  0  0  0  0  0  0  0  0  0
   58.0450   29.8350   45.1770 C   0  0  0  0  0  0  0  0  0  0  0  0
   56.7870   30.5940   44.9910 N   0  0  0  0  0  0  0  0  0  0  0  0
   55.8400   29.8570   44.1250 C   0  0  0  0  0  0  0  0  0  0  0  0
   56.3540   29.8160   42.6890 C   0  0  0  0  0  0  0  0  0  0  0  0
   57.0410   31.9690   44.4900 C   0  0  0  0  0  0  0  0  0  0  0  0
   58.4230   32.4400   44.9390 C   0  0  0  0  0  0  0  0  0  0  0  0
   58.3110   33.1610   46.1470 O   0  0  0  0  0  0  0  0  0  0  0  0
   58.6790   34.5070   45.9400 C   0  0  0  0  0  0  0  0  0  0  0  0
   59.9820   34.8010   46.6850 C   0  0  0  0  0  0  0  0  0  0  0  0
   61.0270   33.9560   46.2340 O   0  0  0  0  0  0  0  0  0  0  0  0
   62.0220   33.8180   47.2270 C   0  0  0  0  0  0  0  0  0  0  0  0
   61.8150   32.5010   47.9760 C   0  0  0  0  0  0  0  0  0  0  0  0
   60.4530   32.0010   47.7780 N   0  0  0  0  0  0  0  0  0  0  0  0
   59.6820   31.3980   48.8330 C   0  0  0  0  0  0  0  0  0  0  0  0
   59.3130   30.0490   48.7330 C   0  0  0  0  0  0  0  0  0  0  0  0
   58.5530   29.4410   49.7300 C   0  0  0  0  0  0  0  0  0  0  0  0
   58.1450   30.1660   50.8540 C   0  0  0  0  0  0  0  0  0  0  0  0
   57.3830   29.5390   51.8410 O   0  0  0  0  0  0  0  0  0  0  0  0
   58.5070   31.5200   50.9840 C   0  0  0  0  0  0  0  0  0  0  0  0
   58.1200   32.2580   52.1180 C   0  0  0  0  0  0  0  0  0  0  0  0
   58.5040   33.5930   52.2580 C   0  0  0  0  0  0  0  0  0  0  0  0
   59.2780   34.2050   51.2760 C   0  0  0  0  0  0  0  0  0  0  0  0
   59.6720   33.4920   50.1420 C   0  0  0  0  0  0  0  0  0  0  0  0
   59.2840   32.1460   49.9700 C   0  0  0  0  0  0  0  0  0  0  0  0
   57.7952   28.6697   46.9756 H   0  0  0  0  0  0  0  0  0  0  0  0
   56.7652   28.1500   45.5987 H   0  0  0  0  0  0  0  0  0  0  0  0
   58.5216   27.7734   45.5987 H   0  0  0  0  0  0  0  0  0  0  0  0
   58.7433   30.4313   45.7827 H   0  0  0  0  0  0  0  0  0  0  0  0
   58.4877   29.6257   44.1920 H   0  0  0  0  0  0  0  0  0  0  0  0
   55.7306   28.8288   44.5003 H   0  0  0  0  0  0  0  0  0  0  0  0
   54.8675   30.3708   44.1414 H   0  0  0  0  0  0  0  0  0  0  0  0
   57.4505   29.7285   42.6944 H   0  0  0  0  0  0  0  0  0  0  0  0
   55.9196   28.9497   42.1687 H   0  0  0  0  0  0  0  0  0  0  0  0
   56.0624   30.7403   42.1687 H   0  0  0  0  0  0  0  0  0  0  0  0
   56.9945   31.9710   43.3910 H   0  0  0  0  0  0  0  0  0  0  0  0
   56.2775   32.6488   44.8962 H   0  0  0  0  0  0  0  0  0  0  0  0
   59.0744   31.5672   45.0933 H   0  0  0  0  0  0  0  0  0  0  0  0
   58.8549   33.0913   44.1649 H   0  0  0  0  0  0  0  0  0  0  0  0
   58.8235   34.6861   44.8643 H   0  0  0  0  0  0  0  0  0  0  0  0
   57.8840   35.1663   46.3186 H   0  0  0  0  0  0  0  0  0  0  0  0
   60.2668   35.8492   46.5116 H   0  0  0  0  0  0  0  0  0  0  0  0
   59.8214   34.6176   47.7576 H   0  0  0  0  0  0  0  0  0  0  0  0
   63.0150   33.8186   46.7537 H   0  0  0  0  0  0  0  0  0  0  0  0
   61.9528   34.6573   47.9347 H   0  0  0  0  0  0  0  0  0  0  0  0
   62.5314   31.7556   47.6003 H   0  0  0  0  0  0  0  0  0  0  0  0
   61.9745   32.6764   49.0502 H   0  0  0  0  0  0  0  0  0  0  0  0
   60.0070   32.1630   46.8480 H   0  0  0  0  0  0  0  0  0  0  0  0
   59.6274   29.4634   47.8565 H   0  0  0  0  0  0  0  0  0  0  0  0
   58.2716   28.3821   49.6322 H   0  0  0  0  0  0  0  0  0  0  0  0
   56.6090   28.9260   51.6070 H   0  0  0  0  0  0  0  0  0  0  0  0
   57.5109   31.7799   52.8993 H   0  0  0  0  0  0  0  0  0  0  0  0
   58.1942   34.1627   53.1465 H   0  0  0  0  0  0  0  0  0  0  0  0
   59.5808   35.2559   51.3941 H   0  0  0  0  0  0  0  0  0  0  0  0
   60.2900   33.9835   49.3762 H   0  0  0  0  0  0  0  0  0  0  0  0
  1  2  1  0
  2  3  1  0
  3  4  1  0
  4  5  1  0
  3  6  1  0
  6  7  1  0
  7  8  1  0
  8  9  1  0
  9 10  1  0
 10 11  1  0
 11 12  1  0
 12 13  1  0
 13 14  1  0
 14 15  1  0
 15 16  2  0
 16 17  1  0
 17 18  2  0
 18 19  1  0
 18 20  1  0
 20 21  2  0
 21 22  1  0
 22 23  2  0
 23 24  1  0
 24 25  2  0
 25 15  1  0
 25 20  1  0
  1 26  1  0
  1 27  1  0
  1 28  1  0
  2 29  1  0
  2 30  1  0
  4 31  1  0
  4 32  1  0
  5 33  1  0
  5 34  1  0
  5 35  1  0
  6 36  1  0
  6 37  1  0
  7 38  1  0
  7 39  1  0
  9 40  1  0
  9 41  1  0
 10 42  1  0
 10 43  1  0
 12 44  1  0
 12 45  1  0
 13 46  1  0
 13 47  1  0
 14 48  1  0
 16 49  1  0
 17 50  1  0
 19 51  1  0
 21 52  1  0
 22 53  1  0
 23 54  1  0
 24 55  1  0
M  END
>  <UniqueID>  (17) 
16

>  <SMILES>  (17) 
CCN(CC)CCOCCOCCNc1ccc(O)c2ccccc12

>  <Energy>  (17) 
54.8395295947035

>  <Genealogy>  (17) 
CCN(CC)CCOCCOCCNc1ccc(O)c2ccccc12 (3D coordinates assigned)
CCN(CC)CCOCCOCCNc1ccc(O)c2ccccc12 (optimized conformer: 54.8395295947035 kcal/mol)

>  <smiles>  (17) 
CCN(CC)CCOCCOCCNc1ccc(O)c2ccccc12

>  <score_type>  (17) 
oracle

>  <origin>  (17) 
adg

>  <m_score__min__energy>  (17) 
-6.0499999999999998

>  <m_primary>  (17) 
energy

$$$$
17:0
     RDKit          3D

 71 73  0  0  0  0  0  0  0  0999 V2000
   62.2870   33.8460   46.4650 C   0  0  0  0  0  0  0  0  0  0  0  0
   61.0730   33.7200   47.1990 O   0  0  0  0  0  0  0  0  0  0  0  0
   59.7900   33.7990   46.6350 C   0  0  0  0  0  0  0  0  0  0  0  0
   59.5670   34.3490   45.3580 C   0  0  0  0  0  0  0  0  0  0  0  0
   58.2750   34.4150   44.8340 C   0  0  0  0  0  0  0  0  0  0  0  0
   57.1950   33.9330   45.5740 C   0  0  0  0  0  0  0  0  0  0  0  0
   57.4020   33.3850   46.8410 C   0  0  0  0  0  0  0  0  0  0  0  0
   58.7020   33.3170   47.3830 C   0  0  0  0  0  0  0  0  0  0  0  0
   58.9600   32.7790   48.6560 O   0  0  0  0  0  0  0  0  0  0  0  0
   59.5120   33.4890   49.7640 C   0  0  0  0  0  0  0  0  0  0  0  0
   58.9570   32.9720   51.1040 C   0  0  0  0  0  0  0  0  0  0  0  0
   57.9690   31.8920   50.9400 N   0  0  0  0  0  0  0  0  0  0  0  0
   57.6370   31.2240   52.2060 C   0  0  0  0  0  0  0  0  0  0  0  0
   58.0010   29.7360   52.1380 C   0  0  0  0  0  0  0  0  0  0  0  0
   59.2740   29.3740   52.9220 C   0  0  0  0  0  0  0  0  0  0  0  0
   60.2720   28.5510   52.0960 C   0  0  0  0  0  0  0  0  0  0  0  0
   61.0550   29.4400   51.2150 N   0  0  0  0  0  0  0  0  0  0  0  0
   60.5410   29.8330   49.9990 C   0  0  0  0  0  0  0  0  0  0  0  0
   59.4250   29.3890   49.6120 O   0  0  0  0  0  0  0  0  0  0  0  0
   61.2550   30.7280   49.1690 C   0  0  0  0  0  0  0  0  0  0  0  0
   60.7140   31.1660   47.8970 N   0  0  0  0  0  0  0  0  0  0  0  0
   61.3530   30.4870   46.7520 C   0  0  0  0  0  0  0  0  0  0  0  0
   60.3550   29.7350   45.8490 C   0  0  0  0  0  0  0  0  0  0  0  0
   58.9470   30.1110   46.1100 N   0  0  0  0  0  0  0  0  0  0  0  0
   58.2240   28.9520   46.6620 C   0  0  0  0  0  0  0  0  0  0  0  0
   58.2690   30.5620   44.8800 C   0  0  0  0  0  0  0  0  0  0  0  0
   62.5180   31.1440   49.6190 C   0  0  0  0  0  0  0  0  0  0  0  0
   62.9830   30.7440   50.8120 N   0  0  0  0  0  0  0  0  0  0  0  0
   62.2740   29.9180   51.6270 C   0  0  0  0  0  0  0  0  0  0  0  0
   62.7480   29.5940   52.7520 O   0  0  0  0  0  0  0  0  0  0  0  0
   64.3050   31.2780   51.0890 C   0  0  0  0  0  0  0  0  0  0  0  0
   64.6690   32.1210   49.8590 C   0  0  0  0  0  0  0  0  0  0  0  0
   63.4930   31.9870   48.8810 C   0  0  0  0  0  0  0  0  0  0  0  0
   63.1312   33.9336   47.1648 H   0  0  0  0  0  0  0  0  0  0  0  0
   62.4264   32.9575   45.8317 H   0  0  0  0  0  0  0  0  0  0  0  0
   62.2410   34.7442   45.8317 H   0  0  0  0  0  0  0  0  0  0  0  0
   60.4157   34.7287   44.7702 H   0  0  0  0  0  0  0  0  0  0  0  0
   58.1082   34.8475   43.8365 H   0  0  0  0  0  0  0  0  0  0  0  0
   56.1780   33.9849   45.1581 H   0  0  0  0  0  0  0  0  0  0  0  0
   56.5471   33.0045   47.4193 H   0  0  0  0  0  0  0  0  0  0  0  0
   60.6049   33.3644   49.7587 H   0  0  0  0  0  0  0  0  0  0  0  0
   59.2362   34.5492   49.6643 H   0  0  0  0  0  0  0  0  0  0  0  0
   59.7948   32.5919   51.7070 H   0  0  0  0  0  0  0  0  0  0  0  0
   58.4460   33.8134   51.5948 H   0  0  0  0  0  0  0  0  0  0  0  0
   58.3290   31.1820   50.2580 H   0  0  0  0  0  0  0  0  0  0  0  0
   58.1998   31.6976   53.0239 H   0  0  0  0  0  0  0  0  0  0  0  0
   56.5560   31.3186   52.3860 H   0  0  0  0  0  0  0  0  0  0  0  0
   57.1628   29.1544   52.5492 H   0  0  0  0  0  0  0  0  0  0  0  0
   58.1967   29.5010   51.0814 H   0  0  0  0  0  0  0  0  0  0  0  0
   59.7661   30.3047   53.2409 H   0  0  0  0  0  0  0  0  0  0  0  0
   58.9684   28.7570   53.7798 H   0  0  0  0  0  0  0  0  0  0  0  0
   60.9543   28.0183   52.7748 H   0  0  0  0  0  0  0  0  0  0  0  0
   59.7189   27.8279   51.4786 H   0  0  0  0  0  0  0  0  0  0  0  0
   59.6780   31.0350   47.8500 H   0  0  0  0  0  0  0  0  0  0  0  0
   60.8830   32.1950   47.8060 H   0  0  0  0  0  0  0  0  0  0  0  0
   61.8717   31.2429   46.1440 H   0  0  0  0  0  0  0  0  0  0  0  0
   62.0447   29.7377   47.1646 H   0  0  0  0  0  0  0  0  0  0  0  0
   60.5906   29.9632   44.7990 H   0  0  0  0  0  0  0  0  0  0  0  0
   60.4563   28.6615   46.0667 H   0  0  0  0  0  0  0  0  0  0  0  0
   58.2497   28.9932   47.7609 H   0  0  0  0  0  0  0  0  0  0  0  0
   57.1792   28.9741   46.3186 H   0  0  0  0  0  0  0  0  0  0  0  0
   58.7033   28.0234   46.3186 H   0  0  0  0  0  0  0  0  0  0  0  0
   57.3805   31.1531   45.1468 H   0  0  0  0  0  0  0  0  0  0  0  0
   58.9579   31.1824   44.2880 H   0  0  0  0  0  0  0  0  0  0  0  0
   57.9630   29.6868   44.2880 H   0  0  0  0  0  0  0  0  0  0  0  0
   64.2856   31.9044   51.9930 H   0  0  0  0  0  0  0  0  0  0  0  0
   65.0395   30.4794   51.2700 H   0  0  0  0  0  0  0  0  0  0  0  0
   64.8074   33.1738   50.1462 H   0  0  0  0  0  0  0  0  0  0  0  0
   65.6092   31.7774   49.4030 H   0  0  0  0  0  0  0  0  0  0  0  0
   63.0625   32.9719   48.6474 H   0  0  0  0  0  0  0  0  0  0  0  0
   63.7885   31.5518   47.9149 H   0  0  0  0  0  0  0  0  0  0  0  0
  1  2  1  0
  2  3  1  0
  3  4  2  0
  4  5  1  0
  5  6  2  0
  6  7  1  0
  7  8  2  0
  8  9  1  0
  9 10  1  0
 10 11  1  0
 11 12  1  0
 12 13  1  0
 13 14  1  0
 14 15  1  0
 15 16  1  0
 16 17  1  0
 17 18  1  0
 18 19  2  0
 18 20  1  0
 20 21  1  0
 21 22  1  0
 22 23  1  0
 23 24  1  0
 24 25  1  0
 24 26  1  0
 20 27  2  0
 27 28  1  0
 28 29  1  0
 29 30  2  0
 28 31  1  0
 31 32  1  0
 32 33  1  0
  8  3  1  0
 29 17  1  0
 33 27  1  0
  1 34  1  0
  1 35  1  0
  1 36  1  0
  4 37  1  0
  5 38  1  0
  6 39  1  0
  7 40  1  0
 10 41  1  0
 10 42  1  0
 11 43  1  0
 11 44  1  0
 12 45  1  0
 13 46  1  0
 13 47  1  0
 14 48  1  0
 14 49  1  0
 15 50  1  0
 15 51  1  0
 16 52  1  0
 16 53  1  0
 21 54  1  0
 21 55  1  0
 22 56  1  0
 22 57  1  0
 23 58  1  0
 23 59  1  0
 25 60  1  0
 25 61  1  0
 25 62  1  0
 26 63  1  0
 26 64  1  0
 26 65  1  0
 31 66  1  0
 31 67  1  0
 32 68  1  0
 32 69  1  0
 33 70  1  0
 33 71  1  0
M  CHG  1  21   1
M  END
>  <UniqueID>  (18) 
17

>  <SMILES>  (18) 
COc1ccccc1OCCNCCCCn1c(=O)c([NH2+]CCN(C)C)c2n(c1=O)CCC2

>  <Energy>  (18) 
78.34135313218324

>  <Genealogy>  (18) 
COc1ccccc1OCCNCCCCn1c(=O)c([NH2+]CCN(C)C)c2n(c1=O)CCC2 (protonated)
COc1ccccc1OCCNCCCCn1c(=O)c([NH2+]CCN(C)C)c2n(c1=O)CCC2 (3D coordinates assigned)
COc1ccccc1OCCNCCCCn1c(=O)c([NH2+]CCN(C)C)c2n(c1=O)CCC2 (nonaromatic ring conformer: 78.34135313218324 kcal/mol)

>  <smiles>  (18) 
COc1ccccc1OCCNCCCCn1c(=O)c(NCCN(C)C)c2n(c1=O)CCC2

>  <score_type>  (18) 
oracle

>  <origin>  (18) 
adg

>  <m_score__min__energy>  (18) 
-7.4199999999999999

>  <m_primary>  (18) 
energy

$$$$
18:0
     RDKit          3D

 61 64  0  0  0  0  0  0  0  0999 V2000
   60.3770   28.2980   49.6620 C   0  0  0  0  0  0  0  0  0  0  0  0
   60.5610   27.8910   48.2020 C   0  0  0  0  0  0  0  0  0  0  0  0
   59.3990   28.3070   47.3900 N   0  0  0  0  0  0  0  0  0  0  0  0
   58.4860   27.3370   47.0700 C   0  0  0  0  0  0  0  0  0  0  0  0
   57.3500   27.6140   46.2960 C   0  0  0  0  0  0  0  0  0  0  0  0
   56.3990   26.5150   45.9690 C   0  0  0  0  0  0  0  0  0  0  0  0
   55.1560   26.7080   46.0310 O   0  0  0  0  0  0  0  0  0  0  0  0
   56.8570   25.2590   45.5890 O   0  0  0  0  0  0  0  0  0  0  0  0
   57.1450   28.9310   45.8530 C   0  0  0  0  0  0  0  0  0  0  0  0
   56.1370   29.2130   45.1470 O   0  0  0  0  0  0  0  0  0  0  0  0
   58.0620   29.9400   46.1990 C   0  0  0  0  0  0  0  0  0  0  0  0
   57.8610   31.2680   45.7750 C   0  0  0  0  0  0  0  0  0  0  0  0
   58.7560   32.2730   46.1310 C   0  0  0  0  0  0  0  0  0  0  0  0
   58.5130   33.5460   45.7310 F   0  0  0  0  0  0  0  0  0  0  0  0
   59.8700   31.9760   46.9250 C   0  0  0  0  0  0  0  0  0  0  0  0
   60.8010   33.0070   47.3020 N   0  0  0  0  0  0  0  0  0  0  0  0
   61.9460   33.3230   46.4370 C   0  0  0  0  0  0  0  0  0  0  0  0
   63.1040   33.9050   47.2570 C   0  0  0  0  0  0  0  0  0  0  0  0
   63.1040   33.2920   48.5960 N   0  0  0  0  0  0  0  0  0  0  0  0
   64.3900   33.4300   49.3180 C   0  0  0  0  0  0  0  0  0  0  0  0
   64.7830   32.2100   50.1330 C   0  0  0  0  0  0  0  0  0  0  0  0
   63.7890   31.2990   50.5300 C   0  0  0  0  0  0  0  0  0  0  0  0
   64.1140   30.1750   51.2890 C   0  0  0  0  0  0  0  0  0  0  0  0
   65.4360   29.9250   51.6570 C   0  0  0  0  0  0  0  0  0  0  0  0
   65.7080   28.7830   52.4270 O   0  0  0  0  0  0  0  0  0  0  0  0
   66.1500   27.5390   51.8970 C   0  0  0  0  0  0  0  0  0  0  0  0
   66.4450   30.8150   51.2430 C   0  0  0  0  0  0  0  0  0  0  0  0
   66.1300   31.9520   50.4720 C   0  0  0  0  0  0  0  0  0  0  0  0
   67.1280   32.8300   50.0160 O   0  0  0  0  0  0  0  0  0  0  0  0
   67.8550   33.7330   50.8420 C   0  0  0  0  0  0  0  0  0  0  0  0
   61.9300   33.7050   49.3970 C   0  0  0  0  0  0  0  0  0  0  0  0
   60.6330   33.7390   48.5620 C   0  0  0  0  0  0  0  0  0  0  0  0
   60.0860   30.6560   47.3440 C   0  0  0  0  0  0  0  0  0  0  0  0
   59.1960   29.6130   46.9890 C   0  0  0  0  0  0  0  0  0  0  0  0
   60.7413   27.4921   50.3160 H   0  0  0  0  0  0  0  0  0  0  0  0
   60.9469   29.2176   49.8609 H   0  0  0  0  0  0  0  0  0  0  0  0
   59.3101   28.4776   49.8609 H   0  0  0  0  0  0  0  0  0  0  0  0
   61.4680   28.3708   47.8056 H   0  0  0  0  0  0  0  0  0  0  0  0
   60.6527   26.7960   48.1505 H   0  0  0  0  0  0  0  0  0  0  0  0
   58.6489   26.3107   47.4308 H   0  0  0  0  0  0  0  0  0  0  0  0
   56.9862   31.5140   45.1551 H   0  0  0  0  0  0  0  0  0  0  0  0
   62.2846   32.4037   45.9369 H   0  0  0  0  0  0  0  0  0  0  0  0
   61.6305   34.0696   45.6933 H   0  0  0  0  0  0  0  0  0  0  0  0
   64.0574   33.6882   46.7529 H   0  0  0  0  0  0  0  0  0  0  0  0
   62.9815   34.9943   47.3488 H   0  0  0  0  0  0  0  0  0  0  0  0
   65.1817   33.6199   48.5784 H   0  0  0  0  0  0  0  0  0  0  0  0
   64.2638   34.2580   50.0311 H   0  0  0  0  0  0  0  0  0  0  0  0
   62.7429   31.4746   50.2388 H   0  0  0  0  0  0  0  0  0  0  0  0
   63.3207   29.4794   51.6002 H   0  0  0  0  0  0  0  0  0  0  0  0
   66.3933   26.8543   52.7228 H   0  0  0  0  0  0  0  0  0  0  0  0
   65.3529   27.0997   51.2792 H   0  0  0  0  0  0  0  0  0  0  0  0
   67.0456   27.7011   51.2792 H   0  0  0  0  0  0  0  0  0  0  0  0
   67.4906   30.6210   51.5243 H   0  0  0  0  0  0  0  0  0  0  0  0
   67.6649   33.4968   51.8994 H   0  0  0  0  0  0  0  0  0  0  0  0
   68.9306   33.6367   50.6325 H   0  0  0  0  0  0  0  0  0  0  0  0
   67.5314   34.7632   50.6325 H   0  0  0  0  0  0  0  0  0  0  0  0
   61.7988   32.9930   50.2251 H   0  0  0  0  0  0  0  0  0  0  0  0
   62.1177   34.7234   49.7681 H   0  0  0  0  0  0  0  0  0  0  0  0
   59.8199   33.2769   49.1411 H   0  0  0  0  0  0  0  0  0  0  0  0
   60.3925   34.7870   48.3297 H   0  0  0  0  0  0  0  0  0  0  0  0
   60.9661   30.4251   47.9621 H   0  0  0  0  0  0  0  0  0  0  0  0
  1  2  1  0
  2  3  1  0
  3  4  1  0
  4  5  2  0
  5  6  1  0
  6  7  2  0
  6  8  1  0
  5  9  1  0
  9 10  2  0
  9 11  1  0
 11 12  2  0
 12 13  1  0
 13 14  1  0
 13 15  2  0
 15 16  1  0
 16 17  1  0
 17 18  1  0
 18 19  1  0
 19 20  1  0
 20 21  1  0
 21 22  2  0
 22 23  1  0
 23 24  2  0
 24 25  1  0
 25 26  1  0
 24 27  1  0
 27 28  2  0
 28 29  1  0
 29 30  1  0
 19 31  1  0
 31 32  1  0
 15 33  1  0
 33 34  2  0
 34  3  1  0
 34 11  1  0
 32 16  1  0
 28 21  1  0
  1 35  1  0
  1 36  1  0
  1 37  1  0
  2 38  1  0
  2 39  1  0
  4 40  1  0
 12 41  1  0
 17 42  1  0
 17 43  1  0
 18 44  1  0
 18 45  1  0
 20 46  1  0
 20 47  1  0
 22 48  1  0
 23 49  1  0
 26 50  1  0
 26 51  1  0
 26 52  1  0
 27 53  1  0
 30 54  1  0
 30 55  1  0
 30 56  1  0
 31 57  1  0
 31 58  1  0
 32 59  1  0
 32 60  1  0
 33 61  1  0
M  CHG  1   8  -1
M  END
>  <UniqueID>  (19) 
18

>  <SMILES>  (19) 
CCn1cc(C(=O)[O-])c(=O)c2cc(F)c(N3CCN(Cc4ccc(OC)cc4OC)CC3)cc21

>  <Energy>  (19) 
87.30527281336308

>  <Genealogy>  (19) 
CCn1cc(C(=O)[O-])c(=O)c2cc(F)c(N3CCN(Cc4ccc(OC)cc4OC)CC3)cc21 (protonated)
CCn1cc(C(=O)[O-])c(=O)c2cc(F)c(N3CCN(Cc4ccc(OC)cc4OC)CC3)cc21 (3D coordinates assigned)
CCn1cc(C(=O)[O-])c(=O)c2cc(F)c(N3CCN(Cc4ccc(OC)cc4OC)CC3)cc21 (nonaromatic ring conformer: 87.30527281336308 kcal/mol)

>  <smiles>  (19) 
CCn1cc(C(=O)O)c(=O)c2cc(F)c(N3CCN(Cc4ccc(OC)cc4OC)CC3)cc21

>  <score_type>  (19) 
oracle

>  <origin>  (19) 
adg

>  <m_score__min__energy>  (19) 
-10.33

>  <m_primary>  (19) 
energy

$$$$
19:0
     RDKit          3D

 47 49  0  0  0  0  0  0  0  0999 V2000
   59.6640   32.7870   53.6500 C   0  0  0  0  0  0  0  0  0  0  0  0
   60.8380   33.1980   52.9580 O   0  0  0  0  0  0  0  0  0  0  0  0
   60.9010   33.4460   51.5780 C   0  0  0  0  0  0  0  0  0  0  0  0
   59.7060   33.5030   50.8590 C   0  0  0  0  0  0  0  0  0  0  0  0
   59.7130   33.7530   49.4850 C   0  0  0  0  0  0  0  0  0  0  0  0
   60.9220   33.9360   48.7960 C   0  0  0  0  0  0  0  0  0  0  0  0
   62.1350   33.8800   49.5170 C   0  0  0  0  0  0  0  0  0  0  0  0
   62.1180   33.6430   50.9020 C   0  0  0  0  0  0  0  0  0  0  0  0
   63.4450   34.1330   48.8140 C   0  0  0  0  0  0  0  0  0  0  0  0
   63.7180   33.0990   47.7870 N   0  0  1  0  0  0  0  0  0  0  0  0
   63.2780   31.7790   48.2740 C   0  0  0  0  0  0  0  0  0  0  0  0
   63.1340   33.4000   46.4500 C   0  0  0  0  0  0  0  0  0  0  0  0
   61.5960   33.3190   46.4030 C   0  0  0  0  0  0  0  0  0  0  0  0
   60.9210   34.2110   47.3720 N   0  0  0  0  0  0  0  0  0  0  0  0
   59.9600   35.1940   46.8360 C   0  0  0  0  0  0  0  0  0  0  0  0
   58.5300   34.6420   46.7140 C   0  0  0  0  0  0  0  0  0  0  0  0
   58.4710   33.3620   45.9260 C   0  0  0  0  0  0  0  0  0  0  0  0
   58.2320   33.3960   44.5410 C   0  0  0  0  0  0  0  0  0  0  0  0
   58.1330   32.2050   43.8160 C   0  0  0  0  0  0  0  0  0  0  0  0
   58.2670   30.9750   44.4660 C   0  0  0  0  0  0  0  0  0  0  0  0
   58.4980   30.9330   45.8430 C   0  0  0  0  0  0  0  0  0  0  0  0
   58.5990   32.1220   46.5720 C   0  0  0  0  0  0  0  0  0  0  0  0
   59.8375   32.8477   54.7345 H   0  0  0  0  0  0  0  0  0  0  0  0
   58.8269   33.4455   53.3751 H   0  0  0  0  0  0  0  0  0  0  0  0
   59.4204   31.7501   53.3751 H   0  0  0  0  0  0  0  0  0  0  0  0
   58.7493   33.3495   51.3797 H   0  0  0  0  0  0  0  0  0  0  0  0
   58.7608   33.8071   48.9369 H   0  0  0  0  0  0  0  0  0  0  0  0
   63.0644   33.6114   51.4618 H   0  0  0  0  0  0  0  0  0  0  0  0
   63.4052   35.1187   48.3273 H   0  0  0  0  0  0  0  0  0  0  0  0
   64.2509   34.0984   49.5619 H   0  0  0  0  0  0  0  0  0  0  0  0
   64.7580   33.0430   47.6660 H   0  0  0  0  0  0  0  0  0  0  0  0
   63.2769   31.7757   49.3740 H   0  0  0  0  0  0  0  0  0  0  0  0
   62.2623   31.5722   47.9057 H   0  0  0  0  0  0  0  0  0  0  0  0
   63.9664   31.0041   47.9057 H   0  0  0  0  0  0  0  0  0  0  0  0
   63.4353   34.4182   46.1626 H   0  0  0  0  0  0  0  0  0  0  0  0
   63.5134   32.6336   45.7581 H   0  0  0  0  0  0  0  0  0  0  0  0
   61.2651   33.5932   45.3904 H   0  0  0  0  0  0  0  0  0  0  0  0
   61.3211   32.2882   46.6711 H   0  0  0  0  0  0  0  0  0  0  0  0
   59.9417   36.0659   47.5064 H   0  0  0  0  0  0  0  0  0  0  0  0
   60.2951   35.4580   45.8221 H   0  0  0  0  0  0  0  0  0  0  0  0
   58.1378   34.4526   47.7241 H   0  0  0  0  0  0  0  0  0  0  0  0
   57.9274   35.3912   46.1796 H   0  0  0  0  0  0  0  0  0  0  0  0
   58.1226   34.3622   44.0266 H   0  0  0  0  0  0  0  0  0  0  0  0
   57.9493   32.2359   42.7319 H   0  0  0  0  0  0  0  0  0  0  0  0
   58.1905   30.0393   43.8928 H   0  0  0  0  0  0  0  0  0  0  0  0
   58.6005   29.9643   46.3540 H   0  0  0  0  0  0  0  0  0  0  0  0
   58.7795   32.0857   47.6565 H   0  0  0  0  0  0  0  0  0  0  0  0
  1  2  1  0
  2  3  1  0
  3  4  2  0
  4  5  1  0
  5  6  2  0
  6  7  1  0
  7  8  2  0
  7  9  1  0
  9 10  1  0
 10 11  1  0
 10 12  1  0
 12 13  1  0
 13 14  1  0
 14 15  1  0
 15 16  1  0
 16 17  1  0
 17 18  2  0
 18 19  1  0
 19 20  2  0
 20 21  1  0
 21 22  2  0
  8  3  1  0
 22 17  1  0
 14  6  1  0
  1 23  1  0
  1 24  1  0
  1 25  1  0
  4 26  1  0
  5 27  1  0
  8 28  1  0
  9 29  1  0
  9 30  1  0
 10 31  1  6
 11 32  1  0
 11 33  1  0
 11 34  1  0
 12 35  1  0
 12 36  1  0
 13 37  1  0
 13 38  1  0
 15 39  1  0
 15 40  1  0
 16 41  1  0
 16 42  1  0
 18 43  1  0
 19 44  1  0
 20 45  1  0
 21 46  1  0
 22 47  1  0
M  CHG  1  10   1
M  END
>  <UniqueID>  (20) 
19

>  <SMILES>  (20) 
COc1ccc2c(c1)C[N@@H+](C)CCN2CCc1ccccc1

>  <Energy>  (20) 
60.843488237601825

>  <Genealogy>  (20) 
COc1ccc2c(c1)C[NH+](C)CCN2CCc1ccccc1 (protonated)
COc1ccc2c(c1)C[N@@H+](C)CCN2CCc1ccccc1 (chirality)
COc1ccc2c(c1)C[N@@H+](C)CCN2CCc1ccccc1 (3D coordinates assigned)
COc1ccc2c(c1)C[N@@H+](C)CCN2CCc1ccccc1 (nonaromatic ring conformer: 60.843488237601825 kcal/mol)

>  <smiles>  (20) 
COc1ccc2c(c1)CN(C)CCN2CCc1ccccc1

>  <score_type>  (20) 
oracle

>  <origin>  (20) 
adg

>  <m_score__min__energy>  (20) 
-3.54

>  <m_primary>  (20) 
energy

$$$$
20:0
     RDKit          3D

 54 56  0  0  0  0  0  0  0  0999 V2000
   58.5240   29.6990   46.6920 C   0  0  0  0  0  0  0  0  0  0  0  0
   58.6210   30.4890   45.3880 C   0  0  0  0  0  0  0  0  0  0  0  0
   57.4260   31.3420   45.2030 N   0  0  0  0  0  0  0  0  0  0  0  0
   56.4200   30.6430   44.3820 C   0  0  0  0  0  0  0  0  0  0  0  0
   57.7700   32.6360   44.5690 C   0  0  0  0  0  0  0  0  0  0  0  0
   57.3570   33.8570   45.4180 C   0  0  0  0  0  0  0  0  0  0  0  0
   58.3010   34.1970   46.5840 C   0  0  0  0  0  0  0  0  0  0  0  0
   58.7360   33.0010   47.3120 N   0  0  0  0  0  0  0  0  0  0  0  0
   59.7310   33.0350   48.3500 C   0  0  0  0  0  0  0  0  0  0  0  0
   61.0680   33.3300   48.0320 C   0  0  0  0  0  0  0  0  0  0  0  0
   61.4710   33.5100   46.6910 C   0  0  0  0  0  0  0  0  0  0  0  0
   62.8030   33.7650   46.3770 C   0  0  0  0  0  0  0  0  0  0  0  0
   63.7550   33.8390   47.3870 C   0  0  0  0  0  0  0  0  0  0  0  0
   63.3760   33.6880   48.7200 C   0  0  0  0  0  0  0  0  0  0  0  0
   62.0210   33.4690   49.0750 C   0  0  0  0  0  0  0  0  0  0  0  0
   61.6170   33.3940   50.3960 N   0  0  0  0  0  0  0  0  0  0  0  0
   62.5180   33.8610   51.4720 C   0  0  0  0  0  0  0  0  0  0  0  0
   60.3610   32.9070   50.7050 C   0  0  0  0  0  0  0  0  0  0  0  0
   60.0050   32.5590   52.0320 C   0  0  0  0  0  0  0  0  0  0  0  0
   58.7330   32.0790   52.3370 C   0  0  0  0  0  0  0  0  0  0  0  0
   57.7810   31.8930   51.3270 C   0  0  0  0  0  0  0  0  0  0  0  0
   56.4660   31.3800   51.6110 N   0  0  0  0  0  0  0  0  0  0  0  0
   56.1650   30.5160   52.7480 C   0  0  0  0  0  0  0  0  0  0  0  0
   58.1280   32.1940   50.0060 C   0  0  0  0  0  0  0  0  0  0  0  0
   59.3950   32.7220   49.6820 C   0  0  0  0  0  0  0  0  0  0  0  0
   58.6086   30.3880   47.5453 H   0  0  0  0  0  0  0  0  0  0  0  0
   57.5553   29.1795   46.7348 H   0  0  0  0  0  0  0  0  0  0  0  0
   59.3382   28.9606   46.7348 H   0  0  0  0  0  0  0  0  0  0  0  0
   59.5178   31.1253   45.4172 H   0  0  0  0  0  0  0  0  0  0  0  0
   58.6829   29.7803   44.5490 H   0  0  0  0  0  0  0  0  0  0  0  0
   55.6957   30.1397   45.0394 H   0  0  0  0  0  0  0  0  0  0  0  0
   55.8945   31.3715   43.7471 H   0  0  0  0  0  0  0  0  0  0  0  0
   56.9194   29.8964   43.7471 H   0  0  0  0  0  0  0  0  0  0  0  0
   58.8583   32.6706   44.4129 H   0  0  0  0  0  0  0  0  0  0  0  0
   57.2149   32.6937   43.6211 H   0  0  0  0  0  0  0  0  0  0  0  0
   57.3089   34.7323   44.7535 H   0  0  0  0  0  0  0  0  0  0  0  0
   56.3909   33.5967   45.8750 H   0  0  0  0  0  0  0  0  0  0  0  0
   59.1879   34.7100   46.1836 H   0  0  0  0  0  0  0  0  0  0  0  0
   57.7505   34.8388   47.2877 H   0  0  0  0  0  0  0  0  0  0  0  0
   58.3210   32.0790   47.0460 H   0  0  0  0  0  0  0  0  0  0  0  0
   60.7244   33.4481   45.8856 H   0  0  0  0  0  0  0  0  0  0  0  0
   63.1025   33.9081   45.3283 H   0  0  0  0  0  0  0  0  0  0  0  0
   64.8105   34.0172   47.1338 H   0  0  0  0  0  0  0  0  0  0  0  0
   64.1406   33.7396   49.5091 H   0  0  0  0  0  0  0  0  0  0  0  0
   62.0715   33.6296   52.4503 H   0  0  0  0  0  0  0  0  0  0  0  0
   63.4896   33.3530   51.3830 H   0  0  0  0  0  0  0  0  0  0  0  0
   62.6630   34.9478   51.3830 H   0  0  0  0  0  0  0  0  0  0  0  0
   60.7470   32.6700   52.8364 H   0  0  0  0  0  0  0  0  0  0  0  0
   58.4744   31.8442   53.3801 H   0  0  0  0  0  0  0  0  0  0  0  0
   55.6730   31.6460   50.9840 H   0  0  0  0  0  0  0  0  0  0  0  0
   56.3552   31.0619   53.6838 H   0  0  0  0  0  0  0  0  0  0  0  0
   55.1083   30.2129   52.7086 H   0  0  0  0  0  0  0  0  0  0  0  0
   56.8046   29.6219   52.7086 H   0  0  0  0  0  0  0  0  0  0  0  0
   57.3976   32.0152   49.2031 H   0  0  0  0  0  0  0  0  0  0  0  0
  1  2  1  0
  2  3  1  0
  3  4  1  0
  3  5  1  0
  5  6  1  0
  6  7  1  0
  7  8  1  0
  8  9  1  0
  9 10  2  0
 10 11  1  0
 11 12  2  0
 12 13  1  0
 13 14  2  0
 14 15  1  0
 15 16  2  0
 16 17  1  0
 16 18  1  0
 18 19  2  0
 19 20  1  0
 20 21  2  0
 21 22  1  0
 22 23  1  0
 21 24  1  0
 24 25  2  0
 25  9  1  0
 15 10  1  0
 25 18  1  0
  1 26  1  0
  1 27  1  0
  1 28  1  0
  2 29  1  0
  2 30  1  0
  4 31  1  0
  4 32  1  0
  4 33  1  0
  5 34  1  0
  5 35  1  0
  6 36  1  0
  6 37  1  0
  7 38  1  0
  7 39  1  0
  8 40  1  0
 11 41  1  0
 12 42  1  0
 13 43  1  0
 14 44  1  0
 17 45  1  0
 17 46  1  0
 17 47  1  0
 19 48  1  0
 20 49  1  0
 22 50  1  0
 23 51  1  0
 23 52  1  0
 23 53  1  0
 24 54  1  0
M  CHG  1  16   1
M  END
>  <UniqueID>  (21) 
20

>  <SMILES>  (21) 
CCN(C)CCCNc1c2ccccc2[n+](C)c2ccc(NC)cc12

>  <Energy>  (21) 
74.41976422724083

>  <Genealogy>  (21) 
CCN(C)CCCNc1c2ccccc2[n+](C)c2ccc(NC)cc12 (3D coordinates assigned)
CCN(C)CCCNc1c2ccccc2[n+](C)c2ccc(NC)cc12 (optimized conformer: 74.41976422724083 kcal/mol)

>  <smiles>  (21) 
CCN(C)CCCNc1c2ccccc2[n+](C)c2ccc(NC)cc12

>  <score_type>  (21) 
oracle

>  <origin>  (21) 
adg

>  <m_score__min__energy>  (21) 
-6.1299999999999999

>  <m_primary>  (21) 
energy

$$$$
21:0
     RDKit          3D

 33 33  0  0  0  0  0  0  0  0999 V2000
   58.4090   32.5420   42.6090 C   0  0  0  0  0  0  0  0  0  0  0  0
   57.3970   31.9670   43.6260 C   0  0  2  0  0  0  0  0  0  0  0  0
   57.3940   32.6890   45.0110 C   0  0  2  0  0  0  0  0  0  0  0  0
   57.0260   34.1970   44.8960 C   0  0  0  0  0  0  0  0  0  0  0  0
   58.6060   32.3960   45.8730 N   0  0  0  0  0  0  0  0  0  0  0  0
   59.6720   33.4260   45.7480 C   0  0  0  0  0  0  0  0  0  0  0  0
   58.1850   32.3540   47.3030 C   0  0  0  0  0  0  0  0  0  0  0  0
   59.2110   31.0690   45.5240 C   0  0  0  0  0  0  0  0  0  0  0  0
   58.1760   30.0560   45.0400 C   0  0  0  0  0  0  0  0  0  0  0  0
   57.5460   30.4770   43.7650 N   0  0  1  0  0  0  0  0  0  0  0  0
   56.2490   29.7820   43.6110 C   0  0  0  0  0  0  0  0  0  0  0  0
   59.2424   33.0155   43.1487 H   0  0  0  0  0  0  0  0  0  0  0  0
   58.7961   31.7290   41.9773 H   0  0  0  0  0  0  0  0  0  0  0  0
   57.9087   33.2908   41.9773 H   0  0  0  0  0  0  0  0  0  0  0  0
   56.4035   32.1738   43.2016 H   0  0  0  0  0  0  0  0  0  0  0  0
   56.5715   32.2330   45.5816 H   0  0  0  0  0  0  0  0  0  0  0  0
   56.9211   34.6267   45.9032 H   0  0  0  0  0  0  0  0  0  0  0  0
   57.8209   34.7279   44.3518 H   0  0  0  0  0  0  0  0  0  0  0  0
   56.0759   34.3021   44.3518 H   0  0  0  0  0  0  0  0  0  0  0  0
   59.9974   33.7404   46.7506 H   0  0  0  0  0  0  0  0  0  0  0  0
   60.5275   33.0037   45.2005 H   0  0  0  0  0  0  0  0  0  0  0  0
   59.2793   34.2955   45.2005 H   0  0  0  0  0  0  0  0  0  0  0  0
   59.0711   32.4424   47.9488 H   0  0  0  0  0  0  0  0  0  0  0  0
   57.4975   33.1880   47.5075 H   0  0  0  0  0  0  0  0  0  0  0  0
   57.6759   31.4006   47.5075 H   0  0  0  0  0  0  0  0  0  0  0  0
   59.9542   31.2202   44.7273 H   0  0  0  0  0  0  0  0  0  0  0  0
   59.6695   30.6633   46.4379 H   0  0  0  0  0  0  0  0  0  0  0  0
   58.6715   29.0856   44.8887 H   0  0  0  0  0  0  0  0  0  0  0  0
   57.3870   29.9830   45.8029 H   0  0  0  0  0  0  0  0  0  0  0  0
   58.1530   30.1100   42.9950 H   0  0  0  0  0  0  0  0  0  0  0  0
   55.8324   29.5588   44.6043 H   0  0  0  0  0  0  0  0  0  0  0  0
   55.5509   30.4269   43.0571 H   0  0  0  0  0  0  0  0  0  0  0  0
   56.3993   28.8436   43.0571 H   0  0  0  0  0  0  0  0  0  0  0  0
  1  2  1  0
  2  3  1  0
  3  4  1  0
  3  5  1  0
  5  6  1  0
  5  7  1  0
  5  8  1  0
  8  9  1  0
  9 10  1  0
 10 11  1  0
 10  2  1  0
  1 12  1  0
  1 13  1  0
  1 14  1  0
  2 15  1  6
  3 16  1  1
  4 17  1  0
  4 18  1  0
  4 19  1  0
  6 20  1  0
  6 21  1  0
  6 22  1  0
  7 23  1  0
  7 24  1  0
  7 25  1  0
  8 26  1  0
  8 27  1  0
  9 28  1  0
  9 29  1  0
 10 30  1  6
 11 31  1  0
 11 32  1  0
 11 33  1  0
M  CHG  2   5   1  10   1
M  END
>  <UniqueID>  (22) 
21

>  <SMILES>  (22) 
C[C@@H]1[C@H](C)[N+](C)(C)CC[NH+]1C

>  <Energy>  (22) 
56.633565063303735

>  <Genealogy>  (22) 
CC1C(C)[N+](C)(C)CC[NH+]1C (protonated)
C[C@@H]1[C@H](C)[N+](C)(C)CC[NH+]1C (chirality)
C[C@@H]1[C@H](C)[N+](C)(C)CC[NH+]1C (3D coordinates assigned)
C[C@@H]1[C@H](C)[N+](C)(C)CC[NH+]1C (nonaromatic ring conformer: 56.633565063303735 kcal/mol)

>  <smiles>  (22) 
CC1C(C)[N+](C)(C)CCN1C

>  <score_type>  (22) 
oracle

>  <origin>  (22) 
adg

>  <m_score__min__energy>  (22) 
-1.46

>  <m_primary>  (22) 
energy

$$$$
22:0
     RDKit          3D

 62 66  0  0  0  0  0  0  0  0999 V2000
   58.3040   30.1760   52.7560 C   0  0  0  0  0  0  0  0  0  0  0  0
   58.3980   31.2900   51.7790 N   0  0  0  0  0  0  0  0  0  0  0  0
   57.0110   31.6200   51.3550 C   0  0  0  0  0  0  0  0  0  0  0  0
   59.0110   32.4600   52.4700 C   0  0  0  0  0  0  0  0  0  0  0  0
   59.3250   33.6480   51.5240 C   0  0  0  0  0  0  0  0  0  0  0  0
   59.6500   33.2350   50.1340 N   0  0  0  0  0  0  0  0  0  0  0  0
   60.5360   34.2330   49.4850 C   0  0  0  0  0  0  0  0  0  0  0  0
   60.2710   34.4170   47.9720 C   0  0  0  0  0  0  0  0  0  0  0  0
   58.9320   34.0550   47.6190 O   0  0  0  0  0  0  0  0  0  0  0  0
   58.5480   33.1170   46.6430 C   0  0  0  0  0  0  0  0  0  0  0  0
   58.0440   33.6010   45.4290 C   0  0  0  0  0  0  0  0  0  0  0  0
   57.5810   32.7230   44.4460 C   0  0  0  0  0  0  0  0  0  0  0  0
   57.6060   31.3360   44.6730 C   0  0  0  0  0  0  0  0  0  0  0  0
   57.1070   30.4120   43.7400 C   0  0  0  0  0  0  0  0  0  0  0  0
   56.6240   30.7950   42.6400 O   0  0  0  0  0  0  0  0  0  0  0  0
   57.1380   29.0490   44.0440 C   0  0  0  0  0  0  0  0  0  0  0  0
   57.6700   28.6290   45.2760 C   0  0  0  0  0  0  0  0  0  0  0  0
   57.6990   27.2000   45.6710 C   0  0  0  0  0  0  0  0  0  0  0  0
   58.9090   26.4790   45.7570 C   0  0  0  0  0  0  0  0  0  0  0  0
   58.9060   25.1320   46.1350 C   0  0  0  0  0  0  0  0  0  0  0  0
   57.7000   24.4940   46.4330 C   0  0  0  0  0  0  0  0  0  0  0  0
   56.4980   25.2070   46.3860 C   0  0  0  0  0  0  0  0  0  0  0  0
   56.4930   26.5500   45.9980 C   0  0  0  0  0  0  0  0  0  0  0  0
   55.3070   24.5600   46.7320 O   0  0  0  0  0  0  0  0  0  0  0  0
   55.3220   23.2910   47.3900 C   0  0  0  0  0  0  0  0  0  0  0  0
   56.4450   22.4110   46.8220 C   0  0  0  0  0  0  0  0  0  0  0  0
   57.6740   23.1400   46.7840 O   0  0  0  0  0  0  0  0  0  0  0  0
   58.1430   29.5360   46.1300 O   0  0  0  0  0  0  0  0  0  0  0  0
   58.1340   30.8410   45.8830 C   0  0  0  0  0  0  0  0  0  0  0  0
   58.6360   31.7260   46.8420 C   0  0  0  0  0  0  0  0  0  0  0  0
   60.2460   31.8860   50.1230 C   0  0  0  0  0  0  0  0  0  0  0  0
   59.2200   30.8400   50.6050 C   0  0  0  0  0  0  0  0  0  0  0  0
   58.3382   30.5809   53.7782 H   0  0  0  0  0  0  0  0  0  0  0  0
   57.3571   29.6364   52.6068 H   0  0  0  0  0  0  0  0  0  0  0  0
   59.1471   29.4854   52.6068 H   0  0  0  0  0  0  0  0  0  0  0  0
   56.3815   31.7698   52.2445 H   0  0  0  0  0  0  0  0  0  0  0  0
   57.0208   32.5409   50.7534 H   0  0  0  0  0  0  0  0  0  0  0  0
   56.6050   30.7934   50.7534 H   0  0  0  0  0  0  0  0  0  0  0  0
   58.3143   32.8090   53.2464 H   0  0  0  0  0  0  0  0  0  0  0  0
   59.9698   32.1202   52.8887 H   0  0  0  0  0  0  0  0  0  0  0  0
   58.4464   34.3092   51.4934 H   0  0  0  0  0  0  0  0  0  0  0  0
   60.2160   34.1524   51.9261 H   0  0  0  0  0  0  0  0  0  0  0  0
   58.7560   33.2130   49.6050 H   0  0  0  0  0  0  0  0  0  0  0  0
   60.3884   35.2027   49.9828 H   0  0  0  0  0  0  0  0  0  0  0  0
   61.5655   33.8589   49.5855 H   0  0  0  0  0  0  0  0  0  0  0  0
   60.4362   35.4718   47.7073 H   0  0  0  0  0  0  0  0  0  0  0  0
   60.9595   33.7588   47.4218 H   0  0  0  0  0  0  0  0  0  0  0  0
   58.0124   34.6855   45.2475 H   0  0  0  0  0  0  0  0  0  0  0  0
   57.1966   33.1173   43.4937 H   0  0  0  0  0  0  0  0  0  0  0  0
   56.7499   28.3112   43.3264 H   0  0  0  0  0  0  0  0  0  0  0  0
   59.8608   26.9794   45.5253 H   0  0  0  0  0  0  0  0  0  0  0  0
   59.8530   24.5758   46.1974 H   0  0  0  0  0  0  0  0  0  0  0  0
   55.5427   27.1018   45.9478 H   0  0  0  0  0  0  0  0  0  0  0  0
   55.4885   23.4422   48.4668 H   0  0  0  0  0  0  0  0  0  0  0  0
   54.3564   22.7905   47.2254 H   0  0  0  0  0  0  0  0  0  0  0  0
   56.5688   21.5236   47.4601 H   0  0  0  0  0  0  0  0  0  0  0  0
   56.1781   22.1051   45.7997 H   0  0  0  0  0  0  0  0  0  0  0  0
   59.1025   31.3331   47.7574 H   0  0  0  0  0  0  0  0  0  0  0  0
   60.5624   31.6381   49.0991 H   0  0  0  0  0  0  0  0  0  0  0  0
   61.1126   31.8737   50.8003 H   0  0  0  0  0  0  0  0  0  0  0  0
   58.5387   30.6135   49.7716 H   0  0  0  0  0  0  0  0  0  0  0  0
   59.7918   29.9598   50.9341 H   0  0  0  0  0  0  0  0  0  0  0  0
  1  2  1  0
  2  3  1  0
  2  4  1  0
  4  5  1  0
  5  6  1  0
  6  7  1  0
  7  8  1  0
  8  9  1  0
  9 10  1  0
 10 11  2  0
 11 12  1  0
 12 13  2  0
 13 14  1  0
 14 15  2  0
 14 16  1  0
 16 17  2  0
 17 18  1  0
 18 19  2  0
 19 20  1  0
 20 21  2  0
 21 22  1  0
 22 23  2  0
 22 24  1  0
 24 25  1  0
 25 26  1  0
 26 27  1  0
 17 28  1  0
 28 29  1  0
 29 30  2  0
  6 31  1  0
 31 32  1  0
 32  2  1  0
 30 10  1  0
 29 13  1  0
 23 18  1  0
 27 21  1  0
  1 33  1  0
  1 34  1  0
  1 35  1  0
  3 36  1  0
  3 37  1  0
  3 38  1  0
  4 39  1  0
  4 40  1  0
  5 41  1  0
  5 42  1  0
  6 43  1  0
  7 44  1  0
  7 45  1  0
  8 46  1  0
  8 47  1  0
 11 48  1  0
 12 49  1  0
 16 50  1  0
 19 51  1  0
 20 52  1  0
 23 53  1  0
 25 54  1  0
 25 55  1  0
 26 56  1  0
 26 57  1  0
 30 58  1  0
 31 59  1  0
 31 60  1  0
 32 61  1  0
 32 62  1  0
M  CHG  2   2   1   6   1
M  END
>  <UniqueID>  (23) 
22

>  <SMILES>  (23) 
C[N+]1(C)CC[NH+](CCOc2ccc3c(=O)cc(-c4ccc5c(c4)OCCO5)oc3c2)CC1

>  <Energy>  (23) 
93.90094013576935

>  <Genealogy>  (23) 
C[N+]1(C)CC[NH+](CCOc2ccc3c(=O)cc(-c4ccc5c(c4)OCCO5)oc3c2)CC1 (protonated)
C[N+]1(C)CC[NH+](CCOc2ccc3c(=O)cc(-c4ccc5c(c4)OCCO5)oc3c2)CC1 (3D coordinates assigned)
C[N+]1(C)CC[NH+](CCOc2ccc3c(=O)cc(-c4ccc5c(c4)OCCO5)oc3c2)CC1 (nonaromatic ring conformer: 93.90094013576935 kcal/mol)

>  <smiles>  (23) 
C[N+]1(C)CCN(CCOc2ccc3c(=O)cc(-c4ccc5c(c4)OCCO5)oc3c2)CC1

>  <score_type>  (23) 
oracle

>  <origin>  (23) 
adg

>  <m_score__min__energy>  (23) 
-6.3300000000000001

>  <m_primary>  (23) 
energy

$$$$
23:0
     RDKit          3D

 50 53  0  0  0  0  0  0  0  0999 V2000
   52.9450   30.3500   51.9400 C   0  0  0  0  0  0  0  0  0  0  0  0
   54.3840   30.2120   52.3400 C   0  0  0  0  0  0  0  0  0  0  0  0
   54.8230   29.0620   53.0080 C   0  0  0  0  0  0  0  0  0  0  0  0
   56.1690   28.9190   53.3520 C   0  0  0  0  0  0  0  0  0  0  0  0
   57.0880   29.9170   53.0210 C   0  0  0  0  0  0  0  0  0  0  0  0
   56.6720   31.0720   52.3330 C   0  0  0  0  0  0  0  0  0  0  0  0
   57.6230   32.0970   51.9790 N   0  0  0  0  0  0  0  0  0  0  0  0
   58.0770   33.0840   52.7820 C   0  0  0  0  0  0  0  0  0  0  0  0
   58.9790   33.8750   52.1000 C   0  0  0  0  0  0  0  0  0  0  0  0
   59.0790   33.3400   50.8300 C   0  0  0  0  0  0  0  0  0  0  0  0
   59.9490   33.8480   49.7090 C   0  0  0  0  0  0  0  0  0  0  0  0
   59.6210   33.2630   48.3920 N   0  0  0  0  0  0  0  0  0  0  0  0
   60.7590   32.5810   47.7520 C   0  0  0  0  0  0  0  0  0  0  0  0
   60.2280   31.6610   46.6470 C   0  0  0  0  0  0  0  0  0  0  0  0
   59.1100   32.2930   45.9330 N   0  0  0  0  0  0  0  0  0  0  0  0
   58.2290   31.4950   45.1200 C   0  0  0  0  0  0  0  0  0  0  0  0
   57.7450   30.2620   45.5930 C   0  0  0  0  0  0  0  0  0  0  0  0
   56.9010   29.4810   44.7980 C   0  0  0  0  0  0  0  0  0  0  0  0
   56.5350   29.9200   43.5230 C   0  0  0  0  0  0  0  0  0  0  0  0
   57.0180   31.1380   43.0390 C   0  0  0  0  0  0  0  0  0  0  0  0
   57.8630   31.9220   43.8300 C   0  0  0  0  0  0  0  0  0  0  0  0
   58.9470   33.7510   46.0160 C   0  0  0  0  0  0  0  0  0  0  0  0
   58.9420   34.2190   47.4850 C   0  0  0  0  0  0  0  0  0  0  0  0
   58.2300   32.2510   50.7830 C   0  0  0  0  0  0  0  0  0  0  0  0
   55.3120   31.2060   51.9900 C   0  0  0  0  0  0  0  0  0  0  0  0
   52.3179   30.4101   52.8417 H   0  0  0  0  0  0  0  0  0  0  0  0
   52.8166   31.2646   51.3424 H   0  0  0  0  0  0  0  0  0  0  0  0
   52.6451   29.4765   51.3424 H   0  0  0  0  0  0  0  0  0  0  0  0
   54.1050   28.2685   53.2627 H   0  0  0  0  0  0  0  0  0  0  0  0
   56.5062   28.0178   53.8851 H   0  0  0  0  0  0  0  0  0  0  0  0
   58.1454   29.7994   53.3003 H   0  0  0  0  0  0  0  0  0  0  0  0
   57.7719   33.2352   53.8280 H   0  0  0  0  0  0  0  0  0  0  0  0
   59.5117   34.7551   52.4894 H   0  0  0  0  0  0  0  0  0  0  0  0
   59.8296   34.9396   49.6438 H   0  0  0  0  0  0  0  0  0  0  0  0
   60.9822   33.5527   49.9442 H   0  0  0  0  0  0  0  0  0  0  0  0
   61.4392   33.3274   47.3160 H   0  0  0  0  0  0  0  0  0  0  0  0
   61.3070   31.9884   48.4994 H   0  0  0  0  0  0  0  0  0  0  0  0
   61.0381   31.4499   45.9335 H   0  0  0  0  0  0  0  0  0  0  0  0
   59.8697   30.7283   47.1072 H   0  0  0  0  0  0  0  0  0  0  0  0
   58.0324   29.9100   46.5948 H   0  0  0  0  0  0  0  0  0  0  0  0
   56.5245   28.5194   45.1768 H   0  0  0  0  0  0  0  0  0  0  0  0
   55.8668   29.3067   42.9007 H   0  0  0  0  0  0  0  0  0  0  0  0
   56.7329   31.4810   42.0335 H   0  0  0  0  0  0  0  0  0  0  0  0
   58.2440   32.8781   43.4418 H   0  0  0  0  0  0  0  0  0  0  0  0
   59.7787   34.2376   45.4854 H   0  0  0  0  0  0  0  0  0  0  0  0
   57.9863   34.0250   45.5556 H   0  0  0  0  0  0  0  0  0  0  0  0
   59.4567   35.1892   47.5471 H   0  0  0  0  0  0  0  0  0  0  0  0
   57.8927   34.2940   47.8064 H   0  0  0  0  0  0  0  0  0  0  0  0
   58.0726   31.6075   49.9049 H   0  0  0  0  0  0  0  0  0  0  0  0
   54.9738   32.0982   51.4426 H   0  0  0  0  0  0  0  0  0  0  0  0
  1  2  1  0
  2  3  2  0
  3  4  1  0
  4  5  2  0
  5  6  1  0
  6  7  1  0
  7  8  1  0
  8  9  2  0
  9 10  1  0
 10 11  1  0
 11 12  1  0
 12 13  1  0
 13 14  1  0
 14 15  1  0
 15 16  1  0
 16 17  2  0
 17 18  1  0
 18 19  2  0
 19 20  1  0
 20 21  2  0
 15 22  1  0
 22 23  1  0
 10 24  2  0
  6 25  2  0
 25  2  1  0
 24  7  1  0
 23 12  1  0
 21 16  1  0
  1 26  1  0
  1 27  1  0
  1 28  1  0
  3 29  1  0
  4 30  1  0
  5 31  1  0
  8 32  1  0
  9 33  1  0
 11 34  1  0
 11 35  1  0
 13 36  1  0
 13 37  1  0
 14 38  1  0
 14 39  1  0
 17 40  1  0
 18 41  1  0
 19 42  1  0
 20 43  1  0
 21 44  1  0
 22 45  1  0
 22 46  1  0
 23 47  1  0
 23 48  1  0
 24 49  1  0
 25 50  1  0
M  END
>  <UniqueID>  (24) 
23

>  <SMILES>  (24) 
Cc1cccc(-n2ccc(CN3CCN(c4ccccc4)CC3)c2)c1

>  <Energy>  (24) 
93.23281357384789

>  <Genealogy>  (24) 
Cc1cccc(-n2ccc(CN3CCN(c4ccccc4)CC3)c2)c1 (3D coordinates assigned)
Cc1cccc(-n2ccc(CN3CCN(c4ccccc4)CC3)c2)c1 (nonaromatic ring conformer: 93.23281357384789 kcal/mol)

>  <smiles>  (24) 
Cc1cccc(-n2ccc(CN3CCN(c4ccccc4)CC3)c2)c1

>  <score_type>  (24) 
oracle

>  <origin>  (24) 
adg

>  <m_score__min__energy>  (24) 
-8.5299999999999994

>  <m_primary>  (24) 
energy

$$$$
24:0
     RDKit          3D

 49 50  0  0  0  0  0  0  0  0999 V2000
   58.9750   29.2380   44.7720 C   0  0  0  0  0  0  0  0  0  0  0  0
   57.9300   29.9660   45.6350 C   0  0  0  0  0  0  0  0  0  0  0  0
   56.8780   30.6790   44.8720 N   0  0  0  0  0  0  0  0  0  0  0  0
   55.9400   29.8070   44.1290 C   0  0  0  0  0  0  0  0  0  0  0  0
   56.2860   29.7480   42.6410 C   0  0  0  0  0  0  0  0  0  0  0  0
   57.3280   31.9020   44.1650 C   0  0  0  0  0  0  0  0  0  0  0  0
   58.5370   32.5920   44.8250 C   0  0  0  0  0  0  0  0  0  0  0  0
   58.1830   33.9500   45.4760 C   0  0  2  0  0  0  0  0  0  0  0  0
   59.2160   35.0360   45.1290 C   0  0  0  0  0  0  0  0  0  0  0  0
   58.0300   33.8100   47.0060 C   0  0  0  0  0  0  0  0  0  0  0  0
   58.9800   34.6610   47.7310 N   0  0  0  0  0  0  0  0  0  0  0  0
   59.9780   34.1200   48.6160 C   0  0  0  0  0  0  0  0  0  0  0  0
   59.6510   33.8940   49.9640 C   0  0  0  0  0  0  0  0  0  0  0  0
   60.5880   33.3580   50.8450 C   0  0  0  0  0  0  0  0  0  0  0  0
   61.8680   33.0340   50.3990 C   0  0  0  0  0  0  0  0  0  0  0  0
   62.2270   33.2520   49.0620 C   0  0  0  0  0  0  0  0  0  0  0  0
   63.5080   32.8980   48.6140 C   0  0  0  0  0  0  0  0  0  0  0  0
   63.8610   33.0850   47.2770 C   0  0  0  0  0  0  0  0  0  0  0  0
   62.9460   33.6370   46.3810 C   0  0  0  0  0  0  0  0  0  0  0  0
   61.6700   34.0060   46.8150 C   0  0  0  0  0  0  0  0  0  0  0  0
   61.2840   33.8140   48.1580 C   0  0  0  0  0  0  0  0  0  0  0  0
   59.7014   28.7319   45.4249 H   0  0  0  0  0  0  0  0  0  0  0  0
   58.4720   28.4938   44.1370 H   0  0  0  0  0  0  0  0  0  0  0  0
   59.4988   29.9677   44.1370 H   0  0  0  0  0  0  0  0  0  0  0  0
   57.4396   29.2210   46.2788 H   0  0  0  0  0  0  0  0  0  0  0  0
   58.4775   30.7357   46.1988 H   0  0  0  0  0  0  0  0  0  0  0  0
   55.9893   28.7910   44.5476 H   0  0  0  0  0  0  0  0  0  0  0  0
   54.9275   30.2248   44.2307 H   0  0  0  0  0  0  0  0  0  0  0  0
   57.3640   29.5642   42.5222 H   0  0  0  0  0  0  0  0  0  0  0  0
   55.7205   28.9333   42.1651 H   0  0  0  0  0  0  0  0  0  0  0  0
   56.0224   30.7041   42.1651 H   0  0  0  0  0  0  0  0  0  0  0  0
   57.6047   31.6262   43.1367 H   0  0  0  0  0  0  0  0  0  0  0  0
   56.4930   32.6173   44.1987 H   0  0  0  0  0  0  0  0  0  0  0  0
   58.9383   31.9255   45.6027 H   0  0  0  0  0  0  0  0  0  0  0  0
   59.2727   32.7915   44.0319 H   0  0  0  0  0  0  0  0  0  0  0  0
   57.2154   34.2671   45.0598 H   0  0  0  0  0  0  0  0  0  0  0  0
   59.6234   35.4643   46.0567 H   0  0  0  0  0  0  0  0  0  0  0  0
   60.0324   34.5911   44.5411 H   0  0  0  0  0  0  0  0  0  0  0  0
   58.7308   35.8291   44.5411 H   0  0  0  0  0  0  0  0  0  0  0  0
   57.0068   34.0982   47.2889 H   0  0  0  0  0  0  0  0  0  0  0  0
   58.2359   32.7634   47.2748 H   0  0  0  0  0  0  0  0  0  0  0  0
   58.9970   35.6810   47.5040 H   0  0  0  0  0  0  0  0  0  0  0  0
   58.6433   34.1432   50.3279 H   0  0  0  0  0  0  0  0  0  0  0  0
   60.3162   33.1898   51.8975 H   0  0  0  0  0  0  0  0  0  0  0  0
   62.5997   32.6053   51.0995 H   0  0  0  0  0  0  0  0  0  0  0  0
   64.2368   32.4715   49.3189 H   0  0  0  0  0  0  0  0  0  0  0  0
   64.8637   32.7962   46.9289 H   0  0  0  0  0  0  0  0  0  0  0  0
   63.2299   33.7825   45.3283 H   0  0  0  0  0  0  0  0  0  0  0  0
   60.9597   34.4505   46.1024 H   0  0  0  0  0  0  0  0  0  0  0  0
  1  2  1  0
  2  3  1  0
  3  4  1  0
  4  5  1  0
  3  6  1  0
  6  7  1  0
  7  8  1  0
  8  9  1  0
  8 10  1  0
 10 11  1  0
 11 12  1  0
 12 13  2  0
 13 14  1  0
 14 15  2  0
 15 16  1  0
 16 17  2  0
 17 18  1  0
 18 19  2  0
 19 20  1  0
 20 21  2  0
 21 12  1  0
 21 16  1  0
  1 22  1  0
  1 23  1  0
  1 24  1  0
  2 25  1  0
  2 26  1  0
  4 27  1  0
  4 28  1  0
  5 29  1  0
  5 30  1  0
  5 31  1  0
  6 32  1  0
  6 33  1  0
  7 34  1  0
  7 35  1  0
  8 36  1  6
  9 37  1  0
  9 38  1  0
  9 39  1  0
 10 40  1  0
 10 41  1  0
 11 42  1  0
 13 43  1  0
 14 44  1  0
 15 45  1  0
 17 46  1  0
 18 47  1  0
 19 48  1  0
 20 49  1  0
M  END
>  <UniqueID>  (25) 
24

>  <SMILES>  (25) 
CCN(CC)CC[C@H](C)CNc1cccc2ccccc12

>  <Energy>  (25) 
54.557070244078766

>  <Genealogy>  (25) 
CCN(CC)CC[C@H](C)CNc1cccc2ccccc12 (chirality)
CCN(CC)CC[C@H](C)CNc1cccc2ccccc12 (3D coordinates assigned)
CCN(CC)CC[C@H](C)CNc1cccc2ccccc12 (optimized conformer: 54.557070244078766 kcal/mol)

>  <smiles>  (25) 
CCN(CC)CCC(C)CNc1cccc2ccccc12

>  <score_type>  (25) 
oracle

>  <origin>  (25) 
adg

>  <m_score__min__energy>  (25) 
-7.46

>  <m_primary>  (25) 
energy

$$$$
25:0
     RDKit          3D

 33 34  0  0  0  0  0  0  0  0999 V2000
   62.6070   31.5170   47.4980 C   0  0  0  0  0  0  0  0  0  0  0  0
   63.4620   32.5050   47.2200 C   0  0  0  0  0  0  0  0  0  0  0  0
   62.9890   33.8440   46.7290 C   0  0  0  0  0  0  0  0  0  0  0  0
   61.5570   34.0190   47.0160 N   0  0  0  0  0  0  0  0  0  0  0  0
   60.6870   33.9700   45.9940 N   0  0  0  0  0  0  0  0  0  0  0  0
   59.3450   34.1220   46.1780 C   0  0  0  0  0  0  0  0  0  0  0  0
   58.4370   34.0330   45.0140 C   0  0  0  0  0  0  0  0  0  0  0  0
   58.4860   33.0880   44.0590 C   0  0  0  0  0  0  0  0  0  0  0  0
   57.9820   31.7040   44.2020 C   0  0  0  0  0  0  0  0  0  0  0  0
   57.0320   31.1770   43.3060 C   0  0  0  0  0  0  0  0  0  0  0  0
   56.5900   29.8590   43.4400 C   0  0  0  0  0  0  0  0  0  0  0  0
   57.1050   29.0470   44.4550 C   0  0  0  0  0  0  0  0  0  0  0  0
   58.0700   29.5520   45.3310 C   0  0  0  0  0  0  0  0  0  0  0  0
   58.5150   30.8710   45.2010 C   0  0  0  0  0  0  0  0  0  0  0  0
   59.4530   31.3420   46.0630 F   0  0  0  0  0  0  0  0  0  0  0  0
   58.8510   34.2770   47.4780 C   0  0  0  0  0  0  0  0  0  0  0  0
   59.7400   34.3210   48.5420 C   0  0  0  0  0  0  0  0  0  0  0  0
   61.1060   34.1900   48.3000 C   0  0  0  0  0  0  0  0  0  0  0  0
   61.9090   34.2270   49.2720 O   0  0  0  0  0  0  0  0  0  0  0  0
   62.9842   30.5476   47.8559 H   0  0  0  0  0  0  0  0  0  0  0  0
   61.5257   31.6728   47.3690 H   0  0  0  0  0  0  0  0  0  0  0  0
   64.5403   32.3339   47.3540 H   0  0  0  0  0  0  0  0  0  0  0  0
   63.5594   34.6374   47.2341 H   0  0  0  0  0  0  0  0  0  0  0  0
   63.1444   33.9004   45.6415 H   0  0  0  0  0  0  0  0  0  0  0  0
   61.0440   33.8210   45.0220 H   0  0  0  0  0  0  0  0  0  0  0  0
   57.6573   34.8035   44.9221 H   0  0  0  0  0  0  0  0  0  0  0  0
   58.9365   33.3656   43.0947 H   0  0  0  0  0  0  0  0  0  0  0  0
   56.6358   31.8070   42.4960 H   0  0  0  0  0  0  0  0  0  0  0  0
   55.8358   29.4593   42.7462 H   0  0  0  0  0  0  0  0  0  0  0  0
   56.7509   28.0113   44.5641 H   0  0  0  0  0  0  0  0  0  0  0  0
   58.4803   28.9102   46.1245 H   0  0  0  0  0  0  0  0  0  0  0  0
   57.7687   34.3631   47.6544 H   0  0  0  0  0  0  0  0  0  0  0  0
   59.3695   34.4582   49.5686 H   0  0  0  0  0  0  0  0  0  0  0  0
  1  2  2  0
  2  3  1  0
  3  4  1  0
  4  5  1  0
  5  6  2  0
  6  7  1  0
  7  8  2  3
  8  9  1  0
  9 10  2  0
 10 11  1  0
 11 12  2  0
 12 13  1  0
 13 14  2  0
 14 15  1  0
  6 16  1  0
 16 17  2  0
 17 18  1  0
 18 19  2  0
 18  4  1  0
 14  9  1  0
  1 20  1  0
  1 21  1  0
  2 22  1  0
  3 23  1  0
  3 24  1  0
  5 25  1  0
  7 26  1  0
  8 27  1  0
 10 28  1  0
 11 29  1  0
 12 30  1  0
 13 31  1  0
 16 32  1  0
 17 33  1  0
M  CHG  1   5   1
M  END
>  <UniqueID>  (26) 
25

>  <SMILES>  (26) 
C=CCn1[nH+]c(C=Cc2ccccc2F)ccc1=O

>  <Energy>  (26) 
42.37562841196342

>  <Genealogy>  (26) 
C=CCn1[nH+]c(C=Cc2ccccc2F)ccc1=O (protonated)
C=CCn1[nH+]c(C=Cc2ccccc2F)ccc1=O (3D coordinates assigned)
C=CCn1[nH+]c(C=Cc2ccccc2F)ccc1=O (optimized conformer: 42.37562841196342 kcal/mol)

>  <smiles>  (26) 
C=CCn1nc(C=Cc2ccccc2F)ccc1=O

>  <score_type>  (26) 
oracle

>  <origin>  (26) 
adg

>  <m_score__min__energy>  (26) 
-5.25

>  <m_primary>  (26) 
energy

$$$$
26:0
     RDKit          3D

 51 54  0  0  0  0  0  0  0  0999 V2000
   57.3950   32.5980   44.1750 C   0  0  0  0  0  0  0  0  0  0  0  0
   57.4360   33.6600   45.1940 N   0  0  0  0  0  0  0  0  0  0  0  0
   57.3830   33.1040   46.5730 C   0  0  0  0  0  0  0  0  0  0  0  0
   58.5220   33.5800   47.4880 C   0  0  0  0  0  0  0  0  0  0  0  0
   59.8000   33.5120   46.7760 N   0  0  0  0  0  0  0  0  0  0  0  0
   60.9900   33.1220   47.4830 C   0  0  0  0  0  0  0  0  0  0  0  0
   61.8700   34.1050   47.9580 C   0  0  0  0  0  0  0  0  0  0  0  0
   62.9810   33.7530   48.7280 C   0  0  0  0  0  0  0  0  0  0  0  0
   63.2270   32.4080   49.0540 C   0  0  0  0  0  0  0  0  0  0  0  0
   64.3990   32.0360   49.8870 C   0  0  0  0  0  0  0  0  0  0  0  0
   64.3070   30.9910   50.8260 C   0  0  0  0  0  0  0  0  0  0  0  0
   65.4130   30.6420   51.6070 C   0  0  0  0  0  0  0  0  0  0  0  0
   66.6200   31.3300   51.4610 C   0  0  0  0  0  0  0  0  0  0  0  0
   66.7240   32.3680   50.5320 C   0  0  0  0  0  0  0  0  0  0  0  0
   65.6210   32.7220   49.7480 C   0  0  0  0  0  0  0  0  0  0  0  0
   62.3430   31.4230   48.5810 C   0  0  0  0  0  0  0  0  0  0  0  0
   61.2430   31.7660   47.7840 C   0  0  0  0  0  0  0  0  0  0  0  0
   60.3880   30.7240   47.2960 N   0  0  0  0  0  0  0  0  0  0  0  0
   60.3500   29.4240   47.8980 C   0  0  0  0  0  0  0  0  0  0  0  0
   60.9310   29.2170   48.9980 O   0  0  0  0  0  0  0  0  0  0  0  0
   59.6210   28.3290   47.2430 C   0  0  0  0  0  0  0  0  0  0  0  0
   60.1870   27.2980   46.5150 C   0  0  0  0  0  0  0  0  0  0  0  0
   59.1320   26.5250   46.0750 C   0  0  0  0  0  0  0  0  0  0  0  0
   57.9970   27.1370   46.5650 C   0  0  0  0  0  0  0  0  0  0  0  0
   56.6490   26.6850   46.3560 C   0  0  0  0  0  0  0  0  0  0  0  0
   55.5640   26.3210   46.1890 N   0  0  0  0  0  0  0  0  0  0  0  0
   58.3130   28.2070   47.2550 O   0  0  0  0  0  0  0  0  0  0  0  0
   59.8980   34.0640   45.4210 C   0  0  0  0  0  0  0  0  0  0  0  0
   58.5430   34.6100   44.9480 C   0  0  0  0  0  0  0  0  0  0  0  0
   57.3571   31.6163   44.6698 H   0  0  0  0  0  0  0  0  0  0  0  0
   56.5012   32.7268   43.5469 H   0  0  0  0  0  0  0  0  0  0  0  0
   58.2961   32.6575   43.5469 H   0  0  0  0  0  0  0  0  0  0  0  0
   56.4271   33.4018   47.0286 H   0  0  0  0  0  0  0  0  0  0  0  0
   57.4883   32.0131   46.4784 H   0  0  0  0  0  0  0  0  0  0  0  0
   58.3317   34.6187   47.7959 H   0  0  0  0  0  0  0  0  0  0  0  0
   58.5680   32.9300   48.3742 H   0  0  0  0  0  0  0  0  0  0  0  0
   61.6837   35.1631   47.7221 H   0  0  0  0  0  0  0  0  0  0  0  0
   63.6690   34.5348   49.0822 H   0  0  0  0  0  0  0  0  0  0  0  0
   63.3592   30.4458   50.9459 H   0  0  0  0  0  0  0  0  0  0  0  0
   65.3325   29.8239   52.3380 H   0  0  0  0  0  0  0  0  0  0  0  0
   67.4883   31.0544   52.0775 H   0  0  0  0  0  0  0  0  0  0  0  0
   67.6753   32.9081   50.4167 H   0  0  0  0  0  0  0  0  0  0  0  0
   65.7086   33.5409   49.0188 H   0  0  0  0  0  0  0  0  0  0  0  0
   62.5172   30.3682   48.8401 H   0  0  0  0  0  0  0  0  0  0  0  0
   59.6660   30.9720   46.5820 H   0  0  0  0  0  0  0  0  0  0  0  0
   61.2574   27.1291   46.3258 H   0  0  0  0  0  0  0  0  0  0  0  0
   59.1849   25.6128   45.4625 H   0  0  0  0  0  0  0  0  0  0  0  0
   60.6353   34.8803   45.4179 H   0  0  0  0  0  0  0  0  0  0  0  0
   60.2089   33.2601   44.7376 H   0  0  0  0  0  0  0  0  0  0  0  0
   58.3318   35.5458   45.4862 H   0  0  0  0  0  0  0  0  0  0  0  0
   58.6082   34.7756   43.8625 H   0  0  0  0  0  0  0  0  0  0  0  0
  1  2  1  0
  2  3  1  0
  3  4  1  0
  4  5  1  0
  5  6  1  0
  6  7  2  0
  7  8  1  0
  8  9  2  0
  9 10  1  0
 10 11  2  0
 11 12  1  0
 12 13  2  0
 13 14  1  0
 14 15  2  0
  9 16  1  0
 16 17  2  0
 17 18  1  0
 18 19  1  0
 19 20  2  0
 19 21  1  0
 21 22  2  0
 22 23  1  0
 23 24  2  0
 24 25  1  0
 25 26  3  0
 24 27  1  0
  5 28  1  0
 28 29  1  0
 29  2  1  0
 17  6  1  0
 27 21  1  0
 15 10  1  0
  1 30  1  0
  1 31  1  0
  1 32  1  0
  3 33  1  0
  3 34  1  0
  4 35  1  0
  4 36  1  0
  7 37  1  0
  8 38  1  0
 11 39  1  0
 12 40  1  0
 13 41  1  0
 14 42  1  0
 15 43  1  0
 16 44  1  0
 18 45  1  0
 22 46  1  0
 23 47  1  0
 28 48  1  0
 28 49  1  0
 29 50  1  0
 29 51  1  0
M  END
>  <UniqueID>  (27) 
26

>  <SMILES>  (27) 
CN1CCN(c2ccc(-c3ccccc3)cc2NC(=O)c2ccc(C#N)o2)CC1

>  <Energy>  (27) 
99.05682387207578

>  <Genealogy>  (27) 
CN1CCN(c2ccc(-c3ccccc3)cc2NC(=O)c2ccc(C#N)o2)CC1 (3D coordinates assigned)
CN1CCN(c2ccc(-c3ccccc3)cc2NC(=O)c2ccc(C#N)o2)CC1 (nonaromatic ring conformer: 99.05682387207578 kcal/mol)

>  <smiles>  (27) 
CN1CCN(c2ccc(-c3ccccc3)cc2NC(=O)c2ccc(C#N)o2)CC1

>  <score_type>  (27) 
oracle

>  <origin>  (27) 
adg

>  <m_score__min__energy>  (27) 
-8.1799999999999997

>  <m_primary>  (27) 
energy

$$$$
27:0
     RDKit          3D

 37 39  0  0  0  0  0  0  0  0999 V2000
   53.6440   26.6510   46.3740 H   0  0  0  0  0  0  0  0  0  0  0  0
   54.1370   25.9700   45.7530 N   0  0  0  0  0  0  0  0  0  0  0  0
   55.4800   25.5730   46.0200 C   0  0  0  0  0  0  0  0  0  0  0  0
   55.7130   24.3690   46.3130 O   0  0  0  0  0  0  0  0  0  0  0  0
   56.6050   26.5370   45.9630 C   0  0  0  0  0  0  0  0  0  0  0  0
   56.3290   27.8200   45.5960 N   0  0  0  0  0  0  0  0  0  0  0  0
   57.2940   28.7700   45.5130 C   0  0  0  0  0  0  0  0  0  0  0  0
   56.9770   30.0780   45.1310 C   0  0  0  0  0  0  0  0  0  0  0  0
   55.9355   30.3430   44.8964 H   0  0  0  0  0  0  0  0  0  0  0  0
   57.9820   31.0530   45.0460 C   0  0  0  0  0  0  0  0  0  0  0  0
   57.6180   32.3510   44.6570 O   0  0  0  0  0  0  0  0  0  0  0  0
   57.9200   33.5270   45.4010 C   0  0  0  0  0  0  0  0  0  0  0  0
   57.8630   33.3050   46.4769 H   0  0  0  0  0  0  0  0  0  0  0  0
   58.9351   33.8688   45.1504 H   0  0  0  0  0  0  0  0  0  0  0  0
   57.1952   34.3156   45.1504 H   0  0  0  0  0  0  0  0  0  0  0  0
   59.3140   30.7010   45.3480 C   0  0  0  0  0  0  0  0  0  0  0  0
   60.1085   31.4590   45.2828 H   0  0  0  0  0  0  0  0  0  0  0  0
   59.6300   29.3930   45.7300 C   0  0  0  0  0  0  0  0  0  0  0  0
   60.6705   29.1241   45.9648 H   0  0  0  0  0  0  0  0  0  0  0  0
   58.6220   28.4280   45.8130 C   0  0  0  0  0  0  0  0  0  0  0  0
   58.9100   27.1560   46.1820 N   0  0  0  0  0  0  0  0  0  0  0  0
   57.9470   26.1940   46.2660 C   0  0  0  0  0  0  0  0  0  0  0  0
   58.2660   24.9820   46.6190 N   0  0  0  0  0  0  0  0  0  0  0  0
   59.1160   24.0770   45.8460 C   0  0  0  0  0  0  0  0  0  0  0  0
   59.8381   24.6680   45.2635 H   0  0  0  0  0  0  0  0  0  0  0  0
   59.6454   23.4073   46.5397 H   0  0  0  0  0  0  0  0  0  0  0  0
   58.2840   23.2450   44.9060 C   0  0  0  0  0  0  0  0  0  0  0  0
   57.3790   23.8600   44.0300 C   0  0  0  0  0  0  0  0  0  0  0  0
   57.2608   24.9536   44.0393 H   0  0  0  0  0  0  0  0  0  0  0  0
   56.6280   23.0840   43.1460 C   0  0  0  0  0  0  0  0  0  0  0  0
   55.9134   23.5604   42.4587 H   0  0  0  0  0  0  0  0  0  0  0  0
   56.7920   21.6970   43.1420 C   0  0  0  0  0  0  0  0  0  0  0  0
   56.2048   21.0767   42.4489 H   0  0  0  0  0  0  0  0  0  0  0  0
   57.6780   21.1110   43.9950 N   0  0  0  0  0  0  0  0  0  0  0  0
   57.7910   20.0740   43.9770 H   0  0  0  0  0  0  0  0  0  0  0  0
   58.4200   21.8490   44.8660 C   0  0  0  0  0  0  0  0  0  0  0  0
   59.1294   21.3485   45.5415 H   0  0  0  0  0  0  0  0  0  0  0  0
  1  2  1  0
  2  3  1  0
  3  4  2  0
  3  5  1  0
  5  6  2  0
  6  7  1  0
  7  8  2  0
  8  9  1  0
  8 10  1  0
 10 11  1  0
 11 12  1  0
 12 13  1  0
 12 14  1  0
 12 15  1  0
 10 16  2  0
 16 17  1  0
 16 18  1  0
 18 19  1  0
 18 20  2  0
 20 21  1  0
 21 22  1  0
 22 23  2  0
 23 24  1  0
 24 25  1  0
 24 26  1  0
 24 27  1  0
 27 28  2  0
 28 29  1  0
 28 30  1  0
 30 31  1  0
 30 32  2  0
 32 33  1  0
 32 34  1  0
 34 35  1  0
 34 36  2  0
 36 37  1  0
 22  5  1  0
 36 27  1  0
 20  7  1  0
M  CHG  3   2  -1  21  -1  34   1
M  END
>  <UniqueID>  (28) 
27

>  <SMILES>  (28) 
COc1ccc2[n-]/c(=N\Cc3ccc[nH+]c3)c(C([NH-])=O)nc2c1

>  <Energy>  (28) 
43.11059513564098

>  <Genealogy>  (28) 
COc1ccc2[n-]c(=NCc3ccc[nH+]c3)c(C([NH-])=O)nc2c1 (protonated)
COc1ccc2[n-]/c(=N\Cc3ccc[nH+]c3)c(C([NH-])=O)nc2c1 (cis-trans isomerization)
COc1ccc2[n-]/c(=N\Cc3ccc[nH+]c3)c(C([NH-])=O)nc2c1 (3D coordinates assigned)
COc1ccc2[n-]/c(=N\Cc3ccc[nH+]c3)c(C([NH-])=O)nc2c1 (optimized conformer: 43.11059513564098 kcal/mol)

>  <smiles>  (28) 
COc1ccc2[nH]c(=NCc3cccnc3)c(C(N)=O)nc2c1

>  <score_type>  (28) 
oracle

>  <origin>  (28) 
adg

>  <m_score__min__energy>  (28) 
-10.390000000000001

>  <m_primary>  (28) 
energy

$$$$
28:0
     RDKit          3D

 55 58  0  0  0  0  0  0  0  0999 V2000
   60.0350   29.9990   47.9320 C   0  0  0  0  0  0  0  0  0  0  0  0
   60.7880   30.0620   46.6130 C   0  0  0  0  0  0  0  0  0  0  0  0
   59.9870   29.4810   45.5890 O   0  0  0  0  0  0  0  0  0  0  0  0
   59.3800   28.2180   45.6640 C   0  0  0  0  0  0  0  0  0  0  0  0
   60.0430   27.1080   46.2190 C   0  0  0  0  0  0  0  0  0  0  0  0
   59.4130   25.8630   46.2750 C   0  0  0  0  0  0  0  0  0  0  0  0
   58.1080   25.7080   45.7910 C   0  0  0  0  0  0  0  0  0  0  0  0
   57.4460   24.3610   45.8110 C   0  0  0  0  0  0  0  0  0  0  0  0
   57.4480   26.8060   45.2220 C   0  0  0  0  0  0  0  0  0  0  0  0
   58.0720   28.0610   45.1680 C   0  0  0  0  0  0  0  0  0  0  0  0
   57.2120   29.4330   44.4590 S   0  0  0  0  0  0  0  0  0  0  0  0
   56.8880   29.1080   43.0270 O   0  0  0  0  0  0  0  0  0  0  0  0
   55.9340   29.6830   45.2100 O   0  0  0  0  0  0  0  0  0  0  0  0
   58.2130   30.8650   44.5290 N   0  0  0  0  0  0  0  0  0  0  0  0
   57.9860   31.6210   45.7840 C   0  0  0  0  0  0  0  0  0  0  0  0
   57.1300   32.8810   45.5680 C   0  0  0  0  0  0  0  0  0  0  0  0
   57.7240   33.8010   44.5650 N   0  0  0  0  0  0  0  0  0  0  0  0
   58.5040   34.8780   45.2120 C   0  0  0  0  0  0  0  0  0  0  0  0
   59.4260   34.3170   46.2630 C   0  0  0  0  0  0  0  0  0  0  0  0
   58.9910   34.1910   47.6090 C   0  0  0  0  0  0  0  0  0  0  0  0
   59.8420   33.6400   48.5840 C   0  0  0  0  0  0  0  0  0  0  0  0
   61.1070   33.2250   48.1840 C   0  0  0  0  0  0  0  0  0  0  0  0
   61.5280   33.3390   46.8980 C   0  0  0  0  0  0  0  0  0  0  0  0
   60.7180   33.8780   45.9020 C   0  0  0  0  0  0  0  0  0  0  0  0
   62.8140   32.8470   46.7890 O   0  0  0  0  0  0  0  0  0  0  0  0
   63.2280   32.3990   48.0870 C   0  0  0  0  0  0  0  0  0  0  0  0
   62.1090   32.6570   48.9470 O   0  0  0  0  0  0  0  0  0  0  0  0
   58.5220   33.1030   43.5250 C   0  0  0  0  0  0  0  0  0  0  0  0
   58.0330   31.6680   43.3050 C   0  0  0  0  0  0  0  0  0  0  0  0
   60.7501   30.0588   48.7657 H   0  0  0  0  0  0  0  0  0  0  0  0
   59.3301   30.8413   47.9924 H   0  0  0  0  0  0  0  0  0  0  0  0
   59.4799   29.0513   47.9924 H   0  0  0  0  0  0  0  0  0  0  0  0
   61.0027   31.1111   46.3616 H   0  0  0  0  0  0  0  0  0  0  0  0
   61.7346   29.5086   46.7008 H   0  0  0  0  0  0  0  0  0  0  0  0
   61.0643   27.2217   46.6114 H   0  0  0  0  0  0  0  0  0  0  0  0
   59.9445   24.9995   46.7015 H   0  0  0  0  0  0  0  0  0  0  0  0
   57.2904   24.0444   46.8529 H   0  0  0  0  0  0  0  0  0  0  0  0
   56.4752   24.4219   45.2974 H   0  0  0  0  0  0  0  0  0  0  0  0
   58.0873   23.6296   45.2974 H   0  0  0  0  0  0  0  0  0  0  0  0
   56.4336   26.6825   44.8150 H   0  0  0  0  0  0  0  0  0  0  0  0
   57.4728   30.9651   46.5026 H   0  0  0  0  0  0  0  0  0  0  0  0
   58.9675   31.9450   46.1604 H   0  0  0  0  0  0  0  0  0  0  0  0
   56.1321   32.5754   45.2204 H   0  0  0  0  0  0  0  0  0  0  0  0
   57.0746   33.4184   46.5262 H   0  0  0  0  0  0  0  0  0  0  0  0
   59.1018   35.3980   44.4489 H   0  0  0  0  0  0  0  0  0  0  0  0
   57.8050   35.5769   45.6946 H   0  0  0  0  0  0  0  0  0  0  0  0
   57.9820   34.5265   47.8909 H   0  0  0  0  0  0  0  0  0  0  0  0
   59.5168   33.5406   49.6301 H   0  0  0  0  0  0  0  0  0  0  0  0
   61.0744   33.9593   44.8645 H   0  0  0  0  0  0  0  0  0  0  0  0
   63.4607   31.3240   48.0683 H   0  0  0  0  0  0  0  0  0  0  0  0
   64.1378   32.9138   48.4294 H   0  0  0  0  0  0  0  0  0  0  0  0
   58.4376   33.6576   42.5788 H   0  0  0  0  0  0  0  0  0  0  0  0
   59.5673   33.0611   43.8650 H   0  0  0  0  0  0  0  0  0  0  0  0
   56.9660   31.6865   43.0384 H   0  0  0  0  0  0  0  0  0  0  0  0
   58.6201   31.2137   42.4932 H   0  0  0  0  0  0  0  0  0  0  0  0
  1  2  1  0
  2  3  1  0
  3  4  1  0
  4  5  2  0
  5  6  1  0
  6  7  2  0
  7  8  1  0
  7  9  1  0
  9 10  2  0
 10 11  1  0
 11 12  2  0
 11 13  2  0
 11 14  1  0
 14 15  1  0
 15 16  1  0
 16 17  1  0
 17 18  1  0
 18 19  1  0
 19 20  2  0
 20 21  1  0
 21 22  2  0
 22 23  1  0
 23 24  2  0
 23 25  1  0
 25 26  1  0
 26 27  1  0
 17 28  1  0
 28 29  1  0
 10  4  1  0
 29 14  1  0
 24 19  1  0
 27 22  1  0
  1 30  1  0
  1 31  1  0
  1 32  1  0
  2 33  1  0
  2 34  1  0
  5 35  1  0
  6 36  1  0
  8 37  1  0
  8 38  1  0
  8 39  1  0
  9 40  1  0
 15 41  1  0
 15 42  1  0
 16 43  1  0
 16 44  1  0
 18 45  1  0
 18 46  1  0
 20 47  1  0
 21 48  1  0
 24 49  1  0
 26 50  1  0
 26 51  1  0
 28 52  1  0
 28 53  1  0
 29 54  1  0
 29 55  1  0
M  END
>  <UniqueID>  (29) 
28

>  <SMILES>  (29) 
CCOc1ccc(C)cc1S(=O)(=O)N1CCN(Cc2ccc3c(c2)OCO3)CC1

>  <Energy>  (29) 
91.62881902656042

>  <Genealogy>  (29) 
CCOc1ccc(C)cc1S(=O)(=O)N1CCN(Cc2ccc3c(c2)OCO3)CC1 (3D coordinates assigned)
CCOc1ccc(C)cc1S(=O)(=O)N1CCN(Cc2ccc3c(c2)OCO3)CC1 (nonaromatic ring conformer: 91.62881902656042 kcal/mol)

>  <smiles>  (29) 
CCOc1ccc(C)cc1S(=O)(=O)N1CCN(Cc2ccc3c(c2)OCO3)CC1

>  <score_type>  (29) 
oracle

>  <origin>  (29) 
adg

>  <m_score__min__energy>  (29) 
-8.3200000000000003

>  <m_primary>  (29) 
energy

$$$$
29:0
     RDKit          3D

 47 50  0  0  0  0  0  0  0  0999 V2000
   57.7060   33.3270   47.0860 C   0  0  0  0  0  0  0  0  0  0  0  0
   57.6090   32.3780   45.9530 N   0  0  0  0  0  0  0  0  0  0  0  0
   57.7120   33.1650   44.7030 C   0  0  0  0  0  0  0  0  0  0  0  0
   58.5960   31.2360   45.9400 C   0  0  2  0  0  0  0  0  0  0  0  0
   57.8790   29.9220   45.6500 C   0  0  0  0  0  0  0  0  0  0  0  0
   56.6500   29.8940   45.3590 O   0  0  0  0  0  0  0  0  0  0  0  0
   58.6090   28.6950   45.7030 N   0  0  0  0  0  0  0  0  0  0  0  0
   58.1900   27.5560   44.9270 C   0  0  0  0  0  0  0  0  0  0  0  0
   57.7480   26.3890   45.5730 C   0  0  0  0  0  0  0  0  0  0  0  0
   57.3480   25.2760   44.8240 C   0  0  0  0  0  0  0  0  0  0  0  0
   57.3910   25.3190   43.4290 C   0  0  0  0  0  0  0  0  0  0  0  0
   57.8370   26.4730   42.7780 C   0  0  0  0  0  0  0  0  0  0  0  0
   58.2380   27.5870   43.5220 C   0  0  0  0  0  0  0  0  0  0  0  0
   59.6980   28.6230   46.6270 C   0  0  0  0  0  0  0  0  0  0  0  0
   60.4390   27.6010   46.6570 O   0  0  0  0  0  0  0  0  0  0  0  0
   59.9360   29.7110   47.5330 N   0  0  0  0  0  0  0  0  0  0  0  0
   60.7380   29.4520   48.7500 C   0  0  0  0  0  0  0  0  0  0  0  0
   61.0140   30.7370   49.5570 C   0  0  0  0  0  0  0  0  0  0  0  0
   61.3910   31.8500   48.6140 C   0  0  0  0  0  0  0  0  0  0  0  0
   62.5140   32.6540   48.8620 C   0  0  0  0  0  0  0  0  0  0  0  0
   62.9340   33.5780   47.9050 C   0  0  0  0  0  0  0  0  0  0  0  0
   62.2580   33.6800   46.6890 C   0  0  0  0  0  0  0  0  0  0  0  0
   61.1350   32.8870   46.4370 C   0  0  0  0  0  0  0  0  0  0  0  0
   60.6450   32.0080   47.4270 C   0  0  0  0  0  0  0  0  0  0  0  0
   59.4360   31.0820   47.2690 C   0  0  1  0  0  0  0  0  0  0  0  0
   57.6493   32.7727   48.0344 H   0  0  0  0  0  0  0  0  0  0  0  0
   58.6638   33.8652   47.0325 H   0  0  0  0  0  0  0  0  0  0  0  0
   56.8769   34.0479   47.0325 H   0  0  0  0  0  0  0  0  0  0  0  0
   56.6390   31.9870   46.0070 H   0  0  0  0  0  0  0  0  0  0  0  0
   57.8511   34.2280   44.9494 H   0  0  0  0  0  0  0  0  0  0  0  0
   58.5713   32.8093   44.1155 H   0  0  0  0  0  0  0  0  0  0  0  0
   56.7902   33.0424   44.1155 H   0  0  0  0  0  0  0  0  0  0  0  0
   59.3125   31.4812   45.1421 H   0  0  0  0  0  0  0  0  0  0  0  0
   57.7162   26.3498   46.6718 H   0  0  0  0  0  0  0  0  0  0  0  0
   56.9994   24.3664   45.3351 H   0  0  0  0  0  0  0  0  0  0  0  0
   57.0738   24.4445   42.8420 H   0  0  0  0  0  0  0  0  0  0  0  0
   57.8725   26.5047   41.6790 H   0  0  0  0  0  0  0  0  0  0  0  0
   58.5925   28.4915   43.0060 H   0  0  0  0  0  0  0  0  0  0  0  0
   60.1907   28.7439   49.3896 H   0  0  0  0  0  0  0  0  0  0  0  0
   61.7075   29.0413   48.4315 H   0  0  0  0  0  0  0  0  0  0  0  0
   60.1100   31.0203   50.1161 H   0  0  0  0  0  0  0  0  0  0  0  0
   61.8393   30.5577   50.2617 H   0  0  0  0  0  0  0  0  0  0  0  0
   63.0627   32.5557   49.8103 H   0  0  0  0  0  0  0  0  0  0  0  0
   63.7987   34.2265   48.1093 H   0  0  0  0  0  0  0  0  0  0  0  0
   62.6106   34.3881   45.9246 H   0  0  0  0  0  0  0  0  0  0  0  0
   60.6301   32.9482   45.4616 H   0  0  0  0  0  0  0  0  0  0  0  0
   58.6630   31.3706   47.9965 H   0  0  0  0  0  0  0  0  0  0  0  0
  1  2  1  0
  2  3  1  0
  2  4  1  0
  4  5  1  0
  5  6  2  0
  5  7  1  0
  7  8  1  0
  8  9  2  0
  9 10  1  0
 10 11  2  0
 11 12  1  0
 12 13  2  0
  7 14  1  0
 14 15  2  0
 14 16  1  0
 16 17  1  0
 17 18  1  0
 18 19  1  0
 19 20  2  0
 20 21  1  0
 21 22  2  0
 22 23  1  0
 23 24  2  0
 24 25  1  0
 25  4  1  0
 13  8  1  0
 25 16  1  0
 24 19  1  0
  1 26  1  0
  1 27  1  0
  1 28  1  0
  2 29  1  0
  3 30  1  0
  3 31  1  0
  3 32  1  0
  4 33  1  6
  9 34  1  0
 10 35  1  0
 11 36  1  0
 12 37  1  0
 13 38  1  0
 17 39  1  0
 17 40  1  0
 18 41  1  0
 18 42  1  0
 20 43  1  0
 21 44  1  0
 22 45  1  0
 23 46  1  0
 25 47  1  1
M  CHG  1   2   1
M  END
>  <UniqueID>  (30) 
29

>  <SMILES>  (30) 
C[NH+](C)[C@@H]1C(=O)N(c2ccccc2)C(=O)N2CCc3ccccc3[C@@H]12

>  <Energy>  (30) 
85.23585677214008

>  <Genealogy>  (30) 
C[NH+](C)C1C(=O)N(c2ccccc2)C(=O)N2CCc3ccccc3C12 (protonated)
C[NH+](C)[C@@H]1C(=O)N(c2ccccc2)C(=O)N2CCc3ccccc3[C@@H]12 (chirality)
C[NH+](C)[C@@H]1C(=O)N(c2ccccc2)C(=O)N2CCc3ccccc3[C@@H]12 (3D coordinates assigned)
C[NH+](C)[C@@H]1C(=O)N(c2ccccc2)C(=O)N2CCc3ccccc3[C@@H]12 (nonaromatic ring conformer: 85.23585677214008 kcal/mol)

>  <smiles>  (30) 
CN(C)C1C(=O)N(c2ccccc2)C(=O)N2CCc3ccccc3C12

>  <score_type>  (30) 
oracle

>  <origin>  (30) 
adg

>  <m_score__min__energy>  (30) 
-6.2699999999999996

>  <m_primary>  (30) 
energy

$$$$
30:0
     RDKit          3D

 51 54  0  0  0  0  0  0  0  0999 V2000
   59.6380   35.0070   45.6930 C   0  0  0  0  0  0  0  0  0  0  0  0
   59.3320   34.2120   44.5520 O   0  0  0  0  0  0  0  0  0  0  0  0
   58.6030   33.0140   44.5940 C   0  0  0  0  0  0  0  0  0  0  0  0
   57.9860   32.4630   43.4560 C   0  0  0  0  0  0  0  0  0  0  0  0
   57.2680   31.2680   43.5510 C   0  0  0  0  0  0  0  0  0  0  0  0
   57.1440   30.6070   44.7840 C   0  0  0  0  0  0  0  0  0  0  0  0
   56.3920   29.3340   44.8710 C   0  0  0  0  0  0  0  0  0  0  0  0
   55.1910   29.3020   44.4900 O   0  0  0  0  0  0  0  0  0  0  0  0
   57.0100   28.0870   45.3620 C   0  0  0  0  0  0  0  0  0  0  0  0
   56.3230   26.9520   45.7790 C   0  0  0  0  0  0  0  0  0  0  0  0
   57.1920   25.9990   46.1900 N   0  0  0  0  0  0  0  0  0  0  0  0
   56.8290   24.6980   46.7530 C   0  0  0  0  0  0  0  0  0  0  0  0
   56.1520   23.8310   45.6820 C   0  0  0  0  0  0  0  0  0  0  0  0
   57.0070   23.5540   44.5080 N   0  0  0  0  0  0  0  0  0  0  0  0
   56.3110   23.6080   43.2020 C   0  0  0  0  0  0  0  0  0  0  0  0
   56.2700   22.2430   42.5010 C   0  0  0  0  0  0  0  0  0  0  0  0
   56.1530   21.2150   43.4570 O   0  0  0  0  0  0  0  0  0  0  0  0
   57.3730   21.0780   44.1600 C   0  0  0  0  0  0  0  0  0  0  0  0
   57.9440   22.4230   44.6730 C   0  0  0  0  0  0  0  0  0  0  0  0
   58.4250   26.5320   46.0720 C   0  0  0  0  0  0  0  0  0  0  0  0
   59.6490   25.9570   46.4320 C   0  0  0  0  0  0  0  0  0  0  0  0
   60.8140   26.7260   46.2680 C   0  0  0  0  0  0  0  0  0  0  0  0
   60.7370   28.0430   45.7710 C   0  0  0  0  0  0  0  0  0  0  0  0
   59.4950   28.6030   45.4250 C   0  0  0  0  0  0  0  0  0  0  0  0
   58.3540   27.8110   45.5710 C   0  0  0  0  0  0  0  0  0  0  0  0
   57.7760   31.1510   45.9150 C   0  0  0  0  0  0  0  0  0  0  0  0
   58.4930   32.3470   45.8190 C   0  0  0  0  0  0  0  0  0  0  0  0
   59.4183   34.4361   46.6072 H   0  0  0  0  0  0  0  0  0  0  0  0
   60.7043   35.2769   45.6766 H   0  0  0  0  0  0  0  0  0  0  0  0
   59.0279   35.9221   45.6766 H   0  0  0  0  0  0  0  0  0  0  0  0
   58.0692   32.9756   42.4863 H   0  0  0  0  0  0  0  0  0  0  0  0
   56.7963   30.8418   42.6533 H   0  0  0  0  0  0  0  0  0  0  0  0
   55.2283   26.8440   45.7754 H   0  0  0  0  0  0  0  0  0  0  0  0
   57.7367   24.1906   47.1118 H   0  0  0  0  0  0  0  0  0  0  0  0
   56.1301   24.8494   47.5889 H   0  0  0  0  0  0  0  0  0  0  0  0
   55.8708   22.8712   46.1400 H   0  0  0  0  0  0  0  0  0  0  0  0
   55.2813   24.3956   45.3172 H   0  0  0  0  0  0  0  0  0  0  0  0
   55.2790   23.9514   43.3662 H   0  0  0  0  0  0  0  0  0  0  0  0
   56.8692   24.2999   42.5541 H   0  0  0  0  0  0  0  0  0  0  0  0
   55.4061   22.2083   41.8209 H   0  0  0  0  0  0  0  0  0  0  0  0
   57.1995   22.1017   41.9300 H   0  0  0  0  0  0  0  0  0  0  0  0
   57.2048   20.4187   45.0243 H   0  0  0  0  0  0  0  0  0  0  0  0
   58.1079   20.6620   43.4552 H   0  0  0  0  0  0  0  0  0  0  0  0
   58.1799   22.3176   45.7422 H   0  0  0  0  0  0  0  0  0  0  0  0
   58.8379   22.6488   44.0730 H   0  0  0  0  0  0  0  0  0  0  0  0
   59.6979   24.9333   46.8316 H   0  0  0  0  0  0  0  0  0  0  0  0
   61.7927   26.2972   46.5293 H   0  0  0  0  0  0  0  0  0  0  0  0
   61.6555   28.6367   45.6531 H   0  0  0  0  0  0  0  0  0  0  0  0
   59.4238   29.6347   45.0502 H   0  0  0  0  0  0  0  0  0  0  0  0
   57.7060   30.6321   46.8824 H   0  0  0  0  0  0  0  0  0  0  0  0
   58.9748   32.7674   46.7141 H   0  0  0  0  0  0  0  0  0  0  0  0
  1  2  1  0
  2  3  1  0
  3  4  2  0
  4  5  1  0
  5  6  2  0
  6  7  1  0
  7  8  2  0
  7  9  1  0
  9 10  2  0
 10 11  1  0
 11 12  1  0
 12 13  1  0
 13 14  1  0
 14 15  1  0
 15 16  1  0
 16 17  1  0
 17 18  1  0
 18 19  1  0
 11 20  1  0
 20 21  2  0
 21 22  1  0
 22 23  2  0
 23 24  1  0
 24 25  2  0
  6 26  1  0
 26 27  2  0
 27  3  1  0
 25  9  1  0
 19 14  1  0
 25 20  1  0
  1 28  1  0
  1 29  1  0
  1 30  1  0
  4 31  1  0
  5 32  1  0
 10 33  1  0
 12 34  1  0
 12 35  1  0
 13 36  1  0
 13 37  1  0
 15 38  1  0
 15 39  1  0
 16 40  1  0
 16 41  1  0
 18 42  1  0
 18 43  1  0
 19 44  1  0
 19 45  1  0
 21 46  1  0
 22 47  1  0
 23 48  1  0
 24 49  1  0
 26 50  1  0
 27 51  1  0
M  END
>  <UniqueID>  (31) 
30

>  <SMILES>  (31) 
COc1ccc(C(=O)c2cn(CCN3CCOCC3)c3ccccc23)cc1

>  <Energy>  (31) 
105.86731585541408

>  <Genealogy>  (31) 
COc1ccc(C(=O)c2cn(CCN3CCOCC3)c3ccccc23)cc1 (3D coordinates assigned)
COc1ccc(C(=O)c2cn(CCN3CCOCC3)c3ccccc23)cc1 (nonaromatic ring conformer: 105.86731585541408 kcal/mol)

>  <smiles>  (31) 
COc1ccc(C(=O)c2cn(CCN3CCOCC3)c3ccccc23)cc1

>  <score_type>  (31) 
oracle

>  <origin>  (31) 
adg

>  <m_score__min__energy>  (31) 
-8.6699999999999999

>  <m_primary>  (31) 
energy

$$$$
31:0
     RDKit          3D

 30 31  0  0  0  0  0  0  0  0999 V2000
   57.7710   27.7290   43.4240 C   0  0  0  0  0  0  0  0  0  0  0  0
   57.9630   29.1230   43.8510 N   0  0  0  0  0  0  0  0  0  0  0  0
   59.1020   29.2380   44.7740 C   0  0  0  0  0  0  0  0  0  0  0  0
   56.7600   29.6250   44.4710 C   0  0  0  0  0  0  0  0  0  0  0  0
   55.8940   28.8210   44.9170 O   0  0  0  0  0  0  0  0  0  0  0  0
   56.5260   31.0390   44.5130 N   0  0  0  0  0  0  0  0  0  0  0  0
   57.3780   32.0270   45.1110 C   0  0  0  0  0  0  0  0  0  0  0  0
   57.6140   33.2720   44.5020 C   0  0  0  0  0  0  0  0  0  0  0  0
   58.4320   34.2210   45.1220 C   0  0  0  0  0  0  0  0  0  0  0  0
   59.0130   33.9450   46.3680 C   0  0  0  0  0  0  0  0  0  0  0  0
   59.8360   34.8910   46.9990 C   0  0  0  0  0  0  0  0  0  0  0  0
   60.4030   34.6060   48.2450 C   0  0  0  0  0  0  0  0  0  0  0  0
   60.1530   33.3800   48.8680 C   0  0  0  0  0  0  0  0  0  0  0  0
   59.3350   32.4300   48.2500 C   0  0  0  0  0  0  0  0  0  0  0  0
   58.7600   32.7030   46.9990 C   0  0  0  0  0  0  0  0  0  0  0  0
   57.9380   31.7580   46.3670 C   0  0  0  0  0  0  0  0  0  0  0  0
   57.6820   27.0831   44.3099 H   0  0  0  0  0  0  0  0  0  0  0  0
   56.8539   27.6531   42.8213 H   0  0  0  0  0  0  0  0  0  0  0  0
   58.6334   27.4080   42.8213 H   0  0  0  0  0  0  0  0  0  0  0  0
   58.1740   29.6990   43.0010 H   0  0  0  0  0  0  0  0  0  0  0  0
   58.7384   29.2013   45.8115 H   0  0  0  0  0  0  0  0  0  0  0  0
   59.8001   28.4058   44.6005 H   0  0  0  0  0  0  0  0  0  0  0  0
   59.6196   30.1930   44.6005 H   0  0  0  0  0  0  0  0  0  0  0  0
   57.1516   33.5010   43.5305 H   0  0  0  0  0  0  0  0  0  0  0  0
   58.6205   35.1871   44.6310 H   0  0  0  0  0  0  0  0  0  0  0  0
   60.0351   35.8574   46.5128 H   0  0  0  0  0  0  0  0  0  0  0  0
   61.0480   35.3492   48.7366 H   0  0  0  0  0  0  0  0  0  0  0  0
   60.6017   33.1620   49.8484 H   0  0  0  0  0  0  0  0  0  0  0  0
   59.1415   31.4668   48.7448 H   0  0  0  0  0  0  0  0  0  0  0  0
   57.7313   30.7975   46.8617 H   0  0  0  0  0  0  0  0  0  0  0  0
  1  2  1  0
  2  3  1  0
  2  4  1  0
  4  5  2  0
  4  6  1  0
  6  7  1  0
  7  8  2  0
  8  9  1  0
  9 10  2  0
 10 11  1  0
 11 12  2  0
 12 13  1  0
 13 14  2  0
 14 15  1  0
 15 16  2  0
 16  7  1  0
 15 10  1  0
  1 17  1  0
  1 18  1  0
  1 19  1  0
  2 20  1  0
  3 21  1  0
  3 22  1  0
  3 23  1  0
  8 24  1  0
  9 25  1  0
 11 26  1  0
 12 27  1  0
 13 28  1  0
 14 29  1  0
 16 30  1  0
M  CHG  2   2   1   6  -1
M  END
>  <UniqueID>  (32) 
31

>  <SMILES>  (32) 
C[NH+](C)C(=O)[N-]c1ccc2ccccc2c1

>  <Energy>  (32) 
36.92441211481684

>  <Genealogy>  (32) 
C[NH+](C)C(=O)[N-]c1ccc2ccccc2c1 (protonated)
C[NH+](C)C(=O)[N-]c1ccc2ccccc2c1 (3D coordinates assigned)
C[NH+](C)C(=O)[N-]c1ccc2ccccc2c1 (optimized conformer: 36.92441211481684 kcal/mol)

>  <smiles>  (32) 
CN(C)C(=O)Nc1ccc2ccccc2c1

>  <score_type>  (32) 
oracle

>  <origin>  (32) 
adg

>  <m_score__min__energy>  (32) 
-6.71

>  <m_primary>  (32) 
energy

$$$$
32:0
     RDKit          3D

 65 68  0  0  0  0  0  0  0  0999 V2000
   60.6050   31.3390   46.6020 O   0  0  0  0  0  0  0  0  0  0  0  0
   59.6570   31.9360   47.1720 C   0  0  0  0  0  0  0  0  0  0  0  0
   59.3550   31.6400   48.5830 C   0  0  0  0  0  0  0  0  0  0  0  0
   58.8930   30.3470   48.9560 C   0  0  0  0  0  0  0  0  0  0  0  0
   58.5450   29.3760   47.9420 N   0  0  0  0  0  0  0  0  0  0  0  0
   59.1270   28.0340   47.8720 C   0  0  0  0  0  0  0  0  0  0  0  0
   59.4000   27.6070   46.4220 C   0  0  0  0  0  0  0  0  0  0  0  0
   59.5980   28.7990   45.4630 C   0  0  0  0  0  0  0  0  0  0  0  0
   58.3300   29.5000   45.1690 N   0  0  0  0  0  0  0  0  0  0  0  0
   57.2480   28.5640   44.8090 C   0  0  0  0  0  0  0  0  0  0  0  0
   55.9390   29.3430   44.5820 C   0  0  0  0  0  0  0  0  0  0  0  0
   56.1400   30.7420   44.4960 O   0  0  0  0  0  0  0  0  0  0  0  0
   57.1740   31.0220   43.5730 C   0  0  0  0  0  0  0  0  0  0  0  0
   58.5270   30.4790   44.0800 C   0  0  0  0  0  0  0  0  0  0  0  0
   58.7470   30.0440   50.3250 C   0  0  0  0  0  0  0  0  0  0  0  0
   59.0110   31.0070   51.3000 C   0  0  0  0  0  0  0  0  0  0  0  0
   59.4050   32.2890   50.9290 C   0  0  0  0  0  0  0  0  0  0  0  0
   59.5660   32.6210   49.5800 C   0  0  0  0  0  0  0  0  0  0  0  0
   60.0750   34.3060   49.1920 S   0  0  0  0  0  0  0  0  0  0  0  0
   61.7990   33.8720   48.9450 C   0  0  0  0  0  0  0  0  0  0  0  0
   62.3250   33.8260   47.6500 C   0  0  0  0  0  0  0  0  0  0  0  0
   63.6470   33.4270   47.4390 C   0  0  0  0  0  0  0  0  0  0  0  0
   64.4600   33.1050   48.5310 C   0  0  0  0  0  0  0  0  0  0  0  0
   63.9600   33.1970   49.8470 C   0  0  0  0  0  0  0  0  0  0  0  0
   64.8270   32.8370   51.0260 C   0  0  0  0  0  0  0  0  0  0  0  0
   64.6040   33.7410   52.0490 F   0  0  0  0  0  0  0  0  0  0  0  0
   66.1670   32.8750   50.6690 F   0  0  0  0  0  0  0  0  0  0  0  0
   64.5320   31.5620   51.4780 F   0  0  0  0  0  0  0  0  0  0  0  0
   62.6100   33.5390   50.0400 C   0  0  0  0  0  0  0  0  0  0  0  0
   58.9740   32.9910   46.4880 N   0  0  0  0  0  0  0  0  0  0  0  0
   59.7090   34.1970   46.1060 C   0  0  0  0  0  0  0  0  0  0  0  0
   59.1010   34.7920   44.8300 C   0  0  0  0  0  0  0  0  0  0  0  0
   57.7020   34.9650   44.9690 O   0  0  0  0  0  0  0  0  0  0  0  0
   57.0740   33.7050   45.1260 C   0  0  0  0  0  0  0  0  0  0  0  0
   57.5090   33.0300   46.4300 C   0  0  0  0  0  0  0  0  0  0  0  0
   57.8130   29.6200   47.2410 H   0  0  0  0  0  0  0  0  0  0  0  0
   60.0750   28.0272   48.4299 H   0  0  0  0  0  0  0  0  0  0  0  0
   58.4074   27.3254   48.3080 H   0  0  0  0  0  0  0  0  0  0  0  0
   60.3105   26.9900   46.4051 H   0  0  0  0  0  0  0  0  0  0  0  0
   58.5169   27.0513   46.0738 H   0  0  0  0  0  0  0  0  0  0  0  0
   60.2973   29.5117   45.9245 H   0  0  0  0  0  0  0  0  0  0  0  0
   59.9924   28.4055   44.5145 H   0  0  0  0  0  0  0  0  0  0  0  0
   57.5194   28.0292   43.8869 H   0  0  0  0  0  0  0  0  0  0  0  0
   57.1044   27.8426   45.6269 H   0  0  0  0  0  0  0  0  0  0  0  0
   55.4816   28.9955   43.6439 H   0  0  0  0  0  0  0  0  0  0  0  0
   55.2877   29.1550   45.4483 H   0  0  0  0  0  0  0  0  0  0  0  0
   56.9344   30.5488   42.6093 H   0  0  0  0  0  0  0  0  0  0  0  0
   57.2547   32.1128   43.4560 H   0  0  0  0  0  0  0  0  0  0  0  0
   59.0531   29.9896   43.2471 H   0  0  0  0  0  0  0  0  0  0  0  0
   59.1192   31.3208   44.4683 H   0  0  0  0  0  0  0  0  0  0  0  0
   58.4215   29.0379   50.6280 H   0  0  0  0  0  0  0  0  0  0  0  0
   58.9073   30.7519   52.3650 H   0  0  0  0  0  0  0  0  0  0  0  0
   59.5914   33.0477   51.7033 H   0  0  0  0  0  0  0  0  0  0  0  0
   61.6944   34.1055   46.7931 H   0  0  0  0  0  0  0  0  0  0  0  0
   64.0479   33.3661   46.4165 H   0  0  0  0  0  0  0  0  0  0  0  0
   65.4966   32.7777   48.3623 H   0  0  0  0  0  0  0  0  0  0  0  0
   62.1873   33.5455   51.0555 H   0  0  0  0  0  0  0  0  0  0  0  0
   59.6472   34.9354   46.9189 H   0  0  0  0  0  0  0  0  0  0  0  0
   60.7619   33.9379   45.9207 H   0  0  0  0  0  0  0  0  0  0  0  0
   59.5665   35.7686   44.6309 H   0  0  0  0  0  0  0  0  0  0  0  0
   59.2881   34.0996   43.9960 H   0  0  0  0  0  0  0  0  0  0  0  0
   55.9833   33.8468   45.1415 H   0  0  0  0  0  0  0  0  0  0  0  0
   57.3686   33.0609   44.2844 H   0  0  0  0  0  0  0  0  0  0  0  0
   57.1220   33.6012   47.2867 H   0  0  0  0  0  0  0  0  0  0  0  0
   57.1105   32.0054   46.4663 H   0  0  0  0  0  0  0  0  0  0  0  0
  1  2  2  0
  2  3  1  0
  3  4  1  0
  4  5  1  0
  5  6  1  0
  6  7  1  0
  7  8  1  0
  8  9  1  0
  9 10  1  0
 10 11  1  0
 11 12  1  0
 12 13  1  0
 13 14  1  0
  4 15  2  0
 15 16  1  0
 16 17  2  0
 17 18  1  0
 18 19  1  0
 19 20  1  0
 20 21  2  0
 21 22  1  0
 22 23  2  0
 23 24  1  0
 24 25  1  0
 25 26  1  0
 25 27  1  0
 25 28  1  0
 24 29  2  0
  2 30  1  0
 30 31  1  0
 31 32  1  0
 32 33  1  0
 33 34  1  0
 34 35  1  0
 18  3  2  0
 29 20  1  0
 35 30  1  0
 14  9  1  0
  5 36  1  0
  6 37  1  0
  6 38  1  0
  7 39  1  0
  7 40  1  0
  8 41  1  0
  8 42  1  0
 10 43  1  0
 10 44  1  0
 11 45  1  0
 11 46  1  0
 13 47  1  0
 13 48  1  0
 14 49  1  0
 14 50  1  0
 15 51  1  0
 16 52  1  0
 17 53  1  0
 21 54  1  0
 22 55  1  0
 23 56  1  0
 29 57  1  0
 31 58  1  0
 31 59  1  0
 32 60  1  0
 32 61  1  0
 34 62  1  0
 34 63  1  0
 35 64  1  0
 35 65  1  0
M  END
>  <UniqueID>  (33) 
32

>  <SMILES>  (33) 
O=C(c1c(NCCCN2CCOCC2)cccc1Sc1cccc(C(F)(F)F)c1)N1CCOCC1

>  <Energy>  (33) 
85.31231199790066

>  <Genealogy>  (33) 
O=C(c1c(NCCCN2CCOCC2)cccc1Sc1cccc(C(F)(F)F)c1)N1CCOCC1 (3D coordinates assigned)
O=C(c1c(NCCCN2CCOCC2)cccc1Sc1cccc(C(F)(F)F)c1)N1CCOCC1 (nonaromatic ring conformer: 85.31231199790066 kcal/mol)

>  <smiles>  (33) 
O=C(c1c(NCCCN2CCOCC2)cccc1Sc1cccc(C(F)(F)F)c1)N1CCOCC1

>  <score_type>  (33) 
oracle

>  <origin>  (33) 
adg

>  <m_score__min__energy>  (33) 
-8.8399999999999999

>  <m_primary>  (33) 
energy

$$$$
33:0
     RDKit          3D

 56 59  0  0  0  0  0  0  0  0999 V2000
   63.0630   33.8330   46.7770 C   0  0  0  0  0  0  0  0  0  0  0  0
   63.0500   32.3510   47.1320 C   0  0  0  0  0  0  0  0  0  0  0  0
   62.9960   32.1980   48.6060 N   0  0  0  0  0  0  0  0  0  0  0  0
   64.1670   32.7720   49.3040 C   0  0  0  0  0  0  0  0  0  0  0  0
   63.7340   33.8480   50.2950 C   0  0  0  0  0  0  0  0  0  0  0  0
   61.7090   32.6410   49.1860 C   0  0  0  0  0  0  0  0  0  0  0  0
   60.7430   31.4830   49.5080 C   0  0  0  0  0  0  0  0  0  0  0  0
   59.4040   31.8030   49.0200 N   0  0  0  0  0  0  0  0  0  0  0  0
   59.1160   31.7890   47.6160 C   0  0  0  0  0  0  0  0  0  0  0  0
   59.1340   32.9660   46.8310 C   0  0  0  0  0  0  0  0  0  0  0  0
   59.5240   34.1970   47.3910 C   0  0  0  0  0  0  0  0  0  0  0  0
   59.5810   35.3480   46.6070 C   0  0  0  0  0  0  0  0  0  0  0  0
   59.2740   35.2870   45.2520 C   0  0  0  0  0  0  0  0  0  0  0  0
   58.8930   34.0790   44.6660 C   0  0  0  0  0  0  0  0  0  0  0  0
   58.7890   32.8960   45.4370 C   0  0  0  0  0  0  0  0  0  0  0  0
   58.3950   31.6900   44.8730 N   0  0  0  0  0  0  0  0  0  0  0  0
   57.7790   31.6240   43.5380 C   0  0  0  0  0  0  0  0  0  0  0  0
   58.5330   30.5530   45.6270 C   0  0  0  0  0  0  0  0  0  0  0  0
   58.8480   30.5900   46.9680 C   0  0  0  0  0  0  0  0  0  0  0  0
   58.8530   29.3560   47.5150 N   0  0  0  0  0  0  0  0  0  0  0  0
   58.5710   28.5190   46.4970 C   0  0  0  0  0  0  0  0  0  0  0  0
   58.5200   27.1280   46.5620 C   0  0  0  0  0  0  0  0  0  0  0  0
   58.2720   26.4120   45.3740 C   0  0  0  0  0  0  0  0  0  0  0  0
   58.2500   24.9130   45.3940 C   0  0  0  0  0  0  0  0  0  0  0  0
   58.1340   27.1070   44.1500 C   0  0  0  0  0  0  0  0  0  0  0  0
   58.1950   28.5110   44.1070 C   0  0  0  0  0  0  0  0  0  0  0  0
   58.3810   29.2030   45.3090 C   0  0  0  0  0  0  0  0  0  0  0  0
   63.0682   34.4311   47.7002 H   0  0  0  0  0  0  0  0  0  0  0  0
   63.9632   34.0609   46.1873 H   0  0  0  0  0  0  0  0  0  0  0  0
   62.1670   34.0767   46.1873 H   0  0  0  0  0  0  0  0  0  0  0  0
   62.1678   31.8733   46.6809 H   0  0  0  0  0  0  0  0  0  0  0  0
   63.9624   31.8728   46.7462 H   0  0  0  0  0  0  0  0  0  0  0  0
   64.6910   31.9717   49.8470 H   0  0  0  0  0  0  0  0  0  0  0  0
   64.8334   33.2284   48.5573 H   0  0  0  0  0  0  0  0  0  0  0  0
   63.8814   33.4816   51.3217 H   0  0  0  0  0  0  0  0  0  0  0  0
   64.3374   34.7544   50.1389 H   0  0  0  0  0  0  0  0  0  0  0  0
   62.6710   34.0838   50.1389 H   0  0  0  0  0  0  0  0  0  0  0  0
   61.9177   33.1882   50.1171 H   0  0  0  0  0  0  0  0  0  0  0  0
   61.2158   33.2706   48.4308 H   0  0  0  0  0  0  0  0  0  0  0  0
   61.0994   30.5641   49.0196 H   0  0  0  0  0  0  0  0  0  0  0  0
   60.7058   31.3344   50.5973 H   0  0  0  0  0  0  0  0  0  0  0  0
   58.7990   32.3900   49.6390 H   0  0  0  0  0  0  0  0  0  0  0  0
   59.7864   34.2512   48.4579 H   0  0  0  0  0  0  0  0  0  0  0  0
   59.8696   36.3073   47.0613 H   0  0  0  0  0  0  0  0  0  0  0  0
   59.3319   36.1976   44.6376 H   0  0  0  0  0  0  0  0  0  0  0  0
   58.6702   34.0455   43.5893 H   0  0  0  0  0  0  0  0  0  0  0  0
   56.6902   31.5073   43.6420 H   0  0  0  0  0  0  0  0  0  0  0  0
   57.9975   32.5507   42.9871 H   0  0  0  0  0  0  0  0  0  0  0  0
   58.1889   30.7646   42.9871 H   0  0  0  0  0  0  0  0  0  0  0  0
   59.0570   29.0940   48.5060 H   0  0  0  0  0  0  0  0  0  0  0  0
   58.6696   26.6022   47.5165 H   0  0  0  0  0  0  0  0  0  0  0  0
   58.2448   24.5602   46.4359 H   0  0  0  0  0  0  0  0  0  0  0  0
   57.3465   24.5527   44.8804 H   0  0  0  0  0  0  0  0  0  0  0  0
   59.1426   24.5263   44.8804 H   0  0  0  0  0  0  0  0  0  0  0  0
   57.9769   26.5417   43.2195 H   0  0  0  0  0  0  0  0  0  0  0  0
   58.0990   29.0513   43.1536 H   0  0  0  0  0  0  0  0  0  0  0  0
  1  2  1  0
  2  3  1  0
  3  4  1  0
  4  5  1  0
  3  6  1  0
  6  7  1  0
  7  8  1  0
  8  9  1  0
  9 10  2  0
 10 11  1  0
 11 12  2  0
 12 13  1  0
 13 14  2  0
 14 15  1  0
 15 16  2  0
 16 17  1  0
 16 18  1  0
 18 19  2  0
 19 20  1  0
 20 21  1  0
 21 22  2  0
 22 23  1  0
 23 24  1  0
 23 25  2  0
 25 26  1  0
 26 27  2  0
 19  9  1  0
 27 21  1  0
 15 10  1  0
 27 18  1  0
  1 28  1  0
  1 29  1  0
  1 30  1  0
  2 31  1  0
  2 32  1  0
  4 33  1  0
  4 34  1  0
  5 35  1  0
  5 36  1  0
  5 37  1  0
  6 38  1  0
  6 39  1  0
  7 40  1  0
  7 41  1  0
  8 42  1  0
 11 43  1  0
 12 44  1  0
 13 45  1  0
 14 46  1  0
 17 47  1  0
 17 48  1  0
 17 49  1  0
 20 50  1  0
 22 51  1  0
 24 52  1  0
 24 53  1  0
 24 54  1  0
 25 55  1  0
 26 56  1  0
M  CHG  1  16   1
M  END
>  <UniqueID>  (34) 
33

>  <SMILES>  (34) 
CCN(CC)CCNc1c2ccccc2[n+](C)c2c1[nH]c1cc(C)ccc12

>  <Energy>  (34) 
117.99705830085266

>  <Genealogy>  (34) 
CCN(CC)CCNc1c2ccccc2[n+](C)c2c1[nH]c1cc(C)ccc12 (3D coordinates assigned)
CCN(CC)CCNc1c2ccccc2[n+](C)c2c1[nH]c1cc(C)ccc12 (optimized conformer: 117.99705830085266 kcal/mol)

>  <smiles>  (34) 
CCN(CC)CCNc1c2ccccc2[n+](C)c2c1[nH]c1cc(C)ccc12

>  <score_type>  (34) 
oracle

>  <origin>  (34) 
adg

>  <m_score__min__energy>  (34) 
-6.2000000000000002

>  <m_primary>  (34) 
energy

$$$$
34:0
     RDKit          3D

 55 57  0  0  0  0  0  0  0  0999 V2000
   59.7260   34.1940   49.4070 C   0  0  0  0  0  0  0  0  0  0  0  0
   59.8610   33.2740   50.6220 C   0  0  0  0  0  0  0  0  0  0  0  0
   58.9540   32.1060   50.5300 N   0  0  0  0  0  0  0  0  0  0  0  0
   57.7420   32.3350   51.3440 C   0  0  0  0  0  0  0  0  0  0  0  0
   59.6640   30.8830   50.9790 C   0  0  0  0  0  0  0  0  0  0  0  0
   59.5760   29.7260   49.9610 C   0  0  0  0  0  0  0  0  0  0  0  0
   60.7980   29.5380   49.1480 N   0  0  0  0  0  0  0  0  0  0  0  0
   61.3100   30.7740   48.5650 C   0  0  0  0  0  0  0  0  0  0  0  0
   62.5230   31.3660   49.0320 C   0  0  0  0  0  0  0  0  0  0  0  0
   63.2550   30.8350   50.1270 C   0  0  0  0  0  0  0  0  0  0  0  0
   64.4090   31.4540   50.5970 C   0  0  0  0  0  0  0  0  0  0  0  0
   64.8620   32.6230   50.0080 C   0  0  0  0  0  0  0  0  0  0  0  0
   66.2840   33.4310   50.6450 Cl  0  0  0  0  0  0  0  0  0  0  0  0
   64.1770   33.1660   48.9260 C   0  0  0  0  0  0  0  0  0  0  0  0
   63.0210   32.5370   48.3920 C   0  0  0  0  0  0  0  0  0  0  0  0
   62.3760   33.0590   47.2910 N   0  0  0  0  0  0  0  0  0  0  0  0
   63.0610   34.0600   46.4410 C   0  0  0  0  0  0  0  0  0  0  0  0
   61.1130   32.6220   46.9560 C   0  0  0  0  0  0  0  0  0  0  0  0
   60.3090   33.3470   46.0400 C   0  0  0  0  0  0  0  0  0  0  0  0
   59.0660   32.8610   45.6080 C   0  0  0  0  0  0  0  0  0  0  0  0
   58.2650   33.5640   44.6920 O   0  0  0  0  0  0  0  0  0  0  0  0
   57.0520   34.2340   45.0220 C   0  0  0  0  0  0  0  0  0  0  0  0
   58.5990   31.6420   46.0920 C   0  0  0  0  0  0  0  0  0  0  0  0
   57.3650   31.1700   45.6150 O   0  0  0  0  0  0  0  0  0  0  0  0
   57.1340   30.6800   44.2980 C   0  0  0  0  0  0  0  0  0  0  0  0
   59.3560   30.9350   47.0390 C   0  0  0  0  0  0  0  0  0  0  0  0
   60.5900   31.4340   47.5270 C   0  0  0  0  0  0  0  0  0  0  0  0
   59.5741   35.2293   49.7461 H   0  0  0  0  0  0  0  0  0  0  0  0
   60.6421   34.1375   48.8007 H   0  0  0  0  0  0  0  0  0  0  0  0
   58.8648   33.8767   48.8007 H   0  0  0  0  0  0  0  0  0  0  0  0
   60.8990   32.9150   50.6835 H   0  0  0  0  0  0  0  0  0  0  0  0
   59.5884   33.8493   51.5190 H   0  0  0  0  0  0  0  0  0  0  0  0
   58.0026   32.2858   52.4116 H   0  0  0  0  0  0  0  0  0  0  0  0
   57.3274   33.3274   51.1132 H   0  0  0  0  0  0  0  0  0  0  0  0
   56.9939   31.5623   51.1132 H   0  0  0  0  0  0  0  0  0  0  0  0
   60.7240   31.1311   51.1368 H   0  0  0  0  0  0  0  0  0  0  0  0
   59.1793   30.5430   51.9060 H   0  0  0  0  0  0  0  0  0  0  0  0
   59.3827   28.7946   50.5134 H   0  0  0  0  0  0  0  0  0  0  0  0
   58.7673   29.9824   49.2608 H   0  0  0  0  0  0  0  0  0  0  0  0
   60.5880   28.8630   48.3790 H   0  0  0  0  0  0  0  0  0  0  0  0
   61.5090   29.0130   49.6960 H   0  0  0  0  0  0  0  0  0  0  0  0
   62.9019   29.9142   50.6142 H   0  0  0  0  0  0  0  0  0  0  0  0
   64.9633   31.0137   51.4389 H   0  0  0  0  0  0  0  0  0  0  0  0
   64.5381   34.1019   48.4746 H   0  0  0  0  0  0  0  0  0  0  0  0
   63.5667   34.7990   47.0799 H   0  0  0  0  0  0  0  0  0  0  0  0
   63.8037   33.5550   45.8059 H   0  0  0  0  0  0  0  0  0  0  0  0
   62.3213   34.5694   45.8059 H   0  0  0  0  0  0  0  0  0  0  0  0
   60.6688   34.3141   45.6589 H   0  0  0  0  0  0  0  0  0  0  0  0
   56.9501   34.2903   46.1158 H   0  0  0  0  0  0  0  0  0  0  0  0
   57.0689   35.2507   44.6025 H   0  0  0  0  0  0  0  0  0  0  0  0
   56.2004   33.6784   44.6025 H   0  0  0  0  0  0  0  0  0  0  0  0
   56.6655   29.6863   44.3534 H   0  0  0  0  0  0  0  0  0  0  0  0
   56.4666   31.3706   43.7616 H   0  0  0  0  0  0  0  0  0  0  0  0
   58.0914   30.6046   43.7616 H   0  0  0  0  0  0  0  0  0  0  0  0
   58.9826   29.9698   47.4118 H   0  0  0  0  0  0  0  0  0  0  0  0
  1  2  1  0
  2  3  1  0
  3  4  1  0
  3  5  1  0
  5  6  1  0
  6  7  1  0
  7  8  1  0
  8  9  2  0
  9 10  1  0
 10 11  2  0
 11 12  1  0
 12 13  1  0
 12 14  2  0
 14 15  1  0
 15 16  2  0
 16 17  1  0
 16 18  1  0
 18 19  2  0
 19 20  1  0
 20 21  1  0
 21 22  1  0
 20 23  2  0
 23 24  1  0
 24 25  1  0
 23 26  1  0
 26 27  2  0
 27  8  1  0
 15  9  1  0
 27 18  1  0
  1 28  1  0
  1 29  1  0
  1 30  1  0
  2 31  1  0
  2 32  1  0
  4 33  1  0
  4 34  1  0
  4 35  1  0
  5 36  1  0
  5 37  1  0
  6 38  1  0
  6 39  1  0
  7 40  1  0
  7 41  1  0
 10 42  1  0
 11 43  1  0
 14 44  1  0
 17 45  1  0
 17 46  1  0
 17 47  1  0
 19 48  1  0
 22 49  1  0
 22 50  1  0
 22 51  1  0
 25 52  1  0
 25 53  1  0
 25 54  1  0
 26 55  1  0
M  CHG  2   7   1  16   1
M  END
>  <UniqueID>  (35) 
34

>  <SMILES>  (35) 
CCN(C)CC[NH2+]c1c2ccc(Cl)cc2[n+](C)c2cc(OC)c(OC)cc12

>  <Energy>  (35) 
83.48929548859806

>  <Genealogy>  (35) 
CCN(C)CC[NH2+]c1c2ccc(Cl)cc2[n+](C)c2cc(OC)c(OC)cc12 (protonated)
CCN(C)CC[NH2+]c1c2ccc(Cl)cc2[n+](C)c2cc(OC)c(OC)cc12 (3D coordinates assigned)
CCN(C)CC[NH2+]c1c2ccc(Cl)cc2[n+](C)c2cc(OC)c(OC)cc12 (optimized conformer: 83.48929548859806 kcal/mol)

>  <smiles>  (35) 
CCN(C)CCNc1c2ccc(Cl)cc2[n+](C)c2cc(OC)c(OC)cc12

>  <score_type>  (35) 
oracle

>  <origin>  (35) 
adg

>  <m_score__min__energy>  (35) 
-4

>  <m_primary>  (35) 
energy

$$$$
35:0
     RDKit          3D

 25 27  0  0  0  0  0  0  0  0999 V2000
   55.1440   29.3190   44.8740 O   0  0  0  0  0  0  0  0  0  0  0  0
   56.3890   29.4060   44.6980 C   0  0  0  0  0  0  0  0  0  0  0  0
   57.2430   28.2640   45.0790 C   0  0  0  0  0  0  0  0  0  0  0  0
   58.6010   28.1470   44.8010 C   0  0  0  0  0  0  0  0  0  0  0  0
   59.1820   26.9880   45.3300 C   0  0  0  0  0  0  0  0  0  0  0  0
   58.2920   26.1910   46.0380 C   0  0  0  0  0  0  0  0  0  0  0  0
   56.7850   26.9340   46.0070 S   0  0  0  0  0  0  0  0  0  0  0  0
   56.9450   30.6480   44.1200 C   0  0  0  0  0  0  0  0  0  0  0  0
   57.0350   30.9790   42.7680 C   0  0  0  0  0  0  0  0  0  0  0  0
   57.6590   32.1690   42.6110 N   0  0  0  0  0  0  0  0  0  0  0  0
   57.9720   32.5910   43.8470 C   0  0  0  0  0  0  0  0  0  0  0  0
   58.6320   33.7700   44.1910 C   0  0  0  0  0  0  0  0  0  0  0  0
   58.8640   34.0210   45.5560 C   0  0  0  0  0  0  0  0  0  0  0  0
   59.7620   35.6200   46.0870 Br  0  0  0  0  0  0  0  0  0  0  0  0
   58.4350   33.0960   46.5350 C   0  0  0  0  0  0  0  0  0  0  0  0
   57.7730   31.9140   46.1570 C   0  0  0  0  0  0  0  0  0  0  0  0
   57.5600   31.6890   44.7950 C   0  0  0  0  0  0  0  0  0  0  0  0
   59.1642   28.8932   44.2214 H   0  0  0  0  0  0  0  0  0  0  0  0
   60.2437   26.7328   45.1972 H   0  0  0  0  0  0  0  0  0  0  0  0
   58.5319   25.2385   46.5332 H   0  0  0  0  0  0  0  0  0  0  0  0
   56.6520   30.3588   41.9442 H   0  0  0  0  0  0  0  0  0  0  0  0
   57.8660   32.6500   41.7080 H   0  0  0  0  0  0  0  0  0  0  0  0
   58.9610   34.4817   43.4195 H   0  0  0  0  0  0  0  0  0  0  0  0
   58.6201   33.3020   47.5996 H   0  0  0  0  0  0  0  0  0  0  0  0
   57.4333   31.1888   46.9111 H   0  0  0  0  0  0  0  0  0  0  0  0
  1  2  2  0
  2  3  1  0
  3  4  2  0
  4  5  1  0
  5  6  2  0
  6  7  1  0
  2  8  1  0
  8  9  2  0
  9 10  1  0
 10 11  1  0
 11 12  2  0
 12 13  1  0
 13 14  1  0
 13 15  2  0
 15 16  1  0
 16 17  2  0
  7  3  1  0
 17  8  1  0
 17 11  1  0
  4 18  1  0
  5 19  1  0
  6 20  1  0
  9 21  1  0
 10 22  1  0
 12 23  1  0
 15 24  1  0
 16 25  1  0
M  END
>  <UniqueID>  (36) 
35

>  <SMILES>  (36) 
O=C(c1cccs1)c1c[nH]c2cc(Br)ccc12

>  <Energy>  (36) 
89.7312102188387

>  <Genealogy>  (36) 
O=C(c1cccs1)c1c[nH]c2cc(Br)ccc12 (3D coordinates assigned)
O=C(c1cccs1)c1c[nH]c2cc(Br)ccc12 (optimized conformer: 89.7312102188387 kcal/mol)

>  <smiles>  (36) 
O=C(c1cccs1)c1c[nH]c2cc(Br)ccc12

>  <score_type>  (36) 
oracle

>  <origin>  (36) 
adg

>  <m_score__min__energy>  (36) 
-7.8200000000000003

>  <m_primary>  (36) 
energy

$$$$
36:0
     RDKit          3D

 55 57  0  0  0  0  0  0  0  0999 V2000
   58.5550   30.8130   50.5920 C   0  0  0  0  0  0  0  0  0  0  0  0
   58.3330   32.2120   50.0210 C   0  0  0  0  0  0  0  0  0  0  0  0
   59.5310   33.0570   50.2110 N   0  0  0  0  0  0  0  0  0  0  0  0
   59.8640   33.3260   51.6280 C   0  0  0  0  0  0  0  0  0  0  0  0
   58.7650   34.0720   52.3870 C   0  0  0  0  0  0  0  0  0  0  0  0
   59.6920   34.2190   49.3000 C   0  0  0  0  0  0  0  0  0  0  0  0
   61.0620   34.3230   48.6080 C   0  0  0  0  0  0  0  0  0  0  0  0
   61.9040   33.3110   49.1190 O   0  0  0  0  0  0  0  0  0  0  0  0
   62.6630   32.7480   48.0680 C   0  0  0  0  0  0  0  0  0  0  0  0
   62.1330   31.3540   47.7460 C   0  0  0  0  0  0  0  0  0  0  0  0
   60.7340   31.2260   48.1520 N   0  0  0  0  0  0  0  0  0  0  0  0
   59.7410   30.6840   47.2680 C   0  0  0  0  0  0  0  0  0  0  0  0
   59.4660   29.3030   47.2960 C   0  0  0  0  0  0  0  0  0  0  0  0
   60.3920   28.1200   48.4860 Br  0  0  0  0  0  0  0  0  0  0  0  0
   58.4730   28.7660   46.4720 C   0  0  0  0  0  0  0  0  0  0  0  0
   57.7820   29.5810   45.5720 C   0  0  0  0  0  0  0  0  0  0  0  0
   58.0860   30.9500   45.4970 C   0  0  0  0  0  0  0  0  0  0  0  0
   59.0620   31.5160   46.3450 C   0  0  0  0  0  0  0  0  0  0  0  0
   59.3220   33.0130   46.2980 C   0  0  0  0  0  0  0  0  0  0  0  0
   58.9500   33.6370   44.9450 C   0  0  0  0  0  0  0  0  0  0  0  0
   57.5190   33.2720   44.5450 C   0  0  0  0  0  0  0  0  0  0  0  0
   57.3760   31.7810   44.4990 C   0  0  0  0  0  0  0  0  0  0  0  0
   56.6140   31.2280   43.6010 N   0  0  0  0  0  0  0  0  0  0  0  0
   56.5230   29.7760   43.4190 C   0  0  0  0  0  0  0  0  0  0  0  0
   56.6370   29.0330   44.7570 C   0  0  0  0  0  0  0  0  0  0  0  0
   58.5475   30.8601   51.6910 H   0  0  0  0  0  0  0  0  0  0  0  0
   57.7516   30.1449   50.2481 H   0  0  0  0  0  0  0  0  0  0  0  0
   59.5257   30.4264   50.2481 H   0  0  0  0  0  0  0  0  0  0  0  0
   58.1162   32.1316   48.9456 H   0  0  0  0  0  0  0  0  0  0  0  0
   57.4882   32.6770   50.5502 H   0  0  0  0  0  0  0  0  0  0  0  0
   60.0424   32.3644   52.1314 H   0  0  0  0  0  0  0  0  0  0  0  0
   60.7535   33.9731   51.6320 H   0  0  0  0  0  0  0  0  0  0  0  0
   58.9273   33.9618   53.4694 H   0  0  0  0  0  0  0  0  0  0  0  0
   58.7932   35.1384   52.1187 H   0  0  0  0  0  0  0  0  0  0  0  0
   57.7843   33.6522   52.1187 H   0  0  0  0  0  0  0  0  0  0  0  0
   58.9206   34.1487   48.5190 H   0  0  0  0  0  0  0  0  0  0  0  0
   59.5988   35.1161   49.9297 H   0  0  0  0  0  0  0  0  0  0  0  0
   60.9399   34.1903   47.5229 H   0  0  0  0  0  0  0  0  0  0  0  0
   61.5049   35.3116   48.7990 H   0  0  0  0  0  0  0  0  0  0  0  0
   62.5824   33.3858   47.1754 H   0  0  0  0  0  0  0  0  0  0  0  0
   63.7169   32.6770   48.3749 H   0  0  0  0  0  0  0  0  0  0  0  0
   62.2120   31.1790   46.6629 H   0  0  0  0  0  0  0  0  0  0  0  0
   62.7303   30.6127   48.2972 H   0  0  0  0  0  0  0  0  0  0  0  0
   60.4080   31.8150   48.9510 H   0  0  0  0  0  0  0  0  0  0  0  0
   58.2338   27.6940   46.5326 H   0  0  0  0  0  0  0  0  0  0  0  0
   58.7264   33.4985   47.0851 H   0  0  0  0  0  0  0  0  0  0  0  0
   60.4004   33.1678   46.4500 H   0  0  0  0  0  0  0  0  0  0  0  0
   59.0344   34.7313   45.0187 H   0  0  0  0  0  0  0  0  0  0  0  0
   59.6370   33.2469   44.1796 H   0  0  0  0  0  0  0  0  0  0  0  0
   56.8157   33.6848   45.2832 H   0  0  0  0  0  0  0  0  0  0  0  0
   57.2983   33.6915   43.5524 H   0  0  0  0  0  0  0  0  0  0  0  0
   55.5546   29.5337   42.9570 H   0  0  0  0  0  0  0  0  0  0  0  0
   57.3552   29.4562   42.7747 H   0  0  0  0  0  0  0  0  0  0  0  0
   55.7003   29.1568   45.3203 H   0  0  0  0  0  0  0  0  0  0  0  0
   56.8221   27.9674   44.5566 H   0  0  0  0  0  0  0  0  0  0  0  0
  1  2  1  0
  2  3  1  0
  3  4  1  0
  4  5  1  0
  3  6  1  0
  6  7  1  0
  7  8  1  0
  8  9  1  0
  9 10  1  0
 10 11  1  0
 11 12  1  0
 12 13  2  0
 13 14  1  0
 13 15  1  0
 15 16  2  0
 16 17  1  0
 17 18  2  0
 18 19  1  0
 19 20  1  0
 20 21  1  0
 21 22  1  0
 22 23  2  0
 23 24  1  0
 24 25  1  0
 18 12  1  0
 25 16  1  0
 22 17  1  0
  1 26  1  0
  1 27  1  0
  1 28  1  0
  2 29  1  0
  2 30  1  0
  4 31  1  0
  4 32  1  0
  5 33  1  0
  5 34  1  0
  5 35  1  0
  6 36  1  0
  6 37  1  0
  7 38  1  0
  7 39  1  0
  9 40  1  0
  9 41  1  0
 10 42  1  0
 10 43  1  0
 11 44  1  0
 15 45  1  0
 19 46  1  0
 19 47  1  0
 20 48  1  0
 20 49  1  0
 21 50  1  0
 21 51  1  0
 24 52  1  0
 24 53  1  0
 25 54  1  0
 25 55  1  0
M  END
>  <UniqueID>  (37) 
36

>  <SMILES>  (37) 
CCN(CC)CCOCCNc1c(Br)cc2c3c1CCCC3=NCC2

>  <Energy>  (37) 
64.63559215547987

>  <Genealogy>  (37) 
CCN(CC)CCOCCNc1c(Br)cc2c3c1CCCC3=NCC2 (3D coordinates assigned)
CCN(CC)CCOCCNc1c(Br)cc2c3c1CCCC3=NCC2 (nonaromatic ring conformer: 64.63559215547987 kcal/mol)

>  <smiles>  (37) 
CCN(CC)CCOCCNc1c(Br)cc2c3c1CCCC3=NCC2

>  <score_type>  (37) 
oracle

>  <origin>  (37) 
adg

>  <m_score__min__energy>  (37) 
-7.0099999999999998

>  <m_primary>  (37) 
energy

$$$$
37:0
     RDKit          3D

 49 50  0  0  0  0  0  0  0  0999 V2000
   58.5420   34.5680   52.7550 C   0  0  0  0  0  0  0  0  0  0  0  0
   57.8220   33.2420   52.5040 C   0  0  0  0  0  0  0  0  0  0  0  0
   58.4050   32.4230   51.4090 N   0  0  0  0  0  0  0  0  0  0  0  0
   57.8410   31.0470   51.3680 C   0  0  0  0  0  0  0  0  0  0  0  0
   56.4190   30.9870   51.9430 C   0  0  0  0  0  0  0  0  0  0  0  0
   59.8960   32.5410   51.3250 C   0  0  0  0  0  0  0  0  0  0  0  0
   60.4850   33.5200   50.2860 C   0  0  0  0  0  0  0  0  0  0  0  0
   59.4850   34.0810   49.4430 O   0  0  0  0  0  0  0  0  0  0  0  0
   58.9040   33.3580   48.3920 C   0  0  0  0  0  0  0  0  0  0  0  0
   57.8300   32.7210   48.5900 O   0  0  0  0  0  0  0  0  0  0  0  0
   59.4880   33.4400   46.9880 C   0  0  0  0  0  0  0  0  0  0  0  0
   61.0130   33.1420   47.0200 C   0  0  0  0  0  0  0  0  0  0  0  0
   61.9810   34.1210   46.6780 C   0  0  0  0  0  0  0  0  0  0  0  0
   63.3470   33.8330   46.7180 C   0  0  0  0  0  0  0  0  0  0  0  0
   63.7890   32.5750   47.1160 C   0  0  0  0  0  0  0  0  0  0  0  0
   62.8670   31.6020   47.4900 C   0  0  0  0  0  0  0  0  0  0  0  0
   61.4940   31.8710   47.4580 C   0  0  0  0  0  0  0  0  0  0  0  0
   60.4250   30.5790   48.0130 Cl  0  0  0  0  0  0  0  0  0  0  0  0
   59.2710   34.8320   46.3330 C   0  0  0  0  0  0  0  0  0  0  0  0
   58.6150   34.6060   44.9690 C   0  0  0  0  0  0  0  0  0  0  0  0
   58.6440   33.1100   44.7180 C   0  0  0  0  0  0  0  0  0  0  0  0
   58.6520   32.4900   46.1000 C   0  0  0  0  0  0  0  0  0  0  0  0
   58.6334   34.7363   53.8382 H   0  0  0  0  0  0  0  0  0  0  0  0
   59.5445   34.5321   52.3037 H   0  0  0  0  0  0  0  0  0  0  0  0
   57.9659   35.3892   52.3037 H   0  0  0  0  0  0  0  0  0  0  0  0
   57.8567   32.6511   53.4312 H   0  0  0  0  0  0  0  0  0  0  0  0
   56.7974   33.4955   52.1943 H   0  0  0  0  0  0  0  0  0  0  0  0
   58.0420   32.9010   50.5470 H   0  0  0  0  0  0  0  0  0  0  0  0
   57.8153   30.7055   50.3227 H   0  0  0  0  0  0  0  0  0  0  0  0
   58.4826   30.4001   51.9843 H   0  0  0  0  0  0  0  0  0  0  0  0
   56.4675   30.9890   53.0419 H   0  0  0  0  0  0  0  0  0  0  0  0
   55.8474   31.8618   51.5996 H   0  0  0  0  0  0  0  0  0  0  0  0
   55.9231   30.0671   51.5996 H   0  0  0  0  0  0  0  0  0  0  0  0
   60.2560   32.8580   52.3149 H   0  0  0  0  0  0  0  0  0  0  0  0
   60.2334   31.5485   50.9917 H   0  0  0  0  0  0  0  0  0  0  0  0
   60.9964   34.3353   50.8187 H   0  0  0  0  0  0  0  0  0  0  0  0
   61.1824   32.9552   49.6499 H   0  0  0  0  0  0  0  0  0  0  0  0
   61.6496   35.1254   46.3758 H   0  0  0  0  0  0  0  0  0  0  0  0
   64.0774   34.6047   46.4334 H   0  0  0  0  0  0  0  0  0  0  0  0
   64.8656   32.3500   47.1350 H   0  0  0  0  0  0  0  0  0  0  0  0
   63.2208   30.6121   47.8139 H   0  0  0  0  0  0  0  0  0  0  0  0
   58.6151   35.4465   46.9672 H   0  0  0  0  0  0  0  0  0  0  0  0
   60.2304   35.3576   46.2173 H   0  0  0  0  0  0  0  0  0  0  0  0
   57.5766   34.9688   44.9822 H   0  0  0  0  0  0  0  0  0  0  0  0
   59.1478   35.1521   44.1766 H   0  0  0  0  0  0  0  0  0  0  0  0
   57.7532   32.7934   44.1556 H   0  0  0  0  0  0  0  0  0  0  0  0
   59.5147   32.8046   44.1191 H   0  0  0  0  0  0  0  0  0  0  0  0
   57.6260   32.4080   46.4881 H   0  0  0  0  0  0  0  0  0  0  0  0
   59.0766   31.4754   46.0841 H   0  0  0  0  0  0  0  0  0  0  0  0
  1  2  1  0
  2  3  1  0
  3  4  1  0
  4  5  1  0
  3  6  1  0
  6  7  1  0
  7  8  1  0
  8  9  1  0
  9 10  2  0
  9 11  1  0
 11 12  1  0
 12 13  2  0
 13 14  1  0
 14 15  2  0
 15 16  1  0
 16 17  2  0
 17 18  1  0
 11 19  1  0
 19 20  1  0
 20 21  1  0
 21 22  1  0
 22 11  1  0
 17 12  1  0
  1 23  1  0
  1 24  1  0
  1 25  1  0
  2 26  1  0
  2 27  1  0
  3 28  1  0
  4 29  1  0
  4 30  1  0
  5 31  1  0
  5 32  1  0
  5 33  1  0
  6 34  1  0
  6 35  1  0
  7 36  1  0
  7 37  1  0
 13 38  1  0
 14 39  1  0
 15 40  1  0
 16 41  1  0
 19 42  1  0
 19 43  1  0
 20 44  1  0
 20 45  1  0
 21 46  1  0
 21 47  1  0
 22 48  1  0
 22 49  1  0
M  CHG  1   3   1
M  END
>  <UniqueID>  (38) 
37

>  <SMILES>  (38) 
CC[NH+](CC)CCOC(=O)C1(c2ccccc2Cl)CCCC1

>  <Energy>  (38) 
67.61808790692032

>  <Genealogy>  (38) 
CC[NH+](CC)CCOC(=O)C1(c2ccccc2Cl)CCCC1 (protonated)
CC[NH+](CC)CCOC(=O)C1(c2ccccc2Cl)CCCC1 (3D coordinates assigned)
CC[NH+](CC)CCOC(=O)C1(c2ccccc2Cl)CCCC1 (nonaromatic ring conformer: 67.61808790692032 kcal/mol)

>  <smiles>  (38) 
CCN(CC)CCOC(=O)C1(c2ccccc2Cl)CCCC1

>  <score_type>  (38) 
oracle

>  <origin>  (38) 
adg

>  <m_score__min__energy>  (38) 
-4.5800000000000001

>  <m_primary>  (38) 
energy

$$$$
38:0
     RDKit          3D

 53 56  0  0  0  0  0  0  0  0999 V2000
   61.8570   28.4390   51.5670 C   0  0  0  0  0  0  0  0  0  0  0  0
   61.0400   27.8010   50.5910 O   0  0  0  0  0  0  0  0  0  0  0  0
   60.3810   28.4710   49.5500 C   0  0  0  0  0  0  0  0  0  0  0  0
   60.5550   28.0040   48.2420 C   0  0  0  0  0  0  0  0  0  0  0  0
   59.9190   28.6370   47.1710 C   0  0  0  0  0  0  0  0  0  0  0  0
   59.0830   29.7410   47.3930 C   0  0  0  0  0  0  0  0  0  0  0  0
   58.4430   30.4190   46.2460 C   0  0  0  0  0  0  0  0  0  0  0  0
   58.4080   31.7790   46.1840 N   0  0  0  0  0  0  0  0  0  0  0  0
   57.7000   32.2310   45.1270 C   0  0  0  0  0  0  0  0  0  0  0  0
   57.4150   33.6830   44.8860 C   0  0  0  0  0  0  0  0  0  0  0  0
   58.0860   34.5520   45.8680 N   0  0  0  0  0  0  0  0  0  0  0  0
   59.5200   34.7510   45.6000 C   0  0  0  0  0  0  0  0  0  0  0  0
   60.3970   34.1570   46.6740 C   0  0  0  0  0  0  0  0  0  0  0  0
   61.7410   33.8470   46.4140 C   0  0  0  0  0  0  0  0  0  0  0  0
   62.5190   33.2710   47.4220 C   0  0  0  0  0  0  0  0  0  0  0  0
   61.9570   33.0200   48.6750 C   0  0  0  0  0  0  0  0  0  0  0  0
   60.6220   33.3580   48.9040 C   0  0  0  0  0  0  0  0  0  0  0  0
   59.8800   33.9160   47.9110 N   0  0  0  0  0  0  0  0  0  0  0  0
   57.0850   30.9630   44.2130 S   0  0  0  0  0  0  0  0  0  0  0  0
   57.7530   29.7760   45.2050 C   0  0  0  0  0  0  0  0  0  0  0  0
   57.6490   28.3260   44.9410 C   0  0  0  0  0  0  0  0  0  0  0  0
   57.0760   27.4630   45.8880 C   0  0  0  0  0  0  0  0  0  0  0  0
   56.9800   26.0930   45.6290 C   0  0  0  0  0  0  0  0  0  0  0  0
   57.4680   25.5620   44.4190 C   0  0  0  0  0  0  0  0  0  0  0  0
   57.3930   24.1960   44.1120 O   0  0  0  0  0  0  0  0  0  0  0  0
   56.6320   23.6550   43.0370 C   0  0  0  0  0  0  0  0  0  0  0  0
   58.0540   26.4240   43.4850 C   0  0  0  0  0  0  0  0  0  0  0  0
   58.1500   27.7940   43.7440 C   0  0  0  0  0  0  0  0  0  0  0  0
   58.9220   30.2240   48.7030 C   0  0  0  0  0  0  0  0  0  0  0  0
   59.5600   29.5920   49.7740 C   0  0  0  0  0  0  0  0  0  0  0  0
   61.5071   28.1657   52.5734 H   0  0  0  0  0  0  0  0  0  0  0  0
   62.9004   28.1142   51.4408 H   0  0  0  0  0  0  0  0  0  0  0  0
   61.7948   29.5300   51.4408 H   0  0  0  0  0  0  0  0  0  0  0  0
   61.1980   27.1312   48.0557 H   0  0  0  0  0  0  0  0  0  0  0  0
   60.0750   28.2670   46.1469 H   0  0  0  0  0  0  0  0  0  0  0  0
   57.7658   33.9504   43.8783 H   0  0  0  0  0  0  0  0  0  0  0  0
   56.3302   33.8354   44.9857 H   0  0  0  0  0  0  0  0  0  0  0  0
   57.9320   34.2000   46.8420 H   0  0  0  0  0  0  0  0  0  0  0  0
   59.7684   34.2762   44.6393 H   0  0  0  0  0  0  0  0  0  0  0  0
   59.7081   35.8345   45.5767 H   0  0  0  0  0  0  0  0  0  0  0  0
   62.1778   34.0554   45.4262 H   0  0  0  0  0  0  0  0  0  0  0  0
   63.5714   33.0161   47.2286 H   0  0  0  0  0  0  0  0  0  0  0  0
   62.5593   32.5611   49.4729 H   0  0  0  0  0  0  0  0  0  0  0  0
   60.1698   33.1725   49.8895 H   0  0  0  0  0  0  0  0  0  0  0  0
   56.7003   27.8673   46.8395 H   0  0  0  0  0  0  0  0  0  0  0  0
   56.5211   25.4261   46.3737 H   0  0  0  0  0  0  0  0  0  0  0  0
   55.7979   23.0620   43.4402 H   0  0  0  0  0  0  0  0  0  0  0  0
   56.2347   24.4745   42.4201 H   0  0  0  0  0  0  0  0  0  0  0  0
   57.2755   23.0105   42.4201 H   0  0  0  0  0  0  0  0  0  0  0  0
   58.4425   26.0196   42.5387 H   0  0  0  0  0  0  0  0  0  0  0  0
   58.6211   28.4587   43.0049 H   0  0  0  0  0  0  0  0  0  0  0  0
   58.2897   31.1052   48.8866 H   0  0  0  0  0  0  0  0  0  0  0  0
   59.4198   29.9724   50.7965 H   0  0  0  0  0  0  0  0  0  0  0  0
  1  2  1  0
  2  3  1  0
  3  4  2  0
  4  5  1  0
  5  6  2  0
  6  7  1  0
  7  8  1  0
  8  9  2  0
  9 10  1  0
 10 11  1  0
 11 12  1  0
 12 13  1  0
 13 14  2  0
 14 15  1  0
 15 16  2  0
 16 17  1  0
 17 18  2  0
  9 19  1  0
 19 20  1  0
 20 21  1  0
 21 22  2  0
 22 23  1  0
 23 24  2  0
 24 25  1  0
 25 26  1  0
 24 27  1  0
 27 28  2  0
  6 29  1  0
 29 30  2  0
 30  3  1  0
 20  7  2  0
 28 21  1  0
 18 13  1  0
  1 31  1  0
  1 32  1  0
  1 33  1  0
  4 34  1  0
  5 35  1  0
 10 36  1  0
 10 37  1  0
 11 38  1  0
 12 39  1  0
 12 40  1  0
 14 41  1  0
 15 42  1  0
 16 43  1  0
 17 44  1  0
 22 45  1  0
 23 46  1  0
 26 47  1  0
 26 48  1  0
 26 49  1  0
 27 50  1  0
 28 51  1  0
 29 52  1  0
 30 53  1  0
M  END
>  <UniqueID>  (39) 
38

>  <SMILES>  (39) 
COc1ccc(-c2nc(CNCc3ccccn3)sc2-c2ccc(OC)cc2)cc1

>  <Energy>  (39) 
90.61658010064615

>  <Genealogy>  (39) 
COc1ccc(-c2nc(CNCc3ccccn3)sc2-c2ccc(OC)cc2)cc1 (3D coordinates assigned)
COc1ccc(-c2nc(CNCc3ccccn3)sc2-c2ccc(OC)cc2)cc1 (optimized conformer: 90.61658010064615 kcal/mol)

>  <smiles>  (39) 
COc1ccc(-c2nc(CNCc3ccccn3)sc2-c2ccc(OC)cc2)cc1

>  <score_type>  (39) 
oracle

>  <origin>  (39) 
adg

>  <m_score__min__energy>  (39) 
-8.0399999999999991

>  <m_primary>  (39) 
energy

$$$$
39:0
     RDKit          3D

 55 58  0  0  1  0  0  0  0  0999 V2000
   56.7460   25.9520   45.6450 C   0  0  0  0  0  0  0  0  0  0  0  0
   56.2060   27.2640   45.6420 O   0  0  0  0  0  0  0  0  0  0  0  0
   57.0350   28.3670   45.7960 C   0  0  0  0  0  0  0  0  0  0  0  0
   57.9540   28.3110   46.8180 C   0  0  0  0  0  0  0  0  0  0  0  0
   58.7700   29.4010   46.9690 C   0  0  0  0  0  0  0  0  0  0  0  0
   59.6790   29.3610   47.9550 N   0  0  0  0  0  0  0  0  0  0  0  0
   60.4980   30.4050   48.1260 C   0  0  0  0  0  0  0  0  0  0  0  0
   61.5260   30.4480   49.1810 C   0  0  0  0  0  0  0  0  0  0  0  0
   61.4320   29.6170   50.3020 C   0  0  0  0  0  0  0  0  0  0  0  0
   62.3710   29.6290   51.3060 C   0  0  0  0  0  0  0  0  0  0  0  0
   63.4140   30.4730   51.1990 N   0  0  0  0  0  0  0  0  0  0  0  0
   63.5530   31.2890   50.1500 C   0  0  0  0  0  0  0  0  0  0  0  0
   64.6610   32.1600   50.0730 N   0  0  0  0  0  0  0  0  0  0  0  0
   65.9170   31.8080   50.7240 C   0  0  0  0  0  0  0  0  0  0  0  0
   64.5670   33.4110   49.3480 C   0  0  0  0  0  0  0  0  0  0  0  0
   62.6100   31.2790   49.1360 C   0  0  0  0  0  0  0  0  0  0  0  0
   60.3890   31.4590   47.3170 N   0  0  0  0  0  0  0  0  0  0  0  0
   59.4820   31.5220   46.3210 C   0  0  0  0  0  0  0  0  0  0  0  0
   59.4150   32.5550   45.6490 N   0  0  0  0  0  0  0  0  0  0  0  0
   58.3890   33.4550   45.5000 C   0  0  2  0  0  0  0  0  0  0  0  0
   58.7380   34.8910   45.1700 C   0  0  0  0  0  0  0  0  0  0  0  0
   59.9890   35.0550   46.0130 C   0  0  0  0  0  0  0  0  0  0  0  0
   59.6590   34.3510   47.2430 N   0  0  0  0  0  0  0  0  0  0  0  0
   58.3170   33.8350   47.0580 C   0  0  0  0  0  0  0  0  0  0  0  0
   58.6270   30.4760   46.1030 C   0  0  0  0  0  0  0  0  0  0  0  0
   57.7160   30.5150   45.0940 C   0  0  0  0  0  0  0  0  0  0  0  0
   56.8690   29.3960   44.9310 C   0  0  0  0  0  0  0  0  0  0  0  0
   55.9110   29.3370   43.9420 O   0  0  0  0  0  0  0  0  0  0  0  0
   56.2610   29.6920   42.6230 C   0  0  0  0  0  0  0  0  0  0  0  0
   56.8847   25.6150   46.6829 H   0  0  0  0  0  0  0  0  0  0  0  0
   56.0554   25.2701   45.1272 H   0  0  0  0  0  0  0  0  0  0  0  0
   57.7165   25.9538   45.1272 H   0  0  0  0  0  0  0  0  0  0  0  0
   58.0298   27.4358   47.4801 H   0  0  0  0  0  0  0  0  0  0  0  0
   59.7450   28.5280   48.5770 H   0  0  0  0  0  0  0  0  0  0  0  0
   60.5769   28.9298   50.3831 H   0  0  0  0  0  0  0  0  0  0  0  0
   62.2722   28.9641   52.1768 H   0  0  0  0  0  0  0  0  0  0  0  0
   65.7870   31.8444   51.8157 H   0  0  0  0  0  0  0  0  0  0  0  0
   66.2135   30.7922   50.4238 H   0  0  0  0  0  0  0  0  0  0  0  0
   66.6982   32.5218   50.4238 H   0  0  0  0  0  0  0  0  0  0  0  0
   64.5043   34.2450   50.0625 H   0  0  0  0  0  0  0  0  0  0  0  0
   65.4583   33.5361   48.7156 H   0  0  0  0  0  0  0  0  0  0  0  0
   63.6670   33.4015   48.7156 H   0  0  0  0  0  0  0  0  0  0  0  0
   62.7360   31.9539   48.2765 H   0  0  0  0  0  0  0  0  0  0  0  0
   57.6430   33.0316   44.8114 H   0  0  0  0  0  0  0  0  0  0  0  0
   58.9468   35.0250   44.0983 H   0  0  0  0  0  0  0  0  0  0  0  0
   57.9412   35.6214   45.3741 H   0  0  0  0  0  0  0  0  0  0  0  0
   60.8595   34.5985   45.5192 H   0  0  0  0  0  0  0  0  0  0  0  0
   60.2607   36.1078   46.1795 H   0  0  0  0  0  0  0  0  0  0  0  0
   60.3310   33.6170   47.5000 H   0  0  0  0  0  0  0  0  0  0  0  0
   58.1267   32.9527   47.6868 H   0  0  0  0  0  0  0  0  0  0  0  0
   57.5080   34.5276   47.3332 H   0  0  0  0  0  0  0  0  0  0  0  0
   57.6412   31.3873   44.4280 H   0  0  0  0  0  0  0  0  0  0  0  0
   57.0331   30.4751   42.6467 H   0  0  0  0  0  0  0  0  0  0  0  0
   56.6510   28.8083   42.0967 H   0  0  0  0  0  0  0  0  0  0  0  0
   55.3719   30.0695   42.0967 H   0  0  0  0  0  0  0  0  0  0  0  0
  1  2  1  0
  2  3  1  0
  3  4  2  0
  4  5  1  0
  5  6  1  0
  6  7  1  0
  7  8  1  0
  8  9  2  0
  9 10  1  0
 10 11  2  0
 11 12  1  0
 12 13  1  0
 13 14  1  0
 13 15  1  0
 12 16  2  0
  7 17  2  0
 17 18  1  0
 18 19  2  0
 19 20  1  0
 20 21  1  0
 21 22  1  0
 22 23  1  0
 23 24  1  0
 18 25  1  0
 25 26  1  0
 26 27  2  0
 27 28  1  0
 28 29  1  0
 27  3  1  0
 25  5  2  0
 16  8  1  0
 24 20  1  0
  1 30  1  0
  1 31  1  0
  1 32  1  0
  4 33  1  0
  6 34  1  0
  9 35  1  0
 10 36  1  0
 14 37  1  0
 14 38  1  0
 14 39  1  0
 15 40  1  0
 15 41  1  0
 15 42  1  0
 16 43  1  0
 20 44  1  6
 21 45  1  0
 21 46  1  0
 22 47  1  0
 22 48  1  0
 23 49  1  0
 24 50  1  0
 24 51  1  0
 26 52  1  0
 29 53  1  0
 29 54  1  0
 29 55  1  0
M  END
>  <smiles>  (40) 
COc1cc2[nH]c(-c3ccnc(N(C)C)c3)nc(=NC3CCNC3)c2cc1OC

>  <score_type>  (40) 
oracle

>  <origin>  (40) 
adg

>  <m_score__min__energy>  (40) 
-7.1500000000000004

>  <m_primary>  (40) 
energy

$$$$
40:0
     RDKit          3D

 66 69  0  0  0  0  0  0  0  0999 V2000
   58.2600   21.8590   44.1720 C   0  0  0  0  0  0  0  0  0  0  0  0
   57.0150   21.8340   43.2910 C   0  0  0  0  0  0  0  0  0  0  0  0
   56.5220   23.2530   42.9880 C   0  0  0  0  0  0  0  0  0  0  0  0
   56.6950   24.1670   44.2050 C   0  0  0  0  0  0  0  0  0  0  0  0
   57.4970   25.3020   43.8730 O   0  0  0  0  0  0  0  0  0  0  0  0
   58.0390   26.2160   44.7920 C   0  0  0  0  0  0  0  0  0  0  0  0
   58.7050   25.6980   45.9240 C   0  0  0  0  0  0  0  0  0  0  0  0
   59.2940   26.5510   46.8700 C   0  0  0  0  0  0  0  0  0  0  0  0
   59.1840   27.9230   46.6730 C   0  0  0  0  0  0  0  0  0  0  0  0
   59.7050   28.8700   47.4210 O   0  0  0  0  0  0  0  0  0  0  0  0
   59.3830   30.0170   46.8630 C   0  0  0  0  0  0  0  0  0  0  0  0
   59.7400   31.2870   47.2940 C   0  0  0  0  0  0  0  0  0  0  0  0
   60.5290   31.4530   48.4840 N   0  0  0  0  0  0  0  0  0  0  0  0
   61.8760   30.8990   48.5890 C   0  0  0  0  0  0  0  0  0  0  0  0
   62.7550   31.4370   47.4470 C   0  0  0  0  0  0  0  0  0  0  0  0
   63.8020   32.3760   47.9380 N   0  0  0  0  0  0  0  0  0  0  0  0
   64.1370   32.0780   49.3580 C   0  0  0  0  0  0  0  0  0  0  0  0
   65.4700   32.7050   49.7830 C   0  0  0  0  0  0  0  0  0  0  0  0
   63.3350   33.7830   47.8030 C   0  0  0  0  0  0  0  0  0  0  0  0
   62.4790   34.2270   48.9960 C   0  0  0  0  0  0  0  0  0  0  0  0
   59.3200   32.3860   46.5080 C   0  0  0  0  0  0  0  0  0  0  0  0
   59.7280   33.6970   46.8230 C   0  0  0  0  0  0  0  0  0  0  0  0
   59.3580   34.7700   46.0160 C   0  0  0  0  0  0  0  0  0  0  0  0
   58.5950   34.5570   44.8740 C   0  0  0  0  0  0  0  0  0  0  0  0
   58.1760   33.2700   44.5330 C   0  0  0  0  0  0  0  0  0  0  0  0
   58.5010   32.1580   45.3480 C   0  0  0  0  0  0  0  0  0  0  0  0
   58.0730   30.8750   45.0330 N   0  0  0  0  0  0  0  0  0  0  0  0
   57.0230   30.6300   44.0300 C   0  0  0  0  0  0  0  0  0  0  0  0
   58.6080   29.8310   45.7410 C   0  0  0  0  0  0  0  0  0  0  0  0
   58.4970   28.4510   45.5970 C   0  0  0  0  0  0  0  0  0  0  0  0
   57.9480   27.6190   44.6120 C   0  0  0  0  0  0  0  0  0  0  0  0
   57.9604   21.8530   45.2304 H   0  0  0  0  0  0  0  0  0  0  0  0
   58.8767   20.9731   43.9605 H   0  0  0  0  0  0  0  0  0  0  0  0
   58.8407   22.7690   43.9605 H   0  0  0  0  0  0  0  0  0  0  0  0
   57.2554   21.3279   42.3444 H   0  0  0  0  0  0  0  0  0  0  0  0
   56.2195   21.2959   43.8273 H   0  0  0  0  0  0  0  0  0  0  0  0
   57.0997   23.6622   42.1461 H   0  0  0  0  0  0  0  0  0  0  0  0
   55.4525   23.2054   42.7353 H   0  0  0  0  0  0  0  0  0  0  0  0
   55.7059   24.5099   44.5428 H   0  0  0  0  0  0  0  0  0  0  0  0
   57.1958   23.6012   45.0045 H   0  0  0  0  0  0  0  0  0  0  0  0
   58.7631   24.6088   46.0667 H   0  0  0  0  0  0  0  0  0  0  0  0
   59.8275   26.1458   47.7425 H   0  0  0  0  0  0  0  0  0  0  0  0
   60.2580   32.1970   49.1650 H   0  0  0  0  0  0  0  0  0  0  0  0
   62.3153   31.1892   49.5548 H   0  0  0  0  0  0  0  0  0  0  0  0
   61.8227   29.8026   48.5186 H   0  0  0  0  0  0  0  0  0  0  0  0
   63.2459   30.5886   46.9478 H   0  0  0  0  0  0  0  0  0  0  0  0
   62.1053   31.9889   46.7517 H   0  0  0  0  0  0  0  0  0  0  0  0
   64.6640   32.2520   47.3560 H   0  0  0  0  0  0  0  0  0  0  0  0
   63.3379   32.4750   50.0012 H   0  0  0  0  0  0  0  0  0  0  0  0
   64.2293   30.9867   49.4611 H   0  0  0  0  0  0  0  0  0  0  0  0
   65.5286   32.7326   50.8811 H   0  0  0  0  0  0  0  0  0  0  0  0
   66.3011   32.1034   49.3864 H   0  0  0  0  0  0  0  0  0  0  0  0
   65.5366   33.7289   49.3864 H   0  0  0  0  0  0  0  0  0  0  0  0
   64.2127   34.4422   47.7321 H   0  0  0  0  0  0  0  0  0  0  0  0
   62.7121   33.8465   46.8986 H   0  0  0  0  0  0  0  0  0  0  0  0
   62.9904   33.9618   49.9331 H   0  0  0  0  0  0  0  0  0  0  0  0
   62.3299   35.3161   48.9552 H   0  0  0  0  0  0  0  0  0  0  0  0
   61.5029   33.7215   48.9552 H   0  0  0  0  0  0  0  0  0  0  0  0
   60.3454   33.8751   47.7158 H   0  0  0  0  0  0  0  0  0  0  0  0
   59.6709   35.7901   46.2835 H   0  0  0  0  0  0  0  0  0  0  0  0
   58.3194   35.4085   44.2345 H   0  0  0  0  0  0  0  0  0  0  0  0
   57.5848   33.1171   43.6181 H   0  0  0  0  0  0  0  0  0  0  0  0
   56.0737   30.4085   44.5396 H   0  0  0  0  0  0  0  0  0  0  0  0
   56.9014   31.5239   43.4006 H   0  0  0  0  0  0  0  0  0  0  0  0
   57.3096   29.7746   43.4006 H   0  0  0  0  0  0  0  0  0  0  0  0
   57.4593   28.0435   43.7226 H   0  0  0  0  0  0  0  0  0  0  0  0
  1  2  1  0
  2  3  1  0
  3  4  1  0
  4  5  1  0
  5  6  1  0
  6  7  2  0
  7  8  1  0
  8  9  2  0
  9 10  1  0
 10 11  1  0
 11 12  2  0
 12 13  1  0
 13 14  1  0
 14 15  1  0
 15 16  1  0
 16 17  1  0
 17 18  1  0
 16 19  1  0
 19 20  1  0
 12 21  1  0
 21 22  2  0
 22 23  1  0
 23 24  2  0
 24 25  1  0
 25 26  2  0
 26 27  1  0
 27 28  1  0
 27 29  2  0
 29 30  1  0
 30 31  2  0
 31  6  1  0
 30  9  1  0
 29 11  1  0
 26 21  1  0
  1 32  1  0
  1 33  1  0
  1 34  1  0
  2 35  1  0
  2 36  1  0
  3 37  1  0
  3 38  1  0
  4 39  1  0
  4 40  1  0
  7 41  1  0
  8 42  1  0
 13 43  1  0
 14 44  1  0
 14 45  1  0
 15 46  1  0
 15 47  1  0
 16 48  1  0
 17 49  1  0
 17 50  1  0
 18 51  1  0
 18 52  1  0
 18 53  1  0
 19 54  1  0
 19 55  1  0
 20 56  1  0
 20 57  1  0
 20 58  1  0
 22 59  1  0
 23 60  1  0
 24 61  1  0
 25 62  1  0
 28 63  1  0
 28 64  1  0
 28 65  1  0
 31 66  1  0
M  CHG  2  16   1  27   1
M  END
>  <UniqueID>  (41) 
39

>  <SMILES>  (41) 
CCCCOc1ccc2oc3c(NCC[NH+](CC)CC)c4ccccc4[n+](C)c3c2c1

>  <Energy>  (41) 
122.95036175995135

>  <Genealogy>  (41) 
CCCCOc1ccc2oc3c(NCC[NH+](CC)CC)c4ccccc4[n+](C)c3c2c1 (protonated)
CCCCOc1ccc2oc3c(NCC[NH+](CC)CC)c4ccccc4[n+](C)c3c2c1 (3D coordinates assigned)
CCCCOc1ccc2oc3c(NCC[NH+](CC)CC)c4ccccc4[n+](C)c3c2c1 (optimized conformer: 122.95036175995135 kcal/mol)

>  <smiles>  (41) 
CCCCOc1ccc2oc3c(NCCN(CC)CC)c4ccccc4[n+](C)c3c2c1

>  <score_type>  (41) 
oracle

>  <origin>  (41) 
adg

>  <m_score__min__energy>  (41) 
-5.2400000000000002

>  <m_primary>  (41) 
energy

$$$$
41:0
     RDKit          3D

 34 35  0  0  0  0  0  0  0  0999 V2000
   61.7580   31.2240   47.1980 C   0  0  0  0  0  0  0  0  0  0  0  0
   60.7590   30.2890   46.5270 C   0  0  0  0  0  0  0  0  0  0  0  0
   59.7460   31.0530   45.7950 N   0  0  0  0  0  0  0  0  0  0  0  0
   58.4610   30.5310   45.3880 C   0  0  0  0  0  0  0  0  0  0  0  0
   58.0010   29.2810   45.8560 C   0  0  0  0  0  0  0  0  0  0  0  0
   56.7710   28.7680   45.4360 C   0  0  0  0  0  0  0  0  0  0  0  0
   55.9820   29.4860   44.5380 C   0  0  0  0  0  0  0  0  0  0  0  0
   54.7930   28.9810   44.1280 F   0  0  0  0  0  0  0  0  0  0  0  0
   56.4170   30.7230   44.0640 C   0  0  0  0  0  0  0  0  0  0  0  0
   57.6390   31.2590   44.4910 C   0  0  0  0  0  0  0  0  0  0  0  0
   58.1200   32.8740   43.8500 S   0  0  0  0  0  0  0  0  0  0  0  0
   57.4070   33.8250   45.2390 C   0  0  0  0  0  0  0  0  0  0  0  0
   58.3250   33.8250   46.4310 C   0  0  0  0  0  0  0  0  0  0  0  0
   58.0090   33.0590   47.5650 C   0  0  0  0  0  0  0  0  0  0  0  0
   58.8620   33.0560   48.6730 C   0  0  0  0  0  0  0  0  0  0  0  0
   60.0330   33.8200   48.6570 C   0  0  0  0  0  0  0  0  0  0  0  0
   60.3450   34.5980   47.5400 C   0  0  0  0  0  0  0  0  0  0  0  0
   59.4950   34.6030   46.4290 C   0  0  0  0  0  0  0  0  0  0  0  0
   61.6650   31.1369   48.2906 H   0  0  0  0  0  0  0  0  0  0  0  0
   62.7788   30.9492   46.8939 H   0  0  0  0  0  0  0  0  0  0  0  0
   61.5513   32.2607   46.8939 H   0  0  0  0  0  0  0  0  0  0  0  0
   61.2940   29.6329   45.8246 H   0  0  0  0  0  0  0  0  0  0  0  0
   60.2587   29.6905   47.3025 H   0  0  0  0  0  0  0  0  0  0  0  0
   60.0350   32.0070   45.4900 H   0  0  0  0  0  0  0  0  0  0  0  0
   58.6185   28.7038   46.5599 H   0  0  0  0  0  0  0  0  0  0  0  0
   56.4242   27.7952   45.8147 H   0  0  0  0  0  0  0  0  0  0  0  0
   55.7958   31.2825   43.3491 H   0  0  0  0  0  0  0  0  0  0  0  0
   57.2412   34.8629   44.9146 H   0  0  0  0  0  0  0  0  0  0  0  0
   56.4581   33.3521   45.5321 H   0  0  0  0  0  0  0  0  0  0  0  0
   57.0871   32.4592   47.5816 H   0  0  0  0  0  0  0  0  0  0  0  0
   58.6117   32.4522   49.5578 H   0  0  0  0  0  0  0  0  0  0  0  0
   60.7089   33.8082   49.5248 H   0  0  0  0  0  0  0  0  0  0  0  0
   61.2605   35.2078   47.5338 H   0  0  0  0  0  0  0  0  0  0  0  0
   59.7433   35.2178   45.5513 H   0  0  0  0  0  0  0  0  0  0  0  0
  1  2  1  0
  2  3  1  0
  3  4  1  0
  4  5  2  0
  5  6  1  0
  6  7  2  0
  7  8  1  0
  7  9  1  0
  9 10  2  0
 10 11  1  0
 11 12  1  0
 12 13  1  0
 13 14  2  0
 14 15  1  0
 15 16  2  0
 16 17  1  0
 17 18  2  0
 10  4  1  0
 18 13  1  0
  1 19  1  0
  1 20  1  0
  1 21  1  0
  2 22  1  0
  2 23  1  0
  3 24  1  0
  5 25  1  0
  6 26  1  0
  9 27  1  0
 12 28  1  0
 12 29  1  0
 14 30  1  0
 15 31  1  0
 16 32  1  0
 17 33  1  0
 18 34  1  0
M  END
>  <UniqueID>  (42) 
40

>  <SMILES>  (42) 
CCNc1ccc(F)cc1SCc1ccccc1

>  <Energy>  (42) 
26.308753691327965

>  <Genealogy>  (42) 
CCNc1ccc(F)cc1SCc1ccccc1 (3D coordinates assigned)
CCNc1ccc(F)cc1SCc1ccccc1 (optimized conformer: 26.308753691327965 kcal/mol)

>  <smiles>  (42) 
CCNc1ccc(F)cc1SCc1ccccc1

>  <score_type>  (42) 
oracle

>  <origin>  (42) 
adg

>  <m_score__min__energy>  (42) 
-6.2999999999999998

>  <m_primary>  (42) 
energy

$$$$
42:0
     RDKit          3D

 43 45  0  0  0  0  0  0  0  0999 V2000
   58.9460   34.5730   45.0170 C   0  0  0  0  0  0  0  0  0  0  0  0
   59.6250   34.9730   46.3340 C   0  0  0  0  0  0  0  0  0  0  0  0
   59.8710   33.8380   47.2520 N   0  0  0  0  0  0  0  0  0  0  0  0
   59.6630   34.2030   48.6630 C   0  0  0  0  0  0  0  0  0  0  0  0
   61.1840   33.1950   47.0280 C   0  0  0  0  0  0  0  0  0  0  0  0
   61.0730   31.6660   47.1150 C   0  0  0  0  0  0  0  0  0  0  0  0
   59.6750   31.2270   47.1530 N   0  0  0  0  0  0  0  0  0  0  0  0
   59.2070   30.0740   46.4340 C   0  0  0  0  0  0  0  0  0  0  0  0
   58.3340   30.1950   45.3220 C   0  0  0  0  0  0  0  0  0  0  0  0
   57.8700   31.4560   44.8970 C   0  0  0  0  0  0  0  0  0  0  0  0
   57.0350   31.5680   43.7870 C   0  0  0  0  0  0  0  0  0  0  0  0
   56.6420   30.4330   43.0850 C   0  0  0  0  0  0  0  0  0  0  0  0
   57.0840   29.1700   43.4820 C   0  0  0  0  0  0  0  0  0  0  0  0
   57.9360   29.0170   44.6000 C   0  0  0  0  0  0  0  0  0  0  0  0
   58.3860   27.7680   44.9980 N   0  0  0  0  0  0  0  0  0  0  0  0
   58.0020   26.5360   44.2910 C   0  0  0  0  0  0  0  0  0  0  0  0
   59.2000   27.6920   46.0900 C   0  0  0  0  0  0  0  0  0  0  0  0
   59.6840   26.5960   46.6270 O   0  0  0  0  0  0  0  0  0  0  0  0
   60.3950   26.9450   47.6800 C   0  0  0  0  0  0  0  0  0  0  0  0
   60.3750   28.3250   47.8390 C   0  0  0  0  0  0  0  0  0  0  0  0
   59.6060   28.7900   46.7920 C   0  0  0  0  0  0  0  0  0  0  0  0
   58.0170   34.0257   45.2349 H   0  0  0  0  0  0  0  0  0  0  0  0
   58.7113   35.4771   44.4361 H   0  0  0  0  0  0  0  0  0  0  0  0
   59.6230   33.9294   44.4361 H   0  0  0  0  0  0  0  0  0  0  0  0
   60.5913   35.4420   46.0968 H   0  0  0  0  0  0  0  0  0  0  0  0
   58.9379   35.6586   46.8516 H   0  0  0  0  0  0  0  0  0  0  0  0
   60.1033   33.4303   49.3104 H   0  0  0  0  0  0  0  0  0  0  0  0
   60.1455   35.1704   48.8665 H   0  0  0  0  0  0  0  0  0  0  0  0
   58.5848   34.2810   48.8665 H   0  0  0  0  0  0  0  0  0  0  0  0
   61.5541   33.4721   46.0299 H   0  0  0  0  0  0  0  0  0  0  0  0
   61.8793   33.5397   47.8076 H   0  0  0  0  0  0  0  0  0  0  0  0
   61.5626   31.2221   46.2357 H   0  0  0  0  0  0  0  0  0  0  0  0
   61.5616   31.3383   48.0445 H   0  0  0  0  0  0  0  0  0  0  0  0
   58.9730   31.8630   47.5920 H   0  0  0  0  0  0  0  0  0  0  0  0
   58.1698   32.3604   45.4467 H   0  0  0  0  0  0  0  0  0  0  0  0
   56.6846   32.5594   43.4640 H   0  0  0  0  0  0  0  0  0  0  0  0
   55.9794   30.5315   42.2125 H   0  0  0  0  0  0  0  0  0  0  0  0
   56.7651   28.2815   42.9174 H   0  0  0  0  0  0  0  0  0  0  0  0
   57.7580   25.7533   45.0244 H   0  0  0  0  0  0  0  0  0  0  0  0
   57.1230   26.7341   43.6601 H   0  0  0  0  0  0  0  0  0  0  0  0
   58.8379   26.1996   43.6601 H   0  0  0  0  0  0  0  0  0  0  0  0
   60.9282   26.2439   48.3390 H   0  0  0  0  0  0  0  0  0  0  0  0
   60.8646   28.9168   48.6264 H   0  0  0  0  0  0  0  0  0  0  0  0
  1  2  1  0
  2  3  1  0
  3  4  1  0
  3  5  1  0
  5  6  1  0
  6  7  1  0
  7  8  1  0
  8  9  2  0
  9 10  1  0
 10 11  2  0
 11 12  1  0
 12 13  2  0
 13 14  1  0
 14 15  2  0
 15 16  1  0
 15 17  1  0
 17 18  1  0
 18 19  1  0
 19 20  2  0
 20 21  1  0
 21  8  1  0
 14  9  1  0
 21 17  2  0
  1 22  1  0
  1 23  1  0
  1 24  1  0
  2 25  1  0
  2 26  1  0
  4 27  1  0
  4 28  1  0
  4 29  1  0
  5 30  1  0
  5 31  1  0
  6 32  1  0
  6 33  1  0
  7 34  1  0
 10 35  1  0
 11 36  1  0
 12 37  1  0
 13 38  1  0
 16 39  1  0
 16 40  1  0
 16 41  1  0
 19 42  1  0
 20 43  1  0
M  CHG  1  15   1
M  END
>  <UniqueID>  (43) 
41

>  <SMILES>  (43) 
CCN(C)CCNc1c2ccccc2[n+](C)c2occc12

>  <Energy>  (43) 
88.89382054285409

>  <Genealogy>  (43) 
CCN(C)CCNc1c2ccccc2[n+](C)c2occc12 (3D coordinates assigned)
CCN(C)CCNc1c2ccccc2[n+](C)c2occc12 (optimized conformer: 88.89382054285409 kcal/mol)

>  <smiles>  (43) 
CCN(C)CCNc1c2ccccc2[n+](C)c2occc12

>  <score_type>  (43) 
oracle

>  <origin>  (43) 
adg

>  <m_score__min__energy>  (43) 
-4.3700000000000001

>  <m_primary>  (43) 
energy

$$$$
