0:0
     RDKit          3D

 40 43  0  0  1  0  0  0  0  0999 V2000
   61.0590   29.1900   49.6490 C   0  0  0  0  0  0  0  0  0  0  0  0
   60.2210   28.5280   48.6480 C   0  0  0  0  0  0  0  0  0  0  0  0
   60.0250   26.7500   48.6050 S   0  0  0  0  0  0  0  0  0  0  0  0
   58.8630   26.8720   47.2210 C   0  0  0  0  0  0  0  0  0  0  0  0
   58.2640   25.8260   46.6230 N   0  0  0  0  0  0  0  0  0  0  0  0
   57.4030   26.0220   45.6040 C   0  0  0  0  0  0  0  0  0  0  0  0
   56.7620   24.9090   44.9510 C   0  0  0  0  0  0  0  0  0  0  0  0
   55.5060   24.4100   45.2340 C   0  0  0  0  0  0  0  0  0  0  0  0
   55.2940   23.3840   44.4070 N   0  0  0  0  0  0  0  0  0  0  0  0
   56.3660   23.2330   43.6310 N   0  0  0  0  0  0  0  0  0  0  0  0
   56.4440   22.1960   42.6230 C   0  0  0  0  0  0  0  0  0  0  0  0
   57.2980   24.1530   43.9320 C   0  0  0  0  0  0  0  0  0  0  0  0
   57.2000   27.2950   45.2550 N   0  0  0  0  0  0  0  0  0  0  0  0
   57.7970   28.3610   45.8520 C   0  0  0  0  0  0  0  0  0  0  0  0
   57.3960   29.4600   45.5930 N   0  0  0  0  0  0  0  0  0  0  0  0
   57.6040   30.6290   45.0550 C   0  0  0  0  0  0  0  0  0  0  0  0
   57.9030   30.7500   43.6670 C   0  0  0  0  0  0  0  0  0  0  0  0
   57.9910   31.9670   43.0500 C   0  0  0  0  0  0  0  0  0  0  0  0
   57.7830   33.1060   43.7930 C   0  0  0  0  0  0  0  0  0  0  0  0
   57.4980   32.9490   45.1220 C   0  0  0  0  0  0  0  0  0  0  0  0
   57.4010   31.7930   45.7710 N   0  0  0  0  0  0  0  0  0  0  0  0
   58.7170   28.1950   46.9110 C   0  0  0  0  0  0  0  0  0  0  0  0
   59.4180   29.0850   47.6280 C   0  0  0  0  0  0  0  0  0  0  0  0
   59.6820   30.5690   47.4310 C   0  0  0  0  0  0  0  0  0  0  0  0
   60.7124   28.9162   50.6564 H   0  0  0  0  0  0  0  0  0  0  0  0
   62.1039   28.8709   49.5214 H   0  0  0  0  0  0  0  0  0  0  0  0
   60.9904   30.2804   49.5214 H   0  0  0  0  0  0  0  0  0  0  0  0
   54.8104   24.7874   45.9980 H   0  0  0  0  0  0  0  0  0  0  0  0
   56.5179   21.2137   43.1125 H   0  0  0  0  0  0  0  0  0  0  0  0
   55.5411   22.2260   41.9955 H   0  0  0  0  0  0  0  0  0  0  0  0
   57.3323   22.3607   41.9955 H   0  0  0  0  0  0  0  0  0  0  0  0
   58.2848   24.2768   43.4619 H   0  0  0  0  0  0  0  0  0  0  0  0
   56.5170   27.4240   44.4490 H   0  0  0  0  0  0  0  0  0  0  0  0
   58.0678   29.8378   43.0747 H   0  0  0  0  0  0  0  0  0  0  0  0
   58.2243   32.0343   41.9771 H   0  0  0  0  0  0  0  0  0  0  0  0
   57.8435   34.1048   43.3361 H   0  0  0  0  0  0  0  0  0  0  0  0
   57.3338   33.8652   45.7083 H   0  0  0  0  0  0  0  0  0  0  0  0
   59.7692   31.0593   48.4118 H   0  0  0  0  0  0  0  0  0  0  0  0
   60.6182   30.7035   46.8693 H   0  0  0  0  0  0  0  0  0  0  0  0
   58.8496   31.0181   46.8693 H   0  0  0  0  0  0  0  0  0  0  0  0
  1  2  1  0
  2  3  1  0
  3  4  1  0
  4  5  1  0
  5  6  2  0
  6  7  1  0
  7  8  1  0
  8  9  2  0
  9 10  1  0
 10 11  1  0
 10 12  1  0
  6 13  1  0
 13 14  1  0
 14 15  2  0
 15 16  1  0
 16 17  2  0
 17 18  1  0
 18 19  2  0
 19 20  1  0
 20 21  2  0
 14 22  1  0
 22 23  1  0
 23 24  1  0
 23  2  2  0
 22  4  2  0
 12  7  2  0
 21 16  1  0
  1 25  1  0
  1 26  1  0
  1 27  1  0
  8 28  1  0
 11 29  1  0
 11 30  1  0
 11 31  1  0
 12 32  1  0
 13 33  1  0
 17 34  1  0
 18 35  1  0
 19 36  1  0
 20 37  1  0
 24 38  1  0
 24 39  1  0
 24 40  1  0
M  END
>  <smiles>  (1) 
Cc1sc2nc(-c3cnn(C)c3)[nH]c(=Nc3ccccn3)c2c1C

>  <score_type>  (1) 
oracle

>  <origin>  (1) 
adg

>  <m_score__min__energy>  (1) 
-7.1699999999999999

>  <m_primary>  (1) 
energy

$$$$
1:0
     RDKit          3D

 67 69  0  0  0  0  0  0  0  0999 V2000
   61.0500   29.8920   47.6870 H   0  0  0  0  0  0  0  0  0  0  0  0
   60.6980   29.7330   46.7550 O   0  0  0  0  0  0  0  0  0  0  0  0
   59.3570   29.5010   46.4320 C   0  0  0  0  0  0  0  0  0  0  0  0
   58.6110   30.4680   45.7120 C   0  0  0  0  0  0  0  0  0  0  0  0
   59.1060   31.7730   45.4770 C   0  0  0  0  0  0  0  0  0  0  0  0
   60.0894   32.0606   45.8773 H   0  0  0  0  0  0  0  0  0  0  0  0
   58.3630   32.7000   44.7440 C   0  0  0  0  0  0  0  0  0  0  0  0
   58.7665   33.7076   44.5654 H   0  0  0  0  0  0  0  0  0  0  0  0
   57.1150   32.3540   44.2390 C   0  0  0  0  0  0  0  0  0  0  0  0
   56.5388   33.0830   43.6503 H   0  0  0  0  0  0  0  0  0  0  0  0
   56.5940   31.0850   44.4780 C   0  0  0  0  0  0  0  0  0  0  0  0
   55.6022   30.8205   44.0826 H   0  0  0  0  0  0  0  0  0  0  0  0
   57.3250   30.1350   45.2220 C   0  0  0  0  0  0  0  0  0  0  0  0
   56.7820   28.8650   45.4700 C   0  0  0  0  0  0  0  0  0  0  0  0
   55.5260   28.5650   44.9430 O   0  0  0  0  0  0  0  0  0  0  0  0
   57.4850   27.9150   46.2500 C   0  0  0  0  0  0  0  0  0  0  0  0
   56.9350   26.6310   46.5190 C   0  0  0  0  0  0  0  0  0  0  0  0
   55.6790   26.2160   45.9600 N   0  0  0  0  0  0  0  0  0  0  0  0
   55.2720   24.9840   45.8540 C   0  0  0  0  0  0  0  0  0  0  0  0
   54.7646   24.5199   46.7126 H   0  0  0  0  0  0  0  0  0  0  0  0
   55.4690   24.1640   44.5960 C   0  0  0  0  0  0  0  0  0  0  0  0
   54.9137   24.6446   43.7770 H   0  0  0  0  0  0  0  0  0  0  0  0
   55.1020   23.1496   44.8111 H   0  0  0  0  0  0  0  0  0  0  0  0
   56.8850   24.0360   44.1890 N   0  0  0  0  0  0  0  0  0  0  0  0
   57.2880   24.8590   43.0250 C   0  0  0  0  0  0  0  0  0  0  0  0
   56.4225   24.9521   42.3524 H   0  0  0  0  0  0  0  0  0  0  0  0
   58.1402   24.3457   42.5556 H   0  0  0  0  0  0  0  0  0  0  0  0
   57.7690   26.2690   43.3870 C   0  0  0  0  0  0  0  0  0  0  0  0
   57.8050   26.3745   44.4813 H   0  0  0  0  0  0  0  0  0  0  0  0
   58.7736   26.4321   42.9697 H   0  0  0  0  0  0  0  0  0  0  0  0
   57.0735   27.0121   42.9697 H   0  0  0  0  0  0  0  0  0  0  0  0
   57.4290   22.6610   44.2040 C   0  0  0  0  0  0  0  0  0  0  0  0
   58.5201   22.7002   44.0697 H   0  0  0  0  0  0  0  0  0  0  0  0
   57.1866   22.1890   45.1676 H   0  0  0  0  0  0  0  0  0  0  0  0
   56.8120   21.8400   43.0780 C   0  0  0  0  0  0  0  0  0  0  0  0
   56.2032   21.0299   43.5060 H   0  0  0  0  0  0  0  0  0  0  0  0
   56.1757   22.4883   42.4577 H   0  0  0  0  0  0  0  0  0  0  0  0
   57.6117   21.4092   42.4577 H   0  0  0  0  0  0  0  0  0  0  0  0
   57.6530   25.7110   47.2820 C   0  0  0  0  0  0  0  0  0  0  0  0
   57.2470   24.7007   47.4384 H   0  0  0  0  0  0  0  0  0  0  0  0
   58.8700   26.0530   47.8450 C   0  0  0  0  0  0  0  0  0  0  0  0
   59.4000   25.3206   48.4716 H   0  0  0  0  0  0  0  0  0  0  0  0
   59.4400   27.3170   47.6310 C   0  0  0  0  0  0  0  0  0  0  0  0
   60.6390   27.6640   48.3540 N   0  0  0  0  0  0  0  0  0  0  0  0
   61.3050   28.3240   47.8920 H   0  0  0  0  0  0  0  0  0  0  0  0
   60.7610   27.5050   49.8060 C   0  0  0  0  0  0  0  0  0  0  0  0
   59.8189   27.0981   50.2020 H   0  0  0  0  0  0  0  0  0  0  0  0
   61.5978   26.8209   50.0105 H   0  0  0  0  0  0  0  0  0  0  0  0
   61.0530   28.8420   50.4910 C   0  0  0  0  0  0  0  0  0  0  0  0
   60.2850   29.0346   51.2546 H   0  0  0  0  0  0  0  0  0  0  0  0
   62.0463   28.7952   50.9613 H   0  0  0  0  0  0  0  0  0  0  0  0
   61.0400   29.9440   49.4920 N   0  0  0  0  0  0  0  0  0  0  0  0
   62.2530   30.7900   49.6000 C   0  0  0  0  0  0  0  0  0  0  0  0
   62.2133   31.3556   50.5426 H   0  0  0  0  0  0  0  0  0  0  0  0
   63.1372   30.1360   49.5772 H   0  0  0  0  0  0  0  0  0  0  0  0
   62.3470   31.7720   48.4330 C   0  0  0  0  0  0  0  0  0  0  0  0
   62.4450   32.7961   48.8225 H   0  0  0  0  0  0  0  0  0  0  0  0
   63.2259   31.5278   47.8182 H   0  0  0  0  0  0  0  0  0  0  0  0
   61.4378   31.6990   47.8182 H   0  0  0  0  0  0  0  0  0  0  0  0
   59.8100   30.7590   49.6090 C   0  0  0  0  0  0  0  0  0  0  0  0
   59.9542   31.5138   50.3960 H   0  0  0  0  0  0  0  0  0  0  0  0
   59.6190   31.2396   48.6381 H   0  0  0  0  0  0  0  0  0  0  0  0
   58.5990   29.8930   49.9650 C   0  0  0  0  0  0  0  0  0  0  0  0
   58.5051   29.8259   51.0589 H   0  0  0  0  0  0  0  0  0  0  0  0
   57.6884   30.3460   49.5459 H   0  0  0  0  0  0  0  0  0  0  0  0
   58.7333   28.8848   49.5459 H   0  0  0  0  0  0  0  0  0  0  0  0
   58.7670   28.2560   46.7860 C   0  0  0  0  0  0  0  0  0  0  0  0
  1  2  1  0
  2  3  1  0
  3  4  2  0
  4  5  1  0
  5  6  1  0
  5  7  2  0
  7  8  1  0
  7  9  1  0
  9 10  1  0
  9 11  2  0
 11 12  1  0
 11 13  1  0
 13 14  2  0
 14 15  1  0
 14 16  1  0
 16 17  2  0
 17 18  1  0
 18 19  2  0
 19 20  1  0
 19 21  1  0
 21 22  1  0
 21 23  1  0
 21 24  1  0
 24 25  1  0
 25 26  1  0
 25 27  1  0
 25 28  1  0
 28 29  1  0
 28 30  1  0
 28 31  1  0
 24 32  1  0
 32 33  1  0
 32 34  1  0
 32 35  1  0
 35 36  1  0
 35 37  1  0
 35 38  1  0
 17 39  1  0
 39 40  1  0
 39 41  2  0
 41 42  1  0
 41 43  1  0
 43 44  1  0
 44 45  1  0
 44 46  1  0
 46 47  1  0
 46 48  1  0
 46 49  1  0
 49 50  1  0
 49 51  1  0
 49 52  1  0
 52 53  1  0
 53 54  1  0
 53 55  1  0
 53 56  1  0
 56 57  1  0
 56 58  1  0
 56 59  1  0
 52 60  1  0
 60 61  1  0
 60 62  1  0
 60 63  1  0
 63 64  1  0
 63 65  1  0
 63 66  1  0
 43 67  2  0
 67  3  1  0
 13  4  1  0
 67 16  1  0
M  CHG  1  15  -1
M  END
>  <UniqueID>  (2) 
1

>  <SMILES>  (2) 
CCN(CC)C/C=N\c1ccc(NCCN(CC)CC)c2c(O)c3ccccc3c([O-])c12

>  <Energy>  (2) 
102.4301435269716

>  <Genealogy>  (2) 
CCN(CC)CC=Nc1ccc(NCCN(CC)CC)c2c(O)c3ccccc3c([O-])c12 (protonated)
CCN(CC)C/C=N\c1ccc(NCCN(CC)CC)c2c(O)c3ccccc3c([O-])c12 (cis-trans isomerization)
CCN(CC)C/C=N\c1ccc(NCCN(CC)CC)c2c(O)c3ccccc3c([O-])c12 (3D coordinates assigned)
CCN(CC)C/C=N\c1ccc(NCCN(CC)CC)c2c(O)c3ccccc3c([O-])c12 (optimized conformer: 102.4301435269716 kcal/mol)

>  <smiles>  (2) 
CCN(CC)CC=Nc1ccc(NCCN(CC)CC)c2c(O)c3ccccc3c(O)c12

>  <score_type>  (2) 
oracle

>  <origin>  (2) 
adg

>  <m_score__min__energy>  (2) 
-8.9900000000000002

>  <m_primary>  (2) 
energy

$$$$
2:0
     RDKit          3D

 32 33  0  0  0  0  0  0  0  0999 V2000
   59.7975   27.0115   44.7379 H   0  0  0  0  0  0  0  0  0  0  0  0
   58.9530   26.7900   45.4070 C   0  0  0  0  0  0  0  0  0  0  0  0
   58.2290   27.9420   46.0000 C   0  0  0  0  0  0  0  0  0  0  0  0
   57.9240   27.9310   47.2240 O   0  0  0  0  0  0  0  0  0  0  0  0
   57.8810   29.1320   45.1870 C   0  0  0  0  0  0  0  0  0  0  0  0
   58.8800   30.0250   44.7540 C   0  0  0  0  0  0  0  0  0  0  0  0
   59.9318   29.8362   45.0147 H   0  0  0  0  0  0  0  0  0  0  0  0
   58.5440   31.1500   43.9950 C   0  0  0  0  0  0  0  0  0  0  0  0
   59.3316   31.8406   43.6593 H   0  0  0  0  0  0  0  0  0  0  0  0
   57.2110   31.3990   43.6620 C   0  0  0  0  0  0  0  0  0  0  0  0
   56.9499   32.2834   43.0622 H   0  0  0  0  0  0  0  0  0  0  0  0
   56.2100   30.5260   44.0900 C   0  0  0  0  0  0  0  0  0  0  0  0
   55.1602   30.7271   43.8304 H   0  0  0  0  0  0  0  0  0  0  0  0
   56.5360   29.3960   44.8480 C   0  0  0  0  0  0  0  0  0  0  0  0
   55.5180   28.5350   45.2460 O   0  0  0  0  0  0  0  0  0  0  0  0
   58.6570   25.4980   45.6240 C   0  0  0  0  0  0  0  0  0  0  0  0
   59.4459   24.8655   46.0571 H   0  0  0  0  0  0  0  0  0  0  0  0
   57.3590   24.8560   45.3290 C   0  0  0  0  0  0  0  0  0  0  0  0
   56.2020   25.3310   45.9590 C   0  0  0  0  0  0  0  0  0  0  0  0
   56.2635   26.1937   46.6387 H   0  0  0  0  0  0  0  0  0  0  0  0
   54.9700   24.7140   45.7280 C   0  0  0  0  0  0  0  0  0  0  0  0
   54.0624   25.1038   46.2119 H   0  0  0  0  0  0  0  0  0  0  0  0
   54.8870   23.6030   44.8840 C   0  0  0  0  0  0  0  0  0  0  0  0
   53.6540   23.0020   44.6600 O   0  0  0  0  0  0  0  0  0  0  0  0
   56.0380   23.0930   44.2690 C   0  0  0  0  0  0  0  0  0  0  0  0
   55.9130   21.9700   43.4350 O   0  0  0  0  0  0  0  0  0  0  0  0
   56.9960   21.1320   43.0440 C   0  0  0  0  0  0  0  0  0  0  0  0
   57.5000   20.7420   43.9406 H   0  0  0  0  0  0  0  0  0  0  0  0
   56.6126   20.2930   42.4447 H   0  0  0  0  0  0  0  0  0  0  0  0
   57.7119   21.7137   42.4447 H   0  0  0  0  0  0  0  0  0  0  0  0
   57.2800   23.7160   44.5080 C   0  0  0  0  0  0  0  0  0  0  0  0
   58.1931   23.3083   44.0497 H   0  0  0  0  0  0  0  0  0  0  0  0
  1  2  1  0
  2  3  1  0
  3  4  2  0
  3  5  1  0
  5  6  2  0
  6  7  1  0
  6  8  1  0
  8  9  1  0
  8 10  2  0
 10 11  1  0
 10 12  1  0
 12 13  1  0
 12 14  2  0
 14 15  1  0
  2 16  2  0
 16 17  1  0
 16 18  1  0
 18 19  2  0
 19 20  1  0
 19 21  1  0
 21 22  1  0
 21 23  2  0
 23 24  1  0
 23 25  1  0
 25 26  1  0
 26 27  1  0
 27 28  1  0
 27 29  1  0
 27 30  1  0
 25 31  2  0
 31 32  1  0
 14  5  1  0
 31 18  1  0
M  CHG  2  15  -1  24  -1
M  END
>  <UniqueID>  (3) 
2

>  <SMILES>  (3) 
COc1cc(/C=C\C(=O)c2ccccc2[O-])ccc1[O-]

>  <Energy>  (3) 
44.8761426770987

>  <Genealogy>  (3) 
COc1cc(C=CC(=O)c2ccccc2[O-])ccc1[O-] (protonated)
COc1cc(/C=C\C(=O)c2ccccc2[O-])ccc1[O-] (cis-trans isomerization)
COc1cc(/C=C\C(=O)c2ccccc2[O-])ccc1[O-] (3D coordinates assigned)
COc1cc(/C=C\C(=O)c2ccccc2[O-])ccc1[O-] (optimized conformer: 44.8761426770987 kcal/mol)

>  <smiles>  (3) 
COc1cc(C=CC(=O)c2ccccc2O)ccc1O

>  <score_type>  (3) 
oracle

>  <origin>  (3) 
adg

>  <m_score__min__energy>  (3) 
-12.24

>  <m_primary>  (3) 
energy

$$$$
3:0
     RDKit          3D

 35 37  0  0  0  0  0  0  0  0999 V2000
   56.7404   25.5401   46.8989 H   0  0  0  0  0  0  0  0  0  0  0  0
   57.4070   26.3510   46.5700 C   0  0  0  0  0  0  0  0  0  0  0  0
   58.3540   26.8720   47.4500 C   0  0  0  0  0  0  0  0  0  0  0  0
   58.4353   26.4698   48.4706 H   0  0  0  0  0  0  0  0  0  0  0  0
   59.1990   27.9030   47.0380 C   0  0  0  0  0  0  0  0  0  0  0  0
   59.9472   28.3069   47.7359 H   0  0  0  0  0  0  0  0  0  0  0  0
   59.1020   28.4300   45.7380 C   0  0  0  0  0  0  0  0  0  0  0  0
   60.0120   29.5580   45.3330 C   0  0  0  0  0  0  0  0  0  0  0  0
   60.4090   30.0501   46.2331 H   0  0  0  0  0  0  0  0  0  0  0  0
   60.8451   29.1603   44.7349 H   0  0  0  0  0  0  0  0  0  0  0  0
   59.4471   30.2882   44.7349 H   0  0  0  0  0  0  0  0  0  0  0  0
   58.1450   27.8960   44.8370 C   0  0  0  0  0  0  0  0  0  0  0  0
   58.0430   28.4050   43.4910 N   0  0  0  0  0  0  0  0  0  0  0  0
   58.8180   28.2190   42.8170 H   0  0  0  0  0  0  0  0  0  0  0  0
   56.9280   29.2230   43.0090 C   0  0  0  0  0  0  0  0  0  0  0  0
   57.3264   30.0576   42.4135 H   0  0  0  0  0  0  0  0  0  0  0  0
   56.2701   28.5890   42.3964 H   0  0  0  0  0  0  0  0  0  0  0  0
   56.1230   29.7780   44.1570 C   0  0  0  0  0  0  0  0  0  0  0  0
   55.4900   28.9730   44.8880 O   0  0  0  0  0  0  0  0  0  0  0  0
   56.0860   31.1780   44.4910 N   0  0  0  0  0  0  0  0  0  0  0  0
   57.0190   31.8950   45.0430 C   0  0  0  0  0  0  0  0  0  0  0  0
   57.7620   31.4980   46.1060 N   0  0  0  0  0  0  0  0  0  0  0  0
   58.6540   32.4590   46.4530 C   0  0  0  0  0  0  0  0  0  0  0  0
   59.5520   32.3540   47.5170 C   0  0  0  0  0  0  0  0  0  0  0  0
   59.5778   31.4493   48.1422 H   0  0  0  0  0  0  0  0  0  0  0  0
   60.4220   33.4270   47.7730 C   0  0  0  0  0  0  0  0  0  0  0  0
   61.1357   33.3640   48.6076 H   0  0  0  0  0  0  0  0  0  0  0  0
   60.3870   34.5840   46.9680 C   0  0  0  0  0  0  0  0  0  0  0  0
   61.0734   35.4177   47.1775 H   0  0  0  0  0  0  0  0  0  0  0  0
   59.4800   34.6770   45.9000 C   0  0  0  0  0  0  0  0  0  0  0  0
   59.4448   35.5739   45.2642 H   0  0  0  0  0  0  0  0  0  0  0  0
   58.6270   33.6020   45.6690 C   0  0  0  0  0  0  0  0  0  0  0  0
   57.4480   33.4320   44.4840 S   0  0  0  0  0  0  0  0  0  0  0  0
   57.3020   26.8550   45.2730 C   0  0  0  0  0  0  0  0  0  0  0  0
   56.5538   26.4354   44.5844 H   0  0  0  0  0  0  0  0  0  0  0  0
  1  2  1  0
  2  3  2  0
  3  4  1  0
  3  5  1  0
  5  6  1  0
  5  7  2  0
  7  8  1  0
  8  9  1  0
  8 10  1  0
  8 11  1  0
  7 12  1  0
 12 13  1  0
 13 14  1  0
 13 15  1  0
 15 16  1  0
 15 17  1  0
 15 18  1  0
 18 19  2  0
 18 20  1  0
 20 21  2  0
 21 22  1  0
 22 23  1  0
 23 24  2  0
 24 25  1  0
 24 26  1  0
 26 27  1  0
 26 28  2  0
 28 29  1  0
 28 30  1  0
 30 31  1  0
 30 32  2  0
 32 33  1  0
 12 34  2  0
 34 35  1  0
 34  2  1  0
 33 21  1  0
 32 23  1  0
M  CHG  1  22  -1
M  END
>  <UniqueID>  (4) 
3

>  <SMILES>  (4) 
Cc1ccccc1NCC(=O)/N=c1\[n-]c2ccccc2s1

>  <Energy>  (4) 
75.22839946272777

>  <Genealogy>  (4) 
Cc1ccccc1NCC(=O)N=c1[n-]c2ccccc2s1 (protonated)
Cc1ccccc1NCC(=O)/N=c1\[n-]c2ccccc2s1 (cis-trans isomerization)
Cc1ccccc1NCC(=O)/N=c1\[n-]c2ccccc2s1 (3D coordinates assigned)
Cc1ccccc1NCC(=O)/N=c1\[n-]c2ccccc2s1 (optimized conformer: 75.22839946272777 kcal/mol)

>  <smiles>  (4) 
Cc1ccccc1NCC(=O)N=c1[nH]c2ccccc2s1

>  <score_type>  (4) 
oracle

>  <origin>  (4) 
adg

>  <m_score__min__energy>  (4) 
-9.4399999999999995

>  <m_primary>  (4) 
energy

$$$$
4:0
     RDKit          3D

 42 45  0  0  0  0  0  0  0  0999 V2000
   65.5650   32.4400   50.1470 C   0  0  0  0  0  0  0  0  0  0  0  0
   65.0140   33.4420   49.2990 O   0  0  0  0  0  0  0  0  0  0  0  0
   63.7610   33.3500   48.6770 C   0  0  0  0  0  0  0  0  0  0  0  0
   63.6490   33.7580   47.3430 C   0  0  0  0  0  0  0  0  0  0  0  0
   62.4220   33.6890   46.6780 C   0  0  0  0  0  0  0  0  0  0  0  0
   61.2770   33.2160   47.3430 C   0  0  0  0  0  0  0  0  0  0  0  0
   60.0040   33.1320   46.6720 N   0  0  0  0  0  0  0  0  0  0  0  0
   59.3340   34.1910   46.2160 N   0  0  0  0  0  0  0  0  0  0  0  0
   58.1990   33.7530   45.6110 C   0  0  0  0  0  0  0  0  0  0  0  0
   57.2390   34.6300   44.8790 C   0  0  0  0  0  0  0  0  0  0  0  0
   58.1860   32.3810   45.6720 C   0  0  0  0  0  0  0  0  0  0  0  0
   57.3530   31.4670   45.1200 N   0  0  0  0  0  0  0  0  0  0  0  0
   57.6550   30.1410   45.2780 C   0  0  0  0  0  0  0  0  0  0  0  0
   56.6180   28.9530   44.5100 Cl  0  0  0  0  0  0  0  0  0  0  0  0
   58.8390   29.7600   45.9830 C   0  0  0  0  0  0  0  0  0  0  0  0
   59.1920   28.3820   46.1580 N   0  0  0  0  0  0  0  0  0  0  0  0
   58.6090   27.5510   47.1980 C   0  0  0  0  0  0  0  0  0  0  0  0
   59.3890   26.2440   47.1620 C   0  0  0  0  0  0  0  0  0  0  0  0
   60.6850   26.5540   46.4190 C   0  0  0  0  0  0  0  0  0  0  0  0
   60.4160   27.8200   45.6140 C   0  0  0  0  0  0  0  0  0  0  0  0
   59.6670   30.7300   46.4830 N   0  0  0  0  0  0  0  0  0  0  0  0
   59.3080   32.0280   46.3360 C   0  0  0  0  0  0  0  0  0  0  0  0
   61.3930   32.7920   48.6770 C   0  0  0  0  0  0  0  0  0  0  0  0
   62.6200   32.8630   49.3420 C   0  0  0  0  0  0  0  0  0  0  0  0
   65.4092   32.7232   51.1984 H   0  0  0  0  0  0  0  0  0  0  0  0
   65.0687   31.4785   49.9489 H   0  0  0  0  0  0  0  0  0  0  0  0
   66.6428   32.3440   49.9489 H   0  0  0  0  0  0  0  0  0  0  0  0
   64.5354   34.1366   46.8129 H   0  0  0  0  0  0  0  0  0  0  0  0
   62.3514   34.0068   45.6273 H   0  0  0  0  0  0  0  0  0  0  0  0
   56.6275   35.1886   45.6029 H   0  0  0  0  0  0  0  0  0  0  0  0
   57.7967   35.3370   44.2473 H   0  0  0  0  0  0  0  0  0  0  0  0
   56.5851   34.0108   44.2473 H   0  0  0  0  0  0  0  0  0  0  0  0
   58.7148   28.0345   48.1804 H   0  0  0  0  0  0  0  0  0  0  0  0
   57.5335   27.3882   47.0342 H   0  0  0  0  0  0  0  0  0  0  0  0
   59.6062   25.8993   48.1837 H   0  0  0  0  0  0  0  0  0  0  0  0
   58.8185   25.4455   46.6652 H   0  0  0  0  0  0  0  0  0  0  0  0
   61.5042   26.7224   47.1335 H   0  0  0  0  0  0  0  0  0  0  0  0
   60.9857   25.7195   45.7685 H   0  0  0  0  0  0  0  0  0  0  0  0
   61.2478   28.5307   45.7284 H   0  0  0  0  0  0  0  0  0  0  0  0
   60.3199   27.6040   44.5397 H   0  0  0  0  0  0  0  0  0  0  0  0
   60.5099   32.4005   49.2031 H   0  0  0  0  0  0  0  0  0  0  0  0
   62.6945   32.5368   50.3899 H   0  0  0  0  0  0  0  0  0  0  0  0
  1  2  1  0
  2  3  1  0
  3  4  2  0
  4  5  1  0
  5  6  2  0
  6  7  1  0
  7  8  1  0
  8  9  2  0
  9 10  1  0
  9 11  1  0
 11 12  2  0
 12 13  1  0
 13 14  1  0
 13 15  2  0
 15 16  1  0
 16 17  1  0
 17 18  1  0
 18 19  1  0
 19 20  1  0
 15 21  1  0
 21 22  2  0
  6 23  1  0
 23 24  2  0
 24  3  1  0
 22  7  1  0
 22 11  1  0
 20 16  1  0
  1 25  1  0
  1 26  1  0
  1 27  1  0
  4 28  1  0
  5 29  1  0
 10 30  1  0
 10 31  1  0
 10 32  1  0
 17 33  1  0
 17 34  1  0
 18 35  1  0
 18 36  1  0
 19 37  1  0
 19 38  1  0
 20 39  1  0
 20 40  1  0
 23 41  1  0
 24 42  1  0
M  END
>  <UniqueID>  (5) 
4

>  <SMILES>  (5) 
COc1ccc(-n2nc(C)c3nc(Cl)c(N4CCCC4)nc32)cc1

>  <Energy>  (5) 
97.26559542418411

>  <Genealogy>  (5) 
COc1ccc(-n2nc(C)c3nc(Cl)c(N4CCCC4)nc32)cc1 (3D coordinates assigned)
COc1ccc(-n2nc(C)c3nc(Cl)c(N4CCCC4)nc32)cc1 (nonaromatic ring conformer: 97.26559542418411 kcal/mol)

>  <smiles>  (5) 
COc1ccc(-n2nc(C)c3nc(Cl)c(N4CCCC4)nc32)cc1

>  <score_type>  (5) 
oracle

>  <origin>  (5) 
adg

>  <m_score__min__energy>  (5) 
-7.4800000000000004

>  <m_primary>  (5) 
energy

$$$$
5:0
     RDKit          3D

 54 56  0  0  0  0  0  0  0  0999 V2000
   58.1860   32.6860   43.2220 C   0  0  0  0  0  0  0  0  0  0  0  0
   58.3240   33.1680   44.6390 C   0  0  0  0  0  0  0  0  0  0  0  0
   58.8750   34.4360   44.9000 C   0  0  0  0  0  0  0  0  0  0  0  0
   58.9980   34.8920   46.2140 C   0  0  0  0  0  0  0  0  0  0  0  0
   58.5740   34.0920   47.2750 C   0  0  0  0  0  0  0  0  0  0  0  0
   58.0200   32.8360   47.0260 C   0  0  0  0  0  0  0  0  0  0  0  0
   57.8910   32.3570   45.7090 C   0  0  0  0  0  0  0  0  0  0  0  0
   57.3320   31.0990   45.4180 O   0  0  0  0  0  0  0  0  0  0  0  0
   56.3060   30.8260   44.4620 C   0  0  0  0  0  0  0  0  0  0  0  0
   56.2570   29.3340   44.1080 C   0  0  0  0  0  0  0  0  0  0  0  0
   55.8030   28.5350   45.2390 N   0  0  0  0  0  0  0  0  0  0  0  0
   56.4190   27.3040   45.6320 C   0  0  0  0  0  0  0  0  0  0  0  0
   55.7950   26.4910   46.3670 O   0  0  0  0  0  0  0  0  0  0  0  0
   57.8240   27.0220   45.1830 C   0  0  0  0  0  0  0  0  0  0  0  0
   59.0700   27.8860   46.1420 S   0  0  0  0  0  0  0  0  0  0  0  0
   59.5730   29.0500   45.3330 O   0  0  0  0  0  0  0  0  0  0  0  0
   60.2200   26.9550   46.4070 O   0  0  0  0  0  0  0  0  0  0  0  0
   58.4420   28.4950   47.7050 C   0  0  0  0  0  0  0  0  0  0  0  0
   59.2900   29.6110   48.2420 C   0  0  0  0  0  0  0  0  0  0  0  0
   60.0810   30.3900   47.4820 N   0  0  0  0  0  0  0  0  0  0  0  0
   60.7210   31.1960   48.3570 C   0  0  0  0  0  0  0  0  0  0  0  0
   61.7490   32.2000   47.9860 C   0  0  0  0  0  0  0  0  0  0  0  0
   61.6270   32.9520   46.8010 C   0  0  0  0  0  0  0  0  0  0  0  0
   62.6390   33.8310   46.4110 C   0  0  0  0  0  0  0  0  0  0  0  0
   63.7840   33.9710   47.1950 C   0  0  0  0  0  0  0  0  0  0  0  0
   63.9110   33.2470   48.3810 C   0  0  0  0  0  0  0  0  0  0  0  0
   62.9000   32.3700   48.7850 C   0  0  0  0  0  0  0  0  0  0  0  0
   63.0660   31.6650   49.9320 F   0  0  0  0  0  0  0  0  0  0  0  0
   60.3560   30.9470   49.5990 O   0  0  0  0  0  0  0  0  0  0  0  0
   59.4720   29.9770   49.5630 C   0  0  0  0  0  0  0  0  0  0  0  0
   58.8420   29.3700   50.7730 C   0  0  0  0  0  0  0  0  0  0  0  0
   57.8832   31.6285   43.2223 H   0  0  0  0  0  0  0  0  0  0  0  0
   57.4234   33.2856   42.7034 H   0  0  0  0  0  0  0  0  0  0  0  0
   59.1503   32.7912   42.7034 H   0  0  0  0  0  0  0  0  0  0  0  0
   59.2100   35.0703   44.0661 H   0  0  0  0  0  0  0  0  0  0  0  0
   59.4300   35.8839   46.4128 H   0  0  0  0  0  0  0  0  0  0  0  0
   58.6766   34.4518   48.3094 H   0  0  0  0  0  0  0  0  0  0  0  0
   57.6807   32.2140   47.8674 H   0  0  0  0  0  0  0  0  0  0  0  0
   55.3351   31.1266   44.8826 H   0  0  0  0  0  0  0  0  0  0  0  0
   56.5254   31.3934   43.5455 H   0  0  0  0  0  0  0  0  0  0  0  0
   55.5646   29.1883   43.2657 H   0  0  0  0  0  0  0  0  0  0  0  0
   57.2725   29.0080   43.8386 H   0  0  0  0  0  0  0  0  0  0  0  0
   58.0064   25.9407   45.2692 H   0  0  0  0  0  0  0  0  0  0  0  0
   57.9096   27.3787   44.1460 H   0  0  0  0  0  0  0  0  0  0  0  0
   57.4163   28.8644   47.5584 H   0  0  0  0  0  0  0  0  0  0  0  0
   58.4609   27.6680   48.4300 H   0  0  0  0  0  0  0  0  0  0  0  0
   60.1940   30.3340   46.4470 H   0  0  0  0  0  0  0  0  0  0  0  0
   60.7268   32.8457   46.1778 H   0  0  0  0  0  0  0  0  0  0  0  0
   62.5332   34.4139   45.4842 H   0  0  0  0  0  0  0  0  0  0  0  0
   64.5873   34.6525   46.8782 H   0  0  0  0  0  0  0  0  0  0  0  0
   64.8114   33.3669   49.0014 H   0  0  0  0  0  0  0  0  0  0  0  0
   59.2925   29.8041   51.6778 H   0  0  0  0  0  0  0  0  0  0  0  0
   57.7615   29.5762   50.7663 H   0  0  0  0  0  0  0  0  0  0  0  0
   59.0078   28.2826   50.7663 H   0  0  0  0  0  0  0  0  0  0  0  0
  1  2  1  0
  2  3  2  0
  3  4  1  0
  4  5  2  0
  5  6  1  0
  6  7  2  0
  7  8  1  0
  8  9  1  0
  9 10  1  0
 10 11  1  0
 11 12  1  0
 12 13  2  0
 12 14  1  0
 14 15  1  0
 15 16  2  0
 15 17  2  0
 15 18  1  0
 18 19  1  0
 19 20  1  0
 20 21  2  0
 21 22  1  0
 22 23  2  0
 23 24  1  0
 24 25  2  0
 25 26  1  0
 26 27  2  0
 27 28  1  0
 21 29  1  0
 29 30  1  0
 30 31  1  0
  7  2  1  0
 30 19  2  0
 27 22  1  0
  1 32  1  0
  1 33  1  0
  1 34  1  0
  3 35  1  0
  4 36  1  0
  5 37  1  0
  6 38  1  0
  9 39  1  0
  9 40  1  0
 10 41  1  0
 10 42  1  0
 14 43  1  0
 14 44  1  0
 18 45  1  0
 18 46  1  0
 20 47  1  0
 23 48  1  0
 24 49  1  0
 25 50  1  0
 26 51  1  0
 31 52  1  0
 31 53  1  0
 31 54  1  0
M  CHG  2  11  -1  20   1
M  END
>  <UniqueID>  (6) 
5

>  <SMILES>  (6) 
Cc1ccccc1OCC[N-]C(=O)CS(=O)(=O)Cc1[nH+]c(-c2ccccc2F)oc1C

>  <Energy>  (6) 
70.81864688798888

>  <Genealogy>  (6) 
Cc1ccccc1OCC[N-]C(=O)CS(=O)(=O)Cc1[nH+]c(-c2ccccc2F)oc1C (protonated)
Cc1ccccc1OCC[N-]C(=O)CS(=O)(=O)Cc1[nH+]c(-c2ccccc2F)oc1C (3D coordinates assigned)
Cc1ccccc1OCC[N-]C(=O)CS(=O)(=O)Cc1[nH+]c(-c2ccccc2F)oc1C (optimized conformer: 70.81864688798888 kcal/mol)

>  <smiles>  (6) 
Cc1ccccc1OCCNC(=O)CS(=O)(=O)Cc1nc(-c2ccccc2F)oc1C

>  <score_type>  (6) 
oracle

>  <origin>  (6) 
adg

>  <m_score__min__energy>  (6) 
-9.1799999999999997

>  <m_primary>  (6) 
energy

$$$$
6:0
     RDKit          3D

 53 55  0  0  0  0  0  0  0  0999 V2000
   57.9615   34.0245   43.6730 H   0  0  0  0  0  0  0  0  0  0  0  0
   57.9970   32.9840   44.0280 C   0  0  0  0  0  0  0  0  0  0  0  0
   57.4080   31.9690   43.2720 C   0  0  0  0  0  0  0  0  0  0  0  0
   56.9085   32.2129   42.3228 H   0  0  0  0  0  0  0  0  0  0  0  0
   57.4500   30.6430   43.7160 C   0  0  0  0  0  0  0  0  0  0  0  0
   56.6720   29.4040   42.7360 Cl  0  0  0  0  0  0  0  0  0  0  0  0
   58.0870   30.3270   44.9350 C   0  0  0  0  0  0  0  0  0  0  0  0
   58.1360   28.9270   45.4120 C   0  0  0  0  0  0  0  0  0  0  0  0
   56.9430   28.2330   45.6270 C   0  0  0  0  0  0  0  0  0  0  0  0
   55.9772   28.7208   45.4290 H   0  0  0  0  0  0  0  0  0  0  0  0
   56.9810   26.9210   46.0930 C   0  0  0  0  0  0  0  0  0  0  0  0
   55.8110   26.1980   46.3410 C   0  0  0  0  0  0  0  0  0  0  0  0
   54.8290   26.6594   46.1598 H   0  0  0  0  0  0  0  0  0  0  0  0
   55.8890   24.9250   46.8060 N   0  0  0  0  0  0  0  0  0  0  0  0
   57.0930   24.3330   47.0380 C   0  0  0  0  0  0  0  0  0  0  0  0
   57.1640   23.1140   47.4800 N   0  0  0  0  0  0  0  0  0  0  0  0
   56.1790   22.0750   47.1900 C   0  0  0  0  0  0  0  0  0  0  0  0
   55.3241   22.5225   46.6619 H   0  0  0  0  0  0  0  0  0  0  0  0
   55.8435   21.6254   48.1362 H   0  0  0  0  0  0  0  0  0  0  0  0
   56.8010   20.9840   46.3120 C   0  0  0  0  0  0  0  0  0  0  0  0
   56.2179   20.0594   46.4348 H   0  0  0  0  0  0  0  0  0  0  0  0
   57.8447   20.8548   46.6346 H   0  0  0  0  0  0  0  0  0  0  0  0
   56.8210   21.3570   44.8220 C   0  0  0  0  0  0  0  0  0  0  0  0
   55.8003   21.6097   44.4989 H   0  0  0  0  0  0  0  0  0  0  0  0
   57.2010   20.4998   44.2469 H   0  0  0  0  0  0  0  0  0  0  0  0
   57.7100   22.5230   44.5870 N   0  0  0  0  0  0  0  0  0  0  0  0
   59.0830   22.1500   44.1810 C   0  0  0  0  0  0  0  0  0  0  0  0
   59.3031   22.5995   43.2015 H   0  0  0  0  0  0  0  0  0  0  0  0
   59.1460   21.0533   44.1246 H   0  0  0  0  0  0  0  0  0  0  0  0
   60.1070   22.6440   45.1980 C   0  0  0  0  0  0  0  0  0  0  0  0
   59.7304   22.4623   46.2154 H   0  0  0  0  0  0  0  0  0  0  0  0
   61.0548   22.1040   45.0560 H   0  0  0  0  0  0  0  0  0  0  0  0
   60.2743   23.7219   45.0560 H   0  0  0  0  0  0  0  0  0  0  0  0
   57.1070   23.5330   43.6860 C   0  0  0  0  0  0  0  0  0  0  0  0
   56.8624   24.4262   44.2796 H   0  0  0  0  0  0  0  0  0  0  0  0
   57.8450   23.7427   42.8978 H   0  0  0  0  0  0  0  0  0  0  0  0
   55.8280   23.0500   42.9870 C   0  0  0  0  0  0  0  0  0  0  0  0
   55.0809   22.7679   43.7435 H   0  0  0  0  0  0  0  0  0  0  0  0
   55.4261   23.8583   42.3584 H   0  0  0  0  0  0  0  0  0  0  0  0
   56.0607   22.1778   42.3584 H   0  0  0  0  0  0  0  0  0  0  0  0
   58.2390   25.0210   46.8000 N   0  0  0  0  0  0  0  0  0  0  0  0
   58.2220   26.3000   46.3290 C   0  0  0  0  0  0  0  0  0  0  0  0
   59.3950   26.9770   46.0880 N   0  0  0  0  0  0  0  0  0  0  0  0
   60.6860   26.3220   46.3610 C   0  0  0  0  0  0  0  0  0  0  0  0
   60.8359   26.2459   47.4481 H   0  0  0  0  0  0  0  0  0  0  0  0
   60.6867   25.3145   45.9194 H   0  0  0  0  0  0  0  0  0  0  0  0
   61.4994   26.9164   45.9194 H   0  0  0  0  0  0  0  0  0  0  0  0
   59.3630   28.2850   45.6630 C   0  0  0  0  0  0  0  0  0  0  0  0
   60.4380   28.9270   45.4970 O   0  0  0  0  0  0  0  0  0  0  0  0
   58.6810   31.3590   45.6920 C   0  0  0  0  0  0  0  0  0  0  0  0
   59.5180   31.0260   47.2050 Cl  0  0  0  0  0  0  0  0  0  0  0  0
   58.6310   32.6800   45.2340 C   0  0  0  0  0  0  0  0  0  0  0  0
   59.0934   33.4829   45.8270 H   0  0  0  0  0  0  0  0  0  0  0  0
  1  2  1  0
  2  3  2  0
  3  4  1  0
  3  5  1  0
  5  6  1  0
  5  7  2  0
  7  8  1  0
  8  9  2  0
  9 10  1  0
  9 11  1  0
 11 12  2  0
 12 13  1  0
 12 14  1  0
 14 15  1  0
 15 16  2  0
 16 17  1  0
 17 18  1  0
 17 19  1  0
 17 20  1  0
 20 21  1  0
 20 22  1  0
 20 23  1  0
 23 24  1  0
 23 25  1  0
 23 26  1  0
 26 27  1  0
 27 28  1  0
 27 29  1  0
 27 30  1  0
 30 31  1  0
 30 32  1  0
 30 33  1  0
 26 34  1  0
 34 35  1  0
 34 36  1  0
 34 37  1  0
 37 38  1  0
 37 39  1  0
 37 40  1  0
 15 41  1  0
 41 42  2  0
 42 43  1  0
 43 44  1  0
 44 45  1  0
 44 46  1  0
 44 47  1  0
 43 48  1  0
 48 49  2  0
  7 50  1  0
 50 51  1  0
 50 52  2  0
 52 53  1  0
 52  2  1  0
 48  8  1  0
 42 11  1  0
M  CHG  1  14  -1
M  END
>  <UniqueID>  (7) 
6

>  <SMILES>  (7) 
CCN(CC)CCC/N=c1/nc2c(c[n-]1)cc(-c1c(Cl)cccc1Cl)c(=O)n2C

>  <Energy>  (7) 
68.64545383755527

>  <Genealogy>  (7) 
CCN(CC)CCCN=c1nc2c(c[n-]1)cc(-c1c(Cl)cccc1Cl)c(=O)n2C (protonated)
CCN(CC)CCC/N=c1/nc2c(c[n-]1)cc(-c1c(Cl)cccc1Cl)c(=O)n2C (cis-trans isomerization)
CCN(CC)CCC/N=c1/nc2c(c[n-]1)cc(-c1c(Cl)cccc1Cl)c(=O)n2C (3D coordinates assigned)
CCN(CC)CCC/N=c1/nc2c(c[n-]1)cc(-c1c(Cl)cccc1Cl)c(=O)n2C (optimized conformer: 68.64545383755527 kcal/mol)

>  <smiles>  (7) 
CCN(CC)CCCN=c1nc2c(c[nH]1)cc(-c1c(Cl)cccc1Cl)c(=O)n2C

>  <score_type>  (7) 
oracle

>  <origin>  (7) 
adg

>  <m_score__min__energy>  (7) 
-9.25

>  <m_primary>  (7) 
energy

$$$$
7:0
     RDKit          3D

 36 38  0  0  0  0  0  0  0  0999 V2000
   62.6240   33.3550   51.0750 O   0  0  0  0  0  0  0  0  0  0  0  0
   62.6860   33.1330   49.8340 C   0  0  0  0  0  0  0  0  0  0  0  0
   61.5540   33.3420   49.0380 C   0  0  0  0  0  0  0  0  0  0  0  0
   60.0350   33.8420   49.7810 Cl  0  0  0  0  0  0  0  0  0  0  0  0
   61.6400   33.1200   47.6590 C   0  0  0  0  0  0  0  0  0  0  0  0
   60.5150   33.3300   46.7930 N   0  0  0  0  0  0  0  0  0  0  0  0
   59.6620   32.2060   46.3970 C   0  0  0  0  0  0  0  0  0  0  0  0
   58.1690   32.5890   46.4750 C   0  0  0  0  0  0  0  0  0  0  0  0
   57.8970   34.0270   46.2630 N   0  0  0  0  0  0  0  0  0  0  0  0
   58.9420   34.7000   45.4820 C   0  0  0  0  0  0  0  0  0  0  0  0
   60.2740   34.6650   46.2390 C   0  0  0  0  0  0  0  0  0  0  0  0
   62.8530   32.6900   47.1230 C   0  0  0  0  0  0  0  0  0  0  0  0
   63.9240   32.4990   47.9350 N   0  0  0  0  0  0  0  0  0  0  0  0
   63.8560   32.7040   49.2590 N   0  0  0  0  0  0  0  0  0  0  0  0
   65.0330   32.4780   50.0590 C   0  0  0  0  0  0  0  0  0  0  0  0
   65.2040   31.2680   50.7550 C   0  0  0  0  0  0  0  0  0  0  0  0
   66.3570   31.0500   51.5170 C   0  0  0  0  0  0  0  0  0  0  0  0
   67.3480   32.0330   51.5840 C   0  0  0  0  0  0  0  0  0  0  0  0
   67.1900   33.2340   50.8870 C   0  0  0  0  0  0  0  0  0  0  0  0
   66.0390   33.4550   50.1240 C   0  0  0  0  0  0  0  0  0  0  0  0
   59.9054   31.9164   45.3641 H   0  0  0  0  0  0  0  0  0  0  0  0
   59.8448   31.3682   47.0859 H   0  0  0  0  0  0  0  0  0  0  0  0
   57.6267   32.0190   45.7063 H   0  0  0  0  0  0  0  0  0  0  0  0
   57.8366   32.3532   47.4967 H   0  0  0  0  0  0  0  0  0  0  0  0
   57.8260   34.4990   47.1960 H   0  0  0  0  0  0  0  0  0  0  0  0
   59.0598   34.1880   44.5156 H   0  0  0  0  0  0  0  0  0  0  0  0
   58.6494   35.7477   45.3189 H   0  0  0  0  0  0  0  0  0  0  0  0
   61.0900   34.9227   45.5478 H   0  0  0  0  0  0  0  0  0  0  0  0
   60.2328   35.3905   47.0648 H   0  0  0  0  0  0  0  0  0  0  0  0
   62.9423   32.5055   46.0423 H   0  0  0  0  0  0  0  0  0  0  0  0
   64.8150   32.1670   47.5000 H   0  0  0  0  0  0  0  0  0  0  0  0
   64.4283   30.4900   50.7001 H   0  0  0  0  0  0  0  0  0  0  0  0
   66.4835   30.1040   52.0638 H   0  0  0  0  0  0  0  0  0  0  0  0
   68.2528   31.8614   52.1856 H   0  0  0  0  0  0  0  0  0  0  0  0
   67.9717   34.0062   50.9386 H   0  0  0  0  0  0  0  0  0  0  0  0
   65.9213   34.3992   49.5720 H   0  0  0  0  0  0  0  0  0  0  0  0
  1  2  2  0
  2  3  1  0
  3  4  1  0
  3  5  2  0
  5  6  1  0
  6  7  1  0
  7  8  1  0
  8  9  1  0
  9 10  1  0
 10 11  1  0
  5 12  1  0
 12 13  2  0
 13 14  1  0
 14 15  1  0
 15 16  2  0
 16 17  1  0
 17 18  2  0
 18 19  1  0
 19 20  2  0
 14  2  1  0
 20 15  1  0
 11  6  1  0
  7 21  1  0
  7 22  1  0
  8 23  1  0
  8 24  1  0
  9 25  1  0
 10 26  1  0
 10 27  1  0
 11 28  1  0
 11 29  1  0
 12 30  1  0
 13 31  1  0
 16 32  1  0
 17 33  1  0
 18 34  1  0
 19 35  1  0
 20 36  1  0
M  CHG  1  13   1
M  END
>  <UniqueID>  (8) 
7

>  <SMILES>  (8) 
O=c1c(Cl)c(N2CCNCC2)c[nH+]n1-c1ccccc1

>  <Energy>  (8) 
56.27373819356779

>  <Genealogy>  (8) 
O=c1c(Cl)c(N2CCNCC2)c[nH+]n1-c1ccccc1 (protonated)
O=c1c(Cl)c(N2CCNCC2)c[nH+]n1-c1ccccc1 (3D coordinates assigned)
O=c1c(Cl)c(N2CCNCC2)c[nH+]n1-c1ccccc1 (nonaromatic ring conformer: 56.27373819356779 kcal/mol)

>  <smiles>  (8) 
O=c1c(Cl)c(N2CCNCC2)cnn1-c1ccccc1

>  <score_type>  (8) 
oracle

>  <origin>  (8) 
adg

>  <m_score__min__energy>  (8) 
-5.54

>  <m_primary>  (8) 
energy

$$$$
8:0
     RDKit          3D

 41 42  0  0  0  0  0  0  0  0999 V2000
   57.0160   24.1150   43.4310 C   0  0  0  0  0  0  0  0  0  0  0  0
   55.7860   23.4760   44.0760 C   0  0  0  0  0  0  0  0  0  0  0  0
   54.9850   24.4730   44.9230 C   0  0  0  0  0  0  0  0  0  0  0  0
   55.8500   25.1470   45.9490 C   0  0  0  0  0  0  0  0  0  0  0  0
   55.8740   24.6940   47.1250 O   0  0  0  0  0  0  0  0  0  0  0  0
   56.6380   26.2920   45.5840 N   0  0  0  0  0  0  0  0  0  0  0  0
   57.6940   26.8600   46.3820 C   0  0  0  0  0  0  0  0  0  0  0  0
   58.5000   25.9520   47.4930 S   0  0  0  0  0  0  0  0  0  0  0  0
   58.0770   28.2790   46.1640 C   0  0  0  0  0  0  0  0  0  0  0  0
   59.2660   28.7510   46.7380 C   0  0  0  0  0  0  0  0  0  0  0  0
   59.6770   30.0440   46.5650 N   0  0  0  0  0  0  0  0  0  0  0  0
   60.9290   30.4770   47.2090 C   0  0  0  0  0  0  0  0  0  0  0  0
   60.6280   31.2530   48.4880 C   0  0  0  0  0  0  0  0  0  0  0  0
   58.9110   30.9270   45.8460 C   0  0  0  0  0  0  0  0  0  0  0  0
   59.3070   32.2230   45.6950 N   0  0  0  0  0  0  0  0  0  0  0  0
   58.5810   33.1350   44.9950 C   0  0  0  0  0  0  0  0  0  0  0  0
   59.0710   34.5410   44.8700 C   0  0  0  0  0  0  0  0  0  0  0  0
   57.3750   32.7500   44.4000 C   0  0  0  0  0  0  0  0  0  0  0  0
   56.9340   31.4350   44.5320 C   0  0  0  0  0  0  0  0  0  0  0  0
   57.6970   30.5030   45.2590 C   0  0  0  0  0  0  0  0  0  0  0  0
   57.2780   29.1720   45.4260 C   0  0  0  0  0  0  0  0  0  0  0  0
   56.1800   28.7890   44.9360 O   0  0  0  0  0  0  0  0  0  0  0  0
   57.6993   24.4700   44.2166 H   0  0  0  0  0  0  0  0  0  0  0  0
   57.5309   23.3704   42.8062 H   0  0  0  0  0  0  0  0  0  0  0  0
   56.7028   24.9644   42.8062 H   0  0  0  0  0  0  0  0  0  0  0  0
   55.1341   23.0838   43.2815 H   0  0  0  0  0  0  0  0  0  0  0  0
   56.1356   22.6743   44.7431 H   0  0  0  0  0  0  0  0  0  0  0  0
   54.5541   25.2385   44.2609 H   0  0  0  0  0  0  0  0  0  0  0  0
   54.1942   23.9191   45.4501 H   0  0  0  0  0  0  0  0  0  0  0  0
   56.4190   26.7600   44.6760 H   0  0  0  0  0  0  0  0  0  0  0  0
   59.8815   28.0667   47.3404 H   0  0  0  0  0  0  0  0  0  0  0  0
   61.5346   29.5924   47.4557 H   0  0  0  0  0  0  0  0  0  0  0  0
   61.4795   31.1304   46.5161 H   0  0  0  0  0  0  0  0  0  0  0  0
   60.8700   30.6291   49.3610 H   0  0  0  0  0  0  0  0  0  0  0  0
   61.2359   32.1695   48.5125 H   0  0  0  0  0  0  0  0  0  0  0  0
   59.5611   31.5199   48.5125 H   0  0  0  0  0  0  0  0  0  0  0  0
   59.2198   34.9680   45.8728 H   0  0  0  0  0  0  0  0  0  0  0  0
   60.0251   34.5495   44.3226 H   0  0  0  0  0  0  0  0  0  0  0  0
   58.3289   35.1406   44.3226 H   0  0  0  0  0  0  0  0  0  0  0  0
   56.7793   33.4799   43.8322 H   0  0  0  0  0  0  0  0  0  0  0  0
   55.9868   31.1247   44.0666 H   0  0  0  0  0  0  0  0  0  0  0  0
  1  2  1  0
  2  3  1  0
  3  4  1  0
  4  5  2  0
  4  6  1  0
  6  7  1  0
  7  8  2  0
  7  9  1  0
  9 10  2  0
 10 11  1  0
 11 12  1  0
 12 13  1  0
 11 14  1  0
 14 15  2  0
 15 16  1  0
 16 17  1  0
 16 18  2  0
 18 19  1  0
 19 20  2  0
 20 21  1  0
 21 22  2  0
 21  9  1  0
 20 14  1  0
  1 23  1  0
  1 24  1  0
  1 25  1  0
  2 26  1  0
  2 27  1  0
  3 28  1  0
  3 29  1  0
  6 30  1  0
 10 31  1  0
 12 32  1  0
 12 33  1  0
 13 34  1  0
 13 35  1  0
 13 36  1  0
 17 37  1  0
 17 38  1  0
 17 39  1  0
 18 40  1  0
 19 41  1  0
M  END
>  <UniqueID>  (9) 
8

>  <SMILES>  (9) 
CCCC(=O)NC(=S)c1cn(CC)c2nc(C)ccc2c1=O

>  <Energy>  (9) 
45.92570762093507

>  <Genealogy>  (9) 
CCCC(=O)NC(=S)c1cn(CC)c2nc(C)ccc2c1=O (3D coordinates assigned)
CCCC(=O)NC(=S)c1cn(CC)c2nc(C)ccc2c1=O (optimized conformer: 45.92570762093507 kcal/mol)

>  <smiles>  (9) 
CCCC(=O)NC(=S)c1cn(CC)c2nc(C)ccc2c1=O

>  <score_type>  (9) 
oracle

>  <origin>  (9) 
adg

>  <m_score__min__energy>  (9) 
-7.1299999999999999

>  <m_primary>  (9) 
energy

$$$$
9:0
     RDKit          3D

 34 36  0  0  1  0  0  0  0  0999 V2000
   58.0060   25.9450   45.9900 C   0  0  0  0  0  0  0  0  0  0  0  0
   58.6440   26.5470   47.0690 O   0  0  0  0  0  0  0  0  0  0  0  0
   59.3390   27.7490   47.0490 C   0  0  0  0  0  0  0  0  0  0  0  0
   59.3560   28.5220   48.2170 C   0  0  0  0  0  0  0  0  0  0  0  0
   60.0390   29.7250   48.2350 C   0  0  0  0  0  0  0  0  0  0  0  0
   60.7090   30.1860   47.1160 C   0  0  0  0  0  0  0  0  0  0  0  0
   61.4320   31.4630   47.1390 C   0  0  0  0  0  0  0  0  0  0  0  0
   62.7920   31.4060   47.1270 N   0  0  0  0  0  0  0  0  0  0  0  0
   63.5460   32.5060   47.1470 C   0  0  0  0  0  0  0  0  0  0  0  0
   62.9590   33.7230   47.1780 N   0  0  0  0  0  0  0  0  0  0  0  0
   61.6030   33.8240   47.1900 C   0  0  0  0  0  0  0  0  0  0  0  0
   60.8230   32.6770   47.1710 C   0  0  0  0  0  0  0  0  0  0  0  0
   59.4020   32.7150   47.1820 N   0  0  0  0  0  0  0  0  0  0  0  0
   58.7290   32.4510   46.1100 C   0  0  0  0  0  0  0  0  0  0  0  0
   58.1570   31.2330   45.9480 N   0  0  0  0  0  0  0  0  0  0  0  0
   57.4500   30.9370   44.8350 C   0  0  0  0  0  0  0  0  0  0  0  0
   56.6990   29.3670   44.5980 Cl  0  0  0  0  0  0  0  0  0  0  0  0
   57.2910   31.8560   43.8430 N   0  0  0  0  0  0  0  0  0  0  0  0
   57.8340   33.0850   43.9440 C   0  0  0  0  0  0  0  0  0  0  0  0
   58.5590   33.3640   45.1010 C   0  0  0  0  0  0  0  0  0  0  0  0
   59.2690   34.9440   45.2520 Cl  0  0  0  0  0  0  0  0  0  0  0  0
   60.6990   29.4240   45.9460 C   0  0  0  0  0  0  0  0  0  0  0  0
   60.0100   28.2150   45.9360 C   0  0  0  0  0  0  0  0  0  0  0  0
   57.2525   25.2340   46.3597 H   0  0  0  0  0  0  0  0  0  0  0  0
   57.5140   26.7156   45.3784 H   0  0  0  0  0  0  0  0  0  0  0  0
   58.7468   25.4092   45.3784 H   0  0  0  0  0  0  0  0  0  0  0  0
   58.8280   28.1737   49.1170 H   0  0  0  0  0  0  0  0  0  0  0  0
   60.0495   30.3261   49.1562 H   0  0  0  0  0  0  0  0  0  0  0  0
   64.6428   32.4229   47.1383 H   0  0  0  0  0  0  0  0  0  0  0  0
   61.1250   34.8144   47.2147 H   0  0  0  0  0  0  0  0  0  0  0  0
   58.2330   30.4780   46.6590 H   0  0  0  0  0  0  0  0  0  0  0  0
   57.7105   33.8347   43.1486 H   0  0  0  0  0  0  0  0  0  0  0  0
   61.2272   29.7737   45.0467 H   0  0  0  0  0  0  0  0  0  0  0  0
   59.9997   27.6135   45.0151 H   0  0  0  0  0  0  0  0  0  0  0  0
  1  2  1  0
  2  3  1  0
  3  4  2  0
  4  5  1  0
  5  6  2  0
  6  7  1  0
  7  8  2  0
  8  9  1  0
  9 10  2  0
 10 11  1  0
 11 12  2  0
 12 13  1  0
 13 14  2  0
 14 15  1  0
 15 16  1  0
 16 17  1  0
 16 18  2  0
 18 19  1  0
 19 20  2  0
 20 21  1  0
  6 22  1  0
 22 23  2  0
 23  3  1  0
 12  7  1  0
 20 14  1  0
  1 24  1  0
  1 25  1  0
  1 26  1  0
  4 27  1  0
  5 28  1  0
  9 29  1  0
 11 30  1  0
 15 31  1  0
 19 32  1  0
 22 33  1  0
 23 34  1  0
M  END
>  <smiles>  (10) 
COc1ccc(-c2ncncc2N=c2[nH]c(Cl)ncc2Cl)cc1

>  <score_type>  (10) 
oracle

>  <origin>  (10) 
adg

>  <m_score__min__energy>  (10) 
-7.0599999999999996

>  <m_primary>  (10) 
energy

$$$$
10:0
     RDKit          3D

 42 45  0  0  0  0  0  0  0  0999 V2000
   57.4780   33.0200   44.0570 C   0  0  0  0  0  0  0  0  0  0  0  0
   57.5980   31.5630   44.3910 C   0  0  0  0  0  0  0  0  0  0  0  0
   56.5190   30.6950   44.1670 C   0  0  0  0  0  0  0  0  0  0  0  0
   56.6420   29.3300   44.4440 C   0  0  0  0  0  0  0  0  0  0  0  0
   57.8460   28.8130   44.9480 C   0  0  0  0  0  0  0  0  0  0  0  0
   57.9710   27.3670   45.2260 C   0  0  0  0  0  0  0  0  0  0  0  0
   57.5220   26.4080   44.3920 N   0  0  0  0  0  0  0  0  0  0  0  0
   57.8540   25.2220   44.8800 N   0  0  0  0  0  0  0  0  0  0  0  0
   57.5450   23.9600   44.2550 C   0  0  0  0  0  0  0  0  0  0  0  0
   56.4540   23.8450   43.3720 C   0  0  0  0  0  0  0  0  0  0  0  0
   56.1590   22.6200   42.7660 C   0  0  0  0  0  0  0  0  0  0  0  0
   56.9460   21.4980   43.0350 C   0  0  0  0  0  0  0  0  0  0  0  0
   58.0280   21.5990   43.9100 C   0  0  0  0  0  0  0  0  0  0  0  0
   58.3290   22.8220   44.5180 C   0  0  0  0  0  0  0  0  0  0  0  0
   58.5210   25.3960   46.0400 C   0  0  0  0  0  0  0  0  0  0  0  0
   58.6120   26.7520   46.3000 C   0  0  0  0  0  0  0  0  0  0  0  0
   59.1920   27.3640   47.5160 C   0  0  0  0  0  0  0  0  0  0  0  0
   60.2460   26.7300   48.1890 C   0  0  0  0  0  0  0  0  0  0  0  0
   60.7790   27.3110   49.3430 C   0  0  0  0  0  0  0  0  0  0  0  0
   60.2680   28.4790   49.8160 N   0  0  0  0  0  0  0  0  0  0  0  0
   59.2370   29.1090   49.1930 C   0  0  0  0  0  0  0  0  0  0  0  0
   58.6760   28.5610   48.0380 C   0  0  0  0  0  0  0  0  0  0  0  0
   58.9360   29.6790   45.1370 C   0  0  0  0  0  0  0  0  0  0  0  0
   58.8130   31.0430   44.8610 C   0  0  0  0  0  0  0  0  0  0  0  0
   57.4297   33.6065   44.9864 H   0  0  0  0  0  0  0  0  0  0  0  0
   58.3533   33.3349   43.4698 H   0  0  0  0  0  0  0  0  0  0  0  0
   56.5630   33.1874   43.4698 H   0  0  0  0  0  0  0  0  0  0  0  0
   55.5716   31.0901   43.7715 H   0  0  0  0  0  0  0  0  0  0  0  0
   55.7902   28.6571   44.2659 H   0  0  0  0  0  0  0  0  0  0  0  0
   57.0000   26.5670   43.5020 H   0  0  0  0  0  0  0  0  0  0  0  0
   55.8297   24.7249   43.1576 H   0  0  0  0  0  0  0  0  0  0  0  0
   55.3058   22.5398   42.0763 H   0  0  0  0  0  0  0  0  0  0  0  0
   56.7129   20.5350   42.5572 H   0  0  0  0  0  0  0  0  0  0  0  0
   58.6461   20.7142   44.1223 H   0  0  0  0  0  0  0  0  0  0  0  0
   59.1841   22.8945   45.2061 H   0  0  0  0  0  0  0  0  0  0  0  0
   58.9253   24.5930   46.6738 H   0  0  0  0  0  0  0  0  0  0  0  0
   60.6514   25.7800   47.8106 H   0  0  0  0  0  0  0  0  0  0  0  0
   61.6127   26.8230   49.8691 H   0  0  0  0  0  0  0  0  0  0  0  0
   58.8440   30.0524   49.5997 H   0  0  0  0  0  0  0  0  0  0  0  0
   57.8343   29.0642   47.5396 H   0  0  0  0  0  0  0  0  0  0  0  0
   59.8929   29.2803   45.5049 H   0  0  0  0  0  0  0  0  0  0  0  0
   59.6728   31.7121   45.0129 H   0  0  0  0  0  0  0  0  0  0  0  0
  1  2  1  0
  2  3  2  0
  3  4  1  0
  4  5  2  0
  5  6  1  0
  6  7  2  0
  7  8  1  0
  8  9  1  0
  9 10  2  0
 10 11  1  0
 11 12  2  0
 12 13  1  0
 13 14  2  0
  8 15  1  0
 15 16  2  0
 16 17  1  0
 17 18  2  0
 18 19  1  0
 19 20  2  0
 20 21  1  0
 21 22  2  0
  5 23  1  0
 23 24  2  0
 24  2  1  0
 16  6  1  0
 22 17  1  0
 14  9  1  0
  1 25  1  0
  1 26  1  0
  1 27  1  0
  3 28  1  0
  4 29  1  0
  7 30  1  0
 10 31  1  0
 11 32  1  0
 12 33  1  0
 13 34  1  0
 14 35  1  0
 15 36  1  0
 18 37  1  0
 19 38  1  0
 21 39  1  0
 22 40  1  0
 23 41  1  0
 24 42  1  0
M  CHG  1   7   1
M  END
>  <UniqueID>  (11) 
9

>  <SMILES>  (11) 
Cc1ccc(-c2[nH+]n(-c3ccccc3)cc2-c2ccncc2)cc1

>  <Energy>  (11) 
88.8781189073919

>  <Genealogy>  (11) 
Cc1ccc(-c2[nH+]n(-c3ccccc3)cc2-c2ccncc2)cc1 (protonated)
Cc1ccc(-c2[nH+]n(-c3ccccc3)cc2-c2ccncc2)cc1 (3D coordinates assigned)
Cc1ccc(-c2[nH+]n(-c3ccccc3)cc2-c2ccncc2)cc1 (optimized conformer: 88.8781189073919 kcal/mol)

>  <smiles>  (11) 
Cc1ccc(-c2nn(-c3ccccc3)cc2-c2ccncc2)cc1

>  <score_type>  (11) 
oracle

>  <origin>  (11) 
adg

>  <m_score__min__energy>  (11) 
-6.4299999999999997

>  <m_primary>  (11) 
energy

$$$$
11:0
     RDKit          3D

 41 42  0  0  0  0  0  0  0  0999 V2000
   61.2030   30.0150   49.1850 C   0  0  0  0  0  0  0  0  0  0  0  0
   60.2310   29.1290   48.4630 C   0  0  0  0  0  0  0  0  0  0  0  0
   59.1900   29.7010   47.7160 C   0  0  0  0  0  0  0  0  0  0  0  0
   58.2720   28.8870   47.0480 C   0  0  0  0  0  0  0  0  0  0  0  0
   58.3940   27.4940   47.1080 C   0  0  0  0  0  0  0  0  0  0  0  0
   57.2210   26.4440   46.2400 S   0  0  0  0  0  0  0  0  0  0  0  0
   58.3330   26.0620   44.8400 C   0  0  0  0  0  0  0  0  0  0  0  0
   58.6580   27.3180   44.0260 C   0  0  0  0  0  0  0  0  0  0  0  0
   57.4230   28.0290   43.6510 N   0  0  0  0  0  0  0  0  0  0  0  0
   57.5500   29.4870   43.8230 C   0  0  0  0  0  0  0  0  0  0  0  0
   56.3480   30.0970   44.4930 C   0  0  0  0  0  0  0  0  0  0  0  0
   55.4320   29.3420   44.9210 O   0  0  0  0  0  0  0  0  0  0  0  0
   56.2930   31.5110   44.7230 N   0  0  0  0  0  0  0  0  0  0  0  0
   57.3710   32.3490   45.1650 C   0  0  0  0  0  0  0  0  0  0  0  0
   57.9510   33.2340   44.2460 C   0  0  0  0  0  0  0  0  0  0  0  0
   58.9910   34.0800   44.6400 C   0  0  0  0  0  0  0  0  0  0  0  0
   59.4530   34.0560   45.9580 C   0  0  0  0  0  0  0  0  0  0  0  0
   58.8630   33.1970   46.8890 C   0  0  0  0  0  0  0  0  0  0  0  0
   59.4740   33.1910   48.6990 Br  0  0  0  0  0  0  0  0  0  0  0  0
   57.8190   32.3510   46.4990 C   0  0  0  0  0  0  0  0  0  0  0  0
   59.4240   26.9180   47.8630 C   0  0  0  0  0  0  0  0  0  0  0  0
   60.3370   27.7310   48.5390 C   0  0  0  0  0  0  0  0  0  0  0  0
   61.0717   29.8953   50.2706 H   0  0  0  0  0  0  0  0  0  0  0  0
   62.2300   29.7359   48.9069 H   0  0  0  0  0  0  0  0  0  0  0  0
   61.0199   31.0634   48.9069 H   0  0  0  0  0  0  0  0  0  0  0  0
   59.0963   30.7954   47.6561 H   0  0  0  0  0  0  0  0  0  0  0  0
   57.4515   29.3418   46.4736 H   0  0  0  0  0  0  0  0  0  0  0  0
   59.2690   25.6373   45.2319 H   0  0  0  0  0  0  0  0  0  0  0  0
   57.8247   25.3436   44.1801 H   0  0  0  0  0  0  0  0  0  0  0  0
   59.2903   27.9859   44.6294 H   0  0  0  0  0  0  0  0  0  0  0  0
   59.1863   27.0184   43.1088 H   0  0  0  0  0  0  0  0  0  0  0  0
   56.6140   27.6770   44.2150 H   0  0  0  0  0  0  0  0  0  0  0  0
   57.2210   27.8370   42.6420 H   0  0  0  0  0  0  0  0  0  0  0  0
   58.4386   29.6933   44.4376 H   0  0  0  0  0  0  0  0  0  0  0  0
   57.6367   29.9346   42.8219 H   0  0  0  0  0  0  0  0  0  0  0  0
   57.5855   33.2628   43.2089 H   0  0  0  0  0  0  0  0  0  0  0  0
   59.4467   34.7661   43.9109 H   0  0  0  0  0  0  0  0  0  0  0  0
   60.2809   34.7130   46.2629 H   0  0  0  0  0  0  0  0  0  0  0  0
   57.3472   31.6857   47.2371 H   0  0  0  0  0  0  0  0  0  0  0  0
   59.5140   25.8234   47.9236 H   0  0  0  0  0  0  0  0  0  0  0  0
   61.1421   27.2741   49.1332 H   0  0  0  0  0  0  0  0  0  0  0  0
  1  2  1  0
  2  3  2  0
  3  4  1  0
  4  5  2  0
  5  6  1  0
  6  7  1  0
  7  8  1  0
  8  9  1  0
  9 10  1  0
 10 11  1  0
 11 12  2  0
 11 13  1  0
 13 14  1  0
 14 15  2  0
 15 16  1  0
 16 17  2  0
 17 18  1  0
 18 19  1  0
 18 20  2  0
  5 21  1  0
 21 22  2  0
 22  2  1  0
 20 14  1  0
  1 23  1  0
  1 24  1  0
  1 25  1  0
  3 26  1  0
  4 27  1  0
  7 28  1  0
  7 29  1  0
  8 30  1  0
  8 31  1  0
  9 32  1  0
  9 33  1  0
 10 34  1  0
 10 35  1  0
 15 36  1  0
 16 37  1  0
 17 38  1  0
 20 39  1  0
 21 40  1  0
 22 41  1  0
M  CHG  2   9   1  13  -1
M  END
>  <UniqueID>  (12) 
10

>  <SMILES>  (12) 
Cc1ccc(SCC[NH2+]CC(=O)[N-]c2cccc(Br)c2)cc1

>  <Energy>  (12) 
32.83529859161597

>  <Genealogy>  (12) 
Cc1ccc(SCC[NH2+]CC(=O)[N-]c2cccc(Br)c2)cc1 (protonated)
Cc1ccc(SCC[NH2+]CC(=O)[N-]c2cccc(Br)c2)cc1 (3D coordinates assigned)
Cc1ccc(SCC[NH2+]CC(=O)[N-]c2cccc(Br)c2)cc1 (optimized conformer: 32.83529859161597 kcal/mol)

>  <smiles>  (12) 
Cc1ccc(SCCNCC(=O)Nc2cccc(Br)c2)cc1

>  <score_type>  (12) 
oracle

>  <origin>  (12) 
adg

>  <m_score__min__energy>  (12) 
-8.0199999999999996

>  <m_primary>  (12) 
energy

$$$$
12:0
     RDKit          3D

 39 41  0  0  0  0  0  0  0  0999 V2000
   57.1900   23.4020   46.1790 C   0  0  0  0  0  0  0  0  0  0  0  0
   57.1030   24.6790   47.0050 C   0  0  0  0  0  0  0  0  0  0  0  0
   57.3980   25.8440   46.1700 N   0  0  0  0  0  0  0  0  0  0  0  0
   56.5030   26.7470   45.6980 C   0  0  0  0  0  0  0  0  0  0  0  0
   55.1450   26.7400   45.9900 O   0  0  0  0  0  0  0  0  0  0  0  0
   57.1610   27.7080   44.9630 C   0  0  0  0  0  0  0  0  0  0  0  0
   58.4630   27.4370   45.0210 C   0  0  0  0  0  0  0  0  0  0  0  0
   58.6190   26.2970   45.7840 C   0  0  0  0  0  0  0  0  0  0  0  0
   59.8390   25.7420   46.1640 O   0  0  0  0  0  0  0  0  0  0  0  0
   59.2710   28.6440   44.7430 C   0  0  2  0  0  0  0  0  0  0  0  0
   60.0910   29.0360   45.9470 C   0  0  0  0  0  0  0  0  0  0  0  0
   60.3310   28.1780   46.8380 O   0  0  0  0  0  0  0  0  0  0  0  0
   60.6660   30.3410   46.0810 N   0  0  0  0  0  0  0  0  0  0  0  0
   60.2630   31.3300   47.0730 C   0  0  0  0  0  0  0  0  0  0  0  0
   59.3460   32.3330   46.4320 C   0  0  0  0  0  0  0  0  0  0  0  0
   57.9930   32.0140   46.2280 C   0  0  0  0  0  0  0  0  0  0  0  0
   57.1400   32.9270   45.6010 C   0  0  0  0  0  0  0  0  0  0  0  0
   57.6340   34.1600   45.1630 C   0  0  0  0  0  0  0  0  0  0  0  0
   56.8050   35.0440   44.5540 F   0  0  0  0  0  0  0  0  0  0  0  0
   58.9820   34.4780   45.3470 C   0  0  0  0  0  0  0  0  0  0  0  0
   59.8400   33.5680   45.9730 C   0  0  0  0  0  0  0  0  0  0  0  0
   61.1490   33.8890   46.1280 F   0  0  0  0  0  0  0  0  0  0  0  0
   58.2720   29.7030   44.4420 N   0  0  0  0  0  0  0  0  0  0  0  0
   56.9210   29.1290   44.6660 C   0  0  0  0  0  0  0  0  0  0  0  0
   57.2492   22.5336   46.8516 H   0  0  0  0  0  0  0  0  0  0  0  0
   56.2958   23.3141   45.5445 H   0  0  0  0  0  0  0  0  0  0  0  0
   58.0879   23.4362   45.5445 H   0  0  0  0  0  0  0  0  0  0  0  0
   56.0880   24.7759   47.4178 H   0  0  0  0  0  0  0  0  0  0  0  0
   57.8382   24.6282   47.8216 H   0  0  0  0  0  0  0  0  0  0  0  0
   60.5860   26.3080   46.5430 H   0  0  0  0  0  0  0  0  0  0  0  0
   59.9807   28.4799   43.9188 H   0  0  0  0  0  0  0  0  0  0  0  0
   59.7383   30.8284   47.8995 H   0  0  0  0  0  0  0  0  0  0  0  0
   61.1539   31.8432   47.4640 H   0  0  0  0  0  0  0  0  0  0  0  0
   57.6032   31.0415   46.5631 H   0  0  0  0  0  0  0  0  0  0  0  0
   56.0796   32.6755   45.4520 H   0  0  0  0  0  0  0  0  0  0  0  0
   59.3695   35.4467   44.9986 H   0  0  0  0  0  0  0  0  0  0  0  0
   58.3540   29.9610   43.4300 H   0  0  0  0  0  0  0  0  0  0  0  0
   56.4255   29.6239   45.5143 H   0  0  0  0  0  0  0  0  0  0  0  0
   56.2622   29.2658   43.7958 H   0  0  0  0  0  0  0  0  0  0  0  0
  1  2  1  0
  2  3  1  0
  3  4  1  0
  4  5  1  0
  4  6  2  0
  6  7  1  0
  7  8  2  0
  8  9  1  0
  7 10  1  0
 10 11  1  0
 11 12  2  0
 11 13  1  0
 13 14  1  0
 14 15  1  0
 15 16  2  0
 16 17  1  0
 17 18  2  0
 18 19  1  0
 18 20  1  0
 20 21  2  0
 21 22  1  0
 10 23  1  0
 23 24  1  0
  8  3  1  0
 21 15  1  0
 24  6  1  0
  1 25  1  0
  1 26  1  0
  1 27  1  0
  2 28  1  0
  2 29  1  0
  9 30  1  0
 10 31  1  6
 14 32  1  0
 14 33  1  0
 16 34  1  0
 17 35  1  0
 20 36  1  0
 23 37  1  0
 24 38  1  0
 24 39  1  0
M  CHG  2   5  -1  13  -1
M  END
>  <UniqueID>  (13) 
11

>  <SMILES>  (13) 
CCn1c([O-])c2c(c1O)[C@H](C(=O)[N-]Cc1ccc(F)cc1F)NC2

>  <Energy>  (13) 
89.7693131035789

>  <Genealogy>  (13) 
CCn1c([O-])c2c(c1O)C(C(=O)[N-]Cc1ccc(F)cc1F)NC2 (protonated)
CCn1c([O-])c2c(c1O)[C@H](C(=O)[N-]Cc1ccc(F)cc1F)NC2 (chirality)
CCn1c([O-])c2c(c1O)[C@H](C(=O)[N-]Cc1ccc(F)cc1F)NC2 (3D coordinates assigned)
CCn1c([O-])c2c(c1O)[C@H](C(=O)[N-]Cc1ccc(F)cc1F)NC2 (nonaromatic ring conformer: 89.7693131035789 kcal/mol)

>  <smiles>  (13) 
CCn1c(O)c2c(c1O)C(C(=O)NCc1ccc(F)cc1F)NC2

>  <score_type>  (13) 
oracle

>  <origin>  (13) 
adg

>  <m_score__min__energy>  (13) 
-10.869999999999999

>  <m_primary>  (13) 
energy

$$$$
13:0
     RDKit          3D

 52 54  0  0  0  0  0  0  0  0999 V2000
   57.7740   27.7370   43.6890 C   0  0  0  0  0  0  0  0  0  0  0  0
   57.0190   28.3390   45.1820 S   0  0  0  0  0  0  0  0  0  0  0  0
   56.5770   27.1410   45.9760 O   0  0  0  0  0  0  0  0  0  0  0  0
   55.7950   29.1500   44.8670 O   0  0  0  0  0  0  0  0  0  0  0  0
   58.1700   29.2950   46.1390 C   0  0  0  0  0  0  0  0  0  0  0  0
   58.8200   28.6460   47.2060 C   0  0  0  0  0  0  0  0  0  0  0  0
   59.7470   29.3200   48.0000 C   0  0  0  0  0  0  0  0  0  0  0  0
   60.0440   30.6540   47.7440 C   0  0  0  0  0  0  0  0  0  0  0  0
   59.4180   31.3180   46.6910 C   0  0  0  0  0  0  0  0  0  0  0  0
   58.4760   30.6630   45.8770 C   0  0  0  0  0  0  0  0  0  0  0  0
   57.7780   31.6010   44.5370 S   0  0  0  0  0  0  0  0  0  0  0  0
   56.3710   32.0110   44.8830 O   0  0  0  0  0  0  0  0  0  0  0  0
   57.6970   30.7660   43.2930 O   0  0  0  0  0  0  0  0  0  0  0  0
   58.7040   32.9830   44.2130 O   0  0  0  0  0  0  0  0  0  0  0  0
   58.3430   33.9930   45.1260 C   0  0  0  0  0  0  0  0  0  0  0  0
   59.5730   34.8320   45.4760 C   0  0  0  0  0  0  0  0  0  0  0  0
   60.0940   34.4620   46.8030 N   0  0  0  0  0  0  0  0  0  0  0  0
   59.2760   34.6070   47.8880 C   0  0  0  0  0  0  0  0  0  0  0  0
   59.6960   34.2190   49.1580 C   0  0  0  0  0  0  0  0  0  0  0  0
   60.9720   33.6660   49.3310 C   0  0  0  0  0  0  0  0  0  0  0  0
   61.4380   33.2300   50.5820 O   0  0  0  0  0  0  0  0  0  0  0  0
   60.7240   33.3530   51.8130 C   0  0  0  0  0  0  0  0  0  0  0  0
   59.4280   32.5910   51.7470 C   0  0  0  0  0  0  0  0  0  0  0  0
   59.3610   31.3370   51.1160 C   0  0  0  0  0  0  0  0  0  0  0  0
   58.1540   30.6320   51.0770 C   0  0  0  0  0  0  0  0  0  0  0  0
   57.0050   31.1770   51.6550 C   0  0  0  0  0  0  0  0  0  0  0  0
   55.8340   30.4950   51.6110 F   0  0  0  0  0  0  0  0  0  0  0  0
   57.0630   32.4270   52.2780 C   0  0  0  0  0  0  0  0  0  0  0  0
   58.2700   33.1300   52.3280 C   0  0  0  0  0  0  0  0  0  0  0  0
   61.8110   33.5380   48.2180 C   0  0  0  0  0  0  0  0  0  0  0  0
   63.5580   32.7710   48.4200 Br  0  0  0  0  0  0  0  0  0  0  0  0
   61.3520   33.9320   46.9510 C   0  0  0  0  0  0  0  0  0  0  0  0
   62.1060   33.7810   45.9500 O   0  0  0  0  0  0  0  0  0  0  0  0
   58.6106   27.0700   43.9443 H   0  0  0  0  0  0  0  0  0  0  0  0
   57.0293   27.1821   43.0995 H   0  0  0  0  0  0  0  0  0  0  0  0
   58.1492   28.5865   43.0995 H   0  0  0  0  0  0  0  0  0  0  0  0
   58.5929   27.5905   47.4166 H   0  0  0  0  0  0  0  0  0  0  0  0
   60.2439   28.7959   48.8297 H   0  0  0  0  0  0  0  0  0  0  0  0
   60.7734   31.1854   48.3730 H   0  0  0  0  0  0  0  0  0  0  0  0
   59.6644   32.3716   46.4930 H   0  0  0  0  0  0  0  0  0  0  0  0
   57.5762   34.6387   44.6732 H   0  0  0  0  0  0  0  0  0  0  0  0
   57.9428   33.5321   46.0411 H   0  0  0  0  0  0  0  0  0  0  0  0
   60.3540   34.6607   44.7206 H   0  0  0  0  0  0  0  0  0  0  0  0
   59.2847   35.8934   45.4922 H   0  0  0  0  0  0  0  0  0  0  0  0
   58.2717   35.0362   47.7565 H   0  0  0  0  0  0  0  0  0  0  0  0
   59.0281   34.3463   50.0227 H   0  0  0  0  0  0  0  0  0  0  0  0
   61.3398   32.9504   52.6308 H   0  0  0  0  0  0  0  0  0  0  0  0
   60.5040   34.4157   51.9929 H   0  0  0  0  0  0  0  0  0  0  0  0
   60.2612   30.9086   50.6512 H   0  0  0  0  0  0  0  0  0  0  0  0
   58.1092   29.6465   50.5903 H   0  0  0  0  0  0  0  0  0  0  0  0
   56.1573   32.8580   52.7296 H   0  0  0  0  0  0  0  0  0  0  0  0
   58.3124   34.1104   52.8251 H   0  0  0  0  0  0  0  0  0  0  0  0
  1  2  1  0
  2  3  2  0
  2  4  2  0
  2  5  1  0
  5  6  2  0
  6  7  1  0
  7  8  2  0
  8  9  1  0
  9 10  2  0
 10 11  1  0
 11 12  2  0
 11 13  2  0
 11 14  1  0
 14 15  1  0
 15 16  1  0
 16 17  1  0
 17 18  1  0
 18 19  2  0
 19 20  1  0
 20 21  1  0
 21 22  1  0
 22 23  1  0
 23 24  2  0
 24 25  1  0
 25 26  2  0
 26 27  1  0
 26 28  1  0
 28 29  2  0
 20 30  2  0
 30 31  1  0
 30 32  1  0
 32 33  2  0
 10  5  1  0
 32 17  1  0
 29 23  1  0
  1 34  1  0
  1 35  1  0
  1 36  1  0
  6 37  1  0
  7 38  1  0
  8 39  1  0
  9 40  1  0
 15 41  1  0
 15 42  1  0
 16 43  1  0
 16 44  1  0
 18 45  1  0
 19 46  1  0
 22 47  1  0
 22 48  1  0
 24 49  1  0
 25 50  1  0
 28 51  1  0
 29 52  1  0
M  END
>  <UniqueID>  (14) 
12

>  <SMILES>  (14) 
CS(=O)(=O)c1ccccc1S(=O)(=O)OCCn1ccc(OCc2ccc(F)cc2)c(Br)c1=O

>  <Energy>  (14) 
53.88757276037891

>  <Genealogy>  (14) 
CS(=O)(=O)c1ccccc1S(=O)(=O)OCCn1ccc(OCc2ccc(F)cc2)c(Br)c1=O (3D coordinates assigned)
CS(=O)(=O)c1ccccc1S(=O)(=O)OCCn1ccc(OCc2ccc(F)cc2)c(Br)c1=O (optimized conformer: 53.88757276037891 kcal/mol)

>  <smiles>  (14) 
CS(=O)(=O)c1ccccc1S(=O)(=O)OCCn1ccc(OCc2ccc(F)cc2)c(Br)c1=O

>  <score_type>  (14) 
oracle

>  <origin>  (14) 
adg

>  <m_score__min__energy>  (14) 
-9.6699999999999999

>  <m_primary>  (14) 
energy

$$$$
14:0
     RDKit          3D

 34 34  0  0  1  0  0  0  0  0999 V2000
   63.7050   32.9010   47.1310 C   0  0  0  0  0  0  0  0  0  0  0  0
   62.3690   33.5220   47.0960 C   0  0  0  0  0  0  0  0  0  0  0  0
   61.2720   34.0230   47.0860 C   0  0  0  0  0  0  0  0  0  0  0  0
   59.9330   34.6540   47.0620 C   0  0  0  0  0  0  0  0  0  0  0  0
   59.4140   34.5330   45.7600 O   0  0  0  0  0  0  0  0  0  0  0  0
   58.7400   33.3670   45.4210 C   0  0  0  0  0  0  0  0  0  0  0  0
   58.6350   32.2860   46.2870 C   0  0  0  0  0  0  0  0  0  0  0  0
   57.9420   31.1790   45.8450 C   0  0  0  0  0  0  0  0  0  0  0  0
   57.3560   31.0960   44.6000 C   0  0  0  0  0  0  0  0  0  0  0  0
   56.4830   29.7240   44.0210 S   0  0  0  0  0  0  0  0  0  0  0  0
   56.0470   30.0020   42.6160 O   0  0  0  0  0  0  0  0  0  0  0  0
   55.2770   29.5220   44.8940 O   0  0  0  0  0  0  0  0  0  0  0  0
   57.4050   28.2630   44.0240 N   0  0  0  0  0  0  0  0  0  0  0  0
   57.7450   27.8510   45.3590 C   0  0  0  0  0  0  0  0  0  0  0  0
   56.8040   26.9140   45.9760 C   0  0  0  0  0  0  0  0  0  0  0  0
   55.4410   27.0870   45.6500 O   0  0  0  0  0  0  0  0  0  0  0  0
   57.0690   25.9600   46.7710 N   0  0  0  0  0  0  0  0  0  0  0  0
   56.1390   25.1080   47.2370 O   0  0  0  0  0  0  0  0  0  0  0  0
   57.4800   32.1950   43.7590 C   0  0  0  0  0  0  0  0  0  0  0  0
   58.1690   33.3270   44.1630 C   0  0  0  0  0  0  0  0  0  0  0  0
   64.0151   32.7569   48.1765 H   0  0  0  0  0  0  0  0  0  0  0  0
   63.6700   31.9268   46.6213 H   0  0  0  0  0  0  0  0  0  0  0  0
   64.4272   33.5558   46.6213 H   0  0  0  0  0  0  0  0  0  0  0  0
   59.2688   34.1457   47.7765 H   0  0  0  0  0  0  0  0  0  0  0  0
   60.0073   35.7145   47.3447 H   0  0  0  0  0  0  0  0  0  0  0  0
   59.0882   32.3122   47.2889 H   0  0  0  0  0  0  0  0  0  0  0  0
   57.8520   30.3164   46.5216 H   0  0  0  0  0  0  0  0  0  0  0  0
   56.9230   27.5080   43.4820 H   0  0  0  0  0  0  0  0  0  0  0  0
   58.7336   27.3698   45.3263 H   0  0  0  0  0  0  0  0  0  0  0  0
   57.7224   28.7609   45.9767 H   0  0  0  0  0  0  0  0  0  0  0  0
   55.1450   27.8880   45.0750 H   0  0  0  0  0  0  0  0  0  0  0  0
   55.1450   25.1310   47.0730 H   0  0  0  0  0  0  0  0  0  0  0  0
   57.0246   32.1659   42.7581 H   0  0  0  0  0  0  0  0  0  0  0  0
   58.2611   34.1893   43.4862 H   0  0  0  0  0  0  0  0  0  0  0  0
  1  2  1  0
  2  3  3  0
  3  4  1  0
  4  5  1  0
  5  6  1  0
  6  7  2  0
  7  8  1  0
  8  9  2  0
  9 10  1  0
 10 11  2  0
 10 12  2  0
 10 13  1  0
 13 14  1  0
 14 15  1  0
 15 16  1  0
 15 17  2  0
 17 18  1  0
  9 19  1  0
 19 20  2  0
 20  6  1  0
  1 21  1  0
  1 22  1  0
  1 23  1  0
  4 24  1  0
  4 25  1  0
  7 26  1  0
  8 27  1  0
 13 28  1  0
 14 29  1  0
 14 30  1  0
 16 31  1  0
 18 32  1  0
 19 33  1  0
 20 34  1  0
M  END
>  <smiles>  (15) 
CC#CCOc1ccc(S(=O)(=O)NCC(O)=NO)cc1

>  <score_type>  (15) 
oracle

>  <origin>  (15) 
adg

>  <m_score__min__energy>  (15) 
-8.3200000000000003

>  <m_primary>  (15) 
energy

$$$$
15:0
     RDKit          3D

 47 49  0  0  1  0  0  0  0  0999 V2000
   56.4070   30.0860   42.5470 C   0  0  0  0  0  0  0  0  0  0  0  0
   55.4850   30.0320   43.7580 C   0  0  0  0  0  0  0  0  0  0  0  0
   56.2010   29.7440   44.8930 O   0  0  0  0  0  0  0  0  0  0  0  0
   57.3080   29.0010   44.5110 C   0  0  0  0  0  0  0  0  0  0  0  0
   58.5500   29.4890   45.3670 C   0  0  0  0  0  0  0  0  0  0  0  0
   57.7970   30.4310   46.0850 N   0  0  0  0  0  0  0  0  0  0  0  0
   58.0540   31.6720   46.0010 C   0  0  0  0  0  0  0  0  0  0  0  0
   57.1820   32.3900   45.2280 N   0  0  0  0  0  0  0  0  0  0  0  0
   57.2960   33.7080   45.0350 C   0  0  0  0  0  0  0  0  0  0  0  0
   58.3190   34.3330   45.6380 N   0  0  0  0  0  0  0  0  0  0  0  0
   59.2090   33.6710   46.4120 C   0  0  0  0  0  0  0  0  0  0  0  0
   59.1160   32.2990   46.6310 C   0  0  0  0  0  0  0  0  0  0  0  0
   59.9350   31.3490   47.4050 C   0  0  0  0  0  0  0  0  0  0  0  0
   61.0090   32.3000   48.0500 C   0  0  0  0  0  0  0  0  0  0  0  0
   60.4240   33.2360   48.9430 N   0  0  0  0  0  0  0  0  0  0  0  0
   59.1370   32.7380   49.3680 C   0  0  0  0  0  0  0  0  0  0  0  0
   58.7970   32.8590   50.7480 C   0  0  0  0  0  0  0  0  0  0  0  0
   57.8050   32.4420   51.5670 C   0  0  0  0  0  0  0  0  0  0  0  0
   57.7810   32.7350   52.8550 C   0  0  0  0  0  0  0  0  0  0  0  0
   58.8560   33.5210   53.3720 C   0  0  0  0  0  0  0  0  0  0  0  0
   59.9220   33.8300   51.9150 S   0  0  0  0  0  0  0  0  0  0  0  0
   60.2630   34.5740   48.4480 C   0  0  0  0  0  0  0  0  0  0  0  0
   60.2100   34.6320   46.9370 C   0  0  0  0  0  0  0  0  0  0  0  0
   57.4522   30.1472   42.8844 H   0  0  0  0  0  0  0  0  0  0  0  0
   56.2699   29.1783   41.9410 H   0  0  0  0  0  0  0  0  0  0  0  0
   56.1649   30.9715   41.9410 H   0  0  0  0  0  0  0  0  0  0  0  0
   54.9894   31.0065   43.8798 H   0  0  0  0  0  0  0  0  0  0  0  0
   54.7349   29.2431   43.6000 H   0  0  0  0  0  0  0  0  0  0  0  0
   57.1227   27.9331   44.6986 H   0  0  0  0  0  0  0  0  0  0  0  0
   57.5074   29.1395   43.4381 H   0  0  0  0  0  0  0  0  0  0  0  0
   58.9778   28.6991   46.0019 H   0  0  0  0  0  0  0  0  0  0  0  0
   59.4504   29.8320   44.8362 H   0  0  0  0  0  0  0  0  0  0  0  0
   56.3700   31.9230   44.7450 H   0  0  0  0  0  0  0  0  0  0  0  0
   56.5798   34.2581   44.4070 H   0  0  0  0  0  0  0  0  0  0  0  0
   59.3370   30.8398   48.1751 H   0  0  0  0  0  0  0  0  0  0  0  0
   60.3652   30.5368   46.8006 H   0  0  0  0  0  0  0  0  0  0  0  0
   61.7375   31.6891   48.6032 H   0  0  0  0  0  0  0  0  0  0  0  0
   61.4949   32.8625   47.2391 H   0  0  0  0  0  0  0  0  0  0  0  0
   58.3705   33.2785   48.7932 H   0  0  0  0  0  0  0  0  0  0  0  0
   59.1886   31.6536   49.1907 H   0  0  0  0  0  0  0  0  0  0  0  0
   56.9886   31.8370   51.1456 H   0  0  0  0  0  0  0  0  0  0  0  0
   56.9643   32.3870   53.5046 H   0  0  0  0  0  0  0  0  0  0  0  0
   59.0084   33.8620   54.4066 H   0  0  0  0  0  0  0  0  0  0  0  0
   59.3264   34.9881   48.8497 H   0  0  0  0  0  0  0  0  0  0  0  0
   61.1367   35.1575   48.7738 H   0  0  0  0  0  0  0  0  0  0  0  0
   59.9331   35.6495   46.6238 H   0  0  0  0  0  0  0  0  0  0  0  0
   61.1998   34.3667   46.5371 H   0  0  0  0  0  0  0  0  0  0  0  0
  1  2  1  0
  2  3  1  0
  3  4  1  0
  4  5  1  0
  5  6  1  0
  6  7  2  0
  7  8  1  0
  8  9  1  0
  9 10  2  0
 10 11  1  0
 11 12  2  0
 12 13  1  0
 13 14  1  0
 14 15  1  0
 15 16  1  0
 16 17  1  0
 17 18  2  0
 18 19  1  0
 19 20  2  0
 20 21  1  0
 15 22  1  0
 22 23  1  0
 12  7  1  0
 21 17  1  0
 23 11  1  0
  1 24  1  0
  1 25  1  0
  1 26  1  0
  2 27  1  0
  2 28  1  0
  4 29  1  0
  4 30  1  0
  5 31  1  0
  5 32  1  0
  8 33  1  0
  9 34  1  0
 13 35  1  0
 13 36  1  0
 14 37  1  0
 14 38  1  0
 16 39  1  0
 16 40  1  0
 18 41  1  0
 19 42  1  0
 20 43  1  0
 22 44  1  0
 22 45  1  0
 23 46  1  0
 23 47  1  0
M  END
>  <smiles>  (16) 
CCOCCN=c1[nH]cnc2c1CCN(Cc1cccs1)CC2

>  <score_type>  (16) 
oracle

>  <origin>  (16) 
adg

>  <m_score__min__energy>  (16) 
-6.4000000000000004

>  <m_primary>  (16) 
energy

$$$$
16:0
     RDKit          3D

 29 30  0  0  0  0  0  0  0  0999 V2000
   61.3786   30.7348   47.9263 H   0  0  0  0  0  0  0  0  0  0  0  0
   61.0190   31.7150   47.5800 C   0  0  0  0  0  0  0  0  0  0  0  0
   59.9330   31.7890   46.7080 C   0  0  0  0  0  0  0  0  0  0  0  0
   59.4397   30.8648   46.3725 H   0  0  0  0  0  0  0  0  0  0  0  0
   59.4630   33.0330   46.2540 C   0  0  0  0  0  0  0  0  0  0  0  0
   58.0610   33.0710   45.1700 S   0  0  0  0  0  0  0  0  0  0  0  0
   58.1360   34.2550   44.2460 O   0  0  0  0  0  0  0  0  0  0  0  0
   56.8070   33.1810   45.9890 O   0  0  0  0  0  0  0  0  0  0  0  0
   58.0030   31.6260   44.2170 N   0  0  0  0  0  0  0  0  0  0  0  0
   57.3640   30.5660   44.6020 C   0  0  0  0  0  0  0  0  0  0  0  0
   56.0600   30.4830   44.7320 O   0  0  0  0  0  0  0  0  0  0  0  0
   55.7310   29.2870   45.1210 N   0  0  0  0  0  0  0  0  0  0  0  0
   54.7530   28.9590   45.2820 H   0  0  0  0  0  0  0  0  0  0  0  0
   56.8620   28.5640   45.2590 C   0  0  0  0  0  0  0  0  0  0  0  0
   56.9010   27.1160   45.6250 C   0  0  0  0  0  0  0  0  0  0  0  0
   56.9037   27.0146   46.7203 H   0  0  0  0  0  0  0  0  0  0  0  0
   56.0162   26.6095   45.2121 H   0  0  0  0  0  0  0  0  0  0  0  0
   57.8118   26.6578   45.2121 H   0  0  0  0  0  0  0  0  0  0  0  0
   57.9420   29.3580   44.9240 C   0  0  0  0  0  0  0  0  0  0  0  0
   59.7930   28.8860   44.8710 Br  0  0  0  0  0  0  0  0  0  0  0  0
   60.1140   34.2180   46.6790 C   0  0  0  0  0  0  0  0  0  0  0  0
   59.6470   35.5830   46.2480 C   0  0  0  0  0  0  0  0  0  0  0  0
   59.4372   36.1963   47.1367 H   0  0  0  0  0  0  0  0  0  0  0  0
   60.4311   36.0657   45.6462 H   0  0  0  0  0  0  0  0  0  0  0  0
   58.7315   35.4842   45.6462 H   0  0  0  0  0  0  0  0  0  0  0  0
   61.1990   34.1240   47.5700 C   0  0  0  0  0  0  0  0  0  0  0  0
   61.6968   35.0403   47.9202 H   0  0  0  0  0  0  0  0  0  0  0  0
   61.6500   32.8800   48.0140 C   0  0  0  0  0  0  0  0  0  0  0  0
   63.1290   32.7740   49.2180 Br  0  0  0  0  0  0  0  0  0  0  0  0
  1  2  1  0
  2  3  2  0
  3  4  1  0
  3  5  1  0
  5  6  1  0
  6  7  2  0
  6  8  2  0
  6  9  1  0
  9 10  2  0
 10 11  1  0
 11 12  1  0
 12 13  1  0
 12 14  1  0
 14 15  1  0
 15 16  1  0
 15 17  1  0
 15 18  1  0
 14 19  2  0
 19 20  1  0
  5 21  2  0
 21 22  1  0
 22 23  1  0
 22 24  1  0
 22 25  1  0
 21 26  1  0
 26 27  1  0
 26 28  2  0
 28 29  1  0
 28  2  1  0
 19 10  1  0
M  END
>  <UniqueID>  (17) 
13

>  <SMILES>  (17) 
Cc1cc(Br)ccc1S(=O)(=O)/N=c1\o[nH]c(C)c1Br

>  <Energy>  (17) 
63.745763572345865

>  <Genealogy>  (17) 
Cc1cc(Br)ccc1S(=O)(=O)/N=c1\o[nH]c(C)c1Br (cis-trans isomerization)
Cc1cc(Br)ccc1S(=O)(=O)/N=c1\o[nH]c(C)c1Br (3D coordinates assigned)
Cc1cc(Br)ccc1S(=O)(=O)/N=c1\o[nH]c(C)c1Br (optimized conformer: 63.745763572345865 kcal/mol)

>  <smiles>  (17) 
Cc1cc(Br)ccc1S(=O)(=O)N=c1o[nH]c(C)c1Br

>  <score_type>  (17) 
oracle

>  <origin>  (17) 
adg

>  <m_score__min__energy>  (17) 
-9.1699999999999999

>  <m_primary>  (17) 
energy

$$$$
17:0
     RDKit          3D

 62 63  0  0  0  0  0  0  0  0999 V2000
   57.2370   24.1170   43.8110 C   0  0  0  0  0  0  0  0  0  0  0  0
   58.0600   23.9200   45.0840 C   0  0  0  0  0  0  0  0  0  0  0  0
   57.2020   23.4850   46.2830 C   0  0  0  0  0  0  0  0  0  0  0  0
   57.1750   24.5350   47.4040 C   0  0  0  0  0  0  0  0  0  0  0  0
   57.1500   25.9000   46.8340 N   0  0  0  0  0  0  0  0  0  0  0  0
   58.2070   26.7680   47.0080 C   0  0  0  0  0  0  0  0  0  0  0  0
   59.4080   26.3570   47.6900 N   0  0  0  0  0  0  0  0  0  0  0  0
   58.1240   28.0790   46.4940 C   0  0  0  0  0  0  0  0  0  0  0  0
   59.1940   29.0260   46.6700 N   0  0  0  0  0  0  0  0  0  0  0  0
   59.9670   29.4250   45.4830 C   0  0  0  0  0  0  0  0  0  0  0  0
   60.7560   28.2450   44.9250 C   0  0  0  0  0  0  0  0  0  0  0  0
   59.4210   29.5820   47.9880 C   0  0  0  0  0  0  0  0  0  0  0  0
   59.9330   28.8570   48.8850 O   0  0  0  0  0  0  0  0  0  0  0  0
   59.0480   30.9930   48.3620 C   0  0  0  0  0  0  0  0  0  0  0  0
   59.4260   31.8890   47.3200 O   0  0  0  0  0  0  0  0  0  0  0  0
   58.5180   32.4160   46.3940 C   0  0  0  0  0  0  0  0  0  0  0  0
   58.2280   31.7820   45.3430 O   0  0  0  0  0  0  0  0  0  0  0  0
   57.8970   33.7490   46.6550 C   0  0  0  0  0  0  0  0  0  0  0  0
   59.0610   35.0860   46.2200 S   0  0  0  0  0  0  0  0  0  0  0  0
   60.4010   34.4570   47.2350 C   0  0  0  0  0  0  0  0  0  0  0  0
   60.3260   34.5530   48.6260 C   0  0  0  0  0  0  0  0  0  0  0  0
   61.3670   34.0710   49.4200 C   0  0  0  0  0  0  0  0  0  0  0  0
   62.4990   33.4770   48.8320 C   0  0  0  0  0  0  0  0  0  0  0  0
   63.6020   32.9550   49.7170 C   0  0  0  0  0  0  0  0  0  0  0  0
   62.5660   33.3550   47.4220 C   0  0  0  0  0  0  0  0  0  0  0  0
   63.7630   32.7370   46.7450 C   0  0  0  0  0  0  0  0  0  0  0  0
   61.5140   33.8560   46.6370 C   0  0  0  0  0  0  0  0  0  0  0  0
   56.9850   28.4480   45.7760 C   0  0  0  0  0  0  0  0  0  0  0  0
   56.8820   29.6090   45.3000 O   0  0  0  0  0  0  0  0  0  0  0  0
   55.9860   27.5530   45.5860 N   0  0  0  0  0  0  0  0  0  0  0  0
   56.0560   26.2970   46.0980 C   0  0  0  0  0  0  0  0  0  0  0  0
   55.1010   25.5010   45.8850 O   0  0  0  0  0  0  0  0  0  0  0  0
   56.1996   24.3653   44.0798 H   0  0  0  0  0  0  0  0  0  0  0  0
   57.6686   24.9372   43.2186 H   0  0  0  0  0  0  0  0  0  0  0  0
   57.2505   23.1903   43.2186 H   0  0  0  0  0  0  0  0  0  0  0  0
   58.8197   23.1471   44.8959 H   0  0  0  0  0  0  0  0  0  0  0  0
   58.5183   24.8875   45.3367 H   0  0  0  0  0  0  0  0  0  0  0  0
   56.1723   23.3144   45.9356 H   0  0  0  0  0  0  0  0  0  0  0  0
   57.6486   22.5687   46.6964 H   0  0  0  0  0  0  0  0  0  0  0  0
   56.2767   24.3835   48.0205 H   0  0  0  0  0  0  0  0  0  0  0  0
   58.0800   24.4225   48.0191 H   0  0  0  0  0  0  0  0  0  0  0  0
   59.6540   26.7350   48.6330 H   0  0  0  0  0  0  0  0  0  0  0  0
   60.1100   25.7160   47.2610 H   0  0  0  0  0  0  0  0  0  0  0  0
   59.2761   29.7937   44.7106 H   0  0  0  0  0  0  0  0  0  0  0  0
   60.6751   30.2149   45.7741 H   0  0  0  0  0  0  0  0  0  0  0  0
   61.1566   27.6459   45.7560 H   0  0  0  0  0  0  0  0  0  0  0  0
   60.0936   27.6198   44.3083 H   0  0  0  0  0  0  0  0  0  0  0  0
   61.5869   28.6183   44.3083 H   0  0  0  0  0  0  0  0  0  0  0  0
   57.9608   31.0533   48.5179 H   0  0  0  0  0  0  0  0  0  0  0  0
   59.5733   31.2725   49.2872 H   0  0  0  0  0  0  0  0  0  0  0  0
   56.9853   33.8498   46.0478 H   0  0  0  0  0  0  0  0  0  0  0  0
   57.6482   33.8248   47.7238 H   0  0  0  0  0  0  0  0  0  0  0  0
   59.4434   35.0101   49.0972 H   0  0  0  0  0  0  0  0  0  0  0  0
   61.3023   34.1560   50.5148 H   0  0  0  0  0  0  0  0  0  0  0  0
   63.3199   33.0885   50.7718 H   0  0  0  0  0  0  0  0  0  0  0  0
   63.7613   31.8860   49.5125 H   0  0  0  0  0  0  0  0  0  0  0  0
   64.5297   33.5096   49.5125 H   0  0  0  0  0  0  0  0  0  0  0  0
   64.4679   32.3731   47.5070 H   0  0  0  0  0  0  0  0  0  0  0  0
   63.4352   31.8955   46.1170 H   0  0  0  0  0  0  0  0  0  0  0  0
   64.2592   33.4916   46.1170 H   0  0  0  0  0  0  0  0  0  0  0  0
   61.5659   33.7749   45.5412 H   0  0  0  0  0  0  0  0  0  0  0  0
   55.1430   27.8360   45.0360 H   0  0  0  0  0  0  0  0  0  0  0  0
  1  2  1  0
  2  3  1  0
  3  4  1  0
  4  5  1  0
  5  6  1  0
  6  7  1  0
  6  8  2  0
  8  9  1  0
  9 10  1  0
 10 11  1  0
  9 12  1  0
 12 13  2  0
 12 14  1  0
 14 15  1  0
 15 16  1  0
 16 17  2  0
 16 18  1  0
 18 19  1  0
 19 20  1  0
 20 21  2  0
 21 22  1  0
 22 23  2  0
 23 24  1  0
 23 25  1  0
 25 26  1  0
 25 27  2  0
  8 28  1  0
 28 29  2  0
 28 30  1  0
 30 31  1  0
 31 32  2  0
 31  5  1  0
 27 20  1  0
  1 33  1  0
  1 34  1  0
  1 35  1  0
  2 36  1  0
  2 37  1  0
  3 38  1  0
  3 39  1  0
  4 40  1  0
  4 41  1  0
  7 42  1  0
  7 43  1  0
 10 44  1  0
 10 45  1  0
 11 46  1  0
 11 47  1  0
 11 48  1  0
 14 49  1  0
 14 50  1  0
 18 51  1  0
 18 52  1  0
 21 53  1  0
 22 54  1  0
 24 55  1  0
 24 56  1  0
 24 57  1  0
 26 58  1  0
 26 59  1  0
 26 60  1  0
 27 61  1  0
 30 62  1  0
M  END
>  <UniqueID>  (18) 
14

>  <SMILES>  (18) 
CCCCn1c(N)c(N(CC)C(=O)COC(=O)CSc2ccc(C)c(C)c2)c(=O)[nH]c1=O

>  <Energy>  (18) 
60.011777727036105

>  <Genealogy>  (18) 
CCCCn1c(N)c(N(CC)C(=O)COC(=O)CSc2ccc(C)c(C)c2)c(=O)[nH]c1=O (3D coordinates assigned)
CCCCn1c(N)c(N(CC)C(=O)COC(=O)CSc2ccc(C)c(C)c2)c(=O)[nH]c1=O (optimized conformer: 60.011777727036105 kcal/mol)

>  <smiles>  (18) 
CCCCn1c(N)c(N(CC)C(=O)COC(=O)CSc2ccc(C)c(C)c2)c(=O)[nH]c1=O

>  <score_type>  (18) 
oracle

>  <origin>  (18) 
adg

>  <m_score__min__energy>  (18) 
-7.6200000000000001

>  <m_primary>  (18) 
energy

$$$$
18:0
     RDKit          3D

 48 49  0  0  0  0  0  0  0  0999 V2000
   63.3820   34.1800   46.3670 C   0  0  0  0  0  0  0  0  0  0  0  0
   63.7000   33.7990   47.8160 C   0  0  0  0  0  0  0  0  0  0  0  0
   63.6890   32.3290   48.0430 N   0  0  0  0  0  0  0  0  0  0  0  0
   63.7720   31.9680   49.4870 C   0  0  0  0  0  0  0  0  0  0  0  0
   65.0950   32.4070   50.1270 C   0  0  0  0  0  0  0  0  0  0  0  0
   62.5330   31.6780   47.3630 C   0  0  0  0  0  0  0  0  0  0  0  0
   61.2760   31.4500   48.2390 C   0  0  0  0  0  0  0  0  0  0  0  0
   60.4760   32.6760   48.4080 N   0  0  0  0  0  0  0  0  0  0  0  0
   60.5970   33.4510   49.6520 C   0  0  0  0  0  0  0  0  0  0  0  0
   59.4580   33.1220   50.5780 C   0  0  0  0  0  0  0  0  0  0  0  0
   58.6470   32.0030   50.3270 C   0  0  0  0  0  0  0  0  0  0  0  0
   57.6160   31.6690   51.2100 C   0  0  0  0  0  0  0  0  0  0  0  0
   57.3940   32.4430   52.3530 C   0  0  0  0  0  0  0  0  0  0  0  0
   58.2080   33.5490   52.6170 C   0  0  0  0  0  0  0  0  0  0  0  0
   59.2390   33.8860   51.7360 C   0  0  0  0  0  0  0  0  0  0  0  0
   59.6910   33.2020   47.3120 C   0  0  0  0  0  0  0  0  0  0  0  0
   60.0410   34.4170   46.6920 C   0  0  0  0  0  0  0  0  0  0  0  0
   59.2700   34.9260   45.6420 C   0  0  0  0  0  0  0  0  0  0  0  0
   58.1400   34.2330   45.2030 C   0  0  0  0  0  0  0  0  0  0  0  0
   57.7740   33.0350   45.8170 C   0  0  0  0  0  0  0  0  0  0  0  0
   58.5400   32.5220   46.8670 C   0  0  0  0  0  0  0  0  0  0  0  0
   62.6772   35.0245   46.3562 H   0  0  0  0  0  0  0  0  0  0  0  0
   64.3097   34.4701   45.8521 H   0  0  0  0  0  0  0  0  0  0  0  0
   62.9307   33.3191   45.8521 H   0  0  0  0  0  0  0  0  0  0  0  0
   64.6979   34.1860   48.0699 H   0  0  0  0  0  0  0  0  0  0  0  0
   62.9172   34.2375   48.4523 H   0  0  0  0  0  0  0  0  0  0  0  0
   64.5290   31.9390   47.5500 H   0  0  0  0  0  0  0  0  0  0  0  0
   62.9430   32.4557   50.0208 H   0  0  0  0  0  0  0  0  0  0  0  0
   63.7120   30.8722   49.5616 H   0  0  0  0  0  0  0  0  0  0  0  0
   65.0006   32.3757   51.2225 H   0  0  0  0  0  0  0  0  0  0  0  0
   65.8995   31.7276   49.8087 H   0  0  0  0  0  0  0  0  0  0  0  0
   65.3338   33.4325   49.8087 H   0  0  0  0  0  0  0  0  0  0  0  0
   62.2412   32.3118   46.5126 H   0  0  0  0  0  0  0  0  0  0  0  0
   62.8820   30.6754   47.0751 H   0  0  0  0  0  0  0  0  0  0  0  0
   60.6486   30.6822   47.7627 H   0  0  0  0  0  0  0  0  0  0  0  0
   61.6163   31.1329   49.2358 H   0  0  0  0  0  0  0  0  0  0  0  0
   61.5492   33.2033   50.1439 H   0  0  0  0  0  0  0  0  0  0  0  0
   60.5680   34.5242   49.4122 H   0  0  0  0  0  0  0  0  0  0  0  0
   58.8237   31.3874   49.4327 H   0  0  0  0  0  0  0  0  0  0  0  0
   56.9786   30.7962   51.0053 H   0  0  0  0  0  0  0  0  0  0  0  0
   56.5792   32.1820   53.0444 H   0  0  0  0  0  0  0  0  0  0  0  0
   58.0365   34.1544   53.5192 H   0  0  0  0  0  0  0  0  0  0  0  0
   59.8814   34.7528   51.9502 H   0  0  0  0  0  0  0  0  0  0  0  0
   60.9275   34.9699   47.0361 H   0  0  0  0  0  0  0  0  0  0  0  0
   59.5542   35.8737   45.1612 H   0  0  0  0  0  0  0  0  0  0  0  0
   57.5384   34.6318   44.3729 H   0  0  0  0  0  0  0  0  0  0  0  0
   56.8804   32.4930   45.4738 H   0  0  0  0  0  0  0  0  0  0  0  0
   58.2420   31.5797   47.3501 H   0  0  0  0  0  0  0  0  0  0  0  0
  1  2  1  0
  2  3  1  0
  3  4  1  0
  4  5  1  0
  3  6  1  0
  6  7  1  0
  7  8  1  0
  8  9  1  0
  9 10  1  0
 10 11  2  0
 11 12  1  0
 12 13  2  0
 13 14  1  0
 14 15  2  0
  8 16  1  0
 16 17  2  0
 17 18  1  0
 18 19  2  0
 19 20  1  0
 20 21  2  0
 15 10  1  0
 21 16  1  0
  1 22  1  0
  1 23  1  0
  1 24  1  0
  2 25  1  0
  2 26  1  0
  3 27  1  0
  4 28  1  0
  4 29  1  0
  5 30  1  0
  5 31  1  0
  5 32  1  0
  6 33  1  0
  6 34  1  0
  7 35  1  0
  7 36  1  0
  9 37  1  0
  9 38  1  0
 11 39  1  0
 12 40  1  0
 13 41  1  0
 14 42  1  0
 15 43  1  0
 17 44  1  0
 18 45  1  0
 19 46  1  0
 20 47  1  0
 21 48  1  0
M  CHG  1   3   1
M  END
>  <UniqueID>  (19) 
15

>  <SMILES>  (19) 
CC[NH+](CC)CCN(Cc1ccccc1)c1ccccc1

>  <Energy>  (19) 
53.4050548931741

>  <Genealogy>  (19) 
CC[NH+](CC)CCN(Cc1ccccc1)c1ccccc1 (protonated)
CC[NH+](CC)CCN(Cc1ccccc1)c1ccccc1 (3D coordinates assigned)
CC[NH+](CC)CCN(Cc1ccccc1)c1ccccc1 (optimized conformer: 53.4050548931741 kcal/mol)

>  <smiles>  (19) 
CCN(CC)CCN(Cc1ccccc1)c1ccccc1

>  <score_type>  (19) 
oracle

>  <origin>  (19) 
adg

>  <m_score__min__energy>  (19) 
-5.0700000000000003

>  <m_primary>  (19) 
energy

$$$$
19:0
     RDKit          3D

 44 46  0  0  0  0  0  0  0  0999 V2000
   64.7630   32.2310   48.6120 H   0  0  0  0  0  0  0  0  0  0  0  0
   63.8130   32.1480   49.0390 N   0  0  0  0  0  0  0  0  0  0  0  0
   62.7460   31.8980   48.3450 C   0  0  0  0  0  0  0  0  0  0  0  0
   62.2510   30.6010   48.3660 O   0  0  0  0  0  0  0  0  0  0  0  0
   61.0520   30.2370   47.7700 C   0  0  0  0  0  0  0  0  0  0  0  0
   60.5640   28.9500   48.0180 C   0  0  0  0  0  0  0  0  0  0  0  0
   61.1232   28.2734   48.6809 H   0  0  0  0  0  0  0  0  0  0  0  0
   59.3780   28.5180   47.4340 C   0  0  0  0  0  0  0  0  0  0  0  0
   58.9965   27.5095   47.6515 H   0  0  0  0  0  0  0  0  0  0  0  0
   58.6700   29.3570   46.5740 C   0  0  0  0  0  0  0  0  0  0  0  0
   57.4870   28.8640   46.0020 O   0  0  0  0  0  0  0  0  0  0  0  0
   56.6110   29.6160   44.7350 S   0  0  0  0  0  0  0  0  0  0  0  0
   56.8610   31.0950   44.7890 O   0  0  0  0  0  0  0  0  0  0  0  0
   55.1400   29.3640   44.9020 O   0  0  0  0  0  0  0  0  0  0  0  0
   57.1590   29.0030   43.1540 C   0  0  0  0  0  0  0  0  0  0  0  0
   57.8850   28.1909   43.3072 H   0  0  0  0  0  0  0  0  0  0  0  0
   56.2956   28.6213   42.5894 H   0  0  0  0  0  0  0  0  0  0  0  0
   57.6347   29.8184   42.5894 H   0  0  0  0  0  0  0  0  0  0  0  0
   59.1710   30.6430   46.3070 C   0  0  0  0  0  0  0  0  0  0  0  0
   58.6385   31.2895   45.5939 H   0  0  0  0  0  0  0  0  0  0  0  0
   60.3460   31.1260   46.9350 C   0  0  0  0  0  0  0  0  0  0  0  0
   60.9400   32.5030   46.5800 C   0  0  1  0  0  0  0  0  0  0  0  0
   61.5113   32.3764   45.6486 H   0  0  0  0  0  0  0  0  0  0  0  0
   59.8020   33.5700   46.2540 C   0  0  0  0  0  0  0  0  0  0  0  0
   60.3717   34.5016   46.1214 H   0  0  0  0  0  0  0  0  0  0  0  0
   58.7950   33.7220   47.4450 C   0  0  0  0  0  0  0  0  0  0  0  0
   59.2085   33.2031   48.3224 H   0  0  0  0  0  0  0  0  0  0  0  0
   58.6630   34.7983   47.6299 H   0  0  0  0  0  0  0  0  0  0  0  0
   57.4130   33.1360   47.1370 C   0  0  0  0  0  0  0  0  0  0  0  0
   57.5203   32.0638   46.9159 H   0  0  0  0  0  0  0  0  0  0  0  0
   56.7682   33.2916   48.0145 H   0  0  0  0  0  0  0  0  0  0  0  0
   56.7620   33.8340   45.9280 C   0  0  0  0  0  0  0  0  0  0  0  0
   56.0520   33.1355   45.4611 H   0  0  0  0  0  0  0  0  0  0  0  0
   56.2629   34.7401   46.3021 H   0  0  0  0  0  0  0  0  0  0  0  0
   57.7850   34.2790   44.8630 C   0  0  0  0  0  0  0  0  0  0  0  0
   57.3232   34.1991   43.8678 H   0  0  0  0  0  0  0  0  0  0  0  0
   58.0765   35.3180   45.0761 H   0  0  0  0  0  0  0  0  0  0  0  0
   59.0450   33.4080   44.8990 C   0  0  0  0  0  0  0  0  0  0  0  0
   58.7568   32.3540   44.7724 H   0  0  0  0  0  0  0  0  0  0  0  0
   59.7132   33.7268   44.0854 H   0  0  0  0  0  0  0  0  0  0  0  0
   62.0030   33.0030   47.6260 C   0  0  2  0  0  0  0  0  0  0  0  0
   61.4330   33.5487   48.3924 H   0  0  0  0  0  0  0  0  0  0  0  0
   62.9900   33.8690   46.9470 C   0  0  0  0  0  0  0  0  0  0  0  0
   63.7630   34.5470   46.4130 N   0  0  0  0  0  0  0  0  0  0  0  0
  1  2  1  0
  2  3  2  0
  3  4  1  0
  4  5  1  0
  5  6  2  0
  6  7  1  0
  6  8  1  0
  8  9  1  0
  8 10  2  0
 10 11  1  0
 11 12  1  0
 12 13  2  0
 12 14  2  0
 12 15  1  0
 15 16  1  0
 15 17  1  0
 15 18  1  0
 10 19  1  0
 19 20  1  0
 19 21  2  0
 21 22  1  0
 22 23  1  6
 22 24  1  0
 24 25  1  0
 24 26  1  0
 26 27  1  0
 26 28  1  0
 26 29  1  0
 29 30  1  0
 29 31  1  0
 29 32  1  0
 32 33  1  0
 32 34  1  0
 32 35  1  0
 35 36  1  0
 35 37  1  0
 35 38  1  0
 38 39  1  0
 38 40  1  0
 22 41  1  0
 41 42  1  1
 41 43  1  0
 43 44  3  0
 41  3  1  0
 21  5  1  0
 38 24  1  0
M  END
>  <UniqueID>  (20) 
16

>  <SMILES>  (20) 
[H]/N=C1/Oc2ccc(OS(C)(=O)=O)cc2[C@@H](C2CCCCC2)[C@@H]1C#N

>  <Energy>  (20) 
60.44837576483742

>  <Genealogy>  (20) 
CS(=O)(=O)Oc1ccc2c(c1)[C@@H](C1CCCCC1)[C@H](C#N)C(=N)O2 (chirality)
[H]/N=C1/Oc2ccc(OS(C)(=O)=O)cc2[C@@H](C2CCCCC2)[C@@H]1C#N (cis-trans isomerization)
[H]/N=C1/Oc2ccc(OS(C)(=O)=O)cc2[C@@H](C2CCCCC2)[C@@H]1C#N (3D coordinates assigned)
[H]/N=C1/Oc2ccc(OS(C)(=O)=O)cc2[C@@H](C2CCCCC2)[C@@H]1C#N (nonaromatic ring conformer: 60.44837576483742 kcal/mol)

>  <smiles>  (20) 
CS(=O)(=O)Oc1ccc2c(c1)C(C1CCCCC1)C(C#N)C(=N)O2

>  <score_type>  (20) 
oracle

>  <origin>  (20) 
adg

>  <m_score__min__energy>  (20) 
-8.7100000000000009

>  <m_primary>  (20) 
energy

$$$$
20:0
     RDKit          3D

 53 57  0  0  0  0  0  0  0  0999 V2000
   62.4890   30.8550   48.0360 O   0  0  0  0  0  0  0  0  0  0  0  0
   61.2400   31.5560   47.5850 S   0  0  0  0  0  0  0  0  0  0  0  0
   61.6790   32.8260   46.9130 O   0  0  0  0  0  0  0  0  0  0  0  0
   60.3320   30.5450   46.3970 C   0  0  1  0  0  0  0  0  0  0  0  0
   59.7080   29.2950   47.0570 C   0  0  0  0  0  0  0  0  0  0  0  0
   58.4760   28.7720   46.2970 C   0  0  0  0  0  0  0  0  0  0  0  0
   58.5860   29.0560   44.8520 N   0  0  0  0  0  0  0  0  0  0  0  0
   57.4340   28.5080   44.1140 C   0  0  0  0  0  0  0  0  0  0  0  0
   56.4810   29.6530   43.7710 C   0  0  0  0  0  0  0  0  0  0  0  0
   57.1350   30.9110   44.3060 C   0  0  0  0  0  0  0  0  0  0  0  0
   58.5790   30.5060   44.5710 C   0  0  1  0  0  0  0  0  0  0  0  0
   59.2530   31.3620   45.6740 C   0  0  0  0  0  0  0  0  0  0  0  0
   60.2430   31.9370   48.9700 N   0  0  0  0  0  0  0  0  0  0  0  0
   59.6750   33.1380   49.2870 C   0  0  0  0  0  0  0  0  0  0  0  0
   59.8640   34.4210   48.5240 C   0  0  0  0  0  0  0  0  0  0  0  0
   59.0860   34.3900   47.2360 C   0  0  0  0  0  0  0  0  0  0  0  0
   59.6330   34.9260   46.0580 C   0  0  0  0  0  0  0  0  0  0  0  0
   58.9210   34.8570   44.8560 C   0  0  0  0  0  0  0  0  0  0  0  0
   57.6650   34.2460   44.8200 C   0  0  0  0  0  0  0  0  0  0  0  0
   57.1160   33.7040   45.9860 C   0  0  0  0  0  0  0  0  0  0  0  0
   57.8220   33.7720   47.1900 C   0  0  0  0  0  0  0  0  0  0  0  0
   58.8890   33.0820   50.3950 N   0  0  0  0  0  0  0  0  0  0  0  0
   59.0030   31.8060   50.7920 C   0  0  0  0  0  0  0  0  0  0  0  0
   58.4140   31.2250   51.9140 C   0  0  0  0  0  0  0  0  0  0  0  0
   58.7010   29.8770   52.1820 C   0  0  0  0  0  0  0  0  0  0  0  0
   59.5740   29.1540   51.3430 C   0  0  0  0  0  0  0  0  0  0  0  0
   60.1570   29.7670   50.2170 C   0  0  0  0  0  0  0  0  0  0  0  0
   61.0500   29.0740   49.4730 F   0  0  0  0  0  0  0  0  0  0  0  0
   59.8270   31.1080   49.9540 C   0  0  0  0  0  0  0  0  0  0  0  0
   61.0646   30.2010   45.6521 H   0  0  0  0  0  0  0  0  0  0  0  0
   60.4660   28.4985   47.0882 H   0  0  0  0  0  0  0  0  0  0  0  0
   59.3774   29.5831   48.0658 H   0  0  0  0  0  0  0  0  0  0  0  0
   58.3968   27.6849   46.4450 H   0  0  0  0  0  0  0  0  0  0  0  0
   57.5817   29.2801   46.6871 H   0  0  0  0  0  0  0  0  0  0  0  0
   57.7826   28.0268   43.1883 H   0  0  0  0  0  0  0  0  0  0  0  0
   56.9145   27.7608   44.7319 H   0  0  0  0  0  0  0  0  0  0  0  0
   56.3460   29.7253   42.6817 H   0  0  0  0  0  0  0  0  0  0  0  0
   55.4855   29.4961   44.2119 H   0  0  0  0  0  0  0  0  0  0  0  0
   57.0882   31.7201   43.5623 H   0  0  0  0  0  0  0  0  0  0  0  0
   56.6346   31.2915   45.2087 H   0  0  0  0  0  0  0  0  0  0  0  0
   59.1988   30.7054   43.6844 H   0  0  0  0  0  0  0  0  0  0  0  0
   59.7157   32.2476   45.2140 H   0  0  0  0  0  0  0  0  0  0  0  0
   58.4898   31.6715   46.4032 H   0  0  0  0  0  0  0  0  0  0  0  0
   59.5122   35.2626   49.1388 H   0  0  0  0  0  0  0  0  0  0  0  0
   60.9322   34.5411   48.2906 H   0  0  0  0  0  0  0  0  0  0  0  0
   60.6246   35.4015   46.0811 H   0  0  0  0  0  0  0  0  0  0  0  0
   59.3505   35.2843   43.9379 H   0  0  0  0  0  0  0  0  0  0  0  0
   57.1075   34.1913   43.8733 H   0  0  0  0  0  0  0  0  0  0  0  0
   56.1270   33.2234   45.9556 H   0  0  0  0  0  0  0  0  0  0  0  0
   57.3887   33.3413   48.1047 H   0  0  0  0  0  0  0  0  0  0  0  0
   57.7458   31.8041   52.5684 H   0  0  0  0  0  0  0  0  0  0  0  0
   58.2425   29.3823   53.0509 H   0  0  0  0  0  0  0  0  0  0  0  0
   59.8016   28.1020   51.5700 H   0  0  0  0  0  0  0  0  0  0  0  0
  1  2  2  0
  2  3  2  0
  2  4  1  0
  4  5  1  0
  5  6  1  0
  6  7  1  0
  7  8  1  0
  8  9  1  0
  9 10  1  0
 10 11  1  0
 11 12  1  0
  2 13  1  0
 13 14  1  0
 14 15  1  0
 15 16  1  0
 16 17  2  0
 17 18  1  0
 18 19  2  0
 19 20  1  0
 20 21  2  0
 14 22  2  0
 22 23  1  0
 23 24  2  0
 24 25  1  0
 25 26  2  0
 26 27  1  0
 27 28  1  0
 27 29  2  0
 12  4  1  0
 29 13  1  0
 11  7  1  0
 21 16  1  0
 29 23  1  0
  4 30  1  6
  5 31  1  0
  5 32  1  0
  6 33  1  0
  6 34  1  0
  8 35  1  0
  8 36  1  0
  9 37  1  0
  9 38  1  0
 10 39  1  0
 10 40  1  0
 11 41  1  6
 12 42  1  0
 12 43  1  0
 15 44  1  0
 15 45  1  0
 17 46  1  0
 18 47  1  0
 19 48  1  0
 20 49  1  0
 21 50  1  0
 24 51  1  0
 25 52  1  0
 26 53  1  0
M  END
>  <UniqueID>  (21) 
17

>  <SMILES>  (21) 
O=S(=O)([C@H]1CCN2CCC[C@H]2C1)n1c(Cc2ccccc2)nc2cccc(F)c21

>  <Energy>  (21) 
102.96728637267097

>  <Genealogy>  (21) 
O=S(=O)([C@H]1CCN2CCC[C@H]2C1)n1c(Cc2ccccc2)nc2cccc(F)c21 (chirality)
O=S(=O)([C@H]1CCN2CCC[C@H]2C1)n1c(Cc2ccccc2)nc2cccc(F)c21 (3D coordinates assigned)
O=S(=O)([C@H]1CCN2CCC[C@H]2C1)n1c(Cc2ccccc2)nc2cccc(F)c21 (nonaromatic ring conformer: 102.96728637267097 kcal/mol)

>  <smiles>  (21) 
O=S(=O)(C1CCN2CCCC2C1)n1c(Cc2ccccc2)nc2cccc(F)c21

>  <score_type>  (21) 
oracle

>  <origin>  (21) 
adg

>  <m_score__min__energy>  (21) 
-9.3200000000000003

>  <m_primary>  (21) 
energy

$$$$
21:0
     RDKit          3D

 80 85  0  0  0  0  0  0  0  0999 V2000
   55.5120   29.3590   45.2200 O   0  0  0  0  0  0  0  0  0  0  0  0
   56.5270   29.7980   44.6100 C   0  0  0  0  0  0  0  0  0  0  0  0
   57.5690   28.8540   44.0840 C   0  0  0  0  0  0  0  0  0  0  0  0
   58.2980   28.1410   45.1940 C   0  0  0  0  0  0  0  0  0  0  0  0
   57.5800   27.4340   46.1740 C   0  0  0  0  0  0  0  0  0  0  0  0
   58.2590   26.7780   47.2080 C   0  0  0  0  0  0  0  0  0  0  0  0
   59.6530   26.8340   47.2750 C   0  0  0  0  0  0  0  0  0  0  0  0
   60.3730   27.5490   46.3120 C   0  0  0  0  0  0  0  0  0  0  0  0
   59.6990   28.2030   45.2770 C   0  0  0  0  0  0  0  0  0  0  0  0
   56.7370   31.2060   44.4840 N   0  0  0  0  0  0  0  0  0  0  0  0
   57.3910   32.0010   45.5150 C   0  0  0  0  0  0  0  0  0  0  0  0
   58.5450   31.2000   46.1230 C   0  0  0  0  0  0  0  0  0  0  0  0
   58.9400   31.6800   47.5330 C   0  0  0  0  0  0  0  0  0  0  0  0
   59.6030   30.6170   48.4380 C   0  0  2  0  0  0  0  0  0  0  0  0
   58.5680   30.0050   49.3970 C   0  0  0  0  0  0  0  0  0  0  0  0
   59.2040   29.0230   50.3970 C   0  0  0  0  0  0  0  0  0  0  0  0
   60.6470   28.6410   50.0210 C   0  0  0  0  0  0  0  0  0  0  0  0
   61.5310   29.8230   49.8300 N   0  0  2  0  0  0  0  0  0  0  0  0
   62.0030   30.2940   51.0860 C   0  0  0  0  0  0  0  0  0  0  0  0
   62.8250   29.6770   51.7480 O   0  0  0  0  0  0  0  0  0  0  0  0
   61.5530   31.6570   51.4210 C   0  0  2  0  0  0  0  0  0  0  0  0
   60.8320   31.7580   52.7800 C   0  0  0  0  0  0  0  0  0  0  0  0
   59.3250   31.6330   52.6510 C   0  0  0  0  0  0  0  0  0  0  0  0
   58.6250   32.7550   52.1710 C   0  0  0  0  0  0  0  0  0  0  0  0
   57.2400   32.7320   52.0290 C   0  0  0  0  0  0  0  0  0  0  0  0
   56.5180   31.5920   52.3690 C   0  0  0  0  0  0  0  0  0  0  0  0
   57.1780   30.4590   52.8630 C   0  0  0  0  0  0  0  0  0  0  0  0
   56.4340   29.3230   53.2210 C   0  0  0  0  0  0  0  0  0  0  0  0
   57.0720   28.1930   53.7280 C   0  0  0  0  0  0  0  0  0  0  0  0
   58.4570   28.1840   53.8840 C   0  0  0  0  0  0  0  0  0  0  0  0
   59.2130   29.3060   53.5380 C   0  0  0  0  0  0  0  0  0  0  0  0
   58.5940   30.4630   53.0150 C   0  0  0  0  0  0  0  0  0  0  0  0
   60.6300   32.0140   50.3260 N   0  0  0  0  0  0  0  0  0  0  0  0
   60.8030   33.4420   49.9440 C   0  0  0  0  0  0  0  0  0  0  0  0
   61.7130   33.5870   48.7550 C   0  0  0  0  0  0  0  0  0  0  0  0
   61.1700   33.8230   47.4800 C   0  0  0  0  0  0  0  0  0  0  0  0
   62.0070   33.9330   46.3650 C   0  0  0  0  0  0  0  0  0  0  0  0
   63.3880   33.7860   46.5090 C   0  0  0  0  0  0  0  0  0  0  0  0
   63.9350   33.5210   47.7670 C   0  0  0  0  0  0  0  0  0  0  0  0
   63.1030   33.4120   48.8850 C   0  0  0  0  0  0  0  0  0  0  0  0
   60.8880   31.0280   49.2280 C   0  0  2  0  0  0  0  0  0  0  0  0
   57.0793   28.1060   43.4431 H   0  0  0  0  0  0  0  0  0  0  0  0
   58.3055   29.4428   43.5176 H   0  0  0  0  0  0  0  0  0  0  0  0
   56.4816   27.3960   46.1285 H   0  0  0  0  0  0  0  0  0  0  0  0
   57.6942   26.2182   47.9680 H   0  0  0  0  0  0  0  0  0  0  0  0
   60.1853   26.3153   48.0859 H   0  0  0  0  0  0  0  0  0  0  0  0
   61.4705   27.5965   46.3694 H   0  0  0  0  0  0  0  0  0  0  0  0
   60.2678   28.7686   44.5243 H   0  0  0  0  0  0  0  0  0  0  0  0
   57.7825   32.9277   45.0700 H   0  0  0  0  0  0  0  0  0  0  0  0
   56.6637   32.2503   46.3017 H   0  0  0  0  0  0  0  0  0  0  0  0
   58.2432   30.1440   46.1849 H   0  0  0  0  0  0  0  0  0  0  0  0
   59.4203   31.3420   45.4721 H   0  0  0  0  0  0  0  0  0  0  0  0
   59.6454   32.5166   47.4206 H   0  0  0  0  0  0  0  0  0  0  0  0
   57.9993   31.9560   48.0318 H   0  0  0  0  0  0  0  0  0  0  0  0
   59.9768   29.8792   47.7128 H   0  0  0  0  0  0  0  0  0  0  0  0
   58.0834   30.8171   49.9589 H   0  0  0  0  0  0  0  0  0  0  0  0
   57.8406   29.4438   48.7920 H   0  0  0  0  0  0  0  0  0  0  0  0
   59.2122   29.4910   51.3925 H   0  0  0  0  0  0  0  0  0  0  0  0
   58.6032   28.1017   50.3846 H   0  0  0  0  0  0  0  0  0  0  0  0
   61.0650   28.0170   50.8246 H   0  0  0  0  0  0  0  0  0  0  0  0
   60.6056   28.1031   49.0624 H   0  0  0  0  0  0  0  0  0  0  0  0
   62.3590   29.5380   49.2520 H   0  0  0  0  0  0  0  0  0  0  0  0
   62.4155   32.3329   51.5170 H   0  0  0  0  0  0  0  0  0  0  0  0
   61.1978   30.9525   53.4338 H   0  0  0  0  0  0  0  0  0  0  0  0
   61.0495   32.7511   53.1999 H   0  0  0  0  0  0  0  0  0  0  0  0
   59.1811   33.6656   51.9034 H   0  0  0  0  0  0  0  0  0  0  0  0
   56.7141   33.6191   51.6463 H   0  0  0  0  0  0  0  0  0  0  0  0
   55.4246   31.5803   52.2494 H   0  0  0  0  0  0  0  0  0  0  0  0
   55.3406   29.3254   53.1004 H   0  0  0  0  0  0  0  0  0  0  0  0
   56.4821   27.3070   54.0055 H   0  0  0  0  0  0  0  0  0  0  0  0
   58.9571   27.2886   54.2817 H   0  0  0  0  0  0  0  0  0  0  0  0
   60.3044   29.2886   53.6745 H   0  0  0  0  0  0  0  0  0  0  0  0
   59.8195   33.8675   49.6957 H   0  0  0  0  0  0  0  0  0  0  0  0
   61.2562   33.9745   50.7931 H   0  0  0  0  0  0  0  0  0  0  0  0
   60.0812   33.9217   47.3587 H   0  0  0  0  0  0  0  0  0  0  0  0
   61.5767   34.1356   45.3731 H   0  0  0  0  0  0  0  0  0  0  0  0
   64.0454   33.8788   45.6319 H   0  0  0  0  0  0  0  0  0  0  0  0
   65.0225   33.3979   47.8779 H   0  0  0  0  0  0  0  0  0  0  0  0
   63.5369   33.1884   49.8708 H   0  0  0  0  0  0  0  0  0  0  0  0
   61.5466   31.5097   48.4903 H   0  0  0  0  0  0  0  0  0  0  0  0
  1  2  2  0
  2  3  1  0
  3  4  1  0
  4  5  2  0
  5  6  1  0
  6  7  2  0
  7  8  1  0
  8  9  2  0
  2 10  1  0
 10 11  1  0
 11 12  1  0
 12 13  1  0
 13 14  1  0
 14 15  1  0
 15 16  1  0
 16 17  1  0
 17 18  1  0
 18 19  1  0
 19 20  2  0
 19 21  1  0
 21 22  1  0
 22 23  1  0
 23 24  2  0
 24 25  1  0
 25 26  2  0
 26 27  1  0
 27 28  2  0
 28 29  1  0
 29 30  2  0
 30 31  1  0
 31 32  2  0
 21 33  1  0
 33 34  1  0
 34 35  1  0
 35 36  2  0
 36 37  1  0
 37 38  2  0
 38 39  1  0
 39 40  2  0
 33 41  1  0
  9  4  1  0
 41 14  1  0
 41 18  1  0
 32 23  1  0
 40 35  1  0
 32 27  1  0
  3 42  1  0
  3 43  1  0
  5 44  1  0
  6 45  1  0
  7 46  1  0
  8 47  1  0
  9 48  1  0
 11 49  1  0
 11 50  1  0
 12 51  1  0
 12 52  1  0
 13 53  1  0
 13 54  1  0
 14 55  1  6
 15 56  1  0
 15 57  1  0
 16 58  1  0
 16 59  1  0
 17 60  1  0
 17 61  1  0
 18 62  1  6
 21 63  1  1
 22 64  1  0
 22 65  1  0
 24 66  1  0
 25 67  1  0
 26 68  1  0
 28 69  1  0
 29 70  1  0
 30 71  1  0
 31 72  1  0
 34 73  1  0
 34 74  1  0
 36 75  1  0
 37 76  1  0
 38 77  1  0
 39 78  1  0
 40 79  1  0
 41 80  1  6
M  CHG  2  10  -1  18   1
M  END
>  <UniqueID>  (22) 
18

>  <SMILES>  (22) 
O=C(Cc1ccccc1)[N-]CCC[C@@H]1CCC[N@@H+]2C(=O)C(Cc3cccc4ccccc34)N(Cc3ccccc3)C12

>  <Energy>  (22) 
101.99906831363991

>  <Genealogy>  (22) 
O=C(Cc1ccccc1)[N-]CCCC1CCC[NH+]2C(=O)C(Cc3cccc4ccccc34)N(Cc3ccccc3)C12 (protonated)
O=C(Cc1ccccc1)[N-]CCC[C@@H]1CCC[N@@H+]2C(=O)C(Cc3cccc4ccccc34)N(Cc3ccccc3)C12 (chirality)
O=C(Cc1ccccc1)[N-]CCC[C@@H]1CCC[N@@H+]2C(=O)C(Cc3cccc4ccccc34)N(Cc3ccccc3)C12 (3D coordinates assigned)
O=C(Cc1ccccc1)[N-]CCC[C@@H]1CCC[N@@H+]2C(=O)C(Cc3cccc4ccccc34)N(Cc3ccccc3)C12 (nonaromatic ring conformer: 101.99906831363991 kcal/mol)

>  <smiles>  (22) 
O=C(Cc1ccccc1)NCCCC1CCCN2C(=O)C(Cc3cccc4ccccc34)N(Cc3ccccc3)C12

>  <score_type>  (22) 
oracle

>  <origin>  (22) 
adg

>  <m_score__min__energy>  (22) 
-11.42

>  <m_primary>  (22) 
energy

$$$$
22:0
     RDKit          3D

 32 33  0  0  0  0  0  0  0  0999 V2000
   56.7260   30.3640   43.3740 C   0  0  0  0  0  0  0  0  0  0  0  0
   56.4880   31.0680   44.5880 O   0  0  0  0  0  0  0  0  0  0  0  0
   57.3910   31.9710   45.1700 C   0  0  0  0  0  0  0  0  0  0  0  0
   57.3890   33.3450   44.8620 C   0  0  0  0  0  0  0  0  0  0  0  0
   58.3080   34.2040   45.4710 C   0  0  0  0  0  0  0  0  0  0  0  0
   59.2310   33.7130   46.4050 C   0  0  0  0  0  0  0  0  0  0  0  0
   60.1850   34.6110   46.9970 N   0  0  0  0  0  0  0  0  0  0  0  0
   61.4080   34.1980   47.6300 C   0  0  0  0  0  0  0  0  0  0  0  0
   61.4980   34.2060   49.0300 C   0  0  0  0  0  0  0  0  0  0  0  0
   62.6690   33.7850   49.6660 C   0  0  0  0  0  0  0  0  0  0  0  0
   63.7590   33.3400   48.9090 C   0  0  0  0  0  0  0  0  0  0  0  0
   65.2600   32.7950   49.7260 S   0  0  0  0  0  0  0  0  0  0  0  0
   64.3940   31.5840   50.7720 C   0  0  0  0  0  0  0  0  0  0  0  0
   63.6670   33.3020   47.5130 C   0  0  0  0  0  0  0  0  0  0  0  0
   62.4970   33.7230   46.8750 C   0  0  0  0  0  0  0  0  0  0  0  0
   59.2460   32.3370   46.6950 C   0  0  0  0  0  0  0  0  0  0  0  0
   58.3270   31.4780   46.0850 C   0  0  0  0  0  0  0  0  0  0  0  0
   57.0706   29.3447   43.6027 H   0  0  0  0  0  0  0  0  0  0  0  0
   55.7948   30.3140   42.7905 H   0  0  0  0  0  0  0  0  0  0  0  0
   57.4965   30.8893   42.7905 H   0  0  0  0  0  0  0  0  0  0  0  0
   56.6616   33.7437   44.1395 H   0  0  0  0  0  0  0  0  0  0  0  0
   58.3071   35.2739   45.2154 H   0  0  0  0  0  0  0  0  0  0  0  0
   59.9750   35.6350   46.9650 H   0  0  0  0  0  0  0  0  0  0  0  0
   60.6415   34.5458   49.6308 H   0  0  0  0  0  0  0  0  0  0  0  0
   62.7343   33.8034   50.7639 H   0  0  0  0  0  0  0  0  0  0  0  0
   64.5663   31.8249   51.8314 H   0  0  0  0  0  0  0  0  0  0  0  0
   63.3155   31.6199   50.5585 H   0  0  0  0  0  0  0  0  0  0  0  0
   64.7766   30.5750   50.5585 H   0  0  0  0  0  0  0  0  0  0  0  0
   64.5175   32.9400   46.9166 H   0  0  0  0  0  0  0  0  0  0  0  0
   62.4268   33.6830   45.7780 H   0  0  0  0  0  0  0  0  0  0  0  0
   59.9839   31.9349   47.4048 H   0  0  0  0  0  0  0  0  0  0  0  0
   58.3401   30.4050   46.3268 H   0  0  0  0  0  0  0  0  0  0  0  0
  1  2  1  0
  2  3  1  0
  3  4  2  0
  4  5  1  0
  5  6  2  0
  6  7  1  0
  7  8  1  0
  8  9  2  0
  9 10  1  0
 10 11  2  0
 11 12  1  0
 12 13  1  0
 11 14  1  0
 14 15  2  0
  6 16  1  0
 16 17  2  0
 17  3  1  0
 15  8  1  0
  1 18  1  0
  1 19  1  0
  1 20  1  0
  4 21  1  0
  5 22  1  0
  7 23  1  0
  9 24  1  0
 10 25  1  0
 13 26  1  0
 13 27  1  0
 13 28  1  0
 14 29  1  0
 15 30  1  0
 16 31  1  0
 17 32  1  0
M  END
>  <UniqueID>  (23) 
19

>  <SMILES>  (23) 
COc1ccc(Nc2ccc(SC)cc2)cc1

>  <Energy>  (23) 
32.75707502128474

>  <Genealogy>  (23) 
COc1ccc(Nc2ccc(SC)cc2)cc1 (3D coordinates assigned)
COc1ccc(Nc2ccc(SC)cc2)cc1 (optimized conformer: 32.75707502128474 kcal/mol)

>  <smiles>  (23) 
COc1ccc(Nc2ccc(SC)cc2)cc1

>  <score_type>  (23) 
oracle

>  <origin>  (23) 
adg

>  <m_score__min__energy>  (23) 
-6.1600000000000001

>  <m_primary>  (23) 
energy

$$$$
23:0
     RDKit          3D

 55 56  0  0  0  0  0  0  0  0999 V2000
   60.6360   34.0890   45.5940 O   0  0  0  0  0  0  0  0  0  0  0  0
   60.3600   33.7510   47.0320 S   0  0  0  0  0  0  0  0  0  0  0  0
   59.6940   34.9420   47.6630 O   0  0  0  0  0  0  0  0  0  0  0  0
   59.2740   32.3910   47.1260 N   0  0  0  0  0  0  0  0  0  0  0  0
   58.0780   32.7080   47.9190 C   0  0  0  0  0  0  0  0  0  0  0  0
   57.0560   33.4850   47.0880 C   0  0  0  0  0  0  0  0  0  0  0  0
   56.8520   32.8140   45.8580 O   0  0  0  0  0  0  0  0  0  0  0  0
   57.2250   33.6330   44.7660 C   0  0  0  0  0  0  0  0  0  0  0  0
   58.4690   33.0700   44.0700 C   0  0  0  0  0  0  0  0  0  0  0  0
   58.4130   31.6570   44.0990 O   0  0  0  0  0  0  0  0  0  0  0  0
   57.5600   31.1640   43.0820 C   0  0  0  0  0  0  0  0  0  0  0  0
   56.2250   30.6850   43.6610 C   0  0  0  0  0  0  0  0  0  0  0  0
   56.4400   30.0400   44.9050 O   0  0  0  0  0  0  0  0  0  0  0  0
   57.3610   28.9710   44.7880 C   0  0  0  0  0  0  0  0  0  0  0  0
   58.4370   29.0500   45.8760 C   0  0  0  0  0  0  0  0  0  0  0  0
   58.1970   30.1610   46.6960 O   0  0  0  0  0  0  0  0  0  0  0  0
   61.8460   33.4040   47.9430 C   0  0  0  0  0  0  0  0  0  0  0  0
   63.0690   33.6980   47.3160 C   0  0  0  0  0  0  0  0  0  0  0  0
   64.2830   33.4750   47.9740 C   0  0  0  0  0  0  0  0  0  0  0  0
   64.2930   32.9540   49.2680 C   0  0  0  0  0  0  0  0  0  0  0  0
   63.0880   32.6560   49.9090 C   0  0  0  0  0  0  0  0  0  0  0  0
   61.8590   32.8750   49.2600 C   0  0  0  0  0  0  0  0  0  0  0  0
   60.6250   32.5260   49.9840 C   0  0  0  0  0  0  0  0  0  0  0  0
   60.1360   31.2120   49.9580 C   0  0  0  0  0  0  0  0  0  0  0  0
   58.9550   30.8880   50.6360 C   0  0  0  0  0  0  0  0  0  0  0  0
   58.2520   31.8790   51.3290 C   0  0  0  0  0  0  0  0  0  0  0  0
   58.7280   33.1950   51.3420 C   0  0  0  0  0  0  0  0  0  0  0  0
   59.9110   33.5210   50.6710 C   0  0  0  0  0  0  0  0  0  0  0  0
   58.9590   32.2030   46.1500 H   0  0  0  0  0  0  0  0  0  0  0  0
   57.6195   31.7709   48.2677 H   0  0  0  0  0  0  0  0  0  0  0  0
   58.3805   33.3319   48.7730 H   0  0  0  0  0  0  0  0  0  0  0  0
   56.1046   33.5453   47.6368 H   0  0  0  0  0  0  0  0  0  0  0  0
   57.4297   34.5019   46.8976 H   0  0  0  0  0  0  0  0  0  0  0  0
   56.3951   33.6746   44.0452 H   0  0  0  0  0  0  0  0  0  0  0  0
   57.4541   34.6414   45.1409 H   0  0  0  0  0  0  0  0  0  0  0  0
   58.4964   33.4167   43.0264 H   0  0  0  0  0  0  0  0  0  0  0  0
   59.3745   33.4168   44.5895 H   0  0  0  0  0  0  0  0  0  0  0  0
   57.3681   31.9666   42.3547 H   0  0  0  0  0  0  0  0  0  0  0  0
   58.0550   30.3100   42.5965 H   0  0  0  0  0  0  0  0  0  0  0  0
   55.5608   31.5493   43.8087 H   0  0  0  0  0  0  0  0  0  0  0  0
   55.7618   29.9742   42.9608 H   0  0  0  0  0  0  0  0  0  0  0  0
   56.8201   28.0182   44.8858 H   0  0  0  0  0  0  0  0  0  0  0  0
   57.8513   29.0375   43.8055 H   0  0  0  0  0  0  0  0  0  0  0  0
   58.4104   28.1338   46.4841 H   0  0  0  0  0  0  0  0  0  0  0  0
   59.4258   29.1511   45.4047 H   0  0  0  0  0  0  0  0  0  0  0  0
   57.9650   30.9110   46.0870 H   0  0  0  0  0  0  0  0  0  0  0  0
   63.0715   34.1085   46.2955 H   0  0  0  0  0  0  0  0  0  0  0  0
   65.2319   33.7110   47.4700 H   0  0  0  0  0  0  0  0  0  0  0  0
   65.2488   32.7780   49.7832 H   0  0  0  0  0  0  0  0  0  0  0  0
   63.1002   32.2466   50.9299 H   0  0  0  0  0  0  0  0  0  0  0  0
   60.6816   30.4342   49.4036 H   0  0  0  0  0  0  0  0  0  0  0  0
   58.5798   29.8540   50.6238 H   0  0  0  0  0  0  0  0  0  0  0  0
   57.3251   31.6240   51.8637 H   0  0  0  0  0  0  0  0  0  0  0  0
   58.1703   33.9749   51.8813 H   0  0  0  0  0  0  0  0  0  0  0  0
   60.2820   34.5565   50.6814 H   0  0  0  0  0  0  0  0  0  0  0  0
  1  2  2  0
  2  3  2  0
  2  4  1  0
  4  5  1  0
  5  6  1  0
  6  7  1  0
  7  8  1  0
  8  9  1  0
  9 10  1  0
 10 11  1  0
 11 12  1  0
 12 13  1  0
 13 14  1  0
 14 15  1  0
 15 16  1  0
  2 17  1  0
 17 18  2  0
 18 19  1  0
 19 20  2  0
 20 21  1  0
 21 22  2  0
 22 23  1  0
 23 24  2  0
 24 25  1  0
 25 26  2  0
 26 27  1  0
 27 28  2  0
 22 17  1  0
 28 23  1  0
  4 29  1  0
  5 30  1  0
  5 31  1  0
  6 32  1  0
  6 33  1  0
  8 34  1  0
  8 35  1  0
  9 36  1  0
  9 37  1  0
 11 38  1  0
 11 39  1  0
 12 40  1  0
 12 41  1  0
 14 42  1  0
 14 43  1  0
 15 44  1  0
 15 45  1  0
 16 46  1  0
 18 47  1  0
 19 48  1  0
 20 49  1  0
 21 50  1  0
 24 51  1  0
 25 52  1  0
 26 53  1  0
 27 54  1  0
 28 55  1  0
M  END
>  <UniqueID>  (24) 
20

>  <SMILES>  (24) 
O=S(=O)(NCCOCCOCCOCCO)c1ccccc1-c1ccccc1

>  <Energy>  (24) 
62.005029557846306

>  <Genealogy>  (24) 
O=S(=O)(NCCOCCOCCOCCO)c1ccccc1-c1ccccc1 (3D coordinates assigned)
O=S(=O)(NCCOCCOCCOCCO)c1ccccc1-c1ccccc1 (optimized conformer: 62.005029557846306 kcal/mol)

>  <smiles>  (24) 
O=S(=O)(NCCOCCOCCOCCO)c1ccccc1-c1ccccc1

>  <score_type>  (24) 
oracle

>  <origin>  (24) 
adg

>  <m_score__min__energy>  (24) 
-8.0999999999999996

>  <m_primary>  (24) 
energy

$$$$
24:0
     RDKit          3D

 63 65  0  0  0  0  0  0  0  0999 V2000
   60.4030   30.0520   47.4440 C   0  0  0  0  0  0  0  0  0  0  0  0
   60.2190   30.0790   45.9720 N   0  0  1  0  0  0  0  0  0  0  0  0
   60.7710   28.7990   45.4290 C   0  0  0  0  0  0  0  0  0  0  0  0
   59.7440   27.6860   45.3550 C   0  0  0  0  0  0  0  0  0  0  0  0
   58.9910   27.4880   44.1860 C   0  0  0  0  0  0  0  0  0  0  0  0
   58.0450   26.4630   44.1180 C   0  0  0  0  0  0  0  0  0  0  0  0
   57.8090   25.6360   45.2300 C   0  0  0  0  0  0  0  0  0  0  0  0
   56.8490   24.5650   45.1520 N   0  0  0  0  0  0  0  0  0  0  0  0
   57.2120   23.2670   44.5660 C   0  0  0  0  0  0  0  0  0  0  0  0
   56.2720   22.9260   43.3990 C   0  0  0  0  0  0  0  0  0  0  0  0
   54.8110   23.3690   43.6380 C   0  0  0  0  0  0  0  0  0  0  0  0
   54.5210   23.6880   45.1100 C   0  0  0  0  0  0  0  0  0  0  0  0
   55.4700   24.7850   45.6170 C   0  0  0  0  0  0  0  0  0  0  0  0
   58.5400   25.8540   46.4090 C   0  0  0  0  0  0  0  0  0  0  0  0
   59.4900   26.8770   46.4750 C   0  0  0  0  0  0  0  0  0  0  0  0
   58.7710   30.3200   45.6410 C   0  0  0  0  0  0  0  0  0  0  0  0
   58.1930   31.5460   46.4230 C   0  0  0  0  0  0  0  0  0  0  0  0
   57.8640   32.8020   45.5680 C   0  0  0  0  0  0  0  0  0  0  0  0
   59.1660   33.5350   45.1530 C   0  0  0  0  0  0  0  0  0  0  0  0
   57.0480   33.7730   46.4440 C   0  0  0  0  0  0  0  0  0  0  0  0
   57.0260   32.4820   44.3860 N   0  0  0  0  0  0  0  0  0  0  0  0
   57.1400   31.1280   43.7880 C   0  0  0  0  0  0  0  0  0  0  0  0
   55.9580   30.2670   44.2810 C   0  0  0  0  0  0  0  0  0  0  0  0
   57.0270   31.2320   42.2470 C   0  0  0  0  0  0  0  0  0  0  0  0
   58.4910   30.4550   44.1220 C   0  0  0  0  0  0  0  0  0  0  0  0
   59.4305   30.1947   47.9378 H   0  0  0  0  0  0  0  0  0  0  0  0
   60.8271   29.0820   47.7428 H   0  0  0  0  0  0  0  0  0  0  0  0
   61.0879   30.8593   47.7428 H   0  0  0  0  0  0  0  0  0  0  0  0
   60.7790   30.8870   45.6120 H   0  0  0  0  0  0  0  0  0  0  0  0
   61.1558   28.9868   44.4158 H   0  0  0  0  0  0  0  0  0  0  0  0
   61.5617   28.4672   46.1180 H   0  0  0  0  0  0  0  0  0  0  0  0
   59.1476   28.1450   43.3178 H   0  0  0  0  0  0  0  0  0  0  0  0
   57.4805   26.3016   43.1878 H   0  0  0  0  0  0  0  0  0  0  0  0
   58.2471   23.3126   44.1966 H   0  0  0  0  0  0  0  0  0  0  0  0
   57.1208   22.4884   45.3377 H   0  0  0  0  0  0  0  0  0  0  0  0
   56.6445   23.4271   42.4934 H   0  0  0  0  0  0  0  0  0  0  0  0
   56.2665   21.8309   43.2959 H   0  0  0  0  0  0  0  0  0  0  0  0
   54.6139   24.2694   43.0376 H   0  0  0  0  0  0  0  0  0  0  0  0
   54.1588   22.5330   43.3451 H   0  0  0  0  0  0  0  0  0  0  0  0
   53.4815   24.0342   45.2079 H   0  0  0  0  0  0  0  0  0  0  0  0
   54.6743   22.7784   45.7093 H   0  0  0  0  0  0  0  0  0  0  0  0
   55.1195   25.7596   45.2466 H   0  0  0  0  0  0  0  0  0  0  0  0
   55.4693   24.7597   46.7167 H   0  0  0  0  0  0  0  0  0  0  0  0
   58.3637   25.2151   47.2869 H   0  0  0  0  0  0  0  0  0  0  0  0
   60.0426   27.0498   47.4103 H   0  0  0  0  0  0  0  0  0  0  0  0
   58.2446   29.4130   45.9730 H   0  0  0  0  0  0  0  0  0  0  0  0
   57.2655   31.2230   46.9185 H   0  0  0  0  0  0  0  0  0  0  0  0
   58.9871   31.8579   47.1173 H   0  0  0  0  0  0  0  0  0  0  0  0
   59.7157   33.8445   46.0541 H   0  0  0  0  0  0  0  0  0  0  0  0
   59.7935   32.8576   44.5552 H   0  0  0  0  0  0  0  0  0  0  0  0
   58.9123   34.4229   44.5552 H   0  0  0  0  0  0  0  0  0  0  0  0
   57.2331   33.5528   47.5057 H   0  0  0  0  0  0  0  0  0  0  0  0
   57.3519   34.8074   46.2257 H   0  0  0  0  0  0  0  0  0  0  0  0
   55.9767   33.6517   46.2257 H   0  0  0  0  0  0  0  0  0  0  0  0
   57.1100   33.2420   43.6700 H   0  0  0  0  0  0  0  0  0  0  0  0
   55.9450   30.2575   45.3809 H   0  0  0  0  0  0  0  0  0  0  0  0
   55.0144   30.6909   43.9068 H   0  0  0  0  0  0  0  0  0  0  0  0
   56.0721   29.2389   43.9068 H   0  0  0  0  0  0  0  0  0  0  0  0
   56.2409   31.9555   41.9850 H   0  0  0  0  0  0  0  0  0  0  0  0
   57.9881   31.5680   41.8307 H   0  0  0  0  0  0  0  0  0  0  0  0
   56.7717   30.2463   41.8307 H   0  0  0  0  0  0  0  0  0  0  0  0
   58.4945   29.4482   43.6790 H   0  0  0  0  0  0  0  0  0  0  0  0
   59.2790   31.1024   43.7099 H   0  0  0  0  0  0  0  0  0  0  0  0
  1  2  1  0
  2  3  1  0
  3  4  1  0
  4  5  2  0
  5  6  1  0
  6  7  2  0
  7  8  1  0
  8  9  1  0
  9 10  1  0
 10 11  1  0
 11 12  1  0
 12 13  1  0
  7 14  1  0
 14 15  2  0
  2 16  1  0
 16 17  1  0
 17 18  1  0
 18 19  1  0
 18 20  1  0
 18 21  1  0
 21 22  1  0
 22 23  1  0
 22 24  1  0
 22 25  1  0
 15  4  1  0
 25 16  1  0
 13  8  1  0
  1 26  1  0
  1 27  1  0
  1 28  1  0
  2 29  1  6
  3 30  1  0
  3 31  1  0
  5 32  1  0
  6 33  1  0
  9 34  1  0
  9 35  1  0
 10 36  1  0
 10 37  1  0
 11 38  1  0
 11 39  1  0
 12 40  1  0
 12 41  1  0
 13 42  1  0
 13 43  1  0
 14 44  1  0
 15 45  1  0
 16 46  1  0
 17 47  1  0
 17 48  1  0
 19 49  1  0
 19 50  1  0
 19 51  1  0
 20 52  1  0
 20 53  1  0
 20 54  1  0
 21 55  1  0
 23 56  1  0
 23 57  1  0
 23 58  1  0
 24 59  1  0
 24 60  1  0
 24 61  1  0
 25 62  1  0
 25 63  1  0
M  CHG  1   2   1
M  END
>  <UniqueID>  (25) 
21

>  <SMILES>  (25) 
C[N@@H+](Cc1ccc(N2CCCCC2)cc1)C1CC(C)(C)NC(C)(C)C1

>  <Energy>  (25) 
86.75593755559733

>  <Genealogy>  (25) 
C[NH+](Cc1ccc(N2CCCCC2)cc1)C1CC(C)(C)NC(C)(C)C1 (protonated)
C[N@@H+](Cc1ccc(N2CCCCC2)cc1)C1CC(C)(C)NC(C)(C)C1 (chirality)
C[N@@H+](Cc1ccc(N2CCCCC2)cc1)C1CC(C)(C)NC(C)(C)C1 (3D coordinates assigned)
C[N@@H+](Cc1ccc(N2CCCCC2)cc1)C1CC(C)(C)NC(C)(C)C1 (nonaromatic ring conformer: 86.75593755559733 kcal/mol)

>  <smiles>  (25) 
CN(Cc1ccc(N2CCCCC2)cc1)C1CC(C)(C)NC(C)(C)C1

>  <score_type>  (25) 
oracle

>  <origin>  (25) 
adg

>  <m_score__min__energy>  (25) 
-7.0300000000000002

>  <m_primary>  (25) 
energy

$$$$
25:0
     RDKit          3D

 32 33  0  0  0  0  0  0  0  0999 V2000
   59.4460   34.9800   45.9390 C   0  0  0  0  0  0  0  0  0  0  0  0
   58.8000   33.7110   45.4700 C   0  0  0  0  0  0  0  0  0  0  0  0
   58.4140   32.7300   46.3960 C   0  0  0  0  0  0  0  0  0  0  0  0
   57.7760   31.5640   45.9620 C   0  0  0  0  0  0  0  0  0  0  0  0
   57.5040   31.3730   44.6000 C   0  0  0  0  0  0  0  0  0  0  0  0
   56.6820   29.9180   44.0410 S   0  0  0  0  0  0  0  0  0  0  0  0
   56.2700   30.0720   42.6030 O   0  0  0  0  0  0  0  0  0  0  0  0
   55.4490   29.7060   44.8730 O   0  0  0  0  0  0  0  0  0  0  0  0
   57.7500   28.4890   44.1950 C   0  0  0  0  0  0  0  0  0  0  0  0
   59.2050   28.8710   44.4920 C   0  0  0  0  0  0  0  0  0  0  0  0
   59.4550   28.9530   45.9310 N   0  0  0  0  0  0  0  0  0  0  0  0
   58.7670   28.3130   46.8970 C   0  0  0  0  0  0  0  0  0  0  0  0
   59.2920   28.6360   48.1310 C   0  0  0  0  0  0  0  0  0  0  0  0
   60.3440   29.5020   47.9000 C   0  0  0  0  0  0  0  0  0  0  0  0
   60.4190   29.6750   46.5330 C   0  0  0  0  0  0  0  0  0  0  0  0
   57.8750   32.3580   43.6760 C   0  0  0  0  0  0  0  0  0  0  0  0
   58.5130   33.5240   44.1090 C   0  0  0  0  0  0  0  0  0  0  0  0
   59.4568   35.0012   47.0387 H   0  0  0  0  0  0  0  0  0  0  0  0
   60.4780   35.0275   45.5612 H   0  0  0  0  0  0  0  0  0  0  0  0
   58.8772   35.8424   45.5612 H   0  0  0  0  0  0  0  0  0  0  0  0
   58.6141   32.8788   47.4674 H   0  0  0  0  0  0  0  0  0  0  0  0
   57.4864   30.7937   46.6919 H   0  0  0  0  0  0  0  0  0  0  0  0
   57.3772   27.8569   45.0145 H   0  0  0  0  0  0  0  0  0  0  0  0
   57.7347   27.9558   43.2330 H   0  0  0  0  0  0  0  0  0  0  0  0
   59.8701   28.1108   44.0565 H   0  0  0  0  0  0  0  0  0  0  0  0
   59.3989   29.8600   44.0512 H   0  0  0  0  0  0  0  0  0  0  0  0
   57.9165   27.6363   46.7273 H   0  0  0  0  0  0  0  0  0  0  0  0
   58.9414   28.2745   49.1090 H   0  0  0  0  0  0  0  0  0  0  0  0
   60.9944   29.9632   48.6578 H   0  0  0  0  0  0  0  0  0  0  0  0
   61.1547   30.3069   46.0139 H   0  0  0  0  0  0  0  0  0  0  0  0
   57.6637   32.2136   42.6062 H   0  0  0  0  0  0  0  0  0  0  0  0
   58.7915   34.2987   43.3794 H   0  0  0  0  0  0  0  0  0  0  0  0
  1  2  1  0
  2  3  2  0
  3  4  1  0
  4  5  2  0
  5  6  1  0
  6  7  2  0
  6  8  2  0
  6  9  1  0
  9 10  1  0
 10 11  1  0
 11 12  1  0
 12 13  2  0
 13 14  1  0
 14 15  2  0
  5 16  1  0
 16 17  2  0
 17  2  1  0
 15 11  1  0
  1 18  1  0
  1 19  1  0
  1 20  1  0
  3 21  1  0
  4 22  1  0
  9 23  1  0
  9 24  1  0
 10 25  1  0
 10 26  1  0
 12 27  1  0
 13 28  1  0
 14 29  1  0
 15 30  1  0
 16 31  1  0
 17 32  1  0
M  END
>  <UniqueID>  (26) 
22

>  <SMILES>  (26) 
Cc1ccc(S(=O)(=O)CCn2cccc2)cc1

>  <Energy>  (26) 
50.25272153723033

>  <Genealogy>  (26) 
Cc1ccc(S(=O)(=O)CCn2cccc2)cc1 (3D coordinates assigned)
Cc1ccc(S(=O)(=O)CCn2cccc2)cc1 (optimized conformer: 50.25272153723033 kcal/mol)

>  <smiles>  (26) 
Cc1ccc(S(=O)(=O)CCn2cccc2)cc1

>  <score_type>  (26) 
oracle

>  <origin>  (26) 
adg

>  <m_score__min__energy>  (26) 
-6.8899999999999997

>  <m_primary>  (26) 
energy

$$$$
26:0
     RDKit          3D

 52 55  0  0  0  0  0  0  0  0999 V2000
   63.0460   33.8220   46.4500 C   0  0  0  0  0  0  0  0  0  0  0  0
   61.6980   33.8380   47.1070 C   0  0  0  0  0  0  0  0  0  0  0  0
   60.5810   34.3050   46.4050 C   0  0  0  0  0  0  0  0  0  0  0  0
   59.3290   34.2780   47.0150 C   0  0  0  0  0  0  0  0  0  0  0  0
   59.1930   33.7910   48.2750 N   0  0  0  0  0  0  0  0  0  0  0  0
   60.2490   33.3100   48.9920 C   0  0  0  0  0  0  0  0  0  0  0  0
   60.0370   32.8060   50.3330 N   0  0  0  0  0  0  0  0  0  0  0  0
   60.8820   31.7210   50.8600 C   0  0  0  0  0  0  0  0  0  0  0  0
   60.0710   30.6970   51.6920 C   0  0  0  0  0  0  0  0  0  0  0  0
   58.7250   31.1850   52.0860 N   0  0  0  0  0  0  0  0  0  0  0  0
   58.1570   30.3480   53.1840 C   0  0  0  0  0  0  0  0  0  0  0  0
   56.7420   29.8010   52.8610 C   0  0  1  0  0  0  0  0  0  0  0  0
   56.0300   29.3700   54.1550 C   0  0  0  0  0  0  0  0  0  0  0  0
   54.7340   28.8530   53.8630 O   0  0  0  0  0  0  0  0  0  0  0  0
   53.9200   29.4070   52.8710 C   0  0  0  0  0  0  0  0  0  0  0  0
   52.5930   28.9880   52.7510 C   0  0  0  0  0  0  0  0  0  0  0  0
   51.7690   29.5330   51.7630 C   0  0  0  0  0  0  0  0  0  0  0  0
   52.2650   30.5070   50.8780 C   0  0  0  0  0  0  0  0  0  0  0  0
   51.4160   31.0770   49.8640 N   0  0  0  0  0  0  0  0  0  0  0  0
   51.0150   32.2550   49.9570 O   0  0  0  0  0  0  0  0  0  0  0  0
   51.0330   30.3310   48.7720 O   0  0  0  0  0  0  0  0  0  0  0  0
   53.6040   30.9200   50.9980 C   0  0  0  0  0  0  0  0  0  0  0  0
   54.4370   30.3630   51.9790 C   0  0  0  0  0  0  0  0  0  0  0  0
   55.8650   30.8330   52.1180 C   0  0  0  0  0  0  0  0  0  0  0  0
   58.8050   32.6080   52.4780 C   0  0  0  0  0  0  0  0  0  0  0  0
   59.0930   33.4730   51.2450 C   0  0  0  0  0  0  0  0  0  0  0  0
   61.5300   33.3230   48.4010 C   0  0  0  0  0  0  0  0  0  0  0  0
   63.8299   33.8127   47.2216 H   0  0  0  0  0  0  0  0  0  0  0  0
   63.1378   32.9227   45.8232 H   0  0  0  0  0  0  0  0  0  0  0  0
   63.1591   34.7189   45.8232 H   0  0  0  0  0  0  0  0  0  0  0  0
   60.6908   34.6900   45.3804 H   0  0  0  0  0  0  0  0  0  0  0  0
   58.4475   34.6525   46.4740 H   0  0  0  0  0  0  0  0  0  0  0  0
   61.3528   31.1970   50.0152 H   0  0  0  0  0  0  0  0  0  0  0  0
   61.6354   32.1722   51.5225 H   0  0  0  0  0  0  0  0  0  0  0  0
   59.9480   29.7822   51.0937 H   0  0  0  0  0  0  0  0  0  0  0  0
   60.6336   30.5171   52.6200 H   0  0  0  0  0  0  0  0  0  0  0  0
   58.1120   31.1050   51.2380 H   0  0  0  0  0  0  0  0  0  0  0  0
   58.8303   29.4960   53.3591 H   0  0  0  0  0  0  0  0  0  0  0  0
   58.0660   30.9898   54.0727 H   0  0  0  0  0  0  0  0  0  0  0  0
   56.8802   28.9352   52.1967 H   0  0  0  0  0  0  0  0  0  0  0  0
   56.6261   28.5920   54.6543 H   0  0  0  0  0  0  0  0  0  0  0  0
   55.9240   30.2461   54.8116 H   0  0  0  0  0  0  0  0  0  0  0  0
   52.1950   28.2259   53.4371 H   0  0  0  0  0  0  0  0  0  0  0  0
   50.7249   29.1979   51.6767 H   0  0  0  0  0  0  0  0  0  0  0  0
   54.0013   31.6866   50.3165 H   0  0  0  0  0  0  0  0  0  0  0  0
   56.2840   30.9987   51.1145 H   0  0  0  0  0  0  0  0  0  0  0  0
   55.8619   31.7631   52.7053 H   0  0  0  0  0  0  0  0  0  0  0  0
   57.8490   32.9175   52.9255 H   0  0  0  0  0  0  0  0  0  0  0  0
   59.6166   32.7374   53.2091 H   0  0  0  0  0  0  0  0  0  0  0  0
   58.1500   33.6605   50.7105 H   0  0  0  0  0  0  0  0  0  0  0  0
   59.5439   34.4183   51.5813 H   0  0  0  0  0  0  0  0  0  0  0  0
   62.3958   32.9299   48.9541 H   0  0  0  0  0  0  0  0  0  0  0  0
  1  2  1  0
  2  3  2  0
  3  4  1  0
  4  5  2  0
  5  6  1  0
  6  7  1  0
  7  8  1  0
  8  9  1  0
  9 10  1  0
 10 11  1  0
 11 12  1  0
 12 13  1  0
 13 14  1  0
 14 15  1  0
 15 16  2  0
 16 17  1  0
 17 18  2  0
 18 19  1  0
 19 20  2  0
 19 21  1  0
 18 22  1  0
 22 23  2  0
 23 24  1  0
 10 25  1  0
 25 26  1  0
  6 27  2  0
 27  2  1  0
 26  7  1  0
 24 12  1  0
 23 15  1  0
  1 28  1  0
  1 29  1  0
  1 30  1  0
  3 31  1  0
  4 32  1  0
  8 33  1  0
  8 34  1  0
  9 35  1  0
  9 36  1  0
 10 37  1  0
 11 38  1  0
 11 39  1  0
 12 40  1  6
 13 41  1  0
 13 42  1  0
 16 43  1  0
 17 44  1  0
 22 45  1  0
 24 46  1  0
 24 47  1  0
 25 48  1  0
 25 49  1  0
 26 50  1  0
 26 51  1  0
 27 52  1  0
M  CHG  3  10   1  19   1  21  -1
M  END
>  <UniqueID>  (27) 
23

>  <SMILES>  (27) 
Cc1ccnc(N2CC[NH+](C[C@H]3COc4ccc([N+](=O)[O-])cc4C3)CC2)c1

>  <Energy>  (27) 
67.87483737224154

>  <Genealogy>  (27) 
Cc1ccnc(N2CC[NH+](CC3COc4ccc([N+](=O)[O-])cc4C3)CC2)c1 (protonated)
Cc1ccnc(N2CC[NH+](C[C@H]3COc4ccc([N+](=O)[O-])cc4C3)CC2)c1 (chirality)
Cc1ccnc(N2CC[NH+](C[C@H]3COc4ccc([N+](=O)[O-])cc4C3)CC2)c1 (3D coordinates assigned)
Cc1ccnc(N2CC[NH+](C[C@H]3COc4ccc([N+](=O)[O-])cc4C3)CC2)c1 (nonaromatic ring conformer: 67.87483737224154 kcal/mol)

>  <smiles>  (27) 
Cc1ccnc(N2CCN(CC3COc4ccc([N+](=O)[O-])cc4C3)CC2)c1

>  <score_type>  (27) 
oracle

>  <origin>  (27) 
adg

>  <m_score__min__energy>  (27) 
-7.25

>  <m_primary>  (27) 
energy

$$$$
27:0
     RDKit          3D

 25 26  0  0  0  0  0  0  0  0999 V2000
   58.2490   28.9590   45.7700 C   0  0  0  0  0  0  0  0  0  0  0  0
   57.5180   30.1580   46.0040 O   0  0  0  0  0  0  0  0  0  0  0  0
   58.0830   31.4420   46.0540 C   0  0  0  0  0  0  0  0  0  0  0  0
   58.6000   31.9710   47.2520 C   0  0  0  0  0  0  0  0  0  0  0  0
   59.1150   33.2680   47.2920 C   0  0  0  0  0  0  0  0  0  0  0  0
   59.1330   34.0580   46.1380 C   0  0  0  0  0  0  0  0  0  0  0  0
   59.6450   35.4670   46.1940 C   0  0  0  0  0  0  0  0  0  0  0  0
   58.6120   33.5420   44.9440 C   0  0  0  0  0  0  0  0  0  0  0  0
   58.1070   32.2330   44.8820 C   0  0  0  0  0  0  0  0  0  0  0  0
   57.6020   31.7350   43.6290 N   0  0  0  0  0  0  0  0  0  0  0  0
   57.7720   32.2380   42.3900 C   0  0  0  0  0  0  0  0  0  0  0  0
   57.0810   31.5040   41.4980 N   0  0  0  0  0  0  0  0  0  0  0  0
   56.4950   30.5620   42.2220 N   0  0  0  0  0  0  0  0  0  0  0  0
   56.7930   30.6970   43.5030 N   0  0  0  0  0  0  0  0  0  0  0  0
   58.5260   28.5046   46.7327 H   0  0  0  0  0  0  0  0  0  0  0  0
   57.6260   28.2554   45.1982 H   0  0  0  0  0  0  0  0  0  0  0  0
   59.1598   29.1905   45.1982 H   0  0  0  0  0  0  0  0  0  0  0  0
   58.5981   31.3569   48.1646 H   0  0  0  0  0  0  0  0  0  0  0  0
   59.5089   33.6710   48.2367 H   0  0  0  0  0  0  0  0  0  0  0  0
   59.7569   35.7750   47.2441 H   0  0  0  0  0  0  0  0  0  0  0  0
   60.6209   35.5228   45.6895 H   0  0  0  0  0  0  0  0  0  0  0  0
   58.9326   36.1363   45.6895 H   0  0  0  0  0  0  0  0  0  0  0  0
   58.5983   34.1714   44.0420 H   0  0  0  0  0  0  0  0  0  0  0  0
   58.3846   33.1179   42.1443 H   0  0  0  0  0  0  0  0  0  0  0  0
   55.8720   29.8190   41.8350 H   0  0  0  0  0  0  0  0  0  0  0  0
  1  2  1  0
  2  3  1  0
  3  4  2  0
  4  5  1  0
  5  6  2  0
  6  7  1  0
  6  8  1  0
  8  9  2  0
  9 10  1  0
 10 11  1  0
 11 12  2  0
 12 13  1  0
 13 14  2  0
  9  3  1  0
 14 10  1  0
  1 15  1  0
  1 16  1  0
  1 17  1  0
  4 18  1  0
  5 19  1  0
  7 20  1  0
  7 21  1  0
  7 22  1  0
  8 23  1  0
 11 24  1  0
 13 25  1  0
M  CHG  1  13   1
M  END
>  <UniqueID>  (28) 
24

>  <SMILES>  (28) 
COc1ccc(C)cc1-n1cn[nH+]n1

>  <Energy>  (28) 
68.18626515139074

>  <Genealogy>  (28) 
COc1ccc(C)cc1-n1cn[nH+]n1 (protonated)
COc1ccc(C)cc1-n1cn[nH+]n1 (3D coordinates assigned)
COc1ccc(C)cc1-n1cn[nH+]n1 (optimized conformer: 68.18626515139074 kcal/mol)

>  <smiles>  (28) 
COc1ccc(C)cc1-n1cnnn1

>  <score_type>  (28) 
oracle

>  <origin>  (28) 
adg

>  <m_score__min__energy>  (28) 
-4.4900000000000002

>  <m_primary>  (28) 
energy

$$$$
28:0
     RDKit          3D

 44 46  0  0  0  0  0  0  0  0999 V2000
   61.3160   33.6710   46.8890 C   0  0  0  0  0  0  0  0  0  0  0  0
   59.9130   33.9810   47.2040 N   0  0  0  0  0  0  0  0  0  0  0  0
   59.7570   34.3680   48.6150 C   0  0  0  0  0  0  0  0  0  0  0  0
   59.3110   34.9540   46.2660 C   0  0  0  0  0  0  0  0  0  0  0  0
   58.9770   34.3720   44.8740 C   0  0  0  0  0  0  0  0  0  0  0  0
   57.6600   33.5880   44.8860 C   0  0  0  0  0  0  0  0  0  0  0  0
   57.8730   32.2080   45.3190 N   0  0  0  0  0  0  0  0  0  0  0  0
   57.6590   31.1040   44.5770 C   0  0  0  0  0  0  0  0  0  0  0  0
   58.0400   30.0000   45.3190 C   0  0  0  0  0  0  0  0  0  0  0  0
   57.8900   28.5940   44.9040 C   0  0  0  0  0  0  0  0  0  0  0  0
   58.4050   28.0100   43.7490 C   0  0  0  0  0  0  0  0  0  0  0  0
   58.1390   26.6390   43.6550 C   0  0  0  0  0  0  0  0  0  0  0  0
   57.4290   26.1460   44.7380 C   0  0  0  0  0  0  0  0  0  0  0  0
   56.9360   24.4820   44.9670 Cl  0  0  0  0  0  0  0  0  0  0  0  0
   57.1320   27.3990   45.8170 S   0  0  0  0  0  0  0  0  0  0  0  0
   58.5070   30.5200   46.5260 C   0  0  0  0  0  0  0  0  0  0  0  0
   59.1500   29.7960   47.6400 C   0  0  0  0  0  0  0  0  0  0  0  0
   59.7740   28.5540   47.4260 C   0  0  0  0  0  0  0  0  0  0  0  0
   60.4000   27.8880   48.4840 C   0  0  0  0  0  0  0  0  0  0  0  0
   60.4220   28.4610   49.7600 C   0  0  0  0  0  0  0  0  0  0  0  0
   61.2080   27.6230   51.0850 Cl  0  0  0  0  0  0  0  0  0  0  0  0
   59.8210   29.7050   49.9750 C   0  0  0  0  0  0  0  0  0  0  0  0
   59.1940   30.3740   48.9190 C   0  0  0  0  0  0  0  0  0  0  0  0
   58.3830   31.8610   46.4890 N   0  0  0  0  0  0  0  0  0  0  0  0
   61.8826   33.5458   47.8235 H   0  0  0  0  0  0  0  0  0  0  0  0
   61.3635   32.7407   46.3040 H   0  0  0  0  0  0  0  0  0  0  0  0
   61.7511   34.4947   46.3040 H   0  0  0  0  0  0  0  0  0  0  0  0
   60.0899   33.5420   49.2607 H   0  0  0  0  0  0  0  0  0  0  0  0
   60.3652   35.2614   48.8196 H   0  0  0  0  0  0  0  0  0  0  0  0
   58.6992   34.5899   48.8196 H   0  0  0  0  0  0  0  0  0  0  0  0
   58.3803   35.3332   46.7132 H   0  0  0  0  0  0  0  0  0  0  0  0
   60.0608   35.7429   46.1061 H   0  0  0  0  0  0  0  0  0  0  0  0
   58.8927   35.1987   44.1533 H   0  0  0  0  0  0  0  0  0  0  0  0
   59.7840   33.6806   44.5899 H   0  0  0  0  0  0  0  0  0  0  0  0
   56.9572   34.0768   45.5767 H   0  0  0  0  0  0  0  0  0  0  0  0
   57.2520   33.5747   43.8646 H   0  0  0  0  0  0  0  0  0  0  0  0
   57.2510   31.0838   43.5557 H   0  0  0  0  0  0  0  0  0  0  0  0
   58.9653   28.5707   42.9863 H   0  0  0  0  0  0  0  0  0  0  0  0
   58.4609   26.0161   42.8074 H   0  0  0  0  0  0  0  0  0  0  0  0
   59.7695   28.1046   46.4220 H   0  0  0  0  0  0  0  0  0  0  0  0
   60.8762   26.9114   48.3127 H   0  0  0  0  0  0  0  0  0  0  0  0
   59.8414   30.1585   50.9770 H   0  0  0  0  0  0  0  0  0  0  0  0
   58.7330   31.3578   49.0911 H   0  0  0  0  0  0  0  0  0  0  0  0
   58.6840   32.5340   47.2310 H   0  0  0  0  0  0  0  0  0  0  0  0
  1  2  1  0
  2  3  1  0
  2  4  1  0
  4  5  1  0
  5  6  1  0
  6  7  1  0
  7  8  1  0
  8  9  2  0
  9 10  1  0
 10 11  2  0
 11 12  1  0
 12 13  2  0
 13 14  1  0
 13 15  1  0
  9 16  1  0
 16 17  1  0
 17 18  2  0
 18 19  1  0
 19 20  2  0
 20 21  1  0
 20 22  1  0
 22 23  2  0
 16 24  2  0
 24  7  1  0
 15 10  1  0
 23 17  1  0
  1 25  1  0
  1 26  1  0
  1 27  1  0
  3 28  1  0
  3 29  1  0
  3 30  1  0
  4 31  1  0
  4 32  1  0
  5 33  1  0
  5 34  1  0
  6 35  1  0
  6 36  1  0
  8 37  1  0
 11 38  1  0
 12 39  1  0
 18 40  1  0
 19 41  1  0
 22 42  1  0
 23 43  1  0
 24 44  1  0
M  CHG  1  24   1
M  END
>  <UniqueID>  (29) 
25

>  <SMILES>  (29) 
CN(C)CCCn1cc(-c2ccc(Cl)s2)c(-c2ccc(Cl)cc2)[nH+]1

>  <Energy>  (29) 
106.88274326606326

>  <Genealogy>  (29) 
CN(C)CCCn1cc(-c2ccc(Cl)s2)c(-c2ccc(Cl)cc2)[nH+]1 (protonated)
CN(C)CCCn1cc(-c2ccc(Cl)s2)c(-c2ccc(Cl)cc2)[nH+]1 (3D coordinates assigned)
CN(C)CCCn1cc(-c2ccc(Cl)s2)c(-c2ccc(Cl)cc2)[nH+]1 (optimized conformer: 106.88274326606326 kcal/mol)

>  <smiles>  (29) 
CN(C)CCCn1cc(-c2ccc(Cl)s2)c(-c2ccc(Cl)cc2)n1

>  <score_type>  (29) 
oracle

>  <origin>  (29) 
adg

>  <m_score__min__energy>  (29) 
-6.6299999999999999

>  <m_primary>  (29) 
energy

$$$$
29:0
     RDKit          3D

 44 46  0  0  0  0  0  0  0  0999 V2000
   60.7400   33.9960   47.8060 C   0  0  0  0  0  0  0  0  0  0  0  0
   61.3380   32.7300   47.1670 C   0  0  1  0  0  0  0  0  0  0  0  0
   62.8010   32.5410   47.5920 C   0  0  0  0  0  0  0  0  0  0  0  0
   62.8790   32.2470   49.0260 N   0  0  0  0  0  0  0  0  0  0  0  0
   63.9300   32.8200   49.8230 C   0  0  0  0  0  0  0  0  0  0  0  0
   65.2470   32.3450   49.7090 C   0  0  0  0  0  0  0  0  0  0  0  0
   66.2660   32.8990   50.4890 C   0  0  0  0  0  0  0  0  0  0  0  0
   65.9790   33.9320   51.3910 C   0  0  0  0  0  0  0  0  0  0  0  0
   67.0290   34.5020   52.1940 C   0  0  0  0  0  0  0  0  0  0  0  0
   67.8730   34.9620   52.8390 N   0  0  0  0  0  0  0  0  0  0  0  0
   64.6680   34.4070   51.5100 C   0  0  0  0  0  0  0  0  0  0  0  0
   63.6480   33.8540   50.7310 C   0  0  0  0  0  0  0  0  0  0  0  0
   61.8490   31.4250   49.6730 C   0  0  0  0  0  0  0  0  0  0  0  0
   60.9690   30.6860   48.6540 C   0  0  0  0  0  0  0  0  0  0  0  0
   60.5420   31.5350   47.5210 N   0  0  0  0  0  0  0  0  0  0  0  0
   59.4660   31.0750   46.6500 C   0  0  0  0  0  0  0  0  0  0  0  0
   58.6630   31.9870   45.9310 C   0  0  0  0  0  0  0  0  0  0  0  0
   57.6310   31.5390   45.1010 C   0  0  0  0  0  0  0  0  0  0  0  0
   57.3650   30.1690   44.9610 C   0  0  0  0  0  0  0  0  0  0  0  0
   56.2690   29.7120   44.0730 C   0  0  0  0  0  0  0  0  0  0  0  0
   56.4540   29.5870   42.6600 N   0  0  0  0  0  0  0  0  0  0  0  0
   55.1500   29.4090   44.5690 O   0  0  0  0  0  0  0  0  0  0  0  0
   58.1700   29.2530   45.6560 C   0  0  0  0  0  0  0  0  0  0  0  0
   59.2030   29.6980   46.4860 C   0  0  0  0  0  0  0  0  0  0  0  0
   60.7814   33.9083   48.9017 H   0  0  0  0  0  0  0  0  0  0  0  0
   61.3177   34.8759   47.4865 H   0  0  0  0  0  0  0  0  0  0  0  0
   59.6935   34.1087   47.4865 H   0  0  0  0  0  0  0  0  0  0  0  0
   61.3073   32.8573   46.0748 H   0  0  0  0  0  0  0  0  0  0  0  0
   63.2386   31.7056   47.0257 H   0  0  0  0  0  0  0  0  0  0  0  0
   63.3567   33.4675   47.3854 H   0  0  0  0  0  0  0  0  0  0  0  0
   65.4774   31.5336   49.0029 H   0  0  0  0  0  0  0  0  0  0  0  0
   67.2955   32.5232   50.3945 H   0  0  0  0  0  0  0  0  0  0  0  0
   64.4399   35.2173   52.2181 H   0  0  0  0  0  0  0  0  0  0  0  0
   62.6191   34.2304   50.8294 H   0  0  0  0  0  0  0  0  0  0  0  0
   62.3421   30.6832   50.3185 H   0  0  0  0  0  0  0  0  0  0  0  0
   61.1997   32.0953   50.2553 H   0  0  0  0  0  0  0  0  0  0  0  0
   61.5382   29.8333   48.2554 H   0  0  0  0  0  0  0  0  0  0  0  0
   60.0582   30.3678   49.1823 H   0  0  0  0  0  0  0  0  0  0  0  0
   58.8523   33.0665   46.0253 H   0  0  0  0  0  0  0  0  0  0  0  0
   57.0201   32.2700   44.5510 H   0  0  0  0  0  0  0  0  0  0  0  0
   57.3940   29.6690   42.2190 H   0  0  0  0  0  0  0  0  0  0  0  0
   55.6470   29.3180   42.0520 H   0  0  0  0  0  0  0  0  0  0  0  0
   57.9861   28.1740   45.5464 H   0  0  0  0  0  0  0  0  0  0  0  0
   59.8217   28.9622   47.0206 H   0  0  0  0  0  0  0  0  0  0  0  0
  1  2  1  0
  2  3  1  0
  3  4  1  0
  4  5  1  0
  5  6  2  0
  6  7  1  0
  7  8  2  0
  8  9  1  0
  9 10  3  0
  8 11  1  0
 11 12  2  0
  4 13  1  0
 13 14  1  0
 14 15  1  0
 15 16  1  0
 16 17  2  0
 17 18  1  0
 18 19  2  0
 19 20  1  0
 20 21  1  0
 20 22  2  0
 19 23  1  0
 23 24  2  0
 15  2  1  0
 24 16  1  0
 12  5  1  0
  1 25  1  0
  1 26  1  0
  1 27  1  0
  2 28  1  6
  3 29  1  0
  3 30  1  0
  6 31  1  0
  7 32  1  0
 11 33  1  0
 12 34  1  0
 13 35  1  0
 13 36  1  0
 14 37  1  0
 14 38  1  0
 17 39  1  0
 18 40  1  0
 21 41  1  0
 21 42  1  0
 23 43  1  0
 24 44  1  0
M  END
>  <UniqueID>  (30) 
26

>  <SMILES>  (30) 
C[C@H]1CN(c2ccc(C#N)cc2)CCN1c1ccc(C(N)=O)cc1

>  <Energy>  (30) 
55.418139561921585

>  <Genealogy>  (30) 
C[C@H]1CN(c2ccc(C#N)cc2)CCN1c1ccc(C(N)=O)cc1 (chirality)
C[C@H]1CN(c2ccc(C#N)cc2)CCN1c1ccc(C(N)=O)cc1 (3D coordinates assigned)
C[C@H]1CN(c2ccc(C#N)cc2)CCN1c1ccc(C(N)=O)cc1 (nonaromatic ring conformer: 55.418139561921585 kcal/mol)

>  <smiles>  (30) 
CC1CN(c2ccc(C#N)cc2)CCN1c1ccc(C(N)=O)cc1

>  <score_type>  (30) 
oracle

>  <origin>  (30) 
adg

>  <m_score__min__energy>  (30) 
-7.6100000000000003

>  <m_primary>  (30) 
energy

$$$$
30:0
     RDKit          3D

 51 55  0  0  0  0  0  0  0  0999 V2000
   64.6090   32.8720   50.5730 O   0  0  0  0  0  0  0  0  0  0  0  0
   64.3270   31.6600   50.3620 C   0  0  0  0  0  0  0  0  0  0  0  0
   63.2930   31.3210   49.4240 N   0  0  0  0  0  0  0  0  0  0  0  0
   62.8490   32.1940   48.3710 C   0  0  0  0  0  0  0  0  0  0  0  0
   63.7240   33.1140   47.7650 C   0  0  0  0  0  0  0  0  0  0  0  0
   63.2740   33.9350   46.7290 C   0  0  0  0  0  0  0  0  0  0  0  0
   61.9570   33.8380   46.2760 C   0  0  0  0  0  0  0  0  0  0  0  0
   61.0760   32.9070   46.8500 C   0  0  0  0  0  0  0  0  0  0  0  0
   59.6780   32.7990   46.3690 C   0  0  0  0  0  0  0  0  0  0  0  0
   58.8650   33.9430   46.2380 C   0  0  0  0  0  0  0  0  0  0  0  0
   57.5450   33.7960   45.7720 C   0  0  0  0  0  0  0  0  0  0  0  0
   57.0550   32.5630   45.4590 N   0  0  0  0  0  0  0  0  0  0  0  0
   57.8640   31.4850   45.6000 C   0  0  0  0  0  0  0  0  0  0  0  0
   57.5720   30.1590   45.3750 C   0  0  0  0  0  0  0  0  0  0  0  0
   56.3160   29.5610   44.9010 C   0  0  0  0  0  0  0  0  0  0  0  0
   55.5510   30.2320   44.1570 O   0  0  0  0  0  0  0  0  0  0  0  0
   55.9960   28.2070   45.2440 N   0  0  0  0  0  0  0  0  0  0  0  0
   56.9210   27.1790   45.6300 C   0  0  0  0  0  0  0  0  0  0  0  0
   57.4250   26.3250   44.6390 C   0  0  0  0  0  0  0  0  0  0  0  0
   58.3430   25.3230   44.9700 C   0  0  0  0  0  0  0  0  0  0  0  0
   58.7760   25.1780   46.2900 C   0  0  0  0  0  0  0  0  0  0  0  0
   58.2990   26.0410   47.2800 C   0  0  0  0  0  0  0  0  0  0  0  0
   57.3790   27.0430   46.9540 C   0  0  0  0  0  0  0  0  0  0  0  0
   58.7500   29.5010   45.7180 C   0  0  0  0  0  0  0  0  0  0  0  0
   59.6790   30.4000   46.1240 N   0  0  0  0  0  0  0  0  0  0  0  0
   59.1240   31.5990   46.0370 N   0  0  0  0  0  0  0  0  0  0  0  0
   61.5320   32.0880   47.8970 C   0  0  0  0  0  0  0  0  0  0  0  0
   65.0210   30.6060   51.1400 C   0  0  0  0  0  0  0  0  0  0  0  0
   66.4010   30.7170   51.3850 C   0  0  0  0  0  0  0  0  0  0  0  0
   67.0730   29.7370   52.1190 C   0  0  0  0  0  0  0  0  0  0  0  0
   66.3790   28.6310   52.6100 C   0  0  0  0  0  0  0  0  0  0  0  0
   65.0100   28.4960   52.3620 C   0  0  0  0  0  0  0  0  0  0  0  0
   64.1550   27.0880   52.9680 Cl  0  0  0  0  0  0  0  0  0  0  0  0
   64.3290   29.4770   51.6270 C   0  0  0  0  0  0  0  0  0  0  0  0
   63.0100   29.2990   51.3540 F   0  0  0  0  0  0  0  0  0  0  0  0
   62.7600   30.4360   49.5850 H   0  0  0  0  0  0  0  0  0  0  0  0
   64.7664   33.1868   48.1085 H   0  0  0  0  0  0  0  0  0  0  0  0
   63.9599   34.6610   46.2680 H   0  0  0  0  0  0  0  0  0  0  0  0
   61.6075   34.4942   45.4653 H   0  0  0  0  0  0  0  0  0  0  0  0
   59.2570   34.9377   46.4966 H   0  0  0  0  0  0  0  0  0  0  0  0
   56.9039   34.6828   45.6595 H   0  0  0  0  0  0  0  0  0  0  0  0
   57.0968   26.4436   43.5958 H   0  0  0  0  0  0  0  0  0  0  0  0
   58.7245   24.6482   44.1896 H   0  0  0  0  0  0  0  0  0  0  0  0
   59.4923   24.3847   46.5501 H   0  0  0  0  0  0  0  0  0  0  0  0
   58.6476   25.9322   48.3176 H   0  0  0  0  0  0  0  0  0  0  0  0
   57.0126   27.7263   47.7342 H   0  0  0  0  0  0  0  0  0  0  0  0
   58.9037   28.4130   45.6670 H   0  0  0  0  0  0  0  0  0  0  0  0
   60.8486   31.3550   48.3506 H   0  0  0  0  0  0  0  0  0  0  0  0
   66.9561   31.5830   50.9953 H   0  0  0  0  0  0  0  0  0  0  0  0
   68.1516   29.8375   52.3103 H   0  0  0  0  0  0  0  0  0  0  0  0
   66.9098   27.8641   53.1931 H   0  0  0  0  0  0  0  0  0  0  0  0
  1  2  2  0
  2  3  1  0
  3  4  1  0
  4  5  2  0
  5  6  1  0
  6  7  2  0
  7  8  1  0
  8  9  1  0
  9 10  2  0
 10 11  1  0
 11 12  2  0
 12 13  1  0
 13 14  2  0
 14 15  1  0
 15 16  2  0
 15 17  1  0
 17 18  1  0
 18 19  2  0
 19 20  1  0
 20 21  2  0
 21 22  1  0
 22 23  2  0
 14 24  1  0
 24 25  2  0
 25 26  1  0
  8 27  2  0
  2 28  1  0
 28 29  2  0
 29 30  1  0
 30 31  2  0
 31 32  1  0
 32 33  1  0
 32 34  2  0
 34 35  1  0
 27  4  1  0
 34 28  1  0
 26  9  1  0
 26 13  1  0
 23 18  1  0
  3 36  1  0
  5 37  1  0
  6 38  1  0
  7 39  1  0
 10 40  1  0
 11 41  1  0
 19 42  1  0
 20 43  1  0
 21 44  1  0
 22 45  1  0
 23 46  1  0
 24 47  1  0
 27 48  1  0
 29 49  1  0
 30 50  1  0
 31 51  1  0
M  CHG  1  17  -1
M  END
>  <UniqueID>  (31) 
27

>  <SMILES>  (31) 
O=C(Nc1cccc(-c2ccnc3c(C(=O)[N-]c4ccccc4)cnn23)c1)c1cccc(Cl)c1F

>  <Energy>  (31) 
111.54114057623723

>  <Genealogy>  (31) 
O=C(Nc1cccc(-c2ccnc3c(C(=O)[N-]c4ccccc4)cnn23)c1)c1cccc(Cl)c1F (protonated)
O=C(Nc1cccc(-c2ccnc3c(C(=O)[N-]c4ccccc4)cnn23)c1)c1cccc(Cl)c1F (3D coordinates assigned)
O=C(Nc1cccc(-c2ccnc3c(C(=O)[N-]c4ccccc4)cnn23)c1)c1cccc(Cl)c1F (optimized conformer: 111.54114057623723 kcal/mol)

>  <smiles>  (31) 
O=C(Nc1cccc(-c2ccnc3c(C(=O)Nc4ccccc4)cnn23)c1)c1cccc(Cl)c1F

>  <score_type>  (31) 
oracle

>  <origin>  (31) 
adg

>  <m_score__min__energy>  (31) 
-11.779999999999999

>  <m_primary>  (31) 
energy

$$$$
31:0
     RDKit          3D

 47 49  0  0  0  0  0  0  0  0999 V2000
   59.3760   28.2260   44.3870 C   0  0  0  0  0  0  0  0  0  0  0  0
   59.1050   29.5150   45.0420 N   0  0  2  0  0  0  0  0  0  0  0  0
   58.9570   29.4040   46.5140 C   0  0  0  0  0  0  0  0  0  0  0  0
   59.6990   30.4630   47.3060 C   0  0  0  0  0  0  0  0  0  0  0  0
   59.1770   30.9310   48.5250 C   0  0  0  0  0  0  0  0  0  0  0  0
   59.8610   31.8950   49.2690 C   0  0  0  0  0  0  0  0  0  0  0  0
   61.0760   32.4140   48.8030 C   0  0  0  0  0  0  0  0  0  0  0  0
   61.7810   33.3670   49.5520 C   0  0  0  0  0  0  0  0  0  0  0  0
   62.9900   33.8820   49.0740 C   0  0  0  0  0  0  0  0  0  0  0  0
   63.5020   33.4490   47.8470 C   0  0  0  0  0  0  0  0  0  0  0  0
   62.8080   32.5000   47.0910 C   0  0  0  0  0  0  0  0  0  0  0  0
   61.5950   31.9730   47.5610 C   0  0  0  0  0  0  0  0  0  0  0  0
   60.8950   31.0130   46.8160 C   0  0  0  0  0  0  0  0  0  0  0  0
   57.7680   30.3400   44.2660 S   0  0  0  0  0  0  0  0  0  0  0  0
   56.6320   30.4360   45.2460 O   0  0  0  0  0  0  0  0  0  0  0  0
   57.2980   29.5460   43.0780 O   0  0  0  0  0  0  0  0  0  0  0  0
   58.1940   32.0060   43.7540 C   0  0  0  0  0  0  0  0  0  0  0  0
   57.3580   33.0420   44.5020 C   0  0  0  0  0  0  0  0  0  0  0  0
   58.2120   33.8360   45.3830 N   0  0  0  0  0  0  0  0  0  0  0  0
   59.3080   34.6720   44.9310 C   0  0  0  0  0  0  0  0  0  0  0  0
   59.9020   35.3170   46.1990 C   0  0  0  0  0  0  0  0  0  0  0  0
   59.2050   34.6780   47.4110 C   0  0  0  0  0  0  0  0  0  0  0  0
   58.1740   33.8200   46.7970 C   0  0  0  0  0  0  0  0  0  0  0  0
   57.3580   33.1250   47.4570 O   0  0  0  0  0  0  0  0  0  0  0  0
   59.5386   27.4528   45.1524 H   0  0  0  0  0  0  0  0  0  0  0  0
   58.5171   27.9459   43.7594 H   0  0  0  0  0  0  0  0  0  0  0  0
   60.2750   28.3154   43.7594 H   0  0  0  0  0  0  0  0  0  0  0  0
   59.9470   30.1140   44.8760 H   0  0  0  0  0  0  0  0  0  0  0  0
   57.8871   29.4805   46.7577 H   0  0  0  0  0  0  0  0  0  0  0  0
   59.3971   28.4370   46.7989 H   0  0  0  0  0  0  0  0  0  0  0  0
   58.2207   30.5340   48.8962 H   0  0  0  0  0  0  0  0  0  0  0  0
   59.4444   32.2479   50.2239 H   0  0  0  0  0  0  0  0  0  0  0  0
   61.3820   33.7103   50.5179 H   0  0  0  0  0  0  0  0  0  0  0  0
   63.5396   34.6296   49.6647 H   0  0  0  0  0  0  0  0  0  0  0  0
   64.4538   33.8564   47.4755 H   0  0  0  0  0  0  0  0  0  0  0  0
   63.2137   32.1652   46.1249 H   0  0  0  0  0  0  0  0  0  0  0  0
   61.2856   30.6882   45.8403 H   0  0  0  0  0  0  0  0  0  0  0  0
   59.2590   32.1848   43.9633 H   0  0  0  0  0  0  0  0  0  0  0  0
   57.9897   32.1036   42.6776 H   0  0  0  0  0  0  0  0  0  0  0  0
   56.8671   33.7064   43.7757 H   0  0  0  0  0  0  0  0  0  0  0  0
   56.5999   32.5235   45.1073 H   0  0  0  0  0  0  0  0  0  0  0  0
   60.0681   34.0625   44.4204 H   0  0  0  0  0  0  0  0  0  0  0  0
   58.9650   35.4332   44.2148 H   0  0  0  0  0  0  0  0  0  0  0  0
   60.9846   35.1275   46.2451 H   0  0  0  0  0  0  0  0  0  0  0  0
   59.7447   36.4057   46.1905 H   0  0  0  0  0  0  0  0  0  0  0  0
   59.9136   34.0802   48.0030 H   0  0  0  0  0  0  0  0  0  0  0  0
   58.7881   35.4199   48.1080 H   0  0  0  0  0  0  0  0  0  0  0  0
  1  2  1  0
  2  3  1  0
  3  4  1  0
  4  5  2  0
  5  6  1  0
  6  7  2  0
  7  8  1  0
  8  9  2  0
  9 10  1  0
 10 11  2  0
 11 12  1  0
 12 13  2  0
  2 14  1  0
 14 15  2  0
 14 16  2  0
 14 17  1  0
 17 18  1  0
 18 19  1  0
 19 20  1  0
 20 21  1  0
 21 22  1  0
 22 23  1  0
 23 24  2  0
 13  4  1  0
 23 19  1  0
 12  7  1  0
  1 25  1  0
  1 26  1  0
  1 27  1  0
  2 28  1  1
  3 29  1  0
  3 30  1  0
  5 31  1  0
  6 32  1  0
  8 33  1  0
  9 34  1  0
 10 35  1  0
 11 36  1  0
 13 37  1  0
 17 38  1  0
 17 39  1  0
 18 40  1  0
 18 41  1  0
 20 42  1  0
 20 43  1  0
 21 44  1  0
 21 45  1  0
 22 46  1  0
 22 47  1  0
M  CHG  1   2   1
M  END
>  <UniqueID>  (32) 
28

>  <SMILES>  (32) 
C[N@H+](Cc1ccc2ccccc2c1)S(=O)(=O)CCN1CCCC1=O

>  <Energy>  (32) 
49.13129597815711

>  <Genealogy>  (32) 
C[NH+](Cc1ccc2ccccc2c1)S(=O)(=O)CCN1CCCC1=O (protonated)
C[N@H+](Cc1ccc2ccccc2c1)S(=O)(=O)CCN1CCCC1=O (chirality)
C[N@H+](Cc1ccc2ccccc2c1)S(=O)(=O)CCN1CCCC1=O (3D coordinates assigned)
C[N@H+](Cc1ccc2ccccc2c1)S(=O)(=O)CCN1CCCC1=O (nonaromatic ring conformer: 49.13129597815711 kcal/mol)

>  <smiles>  (32) 
CN(Cc1ccc2ccccc2c1)S(=O)(=O)CCN1CCCC1=O

>  <score_type>  (32) 
oracle

>  <origin>  (32) 
adg

>  <m_score__min__energy>  (32) 
-7.3099999999999996

>  <m_primary>  (32) 
energy

$$$$
32:0
     RDKit          3D

 48 50  0  0  0  0  0  0  0  0999 V2000
   56.2320   29.7230   44.9290 O   0  0  0  0  0  0  0  0  0  0  0  0
   57.3130   29.4570   44.3370 C   0  0  0  0  0  0  0  0  0  0  0  0
   57.7580   28.0310   44.2070 C   0  0  0  0  0  0  0  0  0  0  0  0
   58.8920   27.7550   45.1140 N   0  0  0  0  0  0  0  0  0  0  0  0
   58.5190   27.9830   46.5320 C   0  0  0  0  0  0  0  0  0  0  0  0
   59.7640   28.0990   47.4210 C   0  0  0  0  0  0  0  0  0  0  0  0
   60.6420   29.2310   47.0220 N   0  0  0  0  0  0  0  0  0  0  0  0
   60.5360   30.3730   47.9530 C   0  0  0  0  0  0  0  0  0  0  0  0
   61.4730   31.4770   47.5370 C   0  0  0  0  0  0  0  0  0  0  0  0
   60.9660   32.7250   47.1460 C   0  0  0  0  0  0  0  0  0  0  0  0
   61.8380   33.7410   46.7530 C   0  0  0  0  0  0  0  0  0  0  0  0
   63.2130   33.5000   46.7540 C   0  0  0  0  0  0  0  0  0  0  0  0
   63.6920   32.2850   47.1340 N   0  0  0  0  0  0  0  0  0  0  0  0
   62.8630   31.2790   47.5230 C   0  0  0  0  0  0  0  0  0  0  0  0
   60.4250   29.6790   45.6280 C   0  0  0  0  0  0  0  0  0  0  0  0
   60.1150   28.4930   44.7030 C   0  0  0  0  0  0  0  0  0  0  0  0
   58.0940   30.5050   43.7480 N   0  0  0  0  0  0  0  0  0  0  0  0
   57.5240   31.8120   43.4330 C   0  0  0  0  0  0  0  0  0  0  0  0
   57.9500   32.8150   44.4710 C   0  0  0  0  0  0  0  0  0  0  0  0
   58.8500   33.8380   44.1290 C   0  0  0  0  0  0  0  0  0  0  0  0
   59.1970   34.8140   45.0690 C   0  0  0  0  0  0  0  0  0  0  0  0
   58.6470   34.7760   46.3530 C   0  0  0  0  0  0  0  0  0  0  0  0
   57.7480   33.7630   46.6990 C   0  0  0  0  0  0  0  0  0  0  0  0
   57.3970   32.7870   45.7620 C   0  0  0  0  0  0  0  0  0  0  0  0
   56.9200   27.3660   44.4632 H   0  0  0  0  0  0  0  0  0  0  0  0
   58.0815   27.8536   43.1707 H   0  0  0  0  0  0  0  0  0  0  0  0
   57.9379   28.9141   46.6050 H   0  0  0  0  0  0  0  0  0  0  0  0
   57.9226   27.1258   46.8776 H   0  0  0  0  0  0  0  0  0  0  0  0
   59.4420   28.2515   48.4617 H   0  0  0  0  0  0  0  0  0  0  0  0
   60.3430   27.1703   47.3102 H   0  0  0  0  0  0  0  0  0  0  0  0
   59.5033   30.7519   47.9461 H   0  0  0  0  0  0  0  0  0  0  0  0
   60.8076   30.0360   48.9643 H   0  0  0  0  0  0  0  0  0  0  0  0
   59.8805   32.9029   47.1492 H   0  0  0  0  0  0  0  0  0  0  0  0
   61.4460   34.7217   46.4456 H   0  0  0  0  0  0  0  0  0  0  0  0
   63.9100   34.2937   46.4471 H   0  0  0  0  0  0  0  0  0  0  0  0
   63.2824   30.3086   47.8271 H   0  0  0  0  0  0  0  0  0  0  0  0
   59.5793   30.3820   45.6050 H   0  0  0  0  0  0  0  0  0  0  0  0
   61.3451   30.1656   45.2723 H   0  0  0  0  0  0  0  0  0  0  0  0
   59.9716   28.8715   43.6802 H   0  0  0  0  0  0  0  0  0  0  0  0
   60.9623   27.7939   44.7605 H   0  0  0  0  0  0  0  0  0  0  0  0
   59.0570   30.2870   43.4070 H   0  0  0  0  0  0  0  0  0  0  0  0
   57.8786   32.1367   42.4437 H   0  0  0  0  0  0  0  0  0  0  0  0
   56.4265   31.7386   43.4264 H   0  0  0  0  0  0  0  0  0  0  0  0
   59.2833   33.8716   43.1185 H   0  0  0  0  0  0  0  0  0  0  0  0
   59.9035   35.6121   44.7972 H   0  0  0  0  0  0  0  0  0  0  0  0
   58.9215   35.5434   47.0917 H   0  0  0  0  0  0  0  0  0  0  0  0
   57.3161   33.7339   47.7103 H   0  0  0  0  0  0  0  0  0  0  0  0
   56.6854   31.9944   46.0365 H   0  0  0  0  0  0  0  0  0  0  0  0
  1  2  2  0
  2  3  1  0
  3  4  1  0
  4  5  1  0
  5  6  1  0
  6  7  1  0
  7  8  1  0
  8  9  1  0
  9 10  2  0
 10 11  1  0
 11 12  2  0
 12 13  1  0
 13 14  2  0
  7 15  1  0
 15 16  1  0
  2 17  1  0
 17 18  1  0
 18 19  1  0
 19 20  2  0
 20 21  1  0
 21 22  2  0
 22 23  1  0
 23 24  2  0
 16  4  1  0
 24 19  1  0
 14  9  1  0
  3 25  1  0
  3 26  1  0
  5 27  1  0
  5 28  1  0
  6 29  1  0
  6 30  1  0
  8 31  1  0
  8 32  1  0
 10 33  1  0
 11 34  1  0
 12 35  1  0
 14 36  1  0
 15 37  1  0
 15 38  1  0
 16 39  1  0
 16 40  1  0
 17 41  1  0
 18 42  1  0
 18 43  1  0
 20 44  1  0
 21 45  1  0
 22 46  1  0
 23 47  1  0
 24 48  1  0
M  END
>  <UniqueID>  (33) 
29

>  <SMILES>  (33) 
O=C(CN1CCN(Cc2cccnc2)CC1)NCc1ccccc1

>  <Energy>  (33) 
58.113925273102225

>  <Genealogy>  (33) 
O=C(CN1CCN(Cc2cccnc2)CC1)NCc1ccccc1 (3D coordinates assigned)
O=C(CN1CCN(Cc2cccnc2)CC1)NCc1ccccc1 (nonaromatic ring conformer: 58.113925273102225 kcal/mol)

>  <smiles>  (33) 
O=C(CN1CCN(Cc2cccnc2)CC1)NCc1ccccc1

>  <score_type>  (33) 
oracle

>  <origin>  (33) 
adg

>  <m_score__min__energy>  (33) 
-8.5600000000000005

>  <m_primary>  (33) 
energy

$$$$
33:0
     RDKit          3D

 32 33  0  0  0  0  0  0  0  0999 V2000
   59.3640   34.8970   45.5870 C   0  0  0  0  0  0  0  0  0  0  0  0
   58.8500   33.5450   46.0780 C   0  0  0  0  0  0  0  0  0  0  0  0
   57.5370   33.1400   45.4040 C   0  0  0  0  0  0  0  0  0  0  0  0
   57.8380   32.2700   43.8210 S   0  0  0  0  0  0  0  0  0  0  0  0
   57.2980   30.6620   44.4110 C   0  0  0  0  0  0  0  0  0  0  0  0
   56.0030   30.3460   44.6080 N   0  0  0  0  0  0  0  0  0  0  0  0
   55.9920   29.0870   45.0140 N   0  0  0  0  0  0  0  0  0  0  0  0
   57.2630   28.6470   45.0750 C   0  0  0  0  0  0  0  0  0  0  0  0
   57.6140   27.2660   45.4670 C   0  0  0  0  0  0  0  0  0  0  0  0
   57.7990   26.1650   44.6350 C   0  0  0  0  0  0  0  0  0  0  0  0
   58.1880   25.0080   45.3210 C   0  0  0  0  0  0  0  0  0  0  0  0
   58.3280   25.1890   46.6890 C   0  0  0  0  0  0  0  0  0  0  0  0
   57.9720   26.7920   47.0420 S   0  0  0  0  0  0  0  0  0  0  0  0
   58.1190   29.6240   44.6900 N   0  0  0  0  0  0  0  0  0  0  0  0
   59.5740   29.5850   44.5230 C   0  0  0  0  0  0  0  0  0  0  0  0
   60.2620   29.3710   45.8680 C   0  0  0  0  0  0  0  0  0  0  0  0
   59.6058   35.5331   46.4512 H   0  0  0  0  0  0  0  0  0  0  0  0
   60.2677   34.7466   44.9781 H   0  0  0  0  0  0  0  0  0  0  0  0
   58.5886   35.3849   44.9781 H   0  0  0  0  0  0  0  0  0  0  0  0
   59.6091   32.7788   45.8617 H   0  0  0  0  0  0  0  0  0  0  0  0
   58.6600   33.6307   47.1581 H   0  0  0  0  0  0  0  0  0  0  0  0
   56.9795   32.4732   46.0783 H   0  0  0  0  0  0  0  0  0  0  0  0
   56.9607   34.0529   45.1928 H   0  0  0  0  0  0  0  0  0  0  0  0
   55.1270   28.5510   45.2480 H   0  0  0  0  0  0  0  0  0  0  0  0
   57.6537   26.2006   43.5452 H   0  0  0  0  0  0  0  0  0  0  0  0
   58.3661   24.0445   44.8211 H   0  0  0  0  0  0  0  0  0  0  0  0
   58.6211   24.4173   47.4160 H   0  0  0  0  0  0  0  0  0  0  0  0
   59.8384   28.7593   43.8460 H   0  0  0  0  0  0  0  0  0  0  0  0
   59.9090   30.5441   44.1013 H   0  0  0  0  0  0  0  0  0  0  0  0
   59.5544   29.5911   46.6809 H   0  0  0  0  0  0  0  0  0  0  0  0
   60.5970   28.3262   45.9464 H   0  0  0  0  0  0  0  0  0  0  0  0
   61.1306   30.0414   45.9464 H   0  0  0  0  0  0  0  0  0  0  0  0
  1  2  1  0
  2  3  1  0
  3  4  1  0
  4  5  1  0
  5  6  2  0
  6  7  1  0
  7  8  2  0
  8  9  1  0
  9 10  2  0
 10 11  1  0
 11 12  2  0
 12 13  1  0
  8 14  1  0
 14 15  1  0
 15 16  1  0
 14  5  1  0
 13  9  1  0
  1 17  1  0
  1 18  1  0
  1 19  1  0
  2 20  1  0
  2 21  1  0
  3 22  1  0
  3 23  1  0
  7 24  1  0
 10 25  1  0
 11 26  1  0
 12 27  1  0
 15 28  1  0
 15 29  1  0
 16 30  1  0
 16 31  1  0
 16 32  1  0
M  CHG  1   7   1
M  END
>  <UniqueID>  (34) 
30

>  <SMILES>  (34) 
CCCSc1n[nH+]c(-c2cccs2)n1CC

>  <Energy>  (34) 
86.34191609968555

>  <Genealogy>  (34) 
CCCSc1n[nH+]c(-c2cccs2)n1CC (protonated)
CCCSc1n[nH+]c(-c2cccs2)n1CC (3D coordinates assigned)
CCCSc1n[nH+]c(-c2cccs2)n1CC (optimized conformer: 86.34191609968555 kcal/mol)

>  <smiles>  (34) 
CCCSc1nnc(-c2cccs2)n1CC

>  <score_type>  (34) 
oracle

>  <origin>  (34) 
adg

>  <m_score__min__energy>  (34) 
-4.9000000000000004

>  <m_primary>  (34) 
energy

$$$$
34:0
     RDKit          3D

 31 34  0  0  0  0  0  0  0  0999 V2000
   59.1330   34.6310   46.6610 Br  0  0  0  0  0  0  0  0  0  0  0  0
   58.6910   33.0980   45.6000 C   0  0  0  0  0  0  0  0  0  0  0  0
   58.4390   33.2810   44.2460 C   0  0  0  0  0  0  0  0  0  0  0  0
   58.1180   32.1560   43.4800 C   0  0  0  0  0  0  0  0  0  0  0  0
   57.7640   32.3370   41.6340 Br  0  0  0  0  0  0  0  0  0  0  0  0
   58.0540   30.8960   44.0480 C   0  0  0  0  0  0  0  0  0  0  0  0
   57.7760   29.6520   43.5800 N   0  0  0  0  0  0  0  0  0  0  0  0
   57.8520   28.7480   44.5830 C   0  0  0  0  0  0  0  0  0  0  0  0
   57.6230   27.3080   44.4790 C   0  0  0  0  0  0  0  0  0  0  0  0
   57.2490   26.5260   45.5510 C   0  0  0  0  0  0  0  0  0  0  0  0
   57.0440   25.1580   45.3920 C   0  0  0  0  0  0  0  0  0  0  0  0
   57.2220   24.6060   44.1490 C   0  0  0  0  0  0  0  0  0  0  0  0
   57.0380   23.2200   43.8800 N   0  0  0  0  0  0  0  0  0  0  0  0
   57.6710   22.1770   44.4850 C   0  0  0  0  0  0  0  0  0  0  0  0
   57.2130   20.9880   43.9390 C   0  0  0  0  0  0  0  0  0  0  0  0
   56.3110   21.3190   43.0100 N   0  0  0  0  0  0  0  0  0  0  0  0
   56.2120   22.6640   42.9820 C   0  0  0  0  0  0  0  0  0  0  0  0
   57.5890   25.3900   43.1110 N   0  0  0  0  0  0  0  0  0  0  0  0
   57.7910   26.7080   43.2440 C   0  0  0  0  0  0  0  0  0  0  0  0
   58.1830   29.4500   45.6940 N   0  0  0  0  0  0  0  0  0  0  0  0
   58.3060   30.7430   45.3800 C   0  0  0  0  0  0  0  0  0  0  0  0
   58.6260   31.8350   46.1660 C   0  0  0  0  0  0  0  0  0  0  0  0
   58.4904   34.2808   43.7902 H   0  0  0  0  0  0  0  0  0  0  0  0
   57.1114   26.9867   46.5404 H   0  0  0  0  0  0  0  0  0  0  0  0
   56.7453   24.5325   46.2461 H   0  0  0  0  0  0  0  0  0  0  0  0
   58.4257   22.2642   45.2805 H   0  0  0  0  0  0  0  0  0  0  0  0
   57.5298   19.9717   44.2160 H   0  0  0  0  0  0  0  0  0  0  0  0
   55.5446   23.2278   42.3136 H   0  0  0  0  0  0  0  0  0  0  0  0
   58.0895   27.3110   42.3738 H   0  0  0  0  0  0  0  0  0  0  0  0
   58.3210   29.0240   46.6570 H   0  0  0  0  0  0  0  0  0  0  0  0
   58.8286   31.7011   47.2389 H   0  0  0  0  0  0  0  0  0  0  0  0
  1  2  1  0
  2  3  2  0
  3  4  1  0
  4  5  1  0
  4  6  2  0
  6  7  1  0
  7  8  2  0
  8  9  1  0
  9 10  2  0
 10 11  1  0
 11 12  2  0
 12 13  1  0
 13 14  1  0
 14 15  2  0
 15 16  1  0
 16 17  2  0
 12 18  1  0
 18 19  2  0
  8 20  1  0
 20 21  1  0
 21 22  2  0
 22  2  1  0
 21  6  1  0
 19  9  1  0
 17 13  1  0
  3 23  1  0
 10 24  1  0
 11 25  1  0
 14 26  1  0
 15 27  1  0
 17 28  1  0
 19 29  1  0
 20 30  1  0
 22 31  1  0
M  END
>  <smiles>  (35) 
Brc1cc(Br)c2nc(-c3ccc(-n4ccnc4)nc3)[nH]c2c1

>  <score_type>  (35) 
oracle

>  <origin>  (35) 
adg

>  <m_score__min__energy>  (35) 
-7.96

>  <m_primary>  (35) 
energy

$$$$
35:0
     RDKit          3D

 51 54  0  0  0  0  0  0  0  0999 V2000
   56.8910   30.4770   43.9340 C   0  0  0  0  0  0  0  0  0  0  0  0
   57.0050   31.1580   45.1820 O   0  0  0  0  0  0  0  0  0  0  0  0
   57.8360   32.2650   45.4060 C   0  0  0  0  0  0  0  0  0  0  0  0
   57.5470   33.4600   44.7330 C   0  0  0  0  0  0  0  0  0  0  0  0
   58.3430   34.5940   44.9250 C   0  0  0  0  0  0  0  0  0  0  0  0
   59.4360   34.5400   45.7910 C   0  0  0  0  0  0  0  0  0  0  0  0
   59.7490   33.3470   46.4740 C   0  0  0  0  0  0  0  0  0  0  0  0
   60.9010   33.2750   47.3450 N   0  0  0  0  0  0  0  0  0  0  0  0
   60.7540   33.2800   48.8010 C   0  0  0  0  0  0  0  0  0  0  0  0
   61.6570   32.1920   49.3950 C   0  0  0  0  0  0  0  0  0  0  0  0
   63.0710   32.3520   48.9720 N   0  0  0  0  0  0  0  0  0  0  0  0
   63.7140   33.4770   49.6580 C   0  0  0  0  0  0  0  0  0  0  0  0
   63.0420   34.4760   49.8780 O   0  0  0  0  0  0  0  0  0  0  0  0
   65.1520   33.4620   50.1850 C   0  0  1  0  0  0  0  0  0  0  0  0
   65.2500   33.5970   51.7150 C   0  0  0  0  0  0  0  0  0  0  0  0
   65.9960   32.2820   51.9550 C   0  0  2  0  0  0  0  0  0  0  0  0
   67.0820   32.3180   50.9120 C   0  0  0  0  0  0  0  0  0  0  0  0
   65.8300   32.0830   50.1080 C   0  0  1  0  0  0  0  0  0  0  0  0
   65.1890   31.3280   51.1940 N   0  0  0  0  0  0  0  0  0  0  0  0
   64.3570   30.1900   51.4160 C   0  0  0  0  0  0  0  0  0  0  0  0
   64.8410   29.0450   52.2500 C   0  0  0  0  0  0  0  0  0  0  0  0
   63.2250   30.1300   50.8670 O   0  0  0  0  0  0  0  0  0  0  0  0
   63.1670   32.3290   47.4890 C   0  0  0  0  0  0  0  0  0  0  0  0
   62.2590   33.3730   46.8060 C   0  0  0  0  0  0  0  0  0  0  0  0
   58.9440   32.2110   46.2730 C   0  0  0  0  0  0  0  0  0  0  0  0
   56.7119   29.4069   44.1152 H   0  0  0  0  0  0  0  0  0  0  0  0
   56.0508   30.8977   43.3621 H   0  0  0  0  0  0  0  0  0  0  0  0
   57.8224   30.6011   43.3621 H   0  0  0  0  0  0  0  0  0  0  0  0
   56.6873   33.5064   44.0483 H   0  0  0  0  0  0  0  0  0  0  0  0
   58.1076   35.5279   44.3936 H   0  0  0  0  0  0  0  0  0  0  0  0
   60.0578   35.4347   45.9418 H   0  0  0  0  0  0  0  0  0  0  0  0
   61.0489   34.2623   49.1986 H   0  0  0  0  0  0  0  0  0  0  0  0
   59.7059   33.0827   49.0705 H   0  0  0  0  0  0  0  0  0  0  0  0
   61.6059   32.2479   50.4924 H   0  0  0  0  0  0  0  0  0  0  0  0
   61.3008   31.2175   49.0297 H   0  0  0  0  0  0  0  0  0  0  0  0
   63.5770   31.4950   49.3080 H   0  0  0  0  0  0  0  0  0  0  0  0
   65.5908   34.2685   49.5792 H   0  0  0  0  0  0  0  0  0  0  0  0
   65.8324   34.4769   52.0259 H   0  0  0  0  0  0  0  0  0  0  0  0
   64.3076   33.7422   52.2635 H   0  0  0  0  0  0  0  0  0  0  0  0
   66.2414   32.1037   53.0123 H   0  0  0  0  0  0  0  0  0  0  0  0
   67.5981   33.2778   50.7623 H   0  0  0  0  0  0  0  0  0  0  0  0
   68.0085   31.7254   50.8926 H   0  0  0  0  0  0  0  0  0  0  0  0
   65.8651   31.6684   49.0898 H   0  0  0  0  0  0  0  0  0  0  0  0
   64.7346   29.2967   53.3155 H   0  0  0  0  0  0  0  0  0  0  0  0
   64.2448   28.1487   52.0237 H   0  0  0  0  0  0  0  0  0  0  0  0
   65.8993   28.8481   52.0237 H   0  0  0  0  0  0  0  0  0  0  0  0
   64.2096   32.5315   47.2028 H   0  0  0  0  0  0  0  0  0  0  0  0
   62.8328   31.3358   47.1547 H   0  0  0  0  0  0  0  0  0  0  0  0
   62.6554   34.3816   46.9950 H   0  0  0  0  0  0  0  0  0  0  0  0
   62.2354   33.1819   45.7230 H   0  0  0  0  0  0  0  0  0  0  0  0
   59.1820   31.2736   46.7971 H   0  0  0  0  0  0  0  0  0  0  0  0
  1  2  1  0
  2  3  1  0
  3  4  2  0
  4  5  1  0
  5  6  2  0
  6  7  1  0
  7  8  1  0
  8  9  1  0
  9 10  1  0
 10 11  1  0
 11 12  1  0
 12 13  2  0
 12 14  1  0
 14 15  1  0
 15 16  1  0
 16 17  1  0
 17 18  1  0
 18 19  1  0
 19 20  1  0
 20 21  1  0
 20 22  2  0
 11 23  1  0
 23 24  1  0
  7 25  2  0
 25  3  1  0
 24  8  1  0
 18 14  1  0
 19 16  1  0
  1 26  1  0
  1 27  1  0
  1 28  1  0
  4 29  1  0
  5 30  1  0
  6 31  1  0
  9 32  1  0
  9 33  1  0
 10 34  1  0
 10 35  1  0
 11 36  1  0
 14 37  1  6
 15 38  1  0
 15 39  1  0
 16 40  1  1
 17 41  1  0
 17 42  1  0
 18 43  1  6
 21 44  1  0
 21 45  1  0
 21 46  1  0
 23 47  1  0
 23 48  1  0
 24 49  1  0
 24 50  1  0
 25 51  1  0
M  CHG  1  11   1
M  END
>  <UniqueID>  (36) 
31

>  <SMILES>  (36) 
COc1cccc(N2CC[NH+](C(=O)[C@H]3C[C@@H]4CC3N4C(C)=O)CC2)c1

>  <Energy>  (36) 
165.9999912225756

>  <Genealogy>  (36) 
COc1cccc(N2CC[NH+](C(=O)C3CC4CC3N4C(C)=O)CC2)c1 (protonated)
COc1cccc(N2CC[NH+](C(=O)[C@H]3C[C@@H]4CC3N4C(C)=O)CC2)c1 (chirality)
COc1cccc(N2CC[NH+](C(=O)[C@H]3C[C@@H]4CC3N4C(C)=O)CC2)c1 (3D coordinates assigned)
COc1cccc(N2CC[NH+](C(=O)[C@H]3C[C@@H]4CC3N4C(C)=O)CC2)c1 (nonaromatic ring conformer: 165.9999912225756 kcal/mol)

>  <smiles>  (36) 
COc1cccc(N2CCN(C(=O)C3CC4CC3N4C(C)=O)CC2)c1

>  <score_type>  (36) 
oracle

>  <origin>  (36) 
adg

>  <m_score__min__energy>  (36) 
-6.5599999999999996

>  <m_primary>  (36) 
energy

$$$$
36:0
     RDKit          3D

 38 39  0  0  0  0  0  0  0  0999 V2000
   56.9440   21.6670   43.3250 C   0  0  0  0  0  0  0  0  0  0  0  0
   56.9520   22.8720   43.3520 C   0  0  0  0  0  0  0  0  0  0  0  0
   56.9580   24.3400   43.3910 C   0  0  0  0  0  0  0  0  0  0  0  0
   57.7660   24.8630   44.5830 C   0  0  0  0  0  0  0  0  0  0  0  0
   57.4550   26.3010   44.8800 C   0  0  0  0  0  0  0  0  0  0  0  0
   56.7860   26.6690   45.9150 N   0  0  0  0  0  0  0  0  0  0  0  0
   56.6600   28.0330   45.9190 O   0  0  0  0  0  0  0  0  0  0  0  0
   57.2740   28.6530   44.7960 C   0  0  1  0  0  0  0  0  0  0  0  0
   56.1980   29.3570   43.9410 C   0  0  0  0  0  0  0  0  0  0  0  0
   55.1980   29.8990   44.7580 O   0  0  0  0  0  0  0  0  0  0  0  0
   58.3780   29.6210   45.2740 C   0  0  0  0  0  0  0  0  0  0  0  0
   57.8390   30.6730   46.0760 O   0  0  0  0  0  0  0  0  0  0  0  0
   57.4500   31.9220   45.5700 C   0  0  0  0  0  0  0  0  0  0  0  0
   56.4070   32.0280   44.8700 O   0  0  0  0  0  0  0  0  0  0  0  0
   58.2640   33.1190   45.8710 C   0  0  0  0  0  0  0  0  0  0  0  0
   58.7570   33.3540   47.1650 C   0  0  0  0  0  0  0  0  0  0  0  0
   59.5270   34.4870   47.4270 C   0  0  0  0  0  0  0  0  0  0  0  0
   59.8000   35.3830   46.3930 C   0  0  0  0  0  0  0  0  0  0  0  0
   59.3190   35.1500   45.1430 N   0  0  0  0  0  0  0  0  0  0  0  0
   58.5660   34.0500   44.8620 C   0  0  0  0  0  0  0  0  0  0  0  0
   57.8900   27.4490   44.0330 C   0  0  0  0  0  0  0  0  0  0  0  0
   56.9367   20.5673   43.3004 H   0  0  0  0  0  0  0  0  0  0  0  0
   57.4046   24.7211   42.4608 H   0  0  0  0  0  0  0  0  0  0  0  0
   55.9199   24.6883   43.4962 H   0  0  0  0  0  0  0  0  0  0  0  0
   57.5264   24.2567   45.4690 H   0  0  0  0  0  0  0  0  0  0  0  0
   58.8341   24.7896   44.3304 H   0  0  0  0  0  0  0  0  0  0  0  0
   56.6683   30.1646   43.3607 H   0  0  0  0  0  0  0  0  0  0  0  0
   55.7427   28.6187   43.2645 H   0  0  0  0  0  0  0  0  0  0  0  0
   55.6280   30.0910   45.6320 H   0  0  0  0  0  0  0  0  0  0  0  0
   59.1136   29.0591   45.8683 H   0  0  0  0  0  0  0  0  0  0  0  0
   58.8516   30.0696   44.3883 H   0  0  0  0  0  0  0  0  0  0  0  0
   58.5352   32.6425   47.9740 H   0  0  0  0  0  0  0  0  0  0  0  0
   59.9154   34.6724   48.4393 H   0  0  0  0  0  0  0  0  0  0  0  0
   60.4057   36.2799   46.5896 H   0  0  0  0  0  0  0  0  0  0  0  0
   59.5330   35.8290   44.3790 H   0  0  0  0  0  0  0  0  0  0  0  0
   58.1923   33.8895   43.8400 H   0  0  0  0  0  0  0  0  0  0  0  0
   57.4854   27.3710   43.0131 H   0  0  0  0  0  0  0  0  0  0  0  0
   58.9795   27.5163   43.8968 H   0  0  0  0  0  0  0  0  0  0  0  0
  1  2  3  0
  2  3  1  0
  3  4  1  0
  4  5  1  0
  5  6  2  0
  6  7  1  0
  7  8  1  0
  8  9  1  6
  9 10  1  0
  8 11  1  0
 11 12  1  0
 12 13  1  0
 13 14  2  0
 13 15  1  0
 15 16  2  0
 16 17  1  0
 17 18  2  0
 18 19  1  0
 19 20  2  0
  8 21  1  0
 21  5  1  0
 20 15  1  0
  1 22  1  0
  3 23  1  0
  3 24  1  0
  4 25  1  0
  4 26  1  0
  9 27  1  0
  9 28  1  0
 10 29  1  0
 11 30  1  0
 11 31  1  0
 16 32  1  0
 17 33  1  0
 18 34  1  0
 19 35  1  0
 20 36  1  0
 21 37  1  0
 21 38  1  0
M  CHG  1  19   1
M  END
>  <UniqueID>  (37) 
32

>  <SMILES>  (37) 
C#CCCC1=NO[C@@](CO)(COC(=O)c2ccc[nH+]c2)C1

>  <Energy>  (37) 
42.97001287750578

>  <Genealogy>  (37) 
C#CCCC1=NOC(CO)(COC(=O)c2ccc[nH+]c2)C1 (protonated)
C#CCCC1=NO[C@@](CO)(COC(=O)c2ccc[nH+]c2)C1 (chirality)
C#CCCC1=NO[C@@](CO)(COC(=O)c2ccc[nH+]c2)C1 (3D coordinates assigned)
C#CCCC1=NO[C@@](CO)(COC(=O)c2ccc[nH+]c2)C1 (nonaromatic ring conformer: 42.97001287750578 kcal/mol)

>  <smiles>  (37) 
C#CCCC1=NOC(CO)(COC(=O)c2cccnc2)C1

>  <score_type>  (37) 
oracle

>  <origin>  (37) 
adg

>  <m_score__min__energy>  (37) 
-6.3899999999999997

>  <m_primary>  (37) 
energy

$$$$
37:0
     RDKit          3D

 43 45  0  0  0  0  0  0  0  0999 V2000
   59.7390   29.9820   48.7400 C   0  0  0  0  0  0  0  0  0  0  0  0
   60.9820   30.1710   47.9550 N   0  0  0  0  0  0  0  0  0  0  0  0
   61.8170   31.2630   48.4810 C   0  0  0  0  0  0  0  0  0  0  0  0
   60.7800   30.2050   46.4780 C   0  0  0  0  0  0  0  0  0  0  0  0
   59.4060   29.7360   45.8640 C   0  0  1  0  0  0  0  0  0  0  0  0
   59.0570   28.2450   46.1040 C   0  0  0  0  0  0  0  0  0  0  0  0
   57.6180   27.8880   45.7020 C   0  0  0  0  0  0  0  0  0  0  0  0
   57.0670   28.8620   44.6690 C   0  0  0  0  0  0  0  0  0  0  0  0
   57.0060   30.2440   45.1980 N   0  0  0  0  0  0  0  0  0  0  0  0
   56.6450   31.1950   44.1120 C   0  0  0  0  0  0  0  0  0  0  0  0
   57.8610   31.9530   43.5710 C   0  0  0  0  0  0  0  0  0  0  0  0
   58.4490   32.7290   44.7050 C   0  0  0  0  0  0  0  0  0  0  0  0
   58.8440   34.0660   44.5460 C   0  0  0  0  0  0  0  0  0  0  0  0
   59.2160   34.8200   45.6620 C   0  0  0  0  0  0  0  0  0  0  0  0
   59.1650   34.2520   46.9370 C   0  0  0  0  0  0  0  0  0  0  0  0
   58.7800   32.9180   47.0960 C   0  0  0  0  0  0  0  0  0  0  0  0
   58.4690   32.1310   45.9740 C   0  0  0  0  0  0  0  0  0  0  0  0
   58.1460   30.6440   46.1020 C   0  0  2  0  0  0  0  0  0  0  0  0
   59.9745   30.0178   49.8139 H   0  0  0  0  0  0  0  0  0  0  0  0
   59.0250   30.7819   48.4943 H   0  0  0  0  0  0  0  0  0  0  0  0
   59.2950   29.0060   48.4943 H   0  0  0  0  0  0  0  0  0  0  0  0
   61.5430   29.3000   48.1220 H   0  0  0  0  0  0  0  0  0  0  0  0
   61.7999   31.2406   49.5806 H   0  0  0  0  0  0  0  0  0  0  0  0
   62.8510   31.1367   48.1277 H   0  0  0  0  0  0  0  0  0  0  0  0
   61.4241   32.2278   48.1277 H   0  0  0  0  0  0  0  0  0  0  0  0
   60.9319   31.2469   46.1597 H   0  0  0  0  0  0  0  0  0  0  0  0
   61.4945   29.4561   46.1057 H   0  0  0  0  0  0  0  0  0  0  0  0
   59.6441   29.8685   44.7983 H   0  0  0  0  0  0  0  0  0  0  0  0
   59.7486   27.6248   45.5149 H   0  0  0  0  0  0  0  0  0  0  0  0
   59.1509   28.0570   47.1837 H   0  0  0  0  0  0  0  0  0  0  0  0
   57.6072   26.8733   45.2774 H   0  0  0  0  0  0  0  0  0  0  0  0
   56.9855   27.9445   46.6002 H   0  0  0  0  0  0  0  0  0  0  0  0
   57.7182   28.8479   43.7826 H   0  0  0  0  0  0  0  0  0  0  0  0
   56.0448   28.5475   44.4118 H   0  0  0  0  0  0  0  0  0  0  0  0
   56.1847   30.6311   43.2873 H   0  0  0  0  0  0  0  0  0  0  0  0
   55.9484   31.9352   44.5325 H   0  0  0  0  0  0  0  0  0  0  0  0
   58.6026   31.2417   43.1785 H   0  0  0  0  0  0  0  0  0  0  0  0
   57.5647   32.6268   42.7535 H   0  0  0  0  0  0  0  0  0  0  0  0
   58.8608   34.5199   43.5442 H   0  0  0  0  0  0  0  0  0  0  0  0
   59.5490   35.8608   45.5364 H   0  0  0  0  0  0  0  0  0  0  0  0
   59.4284   34.8559   47.8178 H   0  0  0  0  0  0  0  0  0  0  0  0
   58.7201   32.4820   48.1041 H   0  0  0  0  0  0  0  0  0  0  0  0
   57.8247   30.4811   47.1413 H   0  0  0  0  0  0  0  0  0  0  0  0
  1  2  1  0
  2  3  1  0
  2  4  1  0
  4  5  1  0
  5  6  1  0
  6  7  1  0
  7  8  1  0
  8  9  1  0
  9 10  1  0
 10 11  1  0
 11 12  1  0
 12 13  2  0
 13 14  1  0
 14 15  2  0
 15 16  1  0
 16 17  2  0
 17 18  1  0
 18  5  1  0
 18  9  1  0
 17 12  1  0
  1 19  1  0
  1 20  1  0
  1 21  1  0
  2 22  1  0
  3 23  1  0
  3 24  1  0
  3 25  1  0
  4 26  1  0
  4 27  1  0
  5 28  1  6
  6 29  1  0
  6 30  1  0
  7 31  1  0
  7 32  1  0
  8 33  1  0
  8 34  1  0
 10 35  1  0
 10 36  1  0
 11 37  1  0
 11 38  1  0
 13 39  1  0
 14 40  1  0
 15 41  1  0
 16 42  1  0
 18 43  1  1
M  CHG  1   2   1
M  END
>  <UniqueID>  (38) 
33

>  <SMILES>  (38) 
C[NH+](C)C[C@H]1CCCN2CCc3ccccc3[C@H]12

>  <Energy>  (38) 
80.67490040663809

>  <Genealogy>  (38) 
C[NH+](C)CC1CCCN2CCc3ccccc3C12 (protonated)
C[NH+](C)C[C@H]1CCCN2CCc3ccccc3[C@H]12 (chirality)
C[NH+](C)C[C@H]1CCCN2CCc3ccccc3[C@H]12 (3D coordinates assigned)
C[NH+](C)C[C@H]1CCCN2CCc3ccccc3[C@H]12 (nonaromatic ring conformer: 80.67490040663809 kcal/mol)

>  <smiles>  (38) 
CN(C)CC1CCCN2CCc3ccccc3C12

>  <score_type>  (38) 
oracle

>  <origin>  (38) 
adg

>  <m_score__min__energy>  (38) 
-5.6600000000000001

>  <m_primary>  (38) 
energy

$$$$
38:0
     RDKit          3D

 49 52  0  0  0  0  0  0  0  0999 V2000
   56.6230   24.4170   46.7130 C   0  0  0  0  0  0  0  0  0  0  0  0
   57.8060   25.2060   46.6510 O   0  0  0  0  0  0  0  0  0  0  0  0
   57.8910   26.4590   46.0240 C   0  0  0  0  0  0  0  0  0  0  0  0
   59.1160   27.0190   45.6250 C   0  0  0  0  0  0  0  0  0  0  0  0
   59.1480   28.2690   45.0020 C   0  0  0  0  0  0  0  0  0  0  0  0
   57.9620   28.9850   44.7680 C   0  0  0  0  0  0  0  0  0  0  0  0
   58.0350   30.3290   44.0810 C   0  0  0  0  0  0  0  0  0  0  0  0
   58.7500   31.3210   44.9120 N   0  0  0  0  0  0  0  0  0  0  0  0
   58.5390   31.0220   46.3500 C   0  0  0  0  0  0  0  0  0  0  0  0
   59.4440   31.9100   47.2220 C   0  0  0  0  0  0  0  0  0  0  0  0
   59.3630   33.2910   46.7590 N   0  0  0  0  0  0  0  0  0  0  0  0
   59.8120   34.4350   47.3120 C   0  0  0  0  0  0  0  0  0  0  0  0
   60.5010   34.5350   48.6380 C   0  0  0  0  0  0  0  0  0  0  0  0
   61.8520   33.9930   48.5390 N   0  0  0  0  0  0  0  0  0  0  0  0
   62.4680   33.5940   47.4110 C   0  0  0  0  0  0  0  0  0  0  0  0
   63.7380   33.1710   47.7390 C   0  0  0  0  0  0  0  0  0  0  0  0
   63.8260   33.3500   49.1060 C   0  0  0  0  0  0  0  0  0  0  0  0
   62.6670   33.8520   49.5730 N   0  0  0  0  0  0  0  0  0  0  0  0
   59.6420   35.4820   46.4730 N   0  0  0  0  0  0  0  0  0  0  0  0
   59.0780   34.9920   45.3780 N   0  0  0  0  0  0  0  0  0  0  0  0
   58.9330   33.6670   45.5510 C   0  0  0  0  0  0  0  0  0  0  0  0
   58.3200   32.7030   44.5870 C   0  0  0  0  0  0  0  0  0  0  0  0
   56.7320   28.4260   45.1800 C   0  0  0  0  0  0  0  0  0  0  0  0
   55.5130   29.0820   44.9750 O   0  0  0  0  0  0  0  0  0  0  0  0
   55.1870   29.7180   43.7440 C   0  0  0  0  0  0  0  0  0  0  0  0
   56.7080   27.1670   45.7890 C   0  0  0  0  0  0  0  0  0  0  0  0
   56.3558   24.2388   47.7651 H   0  0  0  0  0  0  0  0  0  0  0  0
   55.8011   24.9484   46.2109 H   0  0  0  0  0  0  0  0  0  0  0  0
   56.7978   23.4540   46.2109 H   0  0  0  0  0  0  0  0  0  0  0  0
   60.0531   26.4714   45.8037 H   0  0  0  0  0  0  0  0  0  0  0  0
   60.1123   28.6974   44.6912 H   0  0  0  0  0  0  0  0  0  0  0  0
   58.5661   30.2138   43.1246 H   0  0  0  0  0  0  0  0  0  0  0  0
   57.0091   30.6901   43.9164 H   0  0  0  0  0  0  0  0  0  0  0  0
   57.4870   31.2121   46.6090 H   0  0  0  0  0  0  0  0  0  0  0  0
   58.7897   29.9671   46.5352 H   0  0  0  0  0  0  0  0  0  0  0  0
   59.1125   31.8545   48.2694 H   0  0  0  0  0  0  0  0  0  0  0  0
   60.4837   31.5588   47.1471 H   0  0  0  0  0  0  0  0  0  0  0  0
   60.5532   35.5906   48.9430 H   0  0  0  0  0  0  0  0  0  0  0  0
   59.9341   33.9593   49.3844 H   0  0  0  0  0  0  0  0  0  0  0  0
   62.0327   33.6038   46.4008 H   0  0  0  0  0  0  0  0  0  0  0  0
   64.5107   32.7778   47.0620 H   0  0  0  0  0  0  0  0  0  0  0  0
   64.7088   33.1177   49.7198 H   0  0  0  0  0  0  0  0  0  0  0  0
   58.8190   35.5500   44.5340 H   0  0  0  0  0  0  0  0  0  0  0  0
   57.2239   32.7688   44.6527 H   0  0  0  0  0  0  0  0  0  0  0  0
   58.6473   32.9535   43.5671 H   0  0  0  0  0  0  0  0  0  0  0  0
   54.6939   30.6800   43.9476 H   0  0  0  0  0  0  0  0  0  0  0  0
   56.1068   29.8924   43.1665 H   0  0  0  0  0  0  0  0  0  0  0  0
   54.5083   29.0731   43.1665 H   0  0  0  0  0  0  0  0  0  0  0  0
   55.7448   26.7274   46.0874 H   0  0  0  0  0  0  0  0  0  0  0  0
  1  2  1  0
  2  3  1  0
  3  4  2  0
  4  5  1  0
  5  6  2  0
  6  7  1  0
  7  8  1  0
  8  9  1  0
  9 10  1  0
 10 11  1  0
 11 12  1  0
 12 13  1  0
 13 14  1  0
 14 15  1  0
 15 16  2  0
 16 17  1  0
 17 18  2  0
 12 19  2  0
 19 20  1  0
 20 21  2  0
 21 22  1  0
  6 23  1  0
 23 24  1  0
 24 25  1  0
 23 26  2  0
 26  3  1  0
 22  8  1  0
 21 11  1  0
 18 14  1  0
  1 27  1  0
  1 28  1  0
  1 29  1  0
  4 30  1  0
  5 31  1  0
  7 32  1  0
  7 33  1  0
  9 34  1  0
  9 35  1  0
 10 36  1  0
 10 37  1  0
 13 38  1  0
 13 39  1  0
 15 40  1  0
 16 41  1  0
 17 42  1  0
 20 43  1  0
 22 44  1  0
 22 45  1  0
 25 46  1  0
 25 47  1  0
 25 48  1  0
 26 49  1  0
M  CHG  1  20   1
M  END
>  <UniqueID>  (39) 
34

>  <SMILES>  (39) 
COc1ccc(CN2CCn3c(Cn4cccn4)n[nH+]c3C2)c(OC)c1

>  <Energy>  (39) 
124.63005806201872

>  <Genealogy>  (39) 
COc1ccc(CN2CCn3c(Cn4cccn4)n[nH+]c3C2)c(OC)c1 (protonated)
COc1ccc(CN2CCn3c(Cn4cccn4)n[nH+]c3C2)c(OC)c1 (3D coordinates assigned)
COc1ccc(CN2CCn3c(Cn4cccn4)n[nH+]c3C2)c(OC)c1 (nonaromatic ring conformer: 124.63005806201872 kcal/mol)

>  <smiles>  (39) 
COc1ccc(CN2CCn3c(nnc3Cn3cccn3)C2)c(OC)c1

>  <score_type>  (39) 
oracle

>  <origin>  (39) 
adg

>  <m_score__min__energy>  (39) 
-6.3399999999999999

>  <m_primary>  (39) 
energy

$$$$
39:0
     RDKit          3D

 65 67  0  0  0  0  0  0  0  0999 V2000
   65.2726   32.6620   48.5498 H   0  0  0  0  0  0  0  0  0  0  0  0
   64.2300   33.0120   48.5730 C   0  0  0  0  0  0  0  0  0  0  0  0
   63.3950   32.7940   47.4760 C   0  0  0  0  0  0  0  0  0  0  0  0
   63.7827   32.2746   46.5873 H   0  0  0  0  0  0  0  0  0  0  0  0
   62.0680   33.2330   47.5020 C   0  0  0  0  0  0  0  0  0  0  0  0
   61.4149   33.0514   46.6357 H   0  0  0  0  0  0  0  0  0  0  0  0
   61.5620   33.9070   48.6320 C   0  0  0  0  0  0  0  0  0  0  0  0
   60.1630   34.4040   48.6590 C   0  0  0  0  0  0  0  0  0  0  0  0
   59.4230   34.2090   49.7120 N   0  0  0  0  0  0  0  0  0  0  0  0
   58.8980   32.9050   50.1130 C   0  0  0  0  0  0  0  0  0  0  0  0
   57.7988   32.9442   50.1254 H   0  0  0  0  0  0  0  0  0  0  0  0
   59.2766   32.6589   51.1160 H   0  0  0  0  0  0  0  0  0  0  0  0
   59.3540   31.8260   49.1290 C   0  0  0  0  0  0  0  0  0  0  0  0
   59.9561   32.2946   48.3366 H   0  0  0  0  0  0  0  0  0  0  0  0
   58.4616   31.3429   48.7044 H   0  0  0  0  0  0  0  0  0  0  0  0
   60.1850   30.7710   49.8200 C   0  0  0  0  0  0  0  0  0  0  0  0
   59.9200   29.4130   49.6060 C   0  0  0  0  0  0  0  0  0  0  0  0
   59.0651   29.1151   48.9812 H   0  0  0  0  0  0  0  0  0  0  0  0
   60.7330   28.4350   50.1800 C   0  0  0  0  0  0  0  0  0  0  0  0
   60.5196   27.3715   49.9970 H   0  0  0  0  0  0  0  0  0  0  0  0
   61.8250   28.7990   50.9920 C   0  0  0  0  0  0  0  0  0  0  0  0
   62.6750   27.8340   51.5600 O   0  0  0  0  0  0  0  0  0  0  0  0
   62.2530   26.5530   52.0150 C   0  0  0  0  0  0  0  0  0  0  0  0
   62.2480   26.5379   53.1149 H   0  0  0  0  0  0  0  0  0  0  0  0
   61.2394   26.3466   51.6409 H   0  0  0  0  0  0  0  0  0  0  0  0
   62.9455   25.7846   51.6409 H   0  0  0  0  0  0  0  0  0  0  0  0
   62.0750   30.1650   51.2380 C   0  0  0  0  0  0  0  0  0  0  0  0
   63.2360   30.6060   52.0940 C   0  0  0  0  0  0  0  0  0  0  0  0
   63.0559   31.6326   52.4456 H   0  0  0  0  0  0  0  0  0  0  0  0
   63.3255   29.9198   52.9491 H   0  0  0  0  0  0  0  0  0  0  0  0
   64.5460   30.5700   51.2930 C   0  0  0  0  0  0  0  0  0  0  0  0
   64.3371   30.1628   50.2927 H   0  0  0  0  0  0  0  0  0  0  0  0
   64.9330   31.5982   51.2374 H   0  0  0  0  0  0  0  0  0  0  0  0
   65.6310   29.6930   51.9710 C   0  0  0  0  0  0  0  0  0  0  0  0
   66.4905   29.6263   51.2877 H   0  0  0  0  0  0  0  0  0  0  0  0
   65.8665   30.1837   52.9269 H   0  0  0  0  0  0  0  0  0  0  0  0
   65.2060   28.3110   52.3110 N   0  0  0  0  0  0  0  0  0  0  0  0
   64.2360   28.1980   51.9310 H   0  0  0  0  0  0  0  0  0  0  0  0
   65.1230   28.0790   53.7630 C   0  0  0  0  0  0  0  0  0  0  0  0
   65.4468   28.9840   54.2980 H   0  0  0  0  0  0  0  0  0  0  0  0
   64.0845   27.8424   54.0377 H   0  0  0  0  0  0  0  0  0  0  0  0
   65.7758   27.2373   54.0377 H   0  0  0  0  0  0  0  0  0  0  0  0
   66.0370   27.2830   51.6590 C   0  0  0  0  0  0  0  0  0  0  0  0
   66.5321   26.6705   52.4269 H   0  0  0  0  0  0  0  0  0  0  0  0
   65.4011   26.6410   51.0317 H   0  0  0  0  0  0  0  0  0  0  0  0
   66.7980   27.7703   51.0317 H   0  0  0  0  0  0  0  0  0  0  0  0
   61.2640   31.1400   50.6330 C   0  0  0  0  0  0  0  0  0  0  0  0
   61.4792   32.2058   50.7999 H   0  0  0  0  0  0  0  0  0  0  0  0
   59.6100   35.0420   47.4990 N   0  0  0  0  0  0  0  0  0  0  0  0
   59.7260   36.0770   47.4140 H   0  0  0  0  0  0  0  0  0  0  0  0
   58.9420   34.3110   46.4550 C   0  0  0  0  0  0  0  0  0  0  0  0
   59.4640   34.3360   45.1520 C   0  0  0  0  0  0  0  0  0  0  0  0
   60.3807   34.9065   44.9417 H   0  0  0  0  0  0  0  0  0  0  0  0
   58.8270   33.6410   44.1200 C   0  0  0  0  0  0  0  0  0  0  0  0
   59.2435   33.6661   43.1022 H   0  0  0  0  0  0  0  0  0  0  0  0
   57.6630   32.9150   44.3790 C   0  0  0  0  0  0  0  0  0  0  0  0
   57.1637   32.3685   43.5653 H   0  0  0  0  0  0  0  0  0  0  0  0
   57.1320   32.8820   45.6700 C   0  0  0  0  0  0  0  0  0  0  0  0
   56.2142   32.3104   45.8723 H   0  0  0  0  0  0  0  0  0  0  0  0
   57.7660   33.5750   46.7060 C   0  0  0  0  0  0  0  0  0  0  0  0
   57.3451   33.5457   47.7219 H   0  0  0  0  0  0  0  0  0  0  0  0
   62.4170   34.1240   49.7310 C   0  0  0  0  0  0  0  0  0  0  0  0
   62.0401   34.6508   50.6200 H   0  0  0  0  0  0  0  0  0  0  0  0
   63.7400   33.6750   49.7000 C   0  0  0  0  0  0  0  0  0  0  0  0
   64.3971   33.8443   50.5657 H   0  0  0  0  0  0  0  0  0  0  0  0
  1  2  1  0
  2  3  2  0
  3  4  1  0
  3  5  1  0
  5  6  1  0
  5  7  2  0
  7  8  1  0
  8  9  2  0
  9 10  1  0
 10 11  1  0
 10 12  1  0
 10 13  1  0
 13 14  1  0
 13 15  1  0
 13 16  1  0
 16 17  2  0
 17 18  1  0
 17 19  1  0
 19 20  1  0
 19 21  2  0
 21 22  1  0
 22 23  1  0
 23 24  1  0
 23 25  1  0
 23 26  1  0
 21 27  1  0
 27 28  1  0
 28 29  1  0
 28 30  1  0
 28 31  1  0
 31 32  1  0
 31 33  1  0
 31 34  1  0
 34 35  1  0
 34 36  1  0
 34 37  1  0
 37 38  1  0
 37 39  1  0
 39 40  1  0
 39 41  1  0
 39 42  1  0
 37 43  1  0
 43 44  1  0
 43 45  1  0
 43 46  1  0
 27 47  2  0
 47 48  1  0
  8 49  1  0
 49 50  1  0
 49 51  1  0
 51 52  2  0
 52 53  1  0
 52 54  1  0
 54 55  1  0
 54 56  2  0
 56 57  1  0
 56 58  1  0
 58 59  1  0
 58 60  2  0
 60 61  1  0
  7 62  1  0
 62 63  1  0
 62 64  2  0
 64 65  1  0
 64  2  1  0
 47 16  1  0
 60 51  1  0
M  CHG  1  37   1
M  END
>  <UniqueID>  (40) 
35

>  <SMILES>  (40) 
COc1ccc(CC/N=C(\Nc2ccccc2)c2ccccc2)cc1CCC[NH+](C)C

>  <Energy>  (40) 
69.62288454815878

>  <Genealogy>  (40) 
COc1ccc(CCN=C(Nc2ccccc2)c2ccccc2)cc1CCC[NH+](C)C (protonated)
COc1ccc(CC/N=C(\Nc2ccccc2)c2ccccc2)cc1CCC[NH+](C)C (cis-trans isomerization)
COc1ccc(CC/N=C(\Nc2ccccc2)c2ccccc2)cc1CCC[NH+](C)C (3D coordinates assigned)
COc1ccc(CC/N=C(\Nc2ccccc2)c2ccccc2)cc1CCC[NH+](C)C (optimized conformer: 69.62288454815878 kcal/mol)

>  <smiles>  (40) 
COc1ccc(CCN=C(Nc2ccccc2)c2ccccc2)cc1CCCN(C)C

>  <score_type>  (40) 
oracle

>  <origin>  (40) 
adg

>  <m_score__min__energy>  (40) 
-7.2199999999999998

>  <m_primary>  (40) 
energy

$$$$
40:0
     RDKit          3D

 54 57  0  0  0  0  0  0  0  0999 V2000
   63.5070   29.6730   51.9620 C   0  0  0  0  0  0  0  0  0  0  0  0
   63.7910   30.8290   51.0480 C   0  0  0  0  0  0  0  0  0  0  0  0
   65.0650   31.4150   51.0260 C   0  0  0  0  0  0  0  0  0  0  0  0
   65.3380   32.4860   50.1640 C   0  0  0  0  0  0  0  0  0  0  0  0
   66.7080   33.0980   50.1350 C   0  0  0  0  0  0  0  0  0  0  0  0
   64.3440   32.9330   49.2800 C   0  0  0  0  0  0  0  0  0  0  0  0
   63.0820   32.3290   49.2630 C   0  0  0  0  0  0  0  0  0  0  0  0
   62.1160   32.8170   48.3700 O   0  0  0  0  0  0  0  0  0  0  0  0
   61.0600   32.0690   47.8280 C   0  0  0  0  0  0  0  0  0  0  0  0
   59.9190   32.7580   47.3530 C   0  0  0  0  0  0  0  0  0  0  0  0
   58.8360   32.0590   46.7900 C   0  0  0  0  0  0  0  0  0  0  0  0
   58.9270   30.6720   46.7070 C   0  0  0  0  0  0  0  0  0  0  0  0
   58.0130   29.8240   46.1990 N   0  0  0  0  0  0  0  0  0  0  0  0
   58.5610   28.5900   46.3130 C   0  0  0  0  0  0  0  0  0  0  0  0
   59.8030   28.6610   46.9260 C   0  0  0  0  0  0  0  0  0  0  0  0
   60.0370   29.9980   47.1530 C   0  0  0  0  0  0  0  0  0  0  0  0
   61.1290   30.6610   47.7090 C   0  0  0  0  0  0  0  0  0  0  0  0
   60.7070   27.4900   47.1610 C   0  0  0  0  0  0  0  0  0  0  0  0
   59.9050   26.1780   47.0990 C   0  0  0  0  0  0  0  0  0  0  0  0
   58.9540   26.1530   45.8850 C   0  0  0  0  0  0  0  0  0  0  0  0
   57.8870   27.2780   45.9630 C   0  0  2  0  0  0  0  0  0  0  0  0
   57.1250   27.3680   44.6890 N   0  0  0  0  0  0  0  0  0  0  0  0
   57.7630   28.2700   43.7050 C   0  0  0  0  0  0  0  0  0  0  0  0
   56.7960   29.3400   43.1650 C   0  0  0  0  0  0  0  0  0  0  0  0
   55.8800   29.8550   44.2320 C   0  0  0  0  0  0  0  0  0  0  0  0
   55.1440   29.0600   44.8720 O   0  0  0  0  0  0  0  0  0  0  0  0
   55.8630   31.2090   44.5430 O   0  0  0  0  0  0  0  0  0  0  0  0
   62.8040   31.2850   50.1630 C   0  0  0  0  0  0  0  0  0  0  0  0
   63.5883   30.0039   53.0079 H   0  0  0  0  0  0  0  0  0  0  0  0
   62.4901   29.2982   51.7740 H   0  0  0  0  0  0  0  0  0  0  0  0
   64.2345   28.8696   51.7740 H   0  0  0  0  0  0  0  0  0  0  0  0
   65.8546   31.0319   51.6891 H   0  0  0  0  0  0  0  0  0  0  0  0
   67.0610   33.2557   51.1648 H   0  0  0  0  0  0  0  0  0  0  0  0
   67.3999   32.4234   49.6095 H   0  0  0  0  0  0  0  0  0  0  0  0
   66.6672   34.0635   49.6095 H   0  0  0  0  0  0  0  0  0  0  0  0
   64.5589   33.7658   48.5942 H   0  0  0  0  0  0  0  0  0  0  0  0
   59.8784   33.8549   47.4250 H   0  0  0  0  0  0  0  0  0  0  0  0
   57.9448   32.5915   46.4265 H   0  0  0  0  0  0  0  0  0  0  0  0
   57.0830   30.0780   45.7990 H   0  0  0  0  0  0  0  0  0  0  0  0
   62.0176   30.1066   48.0452 H   0  0  0  0  0  0  0  0  0  0  0  0
   61.4895   27.4743   46.3881 H   0  0  0  0  0  0  0  0  0  0  0  0
   61.1644   27.5841   48.1569 H   0  0  0  0  0  0  0  0  0  0  0  0
   60.6061   25.3340   47.0211 H   0  0  0  0  0  0  0  0  0  0  0  0
   59.2988   26.1008   48.0136 H   0  0  0  0  0  0  0  0  0  0  0  0
   59.5453   26.2865   44.9671 H   0  0  0  0  0  0  0  0  0  0  0  0
   58.4303   25.1857   45.8817 H   0  0  0  0  0  0  0  0  0  0  0  0
   57.1611   27.0421   46.7551 H   0  0  0  0  0  0  0  0  0  0  0  0
   56.1460   27.6940   44.8600 H   0  0  0  0  0  0  0  0  0  0  0  0
   57.0330   26.4190   44.2570 H   0  0  0  0  0  0  0  0  0  0  0  0
   58.6118   28.7750   44.1892 H   0  0  0  0  0  0  0  0  0  0  0  0
   58.0878   27.6552   42.8526 H   0  0  0  0  0  0  0  0  0  0  0  0
   57.3827   30.1798   42.7644 H   0  0  0  0  0  0  0  0  0  0  0  0
   56.1791   28.8771   42.3807 H   0  0  0  0  0  0  0  0  0  0  0  0
   61.8057   30.8231   50.1727 H   0  0  0  0  0  0  0  0  0  0  0  0
  1  2  1  0
  2  3  2  0
  3  4  1  0
  4  5  1  0
  4  6  2  0
  6  7  1  0
  7  8  1  0
  8  9  1  0
  9 10  2  0
 10 11  1  0
 11 12  2  0
 12 13  1  0
 13 14  1  0
 14 15  2  0
 15 16  1  0
 16 17  2  0
 15 18  1  0
 18 19  1  0
 19 20  1  0
 20 21  1  0
 21 22  1  0
 22 23  1  0
 23 24  1  0
 24 25  1  0
 25 26  2  0
 25 27  1  0
  7 28  2  0
 28  2  1  0
 17  9  1  0
 16 12  1  0
 21 14  1  0
  1 29  1  0
  1 30  1  0
  1 31  1  0
  3 32  1  0
  5 33  1  0
  5 34  1  0
  5 35  1  0
  6 36  1  0
 10 37  1  0
 11 38  1  0
 13 39  1  0
 17 40  1  0
 18 41  1  0
 18 42  1  0
 19 43  1  0
 19 44  1  0
 20 45  1  0
 20 46  1  0
 21 47  1  1
 22 48  1  0
 22 49  1  0
 23 50  1  0
 23 51  1  0
 24 52  1  0
 24 53  1  0
 28 54  1  0
M  CHG  2  22   1  27  -1
M  END
>  <UniqueID>  (41) 
36

>  <SMILES>  (41) 
Cc1cc(C)cc(Oc2ccc3[nH]c4c(c3c2)CCC[C@@H]4[NH2+]CCC(=O)[O-])c1

>  <Energy>  (41) 
96.75286068454119

>  <Genealogy>  (41) 
Cc1cc(C)cc(Oc2ccc3[nH]c4c(c3c2)CCCC4[NH2+]CCC(=O)[O-])c1 (protonated)
Cc1cc(C)cc(Oc2ccc3[nH]c4c(c3c2)CCC[C@@H]4[NH2+]CCC(=O)[O-])c1 (chirality)
Cc1cc(C)cc(Oc2ccc3[nH]c4c(c3c2)CCC[C@@H]4[NH2+]CCC(=O)[O-])c1 (3D coordinates assigned)
Cc1cc(C)cc(Oc2ccc3[nH]c4c(c3c2)CCC[C@@H]4[NH2+]CCC(=O)[O-])c1 (nonaromatic ring conformer: 96.75286068454119 kcal/mol)

>  <smiles>  (41) 
Cc1cc(C)cc(Oc2ccc3[nH]c4c(c3c2)CCCC4NCCC(=O)O)c1

>  <score_type>  (41) 
oracle

>  <origin>  (41) 
adg

>  <m_score__min__energy>  (41) 
-10.83

>  <m_primary>  (41) 
energy

$$$$
41:0
     RDKit          3D

 45 48  0  0  0  0  0  0  0  0999 V2000
   55.1430   29.7150   43.4970 C   0  0  0  0  0  0  0  0  0  0  0  0
   55.6180   29.4800   44.8170 O   0  0  0  0  0  0  0  0  0  0  0  0
   56.9510   29.6850   45.1870 C   0  0  0  0  0  0  0  0  0  0  0  0
   57.3930   30.9200   45.5450 N   0  0  0  0  0  0  0  0  0  0  0  0
   58.6590   31.1550   45.9040 N   0  0  0  0  0  0  0  0  0  0  0  0
   58.9980   32.5060   46.2530 C   0  0  0  0  0  0  0  0  0  0  0  0
   58.9880   32.9030   47.6000 C   0  0  0  0  0  0  0  0  0  0  0  0
   59.3050   34.2180   47.9490 C   0  0  0  0  0  0  0  0  0  0  0  0
   59.6250   35.1490   46.9560 C   0  0  0  0  0  0  0  0  0  0  0  0
   59.6170   34.7660   45.6110 C   0  0  0  0  0  0  0  0  0  0  0  0
   59.2970   33.4510   45.2580 C   0  0  0  0  0  0  0  0  0  0  0  0
   59.5720   30.1260   45.9550 C   0  0  0  0  0  0  0  0  0  0  0  0
   61.0060   30.3250   46.4090 C   0  0  0  0  0  0  0  0  0  0  0  0
   61.0750   31.0710   47.6240 O   0  0  0  0  0  0  0  0  0  0  0  0
   62.1540   31.8720   48.0360 C   0  0  0  0  0  0  0  0  0  0  0  0
   62.6600   32.9100   47.2280 C   0  0  0  0  0  0  0  0  0  0  0  0
   63.7490   33.6740   47.6520 C   0  0  0  0  0  0  0  0  0  0  0  0
   64.3500   33.4190   48.8850 C   0  0  0  0  0  0  0  0  0  0  0  0
   63.8600   32.3980   49.7080 C   0  0  0  0  0  0  0  0  0  0  0  0
   64.4530   32.1290   50.9490 C   0  0  0  0  0  0  0  0  0  0  0  0
   63.9710   31.1320   51.7380 N   0  0  0  0  0  0  0  0  0  0  0  0
   62.9060   30.3750   51.3580 C   0  0  0  0  0  0  0  0  0  0  0  0
   62.2770   30.6060   50.1340 C   0  0  0  0  0  0  0  0  0  0  0  0
   62.7520   31.6230   49.2890 C   0  0  0  0  0  0  0  0  0  0  0  0
   59.1650   28.8410   45.5730 C   0  0  0  0  0  0  0  0  0  0  0  0
   57.8460   28.6180   45.1900 C   0  0  0  0  0  0  0  0  0  0  0  0
   57.4680   27.4630   44.8550 O   0  0  0  0  0  0  0  0  0  0  0  0
   54.1579   30.2024   43.5431 H   0  0  0  0  0  0  0  0  0  0  0  0
   55.8501   30.3672   42.9635 H   0  0  0  0  0  0  0  0  0  0  0  0
   55.0536   28.7572   42.9635 H   0  0  0  0  0  0  0  0  0  0  0  0
   58.7295   32.1755   48.3835 H   0  0  0  0  0  0  0  0  0  0  0  0
   59.3029   34.5214   49.0063 H   0  0  0  0  0  0  0  0  0  0  0  0
   59.8829   36.1820   47.2326 H   0  0  0  0  0  0  0  0  0  0  0  0
   59.8628   35.5001   44.8295 H   0  0  0  0  0  0  0  0  0  0  0  0
   59.2795   33.1562   44.1984 H   0  0  0  0  0  0  0  0  0  0  0  0
   61.4697   29.3403   46.5682 H   0  0  0  0  0  0  0  0  0  0  0  0
   61.5382   30.8891   45.6289 H   0  0  0  0  0  0  0  0  0  0  0  0
   62.1928   33.1201   46.2546 H   0  0  0  0  0  0  0  0  0  0  0  0
   64.1348   34.4805   47.0111 H   0  0  0  0  0  0  0  0  0  0  0  0
   65.2106   34.0214   49.2111 H   0  0  0  0  0  0  0  0  0  0  0  0
   65.3123   32.7272   51.2863 H   0  0  0  0  0  0  0  0  0  0  0  0
   64.4280   30.9420   52.6580 H   0  0  0  0  0  0  0  0  0  0  0  0
   62.5388   29.5764   52.0194 H   0  0  0  0  0  0  0  0  0  0  0  0
   61.4136   29.9949   49.8322 H   0  0  0  0  0  0  0  0  0  0  0  0
   59.8863   28.0105   45.5758 H   0  0  0  0  0  0  0  0  0  0  0  0
  1  2  1  0
  2  3  1  0
  3  4  2  0
  4  5  1  0
  5  6  1  0
  6  7  2  0
  7  8  1  0
  8  9  2  0
  9 10  1  0
 10 11  2  0
  5 12  1  0
 12 13  1  0
 13 14  1  0
 14 15  1  0
 15 16  2  0
 16 17  1  0
 17 18  2  0
 18 19  1  0
 19 20  2  0
 20 21  1  0
 21 22  2  0
 22 23  1  0
 23 24  2  0
 12 25  2  0
 25 26  1  0
 26 27  2  0
 26  3  1  0
 11  6  1  0
 24 15  1  0
 24 19  1  0
  1 28  1  0
  1 29  1  0
  1 30  1  0
  7 31  1  0
  8 32  1  0
  9 33  1  0
 10 34  1  0
 11 35  1  0
 13 36  1  0
 13 37  1  0
 16 38  1  0
 17 39  1  0
 18 40  1  0
 20 41  1  0
 21 42  1  0
 22 43  1  0
 23 44  1  0
 25 45  1  0
M  CHG  1  21   1
M  END
>  <UniqueID>  (42) 
37

>  <SMILES>  (42) 
COc1nn(-c2ccccc2)c(COc2cccc3c[nH+]ccc23)cc1=O

>  <Energy>  (42) 
57.851387648375486

>  <Genealogy>  (42) 
COc1nn(-c2ccccc2)c(COc2cccc3c[nH+]ccc23)cc1=O (protonated)
COc1nn(-c2ccccc2)c(COc2cccc3c[nH+]ccc23)cc1=O (3D coordinates assigned)
COc1nn(-c2ccccc2)c(COc2cccc3c[nH+]ccc23)cc1=O (optimized conformer: 57.851387648375486 kcal/mol)

>  <smiles>  (42) 
COc1nn(-c2ccccc2)c(COc2cccc3cnccc23)cc1=O

>  <score_type>  (42) 
oracle

>  <origin>  (42) 
adg

>  <m_score__min__energy>  (42) 
-7.4699999999999998

>  <m_primary>  (42) 
energy

$$$$
42:0
     RDKit          3D

 25 27  0  0  0  0  0  0  0  0999 V2000
   60.0220   34.5890   48.0720 C   0  0  0  0  0  0  0  0  0  0  0  0
   59.8210   35.3010   46.4100 S   0  0  0  0  0  0  0  0  0  0  0  0
   58.7540   33.9770   45.8510 C   0  0  0  0  0  0  0  0  0  0  0  0
   58.9520   32.6750   46.1440 N   0  0  0  0  0  0  0  0  0  0  0  0
   57.9980   31.8700   45.5980 C   0  0  0  0  0  0  0  0  0  0  0  0
   58.0040   30.4090   45.7780 C   0  0  0  0  0  0  0  0  0  0  0  0
   56.9500   29.6200   45.4370 N   0  0  0  0  0  0  0  0  0  0  0  0
   57.3860   28.3960   45.7640 C   0  0  0  0  0  0  0  0  0  0  0  0
   56.7090   27.1850   45.6310 C   0  0  0  0  0  0  0  0  0  0  0  0
   57.3740   26.0160   46.0470 C   0  0  0  0  0  0  0  0  0  0  0  0
   58.6820   26.0880   46.5800 C   0  0  0  0  0  0  0  0  0  0  0  0
   59.3340   27.3300   46.6990 C   0  0  0  0  0  0  0  0  0  0  0  0
   58.6440   28.4650   46.2770 C   0  0  0  0  0  0  0  0  0  0  0  0
   59.0660   29.7380   46.2980 N   0  0  0  0  0  0  0  0  0  0  0  0
   57.0240   32.5440   44.8600 C   0  0  0  0  0  0  0  0  0  0  0  0
   57.3840   34.1890   44.9040 S   0  0  0  0  0  0  0  0  0  0  0  0
   59.8051   35.3573   48.8287 H   0  0  0  0  0  0  0  0  0  0  0  0
   59.3269   33.7456   48.1961 H   0  0  0  0  0  0  0  0  0  0  0  0
   61.0556   34.2336   48.1961 H   0  0  0  0  0  0  0  0  0  0  0  0
   59.7510   32.3330   46.7220 H   0  0  0  0  0  0  0  0  0  0  0  0
   55.6912   27.1441   45.2157 H   0  0  0  0  0  0  0  0  0  0  0  0
   56.8733   25.0407   45.9569 H   0  0  0  0  0  0  0  0  0  0  0  0
   59.1925   25.1688   46.9032 H   0  0  0  0  0  0  0  0  0  0  0  0
   60.3516   27.4021   47.1103 H   0  0  0  0  0  0  0  0  0  0  0  0
   56.1712   32.0823   44.3409 H   0  0  0  0  0  0  0  0  0  0  0  0
  1  2  1  0
  2  3  1  0
  3  4  2  0
  4  5  1  0
  5  6  1  0
  6  7  2  0
  7  8  1  0
  8  9  2  0
  9 10  1  0
 10 11  2  0
 11 12  1  0
 12 13  2  0
 13 14  1  0
  5 15  2  0
 15 16  1  0
 16  3  1  0
 14  6  1  0
 13  8  1  0
  1 17  1  0
  1 18  1  0
  1 19  1  0
  4 20  1  0
  9 21  1  0
 10 22  1  0
 11 23  1  0
 12 24  1  0
 15 25  1  0
M  CHG  2   4   1  14  -1
M  END
>  <UniqueID>  (43) 
38

>  <SMILES>  (43) 
CSc1[nH+]c(-c2nc3ccccc3[n-]2)cs1

>  <Energy>  (43) 
86.72818015618265

>  <Genealogy>  (43) 
CSc1[nH+]c(-c2nc3ccccc3[n-]2)cs1 (protonated)
CSc1[nH+]c(-c2nc3ccccc3[n-]2)cs1 (3D coordinates assigned)
CSc1[nH+]c(-c2nc3ccccc3[n-]2)cs1 (optimized conformer: 86.72818015618265 kcal/mol)

>  <smiles>  (43) 
CSc1nc(-c2nc3ccccc3[nH]2)cs1

>  <score_type>  (43) 
oracle

>  <origin>  (43) 
adg

>  <m_score__min__energy>  (43) 
-5.9400000000000004

>  <m_primary>  (43) 
energy

$$$$
43:0
     RDKit          3D

 37 39  0  0  0  0  0  0  0  0999 V2000
   57.7920   32.2830   42.6640 C   0  0  0  0  0  0  0  0  0  0  0  0
   58.3480   32.7890   43.9610 C   0  0  0  0  0  0  0  0  0  0  0  0
   58.8770   34.0500   44.1470 C   0  0  0  0  0  0  0  0  0  0  0  0
   59.3000   34.1090   45.4600 C   0  0  0  0  0  0  0  0  0  0  0  0
   58.9970   32.8840   46.0290 C   0  0  0  0  0  0  0  0  0  0  0  0
   59.2520   32.5360   47.4470 C   0  0  0  0  0  0  0  0  0  0  0  0
   60.5270   32.1170   47.8680 C   0  0  0  0  0  0  0  0  0  0  0  0
   60.7560   31.7900   49.2070 C   0  0  0  0  0  0  0  0  0  0  0  0
   59.7150   31.8680   50.1370 C   0  0  0  0  0  0  0  0  0  0  0  0
   60.0320   31.4220   51.9660 Br  0  0  0  0  0  0  0  0  0  0  0  0
   58.4410   32.2680   49.7240 C   0  0  0  0  0  0  0  0  0  0  0  0
   58.2080   32.5960   48.3850 C   0  0  0  0  0  0  0  0  0  0  0  0
   58.4100   32.0790   45.1120 N   0  0  0  0  0  0  0  0  0  0  0  0
   58.0400   30.6990   45.2780 C   0  0  0  0  0  0  0  0  0  0  0  0
   58.9000   29.8120   45.9450 C   0  0  0  0  0  0  0  0  0  0  0  0
   58.5330   28.4750   46.1230 C   0  0  0  0  0  0  0  0  0  0  0  0
   57.3060   28.0090   45.6330 C   0  0  0  0  0  0  0  0  0  0  0  0
   56.8370   26.3300   45.8750 S   0  0  0  0  0  0  0  0  0  0  0  0
   55.1140   26.2220   45.9440 N   0  0  0  0  0  0  0  0  0  0  0  0
   57.4250   25.8170   47.1590 O   0  0  0  0  0  0  0  0  0  0  0  0
   57.3490   25.4890   44.7390 O   0  0  0  0  0  0  0  0  0  0  0  0
   56.4430   28.8950   44.9730 C   0  0  0  0  0  0  0  0  0  0  0  0
   56.8090   30.2320   44.7950 C   0  0  0  0  0  0  0  0  0  0  0  0
   56.9924   31.5553   42.8669 H   0  0  0  0  0  0  0  0  0  0  0  0
   57.3833   33.1254   42.0867 H   0  0  0  0  0  0  0  0  0  0  0  0
   58.5923   31.7970   42.0867 H   0  0  0  0  0  0  0  0  0  0  0  0
   58.9478   34.8510   43.3964 H   0  0  0  0  0  0  0  0  0  0  0  0
   59.7835   34.9629   45.9570 H   0  0  0  0  0  0  0  0  0  0  0  0
   61.3480   32.0464   47.1394 H   0  0  0  0  0  0  0  0  0  0  0  0
   61.7577   31.4704   49.5302 H   0  0  0  0  0  0  0  0  0  0  0  0
   57.6200   32.3249   50.4539 H   0  0  0  0  0  0  0  0  0  0  0  0
   57.2015   32.9028   48.0642 H   0  0  0  0  0  0  0  0  0  0  0  0
   59.8664   30.1706   46.3290 H   0  0  0  0  0  0  0  0  0  0  0  0
   59.2100   27.7863   46.6497 H   0  0  0  0  0  0  0  0  0  0  0  0
   54.7740   27.0870   46.4220 H   0  0  0  0  0  0  0  0  0  0  0  0
   55.4745   28.5367   44.5940 H   0  0  0  0  0  0  0  0  0  0  0  0
   56.1284   30.9212   44.2737 H   0  0  0  0  0  0  0  0  0  0  0  0
  1  2  1  0
  2  3  2  0
  3  4  1  0
  4  5  2  0
  5  6  1  0
  6  7  2  0
  7  8  1  0
  8  9  2  0
  9 10  1  0
  9 11  1  0
 11 12  2  0
  5 13  1  0
 13 14  1  0
 14 15  2  0
 15 16  1  0
 16 17  2  0
 17 18  1  0
 18 19  1  0
 18 20  2  0
 18 21  2  0
 17 22  1  0
 22 23  2  0
 13  2  1  0
 23 14  1  0
 12  6  1  0
  1 24  1  0
  1 25  1  0
  1 26  1  0
  3 27  1  0
  4 28  1  0
  7 29  1  0
  8 30  1  0
 11 31  1  0
 12 32  1  0
 15 33  1  0
 16 34  1  0
 19 35  1  0
 22 36  1  0
 23 37  1  0
M  CHG  1  19  -1
M  END
>  <UniqueID>  (44) 
39

>  <SMILES>  (44) 
Cc1ccc(-c2ccc(Br)cc2)n1-c1ccc(S([NH-])(=O)=O)cc1

>  <Energy>  (44) 
74.16044232939441

>  <Genealogy>  (44) 
Cc1ccc(-c2ccc(Br)cc2)n1-c1ccc(S([NH-])(=O)=O)cc1 (protonated)
Cc1ccc(-c2ccc(Br)cc2)n1-c1ccc(S([NH-])(=O)=O)cc1 (3D coordinates assigned)
Cc1ccc(-c2ccc(Br)cc2)n1-c1ccc(S([NH-])(=O)=O)cc1 (optimized conformer: 74.16044232939441 kcal/mol)

>  <smiles>  (44) 
Cc1ccc(-c2ccc(Br)cc2)n1-c1ccc(S(N)(=O)=O)cc1

>  <score_type>  (44) 
oracle

>  <origin>  (44) 
adg

>  <m_score__min__energy>  (44) 
-10.710000000000001

>  <m_primary>  (44) 
energy

$$$$
44:0
     RDKit          3D

 41 44  0  0  0  0  0  0  0  0999 V2000
   64.8810   31.3330   50.9120 C   0  0  0  0  0  0  0  0  0  0  0  0
   64.1620   31.9220   49.7900 N   0  0  0  0  0  0  0  0  0  0  0  0
   62.9180   31.5980   49.3960 C   0  0  0  0  0  0  0  0  0  0  0  0
   62.6240   32.3280   48.2580 C   0  0  0  0  0  0  0  0  0  0  0  0
   61.3660   32.3040   47.4680 C   0  0  0  0  0  0  0  0  0  0  0  0
   60.7310   33.5030   47.1060 C   0  0  0  0  0  0  0  0  0  0  0  0
   59.5460   33.4660   46.3650 C   0  0  0  0  0  0  0  0  0  0  0  0
   58.8940   34.6500   45.9930 C   0  0  0  0  0  0  0  0  0  0  0  0
   57.7440   34.5970   45.2710 N   0  0  0  0  0  0  0  0  0  0  0  0
   57.1930   33.4160   44.8880 C   0  0  0  0  0  0  0  0  0  0  0  0
   57.8050   32.2100   45.2340 C   0  0  0  0  0  0  0  0  0  0  0  0
   58.9950   32.2260   45.9820 C   0  0  0  0  0  0  0  0  0  0  0  0
   59.6590   31.0430   46.3640 C   0  0  0  0  0  0  0  0  0  0  0  0
   59.1420   29.7540   46.0060 N   0  0  0  0  0  0  0  0  0  0  0  0
   59.3490   29.2410   44.6480 C   0  0  0  0  0  0  0  0  0  0  0  0
   58.1150   28.4640   44.1330 C   0  0  0  0  0  0  0  0  0  0  0  0
   57.1900   28.0440   45.2000 N   0  0  0  0  0  0  0  0  0  0  0  0
   57.9040   27.6710   46.4240 C   0  0  0  0  0  0  0  0  0  0  0  0
   58.5150   28.9270   47.0400 C   0  0  0  0  0  0  0  0  0  0  0  0
   60.8130   31.1140   47.0870 N   0  0  0  0  0  0  0  0  0  0  0  0
   63.7670   33.0770   48.0150 C   0  0  0  0  0  0  0  0  0  0  0  0
   64.6910   32.8030   48.9560 N   0  0  0  0  0  0  0  0  0  0  0  0
   64.4441   31.6909   51.8560 H   0  0  0  0  0  0  0  0  0  0  0  0
   64.8017   30.2369   50.8636 H   0  0  0  0  0  0  0  0  0  0  0  0
   65.9400   31.6265   50.8636 H   0  0  0  0  0  0  0  0  0  0  0  0
   62.2504   30.8781   49.8919 H   0  0  0  0  0  0  0  0  0  0  0  0
   61.1647   34.4688   47.4046 H   0  0  0  0  0  0  0  0  0  0  0  0
   59.3140   35.6235   46.2860 H   0  0  0  0  0  0  0  0  0  0  0  0
   56.2614   33.4099   44.3032 H   0  0  0  0  0  0  0  0  0  0  0  0
   57.3590   31.2536   44.9234 H   0  0  0  0  0  0  0  0  0  0  0  0
   59.5435   30.0878   43.9734 H   0  0  0  0  0  0  0  0  0  0  0  0
   60.2037   28.5489   44.6707 H   0  0  0  0  0  0  0  0  0  0  0  0
   57.5659   29.1100   43.4322 H   0  0  0  0  0  0  0  0  0  0  0  0
   58.4900   27.5473   43.6544 H   0  0  0  0  0  0  0  0  0  0  0  0
   56.6600   27.2060   44.8630 H   0  0  0  0  0  0  0  0  0  0  0  0
   57.2018   27.2138   47.1367 H   0  0  0  0  0  0  0  0  0  0  0  0
   58.6976   26.9470   46.1875 H   0  0  0  0  0  0  0  0  0  0  0  0
   57.7240   29.5076   47.5373 H   0  0  0  0  0  0  0  0  0  0  0  0
   59.2822   28.6279   47.7694 H   0  0  0  0  0  0  0  0  0  0  0  0
   61.2820   30.2150   47.3390 H   0  0  0  0  0  0  0  0  0  0  0  0
   63.8979   33.7846   47.1830 H   0  0  0  0  0  0  0  0  0  0  0  0
  1  2  1  0
  2  3  1  0
  3  4  2  0
  4  5  1  0
  5  6  2  0
  6  7  1  0
  7  8  2  0
  8  9  1  0
  9 10  2  0
 10 11  1  0
 11 12  2  0
 12 13  1  0
 13 14  1  0
 14 15  1  0
 15 16  1  0
 16 17  1  0
 17 18  1  0
 18 19  1  0
 13 20  2  0
  4 21  1  0
 21 22  2  0
 22  2  1  0
 20  5  1  0
 12  7  1  0
 19 14  1  0
  1 23  1  0
  1 24  1  0
  1 25  1  0
  3 26  1  0
  6 27  1  0
  8 28  1  0
 10 29  1  0
 11 30  1  0
 15 31  1  0
 15 32  1  0
 16 33  1  0
 16 34  1  0
 17 35  1  0
 18 36  1  0
 18 37  1  0
 19 38  1  0
 19 39  1  0
 20 40  1  0
 21 41  1  0
M  CHG  1  20   1
M  END
>  <UniqueID>  (45) 
40

>  <SMILES>  (45) 
Cn1cc(-c2cc3cnccc3c(N3CCNCC3)[nH+]2)cn1

>  <Energy>  (45) 
88.88759595431624

>  <Genealogy>  (45) 
Cn1cc(-c2cc3cnccc3c(N3CCNCC3)[nH+]2)cn1 (protonated)
Cn1cc(-c2cc3cnccc3c(N3CCNCC3)[nH+]2)cn1 (3D coordinates assigned)
Cn1cc(-c2cc3cnccc3c(N3CCNCC3)[nH+]2)cn1 (nonaromatic ring conformer: 88.88759595431624 kcal/mol)

>  <smiles>  (45) 
Cn1cc(-c2cc3cnccc3c(N3CCNCC3)n2)cn1

>  <score_type>  (45) 
oracle

>  <origin>  (45) 
adg

>  <m_score__min__energy>  (45) 
-5.5099999999999998

>  <m_primary>  (45) 
energy

$$$$
45:0
     RDKit          3D

 64 68  0  0  0  0  0  0  0  0999 V2000
   59.3260   29.9180   48.9770 C   0  0  0  0  0  0  0  0  0  0  0  0
   58.7620   29.7440   47.6030 C   0  0  0  0  0  0  0  0  0  0  0  0
   58.2940   28.5280   47.1870 N   0  0  0  0  0  0  0  0  0  0  0  0
   57.7720   28.3470   45.9290 C   0  0  0  0  0  0  0  0  0  0  0  0
   57.2860   26.9850   45.5110 C   0  0  0  0  0  0  0  0  0  0  0  0
   57.9490   26.5480   44.1990 C   0  0  0  0  0  0  0  0  0  0  0  0
   57.3990   25.1820   43.7550 C   0  0  0  0  0  0  0  0  0  0  0  0
   57.3070   24.1820   44.8490 N   0  0  0  0  0  0  0  0  0  0  0  0
   55.6610   23.6490   45.1130 S   0  0  0  0  0  0  0  0  0  0  0  0
   55.1240   24.2780   46.3680 O   0  0  0  0  0  0  0  0  0  0  0  0
   54.7970   24.0590   43.9520 O   0  0  0  0  0  0  0  0  0  0  0  0
   55.6490   21.9040   45.2590 N   0  0  0  0  0  0  0  0  0  0  0  0
   56.9870   21.3220   45.0190 C   0  0  0  0  0  0  0  0  0  0  0  0
   57.7220   20.9590   46.3210 C   0  0  0  0  0  0  0  0  0  0  0  0
   57.3790   21.8670   47.3430 O   0  0  0  0  0  0  0  0  0  0  0  0
   56.0300   21.6780   47.7320 C   0  0  0  0  0  0  0  0  0  0  0  0
   55.0640   21.4690   46.5400 C   0  0  0  0  0  0  0  0  0  0  0  0
   57.9710   24.5740   46.1090 C   0  0  0  0  0  0  0  0  0  0  0  0
   57.5110   25.9460   46.6360 C   0  0  0  0  0  0  0  0  0  0  0  0
   57.7220   29.3960   45.0500 N   0  0  0  0  0  0  0  0  0  0  0  0
   58.1900   30.5980   45.4610 C   0  0  0  0  0  0  0  0  0  0  0  0
   58.7010   30.7980   46.6980 C   0  0  0  0  0  0  0  0  0  0  0  0
   59.0800   32.0800   46.8520 N   0  0  0  0  0  0  0  0  0  0  0  0
   58.7620   32.6320   45.6470 C   0  0  0  0  0  0  0  0  0  0  0  0
   59.0140   34.0710   45.3290 C   0  0  0  0  0  0  0  0  0  0  0  0
   59.6110   34.7030   46.4570 O   0  0  0  0  0  0  0  0  0  0  0  0
   60.7820   34.2580   47.0870 C   0  0  0  0  0  0  0  0  0  0  0  0
   61.9180   33.8410   46.3640 C   0  0  0  0  0  0  0  0  0  0  0  0
   63.0620   33.4040   47.0410 C   0  0  0  0  0  0  0  0  0  0  0  0
   63.0840   33.3800   48.4390 C   0  0  0  0  0  0  0  0  0  0  0  0
   64.5190   32.8320   49.2850 Cl  0  0  0  0  0  0  0  0  0  0  0  0
   61.9610   33.7940   49.1610 C   0  0  0  0  0  0  0  0  0  0  0  0
   60.8160   34.2310   48.4870 C   0  0  0  0  0  0  0  0  0  0  0  0
   58.2330   31.7400   44.7650 N   0  0  0  0  0  0  0  0  0  0  0  0
   57.7210   31.9890   43.4210 C   0  0  0  0  0  0  0  0  0  0  0  0
   58.5537   29.6797   49.7232 H   0  0  0  0  0  0  0  0  0  0  0  0
   60.1843   29.2429   49.1092 H   0  0  0  0  0  0  0  0  0  0  0  0
   59.6548   30.9594   49.1092 H   0  0  0  0  0  0  0  0  0  0  0  0
   56.2025   27.0469   45.3317 H   0  0  0  0  0  0  0  0  0  0  0  0
   57.7390   27.2950   43.4194 H   0  0  0  0  0  0  0  0  0  0  0  0
   59.0345   26.4640   44.3561 H   0  0  0  0  0  0  0  0  0  0  0  0
   56.3918   25.3334   43.3395 H   0  0  0  0  0  0  0  0  0  0  0  0
   58.1070   24.7796   43.0155 H   0  0  0  0  0  0  0  0  0  0  0  0
   56.8703   20.4099   44.4154 H   0  0  0  0  0  0  0  0  0  0  0  0
   57.5898   22.0812   44.4992 H   0  0  0  0  0  0  0  0  0  0  0  0
   57.4368   19.9419   46.6278 H   0  0  0  0  0  0  0  0  0  0  0  0
   58.8069   21.0082   46.1464 H   0  0  0  0  0  0  0  0  0  0  0  0
   55.9765   20.7924   48.3822 H   0  0  0  0  0  0  0  0  0  0  0  0
   55.7116   22.5959   48.2478 H   0  0  0  0  0  0  0  0  0  0  0  0
   54.8158   20.3997   46.4699 H   0  0  0  0  0  0  0  0  0  0  0  0
   54.1679   22.0799   46.7238 H   0  0  0  0  0  0  0  0  0  0  0  0
   57.7488   23.8139   46.8724 H   0  0  0  0  0  0  0  0  0  0  0  0
   59.0486   24.6483   45.9012 H   0  0  0  0  0  0  0  0  0  0  0  0
   56.5659   25.8120   47.1827 H   0  0  0  0  0  0  0  0  0  0  0  0
   58.3110   26.3330   47.2843 H   0  0  0  0  0  0  0  0  0  0  0  0
   59.6915   34.1436   44.4654 H   0  0  0  0  0  0  0  0  0  0  0  0
   58.0627   34.5679   45.0878 H   0  0  0  0  0  0  0  0  0  0  0  0
   61.9051   33.8592   45.2642 H   0  0  0  0  0  0  0  0  0  0  0  0
   63.9457   33.0787   46.4724 H   0  0  0  0  0  0  0  0  0  0  0  0
   61.9778   33.7761   50.2607 H   0  0  0  0  0  0  0  0  0  0  0  0
   59.9355   34.5559   49.0607 H   0  0  0  0  0  0  0  0  0  0  0  0
   56.7336   32.4692   43.4879 H   0  0  0  0  0  0  0  0  0  0  0  0
   58.4146   32.6504   42.8811 H   0  0  0  0  0  0  0  0  0  0  0  0
   57.6290   31.0350   42.8811 H   0  0  0  0  0  0  0  0  0  0  0  0
  1  2  1  0
  2  3  2  0
  3  4  1  0
  4  5  1  0
  5  6  1  0
  6  7  1  0
  7  8  1  0
  8  9  1  0
  9 10  2  0
  9 11  2  0
  9 12  1  0
 12 13  1  0
 13 14  1  0
 14 15  1  0
 15 16  1  0
 16 17  1  0
  8 18  1  0
 18 19  1  0
  4 20  2  0
 20 21  1  0
 21 22  2  0
 22 23  1  0
 23 24  2  0
 24 25  1  0
 25 26  1  0
 26 27  1  0
 27 28  2  0
 28 29  1  0
 29 30  2  0
 30 31  1  0
 30 32  1  0
 32 33  2  0
 24 34  1  0
 34 35  1  0
 22  2  1  0
 33 27  1  0
 19  5  1  0
 34 21  1  0
 17 12  1  0
  1 36  1  0
  1 37  1  0
  1 38  1  0
  5 39  1  0
  6 40  1  0
  6 41  1  0
  7 42  1  0
  7 43  1  0
 13 44  1  0
 13 45  1  0
 14 46  1  0
 14 47  1  0
 16 48  1  0
 16 49  1  0
 17 50  1  0
 17 51  1  0
 18 52  1  0
 18 53  1  0
 19 54  1  0
 19 55  1  0
 25 56  1  0
 25 57  1  0
 28 58  1  0
 29 59  1  0
 32 60  1  0
 33 61  1  0
 35 62  1  0
 35 63  1  0
 35 64  1  0
M  END
>  <UniqueID>  (46) 
41

>  <SMILES>  (46) 
Cc1nc(C2CCN(S(=O)(=O)N3CCOCC3)CC2)nc2c1nc(COc1ccc(Cl)cc1)n2C

>  <Energy>  (46) 
121.50552402785206

>  <Genealogy>  (46) 
Cc1nc(C2CCN(S(=O)(=O)N3CCOCC3)CC2)nc2c1nc(COc1ccc(Cl)cc1)n2C (3D coordinates assigned)
Cc1nc(C2CCN(S(=O)(=O)N3CCOCC3)CC2)nc2c1nc(COc1ccc(Cl)cc1)n2C (nonaromatic ring conformer: 121.50552402785206 kcal/mol)

>  <smiles>  (46) 
Cc1nc(C2CCN(S(=O)(=O)N3CCOCC3)CC2)nc2c1nc(COc1ccc(Cl)cc1)n2C

>  <score_type>  (46) 
oracle

>  <origin>  (46) 
adg

>  <m_score__min__energy>  (46) 
-10.85

>  <m_primary>  (46) 
energy

$$$$
46:0
     RDKit          3D

 48 50  0  0  0  0  0  0  0  0999 V2000
   61.2830   33.8380   50.6620 C   0  0  0  0  0  0  0  0  0  0  0  0
   59.9720   33.6960   50.1260 O   0  0  0  0  0  0  0  0  0  0  0  0
   59.6850   33.2100   48.8390 C   0  0  0  0  0  0  0  0  0  0  0  0
   58.9540   33.9660   47.9020 C   0  0  0  0  0  0  0  0  0  0  0  0
   58.6870   33.4500   46.6320 C   0  0  0  0  0  0  0  0  0  0  0  0
   57.9780   34.1840   45.7400 N   0  0  0  0  0  0  0  0  0  0  0  0
   57.6980   33.7090   44.5010 C   0  0  0  0  0  0  0  0  0  0  0  0
   58.1230   32.4680   44.1160 N   0  0  0  0  0  0  0  0  0  0  0  0
   57.7500   31.9810   42.7740 C   0  0  0  0  0  0  0  0  0  0  0  0
   56.7300   30.8380   42.8660 C   0  0  0  0  0  0  0  0  0  0  0  0
   57.2900   29.6710   43.5460 N   0  0  0  0  0  0  0  0  0  0  0  0
   56.6130   29.0490   44.6470 C   0  0  0  0  0  0  0  0  0  0  0  0
   55.4080   29.3380   44.8800 O   0  0  0  0  0  0  0  0  0  0  0  0
   57.3080   28.0640   45.5100 C   0  0  0  0  0  0  0  0  0  0  0  0
   57.0370   26.6870   45.3990 C   0  0  0  0  0  0  0  0  0  0  0  0
   57.7100   25.7670   46.2060 C   0  0  0  0  0  0  0  0  0  0  0  0
   58.6600   26.2050   47.1300 C   0  0  0  0  0  0  0  0  0  0  0  0
   58.9390   27.5720   47.2610 C   0  0  0  0  0  0  0  0  0  0  0  0
   59.9910   28.0400   48.2220 C   0  0  0  0  0  0  0  0  0  0  0  0
   58.2760   28.4950   46.4360 C   0  0  0  0  0  0  0  0  0  0  0  0
   58.8550   31.6940   44.9840 C   0  0  0  0  0  0  0  0  0  0  0  0
   59.2680   30.5550   44.6300 O   0  0  0  0  0  0  0  0  0  0  0  0
   59.1490   32.1720   46.2750 C   0  0  0  0  0  0  0  0  0  0  0  0
   59.8800   31.4160   47.2080 C   0  0  0  0  0  0  0  0  0  0  0  0
   60.1490   31.9330   48.4910 C   0  0  0  0  0  0  0  0  0  0  0  0
   60.8740   31.2050   49.4500 O   0  0  0  0  0  0  0  0  0  0  0  0
   60.2890   30.4830   50.5290 C   0  0  0  0  0  0  0  0  0  0  0  0
   61.2325   33.8325   51.7608 H   0  0  0  0  0  0  0  0  0  0  0  0
   61.9115   33.0027   50.3197 H   0  0  0  0  0  0  0  0  0  0  0  0
   61.7181   34.7885   50.3197 H   0  0  0  0  0  0  0  0  0  0  0  0
   58.5913   34.9687   48.1721 H   0  0  0  0  0  0  0  0  0  0  0  0
   57.1225   34.3292   43.7980 H   0  0  0  0  0  0  0  0  0  0  0  0
   57.3101   32.8100   42.2002 H   0  0  0  0  0  0  0  0  0  0  0  0
   58.6546   31.6033   42.2750 H   0  0  0  0  0  0  0  0  0  0  0  0
   55.8500   31.1888   43.4250 H   0  0  0  0  0  0  0  0  0  0  0  0
   56.4529   30.5408   41.8438 H   0  0  0  0  0  0  0  0  0  0  0  0
   58.1790   29.2510   43.1970 H   0  0  0  0  0  0  0  0  0  0  0  0
   56.2907   26.3335   44.6723 H   0  0  0  0  0  0  0  0  0  0  0  0
   57.4905   24.6931   46.1130 H   0  0  0  0  0  0  0  0  0  0  0  0
   59.1916   25.4745   47.7576 H   0  0  0  0  0  0  0  0  0  0  0  0
   59.6410   27.8843   49.2532 H   0  0  0  0  0  0  0  0  0  0  0  0
   60.9168   27.4689   48.0588 H   0  0  0  0  0  0  0  0  0  0  0  0
   60.1867   29.1101   48.0588 H   0  0  0  0  0  0  0  0  0  0  0  0
   58.5158   29.5657   46.5144 H   0  0  0  0  0  0  0  0  0  0  0  0
   60.2443   30.4147   46.9348 H   0  0  0  0  0  0  0  0  0  0  0  0
   60.6331   30.9077   51.4836 H   0  0  0  0  0  0  0  0  0  0  0  0
   59.1932   30.5572   50.4684 H   0  0  0  0  0  0  0  0  0  0  0  0
   60.5888   29.4264   50.4684 H   0  0  0  0  0  0  0  0  0  0  0  0
  1  2  1  0
  2  3  1  0
  3  4  2  0
  4  5  1  0
  5  6  1  0
  6  7  2  0
  7  8  1  0
  8  9  1  0
  9 10  1  0
 10 11  1  0
 11 12  1  0
 12 13  2  0
 12 14  1  0
 14 15  2  0
 15 16  1  0
 16 17  2  0
 17 18  1  0
 18 19  1  0
 18 20  2  0
  8 21  1  0
 21 22  2  0
 21 23  1  0
 23 24  1  0
 24 25  2  0
 25 26  1  0
 26 27  1  0
 25  3  1  0
 23  5  2  0
 20 14  1  0
  1 28  1  0
  1 29  1  0
  1 30  1  0
  4 31  1  0
  7 32  1  0
  9 33  1  0
  9 34  1  0
 10 35  1  0
 10 36  1  0
 11 37  1  0
 15 38  1  0
 16 39  1  0
 17 40  1  0
 19 41  1  0
 19 42  1  0
 19 43  1  0
 20 44  1  0
 24 45  1  0
 27 46  1  0
 27 47  1  0
 27 48  1  0
M  END
>  <UniqueID>  (47) 
42

>  <SMILES>  (47) 
COc1cc2ncn(CCNC(=O)c3cccc(C)c3)c(=O)c2cc1OC

>  <Energy>  (47) 
53.3754253327056

>  <Genealogy>  (47) 
COc1cc2ncn(CCNC(=O)c3cccc(C)c3)c(=O)c2cc1OC (3D coordinates assigned)
COc1cc2ncn(CCNC(=O)c3cccc(C)c3)c(=O)c2cc1OC (optimized conformer: 53.3754253327056 kcal/mol)

>  <smiles>  (47) 
COc1cc2ncn(CCNC(=O)c3cccc(C)c3)c(=O)c2cc1OC

>  <score_type>  (47) 
oracle

>  <origin>  (47) 
adg

>  <m_score__min__energy>  (47) 
-7.6500000000000004

>  <m_primary>  (47) 
energy

$$$$
