0:0
     RDKit          3D

 36 39  0  0  0  0  0  0  0  0999 V2000
   58.1900   31.3320   43.6690 C   0  0  0  0  0  0  0  0  0  0  0  0
   57.7760   32.6630   43.4810 C   0  0  0  0  0  0  0  0  0  0  0  0
   57.6910   33.5360   44.5770 C   0  0  0  0  0  0  0  0  0  0  0  0
   58.0290   33.0580   45.8480 C   0  0  0  0  0  0  0  0  0  0  0  0
   58.4200   31.7550   46.0310 C   0  0  0  0  0  0  0  0  0  0  0  0
   58.5140   30.8700   44.9540 C   0  0  0  0  0  0  0  0  0  0  0  0
   58.7060   31.4490   47.4490 C   0  0  0  0  0  0  0  0  0  0  0  0
   58.3220   32.7410   48.1950 C   0  0  0  0  0  0  0  0  0  0  0  0
   57.9970   33.8230   47.1260 C   0  0  1  0  0  0  0  0  0  0  0  0
   58.9950   34.9140   47.1080 N   0  0  0  0  0  0  0  0  0  0  0  0
   60.3310   34.4040   47.3060 C   0  0  0  0  0  0  0  0  0  0  0  0
   61.1020   33.9720   46.1940 C   0  0  0  0  0  0  0  0  0  0  0  0
   62.4070   33.4790   46.3690 C   0  0  0  0  0  0  0  0  0  0  0  0
   62.9140   33.4220   47.6650 C   0  0  0  0  0  0  0  0  0  0  0  0
   64.1250   32.9880   48.0490 N   0  0  0  0  0  0  0  0  0  0  0  0
   64.1550   33.1220   49.3960 C   0  0  0  0  0  0  0  0  0  0  0  0
   62.9540   33.6450   49.8660 C   0  0  0  0  0  0  0  0  0  0  0  0
   62.1780   33.8290   48.7430 C   0  0  0  0  0  0  0  0  0  0  0  0
   60.8820   34.3240   48.6080 C   0  0  0  0  0  0  0  0  0  0  0  0
   58.2600   30.6519   42.8073 H   0  0  0  0  0  0  0  0  0  0  0  0
   57.5183   33.0206   42.4732 H   0  0  0  0  0  0  0  0  0  0  0  0
   57.3645   34.5773   44.4392 H   0  0  0  0  0  0  0  0  0  0  0  0
   58.8361   29.8299   45.1104 H   0  0  0  0  0  0  0  0  0  0  0  0
   58.0970   30.6014   47.7964 H   0  0  0  0  0  0  0  0  0  0  0  0
   59.7540   31.1596   47.6162 H   0  0  0  0  0  0  0  0  0  0  0  0
   57.4397   32.5611   48.8268 H   0  0  0  0  0  0  0  0  0  0  0  0
   59.1473   33.0731   48.8420 H   0  0  0  0  0  0  0  0  0  0  0  0
   57.0366   34.3230   47.3198 H   0  0  0  0  0  0  0  0  0  0  0  0
   58.9310   35.4460   46.2080 H   0  0  0  0  0  0  0  0  0  0  0  0
   58.7920   35.5890   47.8820 H   0  0  0  0  0  0  0  0  0  0  0  0
   60.6724   34.0239   45.1827 H   0  0  0  0  0  0  0  0  0  0  0  0
   63.0087   33.1487   45.5094 H   0  0  0  0  0  0  0  0  0  0  0  0
   64.8890   32.6200   47.4400 H   0  0  0  0  0  0  0  0  0  0  0  0
   65.0116   32.8541   50.0320 H   0  0  0  0  0  0  0  0  0  0  0  0
   62.6829   33.8642   50.9093 H   0  0  0  0  0  0  0  0  0  0  0  0
   60.3038   34.6433   49.4876 H   0  0  0  0  0  0  0  0  0  0  0  0
  1  2  2  0
  2  3  1  0
  3  4  2  0
  4  5  1  0
  5  6  2  0
  5  7  1  0
  7  8  1  0
  8  9  1  0
  9 10  1  0
 10 11  1  0
 11 12  2  0
 12 13  1  0
 13 14  2  0
 14 15  1  0
 15 16  1  0
 16 17  2  0
 17 18  1  0
 18 19  2  0
  6  1  1  0
 19 11  1  0
  9  4  1  0
 18 14  1  0
  1 20  1  0
  2 21  1  0
  3 22  1  0
  6 23  1  0
  7 24  1  0
  7 25  1  0
  8 26  1  0
  8 27  1  0
  9 28  1  1
 10 29  1  0
 10 30  1  0
 12 31  1  0
 13 32  1  0
 15 33  1  0
 16 34  1  0
 17 35  1  0
 19 36  1  0
M  CHG  1  10   1
M  END
>  <UniqueID>  (1) 
1

>  <SMILES>  (1) 
c1ccc2c(c1)CC[C@H]2[NH2+]c1ccc2[nH]ccc2c1

>  <Energy>  (1) 
82.30641842720016

>  <Genealogy>  (1) 
c1ccc2c(c1)CCC2[NH2+]c1ccc2[nH]ccc2c1 (protonated)
c1ccc2c(c1)CC[C@H]2[NH2+]c1ccc2[nH]ccc2c1 (chirality)
c1ccc2c(c1)CC[C@H]2[NH2+]c1ccc2[nH]ccc2c1 (3D coordinates assigned)
c1ccc2c(c1)CC[C@H]2[NH2+]c1ccc2[nH]ccc2c1 (nonaromatic ring conformer: 82.30641842720016 kcal/mol)

>  <smiles>  (1) 
c1ccc2c(c1)CCC2Nc1ccc2[nH]ccc2c1

>  <score_type>  (1) 
oracle

>  <origin>  (1) 
adg

>  <m_score__min__energy>  (1) 
-5.9100000000000001

>  <m_primary>  (1) 
energy

$$$$
1:0
     RDKit          3D

 56 60  0  0  0  0  0  0  0  0999 V2000
   64.4680   33.1030   48.3660 C   0  0  0  0  0  0  0  0  0  0  0  0
   64.2590   33.5210   49.6830 C   0  0  0  0  0  0  0  0  0  0  0  0
   62.9730   33.4970   50.2300 C   0  0  0  0  0  0  0  0  0  0  0  0
   61.8840   33.0410   49.4660 C   0  0  0  0  0  0  0  0  0  0  0  0
   60.5170   33.0240   50.0270 C   0  0  0  0  0  0  0  0  0  0  0  0
   60.2490   32.7780   51.3230 N   0  0  0  0  0  0  0  0  0  0  0  0
   58.9060   32.7320   51.3950 C   0  0  0  0  0  0  0  0  0  0  0  0
   58.1420   32.4950   52.6600 C   0  0  0  0  0  0  0  0  0  0  0  0
   56.6510   32.2640   52.3840 C   0  0  0  0  0  0  0  0  0  0  0  0
   56.2510   30.7900   52.5270 C   0  0  0  0  0  0  0  0  0  0  0  0
   57.0850   29.9590   51.6390 N   0  0  0  0  0  0  0  0  0  0  0  0
   58.1400   29.2380   52.3660 C   0  0  0  0  0  0  0  0  0  0  0  0
   59.4800   29.4510   51.7190 C   0  0  0  0  0  0  0  0  0  0  0  0
   60.6700   29.4900   52.4790 C   0  0  0  0  0  0  0  0  0  0  0  0
   61.9200   29.6440   51.8400 C   0  0  0  0  0  0  0  0  0  0  0  0
   61.9960   29.7560   50.4400 C   0  0  0  0  0  0  0  0  0  0  0  0
   60.8060   29.7080   49.7200 C   0  0  0  0  0  0  0  0  0  0  0  0
   59.6010   29.5600   50.3300 C   0  0  0  0  0  0  0  0  0  0  0  0
   58.6040   29.5330   49.3720 O   0  0  0  0  0  0  0  0  0  0  0  0
   59.2200   29.6720   48.0840 C   0  0  0  0  0  0  0  0  0  0  0  0
   60.6250   29.7820   48.3520 O   0  0  0  0  0  0  0  0  0  0  0  0
   58.3400   32.9500   50.2280 O   0  0  0  0  0  0  0  0  0  0  0  0
   59.3040   33.1460   49.3560 C   0  0  0  0  0  0  0  0  0  0  0  0
   59.0570   33.4720   47.9370 C   0  0  0  0  0  0  0  0  0  0  0  0
   59.6810   34.5720   47.3220 C   0  0  0  0  0  0  0  0  0  0  0  0
   59.4170   34.8740   45.9830 C   0  0  0  0  0  0  0  0  0  0  0  0
   58.5170   34.0940   45.2520 C   0  0  0  0  0  0  0  0  0  0  0  0
   57.8750   33.0130   45.8630 C   0  0  0  0  0  0  0  0  0  0  0  0
   58.1370   32.7070   47.2020 C   0  0  0  0  0  0  0  0  0  0  0  0
   62.1010   32.6420   48.1370 C   0  0  0  0  0  0  0  0  0  0  0  0
   63.3890   32.6680   47.5920 C   0  0  0  0  0  0  0  0  0  0  0  0
   65.4816   33.1164   47.9388 H   0  0  0  0  0  0  0  0  0  0  0  0
   65.1077   33.8694   50.2900 H   0  0  0  0  0  0  0  0  0  0  0  0
   62.8119   33.8367   51.2638 H   0  0  0  0  0  0  0  0  0  0  0  0
   60.9300   32.6150   52.0980 H   0  0  0  0  0  0  0  0  0  0  0  0
   58.5532   31.6083   53.1646 H   0  0  0  0  0  0  0  0  0  0  0  0
   58.2402   33.3886   53.2939 H   0  0  0  0  0  0  0  0  0  0  0  0
   56.0632   32.8603   53.0974 H   0  0  0  0  0  0  0  0  0  0  0  0
   56.4516   32.5662   51.3453 H   0  0  0  0  0  0  0  0  0  0  0  0
   56.3973   30.4712   53.5696 H   0  0  0  0  0  0  0  0  0  0  0  0
   55.1934   30.6715   52.2487 H   0  0  0  0  0  0  0  0  0  0  0  0
   57.5610   30.5910   50.9530 H   0  0  0  0  0  0  0  0  0  0  0  0
   58.1782   29.6048   53.4023 H   0  0  0  0  0  0  0  0  0  0  0  0
   57.9078   28.1630   52.3469 H   0  0  0  0  0  0  0  0  0  0  0  0
   60.6229   29.4000   53.5743 H   0  0  0  0  0  0  0  0  0  0  0  0
   62.8405   29.6766   52.4413 H   0  0  0  0  0  0  0  0  0  0  0  0
   62.9637   29.8775   49.9312 H   0  0  0  0  0  0  0  0  0  0  0  0
   59.0137   28.7899   47.4600 H   0  0  0  0  0  0  0  0  0  0  0  0
   58.8355   30.5442   47.5350 H   0  0  0  0  0  0  0  0  0  0  0  0
   60.3797   35.1974   47.8971 H   0  0  0  0  0  0  0  0  0  0  0  0
   59.9188   35.7275   45.5037 H   0  0  0  0  0  0  0  0  0  0  0  0
   58.3140   34.3304   44.1971 H   0  0  0  0  0  0  0  0  0  0  0  0
   57.1625   32.4020   45.2894 H   0  0  0  0  0  0  0  0  0  0  0  0
   57.6200   31.8630   47.6819 H   0  0  0  0  0  0  0  0  0  0  0  0
   61.2533   32.3071   47.5212 H   0  0  0  0  0  0  0  0  0  0  0  0
   63.5526   32.3457   46.5531 H   0  0  0  0  0  0  0  0  0  0  0  0
  1  2  2  0
  2  3  1  0
  3  4  2  0
  4  5  1  0
  5  6  1  0
  6  7  2  0
  7  8  1  0
  8  9  1  0
  9 10  1  0
 10 11  1  0
 11 12  1  0
 12 13  1  0
 13 14  2  0
 14 15  1  0
 15 16  2  0
 16 17  1  0
 17 18  2  0
 18 19  1  0
 19 20  1  0
 20 21  1  0
  7 22  1  0
 22 23  1  0
 23 24  1  0
 24 25  2  0
 25 26  1  0
 26 27  2  0
 27 28  1  0
 28 29  2  0
  4 30  1  0
 30 31  2  0
 31  1  1  0
 23  5  2  0
 29 24  1  0
 18 13  1  0
 21 17  1  0
  1 32  1  0
  2 33  1  0
  3 34  1  0
  6 35  1  0
  8 36  1  0
  8 37  1  0
  9 38  1  0
  9 39  1  0
 10 40  1  0
 10 41  1  0
 11 42  1  0
 12 43  1  0
 12 44  1  0
 14 45  1  0
 15 46  1  0
 16 47  1  0
 20 48  1  0
 20 49  1  0
 25 50  1  0
 26 51  1  0
 27 52  1  0
 28 53  1  0
 29 54  1  0
 30 55  1  0
 31 56  1  0
M  CHG  1   6   1
M  END
>  <UniqueID>  (2) 
2

>  <SMILES>  (2) 
c1ccc(-c2[nH+]c(CCCNCc3cccc4c3OCO4)oc2-c2ccccc2)cc1

>  <Energy>  (2) 
122.38249707704196

>  <Genealogy>  (2) 
c1ccc(-c2[nH+]c(CCCNCc3cccc4c3OCO4)oc2-c2ccccc2)cc1 (protonated)
c1ccc(-c2[nH+]c(CCCNCc3cccc4c3OCO4)oc2-c2ccccc2)cc1 (3D coordinates assigned)
c1ccc(-c2[nH+]c(CCCNCc3cccc4c3OCO4)oc2-c2ccccc2)cc1 (nonaromatic ring conformer: 122.38249707704196 kcal/mol)

>  <smiles>  (2) 
c1ccc(-c2nc(CCCNCc3cccc4c3OCO4)oc2-c2ccccc2)cc1

>  <score_type>  (2) 
oracle

>  <origin>  (2) 
adg

>  <m_score__min__energy>  (2) 
-7.4900000000000002

>  <m_primary>  (2) 
energy

$$$$
2:0
     RDKit          3D

 47 49  0  0  0  0  0  0  0  0999 V2000
   64.5186   32.6088   47.3586 H   0  0  0  0  0  0  0  0  0  0  0  0
   63.4250   32.6520   47.2480 C   0  0  0  0  0  0  0  0  0  0  0  0
   62.8140   33.8240   46.7910 C   0  0  0  0  0  0  0  0  0  0  0  0
   63.4279   34.7013   46.5390 H   0  0  0  0  0  0  0  0  0  0  0  0
   61.4230   33.8820   46.6540 C   0  0  0  0  0  0  0  0  0  0  0  0
   60.9454   34.8077   46.3005 H   0  0  0  0  0  0  0  0  0  0  0  0
   60.6340   32.7630   46.9660 C   0  0  0  0  0  0  0  0  0  0  0  0
   59.1340   32.8340   46.8290 C   0  0  0  0  0  0  0  0  0  0  0  0
   58.7491   33.6239   47.4907 H   0  0  0  0  0  0  0  0  0  0  0  0
   58.7095   31.8582   47.1075 H   0  0  0  0  0  0  0  0  0  0  0  0
   58.7440   33.1380   45.4340 N   0  0  0  0  0  0  0  0  0  0  0  0
   58.6150   34.5920   45.2350 C   0  0  0  0  0  0  0  0  0  0  0  0
   58.5705   35.0934   46.2131 H   0  0  0  0  0  0  0  0  0  0  0  0
   59.4837   34.9635   44.6717 H   0  0  0  0  0  0  0  0  0  0  0  0
   57.6945   34.8047   44.6717 H   0  0  0  0  0  0  0  0  0  0  0  0
   57.4730   32.4600   45.0850 C   0  0  0  0  0  0  0  0  0  0  0  0
   57.0706   31.9617   45.9793 H   0  0  0  0  0  0  0  0  0  0  0  0
   56.7580   33.2102   44.7163 H   0  0  0  0  0  0  0  0  0  0  0  0
   57.7080   31.4160   43.9880 C   0  0  0  0  0  0  0  0  0  0  0  0
   57.0261   31.6156   43.1483 H   0  0  0  0  0  0  0  0  0  0  0  0
   58.7545   31.4832   43.6559 H   0  0  0  0  0  0  0  0  0  0  0  0
   57.4610   30.0560   44.4980 N   0  0  0  0  0  0  0  0  0  0  0  0
   56.1810   29.6440   44.7350 C   0  0  0  0  0  0  0  0  0  0  0  0
   55.3407   30.3209   44.5213 H   0  0  0  0  0  0  0  0  0  0  0  0
   55.9390   28.4060   45.2320 N   0  0  0  0  0  0  0  0  0  0  0  0
   56.9620   27.5600   45.5010 C   0  0  0  0  0  0  0  0  0  0  0  0
   56.7020   26.3890   46.0060 N   0  0  0  0  0  0  0  0  0  0  0  0
   57.1700   25.1170   45.5280 C   0  0  0  0  0  0  0  0  0  0  0  0
   58.3400   24.5120   46.0280 C   0  0  0  0  0  0  0  0  0  0  0  0
   58.9196   25.0105   46.8189 H   0  0  0  0  0  0  0  0  0  0  0  0
   58.7670   23.2810   45.5230 C   0  0  0  0  0  0  0  0  0  0  0  0
   59.6703   22.8044   45.9317 H   0  0  0  0  0  0  0  0  0  0  0  0
   58.0500   22.6530   44.5000 C   0  0  0  0  0  0  0  0  0  0  0  0
   58.3850   21.6799   44.1116 H   0  0  0  0  0  0  0  0  0  0  0  0
   56.9050   23.2620   43.9690 C   0  0  0  0  0  0  0  0  0  0  0  0
   56.1820   22.6320   42.9100 N   0  0  0  0  0  0  0  0  0  0  0  0
   56.2840   22.9600   41.9240 H   0  0  0  0  0  0  0  0  0  0  0  0
   55.5390   21.8320   43.1040 H   0  0  0  0  0  0  0  0  0  0  0  0
   56.4760   24.4980   44.4790 C   0  0  0  0  0  0  0  0  0  0  0  0
   55.5872   24.9850   44.0514 H   0  0  0  0  0  0  0  0  0  0  0  0
   58.2390   27.9700   45.2840 N   0  0  0  0  0  0  0  0  0  0  0  0
   58.4940   29.2040   44.7830 C   0  0  0  0  0  0  0  0  0  0  0  0
   59.6900   29.5510   44.5860 O   0  0  0  0  0  0  0  0  0  0  0  0
   61.2550   31.5890   47.4250 C   0  0  0  0  0  0  0  0  0  0  0  0
   60.6452   30.7085   47.6759 H   0  0  0  0  0  0  0  0  0  0  0  0
   62.6460   31.5360   47.5640 C   0  0  0  0  0  0  0  0  0  0  0  0
   63.1273   30.6142   47.9227 H   0  0  0  0  0  0  0  0  0  0  0  0
  1  2  1  0
  2  3  2  0
  3  4  1  0
  3  5  1  0
  5  6  1  0
  5  7  2  0
  7  8  1  0
  8  9  1  0
  8 10  1  0
  8 11  1  0
 11 12  1  0
 12 13  1  0
 12 14  1  0
 12 15  1  0
 11 16  1  0
 16 17  1  0
 16 18  1  0
 16 19  1  0
 19 20  1  0
 19 21  1  0
 19 22  1  0
 22 23  1  0
 23 24  1  0
 23 25  2  0
 25 26  1  0
 26 27  2  0
 27 28  1  0
 28 29  2  0
 29 30  1  0
 29 31  1  0
 31 32  1  0
 31 33  2  0
 33 34  1  0
 33 35  1  0
 35 36  1  0
 36 37  1  0
 36 38  1  0
 35 39  2  0
 39 40  1  0
 26 41  1  0
 41 42  1  0
 42 43  2  0
  7 44  1  0
 44 45  1  0
 44 46  2  0
 46 47  1  0
 46  2  1  0
 42 22  1  0
 39 28  1  0
M  CHG  1  41  -1
M  END
>  <UniqueID>  (3) 
3

>  <SMILES>  (3) 
CN(CCn1cn/c(=N/c2cccc(N)c2)[n-]c1=O)Cc1ccccc1

>  <Energy>  (3) 
56.04041447730016

>  <Genealogy>  (3) 
CN(CCn1cnc(=Nc2cccc(N)c2)[n-]c1=O)Cc1ccccc1 (protonated)
CN(CCn1cn/c(=N/c2cccc(N)c2)[n-]c1=O)Cc1ccccc1 (cis-trans isomerization)
CN(CCn1cn/c(=N/c2cccc(N)c2)[n-]c1=O)Cc1ccccc1 (3D coordinates assigned)
CN(CCn1cn/c(=N/c2cccc(N)c2)[n-]c1=O)Cc1ccccc1 (optimized conformer: 56.04041447730016 kcal/mol)

>  <smiles>  (3) 
CN(CCn1cnc(=Nc2cccc(N)c2)[nH]c1=O)Cc1ccccc1

>  <score_type>  (3) 
oracle

>  <origin>  (3) 
adg

>  <m_score__min__energy>  (3) 
-9.8499999999999996

>  <m_primary>  (3) 
energy

$$$$
3:0
     RDKit          3D

 32 34  0  0  0  0  0  0  0  0999 V2000
   59.4730   28.1010   44.5060 C   0  0  0  0  0  0  0  0  0  0  0  0
   58.6110   27.4330   43.6360 C   0  0  0  0  0  0  0  0  0  0  0  0
   57.4070   27.9780   43.3140 N   0  0  0  0  0  0  0  0  0  0  0  0
   57.0110   29.1780   43.8220 C   0  0  0  0  0  0  0  0  0  0  0  0
   57.8420   29.8890   44.7010 C   0  0  0  0  0  0  0  0  0  0  0  0
   57.4020   31.1550   45.2270 N   0  0  0  0  0  0  0  0  0  0  0  0
   57.4740   32.4050   44.4690 C   0  0  0  0  0  0  0  0  0  0  0  0
   58.4200   33.3650   45.1210 C   0  0  0  0  0  0  0  0  0  0  0  0
   58.3790   34.7390   44.9010 C   0  0  0  0  0  0  0  0  0  0  0  0
   59.6450   35.4300   45.7650 S   0  0  0  0  0  0  0  0  0  0  0  0
   60.1990   33.9580   46.3730 C   0  0  0  0  0  0  0  0  0  0  0  0
   61.3650   33.7720   47.2670 C   0  0  0  0  0  0  0  0  0  0  0  0
   61.2370   33.9000   48.6610 C   0  0  0  0  0  0  0  0  0  0  0  0
   62.3570   33.7200   49.4770 C   0  0  0  0  0  0  0  0  0  0  0  0
   63.5620   33.4200   48.9270 N   0  0  0  0  0  0  0  0  0  0  0  0
   63.7180   33.2890   47.5830 C   0  0  0  0  0  0  0  0  0  0  0  0
   62.6260   33.4620   46.7300 C   0  0  0  0  0  0  0  0  0  0  0  0
   59.4320   32.9370   45.9250 N   0  0  0  0  0  0  0  0  0  0  0  0
   59.0880   29.3320   45.0400 C   0  0  0  0  0  0  0  0  0  0  0  0
   60.4467   27.6619   44.7687 H   0  0  0  0  0  0  0  0  0  0  0  0
   58.9057   26.4629   43.2092 H   0  0  0  0  0  0  0  0  0  0  0  0
   56.7730   27.4660   42.6610 H   0  0  0  0  0  0  0  0  0  0  0  0
   56.0319   29.5931   43.5409 H   0  0  0  0  0  0  0  0  0  0  0  0
   57.0140   31.1750   46.1990 H   0  0  0  0  0  0  0  0  0  0  0  0
   57.8245   32.1891   43.4489 H   0  0  0  0  0  0  0  0  0  0  0  0
   56.4727   32.8595   44.4401 H   0  0  0  0  0  0  0  0  0  0  0  0
   57.6504   35.2754   44.2753 H   0  0  0  0  0  0  0  0  0  0  0  0
   60.2607   34.1405   49.1070 H   0  0  0  0  0  0  0  0  0  0  0  0
   62.2624   33.8216   50.5682 H   0  0  0  0  0  0  0  0  0  0  0  0
   64.7067   33.0462   47.1664 H   0  0  0  0  0  0  0  0  0  0  0  0
   62.7524   33.3561   45.6424 H   0  0  0  0  0  0  0  0  0  0  0  0
   59.7602   29.8671   45.7269 H   0  0  0  0  0  0  0  0  0  0  0  0
  1  2  2  0
  2  3  1  0
  3  4  2  0
  4  5  1  0
  5  6  1  0
  6  7  1  0
  7  8  1  0
  8  9  2  0
  9 10  1  0
 10 11  1  0
 11 12  1  0
 12 13  2  0
 13 14  1  0
 14 15  2  0
 15 16  1  0
 16 17  2  0
 11 18  2  0
  5 19  2  0
 19  1  1  0
 18  8  1  0
 17 12  1  0
  1 20  1  0
  2 21  1  0
  3 22  1  0
  4 23  1  0
  6 24  1  0
  7 25  1  0
  7 26  1  0
  9 27  1  0
 13 28  1  0
 14 29  1  0
 16 30  1  0
 17 31  1  0
 19 32  1  0
M  CHG  1   3   1
M  END
>  <UniqueID>  (4) 
4

>  <SMILES>  (4) 
c1c[nH+]cc(NCc2csc(-c3ccncc3)n2)c1

>  <Energy>  (4) 
64.59006887523007

>  <Genealogy>  (4) 
c1c[nH+]cc(NCc2csc(-c3ccncc3)n2)c1 (protonated)
c1c[nH+]cc(NCc2csc(-c3ccncc3)n2)c1 (3D coordinates assigned)
c1c[nH+]cc(NCc2csc(-c3ccncc3)n2)c1 (optimized conformer: 64.59006887523007 kcal/mol)

>  <smiles>  (4) 
c1cncc(NCc2csc(-c3ccncc3)n2)c1

>  <score_type>  (4) 
oracle

>  <origin>  (4) 
adg

>  <m_score__min__energy>  (4) 
-6.1699999999999999

>  <m_primary>  (4) 
energy

$$$$
4:0
     RDKit          3D

 28 30  0  0  0  0  0  0  0  0999 V2000
   55.7040   29.3310   45.2280 O   0  0  0  0  0  0  0  0  0  0  0  0
   56.6550   28.5880   45.5940 C   0  0  0  0  0  0  0  0  0  0  0  0
   56.4200   27.2250   45.7920 C   0  0  0  0  0  0  0  0  0  0  0  0
   55.1360   26.7140   45.6220 O   0  0  0  0  0  0  0  0  0  0  0  0
   57.4840   26.3940   46.1910 C   0  0  0  0  0  0  0  0  0  0  0  0
   57.3130   24.9390   46.4040 C   0  0  0  0  0  0  0  0  0  0  0  0
   56.2290   24.4300   47.1420 C   0  0  0  0  0  0  0  0  0  0  0  0
   56.0760   23.0490   47.3110 C   0  0  0  0  0  0  0  0  0  0  0  0
   55.0050   22.5540   48.0440 O   0  0  0  0  0  0  0  0  0  0  0  0
   56.9950   22.1670   46.7370 C   0  0  0  0  0  0  0  0  0  0  0  0
   58.0650   22.6590   45.9840 C   0  0  0  0  0  0  0  0  0  0  0  0
   58.9690   21.7680   45.4090 O   0  0  0  0  0  0  0  0  0  0  0  0
   58.2190   24.0430   45.8130 C   0  0  0  0  0  0  0  0  0  0  0  0
   58.6870   26.9240   46.4040 O   0  0  0  0  0  0  0  0  0  0  0  0
   58.9560   28.2140   46.2360 C   0  0  0  0  0  0  0  0  0  0  0  0
   60.2520   28.6790   46.4800 C   0  0  0  0  0  0  0  0  0  0  0  0
   60.5590   30.0300   46.3060 C   0  0  0  0  0  0  0  0  0  0  0  0
   61.8490   30.4850   46.5490 O   0  0  0  0  0  0  0  0  0  0  0  0
   59.5710   30.9240   45.8870 C   0  0  0  0  0  0  0  0  0  0  0  0
   58.2680   30.4780   45.6400 C   0  0  0  0  0  0  0  0  0  0  0  0
   57.3140   31.4000   45.2260 O   0  0  0  0  0  0  0  0  0  0  0  0
   57.9450   29.1110   45.8140 C   0  0  0  0  0  0  0  0  0  0  0  0
   55.4982   25.1205   47.5883 H   0  0  0  0  0  0  0  0  0  0  0  0
   56.8762   21.0826   46.8780 H   0  0  0  0  0  0  0  0  0  0  0  0
   58.7150   20.8070   45.2160 H   0  0  0  0  0  0  0  0  0  0  0  0
   59.0553   24.4292   45.2118 H   0  0  0  0  0  0  0  0  0  0  0  0
   61.0326   27.9779   46.8103 H   0  0  0  0  0  0  0  0  0  0  0  0
   59.8192   31.9869   45.7502 H   0  0  0  0  0  0  0  0  0  0  0  0
  1  2  2  0
  2  3  1  0
  3  4  1  0
  3  5  2  0
  5  6  1  0
  6  7  2  0
  7  8  1  0
  8  9  1  0
  8 10  2  0
 10 11  1  0
 11 12  1  0
 11 13  2  0
  5 14  1  0
 14 15  1  0
 15 16  2  0
 16 17  1  0
 17 18  1  0
 17 19  2  0
 19 20  1  0
 20 21  1  0
 20 22  2  0
 22  2  1  0
 13  6  1  0
 22 15  1  0
  7 23  1  0
 10 24  1  0
 12 25  1  0
 13 26  1  0
 16 27  1  0
 19 28  1  0
M  CHG  4   4  -1   9  -1  18  -1  21  -1
M  END
>  <UniqueID>  (5) 
5

>  <SMILES>  (5) 
O=c1c([O-])c(-c2cc([O-])cc(O)c2)oc2cc([O-])cc([O-])c12

>  <Energy>  (5) 
43.76921940348635

>  <Genealogy>  (5) 
O=c1c([O-])c(-c2cc([O-])cc(O)c2)oc2cc([O-])cc([O-])c12 (protonated)
O=c1c([O-])c(-c2cc([O-])cc(O)c2)oc2cc([O-])cc([O-])c12 (3D coordinates assigned)
O=c1c([O-])c(-c2cc([O-])cc(O)c2)oc2cc([O-])cc([O-])c12 (optimized conformer: 43.76921940348635 kcal/mol)

>  <smiles>  (5) 
O=c1c(O)c(-c2cc(O)cc(O)c2)oc2cc(O)cc(O)c12

>  <score_type>  (5) 
oracle

>  <origin>  (5) 
adg

>  <m_score__min__energy>  (5) 
-12.630000000000001

>  <m_primary>  (5) 
energy

$$$$
5:0
     RDKit          3D

 39 41  0  0  0  0  0  0  0  0999 V2000
   55.6740   23.9100   46.5090 C   0  0  0  0  0  0  0  0  0  0  0  0
   56.0050   25.2720   45.9910 C   0  0  0  0  0  0  0  0  0  0  0  0
   55.1680   26.3290   46.0380 N   0  0  0  0  0  0  0  0  0  0  0  0
   55.8070   27.3740   45.5980 O   0  0  0  0  0  0  0  0  0  0  0  0
   57.0350   27.0430   45.2700 C   0  0  0  0  0  0  0  0  0  0  0  0
   57.9320   27.8680   44.8330 N   0  0  0  0  0  0  0  0  0  0  0  0
   57.9080   29.5580   45.2160 S   0  0  0  0  0  0  0  0  0  0  0  0
   56.4890   30.0450   45.1230 O   0  0  0  0  0  0  0  0  0  0  0  0
   58.7410   30.3030   44.2120 O   0  0  0  0  0  0  0  0  0  0  0  0
   58.5540   29.8600   46.8410 C   0  0  0  0  0  0  0  0  0  0  0  0
   58.7460   28.7600   47.6930 C   0  0  0  0  0  0  0  0  0  0  0  0
   59.2970   28.9300   48.9640 C   0  0  0  0  0  0  0  0  0  0  0  0
   59.6660   30.2010   49.4020 C   0  0  0  0  0  0  0  0  0  0  0  0
   59.4750   31.3080   48.5730 C   0  0  0  0  0  0  0  0  0  0  0  0
   58.9090   31.1580   47.2960 C   0  0  0  0  0  0  0  0  0  0  0  0
   58.7160   32.3700   46.4720 C   0  0  0  0  0  0  0  0  0  0  0  0
   57.4400   32.7150   45.9970 C   0  0  0  0  0  0  0  0  0  0  0  0
   57.2700   33.8580   45.2080 C   0  0  0  0  0  0  0  0  0  0  0  0
   58.3670   34.6680   44.9020 C   0  0  0  0  0  0  0  0  0  0  0  0
   59.6350   34.3430   45.3930 C   0  0  0  0  0  0  0  0  0  0  0  0
   59.8090   33.2020   46.1800 C   0  0  0  0  0  0  0  0  0  0  0  0
   57.2270   25.6940   45.4970 C   0  0  0  0  0  0  0  0  0  0  0  0
   58.4880   24.9000   45.3610 C   0  0  0  0  0  0  0  0  0  0  0  0
   55.6777   23.9251   47.6089 H   0  0  0  0  0  0  0  0  0  0  0  0
   54.6776   23.6132   46.1497 H   0  0  0  0  0  0  0  0  0  0  0  0
   56.4231   23.1890   46.1497 H   0  0  0  0  0  0  0  0  0  0  0  0
   54.1830   26.3350   46.3830 H   0  0  0  0  0  0  0  0  0  0  0  0
   58.4589   27.7534   47.3548 H   0  0  0  0  0  0  0  0  0  0  0  0
   59.4403   28.0596   49.6212 H   0  0  0  0  0  0  0  0  0  0  0  0
   60.1077   30.3317   50.4009 H   0  0  0  0  0  0  0  0  0  0  0  0
   59.7707   32.3079   48.9233 H   0  0  0  0  0  0  0  0  0  0  0  0
   56.5728   32.0856   46.2457 H   0  0  0  0  0  0  0  0  0  0  0  0
   56.2714   34.1194   44.8280 H   0  0  0  0  0  0  0  0  0  0  0  0
   58.2327   35.5615   44.2746 H   0  0  0  0  0  0  0  0  0  0  0  0
   60.4963   34.9862   45.1595 H   0  0  0  0  0  0  0  0  0  0  0  0
   60.8062   32.9542   46.5726 H   0  0  0  0  0  0  0  0  0  0  0  0
   58.8768   24.6552   46.3605 H   0  0  0  0  0  0  0  0  0  0  0  0
   58.2786   23.9705   44.8113 H   0  0  0  0  0  0  0  0  0  0  0  0
   59.2357   25.4906   44.8113 H   0  0  0  0  0  0  0  0  0  0  0  0
  1  2  1  0
  2  3  1  0
  3  4  1  0
  4  5  1  0
  5  6  2  3
  6  7  1  0
  7  8  2  0
  7  9  2  0
  7 10  1  0
 10 11  2  0
 11 12  1  0
 12 13  2  0
 13 14  1  0
 14 15  2  0
 15 16  1  0
 16 17  2  0
 17 18  1  0
 18 19  2  0
 19 20  1  0
 20 21  2  0
  5 22  1  0
 22 23  1  0
 22  2  2  0
 15 10  1  0
 21 16  1  0
  1 24  1  0
  1 25  1  0
  1 26  1  0
  3 27  1  0
 11 28  1  0
 12 29  1  0
 13 30  1  0
 14 31  1  0
 17 32  1  0
 18 33  1  0
 19 34  1  0
 20 35  1  0
 21 36  1  0
 23 37  1  0
 23 38  1  0
 23 39  1  0
M  END
>  <UniqueID>  (6) 
6

>  <SMILES>  (6) 
Cc1[nH]oc(=NS(=O)(=O)c2ccccc2-c2ccccc2)c1C

>  <Energy>  (6) 
79.77062600860572

>  <Genealogy>  (6) 
Cc1[nH]oc(=NS(=O)(=O)c2ccccc2-c2ccccc2)c1C (3D coordinates assigned)
Cc1[nH]oc(=NS(=O)(=O)c2ccccc2-c2ccccc2)c1C (optimized conformer: 79.77062600860572 kcal/mol)

>  <smiles>  (6) 
Cc1[nH]oc(=NS(=O)(=O)c2ccccc2-c2ccccc2)c1C

>  <score_type>  (6) 
oracle

>  <origin>  (6) 
adg

>  <m_score__min__energy>  (6) 
-9.1500000000000004

>  <m_primary>  (6) 
energy

$$$$
6:0
     RDKit          3D

 43 45  0  0  0  0  0  0  0  0999 V2000
   55.4440   23.7820   44.0270 C   0  0  0  0  0  0  0  0  0  0  0  0
   54.6610   23.7340   45.3390 C   0  0  0  0  0  0  0  0  0  0  0  0
   53.9230   25.0480   45.6170 C   0  0  0  0  0  0  0  0  0  0  0  0
   54.8600   26.1230   45.9270 N   0  0  0  0  0  0  0  0  0  0  0  0
   56.1220   25.9190   46.5750 C   0  0  0  0  0  0  0  0  0  0  0  0
   56.2210   25.0590   47.4940 O   0  0  0  0  0  0  0  0  0  0  0  0
   57.3050   26.7150   46.1730 C   0  0  0  0  0  0  0  0  0  0  0  0
   58.6030   26.2040   46.3470 C   0  0  0  0  0  0  0  0  0  0  0  0
   59.7180   26.9540   45.9640 C   0  0  0  0  0  0  0  0  0  0  0  0
   59.5610   28.2250   45.3930 C   0  0  0  0  0  0  0  0  0  0  0  0
   60.7820   29.0030   44.9820 C   0  0  0  0  0  0  0  0  0  0  0  0
   58.2640   28.7590   45.2460 C   0  0  0  0  0  0  0  0  0  0  0  0
   58.0630   30.0730   44.7070 N   0  0  0  0  0  0  0  0  0  0  0  0
   57.4320   30.3580   43.4200 C   0  0  0  0  0  0  0  0  0  0  0  0
   57.4270   31.9010   43.2860 C   0  0  0  0  0  0  0  0  0  0  0  0
   58.0150   32.3640   44.5750 C   0  0  0  0  0  0  0  0  0  0  0  0
   58.2050   33.6740   45.0170 C   0  0  0  0  0  0  0  0  0  0  0  0
   58.7560   33.8780   46.2940 C   0  0  0  0  0  0  0  0  0  0  0  0
   58.9510   35.1400   46.7520 F   0  0  0  0  0  0  0  0  0  0  0  0
   59.0980   32.7760   47.1020 C   0  0  0  0  0  0  0  0  0  0  0  0
   58.8960   31.4670   46.6360 C   0  0  0  0  0  0  0  0  0  0  0  0
   58.3610   31.2960   45.3560 C   0  0  0  0  0  0  0  0  0  0  0  0
   57.1480   27.9970   45.6190 C   0  0  0  0  0  0  0  0  0  0  0  0
   56.5203   23.8480   44.2445 H   0  0  0  0  0  0  0  0  0  0  0  0
   55.2425   22.8698   43.4462 H   0  0  0  0  0  0  0  0  0  0  0  0
   55.1326   24.6627   43.4462 H   0  0  0  0  0  0  0  0  0  0  0  0
   53.9249   22.9185   45.2834 H   0  0  0  0  0  0  0  0  0  0  0  0
   55.3784   23.5684   46.1563 H   0  0  0  0  0  0  0  0  0  0  0  0
   53.3385   25.3265   44.7277 H   0  0  0  0  0  0  0  0  0  0  0  0
   53.2624   24.9003   46.4841 H   0  0  0  0  0  0  0  0  0  0  0  0
   58.7420   25.2059   46.7881 H   0  0  0  0  0  0  0  0  0  0  0  0
   60.7279   26.5437   46.1117 H   0  0  0  0  0  0  0  0  0  0  0  0
   61.3183   29.3447   45.8795 H   0  0  0  0  0  0  0  0  0  0  0  0
   61.4427   28.3590   44.3830 H   0  0  0  0  0  0  0  0  0  0  0  0
   60.4774   29.8739   44.3830 H   0  0  0  0  0  0  0  0  0  0  0  0
   58.0095   29.9041   42.6012 H   0  0  0  0  0  0  0  0  0  0  0  0
   56.4145   29.9433   43.3669 H   0  0  0  0  0  0  0  0  0  0  0  0
   58.0436   32.2237   42.4341 H   0  0  0  0  0  0  0  0  0  0  0  0
   56.4235   32.3118   43.1008 H   0  0  0  0  0  0  0  0  0  0  0  0
   57.9298   34.5278   44.3804 H   0  0  0  0  0  0  0  0  0  0  0  0
   59.5250   32.9416   48.1021 H   0  0  0  0  0  0  0  0  0  0  0  0
   59.1520   30.5992   47.2616 H   0  0  0  0  0  0  0  0  0  0  0  0
   56.1374   28.4074   45.4764 H   0  0  0  0  0  0  0  0  0  0  0  0
  1  2  1  0
  2  3  1  0
  3  4  1  0
  4  5  1  0
  5  6  2  0
  5  7  1  0
  7  8  2  0
  8  9  1  0
  9 10  2  0
 10 11  1  0
 10 12  1  0
 12 13  1  0
 13 14  1  0
 14 15  1  0
 15 16  1  0
 16 17  2  0
 17 18  1  0
 18 19  1  0
 18 20  2  0
 20 21  1  0
 21 22  2  0
 12 23  2  0
 23  7  1  0
 22 13  1  0
 22 16  1  0
  1 24  1  0
  1 25  1  0
  1 26  1  0
  2 27  1  0
  2 28  1  0
  3 29  1  0
  3 30  1  0
  8 31  1  0
  9 32  1  0
 11 33  1  0
 11 34  1  0
 11 35  1  0
 14 36  1  0
 14 37  1  0
 15 38  1  0
 15 39  1  0
 17 40  1  0
 20 41  1  0
 21 42  1  0
 23 43  1  0
M  CHG  1   4  -1
M  END
>  <UniqueID>  (7) 
7

>  <SMILES>  (7) 
CCC[N-]C(=O)c1ccc(C)c(N2CCc3cc(F)ccc32)c1

>  <Energy>  (7) 
59.181224963670964

>  <Genealogy>  (7) 
CCC[N-]C(=O)c1ccc(C)c(N2CCc3cc(F)ccc32)c1 (protonated)
CCC[N-]C(=O)c1ccc(C)c(N2CCc3cc(F)ccc32)c1 (3D coordinates assigned)
CCC[N-]C(=O)c1ccc(C)c(N2CCc3cc(F)ccc32)c1 (nonaromatic ring conformer: 59.181224963670964 kcal/mol)

>  <smiles>  (7) 
CCCNC(=O)c1ccc(C)c(N2CCc3cc(F)ccc32)c1

>  <score_type>  (7) 
oracle

>  <origin>  (7) 
adg

>  <m_score__min__energy>  (7) 
-10.050000000000001

>  <m_primary>  (7) 
energy

$$$$
7:0
     RDKit          3D

 44 46  0  0  0  0  0  0  0  0999 V2000
   62.9820   33.7270   46.6350 C   0  0  0  0  0  0  0  0  0  0  0  0
   62.5140   32.6940   47.6240 C   0  0  0  0  0  0  0  0  0  0  0  0
   63.4100   32.2090   48.5930 C   0  0  0  0  0  0  0  0  0  0  0  0
   62.9960   31.2540   49.5240 C   0  0  0  0  0  0  0  0  0  0  0  0
   61.6850   30.7790   49.5060 C   0  0  0  0  0  0  0  0  0  0  0  0
   60.7810   31.2580   48.5570 C   0  0  0  0  0  0  0  0  0  0  0  0
   61.1830   32.2150   47.6050 C   0  0  0  0  0  0  0  0  0  0  0  0
   60.2290   32.7430   46.6660 N   0  0  0  0  0  0  0  0  0  0  0  0
   59.6180   34.0360   46.8060 C   0  0  0  0  0  0  0  0  0  0  0  0
   59.7520   34.6880   47.8780 O   0  0  0  0  0  0  0  0  0  0  0  0
   58.8340   34.6240   45.6530 C   0  0  0  0  0  0  0  0  0  0  0  0
   57.3320   34.3390   45.8220 C   0  0  0  0  0  0  0  0  0  0  0  0
   56.9780   32.8520   45.5900 C   0  0  0  0  0  0  0  0  0  0  0  0
   58.0070   32.1340   44.8090 N   0  0  0  0  0  0  0  0  0  0  0  0
   57.3600   30.6370   44.1870 S   0  0  0  0  0  0  0  0  0  0  0  0
   55.9590   30.4470   44.6990 O   0  0  0  0  0  0  0  0  0  0  0  0
   57.3090   30.6970   42.6850 O   0  0  0  0  0  0  0  0  0  0  0  0
   58.3370   29.2600   44.6740 C   0  0  0  0  0  0  0  0  0  0  0  0
   58.0430   27.9280   44.4250 C   0  0  0  0  0  0  0  0  0  0  0  0
   59.0000   27.0510   44.9500 C   0  0  0  0  0  0  0  0  0  0  0  0
   60.0420   27.6910   45.6100 C   0  0  0  0  0  0  0  0  0  0  0  0
   59.7700   29.3510   45.5470 S   0  0  0  0  0  0  0  0  0  0  0  0
   58.5240   32.9630   43.7100 C   0  0  0  0  0  0  0  0  0  0  0  0
   59.3450   34.1360   44.2730 C   0  0  0  0  0  0  0  0  0  0  0  0
   63.3773   34.5996   47.1756 H   0  0  0  0  0  0  0  0  0  0  0  0
   63.7735   33.2976   46.0032 H   0  0  0  0  0  0  0  0  0  0  0  0
   62.1373   34.0389   46.0032 H   0  0  0  0  0  0  0  0  0  0  0  0
   64.4437   32.5842   48.6179 H   0  0  0  0  0  0  0  0  0  0  0  0
   63.7062   30.8753   50.2738 H   0  0  0  0  0  0  0  0  0  0  0  0
   61.3632   30.0261   50.2405 H   0  0  0  0  0  0  0  0  0  0  0  0
   59.7461   30.8852   48.5524 H   0  0  0  0  0  0  0  0  0  0  0  0
   59.9360   32.1390   45.8620 H   0  0  0  0  0  0  0  0  0  0  0  0
   58.9918   35.7124   45.6754 H   0  0  0  0  0  0  0  0  0  0  0  0
   57.0337   34.6167   46.8437 H   0  0  0  0  0  0  0  0  0  0  0  0
   56.7941   34.9308   45.0667 H   0  0  0  0  0  0  0  0  0  0  0  0
   56.8713   32.3593   46.5677 H   0  0  0  0  0  0  0  0  0  0  0  0
   56.0419   32.8202   45.0131 H   0  0  0  0  0  0  0  0  0  0  0  0
   57.1516   27.5952   43.8730 H   0  0  0  0  0  0  0  0  0  0  0  0
   58.9332   25.9576   44.8494 H   0  0  0  0  0  0  0  0  0  0  0  0
   60.8987   27.1970   46.0916 H   0  0  0  0  0  0  0  0  0  0  0  0
   59.1654   32.3483   43.0614 H   0  0  0  0  0  0  0  0  0  0  0  0
   57.6778   33.3613   43.1309 H   0  0  0  0  0  0  0  0  0  0  0  0
   60.3908   33.8125   44.3806 H   0  0  0  0  0  0  0  0  0  0  0  0
   59.2460   34.9755   43.5691 H   0  0  0  0  0  0  0  0  0  0  0  0
  1  2  1  0
  2  3  2  0
  3  4  1  0
  4  5  2  0
  5  6  1  0
  6  7  2  0
  7  8  1  0
  8  9  1  0
  9 10  2  0
  9 11  1  0
 11 12  1  0
 12 13  1  0
 13 14  1  0
 14 15  1  0
 15 16  2  0
 15 17  2  0
 15 18  1  0
 18 19  2  0
 19 20  1  0
 20 21  2  0
 21 22  1  0
 14 23  1  0
 23 24  1  0
  7  2  1  0
 24 11  1  0
 22 18  1  0
  1 25  1  0
  1 26  1  0
  1 27  1  0
  3 28  1  0
  4 29  1  0
  5 30  1  0
  6 31  1  0
  8 32  1  0
 11 33  1  0
 12 34  1  0
 12 35  1  0
 13 36  1  0
 13 37  1  0
 19 38  1  0
 20 39  1  0
 21 40  1  0
 23 41  1  0
 23 42  1  0
 24 43  1  0
 24 44  1  0
M  END
>  <UniqueID>  (8) 
8

>  <SMILES>  (8) 
Cc1ccccc1NC(=O)C1CCN(S(=O)(=O)c2cccs2)CC1

>  <Energy>  (8) 
79.44458117890117

>  <Genealogy>  (8) 
Cc1ccccc1NC(=O)C1CCN(S(=O)(=O)c2cccs2)CC1 (3D coordinates assigned)
Cc1ccccc1NC(=O)C1CCN(S(=O)(=O)c2cccs2)CC1 (nonaromatic ring conformer: 79.44458117890117 kcal/mol)

>  <smiles>  (8) 
Cc1ccccc1NC(=O)C1CCN(S(=O)(=O)c2cccs2)CC1

>  <score_type>  (8) 
oracle

>  <origin>  (8) 
adg

>  <m_score__min__energy>  (8) 
-8.5899999999999999

>  <m_primary>  (8) 
energy

$$$$
8:0
     RDKit          3D

 44 46  0  0  0  0  0  0  0  0999 V2000
   57.0850   34.3480   44.8800 C   0  0  0  0  0  0  0  0  0  0  0  0
   58.2790   34.0560   45.7400 C   0  0  0  0  0  0  0  0  0  0  0  0
   59.5750   34.1700   45.2140 C   0  0  0  0  0  0  0  0  0  0  0  0
   60.6880   33.9330   46.0260 C   0  0  0  0  0  0  0  0  0  0  0  0
   60.5190   33.5990   47.3760 C   0  0  0  0  0  0  0  0  0  0  0  0
   61.9210   33.2840   48.3920 S   0  0  0  0  0  0  0  0  0  0  0  0
   62.4980   34.5870   48.8740 O   0  0  0  0  0  0  0  0  0  0  0  0
   62.9650   32.5600   47.5880 O   0  0  0  0  0  0  0  0  0  0  0  0
   61.4110   32.2820   49.7850 C   0  0  0  0  0  0  0  0  0  0  0  0
   61.8580   30.8230   49.6510 C   0  0  0  0  0  0  0  0  0  0  0  0
   61.0370   30.0820   48.6360 C   0  0  0  0  0  0  0  0  0  0  0  0
   60.2530   29.1730   49.0230 O   0  0  0  0  0  0  0  0  0  0  0  0
   61.1540   30.4010   47.2410 N   0  0  0  0  0  0  0  0  0  0  0  0
   60.2220   29.9710   46.2350 C   0  0  0  0  0  0  0  0  0  0  0  0
   60.4270   28.7850   45.5010 C   0  0  0  0  0  0  0  0  0  0  0  0
   59.4950   28.3750   44.5420 C   0  0  0  0  0  0  0  0  0  0  0  0
   58.3470   29.1390   44.3150 C   0  0  0  0  0  0  0  0  0  0  0  0
   58.1120   30.2920   45.0740 C   0  0  0  0  0  0  0  0  0  0  0  0
   59.0470   30.7120   46.0230 C   0  0  0  0  0  0  0  0  0  0  0  0
   56.9310   31.0130   44.8660 O   0  0  0  0  0  0  0  0  0  0  0  0
   55.8510   30.4580   44.1100 C   0  0  0  0  0  0  0  0  0  0  0  0
   56.3940   29.6650   42.9120 C   0  0  0  0  0  0  0  0  0  0  0  0
   57.4190   28.7650   43.3390 O   0  0  0  0  0  0  0  0  0  0  0  0
   59.2250   33.4940   47.9060 C   0  0  0  0  0  0  0  0  0  0  0  0
   58.1110   33.7320   47.0950 C   0  0  0  0  0  0  0  0  0  0  0  0
   56.2157   34.5606   45.5196 H   0  0  0  0  0  0  0  0  0  0  0  0
   57.2953   35.2212   44.2449 H   0  0  0  0  0  0  0  0  0  0  0  0
   56.8686   33.4763   44.2449 H   0  0  0  0  0  0  0  0  0  0  0  0
   59.7156   34.4469   44.1588 H   0  0  0  0  0  0  0  0  0  0  0  0
   61.7006   34.0091   45.6032 H   0  0  0  0  0  0  0  0  0  0  0  0
   61.8494   32.7028   50.7019 H   0  0  0  0  0  0  0  0  0  0  0  0
   60.3117   32.2935   49.8212 H   0  0  0  0  0  0  0  0  0  0  0  0
   62.9132   30.8004   49.3412 H   0  0  0  0  0  0  0  0  0  0  0  0
   61.7229   30.3320   50.6260 H   0  0  0  0  0  0  0  0  0  0  0  0
   61.9990   30.9310   46.9290 H   0  0  0  0  0  0  0  0  0  0  0  0
   61.3259   28.1779   45.6837 H   0  0  0  0  0  0  0  0  0  0  0  0
   59.6654   27.4526   43.9674 H   0  0  0  0  0  0  0  0  0  0  0  0
   58.8628   31.6261   46.6065 H   0  0  0  0  0  0  0  0  0  0  0  0
   55.2640   29.7867   44.7540 H   0  0  0  0  0  0  0  0  0  0  0  0
   55.2146   31.2755   43.7403 H   0  0  0  0  0  0  0  0  0  0  0  0
   55.5744   29.0915   42.4545 H   0  0  0  0  0  0  0  0  0  0  0  0
   56.8162   30.3675   42.1784 H   0  0  0  0  0  0  0  0  0  0  0  0
   59.0858   33.2235   48.9631 H   0  0  0  0  0  0  0  0  0  0  0  0
   57.0990   33.6650   47.5209 H   0  0  0  0  0  0  0  0  0  0  0  0
  1  2  1  0
  2  3  2  0
  3  4  1  0
  4  5  2  0
  5  6  1  0
  6  7  2  0
  6  8  2  0
  6  9  1  0
  9 10  1  0
 10 11  1  0
 11 12  2  0
 11 13  1  0
 13 14  1  0
 14 15  2  0
 15 16  1  0
 16 17  2  0
 17 18  1  0
 18 19  2  0
 18 20  1  0
 20 21  1  0
 21 22  1  0
 22 23  1  0
  5 24  1  0
 24 25  2  0
 25  2  1  0
 19 14  1  0
 23 17  1  0
  1 26  1  0
  1 27  1  0
  1 28  1  0
  3 29  1  0
  4 30  1  0
  9 31  1  0
  9 32  1  0
 10 33  1  0
 10 34  1  0
 13 35  1  0
 15 36  1  0
 16 37  1  0
 19 38  1  0
 21 39  1  0
 21 40  1  0
 22 41  1  0
 22 42  1  0
 24 43  1  0
 25 44  1  0
M  END
>  <UniqueID>  (9) 
9

>  <SMILES>  (9) 
Cc1ccc(S(=O)(=O)CCC(=O)Nc2ccc3c(c2)OCCO3)cc1

>  <Energy>  (9) 
43.36181500585243

>  <Genealogy>  (9) 
Cc1ccc(S(=O)(=O)CCC(=O)Nc2ccc3c(c2)OCCO3)cc1 (3D coordinates assigned)
Cc1ccc(S(=O)(=O)CCC(=O)Nc2ccc3c(c2)OCCO3)cc1 (nonaromatic ring conformer: 43.36181500585243 kcal/mol)

>  <smiles>  (9) 
Cc1ccc(S(=O)(=O)CCC(=O)Nc2ccc3c(c2)OCCO3)cc1

>  <score_type>  (9) 
oracle

>  <origin>  (9) 
adg

>  <m_score__min__energy>  (9) 
-9.0500000000000007

>  <m_primary>  (9) 
energy

$$$$
9:0
     RDKit          3D

 36 38  0  0  0  0  0  0  0  0999 V2000
   57.4070   32.0760   41.3930 C   0  0  0  0  0  0  0  0  0  0  0  0
   57.3340   31.3970   42.7610 C   0  0  0  0  0  0  0  0  0  0  0  0
   56.5640   30.0690   42.7190 C   0  0  0  0  0  0  0  0  0  0  0  0
   55.4100   30.0270   43.7310 C   0  0  0  0  0  0  0  0  0  0  0  0
   55.8030   29.3260   44.9090 O   0  0  0  0  0  0  0  0  0  0  0  0
   57.0790   29.3590   45.4980 C   0  0  0  0  0  0  0  0  0  0  0  0
   57.7270   28.1420   45.8080 C   0  0  0  0  0  0  0  0  0  0  0  0
   57.1140   26.9580   45.5340 N   0  0  0  0  0  0  0  0  0  0  0  0
   57.6990   25.7630   45.8170 C   0  0  0  0  0  0  0  0  0  0  0  0
   58.9650   25.7210   46.4060 C   0  0  0  0  0  0  0  0  0  0  0  0
   59.6280   26.9120   46.7040 C   0  0  0  0  0  0  0  0  0  0  0  0
   59.0230   28.1400   46.4110 C   0  0  0  0  0  0  0  0  0  0  0  0
   59.6740   29.3550   46.7030 C   0  0  0  0  0  0  0  0  0  0  0  0
   59.0100   30.5330   46.3810 C   0  0  0  0  0  0  0  0  0  0  0  0
   59.4280   31.7950   46.5620 N   0  0  0  0  0  0  0  0  0  0  0  0
   58.4050   32.5350   46.0710 C   0  0  0  0  0  0  0  0  0  0  0  0
   58.3840   34.0260   46.0750 C   0  0  0  0  0  0  0  0  0  0  0  0
   57.4110   31.7900   45.6180 O   0  0  0  0  0  0  0  0  0  0  0  0
   57.7720   30.5430   45.8030 C   0  0  0  0  0  0  0  0  0  0  0  0
   57.5237   33.1614   41.5282 H   0  0  0  0  0  0  0  0  0  0  0  0
   58.2679   31.6815   40.8333 H   0  0  0  0  0  0  0  0  0  0  0  0
   56.4819   31.8736   40.8333 H   0  0  0  0  0  0  0  0  0  0  0  0
   58.3577   31.2001   43.1120 H   0  0  0  0  0  0  0  0  0  0  0  0
   56.7959   32.0736   43.4412 H   0  0  0  0  0  0  0  0  0  0  0  0
   56.1522   29.9317   41.7083 H   0  0  0  0  0  0  0  0  0  0  0  0
   57.2682   29.2656   42.9810 H   0  0  0  0  0  0  0  0  0  0  0  0
   55.1266   31.0554   43.9995 H   0  0  0  0  0  0  0  0  0  0  0  0
   54.5561   29.5047   43.2748 H   0  0  0  0  0  0  0  0  0  0  0  0
   57.1731   24.8261   45.5811 H   0  0  0  0  0  0  0  0  0  0  0  0
   59.4369   24.7538   46.6337 H   0  0  0  0  0  0  0  0  0  0  0  0
   60.6248   26.8861   47.1685 H   0  0  0  0  0  0  0  0  0  0  0  0
   60.6706   29.3708   47.1684 H   0  0  0  0  0  0  0  0  0  0  0  0
   60.3240   32.1270   46.9850 H   0  0  0  0  0  0  0  0  0  0  0  0
   58.3789   34.3898   47.1131 H   0  0  0  0  0  0  0  0  0  0  0  0
   59.2769   34.4067   45.5574 H   0  0  0  0  0  0  0  0  0  0  0  0
   57.4808   34.3814   45.5574 H   0  0  0  0  0  0  0  0  0  0  0  0
  1  2  1  0
  2  3  1  0
  3  4  1  0
  4  5  1  0
  5  6  1  0
  6  7  2  0
  7  8  1  0
  8  9  2  0
  9 10  1  0
 10 11  2  0
 11 12  1  0
 12 13  2  0
 13 14  1  0
 14 15  1  0
 15 16  2  0
 16 17  1  0
 16 18  1  0
 18 19  1  0
 19  6  1  0
 12  7  1  0
 19 14  2  0
  1 20  1  0
  1 21  1  0
  1 22  1  0
  2 23  1  0
  2 24  1  0
  3 25  1  0
  3 26  1  0
  4 27  1  0
  4 28  1  0
  9 29  1  0
 10 30  1  0
 11 31  1  0
 13 32  1  0
 15 33  1  0
 17 34  1  0
 17 35  1  0
 17 36  1  0
M  CHG  1  15   1
M  END
>  <UniqueID>  (10) 
10

>  <SMILES>  (10) 
CCCCOc1c2ncccc2cc2[nH+]c(C)oc12

>  <Energy>  (10) 
72.38006471859639

>  <Genealogy>  (10) 
CCCCOc1c2ncccc2cc2[nH+]c(C)oc12 (protonated)
CCCCOc1c2ncccc2cc2[nH+]c(C)oc12 (3D coordinates assigned)
CCCCOc1c2ncccc2cc2[nH+]c(C)oc12 (optimized conformer: 72.38006471859639 kcal/mol)

>  <smiles>  (10) 
CCCCOc1c2ncccc2cc2nc(C)oc12

>  <score_type>  (10) 
oracle

>  <origin>  (10) 
adg

>  <m_score__min__energy>  (10) 
-5.0700000000000003

>  <m_primary>  (10) 
energy

$$$$
10:0
     RDKit          3D

 33 35  0  0  0  0  0  0  0  0999 V2000
   57.9250   26.6780   42.6680 N   0  0  0  0  0  0  0  0  0  0  0  0
   57.9160   27.5940   43.5940 C   0  0  0  0  0  0  0  0  0  0  0  0
   57.0620   28.6230   43.5820 N   0  0  0  0  0  0  0  0  0  0  0  0
   57.1090   29.5330   44.5690 C   0  0  0  0  0  0  0  0  0  0  0  0
   56.2960   30.5300   44.5740 N   0  0  0  0  0  0  0  0  0  0  0  0
   58.0220   29.4210   45.5950 C   0  0  0  0  0  0  0  0  0  0  0  0
   58.0300   30.3480   46.5530 N   0  0  0  0  0  0  0  0  0  0  0  0
   58.9210   30.2700   47.5850 C   0  0  0  0  0  0  0  0  0  0  0  0
   58.8320   31.3260   48.6060 C   0  0  0  0  0  0  0  0  0  0  0  0
   58.0890   32.4770   48.1830 N   0  0  0  0  0  0  0  0  0  0  0  0
   58.2960   33.3050   47.0760 C   0  0  0  0  0  0  0  0  0  0  0  0
   59.4290   34.1400   47.0550 C   0  0  0  0  0  0  0  0  0  0  0  0
   59.7070   34.9640   45.9950 C   0  0  0  0  0  0  0  0  0  0  0  0
   58.8860   35.0140   44.8920 C   0  0  0  0  0  0  0  0  0  0  0  0
   57.7790   34.2160   44.8820 C   0  0  0  0  0  0  0  0  0  0  0  0
   57.5040   33.3840   45.9580 C   0  0  0  0  0  0  0  0  0  0  0  0
   59.7760   29.2100   47.5690 C   0  0  0  0  0  0  0  0  0  0  0  0
   59.7670   28.2650   46.5920 N   0  0  0  0  0  0  0  0  0  0  0  0
   58.8860   28.3460   45.5760 C   0  0  0  0  0  0  0  0  0  0  0  0
   58.8250   27.4490   44.5810 N   0  0  0  0  0  0  0  0  0  0  0  0
   57.0290   26.3190   42.2510 H   0  0  0  0  0  0  0  0  0  0  0  0
   56.3740   28.6950   42.7950 H   0  0  0  0  0  0  0  0  0  0  0  0
   56.3280   31.2810   45.2960 H   0  0  0  0  0  0  0  0  0  0  0  0
   58.3437   30.9062   49.4978 H   0  0  0  0  0  0  0  0  0  0  0  0
   59.8590   31.6637   48.8089 H   0  0  0  0  0  0  0  0  0  0  0  0
   57.2560   32.7300   48.8100 H   0  0  0  0  0  0  0  0  0  0  0  0
   60.1131   34.1312   47.9164 H   0  0  0  0  0  0  0  0  0  0  0  0
   60.6051   35.5983   46.0271 H   0  0  0  0  0  0  0  0  0  0  0  0
   59.1149   35.6767   44.0444 H   0  0  0  0  0  0  0  0  0  0  0  0
   57.1008   34.2324   44.0161 H   0  0  0  0  0  0  0  0  0  0  0  0
   56.6032   32.7543   45.9124 H   0  0  0  0  0  0  0  0  0  0  0  0
   60.5078   29.1142   48.3846 H   0  0  0  0  0  0  0  0  0  0  0  0
   59.4890   26.6360   44.5790 H   0  0  0  0  0  0  0  0  0  0  0  0
  1  2  2  3
  2  3  1  0
  3  4  1  0
  4  5  2  3
  4  6  1  0
  6  7  2  0
  7  8  1  0
  8  9  1  0
  9 10  1  0
 10 11  1  0
 11 12  2  0
 12 13  1  0
 13 14  2  0
 14 15  1  0
 15 16  2  0
  8 17  2  0
 17 18  1  0
 18 19  2  0
 19 20  1  0
 20  2  1  0
 19  6  1  0
 16 11  1  0
  1 21  1  0
  3 22  1  0
  5 23  1  0
  9 24  1  0
  9 25  1  0
 10 26  1  0
 12 27  1  0
 13 28  1  0
 14 29  1  0
 15 30  1  0
 16 31  1  0
 17 32  1  0
 20 33  1  0
M  END
>  <smiles>  (11) 
N=c1[nH]c(=N)c2nc(CNc3ccccc3)cnc2[nH]1

>  <score_type>  (11) 
oracle

>  <origin>  (11) 
adg

>  <m_score__min__energy>  (11) 
-6.79

>  <m_primary>  (11) 
energy

$$$$
11:0
     RDKit          3D

 28 29  0  0  0  0  0  0  0  0999 V2000
   57.3930   33.2870   45.2570 C   0  0  0  0  0  0  0  0  0  0  0  0
   57.4860   31.9720   44.4980 C   0  0  0  0  0  0  0  0  0  0  0  0
   56.3670   31.1140   44.8660 N   0  0  0  0  0  0  0  0  0  0  0  0
   56.2660   29.7170   44.5650 C   0  0  0  0  0  0  0  0  0  0  0  0
   55.1650   29.1360   44.7530 O   0  0  0  0  0  0  0  0  0  0  0  0
   57.4300   28.9170   44.0400 C   0  0  0  0  0  0  0  0  0  0  0  0
   57.4400   27.4890   44.5930 C   0  0  0  0  0  0  0  0  0  0  0  0
   57.0210   27.4420   46.3750 S   0  0  0  0  0  0  0  0  0  0  0  0
   56.2960   25.8060   46.3410 C   0  0  0  0  0  0  0  0  0  0  0  0
   56.9470   24.7580   46.9420 N   0  0  0  0  0  0  0  0  0  0  0  0
   56.4240   23.4980   46.9320 C   0  0  0  0  0  0  0  0  0  0  0  0
   57.0280   22.5460   47.4910 O   0  0  0  0  0  0  0  0  0  0  0  0
   55.2110   23.3090   46.2850 C   0  0  0  0  0  0  0  0  0  0  0  0
   54.3950   22.2270   46.0660 C   0  0  0  0  0  0  0  0  0  0  0  0
   53.3220   22.6550   45.3540 N   0  0  0  0  0  0  0  0  0  0  0  0
   53.4370   23.9610   45.1210 N   0  0  0  0  0  0  0  0  0  0  0  0
   54.5880   24.3530   45.6900 C   0  0  0  0  0  0  0  0  0  0  0  0
   55.1040   25.6050   45.6990 N   0  0  0  0  0  0  0  0  0  0  0  0
   57.4071   33.0878   46.3387 H   0  0  0  0  0  0  0  0  0  0  0  0
   58.2482   33.9254   44.9906 H   0  0  0  0  0  0  0  0  0  0  0  0
   56.4564   33.7987   44.9906 H   0  0  0  0  0  0  0  0  0  0  0  0
   57.4546   32.1707   43.4165 H   0  0  0  0  0  0  0  0  0  0  0  0
   58.4306   31.4694   44.7532 H   0  0  0  0  0  0  0  0  0  0  0  0
   57.3645   28.8726   42.9429 H   0  0  0  0  0  0  0  0  0  0  0  0
   58.3570   29.4132   44.3633 H   0  0  0  0  0  0  0  0  0  0  0  0
   56.7038   26.8882   44.0389 H   0  0  0  0  0  0  0  0  0  0  0  0
   58.4555   27.0841   44.4714 H   0  0  0  0  0  0  0  0  0  0  0  0
   54.5782   21.1973   46.4067 H   0  0  0  0  0  0  0  0  0  0  0  0
  1  2  1  0
  2  3  1  0
  3  4  1  0
  4  5  2  0
  4  6  1  0
  6  7  1  0
  7  8  1  0
  8  9  1  0
  9 10  2  0
 10 11  1  0
 11 12  2  0
 11 13  1  0
 13 14  2  0
 14 15  1  0
 15 16  1  0
 16 17  2  0
 17 18  1  0
 18  9  1  0
 17 13  1  0
  1 19  1  0
  1 20  1  0
  1 21  1  0
  2 22  1  0
  2 23  1  0
  6 24  1  0
  6 25  1  0
  7 26  1  0
  7 27  1  0
 14 28  1  0
M  CHG  3   3  -1  15  -1  18  -1
M  END
>  <UniqueID>  (12) 
11

>  <SMILES>  (12) 
CC[N-]C(=O)CCSc1nc(=O)c2c[n-]nc2[n-]1

>  <Energy>  (12) 
59.18700719819387

>  <Genealogy>  (12) 
CC[N-]C(=O)CCSc1nc(=O)c2c[n-]nc2[n-]1 (protonated)
CC[N-]C(=O)CCSc1nc(=O)c2c[n-]nc2[n-]1 (3D coordinates assigned)
CC[N-]C(=O)CCSc1nc(=O)c2c[n-]nc2[n-]1 (optimized conformer: 59.18700719819387 kcal/mol)

>  <smiles>  (12) 
CCNC(=O)CCSc1nc(=O)c2c[nH]nc2[nH]1

>  <score_type>  (12) 
oracle

>  <origin>  (12) 
adg

>  <m_score__min__energy>  (12) 
-11.960000000000001

>  <m_primary>  (12) 
energy

$$$$
12:0
     RDKit          3D

 45 47  0  0  0  0  0  0  0  0999 V2000
   57.3460   21.5770   43.4800 C   0  0  0  0  0  0  0  0  0  0  0  0
   56.2670   22.5440   43.0060 C   0  0  0  0  0  0  0  0  0  0  0  0
   56.0050   23.5970   44.0420 C   0  0  0  0  0  0  0  0  0  0  0  0
   56.9150   24.6400   44.2490 C   0  0  0  0  0  0  0  0  0  0  0  0
   56.6460   25.5860   45.2520 C   0  0  0  0  0  0  0  0  0  0  0  0
   57.5640   26.7240   45.5200 C   0  0  0  0  0  0  0  0  0  0  0  0
   58.4210   26.7250   46.6320 C   0  0  0  0  0  0  0  0  0  0  0  0
   59.2640   27.8090   46.8760 C   0  0  0  0  0  0  0  0  0  0  0  0
   59.2690   28.9240   46.0240 C   0  0  0  0  0  0  0  0  0  0  0  0
   60.2090   30.0630   46.3220 C   0  0  0  0  0  0  0  0  0  0  0  0
   58.4160   28.9350   44.8900 C   0  0  0  0  0  0  0  0  0  0  0  0
   58.3640   30.0630   43.9860 N   0  0  0  0  0  0  0  0  0  0  0  0
   57.2850   30.9810   44.3810 C   0  0  0  0  0  0  0  0  0  0  0  0
   57.8570   32.2310   45.0000 C   0  0  0  0  0  0  0  0  0  0  0  0
   57.7690   32.4300   46.3890 C   0  0  0  0  0  0  0  0  0  0  0  0
   58.2660   33.6020   46.9670 C   0  0  0  0  0  0  0  0  0  0  0  0
   58.8430   34.5890   46.1640 C   0  0  0  0  0  0  0  0  0  0  0  0
   58.9210   34.4080   44.7800 C   0  0  0  0  0  0  0  0  0  0  0  0
   58.4260   33.2370   44.1960 C   0  0  0  0  0  0  0  0  0  0  0  0
   58.4970   33.0870   42.8490 F   0  0  0  0  0  0  0  0  0  0  0  0
   57.5620   27.8380   44.6650 C   0  0  0  0  0  0  0  0  0  0  0  0
   55.5060   25.4610   45.9860 N   0  0  0  0  0  0  0  0  0  0  0  0
   54.6370   24.4380   45.7790 C   0  0  0  0  0  0  0  0  0  0  0  0
   54.8920   23.5130   44.8190 N   0  0  0  0  0  0  0  0  0  0  0  0
   57.3654   21.5596   44.5797 H   0  0  0  0  0  0  0  0  0  0  0  0
   57.1262   20.5680   43.1012 H   0  0  0  0  0  0  0  0  0  0  0  0
   58.3250   21.9057   43.1012 H   0  0  0  0  0  0  0  0  0  0  0  0
   56.5993   23.0278   42.0757 H   0  0  0  0  0  0  0  0  0  0  0  0
   55.3386   21.9800   42.8329 H   0  0  0  0  0  0  0  0  0  0  0  0
   57.8255   24.7177   43.6366 H   0  0  0  0  0  0  0  0  0  0  0  0
   58.4277   25.8639   47.3164 H   0  0  0  0  0  0  0  0  0  0  0  0
   59.9340   27.7896   47.7482 H   0  0  0  0  0  0  0  0  0  0  0  0
   60.3072   30.1820   47.4111 H   0  0  0  0  0  0  0  0  0  0  0  0
   61.1958   29.8476   45.8862 H   0  0  0  0  0  0  0  0  0  0  0  0
   59.8104   30.9910   45.8862 H   0  0  0  0  0  0  0  0  0  0  0  0
   59.2790   30.5680   43.9630 H   0  0  0  0  0  0  0  0  0  0  0  0
   58.1830   29.7180   43.0130 H   0  0  0  0  0  0  0  0  0  0  0  0
   56.6975   31.2533   43.4918 H   0  0  0  0  0  0  0  0  0  0  0  0
   56.6430   30.4792   45.1199 H   0  0  0  0  0  0  0  0  0  0  0  0
   57.3069   31.6598   47.0241 H   0  0  0  0  0  0  0  0  0  0  0  0
   58.2026   33.7472   48.0555 H   0  0  0  0  0  0  0  0  0  0  0  0
   59.2362   35.5091   46.6211 H   0  0  0  0  0  0  0  0  0  0  0  0
   59.3724   35.1878   44.1490 H   0  0  0  0  0  0  0  0  0  0  0  0
   56.8798   27.8541   43.8023 H   0  0  0  0  0  0  0  0  0  0  0  0
   53.7257   24.3590   46.3899 H   0  0  0  0  0  0  0  0  0  0  0  0
  1  2  1  0
  2  3  1  0
  3  4  2  0
  4  5  1  0
  5  6  1  0
  6  7  2  0
  7  8  1  0
  8  9  2  0
  9 10  1  0
  9 11  1  0
 11 12  1  0
 12 13  1  0
 13 14  1  0
 14 15  2  0
 15 16  1  0
 16 17  2  0
 17 18  1  0
 18 19  2  0
 19 20  1  0
 11 21  2  0
  5 22  2  0
 22 23  1  0
 23 24  2  0
 24  3  1  0
 21  6  1  0
 19 14  1  0
  1 25  1  0
  1 26  1  0
  1 27  1  0
  2 28  1  0
  2 29  1  0
  4 30  1  0
  7 31  1  0
  8 32  1  0
 10 33  1  0
 10 34  1  0
 10 35  1  0
 12 36  1  0
 12 37  1  0
 13 38  1  0
 13 39  1  0
 15 40  1  0
 16 41  1  0
 17 42  1  0
 18 43  1  0
 21 44  1  0
 23 45  1  0
M  CHG  1  12   1
M  END
>  <UniqueID>  (13) 
12

>  <SMILES>  (13) 
CCc1cc(-c2ccc(C)c([NH2+]Cc3ccccc3F)c2)ncn1

>  <Energy>  (13) 
49.99323906646752

>  <Genealogy>  (13) 
CCc1cc(-c2ccc(C)c([NH2+]Cc3ccccc3F)c2)ncn1 (protonated)
CCc1cc(-c2ccc(C)c([NH2+]Cc3ccccc3F)c2)ncn1 (3D coordinates assigned)
CCc1cc(-c2ccc(C)c([NH2+]Cc3ccccc3F)c2)ncn1 (optimized conformer: 49.99323906646752 kcal/mol)

>  <smiles>  (13) 
CCc1cc(-c2ccc(C)c(NCc3ccccc3F)c2)ncn1

>  <score_type>  (13) 
oracle

>  <origin>  (13) 
adg

>  <m_score__min__energy>  (13) 
-6.7199999999999998

>  <m_primary>  (13) 
energy

$$$$
13:0
     RDKit          3D

 67 70  0  0  0  0  0  0  0  0999 V2000
   58.5200   32.8770   51.9440 C   0  0  0  0  0  0  0  0  0  0  0  0
   59.3200   32.0430   50.9930 C   0  0  0  0  0  0  0  0  0  0  0  0
   58.8620   30.9140   50.4220 N   0  0  0  0  0  0  0  0  0  0  0  0
   59.8100   30.4040   49.6490 N   0  0  0  0  0  0  0  0  0  0  0  0
   59.6760   29.1370   48.9780 C   0  0  0  0  0  0  0  0  0  0  0  0
   58.7200   28.9530   47.9620 C   0  0  0  0  0  0  0  0  0  0  0  0
   58.6220   27.7240   47.2980 C   0  0  0  0  0  0  0  0  0  0  0  0
   59.4870   26.6770   47.6270 C   0  0  0  0  0  0  0  0  0  0  0  0
   60.4540   26.8580   48.6190 C   0  0  0  0  0  0  0  0  0  0  0  0
   60.5550   28.0840   49.2860 C   0  0  0  0  0  0  0  0  0  0  0  0
   60.8860   31.2280   49.6800 C   0  0  0  0  0  0  0  0  0  0  0  0
   62.1690   31.0210   48.9270 C   0  0  0  0  0  0  0  0  0  0  0  0
   60.6100   32.2870   50.5420 C   0  0  0  0  0  0  0  0  0  0  0  0
   61.5460   33.3820   50.9890 C   0  0  0  0  0  0  0  0  0  0  0  0
   62.1050   34.2040   49.8170 C   0  0  0  0  0  0  0  0  0  0  0  0
   61.1220   34.3390   48.6790 C   0  0  0  0  0  0  0  0  0  0  0  0
   59.9460   34.7200   48.9380 O   0  0  0  0  0  0  0  0  0  0  0  0
   61.4780   33.9760   47.3210 N   0  0  0  0  0  0  0  0  0  0  0  0
   62.8860   33.7000   46.9920 C   0  0  0  0  0  0  0  0  0  0  0  0
   60.4090   33.7640   46.3220 C   0  0  0  0  0  0  0  0  0  0  0  0
   59.6500   35.0660   46.0400 C   0  0  0  0  0  0  0  0  0  0  0  0
   58.6640   34.8510   44.8840 C   0  0  0  0  0  0  0  0  0  0  0  0
   57.8940   33.5900   44.9990 N   0  0  0  0  0  0  0  0  0  0  0  0
   57.8210   32.7680   43.7710 C   0  0  0  0  0  0  0  0  0  0  0  0
   57.5790   31.3000   44.0400 C   0  0  0  0  0  0  0  0  0  0  0  0
   58.6580   30.4060   44.1690 C   0  0  0  0  0  0  0  0  0  0  0  0
   58.4240   29.0520   44.4180 C   0  0  0  0  0  0  0  0  0  0  0  0
   57.1130   28.5700   44.5040 C   0  0  0  0  0  0  0  0  0  0  0  0
   56.0330   29.4430   44.3470 C   0  0  0  0  0  0  0  0  0  0  0  0
   56.2630   30.8020   44.1190 C   0  0  0  0  0  0  0  0  0  0  0  0
   57.9980   32.8490   46.2770 C   0  0  0  0  0  0  0  0  0  0  0  0
   59.4510   32.6290   46.7470 C   0  0  0  0  0  0  0  0  0  0  0  0
   58.7802   32.6058   52.9778 H   0  0  0  0  0  0  0  0  0  0  0  0
   58.7441   33.9408   51.7766 H   0  0  0  0  0  0  0  0  0  0  0  0
   57.4478   32.6974   51.7766 H   0  0  0  0  0  0  0  0  0  0  0  0
   57.9320   30.4730   50.5980 H   0  0  0  0  0  0  0  0  0  0  0  0
   58.0465   29.7784   47.6881 H   0  0  0  0  0  0  0  0  0  0  0  0
   57.8621   27.5824   46.5154 H   0  0  0  0  0  0  0  0  0  0  0  0
   59.4067   25.7117   47.1057 H   0  0  0  0  0  0  0  0  0  0  0  0
   61.1373   26.0352   48.8762 H   0  0  0  0  0  0  0  0  0  0  0  0
   61.3274   28.2247   50.0565 H   0  0  0  0  0  0  0  0  0  0  0  0
   62.9955   30.8877   49.6405 H   0  0  0  0  0  0  0  0  0  0  0  0
   62.0825   30.1252   48.2945 H   0  0  0  0  0  0  0  0  0  0  0  0
   62.3686   31.8986   48.2945 H   0  0  0  0  0  0  0  0  0  0  0  0
   60.9994   34.0580   51.6630 H   0  0  0  0  0  0  0  0  0  0  0  0
   62.3982   32.9033   51.4935 H   0  0  0  0  0  0  0  0  0  0  0  0
   62.3604   35.2095   50.1826 H   0  0  0  0  0  0  0  0  0  0  0  0
   62.9889   33.6747   49.4316 H   0  0  0  0  0  0  0  0  0  0  0  0
   63.4642   33.5867   47.9209 H   0  0  0  0  0  0  0  0  0  0  0  0
   62.9502   32.7722   46.4046 H   0  0  0  0  0  0  0  0  0  0  0  0
   63.2958   34.5349   46.4046 H   0  0  0  0  0  0  0  0  0  0  0  0
   60.8887   33.4485   45.3837 H   0  0  0  0  0  0  0  0  0  0  0  0
   59.0964   35.3688   46.9410 H   0  0  0  0  0  0  0  0  0  0  0  0
   60.3674   35.8531   45.7647 H   0  0  0  0  0  0  0  0  0  0  0  0
   57.9558   35.6926   44.8677 H   0  0  0  0  0  0  0  0  0  0  0  0
   59.2548   34.7894   43.9582 H   0  0  0  0  0  0  0  0  0  0  0  0
   56.9987   33.1475   43.1466 H   0  0  0  0  0  0  0  0  0  0  0  0
   58.7971   32.8480   43.2702 H   0  0  0  0  0  0  0  0  0  0  0  0
   59.6898   30.7751   44.0733 H   0  0  0  0  0  0  0  0  0  0  0  0
   59.2718   28.3630   44.5468 H   0  0  0  0  0  0  0  0  0  0  0  0
   56.9322   27.5020   44.6955 H   0  0  0  0  0  0  0  0  0  0  0  0
   55.0031   29.0606   44.4029 H   0  0  0  0  0  0  0  0  0  0  0  0
   55.4113   31.4879   44.0004 H   0  0  0  0  0  0  0  0  0  0  0  0
   57.4638   33.4171   47.0528 H   0  0  0  0  0  0  0  0  0  0  0  0
   57.5590   31.8544   46.1098 H   0  0  0  0  0  0  0  0  0  0  0  0
   59.4563   32.5604   47.8448 H   0  0  0  0  0  0  0  0  0  0  0  0
   59.8106   31.7042   46.2723 H   0  0  0  0  0  0  0  0  0  0  0  0
  1  2  1  0
  2  3  2  0
  3  4  1  0
  4  5  1  0
  5  6  2  0
  6  7  1  0
  7  8  2  0
  8  9  1  0
  9 10  2  0
  4 11  1  0
 11 12  1  0
 11 13  2  0
 13 14  1  0
 14 15  1  0
 15 16  1  0
 16 17  2  0
 16 18  1  0
 18 19  1  0
 18 20  1  0
 20 21  1  0
 21 22  1  0
 22 23  1  0
 23 24  1  0
 24 25  1  0
 25 26  2  0
 26 27  1  0
 27 28  2  0
 28 29  1  0
 29 30  2  0
 23 31  1  0
 31 32  1  0
 13  2  1  0
 32 20  1  0
 10  5  1  0
 30 25  1  0
  1 33  1  0
  1 34  1  0
  1 35  1  0
  3 36  1  0
  6 37  1  0
  7 38  1  0
  8 39  1  0
  9 40  1  0
 10 41  1  0
 12 42  1  0
 12 43  1  0
 12 44  1  0
 14 45  1  0
 14 46  1  0
 15 47  1  0
 15 48  1  0
 19 49  1  0
 19 50  1  0
 19 51  1  0
 20 52  1  0
 21 53  1  0
 21 54  1  0
 22 55  1  0
 22 56  1  0
 24 57  1  0
 24 58  1  0
 26 59  1  0
 27 60  1  0
 28 61  1  0
 29 62  1  0
 30 63  1  0
 31 64  1  0
 31 65  1  0
 32 66  1  0
 32 67  1  0
M  CHG  1   3   1
M  END
>  <UniqueID>  (14) 
13

>  <SMILES>  (14) 
Cc1[nH+]n(-c2ccccc2)c(C)c1CCC(=O)N(C)C1CCN(Cc2ccccc2)CC1

>  <Energy>  (14) 
111.34706120237195

>  <Genealogy>  (14) 
Cc1[nH+]n(-c2ccccc2)c(C)c1CCC(=O)N(C)C1CCN(Cc2ccccc2)CC1 (protonated)
Cc1[nH+]n(-c2ccccc2)c(C)c1CCC(=O)N(C)C1CCN(Cc2ccccc2)CC1 (3D coordinates assigned)
Cc1[nH+]n(-c2ccccc2)c(C)c1CCC(=O)N(C)C1CCN(Cc2ccccc2)CC1 (nonaromatic ring conformer: 111.34706120237195 kcal/mol)

>  <smiles>  (14) 
Cc1nn(-c2ccccc2)c(C)c1CCC(=O)N(C)C1CCN(Cc2ccccc2)CC1

>  <score_type>  (14) 
oracle

>  <origin>  (14) 
adg

>  <m_score__min__energy>  (14) 
-8.1099999999999994

>  <m_primary>  (14) 
energy

$$$$
14:0
     RDKit          3D

 56 58  0  0  1  0  0  0  0  0999 V2000
   55.9540   28.2850   45.2390 O   0  0  0  0  0  0  0  0  0  0  0  0
   56.9860   28.9340   44.9550 C   0  0  0  0  0  0  0  0  0  0  0  0
   58.2520   28.3720   45.4210 C   0  0  0  0  0  0  0  0  0  0  0  0
   59.4670   29.1510   45.0140 C   0  0  0  0  0  0  0  0  0  0  0  0
   60.5770   29.2660   45.9800 C   0  0  0  0  0  0  0  0  0  0  0  0
   59.9520   29.7860   47.2660 C   0  0  0  0  0  0  0  0  0  0  0  0
   59.8220   29.0100   48.3570 N   0  0  0  0  0  0  0  0  0  0  0  0
   59.2520   29.7310   49.3370 C   0  0  0  0  0  0  0  0  0  0  0  0
   59.0310   30.9830   48.8160 C   0  0  0  0  0  0  0  0  0  0  0  0
   59.4720   31.0090   47.5220 N   0  0  0  0  0  0  0  0  0  0  0  0
   58.3980   32.0790   49.6190 C   0  0  0  0  0  0  0  0  0  0  0  0
   58.3870   31.6110   51.0610 C   0  0  0  0  0  0  0  0  0  0  0  0
   57.8410   30.2820   51.1530 N   0  0  0  0  0  0  0  0  0  0  0  0
   58.8880   29.3680   50.7250 C   0  0  0  0  0  0  0  0  0  0  0  0
   56.7640   30.1680   44.2000 C   0  0  0  0  0  0  0  0  0  0  0  0
   56.2990   31.2670   44.8020 O   0  0  0  0  0  0  0  0  0  0  0  0
   56.9620   32.4240   44.8920 C   0  0  0  0  0  0  0  0  0  0  0  0
   58.4650   32.3010   44.7340 C   0  0  0  0  0  0  0  0  0  0  0  0
   59.1420   33.2970   45.3970 O   0  0  0  0  0  0  0  0  0  0  0  0
   58.5480   33.8660   46.4770 C   0  0  0  0  0  0  0  0  0  0  0  0
   59.5850   34.8700   47.0300 C   0  0  2  0  0  0  0  0  0  0  0  0
   59.9370   35.6370   45.8870 O   0  0  0  0  0  0  0  0  0  0  0  0
   60.8150   34.1550   47.4340 C   0  0  0  0  0  0  0  0  0  0  0  0
   61.0860   33.8280   48.7550 C   0  0  0  0  0  0  0  0  0  0  0  0
   62.2620   33.1470   49.0860 C   0  0  0  0  0  0  0  0  0  0  0  0
   63.1520   32.8070   48.0690 C   0  0  0  0  0  0  0  0  0  0  0  0
   62.8820   33.1320   46.7710 N   0  0  0  0  0  0  0  0  0  0  0  0
   61.7480   33.7850   46.4720 C   0  0  0  0  0  0  0  0  0  0  0  0
   58.2244   28.3282   46.5198 H   0  0  0  0  0  0  0  0  0  0  0  0
   58.3450   27.3811   44.9525 H   0  0  0  0  0  0  0  0  0  0  0  0
   59.8709   28.6757   44.1080 H   0  0  0  0  0  0  0  0  0  0  0  0
   59.1024   30.1818   44.8934 H   0  0  0  0  0  0  0  0  0  0  0  0
   61.0413   28.2833   46.1494 H   0  0  0  0  0  0  0  0  0  0  0  0
   61.3670   29.9374   45.6124 H   0  0  0  0  0  0  0  0  0  0  0  0
   59.4620   31.7870   46.8460 H   0  0  0  0  0  0  0  0  0  0  0  0
   58.9844   33.0050   49.5253 H   0  0  0  0  0  0  0  0  0  0  0  0
   57.3789   32.2920   49.2640 H   0  0  0  0  0  0  0  0  0  0  0  0
   59.4163   31.6076   51.4489 H   0  0  0  0  0  0  0  0  0  0  0  0
   57.7621   32.2954   51.6536 H   0  0  0  0  0  0  0  0  0  0  0  0
   57.0190   30.1150   50.5250 H   0  0  0  0  0  0  0  0  0  0  0  0
   59.7649   29.4667   51.3817 H   0  0  0  0  0  0  0  0  0  0  0  0
   58.5386   28.3262   50.7752 H   0  0  0  0  0  0  0  0  0  0  0  0
   57.7319   30.4408   43.7543 H   0  0  0  0  0  0  0  0  0  0  0  0
   55.9404   29.8944   43.5241 H   0  0  0  0  0  0  0  0  0  0  0  0
   56.5878   33.0965   44.1061 H   0  0  0  0  0  0  0  0  0  0  0  0
   56.7844   32.8083   45.9073 H   0  0  0  0  0  0  0  0  0  0  0  0
   58.7846   31.3281   45.1356 H   0  0  0  0  0  0  0  0  0  0  0  0
   58.6994   32.3898   43.6629 H   0  0  0  0  0  0  0  0  0  0  0  0
   57.6266   34.3881   46.1797 H   0  0  0  0  0  0  0  0  0  0  0  0
   58.2603   33.1169   47.2294 H   0  0  0  0  0  0  0  0  0  0  0  0
   59.1923   35.4402   47.8847 H   0  0  0  0  0  0  0  0  0  0  0  0
   59.8270   35.0110   45.1380 H   0  0  0  0  0  0  0  0  0  0  0  0
   60.3729   34.1055   49.5453 H   0  0  0  0  0  0  0  0  0  0  0  0
   62.4807   32.8842   50.1315 H   0  0  0  0  0  0  0  0  0  0  0  0
   64.0810   32.2716   48.3146 H   0  0  0  0  0  0  0  0  0  0  0  0
   61.5483   34.0383   45.4204 H   0  0  0  0  0  0  0  0  0  0  0  0
  1  2  2  0
  2  3  1  0
  3  4  1  0
  4  5  1  0
  5  6  1  0
  6  7  2  0
  7  8  1  0
  8  9  2  0
  9 10  1  0
  9 11  1  0
 11 12  1  0
 12 13  1  0
 13 14  1  0
  2 15  1  0
 15 16  1  0
 16 17  1  0
 17 18  1  0
 18 19  1  0
 19 20  1  0
 20 21  1  0
 21 22  1  0
 21 23  1  0
 23 24  2  0
 24 25  1  0
 25 26  2  0
 26 27  1  0
 27 28  2  0
 10  6  1  0
 28 23  1  0
 14  8  1  0
  3 29  1  0
  3 30  1  0
  4 31  1  0
  4 32  1  0
  5 33  1  0
  5 34  1  0
 10 35  1  0
 11 36  1  0
 11 37  1  0
 12 38  1  0
 12 39  1  0
 13 40  1  0
 14 41  1  0
 14 42  1  0
 15 43  1  0
 15 44  1  0
 17 45  1  0
 17 46  1  0
 18 47  1  0
 18 48  1  0
 20 49  1  0
 20 50  1  0
 21 51  1  1
 22 52  1  0
 24 53  1  0
 25 54  1  0
 26 55  1  0
 28 56  1  0
M  END
>  <smiles>  (15) 
O=C(CCCc1nc2c([nH]1)CCNC2)COCCOCC(O)c1cccnc1

>  <score_type>  (15) 
oracle

>  <origin>  (15) 
adg

>  <m_score__min__energy>  (15) 
-7.96

>  <m_primary>  (15) 
energy

$$$$
15:0
     RDKit          3D

 67 71  0  0  1  0  0  0  0  0999 V2000
   63.4410   33.8420   48.8670 C   0  0  0  0  0  0  0  0  0  0  0  0
   62.2690   33.6600   48.0390 N   0  0  0  0  0  0  0  0  0  0  0  0
   62.3600   33.8460   46.7110 C   0  0  0  0  0  0  0  0  0  0  0  0
   63.4190   34.1770   46.1190 O   0  0  0  0  0  0  0  0  0  0  0  0
   61.2720   33.6710   45.9790 N   0  0  0  0  0  0  0  0  0  0  0  0
   60.0820   33.3200   46.4800 C   0  0  0  0  0  0  0  0  0  0  0  0
   59.1190   33.1820   45.7080 N   0  0  0  0  0  0  0  0  0  0  0  0
   57.9460   32.4930   45.5440 C   0  0  0  0  0  0  0  0  0  0  0  0
   57.8880   31.0630   45.3680 C   0  0  0  0  0  0  0  0  0  0  0  0
   57.5500   30.4660   44.1400 C   0  0  0  0  0  0  0  0  0  0  0  0
   57.4600   29.0970   44.0070 C   0  0  0  0  0  0  0  0  0  0  0  0
   57.6960   28.2540   45.0720 C   0  0  0  0  0  0  0  0  0  0  0  0
   57.6140   26.8370   44.9820 N   0  0  0  0  0  0  0  0  0  0  0  0
   56.4940   26.1360   45.5050 C   0  0  0  0  0  0  0  0  0  0  0  0
   55.5260   26.7120   46.0700 O   0  0  0  0  0  0  0  0  0  0  0  0
   56.5130   24.6420   45.3550 C   0  0  0  0  0  0  0  0  0  0  0  0
   55.1160   24.1230   45.1070 C   0  0  0  0  0  0  0  0  0  0  0  0
   55.2400   22.6840   44.6590 C   0  0  0  0  0  0  0  0  0  0  0  0
   55.9170   22.5930   43.3650 N   0  0  0  0  0  0  0  0  0  0  0  0
   56.8280   21.4920   43.3530 C   0  0  0  0  0  0  0  0  0  0  0  0
   56.8250   20.6770   44.5840 C   0  0  0  0  0  0  0  0  0  0  0  0
   55.9750   19.6150   44.8060 C   0  0  0  0  0  0  0  0  0  0  0  0
   56.0710   18.9270   46.0050 C   0  0  0  0  0  0  0  0  0  0  0  0
   56.9870   19.2680   46.9880 C   0  0  0  0  0  0  0  0  0  0  0  0
   57.8430   20.3430   46.7580 C   0  0  0  0  0  0  0  0  0  0  0  0
   57.7490   21.0270   45.5660 C   0  0  0  0  0  0  0  0  0  0  0  0
   56.5710   23.8310   43.0510 C   0  0  0  0  0  0  0  0  0  0  0  0
   57.4240   24.3410   44.1800 C   0  0  0  0  0  0  0  0  0  0  0  0
   58.0280   28.8180   46.2870 C   0  0  0  0  0  0  0  0  0  0  0  0
   58.1240   30.1830   46.4400 C   0  0  0  0  0  0  0  0  0  0  0  0
   59.9920   33.1300   47.8420 C   0  0  0  0  0  0  0  0  0  0  0  0
   58.7970   32.7670   48.4260 C   0  0  0  0  0  0  0  0  0  0  0  0
   58.7400   32.5840   49.7920 C   0  0  0  0  0  0  0  0  0  0  0  0
   59.8640   32.7600   50.5780 C   0  0  0  0  0  0  0  0  0  0  0  0
   61.0730   33.1240   50.0130 C   0  0  0  0  0  0  0  0  0  0  0  0
   61.1130   33.3050   48.6260 C   0  0  0  0  0  0  0  0  0  0  0  0
   63.1515   33.7970   49.9273 H   0  0  0  0  0  0  0  0  0  0  0  0
   64.1692   33.0462   48.6517 H   0  0  0  0  0  0  0  0  0  0  0  0
   63.8936   34.8212   48.6517 H   0  0  0  0  0  0  0  0  0  0  0  0
   61.3260   33.8110   44.9620 H   0  0  0  0  0  0  0  0  0  0  0  0
   57.3397   32.7124   46.4352 H   0  0  0  0  0  0  0  0  0  0  0  0
   57.6218   32.8475   44.5544 H   0  0  0  0  0  0  0  0  0  0  0  0
   57.3532   31.1055   43.2669 H   0  0  0  0  0  0  0  0  0  0  0  0
   57.1941   28.6677   43.0297 H   0  0  0  0  0  0  0  0  0  0  0  0
   58.4210   26.3430   44.5110 H   0  0  0  0  0  0  0  0  0  0  0  0
   56.8794   24.1492   46.2676 H   0  0  0  0  0  0  0  0  0  0  0  0
   54.5245   24.1787   46.0328 H   0  0  0  0  0  0  0  0  0  0  0  0
   54.6087   24.7259   44.3395 H   0  0  0  0  0  0  0  0  0  0  0  0
   55.8186   22.1230   45.4077 H   0  0  0  0  0  0  0  0  0  0  0  0
   54.2297   22.2613   44.5559 H   0  0  0  0  0  0  0  0  0  0  0  0
   56.5648   20.8383   42.5084 H   0  0  0  0  0  0  0  0  0  0  0  0
   57.8363   21.9233   43.2677 H   0  0  0  0  0  0  0  0  0  0  0  0
   55.2356   19.3196   44.0470 H   0  0  0  0  0  0  0  0  0  0  0  0
   55.3947   18.0780   46.1835 H   0  0  0  0  0  0  0  0  0  0  0  0
   57.0370   18.7018   47.9298 H   0  0  0  0  0  0  0  0  0  0  0  0
   58.5822   20.6408   47.5163 H   0  0  0  0  0  0  0  0  0  0  0  0
   58.4245   21.8759   45.3839 H   0  0  0  0  0  0  0  0  0  0  0  0
   57.2101   23.6773   42.1690 H   0  0  0  0  0  0  0  0  0  0  0  0
   55.7886   24.5807   42.8616 H   0  0  0  0  0  0  0  0  0  0  0  0
   58.1617   23.5767   44.4655 H   0  0  0  0  0  0  0  0  0  0  0  0
   57.9639   25.2486   43.8720 H   0  0  0  0  0  0  0  0  0  0  0  0
   58.2198   28.1640   47.1504 H   0  0  0  0  0  0  0  0  0  0  0  0
   58.3916   30.5953   47.4240 H   0  0  0  0  0  0  0  0  0  0  0  0
   57.8978   32.6247   47.8086 H   0  0  0  0  0  0  0  0  0  0  0  0
   57.7885   32.2944   50.2620 H   0  0  0  0  0  0  0  0  0  0  0  0
   59.7959   32.6088   51.6654 H   0  0  0  0  0  0  0  0  0  0  0  0
   61.9711   33.2661   50.6320 H   0  0  0  0  0  0  0  0  0  0  0  0
  1  2  1  0
  2  3  1  0
  3  4  2  0
  3  5  1  0
  5  6  1  0
  6  7  2  0
  7  8  1  0
  8  9  1  0
  9 10  2  0
 10 11  1  0
 11 12  2  0
 12 13  1  0
 13 14  1  0
 14 15  2  0
 14 16  1  0
 16 17  1  0
 17 18  1  0
 18 19  1  0
 19 20  1  0
 20 21  1  0
 21 22  2  0
 22 23  1  0
 23 24  2  0
 24 25  1  0
 25 26  2  0
 19 27  1  0
 27 28  1  0
 12 29  1  0
 29 30  2  0
  6 31  1  0
 31 32  2  0
 32 33  1  0
 33 34  2  0
 34 35  1  0
 35 36  2  0
 36  2  1  0
 30  9  1  0
 36 31  1  0
 28 16  1  0
 26 21  1  0
  1 37  1  0
  1 38  1  0
  1 39  1  0
  5 40  1  0
  8 41  1  0
  8 42  1  0
 10 43  1  0
 11 44  1  0
 13 45  1  0
 16 46  1  0
 17 47  1  0
 17 48  1  0
 18 49  1  0
 18 50  1  0
 20 51  1  0
 20 52  1  0
 22 53  1  0
 23 54  1  0
 24 55  1  0
 25 56  1  0
 26 57  1  0
 27 58  1  0
 27 59  1  0
 28 60  1  0
 28 61  1  0
 29 62  1  0
 30 63  1  0
 32 64  1  0
 33 65  1  0
 34 66  1  0
 35 67  1  0
M  END
>  <smiles>  (16) 
Cn1c(=O)[nH]c(=NCc2ccc(NC(=O)C3CCN(Cc4ccccc4)CC3)cc2)c2ccccc21

>  <score_type>  (16) 
oracle

>  <origin>  (16) 
adg

>  <m_score__min__energy>  (16) 
-9.7799999999999994

>  <m_primary>  (16) 
energy

$$$$
16:0
     RDKit          3D

 26 28  0  0  0  0  0  0  0  0999 V2000
   54.8020   26.7160   46.0110 O   0  0  0  0  0  0  0  0  0  0  0  0
   56.1020   26.2250   46.0610 C   0  0  0  0  0  0  0  0  0  0  0  0
   56.2980   24.8710   46.3580 C   0  0  0  0  0  0  0  0  0  0  0  0
   57.5880   24.3410   46.4170 C   0  0  0  0  0  0  0  0  0  0  0  0
   58.6910   25.1610   46.1790 C   0  0  0  0  0  0  0  0  0  0  0  0
   58.5070   26.5150   45.8800 C   0  0  0  0  0  0  0  0  0  0  0  0
   57.2130   27.0660   45.8170 C   0  0  0  0  0  0  0  0  0  0  0  0
   57.0490   28.5060   45.4990 C   0  0  0  0  0  0  0  0  0  0  0  0
   55.9720   29.0310   44.8840 N   0  0  0  0  0  0  0  0  0  0  0  0
   56.1870   30.3310   44.7750 N   0  0  0  0  0  0  0  0  0  0  0  0
   57.3920   30.5710   45.3250 C   0  0  0  0  0  0  0  0  0  0  0  0
   58.0090   31.9100   45.4070 C   0  0  0  0  0  0  0  0  0  0  0  0
   57.4220   33.0080   44.7560 C   0  0  0  0  0  0  0  0  0  0  0  0
   58.0230   34.2660   44.8470 C   0  0  0  0  0  0  0  0  0  0  0  0
   59.1680   34.4260   45.5600 N   0  0  0  0  0  0  0  0  0  0  0  0
   59.7590   33.3840   46.2010 C   0  0  0  0  0  0  0  0  0  0  0  0
   59.1930   32.1090   46.1370 C   0  0  0  0  0  0  0  0  0  0  0  0
   57.9700   29.4470   45.7960 N   0  0  0  0  0  0  0  0  0  0  0  0
   55.4306   24.2212   46.5459 H   0  0  0  0  0  0  0  0  0  0  0  0
   57.7348   23.2763   46.6513 H   0  0  0  0  0  0  0  0  0  0  0  0
   59.7071   24.7422   46.2265 H   0  0  0  0  0  0  0  0  0  0  0  0
   59.3815   27.1553   45.6923 H   0  0  0  0  0  0  0  0  0  0  0  0
   56.4950   32.8780   44.1783 H   0  0  0  0  0  0  0  0  0  0  0  0
   57.5676   35.1293   44.3398 H   0  0  0  0  0  0  0  0  0  0  0  0
   60.6855   33.5451   46.7717 H   0  0  0  0  0  0  0  0  0  0  0  0
   59.6715   31.2650   46.6553 H   0  0  0  0  0  0  0  0  0  0  0  0
  1  2  1  0
  2  3  2  0
  3  4  1  0
  4  5  2  0
  5  6  1  0
  6  7  2  0
  7  8  1  0
  8  9  2  0
  9 10  1  0
 10 11  1  0
 11 12  1  0
 12 13  2  0
 13 14  1  0
 14 15  2  0
 15 16  1  0
 16 17  2  0
 11 18  2  0
  7  2  1  0
 18  8  1  0
 17 12  1  0
  3 19  1  0
  4 20  1  0
  5 21  1  0
  6 22  1  0
 13 23  1  0
 14 24  1  0
 16 25  1  0
 17 26  1  0
M  CHG  2   1  -1  10  -1
M  END
>  <UniqueID>  (17) 
14

>  <SMILES>  (17) 
[O-]c1ccccc1-c1n[n-]c(-c2ccncc2)n1

>  <Energy>  (17) 
64.3565381461596

>  <Genealogy>  (17) 
[O-]c1ccccc1-c1n[n-]c(-c2ccncc2)n1 (protonated)
[O-]c1ccccc1-c1n[n-]c(-c2ccncc2)n1 (3D coordinates assigned)
[O-]c1ccccc1-c1n[n-]c(-c2ccncc2)n1 (optimized conformer: 64.3565381461596 kcal/mol)

>  <smiles>  (17) 
Oc1ccccc1-c1n[nH]c(-c2ccncc2)n1

>  <score_type>  (17) 
oracle

>  <origin>  (17) 
adg

>  <m_score__min__energy>  (17) 
-12.869999999999999

>  <m_primary>  (17) 
energy

$$$$
17:0
     RDKit          3D

 31 31  0  0  0  0  0  0  0  0999 V2000
   56.7150   25.8703   46.3909 H   0  0  0  0  0  0  0  0  0  0  0  0
   55.8950   26.4980   46.0120 C   0  0  0  0  0  0  0  0  0  0  0  0
   54.7280   26.0280   45.9520 O   0  0  0  0  0  0  0  0  0  0  0  0
   56.1660   27.8360   45.5940 N   0  0  0  0  0  0  0  0  0  0  0  0
   57.3210   28.1950   44.7840 C   0  0  0  0  0  0  0  0  0  0  0  0
   57.3345   27.5730   43.8768 H   0  0  0  0  0  0  0  0  0  0  0  0
   58.2349   28.0265   45.3726 H   0  0  0  0  0  0  0  0  0  0  0  0
   57.2550   29.6790   44.3800 C   0  0  2  0  0  0  0  0  0  0  0  0
   58.1693   29.9140   43.8153 H   0  0  0  0  0  0  0  0  0  0  0  0
   57.1770   30.5330   45.5720 N   0  0  0  0  0  0  0  0  0  0  0  0
   58.1620   31.0450   46.2540 C   0  0  0  0  0  0  0  0  0  0  0  0
   58.6601   30.4071   46.9990 H   0  0  0  0  0  0  0  0  0  0  0  0
   58.6510   32.4280   46.0890 C   0  0  0  0  0  0  0  0  0  0  0  0
   59.5990   32.9350   46.9890 C   0  0  0  0  0  0  0  0  0  0  0  0
   59.9899   32.2937   47.7928 H   0  0  0  0  0  0  0  0  0  0  0  0
   60.0490   34.2530   46.8680 C   0  0  0  0  0  0  0  0  0  0  0  0
   60.8062   34.6409   47.5652 H   0  0  0  0  0  0  0  0  0  0  0  0
   59.5380   35.0790   45.8620 C   0  0  0  0  0  0  0  0  0  0  0  0
   59.9005   36.1127   45.7615 H   0  0  0  0  0  0  0  0  0  0  0  0
   58.5660   34.5900   44.9840 C   0  0  0  0  0  0  0  0  0  0  0  0
   58.1563   35.2430   44.1993 H   0  0  0  0  0  0  0  0  0  0  0  0
   58.1140   33.2720   45.1020 C   0  0  0  0  0  0  0  0  0  0  0  0
   57.3367   32.8952   44.4210 H   0  0  0  0  0  0  0  0  0  0  0  0
   56.0260   29.9460   43.5000 C   0  0  0  0  0  0  0  0  0  0  0  0
   55.3604   30.6577   44.0104 H   0  0  0  0  0  0  0  0  0  0  0  0
   55.4955   28.9986   43.3243 H   0  0  0  0  0  0  0  0  0  0  0  0
   56.4280   30.4890   42.2590 O   0  0  0  0  0  0  0  0  0  0  0  0
   57.3870   31.4990   42.4800 C   0  0  0  0  0  0  0  0  0  0  0  0
   57.5244   31.6437   43.5617 H   0  0  0  0  0  0  0  0  0  0  0  0
   58.3436   31.2021   42.0253 H   0  0  0  0  0  0  0  0  0  0  0  0
   57.0410   32.4390   42.0253 H   0  0  0  0  0  0  0  0  0  0  0  0
  1  2  1  0
  2  3  2  0
  2  4  1  0
  4  5  1  0
  5  6  1  0
  5  7  1  0
  5  8  1  0
  8  9  1  6
  8 10  1  0
 10 11  2  0
 11 12  1  0
 11 13  1  0
 13 14  2  0
 14 15  1  0
 14 16  1  0
 16 17  1  0
 16 18  2  0
 18 19  1  0
 18 20  1  0
 20 21  1  0
 20 22  2  0
 22 23  1  0
  8 24  1  0
 24 25  1  0
 24 26  1  0
 24 27  1  0
 27 28  1  0
 28 29  1  0
 28 30  1  0
 28 31  1  0
 22 13  1  0
M  CHG  1   4  -1
M  END
>  <UniqueID>  (18) 
15

>  <SMILES>  (18) 
COC[C@H](C[N-]C=O)/N=C\c1ccccc1

>  <Energy>  (18) 
31.71327310002497

>  <Genealogy>  (18) 
COCC(C[N-]C=O)N=Cc1ccccc1 (protonated)
COC[C@H](C[N-]C=O)N=Cc1ccccc1 (chirality)
COC[C@H](C[N-]C=O)/N=C\c1ccccc1 (cis-trans isomerization)
COC[C@H](C[N-]C=O)/N=C\c1ccccc1 (3D coordinates assigned)
COC[C@H](C[N-]C=O)/N=C\c1ccccc1 (optimized conformer: 31.71327310002497 kcal/mol)

>  <smiles>  (18) 
COCC(CNC=O)N=Cc1ccccc1

>  <score_type>  (18) 
oracle

>  <origin>  (18) 
adg

>  <m_score__min__energy>  (18) 
-8.0999999999999996

>  <m_primary>  (18) 
energy

$$$$
18:0
     RDKit          3D

 66 71  0  0  0  0  0  0  0  0999 V2000
   60.0140   29.4750   46.7460 H   0  0  0  0  0  0  0  0  0  0  0  0
   59.9490   30.3320   47.2460 O   0  0  0  0  0  0  0  0  0  0  0  0
   60.6910   31.2720   46.5180 C   0  0  0  0  0  0  0  0  0  0  0  0
   60.6326   31.0295   45.4467 H   0  0  0  0  0  0  0  0  0  0  0  0
   61.7377   31.2404   46.8549 H   0  0  0  0  0  0  0  0  0  0  0  0
   60.1410   32.6670   46.7460 C   0  0  0  0  0  0  0  0  0  0  0  0
   59.0370   33.1400   45.9910 C   0  0  0  0  0  0  0  0  0  0  0  0
   58.3240   32.2810   45.0250 C   0  0  0  0  0  0  0  0  0  0  0  0
   58.2120   32.6720   43.6840 C   0  0  0  0  0  0  0  0  0  0  0  0
   58.6503   33.6249   43.3524 H   0  0  0  0  0  0  0  0  0  0  0  0
   57.5450   31.8550   42.7660 C   0  0  0  0  0  0  0  0  0  0  0  0
   57.4330   32.3360   41.0830 Cl  0  0  0  0  0  0  0  0  0  0  0  0
   56.9700   30.6520   43.1890 C   0  0  0  0  0  0  0  0  0  0  0  0
   56.4657   30.0005   42.4601 H   0  0  0  0  0  0  0  0  0  0  0  0
   57.0330   30.2730   44.5350 C   0  0  0  0  0  0  0  0  0  0  0  0
   56.4850   29.0080   44.9340 N   0  0  0  0  0  0  0  0  0  0  0  0
   57.1040   28.0360   45.5450 C   0  0  0  0  0  0  0  0  0  0  0  0
   58.3050   28.2970   46.1260 N   0  0  0  0  0  0  0  0  0  0  0  0
   59.0060   27.3290   46.7770 C   0  0  0  0  0  0  0  0  0  0  0  0
   60.2370   27.6150   47.3760 O   0  0  0  0  0  0  0  0  0  0  0  0
   60.3910   27.7720   48.7810 C   0  0  0  0  0  0  0  0  0  0  0  0
   59.7132   27.0810   49.3036 H   0  0  0  0  0  0  0  0  0  0  0  0
   61.4306   27.5493   49.0631 H   0  0  0  0  0  0  0  0  0  0  0  0
   60.1483   28.8071   49.0631 H   0  0  0  0  0  0  0  0  0  0  0  0
   58.4920   26.0370   46.8460 C   0  0  0  0  0  0  0  0  0  0  0  0
   59.0379   25.2426   47.3761 H   0  0  0  0  0  0  0  0  0  0  0  0
   57.2710   25.7720   46.2290 C   0  0  0  0  0  0  0  0  0  0  0  0
   56.8487   24.7569   46.2633 H   0  0  0  0  0  0  0  0  0  0  0  0
   56.6000   26.7630   45.5850 N   0  0  0  0  0  0  0  0  0  0  0  0
   55.7150   26.5070   45.0950 H   0  0  0  0  0  0  0  0  0  0  0  0
   57.7350   31.0810   45.4470 C   0  0  0  0  0  0  0  0  0  0  0  0
   57.8225   30.7694   46.4983 H   0  0  0  0  0  0  0  0  0  0  0  0
   58.6000   34.4650   46.1500 C   0  0  0  0  0  0  0  0  0  0  0  0
   57.7481   34.8329   45.5594 H   0  0  0  0  0  0  0  0  0  0  0  0
   59.2360   35.3170   47.0490 C   0  0  0  0  0  0  0  0  0  0  0  0
   58.8831   36.3521   47.1673 H   0  0  0  0  0  0  0  0  0  0  0  0
   60.3180   34.8620   47.7990 C   0  0  0  0  0  0  0  0  0  0  0  0
   60.8140   35.5391   48.5099 H   0  0  0  0  0  0  0  0  0  0  0  0
   60.7780   33.5470   47.6530 C   0  0  0  0  0  0  0  0  0  0  0  0
   61.8940   33.1130   48.4420 N   0  0  0  0  0  0  0  0  0  0  0  0
   61.7340   32.0430   49.3890 C   0  0  0  0  0  0  0  0  0  0  0  0
   60.6120   31.5020   49.5860 O   0  0  0  0  0  0  0  0  0  0  0  0
   62.9250   31.5840   50.0970 C   0  0  0  0  0  0  0  0  0  0  0  0
   63.0230   30.5870   51.0520 C   0  0  0  0  0  0  0  0  0  0  0  0
   62.2043   30.0035   51.4984 H   0  0  0  0  0  0  0  0  0  0  0  0
   64.3750   30.4850   51.3220 C   0  0  0  0  0  0  0  0  0  0  0  0
   65.0280   31.4310   50.5570 C   0  0  0  0  0  0  0  0  0  0  0  0
   64.1320   32.1010   49.8060 N   0  0  0  0  0  0  0  0  0  0  0  0
   64.3760   33.0420   48.7080 C   0  0  0  0  0  0  0  0  0  0  0  0
   64.6135   32.4777   47.7942 H   0  0  0  0  0  0  0  0  0  0  0  0
   65.2178   33.6953   48.9810 H   0  0  0  0  0  0  0  0  0  0  0  0
   63.1290   33.9160   48.4550 C   0  0  0  0  0  0  0  0  0  0  0  0
   63.2375   34.4188   47.4827 H   0  0  0  0  0  0  0  0  0  0  0  0
   63.0527   34.6490   49.2717 H   0  0  0  0  0  0  0  0  0  0  0  0
   66.5230   31.5240   50.4560 C   0  0  0  0  0  0  0  0  0  0  0  0
   66.8523   31.0466   49.5213 H   0  0  0  0  0  0  0  0  0  0  0  0
   66.8132   32.5850   50.4649 H   0  0  0  0  0  0  0  0  0  0  0  0
   67.1940   30.8160   51.6500 C   0  0  0  0  0  0  0  0  0  0  0  0
   68.2619   30.6757   51.4265 H   0  0  0  0  0  0  0  0  0  0  0  0
   67.0561   31.4448   52.5420 H   0  0  0  0  0  0  0  0  0  0  0  0
   66.5570   29.4380   51.9310 C   0  0  0  0  0  0  0  0  0  0  0  0
   66.6618   28.8075   51.0358 H   0  0  0  0  0  0  0  0  0  0  0  0
   67.0751   28.9895   52.7915 H   0  0  0  0  0  0  0  0  0  0  0  0
   65.0610   29.5630   52.2820 C   0  0  0  0  0  0  0  0  0  0  0  0
   64.5919   28.5695   52.2284 H   0  0  0  0  0  0  0  0  0  0  0  0
   64.9659   29.9715   53.2989 H   0  0  0  0  0  0  0  0  0  0  0  0
  1  2  1  0
  2  3  1  0
  3  4  1  0
  3  5  1  0
  3  6  1  0
  6  7  2  0
  7  8  1  0
  8  9  2  0
  9 10  1  0
  9 11  1  0
 11 12  1  0
 11 13  2  0
 13 14  1  0
 13 15  1  0
 15 16  1  0
 16 17  2  0
 17 18  1  0
 18 19  2  0
 19 20  1  0
 20 21  1  0
 21 22  1  0
 21 23  1  0
 21 24  1  0
 19 25  1  0
 25 26  1  0
 25 27  2  0
 27 28  1  0
 27 29  1  0
 29 30  1  0
 15 31  2  0
 31 32  1  0
  7 33  1  0
 33 34  1  0
 33 35  2  0
 35 36  1  0
 35 37  1  0
 37 38  1  0
 37 39  2  0
 39 40  1  0
 40 41  1  0
 41 42  2  0
 41 43  1  0
 43 44  2  0
 44 45  1  0
 44 46  1  0
 46 47  2  0
 47 48  1  0
 48 49  1  0
 49 50  1  0
 49 51  1  0
 49 52  1  0
 52 53  1  0
 52 54  1  0
 47 55  1  0
 55 56  1  0
 55 57  1  0
 55 58  1  0
 58 59  1  0
 58 60  1  0
 58 61  1  0
 61 62  1  0
 61 63  1  0
 61 64  1  0
 64 65  1  0
 64 66  1  0
 39  6  1  0
 52 40  1  0
 31  8  1  0
 48 43  1  0
 29 17  1  0
 64 46  1  0
M  END
>  <UniqueID>  (19) 
16

>  <SMILES>  (19) 
COc1cc[nH]/c(=N\c2cc(Cl)cc(-c3cccc(N4CCn5c(cc6c5CCCC6)C4=O)c3CO)c2)n1

>  <Energy>  (19) 
122.50140158768927

>  <Genealogy>  (19) 
COc1cc[nH]/c(=N\c2cc(Cl)cc(-c3cccc(N4CCn5c(cc6c5CCCC6)C4=O)c3CO)c2)n1 (cis-trans isomerization)
COc1cc[nH]/c(=N\c2cc(Cl)cc(-c3cccc(N4CCn5c(cc6c5CCCC6)C4=O)c3CO)c2)n1 (3D coordinates assigned)
COc1cc[nH]/c(=N\c2cc(Cl)cc(-c3cccc(N4CCn5c(cc6c5CCCC6)C4=O)c3CO)c2)n1 (nonaromatic ring conformer: 122.50140158768927 kcal/mol)

>  <smiles>  (19) 
COc1cc[nH]c(=Nc2cc(Cl)cc(-c3cccc(N4CCn5c(cc6c5CCCC6)C4=O)c3CO)c2)n1

>  <score_type>  (19) 
oracle

>  <origin>  (19) 
adg

>  <m_score__min__energy>  (19) 
-10.27

>  <m_primary>  (19) 
energy

$$$$
19:0
     RDKit          3D

 45 47  0  0  0  0  0  0  0  0999 V2000
   58.2620   32.4030   41.3550 C   0  0  0  0  0  0  0  0  0  0  0  0
   57.0290   31.6140   41.8710 C   0  0  0  0  0  0  0  0  0  0  0  0
   57.2190   30.7810   42.8360 O   0  0  0  0  0  0  0  0  0  0  0  0
   57.3950   29.9100   43.7790 C   0  0  0  0  0  0  0  0  0  0  0  0
   57.5510   28.5430   43.4070 C   0  0  0  0  0  0  0  0  0  0  0  0
   57.7480   27.6660   44.4590 C   0  0  0  0  0  0  0  0  0  0  0  0
   57.8090   28.0520   45.8180 C   0  0  0  0  0  0  0  0  0  0  0  0
   58.0410   26.9830   46.8660 C   0  0  0  0  0  0  0  0  0  0  0  0
   56.7430   26.0990   46.7360 N   0  0  0  0  0  0  0  0  0  0  0  0
   57.0270   24.9750   46.1380 C   0  0  0  0  0  0  0  0  0  0  0  0
   55.4090   24.8710   45.5570 C   0  0  0  0  0  0  0  0  0  0  0  0
   54.9860   23.9010   44.8300 C   0  0  0  0  0  0  0  0  0  0  0  0
   55.6570   22.7900   44.3580 C   0  0  0  0  0  0  0  0  0  0  0  0
   56.9750   22.8500   44.8110 N   0  0  0  0  0  0  0  0  0  0  0  0
   57.9290   21.9530   44.5740 N   0  0  0  0  0  0  0  0  0  0  0  0
   59.0130   22.4810   45.2400 C   0  0  0  0  0  0  0  0  0  0  0  0
   60.1610   21.8410   45.2530 N   0  0  0  0  0  0  0  0  0  0  0  0
   58.7300   23.5650   45.8000 N   0  0  0  0  0  0  0  0  0  0  0  0
   57.2990   23.8410   45.5260 C   0  0  0  0  0  0  0  0  0  0  0  0
   57.6550   29.3250   46.0730 C   0  0  0  0  0  0  0  0  0  0  0  0
   57.4520   30.2690   45.1370 C   0  0  0  0  0  0  0  0  0  0  0  0
   57.2990   31.6850   45.3120 O   0  0  0  0  0  0  0  0  0  0  0  0
   57.2010   32.8370   45.4420 C   0  0  0  0  0  0  0  0  0  0  0  0
   58.0190   34.0060   45.0110 C   0  0  0  0  0  0  0  0  0  0  0  0
   58.8437   32.7752   42.2112 H   0  0  0  0  0  0  0  0  0  0  0  0
   58.8922   31.7400   40.7440 H   0  0  0  0  0  0  0  0  0  0  0  0
   57.9240   33.2530   40.7440 H   0  0  0  0  0  0  0  0  0  0  0  0
   56.2856   32.3497   42.2118 H   0  0  0  0  0  0  0  0  0  0  0  0
   56.7171   30.9914   41.0195 H   0  0  0  0  0  0  0  0  0  0  0  0
   57.5172   28.2093   42.3594 H   0  0  0  0  0  0  0  0  0  0  0  0
   57.8649   26.5981   44.2225 H   0  0  0  0  0  0  0  0  0  0  0  0
   58.9456   26.3976   46.6446 H   0  0  0  0  0  0  0  0  0  0  0  0
   58.2012   27.3847   47.8774 H   0  0  0  0  0  0  0  0  0  0  0  0
   56.0090   26.6700   47.1230 H   0  0  0  0  0  0  0  0  0  0  0  0
   54.7047   25.6736   45.8213 H   0  0  0  0  0  0  0  0  0  0  0  0
   53.9272   23.9645   44.5385 H   0  0  0  0  0  0  0  0  0  0  0  0
   55.2261   21.9945   43.7323 H   0  0  0  0  0  0  0  0  0  0  0  0
   57.8970   21.0860   44.0240 H   0  0  0  0  0  0  0  0  0  0  0  0
   60.0440   20.7910   45.2050 H   0  0  0  0  0  0  0  0  0  0  0  0
   57.6941   29.6456   47.1245 H   0  0  0  0  0  0  0  0  0  0  0  0
   56.2145   33.0516   45.0051 H   0  0  0  0  0  0  0  0  0  0  0  0
   57.5461   32.8511   46.4864 H   0  0  0  0  0  0  0  0  0  0  0  0
   58.3922   34.5393   45.8978 H   0  0  0  0  0  0  0  0  0  0  0  0
   58.8701   33.6558   44.4086 H   0  0  0  0  0  0  0  0  0  0  0  0
   57.3984   34.6857   44.4086 H   0  0  0  0  0  0  0  0  0  0  0  0
  1  2  1  0
  2  3  1  0
  3  4  1  0
  4  5  2  0
  5  6  1  0
  6  7  2  0
  7  8  1  0
  8  9  1  0
  9 10  1  0
 10 11  2  0
 11 12  1  0
 12 13  2  0
 13 14  1  0
 14 15  1  0
 15 16  1  0
 16 17  2  3
 16 18  1  0
 18 19  2  0
  7 20  1  0
 20 21  2  0
 21 22  1  0
 22 23  1  0
 23 24  1  0
 21  4  1  0
 19 10  1  0
 19 14  1  0
  1 25  1  0
  1 26  1  0
  1 27  1  0
  2 28  1  0
  2 29  1  0
  5 30  1  0
  6 31  1  0
  8 32  1  0
  8 33  1  0
  9 34  1  0
 11 35  1  0
 12 36  1  0
 13 37  1  0
 15 38  1  0
 17 39  1  0
 20 40  1  0
 23 41  1  0
 23 42  1  0
 24 43  1  0
 24 44  1  0
 24 45  1  0
M  END
>  <smiles>  (20) 
CCOc1ccc(CNc2cccn3[nH]c(=N)nc23)cc1OCC

>  <score_type>  (20) 
oracle

>  <origin>  (20) 
adg

>  <m_score__min__energy>  (20) 
-6.0700000000000003

>  <m_primary>  (20) 
energy

$$$$
20:0
     RDKit          3D

 41 43  0  0  0  0  0  0  0  0999 V2000
   60.0880   29.1830   48.9490 O   0  0  0  0  0  0  0  0  0  0  0  0
   59.4960   29.5160   47.8560 C   0  0  0  0  0  0  0  0  0  0  0  0
   59.2210   28.4560   46.9080 C   0  0  0  0  0  0  0  0  0  0  0  0
   58.1070   28.6660   45.9910 C   0  0  0  0  0  0  0  0  0  0  0  0
   56.9550   27.9180   46.0650 N   0  0  0  0  0  0  0  0  0  0  0  0
   56.0930   28.3290   45.1640 N   0  0  0  0  0  0  0  0  0  0  0  0
   56.5860   29.3430   44.4430 C   0  0  0  0  0  0  0  0  0  0  0  0
   56.0720   30.0930   43.4240 C   0  0  0  0  0  0  0  0  0  0  0  0
   56.8600   31.0940   42.9050 C   0  0  0  0  0  0  0  0  0  0  0  0
   58.1360   31.3140   43.4260 C   0  0  0  0  0  0  0  0  0  0  0  0
   58.6200   30.5440   44.4460 C   0  0  0  0  0  0  0  0  0  0  0  0
   57.8640   29.5500   44.9760 C   0  0  0  0  0  0  0  0  0  0  0  0
   59.2050   30.8990   47.7480 N   0  0  0  0  0  0  0  0  0  0  0  0
   59.6660   31.7790   48.8630 C   0  0  0  0  0  0  0  0  0  0  0  0
   59.3550   33.1800   48.4220 C   0  0  0  0  0  0  0  0  0  0  0  0
   58.9370   33.2050   47.0270 N   0  0  0  0  0  0  0  0  0  0  0  0
   57.4680   33.4560   47.0440 C   0  0  0  0  0  0  0  0  0  0  0  0
   57.0270   33.4870   45.6090 C   0  0  0  0  0  0  0  0  0  0  0  0
   57.5890   34.5980   44.9720 O   0  0  0  0  0  0  0  0  0  0  0  0
   58.9550   34.4330   44.9580 C   0  0  0  0  0  0  0  0  0  0  0  0
   59.5620   34.3200   46.3240 C   0  0  0  0  0  0  0  0  0  0  0  0
   60.1272   28.3081   46.3022 H   0  0  0  0  0  0  0  0  0  0  0  0
   58.9296   27.5904   47.5210 H   0  0  0  0  0  0  0  0  0  0  0  0
   55.1450   27.8780   45.0600 H   0  0  0  0  0  0  0  0  0  0  0  0
   55.0621   29.9031   43.0315 H   0  0  0  0  0  0  0  0  0  0  0  0
   56.4854   31.7195   42.0814 H   0  0  0  0  0  0  0  0  0  0  0  0
   58.7606   32.1182   43.0099 H   0  0  0  0  0  0  0  0  0  0  0  0
   59.6297   30.7315   44.8401 H   0  0  0  0  0  0  0  0  0  0  0  0
   58.6980   31.2420   46.9320 H   0  0  0  0  0  0  0  0  0  0  0  0
   59.1259   31.5390   49.7908 H   0  0  0  0  0  0  0  0  0  0  0  0
   60.7375   31.6452   49.0726 H   0  0  0  0  0  0  0  0  0  0  0  0
   58.5453   33.5832   49.0479 H   0  0  0  0  0  0  0  0  0  0  0  0
   60.2632   33.7916   48.5278 H   0  0  0  0  0  0  0  0  0  0  0  0
   56.9504   32.6494   47.5838 H   0  0  0  0  0  0  0  0  0  0  0  0
   57.2306   34.4008   47.5548 H   0  0  0  0  0  0  0  0  0  0  0  0
   57.3587   32.5680   45.1036 H   0  0  0  0  0  0  0  0  0  0  0  0
   55.9300   33.5549   45.5641 H   0  0  0  0  0  0  0  0  0  0  0  0
   59.1884   33.5159   44.3973 H   0  0  0  0  0  0  0  0  0  0  0  0
   59.3827   35.3316   44.4893 H   0  0  0  0  0  0  0  0  0  0  0  0
   60.6435   34.1404   46.2340 H   0  0  0  0  0  0  0  0  0  0  0  0
   59.3980   35.2528   46.8835 H   0  0  0  0  0  0  0  0  0  0  0  0
  1  2  2  0
  2  3  1  0
  3  4  1  0
  4  5  2  0
  5  6  1  0
  6  7  1  0
  7  8  2  0
  8  9  1  0
  9 10  2  0
 10 11  1  0
 11 12  2  0
  2 13  1  0
 13 14  1  0
 14 15  1  0
 15 16  1  0
 16 17  1  0
 17 18  1  0
 18 19  1  0
 19 20  1  0
 20 21  1  0
 12  4  1  0
 21 16  1  0
 12  7  1  0
  3 22  1  0
  3 23  1  0
  6 24  1  0
  8 25  1  0
  9 26  1  0
 10 27  1  0
 11 28  1  0
 13 29  1  0
 14 30  1  0
 14 31  1  0
 15 32  1  0
 15 33  1  0
 17 34  1  0
 17 35  1  0
 18 36  1  0
 18 37  1  0
 20 38  1  0
 20 39  1  0
 21 40  1  0
 21 41  1  0
M  END
>  <smiles>  (21) 
O=C(Cc1n[nH]c2ccccc12)NCCN1CCOCC1

>  <score_type>  (21) 
oracle

>  <origin>  (21) 
adg

>  <m_score__min__energy>  (21) 
-7.8899999999999997

>  <m_primary>  (21) 
energy

$$$$
21:0
     RDKit          3D

 42 46  0  0  0  0  0  0  0  0999 V2000
   59.6550   34.5940   49.2380 C   0  0  0  0  0  0  0  0  0  0  0  0
   60.1600   33.9190   48.1050 O   0  0  0  0  0  0  0  0  0  0  0  0
   59.3640   33.6170   47.0210 C   0  0  0  0  0  0  0  0  0  0  0  0
   58.9760   34.6370   46.1920 C   0  0  0  0  0  0  0  0  0  0  0  0
   58.1860   34.4640   45.0800 C   0  0  0  0  0  0  0  0  0  0  0  0
   57.7640   33.1840   44.7950 C   0  0  0  0  0  0  0  0  0  0  0  0
   58.1410   32.1260   45.6200 C   0  0  0  0  0  0  0  0  0  0  0  0
   58.9370   32.3450   46.7250 C   0  0  0  0  0  0  0  0  0  0  0  0
   59.3180   31.3140   47.5390 C   0  0  0  0  0  0  0  0  0  0  0  0
   60.1450   31.4140   48.7420 C   0  0  0  0  0  0  0  0  0  0  0  0
   61.5780   31.7080   48.4660 C   0  0  0  0  0  0  0  0  0  0  0  0
   62.1980   31.3490   47.2900 C   0  0  0  0  0  0  0  0  0  0  0  0
   63.4810   31.7380   47.3210 N   0  0  0  0  0  0  0  0  0  0  0  0
   63.6880   32.3440   48.5110 C   0  0  0  0  0  0  0  0  0  0  0  0
   64.8350   32.9140   49.0210 C   0  0  0  0  0  0  0  0  0  0  0  0
   64.7550   33.4680   50.2810 C   0  0  0  0  0  0  0  0  0  0  0  0
   63.5740   33.4620   51.0220 C   0  0  0  0  0  0  0  0  0  0  0  0
   63.5180   34.1800   52.6190 Cl  0  0  0  0  0  0  0  0  0  0  0  0
   62.4270   32.8930   50.5090 C   0  0  0  0  0  0  0  0  0  0  0  0
   62.5180   32.3400   49.2470 C   0  0  0  0  0  0  0  0  0  0  0  0
   58.8510   30.0440   47.1760 C   0  0  0  0  0  0  0  0  0  0  0  0
   58.0750   29.8570   46.0920 N   0  0  0  0  0  0  0  0  0  0  0  0
   57.5480   28.7090   45.6120 C   0  0  0  0  0  0  0  0  0  0  0  0
   57.7110   27.1950   46.2300 S   0  0  0  0  0  0  0  0  0  0  0  0
   56.8340   29.0150   44.4920 N   0  0  0  0  0  0  0  0  0  0  0  0
   56.9430   30.3300   44.3210 N   0  0  0  0  0  0  0  0  0  0  0  0
   57.6930   30.8690   45.2800 C   0  0  0  0  0  0  0  0  0  0  0  0
   60.0223   34.1030   50.1512 H   0  0  0  0  0  0  0  0  0  0  0  0
   59.9938   35.6404   49.2226 H   0  0  0  0  0  0  0  0  0  0  0  0
   58.5555   34.5643   49.2226 H   0  0  0  0  0  0  0  0  0  0  0  0
   59.3171   35.6552   46.4305 H   0  0  0  0  0  0  0  0  0  0  0  0
   57.9020   35.3145   44.4428 H   0  0  0  0  0  0  0  0  0  0  0  0
   57.1294   32.9970   43.9162 H   0  0  0  0  0  0  0  0  0  0  0  0
   59.7416   32.2192   49.3737 H   0  0  0  0  0  0  0  0  0  0  0  0
   60.1099   30.4319   49.2362 H   0  0  0  0  0  0  0  0  0  0  0  0
   61.7148   30.8235   46.4531 H   0  0  0  0  0  0  0  0  0  0  0  0
   64.1470   31.5740   46.5360 H   0  0  0  0  0  0  0  0  0  0  0  0
   65.7735   32.9263   48.4474 H   0  0  0  0  0  0  0  0  0  0  0  0
   65.6532   33.9303   50.7163 H   0  0  0  0  0  0  0  0  0  0  0  0
   61.4855   32.8804   51.0776 H   0  0  0  0  0  0  0  0  0  0  0  0
   59.1259   29.1761   47.7935 H   0  0  0  0  0  0  0  0  0  0  0  0
   56.3040   28.3770   43.8790 H   0  0  0  0  0  0  0  0  0  0  0  0
  1  2  1  0
  2  3  1  0
  3  4  2  0
  4  5  1  0
  5  6  2  0
  6  7  1  0
  7  8  2  0
  8  9  1  0
  9 10  1  0
 10 11  1  0
 11 12  2  0
 12 13  1  0
 13 14  1  0
 14 15  2  0
 15 16  1  0
 16 17  2  0
 17 18  1  0
 17 19  1  0
 19 20  2  0
  9 21  2  0
 21 22  1  0
 22 23  1  0
 23 24  2  0
 23 25  1  0
 25 26  1  0
 26 27  2  0
  8  3  1  0
 20 11  1  0
 27 22  1  0
 27  7  1  0
 20 14  1  0
  1 28  1  0
  1 29  1  0
  1 30  1  0
  4 31  1  0
  5 32  1  0
  6 33  1  0
 10 34  1  0
 10 35  1  0
 12 36  1  0
 13 37  1  0
 15 38  1  0
 16 39  1  0
 19 40  1  0
 21 41  1  0
 25 42  1  0
M  END
>  <smiles>  (22) 
COc1cccc2c1c(Cc1c[nH]c3ccc(Cl)cc13)cn1c(=S)[nH]nc21

>  <score_type>  (22) 
oracle

>  <origin>  (22) 
adg

>  <m_score__min__energy>  (22) 
-8.4700000000000006

>  <m_primary>  (22) 
energy

$$$$
22:0
     RDKit          3D

 22 23  0  0  0  0  0  0  0  0999 V2000
   60.3410   28.9600   45.7510 Cl  0  0  0  0  0  0  0  0  0  0  0  0
   58.9220   29.9380   45.4060 C   0  0  0  0  0  0  0  0  0  0  0  0
   58.9930   31.2760   45.6270 N   0  0  0  0  0  0  0  0  0  0  0  0
   57.9120   32.0730   45.4430 C   0  0  0  0  0  0  0  0  0  0  0  0
   58.0120   33.5450   45.6930 C   0  0  0  0  0  0  0  0  0  0  0  0
   58.5450   33.8490   47.3650 Cl  0  0  0  0  0  0  0  0  0  0  0  0
   59.1710   34.2800   44.5570 Cl  0  0  0  0  0  0  0  0  0  0  0  0
   56.7340   31.5200   45.0510 N   0  0  0  0  0  0  0  0  0  0  0  0
   56.6350   30.2090   44.8290 N   0  0  0  0  0  0  0  0  0  0  0  0
   57.7020   29.3790   44.9810 C   0  0  0  0  0  0  0  0  0  0  0  0
   57.5290   27.9360   44.7120 C   0  0  0  0  0  0  0  0  0  0  0  0
   57.9080   27.4090   43.4660 C   0  0  0  0  0  0  0  0  0  0  0  0
   57.7740   26.0410   43.2080 C   0  0  0  0  0  0  0  0  0  0  0  0
   57.2750   25.1880   44.1960 C   0  0  0  0  0  0  0  0  0  0  0  0
   56.9170   25.7000   45.4460 C   0  0  0  0  0  0  0  0  0  0  0  0
   57.0480   27.0670   45.7070 C   0  0  0  0  0  0  0  0  0  0  0  0
   57.0196   33.9950   45.5423 H   0  0  0  0  0  0  0  0  0  0  0  0
   58.3120   28.0755   42.6897 H   0  0  0  0  0  0  0  0  0  0  0  0
   58.0616   25.6361   42.2265 H   0  0  0  0  0  0  0  0  0  0  0  0
   57.1640   24.1132   43.9897 H   0  0  0  0  0  0  0  0  0  0  0  0
   56.5316   25.0264   46.2256 H   0  0  0  0  0  0  0  0  0  0  0  0
   56.7735   27.4646   46.6952 H   0  0  0  0  0  0  0  0  0  0  0  0
  1  2  1  0
  2  3  2  0
  3  4  1  0
  4  5  1  0
  5  6  1  0
  5  7  1  0
  4  8  2  0
  8  9  1  0
  9 10  2  0
 10 11  1  0
 11 12  2  0
 12 13  1  0
 13 14  2  0
 14 15  1  0
 15 16  2  0
 10  2  1  0
 16 11  1  0
  5 17  1  0
 12 18  1  0
 13 19  1  0
 14 20  1  0
 15 21  1  0
 16 22  1  0
M  END
>  <UniqueID>  (23) 
17

>  <SMILES>  (23) 
Clc1nc(C(Cl)Cl)nnc1-c1ccccc1

>  <Energy>  (23) 
30.192827658199565

>  <Genealogy>  (23) 
Clc1nc(C(Cl)Cl)nnc1-c1ccccc1 (3D coordinates assigned)
Clc1nc(C(Cl)Cl)nnc1-c1ccccc1 (optimized conformer: 30.192827658199565 kcal/mol)

>  <smiles>  (23) 
Clc1nc(C(Cl)Cl)nnc1-c1ccccc1

>  <score_type>  (23) 
oracle

>  <origin>  (23) 
adg

>  <m_score__min__energy>  (23) 
-6.7199999999999998

>  <m_primary>  (23) 
energy

$$$$
23:0
     RDKit          3D

 28 29  0  0  0  0  0  0  0  0999 V2000
   55.5170   26.2750   46.3160 O   0  0  0  0  0  0  0  0  0  0  0  0
   56.3530   27.0400   45.7660 C   0  0  0  0  0  0  0  0  0  0  0  0
   55.8970   28.2960   45.2480 N   0  0  0  0  0  0  0  0  0  0  0  0
   56.7160   29.4340   44.9460 C   0  0  0  0  0  0  0  0  0  0  0  0
   56.6620   30.0630   43.6900 C   0  0  0  0  0  0  0  0  0  0  0  0
   57.4950   31.1530   43.4120 C   0  0  0  0  0  0  0  0  0  0  0  0
   57.4120   31.9440   41.8480 Cl  0  0  0  0  0  0  0  0  0  0  0  0
   58.3990   31.6060   44.3780 C   0  0  0  0  0  0  0  0  0  0  0  0
   58.4770   30.9640   45.6190 C   0  0  0  0  0  0  0  0  0  0  0  0
   59.6240   31.5230   46.8230 Cl  0  0  0  0  0  0  0  0  0  0  0  0
   57.6450   29.8750   45.8960 C   0  0  0  0  0  0  0  0  0  0  0  0
   57.7710   26.5670   45.5690 C   0  0  1  0  0  0  0  0  0  0  0  0
   58.8100   26.8500   47.1900 Br  0  0  0  0  0  0  0  0  0  0  0  0
   57.7920   25.1160   45.1430 C   0  0  0  0  0  0  0  0  0  0  0  0
   58.7920   24.2560   45.6290 C   0  0  0  0  0  0  0  0  0  0  0  0
   58.8390   22.9190   45.2200 C   0  0  0  0  0  0  0  0  0  0  0  0
   57.8940   22.4310   44.3150 C   0  0  0  0  0  0  0  0  0  0  0  0
   56.9030   23.2790   43.8130 C   0  0  0  0  0  0  0  0  0  0  0  0
   56.8530   24.6160   44.2190 C   0  0  0  0  0  0  0  0  0  0  0  0
   55.9630   29.6975   42.9233 H   0  0  0  0  0  0  0  0  0  0  0  0
   59.0488   32.4670   44.1624 H   0  0  0  0  0  0  0  0  0  0  0  0
   57.7208   29.3618   46.8660 H   0  0  0  0  0  0  0  0  0  0  0  0
   58.2343   27.1571   44.7646 H   0  0  0  0  0  0  0  0  0  0  0  0
   59.5433   24.6372   46.3363 H   0  0  0  0  0  0  0  0  0  0  0  0
   59.6209   22.2516   45.6115 H   0  0  0  0  0  0  0  0  0  0  0  0
   57.9297   21.3786   43.9971 H   0  0  0  0  0  0  0  0  0  0  0  0
   56.1614   22.8941   43.0976 H   0  0  0  0  0  0  0  0  0  0  0  0
   56.0760   25.2815   43.8147 H   0  0  0  0  0  0  0  0  0  0  0  0
  1  2  2  0
  2  3  1  0
  3  4  1  0
  4  5  2  0
  5  6  1  0
  6  7  1  0
  6  8  2  0
  8  9  1  0
  9 10  1  0
  9 11  2  0
  2 12  1  0
 12 13  1  0
 12 14  1  0
 14 15  2  0
 15 16  1  0
 16 17  2  0
 17 18  1  0
 18 19  2  0
 11  4  1  0
 19 14  1  0
  5 20  1  0
  8 21  1  0
 11 22  1  0
 12 23  1  6
 15 24  1  0
 16 25  1  0
 17 26  1  0
 18 27  1  0
 19 28  1  0
M  CHG  1   3  -1
M  END
>  <UniqueID>  (24) 
18

>  <SMILES>  (24) 
O=C([N-]c1cc(Cl)cc(Cl)c1)[C@@H](Br)c1ccccc1

>  <Energy>  (24) 
33.72586072779346

>  <Genealogy>  (24) 
O=C([N-]c1cc(Cl)cc(Cl)c1)C(Br)c1ccccc1 (protonated)
O=C([N-]c1cc(Cl)cc(Cl)c1)[C@@H](Br)c1ccccc1 (chirality)
O=C([N-]c1cc(Cl)cc(Cl)c1)[C@@H](Br)c1ccccc1 (3D coordinates assigned)
O=C([N-]c1cc(Cl)cc(Cl)c1)[C@@H](Br)c1ccccc1 (optimized conformer: 33.72586072779346 kcal/mol)

>  <smiles>  (24) 
O=C(Nc1cc(Cl)cc(Cl)c1)C(Br)c1ccccc1

>  <score_type>  (24) 
oracle

>  <origin>  (24) 
adg

>  <m_score__min__energy>  (24) 
-9.6199999999999992

>  <m_primary>  (24) 
energy

$$$$
24:0
     RDKit          3D

 49 51  0  0  0  0  0  0  0  0999 V2000
   57.9910   27.9210   44.0930 C   0  0  0  0  0  0  0  0  0  0  0  0
   58.4380   28.3990   45.4500 C   0  0  0  0  0  0  0  0  0  0  0  0
   59.0580   29.6540   45.5570 C   0  0  0  0  0  0  0  0  0  0  0  0
   59.4480   30.1650   46.8000 C   0  0  0  0  0  0  0  0  0  0  0  0
   60.0440   31.4370   46.8300 O   0  0  0  0  0  0  0  0  0  0  0  0
   59.6130   32.5540   47.6110 C   0  0  0  0  0  0  0  0  0  0  0  0
   59.8170   33.8810   46.8720 C   0  0  0  0  0  0  0  0  0  0  0  0
   58.5330   34.3920   46.3280 N   0  0  0  0  0  0  0  0  0  0  0  0
   58.5900   34.5890   44.8730 C   0  0  0  0  0  0  0  0  0  0  0  0
   58.1800   33.2830   44.2180 C   0  0  0  0  0  0  0  0  0  0  0  0
   57.3380   32.5700   45.2610 C   0  0  0  0  0  0  0  0  0  0  0  0
   57.4410   33.4230   46.5200 C   0  0  0  0  0  0  0  0  0  0  0  0
   59.2210   29.3950   47.9570 C   0  0  0  0  0  0  0  0  0  0  0  0
   58.6240   28.1370   47.8600 C   0  0  0  0  0  0  0  0  0  0  0  0
   58.2550   27.6160   46.6130 C   0  0  0  0  0  0  0  0  0  0  0  0
   57.6590   26.3110   46.5610 N   0  0  0  0  0  0  0  0  0  0  0  0
   56.2650   26.1100   46.3040 C   0  0  0  0  0  0  0  0  0  0  0  0
   55.5290   27.0860   45.9930 O   0  0  0  0  0  0  0  0  0  0  0  0
   55.7340   24.7790   46.3310 N   0  0  0  0  0  0  0  0  0  0  0  0
   56.0350   23.7260   45.4050 C   0  0  0  0  0  0  0  0  0  0  0  0
   55.9470   23.9930   44.0320 C   0  0  0  0  0  0  0  0  0  0  0  0
   56.2530   22.9990   43.0960 C   0  0  0  0  0  0  0  0  0  0  0  0
   56.6630   21.7350   43.5260 C   0  0  0  0  0  0  0  0  0  0  0  0
   56.9620   20.7730   42.6190 F   0  0  0  0  0  0  0  0  0  0  0  0
   56.7770   21.4660   44.8930 C   0  0  0  0  0  0  0  0  0  0  0  0
   56.4730   22.4570   45.8320 C   0  0  0  0  0  0  0  0  0  0  0  0
   57.2442   27.1224   44.2132 H   0  0  0  0  0  0  0  0  0  0  0  0
   57.5452   28.7593   43.5375 H   0  0  0  0  0  0  0  0  0  0  0  0
   58.8572   27.5324   43.5375 H   0  0  0  0  0  0  0  0  0  0  0  0
   59.2404   30.2460   44.6480 H   0  0  0  0  0  0  0  0  0  0  0  0
   58.5438   32.4358   47.8409 H   0  0  0  0  0  0  0  0  0  0  0  0
   60.2160   32.5798   48.5306 H   0  0  0  0  0  0  0  0  0  0  0  0
   60.2312   34.6220   47.5716 H   0  0  0  0  0  0  0  0  0  0  0  0
   60.5092   33.7118   46.0340 H   0  0  0  0  0  0  0  0  0  0  0  0
   57.8987   35.3913   44.5755 H   0  0  0  0  0  0  0  0  0  0  0  0
   59.6049   34.8763   44.5610 H   0  0  0  0  0  0  0  0  0  0  0  0
   57.5903   33.4742   43.3093 H   0  0  0  0  0  0  0  0  0  0  0  0
   59.0493   32.6845   43.9080 H   0  0  0  0  0  0  0  0  0  0  0  0
   56.2918   32.5003   44.9284 H   0  0  0  0  0  0  0  0  0  0  0  0
   57.6882   31.5418   45.4349 H   0  0  0  0  0  0  0  0  0  0  0  0
   56.4939   33.9569   46.6872 H   0  0  0  0  0  0  0  0  0  0  0  0
   57.6444   32.7881   47.3949 H   0  0  0  0  0  0  0  0  0  0  0  0
   59.5155   29.7867   48.9418 H   0  0  0  0  0  0  0  0  0  0  0  0
   58.4415   27.5490   48.7716 H   0  0  0  0  0  0  0  0  0  0  0  0
   58.2900   25.4790   46.5360 H   0  0  0  0  0  0  0  0  0  0  0  0
   55.6354   24.9903   43.6880 H   0  0  0  0  0  0  0  0  0  0  0  0
   56.1706   23.2133   42.0202 H   0  0  0  0  0  0  0  0  0  0  0  0
   57.1066   20.4725   45.2310 H   0  0  0  0  0  0  0  0  0  0  0  0
   56.5762   22.2450   46.9064 H   0  0  0  0  0  0  0  0  0  0  0  0
  1  2  1  0
  2  3  2  0
  3  4  1  0
  4  5  1  0
  5  6  1  0
  6  7  1  0
  7  8  1  0
  8  9  1  0
  9 10  1  0
 10 11  1  0
 11 12  1  0
  4 13  2  0
 13 14  1  0
 14 15  2  0
 15 16  1  0
 16 17  1  0
 17 18  2  0
 17 19  1  0
 19 20  1  0
 20 21  2  0
 21 22  1  0
 22 23  2  0
 23 24  1  0
 23 25  1  0
 25 26  2  0
 15  2  1  0
 26 20  1  0
 12  8  1  0
  1 27  1  0
  1 28  1  0
  1 29  1  0
  3 30  1  0
  6 31  1  0
  6 32  1  0
  7 33  1  0
  7 34  1  0
  9 35  1  0
  9 36  1  0
 10 37  1  0
 10 38  1  0
 11 39  1  0
 11 40  1  0
 12 41  1  0
 12 42  1  0
 13 43  1  0
 14 44  1  0
 16 45  1  0
 21 46  1  0
 22 47  1  0
 25 48  1  0
 26 49  1  0
M  CHG  1  19  -1
M  END
>  <UniqueID>  (25) 
19

>  <SMILES>  (25) 
Cc1cc(OCCN2CCCC2)ccc1NC(=O)[N-]c1ccc(F)cc1

>  <Energy>  (25) 
62.89390403682213

>  <Genealogy>  (25) 
Cc1cc(OCCN2CCCC2)ccc1NC(=O)[N-]c1ccc(F)cc1 (protonated)
Cc1cc(OCCN2CCCC2)ccc1NC(=O)[N-]c1ccc(F)cc1 (3D coordinates assigned)
Cc1cc(OCCN2CCCC2)ccc1NC(=O)[N-]c1ccc(F)cc1 (nonaromatic ring conformer: 62.89390403682213 kcal/mol)

>  <smiles>  (25) 
Cc1cc(OCCN2CCCC2)ccc1NC(=O)Nc1ccc(F)cc1

>  <score_type>  (25) 
oracle

>  <origin>  (25) 
adg

>  <m_score__min__energy>  (25) 
-9.3399999999999999

>  <m_primary>  (25) 
energy

$$$$
25:0
     RDKit          3D

 39 41  0  0  0  0  0  0  0  0999 V2000
   55.6980   26.8080   45.9640 O   0  0  0  0  0  0  0  0  0  0  0  0
   56.8190   27.2750   45.6290 C   0  0  0  0  0  0  0  0  0  0  0  0
   56.9720   28.6930   45.2570 C   0  0  0  0  0  0  0  0  0  0  0  0
   58.0910   29.4110   45.7020 C   0  0  0  0  0  0  0  0  0  0  0  0
   58.2540   30.7560   45.3580 C   0  0  0  0  0  0  0  0  0  0  0  0
   57.2990   31.4080   44.5560 C   0  0  0  0  0  0  0  0  0  0  0  0
   57.4380   32.7910   44.1770 N   0  0  0  0  0  0  0  0  0  0  0  0
   57.4480   33.9110   45.1190 C   0  0  0  0  0  0  0  0  0  0  0  0
   58.6510   33.8370   46.0220 C   0  0  0  0  0  0  0  0  0  0  0  0
   58.5100   33.4910   47.3740 C   0  0  0  0  0  0  0  0  0  0  0  0
   59.6300   33.4260   48.2080 C   0  0  0  0  0  0  0  0  0  0  0  0
   60.9120   33.7140   47.7060 C   0  0  0  0  0  0  0  0  0  0  0  0
   62.1030   33.6410   48.5900 C   0  0  0  0  0  0  0  0  0  0  0  0
   63.3020   33.0650   48.1310 C   0  0  0  0  0  0  0  0  0  0  0  0
   64.4220   32.9970   48.9650 C   0  0  0  0  0  0  0  0  0  0  0  0
   64.3580   33.5040   50.2650 C   0  0  0  0  0  0  0  0  0  0  0  0
   63.1750   34.0790   50.7330 C   0  0  0  0  0  0  0  0  0  0  0  0
   62.0520   34.1490   49.9030 C   0  0  0  0  0  0  0  0  0  0  0  0
   61.0470   34.0730   46.3530 C   0  0  0  0  0  0  0  0  0  0  0  0
   59.9260   34.1380   45.5210 C   0  0  0  0  0  0  0  0  0  0  0  0
   56.1770   30.6880   44.1180 C   0  0  0  0  0  0  0  0  0  0  0  0
   56.0140   29.3430   44.4620 C   0  0  0  0  0  0  0  0  0  0  0  0
   57.6980   26.6138   45.6139 H   0  0  0  0  0  0  0  0  0  0  0  0
   58.8465   28.9120   46.3267 H   0  0  0  0  0  0  0  0  0  0  0  0
   59.1349   31.3086   45.7167 H   0  0  0  0  0  0  0  0  0  0  0  0
   57.5870   33.0190   43.1670 H   0  0  0  0  0  0  0  0  0  0  0  0
   57.4766   34.8557   44.5563 H   0  0  0  0  0  0  0  0  0  0  0  0
   56.5390   33.8616   45.7365 H   0  0  0  0  0  0  0  0  0  0  0  0
   57.5121   33.2695   47.7804 H   0  0  0  0  0  0  0  0  0  0  0  0
   59.5078   33.1474   49.2651 H   0  0  0  0  0  0  0  0  0  0  0  0
   63.3585   32.6650   47.1078 H   0  0  0  0  0  0  0  0  0  0  0  0
   65.3544   32.5439   48.5971 H   0  0  0  0  0  0  0  0  0  0  0  0
   65.2399   33.4502   50.9202 H   0  0  0  0  0  0  0  0  0  0  0  0
   63.1263   34.4778   51.7570 H   0  0  0  0  0  0  0  0  0  0  0  0
   61.1230   34.6035   50.2775 H   0  0  0  0  0  0  0  0  0  0  0  0
   62.0426   34.3044   45.9465 H   0  0  0  0  0  0  0  0  0  0  0  0
   60.0444   34.4271   44.4663 H   0  0  0  0  0  0  0  0  0  0  0  0
   55.4180   31.1871   43.4976 H   0  0  0  0  0  0  0  0  0  0  0  0
   55.1308   28.7909   44.1082 H   0  0  0  0  0  0  0  0  0  0  0  0
  1  2  2  0
  2  3  1  0
  3  4  2  0
  4  5  1  0
  5  6  2  0
  6  7  1  0
  7  8  1  0
  8  9  1  0
  9 10  2  0
 10 11  1  0
 11 12  2  0
 12 13  1  0
 13 14  2  0
 14 15  1  0
 15 16  2  0
 16 17  1  0
 17 18  2  0
 12 19  1  0
 19 20  2  0
  6 21  1  0
 21 22  2  0
 22  3  1  0
 20  9  1  0
 18 13  1  0
  2 23  1  0
  4 24  1  0
  5 25  1  0
  7 26  1  0
  8 27  1  0
  8 28  1  0
 10 29  1  0
 11 30  1  0
 14 31  1  0
 15 32  1  0
 16 33  1  0
 17 34  1  0
 18 35  1  0
 19 36  1  0
 20 37  1  0
 21 38  1  0
 22 39  1  0
M  END
>  <UniqueID>  (26) 
20

>  <SMILES>  (26) 
O=Cc1ccc(NCc2ccc(-c3ccccc3)cc2)cc1

>  <Energy>  (26) 
46.09453331794022

>  <Genealogy>  (26) 
O=Cc1ccc(NCc2ccc(-c3ccccc3)cc2)cc1 (3D coordinates assigned)
O=Cc1ccc(NCc2ccc(-c3ccccc3)cc2)cc1 (optimized conformer: 46.09453331794022 kcal/mol)

>  <smiles>  (26) 
O=Cc1ccc(NCc2ccc(-c3ccccc3)cc2)cc1

>  <score_type>  (26) 
oracle

>  <origin>  (26) 
adg

>  <m_score__min__energy>  (26) 
-7.9199999999999999

>  <m_primary>  (26) 
energy

$$$$
26:0
     RDKit          3D

 63 65  0  0  0  0  0  0  0  0999 V2000
   64.2690   31.9870   50.0800 C   0  0  0  0  0  0  0  0  0  0  0  0
   64.1360   32.9700   48.9230 C   0  0  0  0  0  0  0  0  0  0  0  0
   62.9060   33.7860   49.1000 N   0  0  0  0  0  0  0  0  0  0  0  0
   62.0940   33.8290   47.8610 C   0  0  0  0  0  0  0  0  0  0  0  0
   62.9800   33.7470   46.6180 C   0  0  0  0  0  0  0  0  0  0  0  0
   62.0890   33.3050   50.2370 C   0  0  0  0  0  0  0  0  0  0  0  0
   60.8280   32.5880   49.7370 C   0  0  0  0  0  0  0  0  0  0  0  0
   61.0640   31.1850   49.6110 O   0  0  0  0  0  0  0  0  0  0  0  0
   60.7950   30.4140   48.4680 C   0  0  0  0  0  0  0  0  0  0  0  0
   60.6940   31.0720   47.2370 C   0  0  0  0  0  0  0  0  0  0  0  0
   60.4190   30.3580   46.0680 C   0  0  0  0  0  0  0  0  0  0  0  0
   60.2430   28.9670   46.1140 C   0  0  0  0  0  0  0  0  0  0  0  0
   59.9190   28.1920   44.8640 C   0  0  0  0  0  0  0  0  0  0  0  0
   58.5320   27.6740   44.9100 N   0  0  0  0  0  0  0  0  0  0  0  0
   57.8340   27.7890   43.6070 C   0  0  0  0  0  0  0  0  0  0  0  0
   57.0120   29.0870   43.4620 C   0  0  0  0  0  0  0  0  0  0  0  0
   57.5490   30.1230   44.3550 N   0  0  0  0  0  0  0  0  0  0  0  0
   57.0630   31.4870   44.0500 C   0  0  0  0  0  0  0  0  0  0  0  0
   57.7520   32.5780   44.8440 C   0  0  0  0  0  0  0  0  0  0  0  0
   58.6480   33.4590   44.2120 C   0  0  0  0  0  0  0  0  0  0  0  0
   59.2820   34.4660   44.9450 C   0  0  0  0  0  0  0  0  0  0  0  0
   59.0210   34.6100   46.3110 C   0  0  0  0  0  0  0  0  0  0  0  0
   59.6370   35.5870   47.0200 F   0  0  0  0  0  0  0  0  0  0  0  0
   58.1200   33.7490   46.9440 C   0  0  0  0  0  0  0  0  0  0  0  0
   57.4850   32.7400   46.2140 C   0  0  0  0  0  0  0  0  0  0  0  0
   57.3930   29.7470   45.7750 C   0  0  0  0  0  0  0  0  0  0  0  0
   57.7330   28.2580   46.0100 C   0  0  0  0  0  0  0  0  0  0  0  0
   60.3390   28.3030   47.3460 C   0  0  0  0  0  0  0  0  0  0  0  0
   60.6110   29.0180   48.5150 C   0  0  0  0  0  0  0  0  0  0  0  0
   64.1954   32.5307   51.0334 H   0  0  0  0  0  0  0  0  0  0  0  0
   63.4637   31.2400   50.0209 H   0  0  0  0  0  0  0  0  0  0  0  0
   65.2438   31.4808   50.0209 H   0  0  0  0  0  0  0  0  0  0  0  0
   65.0144   33.6318   48.9022 H   0  0  0  0  0  0  0  0  0  0  0  0
   64.0716   32.4132   47.9765 H   0  0  0  0  0  0  0  0  0  0  0  0
   61.3948   32.9798   47.8602 H   0  0  0  0  0  0  0  0  0  0  0  0
   61.5454   34.7821   47.8362 H   0  0  0  0  0  0  0  0  0  0  0  0
   64.0322   33.6496   46.9235 H   0  0  0  0  0  0  0  0  0  0  0  0
   62.6899   32.8719   46.0180 H   0  0  0  0  0  0  0  0  0  0  0  0
   62.8554   34.6605   46.0180 H   0  0  0  0  0  0  0  0  0  0  0  0
   62.6865   32.6054   50.8399 H   0  0  0  0  0  0  0  0  0  0  0  0
   61.7852   34.1706   50.8439 H   0  0  0  0  0  0  0  0  0  0  0  0
   60.0097   32.7541   50.4532 H   0  0  0  0  0  0  0  0  0  0  0  0
   60.5579   32.9922   48.7502 H   0  0  0  0  0  0  0  0  0  0  0  0
   60.8325   32.1622   47.1893 H   0  0  0  0  0  0  0  0  0  0  0  0
   60.3402   30.8887   45.1077 H   0  0  0  0  0  0  0  0  0  0  0  0
   60.0282   28.8530   43.9916 H   0  0  0  0  0  0  0  0  0  0  0  0
   60.6108   27.3401   44.7884 H   0  0  0  0  0  0  0  0  0  0  0  0
   58.5866   27.7620   42.8052 H   0  0  0  0  0  0  0  0  0  0  0  0
   57.1266   26.9490   43.5434 H   0  0  0  0  0  0  0  0  0  0  0  0
   57.0668   29.4388   42.4212 H   0  0  0  0  0  0  0  0  0  0  0  0
   55.9651   28.8841   43.7320 H   0  0  0  0  0  0  0  0  0  0  0  0
   57.2272   31.6816   42.9799 H   0  0  0  0  0  0  0  0  0  0  0  0
   55.9988   31.5153   44.3269 H   0  0  0  0  0  0  0  0  0  0  0  0
   58.8507   33.3549   43.1359 H   0  0  0  0  0  0  0  0  0  0  0  0
   59.9877   35.1466   44.4462 H   0  0  0  0  0  0  0  0  0  0  0  0
   57.9104   33.8655   48.0175 H   0  0  0  0  0  0  0  0  0  0  0  0
   56.7720   32.0688   46.7151 H   0  0  0  0  0  0  0  0  0  0  0  0
   58.0664   30.3674   46.3846 H   0  0  0  0  0  0  0  0  0  0  0  0
   56.3432   29.9093   46.0605 H   0  0  0  0  0  0  0  0  0  0  0  0
   58.3055   28.1712   46.9453 H   0  0  0  0  0  0  0  0  0  0  0  0
   56.7837   27.7046   46.0611 H   0  0  0  0  0  0  0  0  0  0  0  0
   60.1993   27.2129   47.3919 H   0  0  0  0  0  0  0  0  0  0  0  0
   60.6818   28.4886   49.4766 H   0  0  0  0  0  0  0  0  0  0  0  0
  1  2  1  0
  2  3  1  0
  3  4  1  0
  4  5  1  0
  3  6  1  0
  6  7  1  0
  7  8  1  0
  8  9  1  0
  9 10  2  0
 10 11  1  0
 11 12  2  0
 12 13  1  0
 13 14  1  0
 14 15  1  0
 15 16  1  0
 16 17  1  0
 17 18  1  0
 18 19  1  0
 19 20  2  0
 20 21  1  0
 21 22  2  0
 22 23  1  0
 22 24  1  0
 24 25  2  0
 17 26  1  0
 26 27  1  0
 12 28  1  0
 28 29  2  0
 29  9  1  0
 27 14  1  0
 25 19  1  0
  1 30  1  0
  1 31  1  0
  1 32  1  0
  2 33  1  0
  2 34  1  0
  4 35  1  0
  4 36  1  0
  5 37  1  0
  5 38  1  0
  5 39  1  0
  6 40  1  0
  6 41  1  0
  7 42  1  0
  7 43  1  0
 10 44  1  0
 11 45  1  0
 13 46  1  0
 13 47  1  0
 15 48  1  0
 15 49  1  0
 16 50  1  0
 16 51  1  0
 18 52  1  0
 18 53  1  0
 20 54  1  0
 21 55  1  0
 24 56  1  0
 25 57  1  0
 26 58  1  0
 26 59  1  0
 27 60  1  0
 27 61  1  0
 28 62  1  0
 29 63  1  0
M  END
>  <UniqueID>  (27) 
21

>  <SMILES>  (27) 
CCN(CC)CCOc1ccc(CN2CCN(Cc3ccc(F)cc3)CC2)cc1

>  <Energy>  (27) 
76.19448790235008

>  <Genealogy>  (27) 
CCN(CC)CCOc1ccc(CN2CCN(Cc3ccc(F)cc3)CC2)cc1 (3D coordinates assigned)
CCN(CC)CCOc1ccc(CN2CCN(Cc3ccc(F)cc3)CC2)cc1 (nonaromatic ring conformer: 76.19448790235008 kcal/mol)

>  <smiles>  (27) 
CCN(CC)CCOc1ccc(CN2CCN(Cc3ccc(F)cc3)CC2)cc1

>  <score_type>  (27) 
oracle

>  <origin>  (27) 
adg

>  <m_score__min__energy>  (27) 
-7.8099999999999996

>  <m_primary>  (27) 
energy

$$$$
27:0
     RDKit          3D

 44 48  0  0  0  0  0  0  0  0999 V2000
   56.4470   19.9160   45.4770 C   0  0  0  0  0  0  0  0  0  0  0  0
   55.9360   19.8930   44.1780 C   0  0  0  0  0  0  0  0  0  0  0  0
   56.0710   21.1050   43.6940 O   0  0  0  0  0  0  0  0  0  0  0  0
   56.6260   21.9050   44.5700 C   0  0  0  0  0  0  0  0  0  0  0  0
   56.9150   23.3210   44.3390 C   0  0  0  0  0  0  0  0  0  0  0  0
   56.9610   24.2890   45.2730 N   0  0  0  0  0  0  0  0  0  0  0  0
   57.2560   25.4760   44.7150 C   0  0  0  0  0  0  0  0  0  0  0  0
   57.4080   26.7330   45.2700 C   0  0  0  0  0  0  0  0  0  0  0  0
   57.7200   27.7650   44.3850 C   0  0  0  0  0  0  0  0  0  0  0  0
   57.9140   29.1360   44.8150 C   0  0  0  0  0  0  0  0  0  0  0  0
   58.0030   30.1730   43.9030 C   0  0  0  0  0  0  0  0  0  0  0  0
   58.1890   31.4610   44.3690 C   0  0  0  0  0  0  0  0  0  0  0  0
   58.2920   31.7800   45.7030 C   0  0  0  0  0  0  0  0  0  0  0  0
   58.4810   33.0870   46.2030 N   0  0  0  0  0  0  0  0  0  0  0  0
   58.1850   34.2280   45.3180 C   0  0  0  0  0  0  0  0  0  0  0  0
   59.2850   35.2590   45.3880 C   0  0  0  0  0  0  0  0  0  0  0  0
   59.6150   35.6090   46.7550 N   0  0  0  0  0  0  0  0  0  0  0  0
   60.0350   34.4650   47.5260 C   0  0  0  0  0  0  0  0  0  0  0  0
   58.9460   33.4140   47.5200 C   0  0  0  0  0  0  0  0  0  0  0  0
   58.1990   30.7380   46.5710 N   0  0  0  0  0  0  0  0  0  0  0  0
   58.0220   29.4950   46.1510 C   0  0  0  0  0  0  0  0  0  0  0  0
   57.8660   27.5200   43.0200 C   0  0  0  0  0  0  0  0  0  0  0  0
   57.7040   26.2710   42.5440 N   0  0  0  0  0  0  0  0  0  0  0  0
   57.3990   25.2270   43.3650 C   0  0  0  0  0  0  0  0  0  0  0  0
   57.1890   23.9060   43.1370 N   0  0  0  0  0  0  0  0  0  0  0  0
   56.8990   21.2130   45.7470 C   0  0  0  0  0  0  0  0  0  0  0  0
   56.4875   19.0620   46.1691 H   0  0  0  0  0  0  0  0  0  0  0  0
   55.5030   19.0248   43.6595 H   0  0  0  0  0  0  0  0  0  0  0  0
   57.2895   26.9095   46.3493 H   0  0  0  0  0  0  0  0  0  0  0  0
   57.9269   29.9753   42.8236 H   0  0  0  0  0  0  0  0  0  0  0  0
   58.2584   32.2753   43.6328 H   0  0  0  0  0  0  0  0  0  0  0  0
   58.0938   33.8675   44.2828 H   0  0  0  0  0  0  0  0  0  0  0  0
   57.2436   34.6935   45.6452 H   0  0  0  0  0  0  0  0  0  0  0  0
   60.1830   34.8540   44.8985 H   0  0  0  0  0  0  0  0  0  0  0  0
   58.9310   36.1685   44.8805 H   0  0  0  0  0  0  0  0  0  0  0  0
   58.7530   35.9950   47.2000 H   0  0  0  0  0  0  0  0  0  0  0  0
   60.9509   34.0442   47.0855 H   0  0  0  0  0  0  0  0  0  0  0  0
   60.2316   34.7780   48.5621 H   0  0  0  0  0  0  0  0  0  0  0  0
   59.3402   32.5000   47.9882 H   0  0  0  0  0  0  0  0  0  0  0  0
   58.0907   33.8276   48.0744 H   0  0  0  0  0  0  0  0  0  0  0  0
   57.9566   28.6986   46.9069 H   0  0  0  0  0  0  0  0  0  0  0  0
   58.1126   28.3442   42.3346 H   0  0  0  0  0  0  0  0  0  0  0  0
   57.2250   23.4090   42.2320 H   0  0  0  0  0  0  0  0  0  0  0  0
   57.3603   21.5948   46.6698 H   0  0  0  0  0  0  0  0  0  0  0  0
  1  2  2  0
  2  3  1  0
  3  4  1  0
  4  5  1  0
  5  6  2  0
  6  7  1  0
  7  8  2  0
  8  9  1  0
  9 10  1  0
 10 11  2  0
 11 12  1  0
 12 13  2  0
 13 14  1  0
 14 15  1  0
 15 16  1  0
 16 17  1  0
 17 18  1  0
 18 19  1  0
 13 20  1  0
 20 21  2  0
  9 22  2  0
 22 23  1  0
 23 24  2  0
 24 25  1  0
  4 26  2  0
 26  1  1  0
 25  5  1  0
 24  7  1  0
 21 10  1  0
 19 14  1  0
  1 27  1  0
  2 28  1  0
  8 29  1  0
 11 30  1  0
 12 31  1  0
 15 32  1  0
 15 33  1  0
 16 34  1  0
 16 35  1  0
 17 36  1  0
 18 37  1  0
 18 38  1  0
 19 39  1  0
 19 40  1  0
 21 41  1  0
 22 42  1  0
 25 43  1  0
 26 44  1  0
M  END
>  <smiles>  (28) 
c1coc(-c2nc3cc(-c4ccc(N5CCNCC5)nc4)cnc3[nH]2)c1

>  <score_type>  (28) 
oracle

>  <origin>  (28) 
adg

>  <m_score__min__energy>  (28) 
-7.9000000000000004

>  <m_primary>  (28) 
energy

$$$$
28:0
     RDKit          3D

 36 37  0  0  0  0  0  0  0  0999 V2000
   55.7310   29.7220   44.8660 O   0  0  0  0  0  0  0  0  0  0  0  0
   56.9240   29.4130   44.6000 C   0  0  0  0  0  0  0  0  0  0  0  0
   57.6060   30.0590   43.5150 N   0  0  0  0  0  0  0  0  0  0  0  0
   57.0230   31.2070   42.8200 C   0  0  0  0  0  0  0  0  0  0  0  0
   57.7660   32.4990   43.1650 C   0  0  0  0  0  0  0  0  0  0  0  0
   57.3500   33.0470   44.8600 S   0  0  0  0  0  0  0  0  0  0  0  0
   59.0370   33.5770   45.3130 C   0  0  0  0  0  0  0  0  0  0  0  0
   59.2460   33.5020   46.8020 C   0  0  0  0  0  0  0  0  0  0  0  0
   59.8140   34.5950   47.4800 C   0  0  0  0  0  0  0  0  0  0  0  0
   59.9920   34.5500   48.8680 C   0  0  0  0  0  0  0  0  0  0  0  0
   59.6110   33.4140   49.5840 C   0  0  0  0  0  0  0  0  0  0  0  0
   59.0600   32.3170   48.9150 C   0  0  0  0  0  0  0  0  0  0  0  0
   58.8780   32.3550   47.5290 C   0  0  0  0  0  0  0  0  0  0  0  0
   58.3370   31.2760   46.9060 F   0  0  0  0  0  0  0  0  0  0  0  0
   57.5930   28.3660   45.3990 C   0  0  0  0  0  0  0  0  0  0  0  0
   58.9800   28.4440   45.6270 C   0  0  0  0  0  0  0  0  0  0  0  0
   59.6330   27.4550   46.3690 C   0  0  0  0  0  0  0  0  0  0  0  0
   58.9140   26.3740   46.8780 C   0  0  0  0  0  0  0  0  0  0  0  0
   57.5400   26.2790   46.6470 C   0  0  0  0  0  0  0  0  0  0  0  0
   56.8760   27.2680   45.9120 C   0  0  0  0  0  0  0  0  0  0  0  0
   55.5500   27.1190   45.6590 F   0  0  0  0  0  0  0  0  0  0  0  0
   58.5190   29.6690   43.1910 H   0  0  0  0  0  0  0  0  0  0  0  0
   57.0829   31.0376   41.7348 H   0  0  0  0  0  0  0  0  0  0  0  0
   55.9756   31.3120   43.1392 H   0  0  0  0  0  0  0  0  0  0  0  0
   58.8496   32.3220   43.0979 H   0  0  0  0  0  0  0  0  0  0  0  0
   57.4641   33.2826   42.4545 H   0  0  0  0  0  0  0  0  0  0  0  0
   59.7659   32.9213   44.8142 H   0  0  0  0  0  0  0  0  0  0  0  0
   59.1738   34.6204   44.9926 H   0  0  0  0  0  0  0  0  0  0  0  0
   60.1199   35.4894   46.9174 H   0  0  0  0  0  0  0  0  0  0  0  0
   60.4321   35.4099   49.3942 H   0  0  0  0  0  0  0  0  0  0  0  0
   59.7444   33.3819   50.6754 H   0  0  0  0  0  0  0  0  0  0  0  0
   58.7684   31.4202   49.4813 H   0  0  0  0  0  0  0  0  0  0  0  0
   59.5540   29.2888   45.2186 H   0  0  0  0  0  0  0  0  0  0  0  0
   60.7152   27.5298   46.5514 H   0  0  0  0  0  0  0  0  0  0  0  0
   59.4289   25.5964   47.4613 H   0  0  0  0  0  0  0  0  0  0  0  0
   56.9764   25.4222   47.0449 H   0  0  0  0  0  0  0  0  0  0  0  0
  1  2  2  0
  2  3  1  0
  3  4  1  0
  4  5  1  0
  5  6  1  0
  6  7  1  0
  7  8  1  0
  8  9  2  0
  9 10  1  0
 10 11  2  0
 11 12  1  0
 12 13  2  0
 13 14  1  0
  2 15  1  0
 15 16  2  0
 16 17  1  0
 17 18  2  0
 18 19  1  0
 19 20  2  0
 20 21  1  0
 13  8  1  0
 20 15  1  0
  3 22  1  0
  4 23  1  0
  4 24  1  0
  5 25  1  0
  5 26  1  0
  7 27  1  0
  7 28  1  0
  9 29  1  0
 10 30  1  0
 11 31  1  0
 12 32  1  0
 16 33  1  0
 17 34  1  0
 18 35  1  0
 19 36  1  0
M  END
>  <UniqueID>  (29) 
22

>  <SMILES>  (29) 
O=C(NCCSCc1ccccc1F)c1ccccc1F

>  <Energy>  (29) 
33.108681619256885

>  <Genealogy>  (29) 
O=C(NCCSCc1ccccc1F)c1ccccc1F (3D coordinates assigned)
O=C(NCCSCc1ccccc1F)c1ccccc1F (optimized conformer: 33.108681619256885 kcal/mol)

>  <smiles>  (29) 
O=C(NCCSCc1ccccc1F)c1ccccc1F

>  <score_type>  (29) 
oracle

>  <origin>  (29) 
adg

>  <m_score__min__energy>  (29) 
-7.6699999999999999

>  <m_primary>  (29) 
energy

$$$$
29:0
     RDKit          3D

 35 36  0  0  0  0  0  0  0  0999 V2000
   58.1720   32.7040   41.1430 C   0  0  0  0  0  0  0  0  0  0  0  0
   57.3470   31.7750   42.0270 C   0  0  0  0  0  0  0  0  0  0  0  0
   57.6290   32.0290   43.4500 N   0  0  0  0  0  0  0  0  0  0  0  0
   58.3320   33.1530   43.7830 C   0  0  0  0  0  0  0  0  0  0  0  0
   58.6010   33.4620   45.1140 C   0  0  0  0  0  0  0  0  0  0  0  0
   59.5250   34.9170   45.4850 Cl  0  0  0  0  0  0  0  0  0  0  0  0
   58.1140   32.6060   46.1080 C   0  0  0  0  0  0  0  0  0  0  0  0
   58.3820   32.9110   47.6990 S   0  0  0  0  0  0  0  0  0  0  0  0
   57.4000   31.5050   45.7500 N   0  0  0  0  0  0  0  0  0  0  0  0
   57.1620   31.2030   44.4440 C   0  0  0  0  0  0  0  0  0  0  0  0
   56.2220   29.7040   44.0740 S   0  0  0  0  0  0  0  0  0  0  0  0
   57.6880   28.6140   43.9270 C   0  0  0  0  0  0  0  0  0  0  0  0
   57.9690   27.8680   45.2340 C   0  0  0  0  0  0  0  0  0  0  0  0
   58.8850   28.6440   46.1450 C   0  0  0  0  0  0  0  0  0  0  0  0
   59.9380   29.4050   45.6100 C   0  0  0  0  0  0  0  0  0  0  0  0
   60.7770   30.1400   46.4520 C   0  0  0  0  0  0  0  0  0  0  0  0
   60.5760   30.1160   47.8350 C   0  0  0  0  0  0  0  0  0  0  0  0
   59.5340   29.3570   48.3770 C   0  0  0  0  0  0  0  0  0  0  0  0
   58.6910   28.6230   47.5370 C   0  0  0  0  0  0  0  0  0  0  0  0
   58.7696   33.3769   41.7755 H   0  0  0  0  0  0  0  0  0  0  0  0
   58.8423   32.1062   40.5079 H   0  0  0  0  0  0  0  0  0  0  0  0
   57.4992   33.2990   40.5079 H   0  0  0  0  0  0  0  0  0  0  0  0
   56.2778   31.9471   41.8339 H   0  0  0  0  0  0  0  0  0  0  0  0
   57.6128   30.7336   41.7929 H   0  0  0  0  0  0  0  0  0  0  0  0
   58.6905   33.8233   42.9879 H   0  0  0  0  0  0  0  0  0  0  0  0
   57.0140   30.8800   46.4920 H   0  0  0  0  0  0  0  0  0  0  0  0
   57.5080   27.8794   43.1283 H   0  0  0  0  0  0  0  0  0  0  0  0
   58.5611   29.2413   43.6943 H   0  0  0  0  0  0  0  0  0  0  0  0
   57.0158   27.6935   45.7546 H   0  0  0  0  0  0  0  0  0  0  0  0
   58.4662   26.9197   44.9821 H   0  0  0  0  0  0  0  0  0  0  0  0
   60.1029   29.4224   44.5226 H   0  0  0  0  0  0  0  0  0  0  0  0
   61.5962   30.7379   46.0260 H   0  0  0  0  0  0  0  0  0  0  0  0
   61.2374   30.6941   48.4970 H   0  0  0  0  0  0  0  0  0  0  0  0
   59.3774   29.3374   49.4656 H   0  0  0  0  0  0  0  0  0  0  0  0
   57.8728   28.0268   47.9672 H   0  0  0  0  0  0  0  0  0  0  0  0
  1  2  1  0
  2  3  1  0
  3  4  1  0
  4  5  2  0
  5  6  1  0
  5  7  1  0
  7  8  2  0
  7  9  1  0
  9 10  2  0
 10 11  1  0
 11 12  1  0
 12 13  1  0
 13 14  1  0
 14 15  2  0
 15 16  1  0
 16 17  2  0
 17 18  1  0
 18 19  2  0
 10  3  1  0
 19 14  1  0
  1 20  1  0
  1 21  1  0
  1 22  1  0
  2 23  1  0
  2 24  1  0
  4 25  1  0
  9 26  1  0
 12 27  1  0
 12 28  1  0
 13 29  1  0
 13 30  1  0
 15 31  1  0
 16 32  1  0
 17 33  1  0
 18 34  1  0
 19 35  1  0
M  CHG  1   9   1
M  END
>  <UniqueID>  (30) 
23

>  <SMILES>  (30) 
CCn1cc(Cl)c(=S)[nH+]c1SCCc1ccccc1

>  <Energy>  (30) 
29.419628794921753

>  <Genealogy>  (30) 
CCn1cc(Cl)c(=S)[nH+]c1SCCc1ccccc1 (protonated)
CCn1cc(Cl)c(=S)[nH+]c1SCCc1ccccc1 (3D coordinates assigned)
CCn1cc(Cl)c(=S)[nH+]c1SCCc1ccccc1 (optimized conformer: 29.419628794921753 kcal/mol)

>  <smiles>  (30) 
CCn1cc(Cl)c(=S)nc1SCCc1ccccc1

>  <score_type>  (30) 
oracle

>  <origin>  (30) 
adg

>  <m_score__min__energy>  (30) 
-5.2800000000000002

>  <m_primary>  (30) 
energy

$$$$
30:0
     RDKit          3D

 39 41  0  0  0  0  0  0  0  0999 V2000
   59.6690   34.6190   45.2480 O   0  0  0  0  0  0  0  0  0  0  0  0
   59.5750   34.1130   46.6610 S   0  0  0  0  0  0  0  0  0  0  0  0
   58.8860   35.1680   47.4800 O   0  0  0  0  0  0  0  0  0  0  0  0
   61.2080   33.8740   47.2840 C   0  0  0  0  0  0  0  0  0  0  0  0
   62.2480   33.4990   46.4200 C   0  0  0  0  0  0  0  0  0  0  0  0
   63.5410   33.3070   46.9150 C   0  0  0  0  0  0  0  0  0  0  0  0
   63.8020   33.4760   48.2780 C   0  0  0  0  0  0  0  0  0  0  0  0
   62.7670   33.8320   49.1460 C   0  0  0  0  0  0  0  0  0  0  0  0
   61.4720   34.0250   48.6540 C   0  0  0  0  0  0  0  0  0  0  0  0
   58.6180   32.6460   46.6930 N   0  0  0  0  0  0  0  0  0  0  0  0
   58.7620   31.8890   47.9520 C   0  0  0  0  0  0  0  0  0  0  0  0
   59.9750   30.9350   47.9730 C   0  0  0  0  0  0  0  0  0  0  0  0
   60.3070   30.3250   46.6040 C   0  0  0  0  0  0  0  0  0  0  0  0
   59.1100   30.3880   45.6610 C   0  0  0  0  0  0  0  0  0  0  0  0
   58.6950   31.8570   45.4350 C   0  0  1  0  0  0  0  0  0  0  0  0
   57.3410   31.9270   44.7050 C   0  0  0  0  0  0  0  0  0  0  0  0
   56.6440   30.7140   44.8790 O   0  0  0  0  0  0  0  0  0  0  0  0
   56.2230   30.3360   43.6080 C   0  0  0  0  0  0  0  0  0  0  0  0
   57.0510   31.1210   42.6390 C   0  0  0  0  0  0  0  0  0  0  0  0
   57.5340   32.2230   43.3380 O   0  0  0  0  0  0  0  0  0  0  0  0
   62.0449   33.3555   45.3485 H   0  0  0  0  0  0  0  0  0  0  0  0
   64.3543   33.0225   46.2312 H   0  0  0  0  0  0  0  0  0  0  0  0
   64.8206   33.3289   48.6663 H   0  0  0  0  0  0  0  0  0  0  0  0
   62.9710   33.9609   50.2192 H   0  0  0  0  0  0  0  0  0  0  0  0
   60.6583   34.2959   49.3428 H   0  0  0  0  0  0  0  0  0  0  0  0
   58.8722   32.6076   48.7775 H   0  0  0  0  0  0  0  0  0  0  0  0
   57.8625   31.2640   48.0534 H   0  0  0  0  0  0  0  0  0  0  0  0
   60.8527   31.4975   48.3241 H   0  0  0  0  0  0  0  0  0  0  0  0
   59.7150   30.1007   48.6410 H   0  0  0  0  0  0  0  0  0  0  0  0
   61.1439   30.8821   46.1576 H   0  0  0  0  0  0  0  0  0  0  0  0
   60.5756   29.2686   46.7519 H   0  0  0  0  0  0  0  0  0  0  0  0
   59.3812   29.9333   44.6968 H   0  0  0  0  0  0  0  0  0  0  0  0
   58.2681   29.8389   46.1079 H   0  0  0  0  0  0  0  0  0  0  0  0
   59.4857   32.3059   44.8159 H   0  0  0  0  0  0  0  0  0  0  0  0
   56.7343   32.7369   45.1362 H   0  0  0  0  0  0  0  0  0  0  0  0
   56.3827   29.2579   43.4591 H   0  0  0  0  0  0  0  0  0  0  0  0
   55.1500   30.5333   43.4677 H   0  0  0  0  0  0  0  0  0  0  0  0
   57.8867   30.5087   42.2693 H   0  0  0  0  0  0  0  0  0  0  0  0
   56.4572   31.4310   41.7665 H   0  0  0  0  0  0  0  0  0  0  0  0
  1  2  2  0
  2  3  2  0
  2  4  1  0
  4  5  2  0
  5  6  1  0
  6  7  2  0
  7  8  1  0
  8  9  2  0
  2 10  1  0
 10 11  1  0
 11 12  1  0
 12 13  1  0
 13 14  1  0
 14 15  1  0
 15 16  1  0
 16 17  1  0
 17 18  1  0
 18 19  1  0
 19 20  1  0
  9  4  1  0
 15 10  1  0
 20 16  1  0
  5 21  1  0
  6 22  1  0
  7 23  1  0
  8 24  1  0
  9 25  1  0
 11 26  1  0
 11 27  1  0
 12 28  1  0
 12 29  1  0
 13 30  1  0
 13 31  1  0
 14 32  1  0
 14 33  1  0
 15 34  1  6
 16 35  1  0
 18 36  1  0
 18 37  1  0
 19 38  1  0
 19 39  1  0
M  END
>  <UniqueID>  (31) 
24

>  <SMILES>  (31) 
O=S(=O)(c1ccccc1)N1CCCC[C@H]1C1OCCO1

>  <Energy>  (31) 
40.943250932992704

>  <Genealogy>  (31) 
O=S(=O)(c1ccccc1)N1CCCC[C@H]1C1OCCO1 (chirality)
O=S(=O)(c1ccccc1)N1CCCC[C@H]1C1OCCO1 (3D coordinates assigned)
O=S(=O)(c1ccccc1)N1CCCC[C@H]1C1OCCO1 (nonaromatic ring conformer: 40.943250932992704 kcal/mol)

>  <smiles>  (31) 
O=S(=O)(c1ccccc1)N1CCCCC1C1OCCO1

>  <score_type>  (31) 
oracle

>  <origin>  (31) 
adg

>  <m_score__min__energy>  (31) 
-7.9800000000000004

>  <m_primary>  (31) 
energy

$$$$
31:0
     RDKit          3D

 28 29  0  0  0  0  0  0  0  0999 V2000
   55.5210   29.0420   44.9300 O   0  0  0  0  0  0  0  0  0  0  0  0
   56.4700   29.7980   44.5930 C   0  0  0  0  0  0  0  0  0  0  0  0
   57.8300   29.1990   44.3420 C   0  0  0  0  0  0  0  0  0  0  0  0
   58.6810   29.2430   45.5860 C   0  0  0  0  0  0  0  0  0  0  0  0
   59.8180   30.0670   45.6340 C   0  0  0  0  0  0  0  0  0  0  0  0
   60.6290   30.0810   46.7720 C   0  0  0  0  0  0  0  0  0  0  0  0
   60.3120   29.2770   47.8710 C   0  0  0  0  0  0  0  0  0  0  0  0
   59.1770   28.4620   47.8340 C   0  0  0  0  0  0  0  0  0  0  0  0
   58.3620   28.4450   46.6990 C   0  0  0  0  0  0  0  0  0  0  0  0
   56.2390   31.2110   44.5270 N   0  0  0  0  0  0  0  0  0  0  0  0
   57.2020   32.2200   44.8500 C   0  0  0  0  0  0  0  0  0  0  0  0
   57.4000   32.6200   46.1810 C   0  0  0  0  0  0  0  0  0  0  0  0
   58.3420   33.6070   46.4870 C   0  0  0  0  0  0  0  0  0  0  0  0
   59.1010   34.1900   45.4700 C   0  0  0  0  0  0  0  0  0  0  0  0
   58.9270   33.7810   44.1460 C   0  0  0  0  0  0  0  0  0  0  0  0
   57.9860   32.7930   43.8320 C   0  0  0  0  0  0  0  0  0  0  0  0
   57.7690   32.3130   42.1550 Cl  0  0  0  0  0  0  0  0  0  0  0  0
   57.7088   28.1522   44.0266 H   0  0  0  0  0  0  0  0  0  0  0  0
   58.3298   29.7844   43.5561 H   0  0  0  0  0  0  0  0  0  0  0  0
   60.0707   30.7032   44.7730 H   0  0  0  0  0  0  0  0  0  0  0  0
   61.5192   30.7264   46.8032 H   0  0  0  0  0  0  0  0  0  0  0  0
   60.9549   29.2858   48.7635 H   0  0  0  0  0  0  0  0  0  0  0  0
   58.9248   27.8326   48.7002 H   0  0  0  0  0  0  0  0  0  0  0  0
   57.4676   27.8050   46.6761 H   0  0  0  0  0  0  0  0  0  0  0  0
   56.8120   32.1553   46.9861 H   0  0  0  0  0  0  0  0  0  0  0  0
   58.4854   33.9247   47.5303 H   0  0  0  0  0  0  0  0  0  0  0  0
   59.8362   34.9717   45.7118 H   0  0  0  0  0  0  0  0  0  0  0  0
   59.5311   34.2365   43.3475 H   0  0  0  0  0  0  0  0  0  0  0  0
  1  2  2  0
  2  3  1  0
  3  4  1  0
  4  5  2  0
  5  6  1  0
  6  7  2  0
  7  8  1  0
  8  9  2  0
  2 10  1  0
 10 11  1  0
 11 12  2  0
 12 13  1  0
 13 14  2  0
 14 15  1  0
 15 16  2  0
 16 17  1  0
  9  4  1  0
 16 11  1  0
  3 18  1  0
  3 19  1  0
  5 20  1  0
  6 21  1  0
  7 22  1  0
  8 23  1  0
  9 24  1  0
 12 25  1  0
 13 26  1  0
 14 27  1  0
 15 28  1  0
M  CHG  1  10  -1
M  END
>  <UniqueID>  (32) 
25

>  <SMILES>  (32) 
O=C(Cc1ccccc1)[N-]c1ccccc1Cl

>  <Energy>  (32) 
31.695450067196855

>  <Genealogy>  (32) 
O=C(Cc1ccccc1)[N-]c1ccccc1Cl (protonated)
O=C(Cc1ccccc1)[N-]c1ccccc1Cl (3D coordinates assigned)
O=C(Cc1ccccc1)[N-]c1ccccc1Cl (optimized conformer: 31.695450067196855 kcal/mol)

>  <smiles>  (32) 
O=C(Cc1ccccc1)Nc1ccccc1Cl

>  <score_type>  (32) 
oracle

>  <origin>  (32) 
adg

>  <m_score__min__energy>  (32) 
-8.6400000000000006

>  <m_primary>  (32) 
energy

$$$$
32:0
     RDKit          3D

 70 69  0  0  0  0  0  0  0  0999 V2000
   57.4132   34.3765   43.9472 H   0  0  0  0  0  0  0  0  0  0  0  0
   57.8390   33.9600   44.8720 C   0  0  0  0  0  0  0  0  0  0  0  0
   58.9570   34.5050   45.3760 C   0  0  0  0  0  0  0  0  0  0  0  0
   59.3528   35.4321   44.9357 H   0  0  0  0  0  0  0  0  0  0  0  0
   59.6790   33.8680   46.5350 C   0  0  0  0  0  0  0  0  0  0  0  0
   59.3622   32.8170   46.6064 H   0  0  0  0  0  0  0  0  0  0  0  0
   61.1910   33.9020   46.3110 C   0  0  0  0  0  0  0  0  0  0  0  0
   61.7055   33.9136   47.2832 H   0  0  0  0  0  0  0  0  0  0  0  0
   61.4979   33.0105   45.7443 H   0  0  0  0  0  0  0  0  0  0  0  0
   61.4575   34.8064   45.7443 H   0  0  0  0  0  0  0  0  0  0  0  0
   59.3180   34.5780   47.8420 C   0  0  0  0  0  0  0  0  0  0  0  0
   59.6329   33.9587   48.6948 H   0  0  0  0  0  0  0  0  0  0  0  0
   59.8314   35.5499   47.8853 H   0  0  0  0  0  0  0  0  0  0  0  0
   58.2302   34.7357   47.8853 H   0  0  0  0  0  0  0  0  0  0  0  0
   57.1450   32.7890   45.5370 C   0  0  0  0  0  0  0  0  0  0  0  0
   56.0578   32.9295   45.4463 H   0  0  0  0  0  0  0  0  0  0  0  0
   57.4727   32.7680   46.5868 H   0  0  0  0  0  0  0  0  0  0  0  0
   57.5030   31.4800   44.9370 N   0  0  0  0  0  0  0  0  0  0  0  0
   57.3670   31.4330   43.4610 C   0  0  0  0  0  0  0  0  0  0  0  0
   56.7101   32.2547   43.1396 H   0  0  0  0  0  0  0  0  0  0  0  0
   58.3728   31.5304   43.0264 H   0  0  0  0  0  0  0  0  0  0  0  0
   56.7700   30.1030   42.9740 C   0  0  0  0  0  0  0  0  0  0  0  0
   56.5850   30.1713   41.8918 H   0  0  0  0  0  0  0  0  0  0  0  0
   57.4885   29.3024   43.2037 H   0  0  0  0  0  0  0  0  0  0  0  0
   55.4500   29.7750   43.6830 C   0  0  0  0  0  0  0  0  0  0  0  0
   54.8517   30.6937   43.7728 H   0  0  0  0  0  0  0  0  0  0  0  0
   54.9109   29.0213   43.0902 H   0  0  0  0  0  0  0  0  0  0  0  0
   55.6950   29.2310   45.0180 N   0  0  0  0  0  0  0  0  0  0  0  0
   54.7710   28.9690   45.4300 H   0  0  0  0  0  0  0  0  0  0  0  0
   56.0820   29.9950   45.6190 H   0  0  0  0  0  0  0  0  0  0  0  0
   58.7160   30.8480   45.5100 C   0  0  0  0  0  0  0  0  0  0  0  0
   59.4736   31.6314   45.6594 H   0  0  0  0  0  0  0  0  0  0  0  0
   59.0328   30.0740   44.7954 H   0  0  0  0  0  0  0  0  0  0  0  0
   58.4890   30.1340   46.8580 C   0  0  0  0  0  0  0  0  0  0  0  0
   57.8514   29.2524   46.6959 H   0  0  0  0  0  0  0  0  0  0  0  0
   58.0033   30.8367   47.5510 H   0  0  0  0  0  0  0  0  0  0  0  0
   59.8320   29.6810   47.4740 C   0  0  0  0  0  0  0  0  0  0  0  0
   60.6141   29.8023   46.7101 H   0  0  0  0  0  0  0  0  0  0  0  0
   59.6838   28.6385   47.7923 H   0  0  0  0  0  0  0  0  0  0  0  0
   60.2610   30.4300   48.6980 N   0  0  0  0  0  0  0  0  0  0  0  0
   60.7030   29.4440   49.7260 C   0  0  0  0  0  0  0  0  0  0  0  0
   60.5193   29.8539   50.7301 H   0  0  0  0  0  0  0  0  0  0  0  0
   60.1383   28.5081   49.6031 H   0  0  0  0  0  0  0  0  0  0  0  0
   61.7774   29.2428   49.6031 H   0  0  0  0  0  0  0  0  0  0  0  0
   59.1010   31.1600   49.2750 C   0  0  0  0  0  0  0  0  0  0  0  0
   59.1556   31.1257   50.3731 H   0  0  0  0  0  0  0  0  0  0  0  0
   59.1231   32.2073   48.9394 H   0  0  0  0  0  0  0  0  0  0  0  0
   58.1663   30.6870   48.9394 H   0  0  0  0  0  0  0  0  0  0  0  0
   61.3580   31.4180   48.4340 C   0  0  0  0  0  0  0  0  0  0  0  0
   60.8958   32.3964   48.2365 H   0  0  0  0  0  0  0  0  0  0  0  0
   61.9278   31.0237   47.5797 H   0  0  0  0  0  0  0  0  0  0  0  0
   62.3840   31.5930   49.6000 C   0  0  0  0  0  0  0  0  0  0  0  0
   62.7815   30.5997   49.8557 H   0  0  0  0  0  0  0  0  0  0  0  0
   61.8325   32.0703   50.4234 H   0  0  0  0  0  0  0  0  0  0  0  0
   63.5460   32.4950   49.2980 N   0  0  0  0  0  0  0  0  0  0  0  0
   63.1900   33.8500   49.7910 C   0  0  0  0  0  0  0  0  0  0  0  0
   63.1896   33.8516   50.8910 H   0  0  0  0  0  0  0  0  0  0  0  0
   63.9270   34.5792   49.4236 H   0  0  0  0  0  0  0  0  0  0  0  0
   62.1897   34.1228   49.4236 H   0  0  0  0  0  0  0  0  0  0  0  0
   63.7600   32.5680   47.8230 C   0  0  0  0  0  0  0  0  0  0  0  0
   64.7828   32.9169   47.6177 H   0  0  0  0  0  0  0  0  0  0  0  0
   63.6175   31.5704   47.3820 H   0  0  0  0  0  0  0  0  0  0  0  0
   63.0375   33.2705   47.3820 H   0  0  0  0  0  0  0  0  0  0  0  0
   64.7790   32.0020   49.9970 C   0  0  0  0  0  0  0  0  0  0  0  0
   65.1468   31.1168   49.4575 H   0  0  0  0  0  0  0  0  0  0  0  0
   64.4808   31.7873   51.0338 H   0  0  0  0  0  0  0  0  0  0  0  0
   65.9290   33.0230   50.0810 C   0  0  0  0  0  0  0  0  0  0  0  0
   66.1605   33.2285   51.1365 H   0  0  0  0  0  0  0  0  0  0  0  0
   66.8202   32.6132   49.5832 H   0  0  0  0  0  0  0  0  0  0  0  0
   65.6276   33.9565   49.5832 H   0  0  0  0  0  0  0  0  0  0  0  0
  1  2  1  0
  2  3  2  0
  3  4  1  0
  3  5  1  0
  5  6  1  0
  5  7  1  0
  7  8  1  0
  7  9  1  0
  7 10  1  0
  5 11  1  0
 11 12  1  0
 11 13  1  0
 11 14  1  0
  2 15  1  0
 15 16  1  0
 15 17  1  0
 15 18  1  0
 18 19  1  0
 19 20  1  0
 19 21  1  0
 19 22  1  0
 22 23  1  0
 22 24  1  0
 22 25  1  0
 25 26  1  0
 25 27  1  0
 25 28  1  0
 28 29  1  0
 28 30  1  0
 18 31  1  0
 31 32  1  0
 31 33  1  0
 31 34  1  0
 34 35  1  0
 34 36  1  0
 34 37  1  0
 37 38  1  0
 37 39  1  0
 37 40  1  0
 40 41  1  0
 41 42  1  0
 41 43  1  0
 41 44  1  0
 40 45  1  0
 45 46  1  0
 45 47  1  0
 45 48  1  0
 40 49  1  0
 49 50  1  0
 49 51  1  0
 49 52  1  0
 52 53  1  0
 52 54  1  0
 52 55  1  0
 55 56  1  0
 56 57  1  0
 56 58  1  0
 56 59  1  0
 55 60  1  0
 60 61  1  0
 60 62  1  0
 60 63  1  0
 55 64  1  0
 64 65  1  0
 64 66  1  0
 64 67  1  0
 67 68  1  0
 67 69  1  0
 67 70  1  0
M  CHG  2  40   1  55   1
M  END
>  <UniqueID>  (33) 
26

>  <SMILES>  (33) 
CC[N+](C)(C)CC[N+](C)(C)CCCN(C/C=C/C(C)C)CCCN

>  <Energy>  (33) 
77.0338274739949

>  <Genealogy>  (33) 
CC[N+](C)(C)CC[N+](C)(C)CCCN(C/C=C/C(C)C)CCCN (cis-trans isomerization)
CC[N+](C)(C)CC[N+](C)(C)CCCN(C/C=C/C(C)C)CCCN (3D coordinates assigned)
CC[N+](C)(C)CC[N+](C)(C)CCCN(C/C=C/C(C)C)CCCN (optimized conformer: 77.0338274739949 kcal/mol)

>  <smiles>  (33) 
CC[N+](C)(C)CC[N+](C)(C)CCCN(CC=CC(C)C)CCCN

>  <score_type>  (33) 
oracle

>  <origin>  (33) 
adg

>  <m_score__min__energy>  (33) 
-4.04

>  <m_primary>  (33) 
energy

$$$$
33:0
     RDKit          3D

 55 58  0  0  0  0  0  0  0  0999 V2000
   60.6350   26.7530   48.6090 C   0  0  0  0  0  0  0  0  0  0  0  0
   59.8210   27.0960   47.3960 C   0  0  0  0  0  0  0  0  0  0  0  0
   60.4600   27.4800   46.2100 C   0  0  0  0  0  0  0  0  0  0  0  0
   59.7060   27.8720   45.1020 C   0  0  0  0  0  0  0  0  0  0  0  0
   58.3090   27.9160   45.1730 C   0  0  0  0  0  0  0  0  0  0  0  0
   57.5750   28.4320   44.0470 N   0  0  0  0  0  0  0  0  0  0  0  0
   56.6890   29.9230   44.0660 S   0  0  0  0  0  0  0  0  0  0  0  0
   56.3220   30.3000   42.6580 O   0  0  0  0  0  0  0  0  0  0  0  0
   55.4350   29.7360   44.8740 O   0  0  0  0  0  0  0  0  0  0  0  0
   57.6890   31.2030   44.7530 C   0  0  0  0  0  0  0  0  0  0  0  0
   57.4050   32.5490   44.4910 C   0  0  0  0  0  0  0  0  0  0  0  0
   58.1060   33.5590   45.1550 C   0  0  0  0  0  0  0  0  0  0  0  0
   59.1050   33.2370   46.0940 C   0  0  0  0  0  0  0  0  0  0  0  0
   59.7700   34.3130   46.8710 C   0  0  0  0  0  0  0  0  0  0  0  0
   59.1740   35.4150   47.0470 O   0  0  0  0  0  0  0  0  0  0  0  0
   61.0600   34.1140   47.4710 N   0  0  0  0  0  0  0  0  0  0  0  0
   62.2280   33.8410   46.6230 C   0  0  0  0  0  0  0  0  0  0  0  0
   63.1830   32.8650   47.3230 C   0  0  0  0  0  0  0  0  0  0  0  0
   63.3050   33.1600   48.7600 N   0  0  0  0  0  0  0  0  0  0  0  0
   63.9050   32.1890   49.6290 C   0  0  0  0  0  0  0  0  0  0  0  0
   63.1000   31.3250   50.3860 C   0  0  0  0  0  0  0  0  0  0  0  0
   63.6990   30.4060   51.2480 C   0  0  0  0  0  0  0  0  0  0  0  0
   65.0900   30.3570   51.3530 C   0  0  0  0  0  0  0  0  0  0  0  0
   65.8650   31.2380   50.5910 C   0  0  0  0  0  0  0  0  0  0  0  0
   65.2640   32.1280   49.7520 N   0  0  0  0  0  0  0  0  0  0  0  0
   62.7020   34.3740   49.3160 C   0  0  0  0  0  0  0  0  0  0  0  0
   61.2360   34.4690   48.8880 C   0  0  0  0  0  0  0  0  0  0  0  0
   59.4070   31.8830   46.3290 C   0  0  0  0  0  0  0  0  0  0  0  0
   58.7100   30.8750   45.6550 C   0  0  0  0  0  0  0  0  0  0  0  0
   57.6670   27.5010   46.3510 C   0  0  0  0  0  0  0  0  0  0  0  0
   58.4190   27.1060   47.4590 C   0  0  0  0  0  0  0  0  0  0  0  0
   60.0613   26.9947   49.5159 H   0  0  0  0  0  0  0  0  0  0  0  0
   60.8714   25.6787   48.6002 H   0  0  0  0  0  0  0  0  0  0  0  0
   61.5690   27.3341   48.6002 H   0  0  0  0  0  0  0  0  0  0  0  0
   61.5584   27.4727   46.1514 H   0  0  0  0  0  0  0  0  0  0  0  0
   60.2139   28.1483   44.1662 H   0  0  0  0  0  0  0  0  0  0  0  0
   56.6268   32.8123   43.7595 H   0  0  0  0  0  0  0  0  0  0  0  0
   57.8759   34.6135   44.9427 H   0  0  0  0  0  0  0  0  0  0  0  0
   61.8909   33.3995   45.6735 H   0  0  0  0  0  0  0  0  0  0  0  0
   62.7595   34.7854   46.4341 H   0  0  0  0  0  0  0  0  0  0  0  0
   62.7996   31.8413   47.2004 H   0  0  0  0  0  0  0  0  0  0  0  0
   64.1777   32.9705   46.8653 H   0  0  0  0  0  0  0  0  0  0  0  0
   62.0043   31.3717   50.3006 H   0  0  0  0  0  0  0  0  0  0  0  0
   63.0767   29.7218   51.8434 H   0  0  0  0  0  0  0  0  0  0  0  0
   65.5716   29.6337   52.0274 H   0  0  0  0  0  0  0  0  0  0  0  0
   66.9619   31.2122   50.6693 H   0  0  0  0  0  0  0  0  0  0  0  0
   65.8660   32.7850   49.2070 H   0  0  0  0  0  0  0  0  0  0  0  0
   62.7602   34.3405   50.4140 H   0  0  0  0  0  0  0  0  0  0  0  0
   63.2467   35.2535   48.9420 H   0  0  0  0  0  0  0  0  0  0  0  0
   60.6390   33.7812   49.5049 H   0  0  0  0  0  0  0  0  0  0  0  0
   60.9048   35.5089   49.0252 H   0  0  0  0  0  0  0  0  0  0  0  0
   60.1961   31.6156   47.0472 H   0  0  0  0  0  0  0  0  0  0  0  0
   58.9645   29.8199   45.8338 H   0  0  0  0  0  0  0  0  0  0  0  0
   56.5682   27.4871   46.4009 H   0  0  0  0  0  0  0  0  0  0  0  0
   57.9104   26.8013   48.3855 H   0  0  0  0  0  0  0  0  0  0  0  0
  1  2  1  0
  2  3  2  0
  3  4  1  0
  4  5  2  0
  5  6  1  0
  6  7  1  0
  7  8  2  0
  7  9  2  0
  7 10  1  0
 10 11  2  0
 11 12  1  0
 12 13  2  0
 13 14  1  0
 14 15  2  0
 14 16  1  0
 16 17  1  0
 17 18  1  0
 18 19  1  0
 19 20  1  0
 20 21  2  0
 21 22  1  0
 22 23  2  0
 23 24  1  0
 24 25  2  0
 19 26  1  0
 26 27  1  0
 13 28  1  0
 28 29  2  0
  5 30  1  0
 30 31  2  0
 31  2  1  0
 29 10  1  0
 27 16  1  0
 25 20  1  0
  1 32  1  0
  1 33  1  0
  1 34  1  0
  3 35  1  0
  4 36  1  0
 11 37  1  0
 12 38  1  0
 17 39  1  0
 17 40  1  0
 18 41  1  0
 18 42  1  0
 21 43  1  0
 22 44  1  0
 23 45  1  0
 24 46  1  0
 25 47  1  0
 26 48  1  0
 26 49  1  0
 27 50  1  0
 27 51  1  0
 28 52  1  0
 29 53  1  0
 30 54  1  0
 31 55  1  0
M  CHG  2   6  -1  25   1
M  END
>  <UniqueID>  (34) 
27

>  <SMILES>  (34) 
Cc1ccc([N-]S(=O)(=O)c2ccc(C(=O)N3CCN(c4cccc[nH+]4)CC3)cc2)cc1

>  <Energy>  (34) 
72.01106862241781

>  <Genealogy>  (34) 
Cc1ccc([N-]S(=O)(=O)c2ccc(C(=O)N3CCN(c4cccc[nH+]4)CC3)cc2)cc1 (protonated)
Cc1ccc([N-]S(=O)(=O)c2ccc(C(=O)N3CCN(c4cccc[nH+]4)CC3)cc2)cc1 (3D coordinates assigned)
Cc1ccc([N-]S(=O)(=O)c2ccc(C(=O)N3CCN(c4cccc[nH+]4)CC3)cc2)cc1 (nonaromatic ring conformer: 72.01106862241781 kcal/mol)

>  <smiles>  (34) 
Cc1ccc(NS(=O)(=O)c2ccc(C(=O)N3CCN(c4ccccn4)CC3)cc2)cc1

>  <score_type>  (34) 
oracle

>  <origin>  (34) 
adg

>  <m_score__min__energy>  (34) 
-10

>  <m_primary>  (34) 
energy

$$$$
34:0
     RDKit          3D

 47 50  0  0  0  0  0  0  0  0999 V2000
   63.0410   32.0500   48.9800 C   0  0  0  0  0  0  0  0  0  0  0  0
   62.1220   30.9570   49.5120 C   0  0  0  0  0  0  0  0  0  0  0  0
   61.1600   30.4770   48.4550 C   0  0  0  0  0  0  0  0  0  0  0  0
   61.2220   30.9950   47.1530 C   0  0  0  0  0  0  0  0  0  0  0  0
   60.4110   30.4660   46.1450 C   0  0  0  0  0  0  0  0  0  0  0  0
   59.5140   29.4240   46.4240 C   0  0  0  0  0  0  0  0  0  0  0  0
   58.7990   28.7180   45.3000 C   0  0  0  0  0  0  0  0  0  0  0  0
   57.4540   29.2580   45.0880 N   0  0  0  0  0  0  0  0  0  0  0  0
   57.0790   30.4590   44.5950 C   0  0  0  0  0  0  0  0  0  0  0  0
   58.0080   31.5820   44.2180 C   0  0  0  0  0  0  0  0  0  0  0  0
   57.3930   32.9520   44.5240 C   0  0  0  0  0  0  0  0  0  0  0  0
   58.2910   33.7720   45.4050 C   0  0  0  0  0  0  0  0  0  0  0  0
   59.0680   34.8540   45.0030 C   0  0  0  0  0  0  0  0  0  0  0  0
   59.8060   35.3120   46.0380 N   0  0  0  0  0  0  0  0  0  0  0  0
   59.5190   34.5180   47.0830 C   0  0  0  0  0  0  0  0  0  0  0  0
   60.0600   34.5810   48.3670 C   0  0  0  0  0  0  0  0  0  0  0  0
   59.6340   33.6290   49.3080 C   0  0  0  0  0  0  0  0  0  0  0  0
   58.6740   32.6550   48.9560 C   0  0  0  0  0  0  0  0  0  0  0  0
   58.1400   32.6200   47.6560 C   0  0  0  0  0  0  0  0  0  0  0  0
   58.5970   33.5650   46.7370 C   0  0  0  0  0  0  0  0  0  0  0  0
   55.7380   30.5310   44.4520 N   0  0  0  0  0  0  0  0  0  0  0  0
   55.2320   29.3790   44.8680 N   0  0  0  0  0  0  0  0  0  0  0  0
   56.2770   28.6230   45.2450 C   0  0  0  0  0  0  0  0  0  0  0  0
   56.1600   27.4470   45.6790 O   0  0  0  0  0  0  0  0  0  0  0  0
   59.4090   28.9510   47.7440 C   0  0  0  0  0  0  0  0  0  0  0  0
   60.2200   29.4790   48.7520 C   0  0  0  0  0  0  0  0  0  0  0  0
   63.4951   32.5901   49.8238 H   0  0  0  0  0  0  0  0  0  0  0  0
   63.8331   31.5964   48.3661 H   0  0  0  0  0  0  0  0  0  0  0  0
   62.4582   32.7524   48.3661 H   0  0  0  0  0  0  0  0  0  0  0  0
   62.7350   30.1080   49.8488 H   0  0  0  0  0  0  0  0  0  0  0  0
   61.5374   31.3746   50.3450 H   0  0  0  0  0  0  0  0  0  0  0  0
   61.9116   31.8209   46.9243 H   0  0  0  0  0  0  0  0  0  0  0  0
   60.4766   30.8702   45.1241 H   0  0  0  0  0  0  0  0  0  0  0  0
   59.3817   28.8398   44.3750 H   0  0  0  0  0  0  0  0  0  0  0  0
   58.7029   27.6558   45.5691 H   0  0  0  0  0  0  0  0  0  0  0  0
   58.9441   31.4764   44.7859 H   0  0  0  0  0  0  0  0  0  0  0  0
   58.1955   31.5238   43.1357 H   0  0  0  0  0  0  0  0  0  0  0  0
   57.2305   33.4904   43.5786 H   0  0  0  0  0  0  0  0  0  0  0  0
   56.4411   32.7937   45.0520 H   0  0  0  0  0  0  0  0  0  0  0  0
   59.0798   35.2763   43.9874 H   0  0  0  0  0  0  0  0  0  0  0  0
   60.4720   36.1150   46.0190 H   0  0  0  0  0  0  0  0  0  0  0  0
   60.7974   35.3522   48.6345 H   0  0  0  0  0  0  0  0  0  0  0  0
   60.0510   33.6423   50.3258 H   0  0  0  0  0  0  0  0  0  0  0  0
   58.3421   31.9193   49.7034 H   0  0  0  0  0  0  0  0  0  0  0  0
   57.3857   31.8712   47.3724 H   0  0  0  0  0  0  0  0  0  0  0  0
   58.6835   28.1600   47.9848 H   0  0  0  0  0  0  0  0  0  0  0  0
   60.1208   29.1102   49.7836 H   0  0  0  0  0  0  0  0  0  0  0  0
  1  2  1  0
  2  3  1  0
  3  4  2  0
  4  5  1  0
  5  6  2  0
  6  7  1  0
  7  8  1  0
  8  9  1  0
  9 10  1  0
 10 11  1  0
 11 12  1  0
 12 13  2  0
 13 14  1  0
 14 15  1  0
 15 16  2  0
 16 17  1  0
 17 18  2  0
 18 19  1  0
 19 20  2  0
  9 21  2  0
 21 22  1  0
 22 23  1  0
 23 24  2  0
  6 25  1  0
 25 26  2  0
 26  3  1  0
 23  8  1  0
 20 12  1  0
 20 15  1  0
  1 27  1  0
  1 28  1  0
  1 29  1  0
  2 30  1  0
  2 31  1  0
  4 32  1  0
  5 33  1  0
  7 34  1  0
  7 35  1  0
 10 36  1  0
 10 37  1  0
 11 38  1  0
 11 39  1  0
 13 40  1  0
 14 41  1  0
 16 42  1  0
 17 43  1  0
 18 44  1  0
 19 45  1  0
 25 46  1  0
 26 47  1  0
M  CHG  1  22  -1
M  END
>  <UniqueID>  (35) 
28

>  <SMILES>  (35) 
CCc1ccc(Cn2c(CCc3c[nH]c4ccccc34)n[n-]c2=O)cc1

>  <Energy>  (35) 
107.29226163316252

>  <Genealogy>  (35) 
CCc1ccc(Cn2c(CCc3c[nH]c4ccccc34)n[n-]c2=O)cc1 (protonated)
CCc1ccc(Cn2c(CCc3c[nH]c4ccccc34)n[n-]c2=O)cc1 (3D coordinates assigned)
CCc1ccc(Cn2c(CCc3c[nH]c4ccccc34)n[n-]c2=O)cc1 (optimized conformer: 107.29226163316252 kcal/mol)

>  <smiles>  (35) 
CCc1ccc(Cn2c(CCc3c[nH]c4ccccc34)n[nH]c2=O)cc1

>  <score_type>  (35) 
oracle

>  <origin>  (35) 
adg

>  <m_score__min__energy>  (35) 
-10.32

>  <m_primary>  (35) 
energy

$$$$
35:0
     RDKit          3D

 32 33  0  0  0  0  0  0  0  0999 V2000
   57.1040   31.0720   43.4760 C   0  0  0  0  0  0  0  0  0  0  0  0
   56.9870   30.6630   44.8600 N   0  0  0  0  0  0  0  0  0  0  0  0
   58.1640   30.9950   45.6300 C   0  0  0  0  0  0  0  0  0  0  0  0
   56.5610   29.3090   45.0150 C   0  0  0  0  0  0  0  0  0  0  0  0
   57.7860   28.4850   45.4190 C   0  0  0  0  0  0  0  0  0  0  0  0
   57.3390   27.2220   46.1250 C   0  0  0  0  0  0  0  0  0  0  0  0
   57.1510   26.1630   45.1670 N   0  0  0  0  0  0  0  0  0  0  0  0
   57.8940   25.9700   44.0640 C   0  0  0  0  0  0  0  0  0  0  0  0
   57.4560   24.8930   43.3850 N   0  0  0  0  0  0  0  0  0  0  0  0
   56.4040   24.3740   44.0640 C   0  0  0  0  0  0  0  0  0  0  0  0
   55.6040   23.2850   43.8050 C   0  0  0  0  0  0  0  0  0  0  0  0
   55.8370   22.5870   42.7480 N   0  0  0  0  0  0  0  0  0  0  0  0
   54.6170   23.0100   44.6790 N   0  0  0  0  0  0  0  0  0  0  0  0
   54.4330   23.7970   45.7770 C   0  0  0  0  0  0  0  0  0  0  0  0
   55.2350   24.8640   46.0090 N   0  0  0  0  0  0  0  0  0  0  0  0
   56.2370   25.1800   45.1630 C   0  0  0  0  0  0  0  0  0  0  0  0
   57.4063   32.1287   43.4302 H   0  0  0  0  0  0  0  0  0  0  0  0
   57.8608   30.4520   42.9732 H   0  0  0  0  0  0  0  0  0  0  0  0
   56.1338   30.9461   42.9732 H   0  0  0  0  0  0  0  0  0  0  0  0
   57.9308   30.9292   46.7030 H   0  0  0  0  0  0  0  0  0  0  0  0
   58.9724   30.2898   45.3866 H   0  0  0  0  0  0  0  0  0  0  0  0
   58.4847   32.0187   45.3866 H   0  0  0  0  0  0  0  0  0  0  0  0
   55.7905   29.2449   45.7974 H   0  0  0  0  0  0  0  0  0  0  0  0
   56.1301   28.9285   44.0772 H   0  0  0  0  0  0  0  0  0  0  0  0
   58.3602   28.2179   44.5196 H   0  0  0  0  0  0  0  0  0  0  0  0
   58.4176   29.0781   46.0968 H   0  0  0  0  0  0  0  0  0  0  0  0
   58.1055   26.9216   46.8545 H   0  0  0  0  0  0  0  0  0  0  0  0
   56.3874   27.4146   46.6421 H   0  0  0  0  0  0  0  0  0  0  0  0
   58.7406   26.6026   43.7589 H   0  0  0  0  0  0  0  0  0  0  0  0
   56.4690   23.0260   42.0370 H   0  0  0  0  0  0  0  0  0  0  0  0
   54.0140   22.1860   44.4820 H   0  0  0  0  0  0  0  0  0  0  0  0
   53.6231   23.5627   46.4835 H   0  0  0  0  0  0  0  0  0  0  0  0
  1  2  1  0
  2  3  1  0
  2  4  1  0
  4  5  1  0
  5  6  1  0
  6  7  1  0
  7  8  1  0
  8  9  2  0
  9 10  1  0
 10 11  1  0
 11 12  2  3
 11 13  1  0
 13 14  1  0
 14 15  2  0
 15 16  1  0
 16  7  1  0
 16 10  2  0
  1 17  1  0
  1 18  1  0
  1 19  1  0
  3 20  1  0
  3 21  1  0
  3 22  1  0
  4 23  1  0
  4 24  1  0
  5 25  1  0
  5 26  1  0
  6 27  1  0
  6 28  1  0
  8 29  1  0
 12 30  1  0
 13 31  1  0
 14 32  1  0
M  END
>  <smiles>  (36) 
CN(C)CCCn1cnc2c(=N)[nH]cnc21

>  <score_type>  (36) 
oracle

>  <origin>  (36) 
adg

>  <m_score__min__energy>  (36) 
-5.5300000000000002

>  <m_primary>  (36) 
energy

$$$$
36:0
     RDKit          3D

 30 32  0  0  0  0  0  0  0  0999 V2000
   54.8870   26.3370   45.9730 O   0  0  0  0  0  0  0  0  0  0  0  0
   55.9230   25.6660   46.2330 C   0  0  0  0  0  0  0  0  0  0  0  0
   55.8700   24.3680   46.6120 N   0  0  0  0  0  0  0  0  0  0  0  0
   56.9690   23.6480   46.8910 C   0  0  0  0  0  0  0  0  0  0  0  0
   58.1540   24.2590   46.7810 N   0  0  0  0  0  0  0  0  0  0  0  0
   58.2620   25.5350   46.4100 C   0  0  0  0  0  0  0  0  0  0  0  0
   59.5120   26.0910   46.3200 C   0  0  0  0  0  0  0  0  0  0  0  0
   59.6280   27.4120   45.9380 C   0  0  0  0  0  0  0  0  0  0  0  0
   58.5530   28.2230   45.6340 C   0  0  0  0  0  0  0  0  0  0  0  0
   58.5360   29.4830   45.2620 O   0  0  0  0  0  0  0  0  0  0  0  0
   58.8630   30.7290   45.5870 C   0  0  0  0  0  0  0  0  0  0  0  0
   59.8400   31.1780   46.4410 C   0  0  0  0  0  0  0  0  0  0  0  0
   60.0900   32.5090   46.7030 C   0  0  0  0  0  0  0  0  0  0  0  0
   61.3710   32.9810   47.8200 Cl  0  0  0  0  0  0  0  0  0  0  0  0
   59.3210   33.4500   46.0770 C   0  0  0  0  0  0  0  0  0  0  0  0
   59.6440   35.1350   46.4140 Cl  0  0  0  0  0  0  0  0  0  0  0  0
   58.3280   33.0760   45.2110 C   0  0  0  0  0  0  0  0  0  0  0  0
   58.1040   31.7540   44.9720 C   0  0  0  0  0  0  0  0  0  0  0  0
   57.0550   31.4210   44.0590 N   0  0  0  0  0  0  0  0  0  0  0  0
   57.2520   31.6890   42.8510 O   0  0  0  0  0  0  0  0  0  0  0  0
   55.8920   30.8380   44.4970 O   0  0  0  0  0  0  0  0  0  0  0  0
   57.2960   27.5790   45.7490 C   0  0  0  0  0  0  0  0  0  0  0  0
   57.1510   26.2860   46.1220 C   0  0  0  0  0  0  0  0  0  0  0  0
   54.9360   23.8840   46.7000 H   0  0  0  0  0  0  0  0  0  0  0  0
   56.8973   22.5944   47.1987 H   0  0  0  0  0  0  0  0  0  0  0  0
   60.4073   25.4942   46.5484 H   0  0  0  0  0  0  0  0  0  0  0  0
   60.6372   27.8445   45.8718 H   0  0  0  0  0  0  0  0  0  0  0  0
   60.4637   30.4277   46.9491 H   0  0  0  0  0  0  0  0  0  0  0  0
   57.7143   33.8397   44.7109 H   0  0  0  0  0  0  0  0  0  0  0  0
   56.3901   28.1607   45.5232 H   0  0  0  0  0  0  0  0  0  0  0  0
  1  2  2  0
  2  3  1  0
  3  4  1  0
  4  5  2  0
  5  6  1  0
  6  7  2  0
  7  8  1  0
  8  9  2  0
  9 10  1  0
 10 11  1  0
 11 12  2  0
 12 13  1  0
 13 14  1  0
 13 15  2  0
 15 16  1  0
 15 17  1  0
 17 18  2  0
 18 19  1  0
 19 20  2  0
 19 21  1  0
  9 22  1  0
 22 23  2  0
 23  2  1  0
 23  6  1  0
 18 11  1  0
  3 24  1  0
  4 25  1  0
  7 26  1  0
  8 27  1  0
 12 28  1  0
 17 29  1  0
 22 30  1  0
M  CHG  2  19   1  21  -1
M  END
>  <smiles>  (37) 
O=c1[nH]cnc2ccc(Oc3cc(Cl)c(Cl)cc3[N+](=O)[O-])cc12

>  <score_type>  (37) 
oracle

>  <origin>  (37) 
adg

>  <m_score__min__energy>  (37) 
-8.1500000000000004

>  <m_primary>  (37) 
energy

$$$$
37:0
     RDKit          3D

 42 45  0  0  0  0  0  0  0  0999 V2000
   64.4745   33.8683   47.0880 H   0  0  0  0  0  0  0  0  0  0  0  0
   63.4110   33.8620   47.3690 C   0  0  0  0  0  0  0  0  0  0  0  0
   63.0470   33.8730   48.7190 C   0  0  0  0  0  0  0  0  0  0  0  0
   63.8249   33.8935   49.4965 H   0  0  0  0  0  0  0  0  0  0  0  0
   61.6960   33.8580   49.0840 C   0  0  0  0  0  0  0  0  0  0  0  0
   61.4128   33.8658   50.1469 H   0  0  0  0  0  0  0  0  0  0  0  0
   60.7030   33.8330   48.0930 C   0  0  0  0  0  0  0  0  0  0  0  0
   59.3410   33.7950   48.4240 C   0  0  0  0  0  0  0  0  0  0  0  0
   59.0306   33.7880   49.4793 H   0  0  0  0  0  0  0  0  0  0  0  0
   58.3790   33.7660   47.4120 C   0  0  0  0  0  0  0  0  0  0  0  0
   57.3101   33.7168   47.6670 H   0  0  0  0  0  0  0  0  0  0  0  0
   58.7830   33.8000   46.0660 C   0  0  0  0  0  0  0  0  0  0  0  0
   57.7980   33.7590   44.9610 C   0  0  0  0  0  0  0  0  0  0  0  0
   57.1060   34.7840   44.7240 O   0  0  0  0  0  0  0  0  0  0  0  0
   57.6370   32.6110   44.1150 N   0  0  0  0  0  0  0  0  0  0  0  0
   57.4150   31.3990   44.5270 C   0  0  0  0  0  0  0  0  0  0  0  0
   56.1850   30.8480   44.6470 N   0  0  0  0  0  0  0  0  0  0  0  0
   56.2210   29.5890   45.0800 N   0  0  0  0  0  0  0  0  0  0  0  0
   57.4780   29.1340   45.2970 C   0  0  0  0  0  0  0  0  0  0  0  0
   57.7700   27.8140   45.7930 N   0  0  0  0  0  0  0  0  0  0  0  0
   59.0550   27.5300   46.4400 C   0  0  0  0  0  0  0  0  0  0  0  0
   58.9462   27.6228   47.5307 H   0  0  0  0  0  0  0  0  0  0  0  0
   59.8122   28.2461   46.0881 H   0  0  0  0  0  0  0  0  0  0  0  0
   59.4920   26.1040   46.0880 C   0  0  0  0  0  0  0  0  0  0  0  0
   60.4448   25.8919   46.5952 H   0  0  0  0  0  0  0  0  0  0  0  0
   59.5939   26.0465   44.9942 H   0  0  0  0  0  0  0  0  0  0  0  0
   58.4950   25.0840   46.5020 N   0  0  0  0  0  0  0  0  0  0  0  0
   58.5730   23.8980   45.6340 C   0  0  0  0  0  0  0  0  0  0  0  0
   58.6326   22.9922   46.2553 H   0  0  0  0  0  0  0  0  0  0  0  0
   57.6762   23.8487   44.9990 H   0  0  0  0  0  0  0  0  0  0  0  0
   59.4686   23.9666   44.9990 H   0  0  0  0  0  0  0  0  0  0  0  0
   57.1010   25.5790   46.6190 C   0  0  0  0  0  0  0  0  0  0  0  0
   56.9398   25.9290   47.6493 H   0  0  0  0  0  0  0  0  0  0  0  0
   56.4349   24.7438   46.3569 H   0  0  0  0  0  0  0  0  0  0  0  0
   56.7850   26.7340   45.6560 C   0  0  0  0  0  0  0  0  0  0  0  0
   55.7837   27.1287   45.8831 H   0  0  0  0  0  0  0  0  0  0  0  0
   56.8225   26.3525   44.6250 H   0  0  0  0  0  0  0  0  0  0  0  0
   58.6330   30.3170   44.9430 S   0  0  0  0  0  0  0  0  0  0  0  0
   60.1130   33.8140   45.7660 N   0  0  0  0  0  0  0  0  0  0  0  0
   61.0730   33.8320   46.7300 C   0  0  0  0  0  0  0  0  0  0  0  0
   62.4270   33.8430   46.3740 C   0  0  0  0  0  0  0  0  0  0  0  0
   62.7172   33.8367   45.3130 H   0  0  0  0  0  0  0  0  0  0  0  0
  1  2  1  0
  2  3  2  0
  3  4  1  0
  3  5  1  0
  5  6  1  0
  5  7  2  0
  7  8  1  0
  8  9  1  0
  8 10  2  0
 10 11  1  0
 10 12  1  0
 12 13  1  0
 13 14  2  0
 13 15  1  0
 15 16  2  0
 16 17  1  0
 17 18  1  0
 18 19  2  0
 19 20  1  0
 20 21  1  0
 21 22  1  0
 21 23  1  0
 21 24  1  0
 24 25  1  0
 24 26  1  0
 24 27  1  0
 27 28  1  0
 28 29  1  0
 28 30  1  0
 28 31  1  0
 27 32  1  0
 32 33  1  0
 32 34  1  0
 32 35  1  0
 35 36  1  0
 35 37  1  0
 19 38  1  0
 12 39  2  0
 39 40  1  0
 40 41  2  0
 41 42  1  0
 41  2  1  0
 40  7  1  0
 38 16  1  0
 35 20  1  0
M  CHG  1  17  -1
M  END
>  <UniqueID>  (38) 
29

>  <SMILES>  (38) 
CN1CCN(c2n[n-]/c(=N\C(=O)c3ccc4ccccc4n3)s2)CC1

>  <Energy>  (38) 
96.5416237420001

>  <Genealogy>  (38) 
CN1CCN(c2n[n-]c(=NC(=O)c3ccc4ccccc4n3)s2)CC1 (protonated)
CN1CCN(c2n[n-]/c(=N\C(=O)c3ccc4ccccc4n3)s2)CC1 (cis-trans isomerization)
CN1CCN(c2n[n-]/c(=N\C(=O)c3ccc4ccccc4n3)s2)CC1 (3D coordinates assigned)
CN1CCN(c2n[n-]/c(=N\C(=O)c3ccc4ccccc4n3)s2)CC1 (nonaromatic ring conformer: 96.5416237420001 kcal/mol)

>  <smiles>  (38) 
CN1CCN(c2n[nH]c(=NC(=O)c3ccc4ccccc4n3)s2)CC1

>  <score_type>  (38) 
oracle

>  <origin>  (38) 
adg

>  <m_score__min__energy>  (38) 
-11.039999999999999

>  <m_primary>  (38) 
energy

$$$$
38:0
     RDKit          3D

 36 38  0  0  0  0  0  0  0  0999 V2000
   55.7030   30.5310   44.3700 O   0  0  0  0  0  0  0  0  0  0  0  0
   57.0780   30.9230   43.9080 S   0  0  0  0  0  0  0  0  0  0  0  0
   56.9810   31.5370   42.5400 O   0  0  0  0  0  0  0  0  0  0  0  0
   58.0710   29.5030   43.8260 N   0  0  0  0  0  0  0  0  0  0  0  0
   58.1460   28.4890   44.8370 C   0  0  0  0  0  0  0  0  0  0  0  0
   59.3410   28.3400   45.5510 C   0  0  0  0  0  0  0  0  0  0  0  0
   59.4550   27.3680   46.5470 C   0  0  0  0  0  0  0  0  0  0  0  0
   58.3710   26.5360   46.8420 C   0  0  0  0  0  0  0  0  0  0  0  0
   57.1620   26.6790   46.1460 C   0  0  0  0  0  0  0  0  0  0  0  0
   56.0060   25.7620   46.4390 C   0  0  0  0  0  0  0  0  0  0  0  0
   54.8150   26.3250   45.9620 O   0  0  0  0  0  0  0  0  0  0  0  0
   57.0580   27.6440   45.1320 C   0  0  0  0  0  0  0  0  0  0  0  0
   57.7980   32.0950   45.0090 C   0  0  0  0  0  0  0  0  0  0  0  0
   58.0660   33.3940   44.5620 C   0  0  0  0  0  0  0  0  0  0  0  0
   58.6600   34.3270   45.4150 C   0  0  0  0  0  0  0  0  0  0  0  0
   58.9910   33.9700   46.7300 C   0  0  0  0  0  0  0  0  0  0  0  0
   59.5910   34.8970   47.5950 C   0  0  0  0  0  0  0  0  0  0  0  0
   59.9190   34.5270   48.9030 C   0  0  0  0  0  0  0  0  0  0  0  0
   59.6490   33.2340   49.3550 C   0  0  0  0  0  0  0  0  0  0  0  0
   59.0510   32.3000   48.5040 C   0  0  0  0  0  0  0  0  0  0  0  0
   58.7180   32.6580   47.1880 C   0  0  0  0  0  0  0  0  0  0  0  0
   58.1200   31.7300   46.3230 C   0  0  0  0  0  0  0  0  0  0  0  0
   60.1966   28.9936   45.3257 H   0  0  0  0  0  0  0  0  0  0  0  0
   60.3992   27.2568   47.1003 H   0  0  0  0  0  0  0  0  0  0  0  0
   58.4667   25.7668   47.6225 H   0  0  0  0  0  0  0  0  0  0  0  0
   56.1747   24.7938   45.9449 H   0  0  0  0  0  0  0  0  0  0  0  0
   55.9267   25.6170   47.5265 H   0  0  0  0  0  0  0  0  0  0  0  0
   54.3460   26.7060   46.7500 H   0  0  0  0  0  0  0  0  0  0  0  0
   56.1210   27.7411   44.5640 H   0  0  0  0  0  0  0  0  0  0  0  0
   57.8072   33.6820   43.5324 H   0  0  0  0  0  0  0  0  0  0  0  0
   58.8688   35.3449   45.0541 H   0  0  0  0  0  0  0  0  0  0  0  0
   59.8040   35.9174   47.2436 H   0  0  0  0  0  0  0  0  0  0  0  0
   60.3910   35.2566   49.5775 H   0  0  0  0  0  0  0  0  0  0  0  0
   59.9080   32.9489   50.3854 H   0  0  0  0  0  0  0  0  0  0  0  0
   58.8410   31.2828   48.8661 H   0  0  0  0  0  0  0  0  0  0  0  0
   57.9029   30.7116   46.6775 H   0  0  0  0  0  0  0  0  0  0  0  0
  1  2  2  0
  2  3  2  0
  2  4  1  0
  4  5  1  0
  5  6  2  0
  6  7  1  0
  7  8  2  0
  8  9  1  0
  9 10  1  0
 10 11  1  0
  9 12  2  0
  2 13  1  0
 13 14  2  0
 14 15  1  0
 15 16  2  0
 16 17  1  0
 17 18  2  0
 18 19  1  0
 19 20  2  0
 20 21  1  0
 21 22  2  0
 12  5  1  0
 22 13  1  0
 21 16  1  0
  6 23  1  0
  7 24  1  0
  8 25  1  0
 10 26  1  0
 10 27  1  0
 11 28  1  0
 12 29  1  0
 14 30  1  0
 15 31  1  0
 17 32  1  0
 18 33  1  0
 19 34  1  0
 20 35  1  0
 22 36  1  0
M  CHG  1   4  -1
M  END
>  <UniqueID>  (39) 
30

>  <SMILES>  (39) 
O=S(=O)([N-]c1cccc(CO)c1)c1ccc2ccccc2c1

>  <Energy>  (39) 
43.54731438483395

>  <Genealogy>  (39) 
O=S(=O)([N-]c1cccc(CO)c1)c1ccc2ccccc2c1 (protonated)
O=S(=O)([N-]c1cccc(CO)c1)c1ccc2ccccc2c1 (3D coordinates assigned)
O=S(=O)([N-]c1cccc(CO)c1)c1ccc2ccccc2c1 (optimized conformer: 43.54731438483395 kcal/mol)

>  <smiles>  (39) 
O=S(=O)(Nc1cccc(CO)c1)c1ccc2ccccc2c1

>  <score_type>  (39) 
oracle

>  <origin>  (39) 
adg

>  <m_score__min__energy>  (39) 
-10.619999999999999

>  <m_primary>  (39) 
energy

$$$$
39:0
     RDKit          3D

 35 35  0  0  0  0  0  0  0  0999 V2000
   58.1640   21.8510   43.9580 C   0  0  0  0  0  0  0  0  0  0  0  0
   57.0210   21.0300   43.3760 C   0  0  0  0  0  0  0  0  0  0  0  0
   55.9160   21.8730   43.1070 O   0  0  0  0  0  0  0  0  0  0  0  0
   56.3140   23.2300   43.0850 C   0  0  0  0  0  0  0  0  0  0  0  0
   55.5530   24.0060   44.1630 C   0  0  0  0  0  0  0  0  0  0  0  0
   55.8060   23.4450   45.5670 C   0  0  0  0  0  0  0  0  0  0  0  0
   55.7590   24.5180   46.5520 N   0  0  0  0  0  0  0  0  0  0  0  0
   56.0640   25.8790   46.2380 C   0  0  0  0  0  0  0  0  0  0  0  0
   55.1380   26.7020   46.0020 O   0  0  0  0  0  0  0  0  0  0  0  0
   57.4920   26.3170   46.1310 C   0  0  0  0  0  0  0  0  0  0  0  0
   57.6840   27.0940   44.9490 O   0  0  0  0  0  0  0  0  0  0  0  0
   57.6870   28.4970   44.8880 C   0  0  0  0  0  0  0  0  0  0  0  0
   56.8410   29.2250   44.0280 C   0  0  0  0  0  0  0  0  0  0  0  0
   56.8710   30.6240   44.0270 C   0  0  0  0  0  0  0  0  0  0  0  0
   57.7470   31.3080   44.8750 C   0  0  0  0  0  0  0  0  0  0  0  0
   57.7650   33.2160   44.8890 Br  0  0  0  0  0  0  0  0  0  0  0  0
   58.6020   30.5910   45.7170 C   0  0  0  0  0  0  0  0  0  0  0  0
   58.5740   29.1930   45.7190 C   0  0  0  0  0  0  0  0  0  0  0  0
   58.1173   21.8174   45.0565 H   0  0  0  0  0  0  0  0  0  0  0  0
   59.1241   21.4348   43.6189 H   0  0  0  0  0  0  0  0  0  0  0  0
   58.0762   22.8938   43.6189 H   0  0  0  0  0  0  0  0  0  0  0  0
   57.3524   20.5526   42.4421 H   0  0  0  0  0  0  0  0  0  0  0  0
   56.7220   20.2578   44.1001 H   0  0  0  0  0  0  0  0  0  0  0  0
   57.3946   23.2977   43.2792 H   0  0  0  0  0  0  0  0  0  0  0  0
   56.0895   23.6605   42.0979 H   0  0  0  0  0  0  0  0  0  0  0  0
   55.8764   25.0571   44.1378 H   0  0  0  0  0  0  0  0  0  0  0  0
   54.4777   23.9130   43.9507 H   0  0  0  0  0  0  0  0  0  0  0  0
   55.0337   22.6988   45.8050 H   0  0  0  0  0  0  0  0  0  0  0  0
   56.8008   22.9762   45.5931 H   0  0  0  0  0  0  0  0  0  0  0  0
   57.7524   26.9239   47.0107 H   0  0  0  0  0  0  0  0  0  0  0  0
   58.1369   25.4271   46.0833 H   0  0  0  0  0  0  0  0  0  0  0  0
   56.1541   28.6914   43.3546 H   0  0  0  0  0  0  0  0  0  0  0  0
   56.2038   31.1868   43.3575 H   0  0  0  0  0  0  0  0  0  0  0  0
   59.2978   31.1273   46.3789 H   0  0  0  0  0  0  0  0  0  0  0  0
   59.2545   28.6350   46.3790 H   0  0  0  0  0  0  0  0  0  0  0  0
  1  2  1  0
  2  3  1  0
  3  4  1  0
  4  5  1  0
  5  6  1  0
  6  7  1  0
  7  8  1  0
  8  9  2  0
  8 10  1  0
 10 11  1  0
 11 12  1  0
 12 13  2  0
 13 14  1  0
 14 15  2  0
 15 16  1  0
 15 17  1  0
 17 18  2  0
 18 12  1  0
  1 19  1  0
  1 20  1  0
  1 21  1  0
  2 22  1  0
  2 23  1  0
  4 24  1  0
  4 25  1  0
  5 26  1  0
  5 27  1  0
  6 28  1  0
  6 29  1  0
 10 30  1  0
 10 31  1  0
 13 32  1  0
 14 33  1  0
 17 34  1  0
 18 35  1  0
M  CHG  1   7  -1
M  END
>  <UniqueID>  (40) 
31

>  <SMILES>  (40) 
CCOCCC[N-]C(=O)COc1ccc(Br)cc1

>  <Energy>  (40) 
21.752969736523713

>  <Genealogy>  (40) 
CCOCCC[N-]C(=O)COc1ccc(Br)cc1 (protonated)
CCOCCC[N-]C(=O)COc1ccc(Br)cc1 (3D coordinates assigned)
CCOCCC[N-]C(=O)COc1ccc(Br)cc1 (optimized conformer: 21.752969736523713 kcal/mol)

>  <smiles>  (40) 
CCOCCCNC(=O)COc1ccc(Br)cc1

>  <score_type>  (40) 
oracle

>  <origin>  (40) 
adg

>  <m_score__min__energy>  (40) 
-8.2599999999999998

>  <m_primary>  (40) 
energy

$$$$
40:0
     RDKit          3D

 36 37  0  0  0  0  0  0  0  0999 V2000
   61.4100   33.8440   46.8180 C   0  0  0  0  0  0  0  0  0  0  0  0
   60.3620   34.5330   47.7000 C   0  0  0  0  0  0  0  0  0  0  0  0
   59.0680   34.7210   46.9980 N   0  0  0  0  0  0  0  0  0  0  0  0
   58.1730   33.5670   47.2760 C   0  0  0  0  0  0  0  0  0  0  0  0
   57.0640   33.4500   46.2200 C   0  0  0  0  0  0  0  0  0  0  0  0
   57.6090   33.2300   44.8620 N   0  0  0  0  0  0  0  0  0  0  0  0
   57.4710   31.5590   44.3600 S   0  0  0  0  0  0  0  0  0  0  0  0
   56.0570   31.0930   44.5640 O   0  0  0  0  0  0  0  0  0  0  0  0
   57.7610   31.4710   42.8870 O   0  0  0  0  0  0  0  0  0  0  0  0
   58.6100   30.4980   45.2220 C   0  0  0  0  0  0  0  0  0  0  0  0
   59.4510   31.0760   46.1890 C   0  0  0  0  0  0  0  0  0  0  0  0
   60.3480   30.2920   46.9150 C   0  0  0  0  0  0  0  0  0  0  0  0
   60.4260   28.9200   46.6810 C   0  0  0  0  0  0  0  0  0  0  0  0
   59.6140   28.3320   45.7110 C   0  0  0  0  0  0  0  0  0  0  0  0
   58.7090   29.1070   44.9730 C   0  0  0  0  0  0  0  0  0  0  0  0
   57.7580   28.2760   43.7490 Cl  0  0  0  0  0  0  0  0  0  0  0  0
   58.9960   33.7120   44.6920 C   0  0  0  0  0  0  0  0  0  0  0  0
   59.2570   34.9680   45.5370 C   0  0  0  0  0  0  0  0  0  0  0  0
   62.1591   33.3515   47.4554 H   0  0  0  0  0  0  0  0  0  0  0  0
   60.9180   33.0926   46.1829 H   0  0  0  0  0  0  0  0  0  0  0  0
   61.9048   34.5936   46.1829 H   0  0  0  0  0  0  0  0  0  0  0  0
   60.1923   33.9160   48.5947 H   0  0  0  0  0  0  0  0  0  0  0  0
   60.7481   35.5285   47.9646 H   0  0  0  0  0  0  0  0  0  0  0  0
   58.5980   35.5680   47.4020 H   0  0  0  0  0  0  0  0  0  0  0  0
   58.7694   32.6427   47.2724 H   0  0  0  0  0  0  0  0  0  0  0  0
   57.7012   33.7237   48.2572 H   0  0  0  0  0  0  0  0  0  0  0  0
   56.4126   32.6033   46.4822 H   0  0  0  0  0  0  0  0  0  0  0  0
   56.5040   34.3967   46.2108 H   0  0  0  0  0  0  0  0  0  0  0  0
   59.4012   32.1590   46.3753 H   0  0  0  0  0  0  0  0  0  0  0  0
   60.9948   30.7573   47.6734 H   0  0  0  0  0  0  0  0  0  0  0  0
   61.1271   28.3016   47.2607 H   0  0  0  0  0  0  0  0  0  0  0  0
   59.6846   27.2504   45.5237 H   0  0  0  0  0  0  0  0  0  0  0  0
   59.6918   32.9192   45.0039 H   0  0  0  0  0  0  0  0  0  0  0  0
   59.1477   33.9679   43.6330 H   0  0  0  0  0  0  0  0  0  0  0  0
   60.2916   35.3001   45.3659 H   0  0  0  0  0  0  0  0  0  0  0  0
   58.5312   35.7354   45.2300 H   0  0  0  0  0  0  0  0  0  0  0  0
  1  2  1  0
  2  3  1  0
  3  4  1  0
  4  5  1  0
  5  6  1  0
  6  7  1  0
  7  8  2  0
  7  9  2  0
  7 10  1  0
 10 11  2  0
 11 12  1  0
 12 13  2  0
 13 14  1  0
 14 15  2  0
 15 16  1  0
  6 17  1  0
 17 18  1  0
 18  3  1  0
 15 10  1  0
  1 19  1  0
  1 20  1  0
  1 21  1  0
  2 22  1  0
  2 23  1  0
  3 24  1  0
  4 25  1  0
  4 26  1  0
  5 27  1  0
  5 28  1  0
 11 29  1  0
 12 30  1  0
 13 31  1  0
 14 32  1  0
 17 33  1  0
 17 34  1  0
 18 35  1  0
 18 36  1  0
M  CHG  1   3   1
M  END
>  <UniqueID>  (41) 
32

>  <SMILES>  (41) 
CC[NH+]1CCN(S(=O)(=O)c2ccccc2Cl)CC1

>  <Energy>  (41) 
48.47055325956889

>  <Genealogy>  (41) 
CC[NH+]1CCN(S(=O)(=O)c2ccccc2Cl)CC1 (protonated)
CC[NH+]1CCN(S(=O)(=O)c2ccccc2Cl)CC1 (3D coordinates assigned)
CC[NH+]1CCN(S(=O)(=O)c2ccccc2Cl)CC1 (nonaromatic ring conformer: 48.47055325956889 kcal/mol)

>  <smiles>  (41) 
CCN1CCN(S(=O)(=O)c2ccccc2Cl)CC1

>  <score_type>  (41) 
oracle

>  <origin>  (41) 
adg

>  <m_score__min__energy>  (41) 
-5.6399999999999997

>  <m_primary>  (41) 
energy

$$$$
41:0
     RDKit          3D

 31 33  0  0  0  0  0  0  0  0999 V2000
   55.5340   28.6470   44.9520 N   0  0  0  0  0  0  0  0  0  0  0  0
   56.2210   29.8940   44.8630 C   0  0  0  0  0  0  0  0  0  0  0  0
   55.6150   30.9040   44.4150 O   0  0  0  0  0  0  0  0  0  0  0  0
   57.6070   30.0250   45.3620 C   0  0  0  0  0  0  0  0  0  0  0  0
   58.4500   28.9100   45.2410 C   0  0  0  0  0  0  0  0  0  0  0  0
   59.7920   28.9900   45.6010 C   0  0  0  0  0  0  0  0  0  0  0  0
   60.3170   30.1780   46.1030 C   0  0  0  0  0  0  0  0  0  0  0  0
   59.4910   31.3050   46.2880 C   0  0  0  0  0  0  0  0  0  0  0  0
   59.9940   32.5160   46.8230 C   0  0  0  0  0  0  0  0  0  0  0  0
   61.3970   32.6730   47.2690 C   0  0  0  0  0  0  0  0  0  0  0  0
   62.2150   33.6550   46.6900 C   0  0  0  0  0  0  0  0  0  0  0  0
   63.5340   33.8190   47.1260 C   0  0  0  0  0  0  0  0  0  0  0  0
   64.0410   33.0100   48.1470 C   0  0  0  0  0  0  0  0  0  0  0  0
   63.2270   32.0380   48.7380 C   0  0  0  0  0  0  0  0  0  0  0  0
   63.7160   31.2590   49.7330 F   0  0  0  0  0  0  0  0  0  0  0  0
   61.9080   31.8720   48.3050 C   0  0  0  0  0  0  0  0  0  0  0  0
   59.1330   33.6100   46.9640 C   0  0  0  0  0  0  0  0  0  0  0  0
   57.7920   33.4870   46.6200 C   0  0  0  0  0  0  0  0  0  0  0  0
   57.3100   32.3180   46.1240 N   0  0  0  0  0  0  0  0  0  0  0  0
   58.1180   31.2320   45.9140 C   0  0  0  0  0  0  0  0  0  0  0  0
   55.5090   28.1120   45.8480 H   0  0  0  0  0  0  0  0  0  0  0  0
   58.0456   27.9617   44.8572 H   0  0  0  0  0  0  0  0  0  0  0  0
   60.4418   28.1096   45.4883 H   0  0  0  0  0  0  0  0  0  0  0  0
   61.3855   30.2374   46.3574 H   0  0  0  0  0  0  0  0  0  0  0  0
   61.8178   34.2979   45.8907 H   0  0  0  0  0  0  0  0  0  0  0  0
   64.1734   34.5860   46.6646 H   0  0  0  0  0  0  0  0  0  0  0  0
   65.0798   33.1377   48.4856 H   0  0  0  0  0  0  0  0  0  0  0  0
   61.2679   31.1119   48.7767 H   0  0  0  0  0  0  0  0  0  0  0  0
   59.5173   34.5669   47.3469 H   0  0  0  0  0  0  0  0  0  0  0  0
   57.1150   34.3441   46.7506 H   0  0  0  0  0  0  0  0  0  0  0  0
   56.2860   32.2800   45.9320 H   0  0  0  0  0  0  0  0  0  0  0  0
  1  2  1  0
  2  3  2  0
  2  4  1  0
  4  5  2  0
  5  6  1  0
  6  7  2  0
  7  8  1  0
  8  9  2  0
  9 10  1  0
 10 11  2  0
 11 12  1  0
 12 13  2  0
 13 14  1  0
 14 15  1  0
 14 16  2  0
  9 17  1  0
 17 18  2  0
 18 19  1  0
 19 20  2  0
 20  4  1  0
 20  8  1  0
 16 10  1  0
  1 21  1  0
  5 22  1  0
  6 23  1  0
  7 24  1  0
 11 25  1  0
 12 26  1  0
 13 27  1  0
 16 28  1  0
 17 29  1  0
 18 30  1  0
 19 31  1  0
M  CHG  2   1  -1  19   1
M  END
>  <UniqueID>  (42) 
33

>  <SMILES>  (42) 
[NH-]C(=O)c1cccc2c(-c3cccc(F)c3)cc[nH+]c12

>  <Energy>  (42) 
52.921870981650926

>  <Genealogy>  (42) 
[NH-]C(=O)c1cccc2c(-c3cccc(F)c3)cc[nH+]c12 (protonated)
[NH-]C(=O)c1cccc2c(-c3cccc(F)c3)cc[nH+]c12 (3D coordinates assigned)
[NH-]C(=O)c1cccc2c(-c3cccc(F)c3)cc[nH+]c12 (optimized conformer: 52.921870981650926 kcal/mol)

>  <smiles>  (42) 
NC(=O)c1cccc2c(-c3cccc(F)c3)ccnc12

>  <score_type>  (42) 
oracle

>  <origin>  (42) 
adg

>  <m_score__min__energy>  (42) 
-8.9700000000000006

>  <m_primary>  (42) 
energy

$$$$
42:0
     RDKit          3D

 26 28  0  0  0  0  0  0  0  0999 V2000
   55.5750   29.7230   43.5110 C   0  0  0  0  0  0  0  0  0  0  0  0
   55.8660   29.4920   44.8610 O   0  0  0  0  0  0  0  0  0  0  0  0
   57.1090   29.5680   45.4270 C   0  0  0  0  0  0  0  0  0  0  0  0
   57.6540   28.4820   45.7830 O   0  0  0  0  0  0  0  0  0  0  0  0
   57.7660   30.8660   45.6070 C   0  0  0  0  0  0  0  0  0  0  0  0
   57.0790   31.9620   45.2500 N   0  0  0  0  0  0  0  0  0  0  0  0
   57.7160   33.1330   45.4300 C   0  0  0  0  0  0  0  0  0  0  0  0
   57.1730   34.2390   45.1320 O   0  0  0  0  0  0  0  0  0  0  0  0
   58.9700   33.1530   45.9430 C   0  0  0  0  0  0  0  0  0  0  0  0
   60.0270   34.5490   46.2780 S   0  0  0  0  0  0  0  0  0  0  0  0
   61.4160   33.4880   46.9200 C   0  0  0  0  0  0  0  0  0  0  0  0
   62.6310   33.8710   47.3900 C   0  0  0  0  0  0  0  0  0  0  0  0
   63.5110   32.9020   47.8180 C   0  0  0  0  0  0  0  0  0  0  0  0
   63.0740   31.5940   47.7290 C   0  0  0  0  0  0  0  0  0  0  0  0
   61.8500   31.2270   47.2540 C   0  0  0  0  0  0  0  0  0  0  0  0
   60.9270   32.2040   46.8080 C   0  0  0  0  0  0  0  0  0  0  0  0
   59.7000   32.0350   46.3180 C   0  0  0  0  0  0  0  0  0  0  0  0
   59.0020   30.8600   46.1130 N   0  0  0  0  0  0  0  0  0  0  0  0
   54.7156   30.4052   43.4327 H   0  0  0  0  0  0  0  0  0  0  0  0
   56.4488   30.1761   43.0199 H   0  0  0  0  0  0  0  0  0  0  0  0
   55.3320   28.7692   43.0199 H   0  0  0  0  0  0  0  0  0  0  0  0
   62.9071   34.9351   47.4282 H   0  0  0  0  0  0  0  0  0  0  0  0
   64.5073   33.1553   48.2093 H   0  0  0  0  0  0  0  0  0  0  0  0
   63.7569   30.7988   48.0625 H   0  0  0  0  0  0  0  0  0  0  0  0
   61.5768   30.1621   47.2168 H   0  0  0  0  0  0  0  0  0  0  0  0
   59.4180   29.9390   46.3470 H   0  0  0  0  0  0  0  0  0  0  0  0
  1  2  1  0
  2  3  1  0
  3  4  2  0
  3  5  1  0
  5  6  2  0
  6  7  1  0
  7  8  2  0
  7  9  1  0
  9 10  1  0
 10 11  1  0
 11 12  2  0
 12 13  1  0
 13 14  2  0
 14 15  1  0
 15 16  2  0
 16 17  1  0
 17 18  1  0
 18  5  1  0
 17  9  2  0
 16 11  1  0
  1 19  1  0
  1 20  1  0
  1 21  1  0
 12 22  1  0
 13 23  1  0
 14 24  1  0
 15 25  1  0
 18 26  1  0
M  END
>  <smiles>  (43) 
COC(=O)c1nc(=O)c2sc3ccccc3c2[nH]1

>  <score_type>  (43) 
oracle

>  <origin>  (43) 
adg

>  <m_score__min__energy>  (43) 
-6.6699999999999999

>  <m_primary>  (43) 
energy

$$$$
43:0
     RDKit          3D

 34 36  0  0  1  0  0  0  0  0999 V2000
   56.6310   22.4250   42.6260 C   0  0  0  0  0  0  0  0  0  0  0  0
   55.8810   22.2150   43.8560 N   0  0  0  0  0  0  0  0  0  0  0  0
   55.5100   23.2610   44.5050 C   0  0  0  0  0  0  0  0  0  0  0  0
   54.2380   23.4310   44.9140 N   0  0  0  0  0  0  0  0  0  0  0  0
   53.8520   24.5250   45.5930 C   0  0  0  0  0  0  0  0  0  0  0  0
   54.7670   25.4610   45.8620 N   0  0  0  0  0  0  0  0  0  0  0  0
   56.0540   25.3340   45.4710 C   0  0  0  0  0  0  0  0  0  0  0  0
   56.4680   24.2200   44.7750 C   0  0  0  0  0  0  0  0  0  0  0  0
   57.7780   24.3700   44.5260 N   0  0  0  0  0  0  0  0  0  0  0  0
   58.1920   25.5480   45.0490 C   0  0  0  0  0  0  0  0  0  0  0  0
   57.1360   26.1390   45.6280 N   0  0  0  0  0  0  0  0  0  0  0  0
   57.0560   27.4130   46.3250 C   0  0  1  0  0  0  0  0  0  0  0  0
   58.1390   27.6880   47.1170 O   0  0  0  0  0  0  0  0  0  0  0  0
   58.8520   28.7180   46.5750 C   0  0  2  0  0  0  0  0  0  0  0  0
   59.3350   29.6890   47.6330 C   0  0  0  0  0  0  0  0  0  0  0  0
   57.9930   29.4710   45.5990 C   0  0  2  0  0  0  0  0  0  0  0  0
   57.4720   30.6350   46.1040 O   0  0  0  0  0  0  0  0  0  0  0  0
   56.9120   28.4770   45.2750 C   0  0  2  0  0  0  0  0  0  0  0  0
   55.6380   29.0330   45.2530 O   0  0  0  0  0  0  0  0  0  0  0  0
   57.6636   22.7141   42.8710 H   0  0  0  0  0  0  0  0  0  0  0  0
   56.6402   21.4949   42.0388 H   0  0  0  0  0  0  0  0  0  0  0  0
   56.1559   23.2246   42.0388 H   0  0  0  0  0  0  0  0  0  0  0  0
   53.5020   22.7180   44.7190 H   0  0  0  0  0  0  0  0  0  0  0  0
   52.8086   24.6468   45.9192 H   0  0  0  0  0  0  0  0  0  0  0  0
   59.2150   25.9501   45.0066 H   0  0  0  0  0  0  0  0  0  0  0  0
   56.1977   27.3749   47.0119 H   0  0  0  0  0  0  0  0  0  0  0  0
   59.7270   28.2807   46.0719 H   0  0  0  0  0  0  0  0  0  0  0  0
   59.1293   29.2756   48.6314 H   0  0  0  0  0  0  0  0  0  0  0  0
   60.4173   29.8482   47.5179 H   0  0  0  0  0  0  0  0  0  0  0  0
   58.8090   30.6482   47.5179 H   0  0  0  0  0  0  0  0  0  0  0  0
   58.5670   29.8125   44.7250 H   0  0  0  0  0  0  0  0  0  0  0  0
   56.6440   30.8970   45.6420 H   0  0  0  0  0  0  0  0  0  0  0  0
   57.0272   28.0777   44.2565 H   0  0  0  0  0  0  0  0  0  0  0  0
   55.5340   29.7040   45.9680 H   0  0  0  0  0  0  0  0  0  0  0  0
  1  2  1  0
  2  3  2  0
  3  4  1  0
  4  5  1  0
  5  6  2  0
  6  7  1  0
  7  8  2  0
  8  9  1  0
  9 10  2  0
 10 11  1  0
 11 12  1  0
 12 13  1  0
 13 14  1  0
 14 15  1  0
 14 16  1  0
 16 17  1  0
 16 18  1  0
 18 19  1  0
  8  3  1  0
 18 12  1  0
 11  7  1  0
  1 20  1  0
  1 21  1  0
  1 22  1  0
  4 23  1  0
  5 24  1  0
 10 25  1  0
 12 26  1  1
 14 27  1  6
 15 28  1  0
 15 29  1  0
 15 30  1  0
 16 31  1  6
 17 32  1  0
 18 33  1  6
 19 34  1  0
M  END
>  <smiles>  (44) 
CN=c1[nH]cnc2c1ncn2C1OC(C)C(O)C1O

>  <score_type>  (44) 
oracle

>  <origin>  (44) 
adg

>  <m_score__min__energy>  (44) 
-6.9400000000000004

>  <m_primary>  (44) 
energy

$$$$
44:0
     RDKit          3D

 84 90  0  0  0  0  0  0  0  0999 V2000
   57.2970   33.5760   45.9940 C   0  0  0  0  0  0  0  0  0  0  0  0
   58.3340   32.9700   46.9590 C   0  0  1  0  0  0  0  0  0  0  0  0
   59.0640   31.7690   46.2220 C   0  0  0  0  0  0  0  0  0  0  0  0
   60.1310   30.9020   47.0260 C   0  0  0  0  0  0  0  0  0  0  0  0
   60.4910   31.4160   48.4440 C   0  0  2  0  0  0  0  0  0  0  0  0
   60.0990   30.9650   49.8180 C   0  0  0  0  0  0  0  0  0  0  0  0
   59.5190   31.8910   50.6970 C   0  0  0  0  0  0  0  0  0  0  0  0
   59.2470   31.3040   51.8900 N   0  0  0  0  0  0  0  0  0  0  0  0
   58.6020   31.9320   53.0500 C   0  0  0  0  0  0  0  0  0  0  0  0
   59.3530   31.6290   54.3580 C   0  0  0  0  0  0  0  0  0  0  0  0
   60.3670   32.7180   54.7700 C   0  0  0  0  0  0  0  0  0  0  0  0
   60.8110   33.6180   53.6010 C   0  0  0  0  0  0  0  0  0  0  0  0
   61.7920   32.9450   52.7330 N   0  0  0  0  0  0  0  0  0  0  0  0
   62.8790   33.8480   52.3170 C   0  0  0  0  0  0  0  0  0  0  0  0
   63.3120   33.6090   50.8620 C   0  0  0  0  0  0  0  0  0  0  0  0
   64.0820   32.3720   50.7610 N   0  0  0  0  0  0  0  0  0  0  0  0
   63.7050   31.1020   51.3030 C   0  0  0  0  0  0  0  0  0  0  0  0
   62.5410   30.8110   51.6830 O   0  0  0  0  0  0  0  0  0  0  0  0
   64.8670   30.2250   51.3800 C   0  0  0  0  0  0  0  0  0  0  0  0
   64.9890   28.9130   51.8340 C   0  0  0  0  0  0  0  0  0  0  0  0
   66.2650   28.3210   51.8070 C   0  0  0  0  0  0  0  0  0  0  0  0
   67.3800   29.0470   51.3350 C   0  0  0  0  0  0  0  0  0  0  0  0
   67.2310   30.3730   50.8890 C   0  0  0  0  0  0  0  0  0  0  0  0
   65.9570   30.9360   50.9250 C   0  0  0  0  0  0  0  0  0  0  0  0
   65.4940   32.2690   50.5570 C   0  0  0  0  0  0  0  0  0  0  0  0
   66.2190   33.2100   50.1410 O   0  0  0  0  0  0  0  0  0  0  0  0
   59.6950   30.0230   51.7690 C   0  0  0  0  0  0  0  0  0  0  0  0
   59.6740   29.0040   52.7280 C   0  0  0  0  0  0  0  0  0  0  0  0
   60.1900   27.7450   52.3740 C   0  0  0  0  0  0  0  0  0  0  0  0
   60.7180   27.5200   51.0830 C   0  0  0  0  0  0  0  0  0  0  0  0
   60.7390   28.5540   50.1330 C   0  0  0  0  0  0  0  0  0  0  0  0
   60.2190   29.7890   50.5110 C   0  0  0  0  0  0  0  0  0  0  0  0
   59.1590   33.3150   50.2150 C   0  0  0  0  0  0  0  0  0  0  0  0
   60.0050   33.8020   48.9510 C   0  0  2  0  0  0  0  0  0  0  0  0
   59.2250   34.1130   47.6120 C   0  0  1  0  0  0  0  0  0  0  0  0
   60.2040   34.7590   46.5900 C   0  0  0  0  0  0  0  0  0  0  0  0
   61.4720   33.9290   46.3040 C   0  0  0  0  0  0  0  0  0  0  0  0
   62.1360   33.4100   47.5840 C   0  0  2  0  0  0  0  0  0  0  0  0
   63.3330   32.4920   47.3000 C   0  0  0  0  0  0  0  0  0  0  0  0
   61.1440   32.8220   48.6240 C   0  0  2  0  0  0  0  0  0  0  0  0
   56.4894   34.0479   46.5728 H   0  0  0  0  0  0  0  0  0  0  0  0
   57.7838   34.3318   45.3601 H   0  0  0  0  0  0  0  0  0  0  0  0
   56.8775   32.7809   45.3601 H   0  0  0  0  0  0  0  0  0  0  0  0
   57.8802   32.5056   47.8469 H   0  0  0  0  0  0  0  0  0  0  0  0
   58.2802   31.0777   45.8787 H   0  0  0  0  0  0  0  0  0  0  0  0
   59.6610   32.2632   45.4414 H   0  0  0  0  0  0  0  0  0  0  0  0
   59.7289   29.8833   47.1288 H   0  0  0  0  0  0  0  0  0  0  0  0
   61.0620   30.9602   46.4430 H   0  0  0  0  0  0  0  0  0  0  0  0
   60.7649   30.4406   48.0155 H   0  0  0  0  0  0  0  0  0  0  0  0
   58.5786   33.0211   52.8975 H   0  0  0  0  0  0  0  0  0  0  0  0
   57.5851   31.5219   53.1380 H   0  0  0  0  0  0  0  0  0  0  0  0
   58.6127   31.5234   55.1648 H   0  0  0  0  0  0  0  0  0  0  0  0
   59.9293   30.7078   54.1866 H   0  0  0  0  0  0  0  0  0  0  0  0
   59.9037   33.3515   55.5407 H   0  0  0  0  0  0  0  0  0  0  0  0
   61.2649   32.2010   55.1395 H   0  0  0  0  0  0  0  0  0  0  0  0
   59.9281   33.8834   53.0010 H   0  0  0  0  0  0  0  0  0  0  0  0
   61.2874   34.5153   54.0229 H   0  0  0  0  0  0  0  0  0  0  0  0
   61.3170   32.5620   51.8830 H   0  0  0  0  0  0  0  0  0  0  0  0
   62.2210   32.1530   53.2640 H   0  0  0  0  0  0  0  0  0  0  0  0
   62.5330   34.8874   52.4168 H   0  0  0  0  0  0  0  0  0  0  0  0
   63.7469   33.6494   52.9630 H   0  0  0  0  0  0  0  0  0  0  0  0
   62.4185   33.5337   50.2248 H   0  0  0  0  0  0  0  0  0  0  0  0
   63.9394   34.4500   50.5317 H   0  0  0  0  0  0  0  0  0  0  0  0
   64.1141   28.3572   52.2023 H   0  0  0  0  0  0  0  0  0  0  0  0
   66.3947   27.2859   52.1559 H   0  0  0  0  0  0  0  0  0  0  0  0
   68.3723   28.5726   51.3158 H   0  0  0  0  0  0  0  0  0  0  0  0
   68.0943   30.9480   50.5229 H   0  0  0  0  0  0  0  0  0  0  0  0
   59.2643   29.1835   53.7330 H   0  0  0  0  0  0  0  0  0  0  0  0
   60.1826   26.9270   53.1095 H   0  0  0  0  0  0  0  0  0  0  0  0
   61.1152   26.5284   50.8203 H   0  0  0  0  0  0  0  0  0  0  0  0
   61.1516   28.3939   49.1260 H   0  0  0  0  0  0  0  0  0  0  0  0
   58.0927   33.3304   49.9452 H   0  0  0  0  0  0  0  0  0  0  0  0
   59.3947   34.0016   51.0415 H   0  0  0  0  0  0  0  0  0  0  0  0
   60.3745   34.7768   49.3020 H   0  0  0  0  0  0  0  0  0  0  0  0
   58.4366   34.8149   47.9213 H   0  0  0  0  0  0  0  0  0  0  0  0
   59.6655   34.9010   45.6414 H   0  0  0  0  0  0  0  0  0  0  0  0
   60.5442   35.7042   47.0382 H   0  0  0  0  0  0  0  0  0  0  0  0
   61.1962   33.0689   45.6762 H   0  0  0  0  0  0  0  0  0  0  0  0
   62.1936   34.5860   45.7964 H   0  0  0  0  0  0  0  0  0  0  0  0
   62.5458   34.3047   48.0755 H   0  0  0  0  0  0  0  0  0  0  0  0
   63.7712   32.1559   48.2513 H   0  0  0  0  0  0  0  0  0  0  0  0
   62.9962   31.6184   46.7226 H   0  0  0  0  0  0  0  0  0  0  0  0
   64.0894   33.0438   46.7226 H   0  0  0  0  0  0  0  0  0  0  0  0
   61.8758   32.6602   49.4291 H   0  0  0  0  0  0  0  0  0  0  0  0
  1  2  1  0
  2  3  1  0
  3  4  1  0
  4  5  1  0
  5  6  1  0
  6  7  2  0
  7  8  1  0
  8  9  1  0
  9 10  1  0
 10 11  1  0
 11 12  1  0
 12 13  1  0
 13 14  1  0
 14 15  1  0
 15 16  1  0
 16 17  1  0
 17 18  2  0
 17 19  1  0
 19 20  2  0
 20 21  1  0
 21 22  2  0
 22 23  1  0
 23 24  2  0
 24 25  1  0
 25 26  2  0
  8 27  1  0
 27 28  2  0
 28 29  1  0
 29 30  2  0
 30 31  1  0
 31 32  2  0
  7 33  1  0
 33 34  1  0
 34 35  1  0
 35 36  1  0
 36 37  1  0
 37 38  1  0
 38 39  1  0
 38 40  1  0
 35  2  1  0
 40  5  1  0
 32  6  1  0
 40 34  1  0
 25 16  1  0
 32 27  1  0
 24 19  1  0
  1 41  1  0
  1 42  1  0
  1 43  1  0
  2 44  1  1
  3 45  1  0
  3 46  1  0
  4 47  1  0
  4 48  1  0
  5 49  1  1
  9 50  1  0
  9 51  1  0
 10 52  1  0
 10 53  1  0
 11 54  1  0
 11 55  1  0
 12 56  1  0
 12 57  1  0
 13 58  1  0
 13 59  1  0
 14 60  1  0
 14 61  1  0
 15 62  1  0
 15 63  1  0
 20 64  1  0
 21 65  1  0
 22 66  1  0
 23 67  1  0
 28 68  1  0
 29 69  1  0
 30 70  1  0
 31 71  1  0
 33 72  1  0
 33 73  1  0
 34 74  1  1
 35 75  1  1
 36 76  1  0
 36 77  1  0
 37 78  1  0
 37 79  1  0
 38 80  1  1
 39 81  1  0
 39 82  1  0
 39 83  1  0
 40 84  1  1
M  CHG  1  13   1
M  END
>  <UniqueID>  (45) 
34

>  <SMILES>  (45) 
CC1CCC2C3Cc4c(c5ccccc5n4CCCC[NH2+]CCN4C(=O)c5ccccc5C4=O)[C@H](CC[C@@H]2C)C13

>  <Energy>  (45) 
267.9765517275486

>  <Genealogy>  (45) 
CC1CCC2c3c(n(CCCC[NH2+]CCN4C(=O)c5ccccc5C4=O)c4ccccc34)CC3C1CCC(C)C23 (protonated)
CC1CCC2C3Cc4c(c5ccccc5n4CCCC[NH2+]CCN4C(=O)c5ccccc5C4=O)[C@H](CC[C@@H]2C)C13 (chirality)
CC1CCC2C3Cc4c(c5ccccc5n4CCCC[NH2+]CCN4C(=O)c5ccccc5C4=O)[C@H](CC[C@@H]2C)C13 (3D coordinates assigned)
CC1CCC2C3Cc4c(c5ccccc5n4CCCC[NH2+]CCN4C(=O)c5ccccc5C4=O)[C@H](CC[C@@H]2C)C13 (nonaromatic ring conformer: 267.9765517275486 kcal/mol)

>  <smiles>  (45) 
CC1CCC2c3c(n(CCCCNCCN4C(=O)c5ccccc5C4=O)c4ccccc34)CC3C1CCC(C)C23

>  <score_type>  (45) 
oracle

>  <origin>  (45) 
adg

>  <m_score__min__energy>  (45) 
-8.6400000000000006

>  <m_primary>  (45) 
energy

$$$$
45:0
     RDKit          3D

 38 40  0  0  0  0  0  0  0  0999 V2000
   55.8990   27.3850   45.6190 O   0  0  0  0  0  0  0  0  0  0  0  0
   56.6280   28.3800   45.3690 C   0  0  0  0  0  0  0  0  0  0  0  0
   56.0250   29.5570   44.8160 N   0  0  0  0  0  0  0  0  0  0  0  0
   56.7200   30.6270   44.1630 C   0  0  0  0  0  0  0  0  0  0  0  0
   56.7130   30.7700   42.7690 C   0  0  0  0  0  0  0  0  0  0  0  0
   57.4010   31.8260   42.1770 C   0  0  0  0  0  0  0  0  0  0  0  0
   58.0810   32.7400   42.9830 C   0  0  0  0  0  0  0  0  0  0  0  0
   58.0650   32.6130   44.3440 N   0  0  0  0  0  0  0  0  0  0  0  0
   58.8260   33.5590   45.1710 C   0  0  0  0  0  0  0  0  0  0  0  0
   59.1410   32.9610   46.5490 C   0  0  0  0  0  0  0  0  0  0  0  0
   60.6250   32.8630   46.7880 C   0  0  0  0  0  0  0  0  0  0  0  0
   61.4750   33.9100   46.3940 C   0  0  0  0  0  0  0  0  0  0  0  0
   62.8470   33.8400   46.6570 C   0  0  0  0  0  0  0  0  0  0  0  0
   63.3780   32.7290   47.3180 C   0  0  0  0  0  0  0  0  0  0  0  0
   62.5380   31.6860   47.7190 C   0  0  0  0  0  0  0  0  0  0  0  0
   61.1660   31.7530   47.4610 C   0  0  0  0  0  0  0  0  0  0  0  0
   57.3890   31.5810   44.9360 C   0  0  0  0  0  0  0  0  0  0  0  0
   58.0590   28.3220   45.7130 C   0  0  0  0  0  0  0  0  0  0  0  0
   59.1170   28.1800   44.8340 C   0  0  0  0  0  0  0  0  0  0  0  0
   60.2540   28.2000   45.6110 C   0  0  0  0  0  0  0  0  0  0  0  0
   59.8260   28.3590   46.9120 C   0  0  0  0  0  0  0  0  0  0  0  0
   58.5150   28.4320   46.9400 O   0  0  0  0  0  0  0  0  0  0  0  0
   56.1652   30.0496   42.1438 H   0  0  0  0  0  0  0  0  0  0  0  0
   57.4084   31.9388   41.0828 H   0  0  0  0  0  0  0  0  0  0  0  0
   58.6346   33.5697   42.5192 H   0  0  0  0  0  0  0  0  0  0  0  0
   59.7697   33.8029   44.6613 H   0  0  0  0  0  0  0  0  0  0  0  0
   58.2180   34.4644   45.3144 H   0  0  0  0  0  0  0  0  0  0  0  0
   58.6964   33.6010   47.3254 H   0  0  0  0  0  0  0  0  0  0  0  0
   58.7199   31.9455   46.5864 H   0  0  0  0  0  0  0  0  0  0  0  0
   61.0601   34.7878   45.8769 H   0  0  0  0  0  0  0  0  0  0  0  0
   63.5090   34.6605   46.3431 H   0  0  0  0  0  0  0  0  0  0  0  0
   64.4574   32.6752   47.5228 H   0  0  0  0  0  0  0  0  0  0  0  0
   62.9573   30.8116   48.2382 H   0  0  0  0  0  0  0  0  0  0  0  0
   60.5068   30.9344   47.7856 H   0  0  0  0  0  0  0  0  0  0  0  0
   57.3717   31.5009   46.0329 H   0  0  0  0  0  0  0  0  0  0  0  0
   59.0619   28.0732   43.7406 H   0  0  0  0  0  0  0  0  0  0  0  0
   61.2937   28.1077   45.2637 H   0  0  0  0  0  0  0  0  0  0  0  0
   60.4827   28.4160   47.7926 H   0  0  0  0  0  0  0  0  0  0  0  0
  1  2  2  0
  2  3  1  0
  3  4  1  0
  4  5  2  0
  5  6  1  0
  6  7  2  0
  7  8  1  0
  8  9  1  0
  9 10  1  0
 10 11  1  0
 11 12  2  0
 12 13  1  0
 13 14  2  0
 14 15  1  0
 15 16  2  0
  8 17  2  0
  2 18  1  0
 18 19  2  0
 19 20  1  0
 20 21  2  0
 21 22  1  0
 17  4  1  0
 22 18  1  0
 16 11  1  0
  5 23  1  0
  6 24  1  0
  7 25  1  0
  9 26  1  0
  9 27  1  0
 10 28  1  0
 10 29  1  0
 12 30  1  0
 13 31  1  0
 14 32  1  0
 15 33  1  0
 16 34  1  0
 17 35  1  0
 19 36  1  0
 20 37  1  0
 21 38  1  0
M  CHG  2   3  -1   8   1
M  END
>  <UniqueID>  (46) 
35

>  <SMILES>  (46) 
O=C([N-]c1ccc[n+](CCc2ccccc2)c1)c1ccco1

>  <Energy>  (46) 
66.8384572834376

>  <Genealogy>  (46) 
O=C([N-]c1ccc[n+](CCc2ccccc2)c1)c1ccco1 (protonated)
O=C([N-]c1ccc[n+](CCc2ccccc2)c1)c1ccco1 (3D coordinates assigned)
O=C([N-]c1ccc[n+](CCc2ccccc2)c1)c1ccco1 (optimized conformer: 66.8384572834376 kcal/mol)

>  <smiles>  (46) 
O=C(Nc1ccc[n+](CCc2ccccc2)c1)c1ccco1

>  <score_type>  (46) 
oracle

>  <origin>  (46) 
adg

>  <m_score__min__energy>  (46) 
-8.1099999999999994

>  <m_primary>  (46) 
energy

$$$$
46:0
     RDKit          3D

 25 26  0  0  0  0  0  0  0  0999 V2000
   63.4930   33.7740   47.9350 C   0  0  0  0  0  0  0  0  0  0  0  0
   62.1380   34.2050   47.8640 O   0  0  0  0  0  0  0  0  0  0  0  0
   61.1220   33.5140   47.1890 C   0  0  0  0  0  0  0  0  0  0  0  0
   60.2850   34.2330   46.3300 C   0  0  0  0  0  0  0  0  0  0  0  0
   59.2570   33.5900   45.6350 C   0  0  0  0  0  0  0  0  0  0  0  0
   59.0470   32.2090   45.7850 C   0  0  0  0  0  0  0  0  0  0  0  0
   57.9510   31.5410   45.0400 C   0  0  0  0  0  0  0  0  0  0  0  0
   58.0780   30.5890   44.0420 C   0  0  0  0  0  0  0  0  0  0  0  0
   56.7750   30.3080   43.6960 C   0  0  0  0  0  0  0  0  0  0  0  0
   56.3290   29.3520   42.6430 C   0  0  0  0  0  0  0  0  0  0  0  0
   55.9700   31.0390   44.4280 O   0  0  0  0  0  0  0  0  0  0  0  0
   56.6420   31.7920   45.2490 N   0  0  0  0  0  0  0  0  0  0  0  0
   59.8900   31.4850   46.6500 C   0  0  0  0  0  0  0  0  0  0  0  0
   60.9170   32.1300   47.3450 C   0  0  0  0  0  0  0  0  0  0  0  0
   63.7927   33.6787   48.9891 H   0  0  0  0  0  0  0  0  0  0  0  0
   63.5944   32.7993   47.4354 H   0  0  0  0  0  0  0  0  0  0  0  0
   64.1389   34.5110   47.4354 H   0  0  0  0  0  0  0  0  0  0  0  0
   60.4371   35.3147   46.2001 H   0  0  0  0  0  0  0  0  0  0  0  0
   58.6064   34.1705   44.9644 H   0  0  0  0  0  0  0  0  0  0  0  0
   59.0007   30.1594   43.6248 H   0  0  0  0  0  0  0  0  0  0  0  0
   55.9095   28.4529   43.1180 H   0  0  0  0  0  0  0  0  0  0  0  0
   55.5602   29.8285   42.0170 H   0  0  0  0  0  0  0  0  0  0  0  0
   57.1881   29.0691   42.0170 H   0  0  0  0  0  0  0  0  0  0  0  0
   59.7391   30.4032   46.7798 H   0  0  0  0  0  0  0  0  0  0  0  0
   61.5687   31.5530   48.0176 H   0  0  0  0  0  0  0  0  0  0  0  0
  1  2  1  0
  2  3  1  0
  3  4  2  0
  4  5  1  0
  5  6  2  0
  6  7  1  0
  7  8  1  0
  8  9  2  0
  9 10  1  0
  9 11  1  0
 11 12  1  0
  6 13  1  0
 13 14  2  0
 14  3  1  0
 12  7  2  0
  1 15  1  0
  1 16  1  0
  1 17  1  0
  4 18  1  0
  5 19  1  0
  8 20  1  0
 10 21  1  0
 10 22  1  0
 10 23  1  0
 13 24  1  0
 14 25  1  0
M  END
>  <UniqueID>  (47) 
36

>  <SMILES>  (47) 
COc1ccc(-c2cc(C)on2)cc1

>  <Energy>  (47) 
54.89932022560803

>  <Genealogy>  (47) 
COc1ccc(-c2cc(C)on2)cc1 (3D coordinates assigned)
COc1ccc(-c2cc(C)on2)cc1 (optimized conformer: 54.89932022560803 kcal/mol)

>  <smiles>  (47) 
COc1ccc(-c2cc(C)on2)cc1

>  <score_type>  (47) 
oracle

>  <origin>  (47) 
adg

>  <m_score__min__energy>  (47) 
-5.5300000000000002

>  <m_primary>  (47) 
energy

$$$$
47:0
     RDKit          3D

 29 31  0  0  0  0  0  0  0  0999 V2000
   59.6750   34.5970   48.7590 C   0  0  0  0  0  0  0  0  0  0  0  0
   59.6070   33.1890   48.2430 C   0  0  0  0  0  0  0  0  0  0  0  0
   59.3410   32.1280   49.1210 C   0  0  0  0  0  0  0  0  0  0  0  0
   59.2420   30.8200   48.6360 C   0  0  0  0  0  0  0  0  0  0  0  0
   59.3770   30.5600   47.2640 C   0  0  0  0  0  0  0  0  0  0  0  0
   59.3000   29.1710   46.7700 C   0  0  0  0  0  0  0  0  0  0  0  0
   60.2090   28.2300   47.1040 N   0  0  0  0  0  0  0  0  0  0  0  0
   59.8260   27.1310   46.4210 C   0  0  0  0  0  0  0  0  0  0  0  0
   58.7210   27.3390   45.6780 N   0  0  0  0  0  0  0  0  0  0  0  0
   58.0320   26.3370   44.8690 C   0  0  0  0  0  0  0  0  0  0  0  0
   58.3690   28.6230   45.8950 C   0  0  0  0  0  0  0  0  0  0  0  0
   57.1350   29.2620   45.3850 C   0  0  0  0  0  0  0  0  0  0  0  0
   55.9530   28.6340   45.2440 N   0  0  0  0  0  0  0  0  0  0  0  0
   55.1430   29.5490   44.7370 N   0  0  0  0  0  0  0  0  0  0  0  0
   55.8000   30.6850   44.5700 N   0  0  0  0  0  0  0  0  0  0  0  0
   57.0540   30.5370   44.9640 N   0  0  0  0  0  0  0  0  0  0  0  0
   59.6510   31.6230   46.3880 C   0  0  0  0  0  0  0  0  0  0  0  0
   59.7510   32.9300   46.8730 C   0  0  0  0  0  0  0  0  0  0  0  0
   59.6744   34.5848   49.8589 H   0  0  0  0  0  0  0  0  0  0  0  0
   60.5973   35.0756   48.3981 H   0  0  0  0  0  0  0  0  0  0  0  0
   58.8031   35.1623   48.3981 H   0  0  0  0  0  0  0  0  0  0  0  0
   59.2098   32.3255   50.1951 H   0  0  0  0  0  0  0  0  0  0  0  0
   59.0572   29.9904   49.3342 H   0  0  0  0  0  0  0  0  0  0  0  0
   60.3582   26.1693   46.4658 H   0  0  0  0  0  0  0  0  0  0  0  0
   57.5336   25.6121   45.5294 H   0  0  0  0  0  0  0  0  0  0  0  0
   57.2817   26.8310   44.2342 H   0  0  0  0  0  0  0  0  0  0  0  0
   58.7618   25.8132   44.2342 H   0  0  0  0  0  0  0  0  0  0  0  0
   59.7876   31.4259   45.3145 H   0  0  0  0  0  0  0  0  0  0  0  0
   59.9436   33.7592   46.1764 H   0  0  0  0  0  0  0  0  0  0  0  0
  1  2  1  0
  2  3  2  0
  3  4  1  0
  4  5  2  0
  5  6  1  0
  6  7  1  0
  7  8  2  0
  8  9  1  0
  9 10  1  0
  9 11  1  0
 11 12  1  0
 12 13  1  0
 13 14  2  0
 14 15  1  0
 15 16  1  0
  5 17  1  0
 17 18  2  0
 18  2  1  0
 11  6  2  0
 16 12  2  0
  1 19  1  0
  1 20  1  0
  1 21  1  0
  3 22  1  0
  4 23  1  0
  8 24  1  0
 10 25  1  0
 10 26  1  0
 10 27  1  0
 17 28  1  0
 18 29  1  0
M  CHG  1  15  -1
M  END
>  <UniqueID>  (48) 
37

>  <SMILES>  (48) 
Cc1ccc(-c2ncn(C)c2-c2nn[n-]n2)cc1

>  <Energy>  (48) 
104.49292130277968

>  <Genealogy>  (48) 
Cc1ccc(-c2ncn(C)c2-c2nn[n-]n2)cc1 (protonated)
Cc1ccc(-c2ncn(C)c2-c2nn[n-]n2)cc1 (3D coordinates assigned)
Cc1ccc(-c2ncn(C)c2-c2nn[n-]n2)cc1 (optimized conformer: 104.49292130277968 kcal/mol)

>  <smiles>  (48) 
Cc1ccc(-c2ncn(C)c2-c2nn[nH]n2)cc1

>  <score_type>  (48) 
oracle

>  <origin>  (48) 
adg

>  <m_score__min__energy>  (48) 
-8.6600000000000001

>  <m_primary>  (48) 
energy

$$$$
48:0
     RDKit          3D

 41 42  0  0  0  0  0  0  0  0999 V2000
   57.4610   27.6480   44.9880 C   0  0  0  0  0  0  0  0  0  0  0  0
   57.4070   29.1190   45.4090 C   0  0  1  0  0  0  0  0  0  0  0  0
   58.6640   29.9010   44.9630 C   0  0  0  0  0  0  0  0  0  0  0  0
   58.3960   31.3450   44.9160 N   0  0  0  0  0  0  0  0  0  0  0  0
   58.0920   31.9010   46.2560 C   0  0  0  0  0  0  0  0  0  0  0  0
   58.1070   33.4370   46.2210 C   0  0  0  0  0  0  0  0  0  0  0  0
   59.0340   34.0350   47.2970 C   0  0  0  0  0  0  0  0  0  0  0  0
   59.5280   32.8290   48.5870 S   0  0  0  0  0  0  0  0  0  0  0  0
   61.2990   32.9010   48.2670 C   0  0  0  0  0  0  0  0  0  0  0  0
   62.0480   33.9930   48.7370 C   0  0  0  0  0  0  0  0  0  0  0  0
   61.4520   34.9810   49.4490 F   0  0  0  0  0  0  0  0  0  0  0  0
   63.4150   34.0780   48.4570 C   0  0  0  0  0  0  0  0  0  0  0  0
   64.0470   33.0690   47.7270 C   0  0  0  0  0  0  0  0  0  0  0  0
   63.3160   31.9620   47.2890 C   0  0  0  0  0  0  0  0  0  0  0  0
   61.9470   31.8670   47.5620 C   0  0  0  0  0  0  0  0  0  0  0  0
   61.0820   30.4250   47.0400 Cl  0  0  0  0  0  0  0  0  0  0  0  0
   57.3330   31.6270   43.9300 C   0  0  0  0  0  0  0  0  0  0  0  0
   56.2240   30.5380   43.8760 C   0  0  1  0  0  0  0  0  0  0  0  0
   56.2670   29.7110   42.5830 C   0  0  0  0  0  0  0  0  0  0  0  0
   56.1680   29.7100   45.0290 O   0  0  0  0  0  0  0  0  0  0  0  0
   57.4844   27.0107   45.8843 H   0  0  0  0  0  0  0  0  0  0  0  0
   56.5712   27.4053   44.3886 H   0  0  0  0  0  0  0  0  0  0  0  0
   58.3662   27.4711   44.3886 H   0  0  0  0  0  0  0  0  0  0  0  0
   57.4356   29.1720   46.5073 H   0  0  0  0  0  0  0  0  0  0  0  0
   58.9648   29.5581   43.9620 H   0  0  0  0  0  0  0  0  0  0  0  0
   59.4680   29.7170   45.6908 H   0  0  0  0  0  0  0  0  0  0  0  0
   57.0966   31.5564   46.5729 H   0  0  0  0  0  0  0  0  0  0  0  0
   58.8584   31.5552   46.9653 H   0  0  0  0  0  0  0  0  0  0  0  0
   58.4558   33.7653   45.2308 H   0  0  0  0  0  0  0  0  0  0  0  0
   57.0846   33.7893   46.4226 H   0  0  0  0  0  0  0  0  0  0  0  0
   59.9431   34.4101   46.8043 H   0  0  0  0  0  0  0  0  0  0  0  0
   58.4723   34.8358   47.8001 H   0  0  0  0  0  0  0  0  0  0  0  0
   63.9947   34.9425   48.8128 H   0  0  0  0  0  0  0  0  0  0  0  0
   65.1199   33.1459   47.4970 H   0  0  0  0  0  0  0  0  0  0  0  0
   63.8190   31.1614   46.7269 H   0  0  0  0  0  0  0  0  0  0  0  0
   57.7943   31.7022   42.9342 H   0  0  0  0  0  0  0  0  0  0  0  0
   56.8478   32.5642   44.2403 H   0  0  0  0  0  0  0  0  0  0  0  0
   55.2809   31.1042   43.8703 H   0  0  0  0  0  0  0  0  0  0  0  0
   56.3226   28.6414   42.8336 H   0  0  0  0  0  0  0  0  0  0  0  0
   55.3577   29.9030   41.9946 H   0  0  0  0  0  0  0  0  0  0  0  0
   57.1515   29.9962   41.9946 H   0  0  0  0  0  0  0  0  0  0  0  0
  1  2  1  0
  2  3  1  0
  3  4  1  0
  4  5  1  0
  5  6  1  0
  6  7  1  0
  7  8  1  0
  8  9  1  0
  9 10  2  0
 10 11  1  0
 10 12  1  0
 12 13  2  0
 13 14  1  0
 14 15  2  0
 15 16  1  0
  4 17  1  0
 17 18  1  0
 18 19  1  0
 18 20  1  0
 20  2  1  0
 15  9  1  0
  1 21  1  0
  1 22  1  0
  1 23  1  0
  2 24  1  1
  3 25  1  0
  3 26  1  0
  5 27  1  0
  5 28  1  0
  6 29  1  0
  6 30  1  0
  7 31  1  0
  7 32  1  0
 12 33  1  0
 13 34  1  0
 14 35  1  0
 17 36  1  0
 17 37  1  0
 18 38  1  6
 19 39  1  0
 19 40  1  0
 19 41  1  0
M  END
>  <UniqueID>  (49) 
38

>  <SMILES>  (49) 
C[C@@H]1CN(CCCSc2c(F)cccc2Cl)C[C@H](C)O1

>  <Energy>  (49) 
49.072755052055115

>  <Genealogy>  (49) 
C[C@@H]1CN(CCCSc2c(F)cccc2Cl)C[C@H](C)O1 (chirality)
C[C@@H]1CN(CCCSc2c(F)cccc2Cl)C[C@H](C)O1 (3D coordinates assigned)
C[C@@H]1CN(CCCSc2c(F)cccc2Cl)C[C@H](C)O1 (nonaromatic ring conformer: 49.072755052055115 kcal/mol)

>  <smiles>  (49) 
CC1CN(CCCSc2c(F)cccc2Cl)CC(C)O1

>  <score_type>  (49) 
oracle

>  <origin>  (49) 
adg

>  <m_score__min__energy>  (49) 
-7.4000000000000004

>  <m_primary>  (49) 
energy

$$$$
49:0
     RDKit          3D

 46 50  0  0  0  0  0  0  0  0999 V2000
   63.2960   32.4980   49.2340 F   0  0  0  0  0  0  0  0  0  0  0  0
   62.3530   31.6900   48.6910 C   0  0  0  0  0  0  0  0  0  0  0  0
   62.2950   31.5140   47.3070 C   0  0  0  0  0  0  0  0  0  0  0  0
   61.3230   30.6810   46.7450 C   0  0  0  0  0  0  0  0  0  0  0  0
   60.4070   30.0040   47.5700 C   0  0  0  0  0  0  0  0  0  0  0  0
   59.3630   29.1290   46.9900 C   0  0  0  0  0  0  0  0  0  0  0  0
   59.4100   27.7990   47.2800 N   0  0  0  0  0  0  0  0  0  0  0  0
   58.4530   26.9380   46.8490 C   0  0  0  0  0  0  0  0  0  0  0  0
   58.5210   25.5790   47.1700 C   0  0  0  0  0  0  0  0  0  0  0  0
   57.5170   24.7080   46.7320 C   0  0  0  0  0  0  0  0  0  0  0  0
   56.4460   25.1900   45.9590 C   0  0  0  0  0  0  0  0  0  0  0  0
   55.3460   24.2600   45.5280 C   0  0  0  0  0  0  0  0  0  0  0  0
   55.8660   23.2800   44.5780 N   0  0  0  0  0  0  0  0  0  0  0  0
   56.8390   22.3830   44.7970 C   0  0  0  0  0  0  0  0  0  0  0  0
   57.0730   21.7200   43.6140 C   0  0  0  0  0  0  0  0  0  0  0  0
   56.2600   22.2070   42.6530 N   0  0  0  0  0  0  0  0  0  0  0  0
   55.5410   23.1620   43.2770 C   0  0  0  0  0  0  0  0  0  0  0  0
   56.3750   26.5590   45.6490 C   0  0  0  0  0  0  0  0  0  0  0  0
   57.3780   27.4290   46.0890 C   0  0  0  0  0  0  0  0  0  0  0  0
   57.3320   28.7490   45.7800 N   0  0  0  0  0  0  0  0  0  0  0  0
   58.2960   29.6180   46.1910 C   0  0  0  0  0  0  0  0  0  0  0  0
   58.2050   31.0250   45.7400 C   0  0  0  0  0  0  0  0  0  0  0  0
   58.1550   32.0600   46.6880 C   0  0  0  0  0  0  0  0  0  0  0  0
   58.0550   33.3920   46.2740 C   0  0  0  0  0  0  0  0  0  0  0  0
   57.9900   33.7000   44.9130 C   0  0  0  0  0  0  0  0  0  0  0  0
   57.8930   34.9920   44.5130 F   0  0  0  0  0  0  0  0  0  0  0  0
   58.0170   32.6750   43.9630 C   0  0  0  0  0  0  0  0  0  0  0  0
   58.1160   31.3420   44.3720 C   0  0  0  0  0  0  0  0  0  0  0  0
   60.4570   30.2040   48.9590 C   0  0  0  0  0  0  0  0  0  0  0  0
   61.4320   31.0380   49.5170 C   0  0  0  0  0  0  0  0  0  0  0  0
   63.0158   32.0320   46.6573 H   0  0  0  0  0  0  0  0  0  0  0  0
   61.2745   30.5546   45.6534 H   0  0  0  0  0  0  0  0  0  0  0  0
   59.3622   25.1950   47.7658 H   0  0  0  0  0  0  0  0  0  0  0  0
   57.5660   23.6407   46.9938 H   0  0  0  0  0  0  0  0  0  0  0  0
   54.9450   23.7369   46.4086 H   0  0  0  0  0  0  0  0  0  0  0  0
   54.5476   24.8430   45.0457 H   0  0  0  0  0  0  0  0  0  0  0  0
   57.3572   22.2086   45.7515 H   0  0  0  0  0  0  0  0  0  0  0  0
   57.8102   20.9158   43.4731 H   0  0  0  0  0  0  0  0  0  0  0  0
   54.7754   23.7753   42.7792 H   0  0  0  0  0  0  0  0  0  0  0  0
   55.5305   26.9464   45.0602 H   0  0  0  0  0  0  0  0  0  0  0  0
   58.1947   31.8218   47.7612 H   0  0  0  0  0  0  0  0  0  0  0  0
   58.0275   34.1986   47.0214 H   0  0  0  0  0  0  0  0  0  0  0  0
   57.9602   32.9178   42.8916 H   0  0  0  0  0  0  0  0  0  0  0  0
   58.1244   30.5378   43.6215 H   0  0  0  0  0  0  0  0  0  0  0  0
   59.7265   29.7029   49.6111 H   0  0  0  0  0  0  0  0  0  0  0  0
   61.4742   31.1810   50.6068 H   0  0  0  0  0  0  0  0  0  0  0  0
  1  2  1  0
  2  3  2  0
  3  4  1  0
  4  5  2  0
  5  6  1  0
  6  7  2  0
  7  8  1  0
  8  9  2  0
  9 10  1  0
 10 11  2  0
 11 12  1  0
 12 13  1  0
 13 14  1  0
 14 15  2  0
 15 16  1  0
 16 17  2  0
 11 18  1  0
 18 19  2  0
 19 20  1  0
 20 21  2  0
 21 22  1  0
 22 23  2  0
 23 24  1  0
 24 25  2  0
 25 26  1  0
 25 27  1  0
 27 28  2  0
  5 29  1  0
 29 30  2  0
 30  2  1  0
 21  6  1  0
 28 22  1  0
 19  8  1  0
 17 13  1  0
  3 31  1  0
  4 32  1  0
  9 33  1  0
 10 34  1  0
 12 35  1  0
 12 36  1  0
 14 37  1  0
 15 38  1  0
 17 39  1  0
 18 40  1  0
 23 41  1  0
 24 42  1  0
 27 43  1  0
 28 44  1  0
 29 45  1  0
 30 46  1  0
M  END
>  <UniqueID>  (50) 
39

>  <SMILES>  (50) 
Fc1ccc(-c2nc3ccc(Cn4ccnc4)cc3nc2-c2ccc(F)cc2)cc1

>  <Energy>  (50) 
95.23790299869002

>  <Genealogy>  (50) 
Fc1ccc(-c2nc3ccc(Cn4ccnc4)cc3nc2-c2ccc(F)cc2)cc1 (3D coordinates assigned)
Fc1ccc(-c2nc3ccc(Cn4ccnc4)cc3nc2-c2ccc(F)cc2)cc1 (optimized conformer: 95.23790299869002 kcal/mol)

>  <smiles>  (50) 
Fc1ccc(-c2nc3ccc(Cn4ccnc4)cc3nc2-c2ccc(F)cc2)cc1

>  <score_type>  (50) 
oracle

>  <origin>  (50) 
adg

>  <m_score__min__energy>  (50) 
-7.79

>  <m_primary>  (50) 
energy

$$$$
