0:0
     RDKit          3D

 27 27  0  0  0  0  0  0  0  0999 V2000
   60.4300   28.8310   45.1600 C   0  0  0  0  0  0  0  0  0  0  0  0
   59.9190   28.8190   46.5970 C   0  0  0  0  0  0  0  0  0  0  0  0
   58.6590   29.5590   46.7130 N   0  0  0  0  0  0  0  0  0  0  0  0
   58.3980   30.7800   45.9910 C   0  0  0  0  0  0  0  0  0  0  0  0
   59.0860   31.9650   46.3210 C   0  0  0  0  0  0  0  0  0  0  0  0
   58.7790   33.1830   45.6930 C   0  0  0  0  0  0  0  0  0  0  0  0
   59.5550   34.4310   46.0320 C   0  0  0  0  0  0  0  0  0  0  0  0
   60.9130   34.1680   46.0890 F   0  0  0  0  0  0  0  0  0  0  0  0
   59.3460   35.4090   45.0750 F   0  0  0  0  0  0  0  0  0  0  0  0
   59.1380   34.9060   47.2620 F   0  0  0  0  0  0  0  0  0  0  0  0
   57.7990   33.2040   44.6890 C   0  0  0  0  0  0  0  0  0  0  0  0
   57.1170   32.0390   44.3430 C   0  0  0  0  0  0  0  0  0  0  0  0
   57.4100   30.8210   44.9750 C   0  0  0  0  0  0  0  0  0  0  0  0
   56.6980   29.6070   44.5180 C   0  0  0  0  0  0  0  0  0  0  0  0
   55.3320   29.4000   44.8800 N   0  0  0  0  0  0  0  0  0  0  0  0
   57.3950   28.6180   43.4110 S   0  0  0  0  0  0  0  0  0  0  0  0
   61.5297   28.8568   45.1621 H   0  0  0  0  0  0  0  0  0  0  0  0
   60.0855   27.9245   44.6408 H   0  0  0  0  0  0  0  0  0  0  0  0
   60.0433   29.7203   44.6408 H   0  0  0  0  0  0  0  0  0  0  0  0
   59.7549   27.7778   46.9117 H   0  0  0  0  0  0  0  0  0  0  0  0
   60.6695   29.3023   47.2397 H   0  0  0  0  0  0  0  0  0  0  0  0
   57.9130   29.1710   47.3340 H   0  0  0  0  0  0  0  0  0  0  0  0
   59.8776   31.9353   47.0842 H   0  0  0  0  0  0  0  0  0  0  0  0
   57.5674   34.1466   44.1714 H   0  0  0  0  0  0  0  0  0  0  0  0
   56.3399   32.0747   43.5653 H   0  0  0  0  0  0  0  0  0  0  0  0
   54.7960   28.5890   44.4970 H   0  0  0  0  0  0  0  0  0  0  0  0
   54.8570   30.0400   45.5540 H   0  0  0  0  0  0  0  0  0  0  0  0
  1  2  1  0
  2  3  1  0
  3  4  1  0
  4  5  2  0
  5  6  1  0
  6  7  1  0
  7  8  1  0
  7  9  1  0
  7 10  1  0
  6 11  2  0
 11 12  1  0
 12 13  2  0
 13 14  1  0
 14 15  1  0
 14 16  2  0
 13  4  1  0
  1 17  1  0
  1 18  1  0
  1 19  1  0
  2 20  1  0
  2 21  1  0
  3 22  1  0
  5 23  1  0
 11 24  1  0
 12 25  1  0
 15 26  1  0
 15 27  1  0
M  END
>  <UniqueID>  (1) 
1

>  <SMILES>  (1) 
CCNc1cc(C(F)(F)F)ccc1C(N)=S

>  <Energy>  (1) 
28.943165071874294

>  <Genealogy>  (1) 
CCNc1cc(C(F)(F)F)ccc1C(N)=S (3D coordinates assigned)
CCNc1cc(C(F)(F)F)ccc1C(N)=S (optimized conformer: 28.943165071874294 kcal/mol)

>  <smiles>  (1) 
CCNc1cc(C(F)(F)F)ccc1C(N)=S

>  <score_type>  (1) 
oracle

>  <origin>  (1) 
adg

>  <m_score__min__energy>  (1) 
-5.9000000000000004

>  <m_primary>  (1) 
energy

$$$$
1:0
     RDKit          3D

 38 40  0  0  0  0  0  0  0  0999 V2000
   56.7640   28.2470   45.4500 O   0  0  0  0  0  0  0  0  0  0  0  0
   57.3020   29.3720   45.6290 C   0  0  0  0  0  0  0  0  0  0  0  0
   56.7900   30.5010   44.9070 N   0  0  0  0  0  0  0  0  0  0  0  0
   57.5770   31.5950   44.3440 C   0  0  0  0  0  0  0  0  0  0  0  0
   57.1030   32.9450   44.8910 C   0  0  0  0  0  0  0  0  0  0  0  0
   58.1040   33.5000   45.8670 C   0  0  0  0  0  0  0  0  0  0  0  0
   59.0870   34.4070   45.4370 C   0  0  0  0  0  0  0  0  0  0  0  0
   59.9960   34.9460   46.3530 C   0  0  0  0  0  0  0  0  0  0  0  0
   59.9240   34.5920   47.7030 C   0  0  0  0  0  0  0  0  0  0  0  0
   58.9390   33.7010   48.1410 C   0  0  0  0  0  0  0  0  0  0  0  0
   58.0290   33.1580   47.2280 C   0  0  0  0  0  0  0  0  0  0  0  0
   58.4510   29.4660   46.5480 C   0  0  0  0  0  0  0  0  0  0  0  0
   58.8870   28.5150   47.4470 C   0  0  0  0  0  0  0  0  0  0  0  0
   59.9630   28.9850   48.0330 O   0  0  0  0  0  0  0  0  0  0  0  0
   60.2110   30.1730   47.5230 C   0  0  0  0  0  0  0  0  0  0  0  0
   61.3550   31.0180   47.9430 C   0  0  0  0  0  0  0  0  0  0  0  0
   61.9140   31.9830   47.0850 C   0  0  0  0  0  0  0  0  0  0  0  0
   62.9930   32.7670   47.5100 C   0  0  0  0  0  0  0  0  0  0  0  0
   63.5240   32.5960   48.7900 C   0  0  0  0  0  0  0  0  0  0  0  0
   64.5690   33.3560   49.1990 F   0  0  0  0  0  0  0  0  0  0  0  0
   62.9760   31.6400   49.6500 C   0  0  0  0  0  0  0  0  0  0  0  0
   61.8980   30.8560   49.2310 C   0  0  0  0  0  0  0  0  0  0  0  0
   59.3010   30.5080   46.5820 N   0  0  0  0  0  0  0  0  0  0  0  0
   58.6351   31.4507   44.6077 H   0  0  0  0  0  0  0  0  0  0  0  0
   57.4506   31.5938   43.2513 H   0  0  0  0  0  0  0  0  0  0  0  0
   56.9817   33.6511   44.0563 H   0  0  0  0  0  0  0  0  0  0  0  0
   56.1435   32.8012   45.4093 H   0  0  0  0  0  0  0  0  0  0  0  0
   59.1418   34.6941   44.3765 H   0  0  0  0  0  0  0  0  0  0  0  0
   60.7689   35.6497   46.0103 H   0  0  0  0  0  0  0  0  0  0  0  0
   60.6422   35.0142   48.4213 H   0  0  0  0  0  0  0  0  0  0  0  0
   58.8798   33.4269   49.2047 H   0  0  0  0  0  0  0  0  0  0  0  0
   57.2524   32.4612   47.5763 H   0  0  0  0  0  0  0  0  0  0  0  0
   58.4175   27.5388   47.6382 H   0  0  0  0  0  0  0  0  0  0  0  0
   61.5010   32.1220   46.0750 H   0  0  0  0  0  0  0  0  0  0  0  0
   63.4238   33.5199   46.8336 H   0  0  0  0  0  0  0  0  0  0  0  0
   63.3941   31.5047   50.6584 H   0  0  0  0  0  0  0  0  0  0  0  0
   61.4705   30.1064   49.9132 H   0  0  0  0  0  0  0  0  0  0  0  0
   59.2430   31.3760   46.0080 H   0  0  0  0  0  0  0  0  0  0  0  0
  1  2  2  0
  2  3  1  0
  3  4  1  0
  4  5  1  0
  5  6  1  0
  6  7  2  0
  7  8  1  0
  8  9  2  0
  9 10  1  0
 10 11  2  0
  2 12  1  0
 12 13  2  0
 13 14  1  0
 14 15  1  0
 15 16  1  0
 16 17  2  0
 17 18  1  0
 18 19  2  0
 19 20  1  0
 19 21  1  0
 21 22  2  0
 15 23  2  0
 11  6  1  0
 23 12  1  0
 22 16  1  0
  4 24  1  0
  4 25  1  0
  5 26  1  0
  5 27  1  0
  7 28  1  0
  8 29  1  0
  9 30  1  0
 10 31  1  0
 11 32  1  0
 13 33  1  0
 17 34  1  0
 18 35  1  0
 21 36  1  0
 22 37  1  0
 23 38  1  0
M  CHG  2   3  -1  23   1
M  END
>  <UniqueID>  (2) 
2

>  <SMILES>  (2) 
O=C([N-]CCc1ccccc1)c1coc(-c2ccc(F)cc2)[nH+]1

>  <Energy>  (2) 
72.31396870437908

>  <Genealogy>  (2) 
O=C([N-]CCc1ccccc1)c1coc(-c2ccc(F)cc2)[nH+]1 (protonated)
O=C([N-]CCc1ccccc1)c1coc(-c2ccc(F)cc2)[nH+]1 (3D coordinates assigned)
O=C([N-]CCc1ccccc1)c1coc(-c2ccc(F)cc2)[nH+]1 (optimized conformer: 72.31396870437908 kcal/mol)

>  <smiles>  (2) 
O=C(NCCc1ccccc1)c1coc(-c2ccc(F)cc2)n1

>  <score_type>  (2) 
oracle

>  <origin>  (2) 
adg

>  <m_score__min__energy>  (2) 
-6.8399999999999999

>  <m_primary>  (2) 
energy

$$$$
2:0
     RDKit          3D

 56 58  0  0  0  0  0  0  0  0999 V2000
   64.7690   32.5330   49.6780 C   0  0  0  0  0  0  0  0  0  0  0  0
   63.4220   31.8960   49.3410 C   0  0  0  0  0  0  0  0  0  0  0  0
   62.5600   32.8110   48.5510 N   0  0  0  0  0  0  0  0  0  0  0  0
   63.3850   33.8560   47.9000 C   0  0  0  0  0  0  0  0  0  0  0  0
   63.2250   33.8210   46.3780 C   0  0  0  0  0  0  0  0  0  0  0  0
   61.4880   33.4140   49.3900 C   0  0  0  0  0  0  0  0  0  0  0  0
   60.6510   32.3280   50.0870 C   0  0  0  0  0  0  0  0  0  0  0  0
   59.8060   31.4720   49.1270 C   0  0  0  0  0  0  0  0  0  0  0  0
   60.5630   31.0520   47.9290 N   0  0  0  0  0  0  0  0  0  0  0  0
   59.7050   30.9960   46.7580 C   0  0  0  0  0  0  0  0  0  0  0  0
   59.3000   32.2160   46.1230 C   0  0  0  0  0  0  0  0  0  0  0  0
   59.7750   33.4770   46.5700 C   0  0  0  0  0  0  0  0  0  0  0  0
   59.3770   34.6590   45.9550 C   0  0  0  0  0  0  0  0  0  0  0  0
   58.5060   34.6280   44.8780 C   0  0  0  0  0  0  0  0  0  0  0  0
   58.0270   33.4110   44.4040 C   0  0  0  0  0  0  0  0  0  0  0  0
   58.4070   32.1840   45.0060 C   0  0  0  0  0  0  0  0  0  0  0  0
   57.9310   30.9820   44.5290 N   0  0  0  0  0  0  0  0  0  0  0  0
   56.9820   30.9450   43.3960 C   0  0  0  0  0  0  0  0  0  0  0  0
   58.3620   29.8190   45.1080 C   0  0  0  0  0  0  0  0  0  0  0  0
   57.9240   28.2640   44.6380 S   0  0  0  0  0  0  0  0  0  0  0  0
   58.8220   27.4660   45.7930 C   0  0  0  0  0  0  0  0  0  0  0  0
   58.8510   25.9730   45.9160 C   0  0  0  0  0  0  0  0  0  0  0  0
   59.5140   28.4000   46.5820 C   0  0  0  0  0  0  0  0  0  0  0  0
   60.3910   27.9190   47.7110 C   0  0  0  0  0  0  0  0  0  0  0  0
   59.2390   29.7640   46.2000 C   0  0  0  0  0  0  0  0  0  0  0  0
   64.8855   32.5881   50.7704 H   0  0  0  0  0  0  0  0  0  0  0  0
   65.5797   31.9229   49.2531 H   0  0  0  0  0  0  0  0  0  0  0  0
   64.8117   33.5467   49.2531 H   0  0  0  0  0  0  0  0  0  0  0  0
   63.5976   30.9802   48.7574 H   0  0  0  0  0  0  0  0  0  0  0  0
   62.9051   31.6708   50.2855 H   0  0  0  0  0  0  0  0  0  0  0  0
   63.0716   34.8430   48.2709 H   0  0  0  0  0  0  0  0  0  0  0  0
   64.4410   33.6670   48.1431 H   0  0  0  0  0  0  0  0  0  0  0  0
   62.1794   33.5923   46.1244 H   0  0  0  0  0  0  0  0  0  0  0  0
   63.4984   34.8002   45.9580 H   0  0  0  0  0  0  0  0  0  0  0  0
   63.8823   33.0454   45.9580 H   0  0  0  0  0  0  0  0  0  0  0  0
   61.9492   34.0572   50.1539 H   0  0  0  0  0  0  0  0  0  0  0  0
   60.8242   34.0011   48.7384 H   0  0  0  0  0  0  0  0  0  0  0  0
   61.3354   31.6615   50.6324 H   0  0  0  0  0  0  0  0  0  0  0  0
   59.9457   32.8491   50.7511 H   0  0  0  0  0  0  0  0  0  0  0  0
   59.4655   30.5734   49.6623 H   0  0  0  0  0  0  0  0  0  0  0  0
   58.9585   32.0863   48.7889 H   0  0  0  0  0  0  0  0  0  0  0  0
   61.3770   31.6690   47.7800 H   0  0  0  0  0  0  0  0  0  0  0  0
   61.0140   30.1200   48.0740 H   0  0  0  0  0  0  0  0  0  0  0  0
   60.4719   33.5199   47.4200 H   0  0  0  0  0  0  0  0  0  0  0  0
   59.7555   35.6232   46.3254 H   0  0  0  0  0  0  0  0  0  0  0  0
   58.1929   35.5666   44.3973 H   0  0  0  0  0  0  0  0  0  0  0  0
   57.3398   33.3999   43.5452 H   0  0  0  0  0  0  0  0  0  0  0  0
   55.9524   30.9049   43.7812 H   0  0  0  0  0  0  0  0  0  0  0  0
   57.1087   31.8488   42.7819 H   0  0  0  0  0  0  0  0  0  0  0  0
   57.1787   30.0538   42.7819 H   0  0  0  0  0  0  0  0  0  0  0  0
   58.8564   25.6928   46.9797 H   0  0  0  0  0  0  0  0  0  0  0  0
   57.9610   25.5476   45.4293 H   0  0  0  0  0  0  0  0  0  0  0  0
   59.7569   25.5825   45.4293 H   0  0  0  0  0  0  0  0  0  0  0  0
   59.9236   28.1754   48.6732 H   0  0  0  0  0  0  0  0  0  0  0  0
   60.5126   26.8279   47.6416 H   0  0  0  0  0  0  0  0  0  0  0  0
   61.3764   28.4029   47.6416 H   0  0  0  0  0  0  0  0  0  0  0  0
  1  2  1  0
  2  3  1  0
  3  4  1  0
  4  5  1  0
  3  6  1  0
  6  7  1  0
  7  8  1  0
  8  9  1  0
  9 10  1  0
 10 11  2  0
 11 12  1  0
 12 13  2  0
 13 14  1  0
 14 15  2  0
 15 16  1  0
 16 17  2  0
 17 18  1  0
 17 19  1  0
 19 20  1  0
 20 21  1  0
 21 22  1  0
 21 23  2  0
 23 24  1  0
 23 25  1  0
 25 10  1  0
 16 11  1  0
 25 19  2  0
  1 26  1  0
  1 27  1  0
  1 28  1  0
  2 29  1  0
  2 30  1  0
  4 31  1  0
  4 32  1  0
  5 33  1  0
  5 34  1  0
  5 35  1  0
  6 36  1  0
  6 37  1  0
  7 38  1  0
  7 39  1  0
  8 40  1  0
  8 41  1  0
  9 42  1  0
  9 43  1  0
 12 44  1  0
 13 45  1  0
 14 46  1  0
 15 47  1  0
 18 48  1  0
 18 49  1  0
 18 50  1  0
 22 51  1  0
 22 52  1  0
 22 53  1  0
 24 54  1  0
 24 55  1  0
 24 56  1  0
M  CHG  2   9   1  17   1
M  END
>  <UniqueID>  (3) 
3

>  <SMILES>  (3) 
CCN(CC)CCC[NH2+]c1c2ccccc2[n+](C)c2sc(C)c(C)c12

>  <Energy>  (3) 
109.21048011805242

>  <Genealogy>  (3) 
CCN(CC)CCC[NH2+]c1c2ccccc2[n+](C)c2sc(C)c(C)c12 (protonated)
CCN(CC)CCC[NH2+]c1c2ccccc2[n+](C)c2sc(C)c(C)c12 (3D coordinates assigned)
CCN(CC)CCC[NH2+]c1c2ccccc2[n+](C)c2sc(C)c(C)c12 (optimized conformer: 109.21048011805242 kcal/mol)

>  <smiles>  (3) 
CCN(CC)CCCNc1c2ccccc2[n+](C)c2sc(C)c(C)c12

>  <score_type>  (3) 
oracle

>  <origin>  (3) 
adg

>  <m_score__min__energy>  (3) 
-4.3200000000000003

>  <m_primary>  (3) 
energy

$$$$
3:0
     RDKit          3D

 64 66  0  0  0  0  0  0  0  0999 V2000
   60.7740   28.6190   44.8700 C   0  0  0  0  0  0  0  0  0  0  0  0
   59.6340   29.6450   44.8620 C   0  0  0  0  0  0  0  0  0  0  0  0
   58.2820   29.0250   44.8360 N   0  0  0  0  0  0  0  0  0  0  0  0
   57.2010   29.9760   44.4510 C   0  0  0  0  0  0  0  0  0  0  0  0
   57.6750   31.2190   43.6810 C   0  0  0  0  0  0  0  0  0  0  0  0
   58.3190   27.8010   43.9930 C   0  0  0  0  0  0  0  0  0  0  0  0
   57.7510   26.5560   44.7010 C   0  0  0  0  0  0  0  0  0  0  0  0
   57.2050   26.9180   45.9570 O   0  0  0  0  0  0  0  0  0  0  0  0
   57.8250   26.1910   46.9980 C   0  0  0  0  0  0  0  0  0  0  0  0
   59.0370   26.9730   47.4990 C   0  0  0  0  0  0  0  0  0  0  0  0
   58.7690   28.3640   47.4880 O   0  0  0  0  0  0  0  0  0  0  0  0
   59.8200   29.0780   48.1030 C   0  0  0  0  0  0  0  0  0  0  0  0
   59.3670   29.5400   49.4850 C   0  0  0  0  0  0  0  0  0  0  0  0
   59.3330   31.0000   49.5630 N   0  0  0  0  0  0  0  0  0  0  0  0
   60.2570   31.7900   48.8010 C   0  0  0  0  0  0  0  0  0  0  0  0
   59.7930   32.5850   47.7410 C   0  0  0  0  0  0  0  0  0  0  0  0
   58.4180   32.6350   47.4270 C   0  0  0  0  0  0  0  0  0  0  0  0
   57.9490   33.4640   46.4110 C   0  0  0  0  0  0  0  0  0  0  0  0
   58.8380   34.2690   45.7060 C   0  0  0  0  0  0  0  0  0  0  0  0
   60.2020   34.2280   45.9910 C   0  0  0  0  0  0  0  0  0  0  0  0
   60.7170   33.3590   46.9890 C   0  0  0  0  0  0  0  0  0  0  0  0
   62.0730   33.2670   47.2480 N   0  0  0  0  0  0  0  0  0  0  0  0
   63.0490   33.8480   46.2980 C   0  0  0  0  0  0  0  0  0  0  0  0
   62.5190   32.6030   48.3770 C   0  0  0  0  0  0  0  0  0  0  0  0
   63.8650   32.6930   48.8130 C   0  0  0  0  0  0  0  0  0  0  0  0
   64.3170   31.9620   49.9120 C   0  0  0  0  0  0  0  0  0  0  0  0
   63.4440   31.1320   50.6080 C   0  0  0  0  0  0  0  0  0  0  0  0
   64.0240   30.2040   51.9800 Cl  0  0  0  0  0  0  0  0  0  0  0  0
   62.1040   31.0570   50.2310 C   0  0  0  0  0  0  0  0  0  0  0  0
   61.6200   31.8120   49.1400 C   0  0  0  0  0  0  0  0  0  0  0  0
   61.0425   28.3773   45.9090 H   0  0  0  0  0  0  0  0  0  0  0  0
   60.4477   27.7043   44.3534 H   0  0  0  0  0  0  0  0  0  0  0  0
   61.6494   29.0395   44.3534 H   0  0  0  0  0  0  0  0  0  0  0  0
   59.7162   30.2647   45.7671 H   0  0  0  0  0  0  0  0  0  0  0  0
   59.7372   30.2382   43.9414 H   0  0  0  0  0  0  0  0  0  0  0  0
   58.0760   28.7120   45.8170 H   0  0  0  0  0  0  0  0  0  0  0  0
   56.4808   29.4364   43.8184 H   0  0  0  0  0  0  0  0  0  0  0  0
   56.7651   30.3440   45.3915 H   0  0  0  0  0  0  0  0  0  0  0  0
   57.9732   32.0009   44.3949 H   0  0  0  0  0  0  0  0  0  0  0  0
   58.5347   30.9528   43.0485 H   0  0  0  0  0  0  0  0  0  0  0  0
   56.8563   31.5928   43.0485 H   0  0  0  0  0  0  0  0  0  0  0  0
   57.7283   27.9854   43.0836 H   0  0  0  0  0  0  0  0  0  0  0  0
   59.3752   27.5934   43.7662 H   0  0  0  0  0  0  0  0  0  0  0  0
   56.9630   26.1099   44.0765 H   0  0  0  0  0  0  0  0  0  0  0  0
   58.5614   25.8286   44.8564 H   0  0  0  0  0  0  0  0  0  0  0  0
   57.1118   26.0481   47.8232 H   0  0  0  0  0  0  0  0  0  0  0  0
   58.1466   25.2080   46.6236 H   0  0  0  0  0  0  0  0  0  0  0  0
   59.2718   26.6577   48.5263 H   0  0  0  0  0  0  0  0  0  0  0  0
   59.8906   26.7699   46.8356 H   0  0  0  0  0  0  0  0  0  0  0  0
   60.6999   28.4254   48.2027 H   0  0  0  0  0  0  0  0  0  0  0  0
   60.0848   29.9510   47.4884 H   0  0  0  0  0  0  0  0  0  0  0  0
   58.3598   29.1453   49.6843 H   0  0  0  0  0  0  0  0  0  0  0  0
   60.0819   29.1651   50.2323 H   0  0  0  0  0  0  0  0  0  0  0  0
   58.7610   31.4820   50.2930 H   0  0  0  0  0  0  0  0  0  0  0  0
   57.7085   32.0120   47.9913 H   0  0  0  0  0  0  0  0  0  0  0  0
   56.8767   33.4823   46.1662 H   0  0  0  0  0  0  0  0  0  0  0  0
   58.4629   34.9410   44.9200 H   0  0  0  0  0  0  0  0  0  0  0  0
   60.8908   34.8797   45.4335 H   0  0  0  0  0  0  0  0  0  0  0  0
   63.8624   34.3322   46.8583 H   0  0  0  0  0  0  0  0  0  0  0  0
   63.4642   33.0499   45.6650 H   0  0  0  0  0  0  0  0  0  0  0  0
   62.5454   34.5934   45.6650 H   0  0  0  0  0  0  0  0  0  0  0  0
   64.5647   33.3502   48.2758 H   0  0  0  0  0  0  0  0  0  0  0  0
   65.3672   32.0422   50.2293 H   0  0  0  0  0  0  0  0  0  0  0  0
   61.4170   30.4035   50.7886 H   0  0  0  0  0  0  0  0  0  0  0  0
  1  2  1  0
  2  3  1  0
  3  4  1  0
  4  5  1  0
  3  6  1  0
  6  7  1  0
  7  8  1  0
  8  9  1  0
  9 10  1  0
 10 11  1  0
 11 12  1  0
 12 13  1  0
 13 14  1  0
 14 15  1  0
 15 16  2  0
 16 17  1  0
 17 18  2  0
 18 19  1  0
 19 20  2  0
 20 21  1  0
 21 22  2  0
 22 23  1  0
 22 24  1  0
 24 25  2  0
 25 26  1  0
 26 27  2  0
 27 28  1  0
 27 29  1  0
 29 30  2  0
 30 15  1  0
 21 16  1  0
 30 24  1  0
  1 31  1  0
  1 32  1  0
  1 33  1  0
  2 34  1  0
  2 35  1  0
  3 36  1  0
  4 37  1  0
  4 38  1  0
  5 39  1  0
  5 40  1  0
  5 41  1  0
  6 42  1  0
  6 43  1  0
  7 44  1  0
  7 45  1  0
  9 46  1  0
  9 47  1  0
 10 48  1  0
 10 49  1  0
 12 50  1  0
 12 51  1  0
 13 52  1  0
 13 53  1  0
 14 54  1  0
 17 55  1  0
 18 56  1  0
 19 57  1  0
 20 58  1  0
 23 59  1  0
 23 60  1  0
 23 61  1  0
 25 62  1  0
 26 63  1  0
 29 64  1  0
M  CHG  2   3   1  22   1
M  END
>  <UniqueID>  (4) 
4

>  <SMILES>  (4) 
CC[NH+](CC)CCOCCOCCNc1c2ccccc2[n+](C)c2ccc(Cl)cc12

>  <Energy>  (4) 
94.17782692926967

>  <Genealogy>  (4) 
CC[NH+](CC)CCOCCOCCNc1c2ccccc2[n+](C)c2ccc(Cl)cc12 (protonated)
CC[NH+](CC)CCOCCOCCNc1c2ccccc2[n+](C)c2ccc(Cl)cc12 (3D coordinates assigned)
CC[NH+](CC)CCOCCOCCNc1c2ccccc2[n+](C)c2ccc(Cl)cc12 (optimized conformer: 94.17782692926967 kcal/mol)

>  <smiles>  (4) 
CCN(CC)CCOCCOCCNc1c2ccccc2[n+](C)c2ccc(Cl)cc12

>  <score_type>  (4) 
oracle

>  <origin>  (4) 
adg

>  <m_score__min__energy>  (4) 
-4.5800000000000001

>  <m_primary>  (4) 
energy

$$$$
4:0
     RDKit          3D

 84 87  0  0  0  0  0  0  0  0999 V2000
   65.2140   34.6790   51.9430 C   0  0  0  0  0  0  0  0  0  0  0  0
   66.0210   33.3930   51.7950 C   0  0  0  0  0  0  0  0  0  0  0  0
   66.2840   33.0660   50.3180 C   0  0  0  0  0  0  0  0  0  0  0  0
   65.3490   31.9690   49.7820 C   0  0  0  0  0  0  0  0  0  0  0  0
   63.9960   32.5110   49.4200 C   0  0  0  0  0  0  0  0  0  0  0  0
   63.0950   32.7640   50.3920 N   0  0  0  0  0  0  0  0  0  0  0  0
   61.8420   33.1890   50.1040 C   0  0  0  0  0  0  0  0  0  0  0  0
   60.8230   33.6060   51.4820 Cl  0  0  0  0  0  0  0  0  0  0  0  0
   61.4120   33.3310   48.7530 C   0  0  0  0  0  0  0  0  0  0  0  0
   59.8780   33.4460   48.5090 C   0  0  0  0  0  0  0  0  0  0  0  0
   59.3980   32.2630   47.6040 C   0  0  0  0  0  0  0  0  0  0  0  0
   58.1670   32.6100   46.7480 C   0  0  0  0  0  0  0  0  0  0  0  0
   58.4230   33.7480   45.8330 N   0  0  0  0  0  0  0  0  0  0  0  0
   58.9110   33.2730   44.5160 C   0  0  0  0  0  0  0  0  0  0  0  0
   57.7650   33.0380   43.5150 C   0  0  0  0  0  0  0  0  0  0  0  0
   57.3950   31.5580   43.3390 C   0  0  0  0  0  0  0  0  0  0  0  0
   56.6780   31.0660   44.5090 N   0  0  0  0  0  0  0  0  0  0  0  0
   56.3550   29.6870   44.6930 C   0  0  0  0  0  0  0  0  0  0  0  0
   55.1530   29.3380   44.8580 O   0  0  0  0  0  0  0  0  0  0  0  0
   57.4740   28.6800   44.7810 C   0  0  2  0  0  0  0  0  0  0  0  0
   57.1180   27.4910   45.6900 C   0  0  0  0  0  0  0  0  0  0  0  0
   58.2720   26.4810   45.7840 C   0  0  0  0  0  0  0  0  0  0  0  0
   59.6640   27.1440   45.7270 C   0  0  0  0  0  0  0  0  0  0  0  0
   59.6380   28.5660   46.1200 N   0  0  0  0  0  0  0  0  0  0  0  0
   59.3820   28.7740   47.5640 C   0  0  0  0  0  0  0  0  0  0  0  0
   60.6560   29.2800   48.2450 C   0  0  0  0  0  0  0  0  0  0  0  0
   60.4060   29.6570   49.6820 C   0  0  0  0  0  0  0  0  0  0  0  0
   61.4690   29.6990   50.5990 C   0  0  0  0  0  0  0  0  0  0  0  0
   61.2330   30.0520   51.9340 C   0  0  0  0  0  0  0  0  0  0  0  0
   59.9400   30.3600   52.3590 C   0  0  0  0  0  0  0  0  0  0  0  0
   58.8730   30.2920   51.4580 C   0  0  0  0  0  0  0  0  0  0  0  0
   59.1040   29.9380   50.1250 C   0  0  0  0  0  0  0  0  0  0  0  0
   58.7860   29.3860   45.2280 C   0  0  0  0  0  0  0  0  0  0  0  0
   59.3280   34.7760   46.4160 C   0  0  0  0  0  0  0  0  0  0  0  0
   59.2930   34.7720   47.9580 C   0  0  0  0  0  0  0  0  0  0  0  0
   62.4470   33.2380   47.7620 C   0  0  0  0  0  0  0  0  0  0  0  0
   62.3440   33.8010   46.3620 C   0  0  0  0  0  0  0  0  0  0  0  0
   63.6780   32.7680   48.1260 N   0  0  0  0  0  0  0  0  0  0  0  0
   65.0735   34.9029   53.0108 H   0  0  0  0  0  0  0  0  0  0  0  0
   65.7540   35.5081   51.4625 H   0  0  0  0  0  0  0  0  0  0  0  0
   64.2325   34.5533   51.4625 H   0  0  0  0  0  0  0  0  0  0  0  0
   66.9843   33.5129   52.3124 H   0  0  0  0  0  0  0  0  0  0  0  0
   65.4426   32.5676   52.2356 H   0  0  0  0  0  0  0  0  0  0  0  0
   66.1345   33.9788   49.7226 H   0  0  0  0  0  0  0  0  0  0  0  0
   67.3162   32.6945   50.2367 H   0  0  0  0  0  0  0  0  0  0  0  0
   65.8037   31.5213   48.8860 H   0  0  0  0  0  0  0  0  0  0  0  0
   65.2138   31.2198   50.5759 H   0  0  0  0  0  0  0  0  0  0  0  0
   59.4810   33.4125   49.5343 H   0  0  0  0  0  0  0  0  0  0  0  0
   60.2220   31.9813   46.9320 H   0  0  0  0  0  0  0  0  0  0  0  0
   59.1073   31.4393   48.2727 H   0  0  0  0  0  0  0  0  0  0  0  0
   57.8923   31.7291   46.1492 H   0  0  0  0  0  0  0  0  0  0  0  0
   57.3537   32.9011   47.4291 H   0  0  0  0  0  0  0  0  0  0  0  0
   59.5946   34.0275   44.0995 H   0  0  0  0  0  0  0  0  0  0  0  0
   59.4204   32.3110   44.6743 H   0  0  0  0  0  0  0  0  0  0  0  0
   56.8758   33.5786   43.8715 H   0  0  0  0  0  0  0  0  0  0  0  0
   58.1121   33.4018   42.5367 H   0  0  0  0  0  0  0  0  0  0  0  0
   56.7557   31.4483   42.4506 H   0  0  0  0  0  0  0  0  0  0  0  0
   58.3188   30.9734   43.2173 H   0  0  0  0  0  0  0  0  0  0  0  0
   57.6328   28.2539   43.7794 H   0  0  0  0  0  0  0  0  0  0  0  0
   56.8918   27.8684   46.6982 H   0  0  0  0  0  0  0  0  0  0  0  0
   56.2474   26.9770   45.2565 H   0  0  0  0  0  0  0  0  0  0  0  0
   58.1829   25.9355   46.7350 H   0  0  0  0  0  0  0  0  0  0  0  0
   58.1925   25.8110   44.9153 H   0  0  0  0  0  0  0  0  0  0  0  0
   60.3384   26.6038   46.4077 H   0  0  0  0  0  0  0  0  0  0  0  0
   60.0108   27.0955   44.6842 H   0  0  0  0  0  0  0  0  0  0  0  0
   58.5802   29.5164   47.6902 H   0  0  0  0  0  0  0  0  0  0  0  0
   59.0777   27.8210   48.0215 H   0  0  0  0  0  0  0  0  0  0  0  0
   61.4175   28.4869   48.2116 H   0  0  0  0  0  0  0  0  0  0  0  0
   60.9987   30.1774   47.7091 H   0  0  0  0  0  0  0  0  0  0  0  0
   62.4891   29.4542   50.2682 H   0  0  0  0  0  0  0  0  0  0  0  0
   62.0685   30.0865   52.6486 H   0  0  0  0  0  0  0  0  0  0  0  0
   59.7602   30.6563   53.4030 H   0  0  0  0  0  0  0  0  0  0  0  0
   57.8513   30.5171   51.7979 H   0  0  0  0  0  0  0  0  0  0  0  0
   58.2614   29.8795   49.4203 H   0  0  0  0  0  0  0  0  0  0  0  0
   58.5173   30.3104   45.7602 H   0  0  0  0  0  0  0  0  0  0  0  0
   59.3711   29.5768   44.3163 H   0  0  0  0  0  0  0  0  0  0  0  0
   60.3567   34.5723   46.0840 H   0  0  0  0  0  0  0  0  0  0  0  0
   58.9858   35.7631   46.0718 H   0  0  0  0  0  0  0  0  0  0  0  0
   59.8889   35.6157   48.3362 H   0  0  0  0  0  0  0  0  0  0  0  0
   58.2490   34.8669   48.2912 H   0  0  0  0  0  0  0  0  0  0  0  0
   62.1463   34.8818   46.4151 H   0  0  0  0  0  0  0  0  0  0  0  0
   63.2889   33.6270   45.8264 H   0  0  0  0  0  0  0  0  0  0  0  0
   61.5219   33.3037   45.8264 H   0  0  0  0  0  0  0  0  0  0  0  0
   64.4190   32.6340   47.4010 H   0  0  0  0  0  0  0  0  0  0  0  0
  1  2  1  0
  2  3  1  0
  3  4  1  0
  4  5  1  0
  5  6  2  0
  6  7  1  0
  7  8  1  0
  7  9  2  0
  9 10  1  0
 10 11  1  0
 11 12  1  0
 12 13  1  0
 13 14  1  0
 14 15  1  0
 15 16  1  0
 16 17  1  0
 17 18  1  0
 18 19  2  0
 18 20  1  0
 20 21  1  0
 21 22  1  0
 22 23  1  0
 23 24  1  0
 24 25  1  0
 25 26  1  0
 26 27  1  0
 27 28  2  0
 28 29  1  0
 29 30  2  0
 30 31  1  0
 31 32  2  0
 24 33  1  0
 13 34  1  0
 34 35  1  0
  9 36  1  0
 36 37  1  0
 36 38  2  0
 38  5  1  0
 35 10  1  0
 33 20  1  0
 32 27  1  0
  1 39  1  0
  1 40  1  0
  1 41  1  0
  2 42  1  0
  2 43  1  0
  3 44  1  0
  3 45  1  0
  4 46  1  0
  4 47  1  0
 10 48  1  0
 11 49  1  0
 11 50  1  0
 12 51  1  0
 12 52  1  0
 14 53  1  0
 14 54  1  0
 15 55  1  0
 15 56  1  0
 16 57  1  0
 16 58  1  0
 20 59  1  6
 21 60  1  0
 21 61  1  0
 22 62  1  0
 22 63  1  0
 23 64  1  0
 23 65  1  0
 25 66  1  0
 25 67  1  0
 26 68  1  0
 26 69  1  0
 28 70  1  0
 29 71  1  0
 30 72  1  0
 31 73  1  0
 32 74  1  0
 33 75  1  0
 33 76  1  0
 34 77  1  0
 34 78  1  0
 35 79  1  0
 35 80  1  0
 37 81  1  0
 37 82  1  0
 37 83  1  0
 38 84  1  0
M  CHG  2  17  -1  38   1
M  END
>  <UniqueID>  (5) 
5

>  <SMILES>  (5) 
CCCCc1nc(Cl)c(C2CCN(CCC[N-]C(=O)[C@@H]3CCCN(CCc4ccccc4)C3)CC2)c(C)[nH+]1

>  <Energy>  (5) 
111.25769777280532

>  <Genealogy>  (5) 
CCCCc1nc(Cl)c(C2CCN(CCC[N-]C(=O)C3CCCN(CCc4ccccc4)C3)CC2)c(C)[nH+]1 (protonated)
CCCCc1nc(Cl)c(C2CCN(CCC[N-]C(=O)[C@@H]3CCCN(CCc4ccccc4)C3)CC2)c(C)[nH+]1 (chirality)
CCCCc1nc(Cl)c(C2CCN(CCC[N-]C(=O)[C@@H]3CCCN(CCc4ccccc4)C3)CC2)c(C)[nH+]1 (3D coordinates assigned)
CCCCc1nc(Cl)c(C2CCN(CCC[N-]C(=O)[C@@H]3CCCN(CCc4ccccc4)C3)CC2)c(C)[nH+]1 (nonaromatic ring conformer: 111.25769777280532 kcal/mol)

>  <smiles>  (5) 
CCCCc1nc(C)c(C2CCN(CCCNC(=O)C3CCCN(CCc4ccccc4)C3)CC2)c(Cl)n1

>  <score_type>  (5) 
oracle

>  <origin>  (5) 
adg

>  <m_score__min__energy>  (5) 
-10.76

>  <m_primary>  (5) 
energy

$$$$
5:0
     RDKit          3D

 32 33  0  0  0  0  0  0  0  0999 V2000
   56.2720   29.7290   42.7590 C   0  0  0  0  0  0  0  0  0  0  0  0
   55.5230   30.1480   44.0200 C   0  0  0  0  0  0  0  0  0  0  0  0
   55.7640   29.1790   45.0940 N   0  0  0  0  0  0  0  0  0  0  0  0
   57.0600   28.5170   44.9000 C   0  0  0  0  0  0  0  0  0  0  0  0
   58.1860   29.4050   45.4340 C   0  0  0  0  0  0  0  0  0  0  0  0
   57.6530   30.5060   46.1710 O   0  0  0  0  0  0  0  0  0  0  0  0
   57.9580   31.8640   45.9580 C   0  0  0  0  0  0  0  0  0  0  0  0
   57.0600   32.7450   45.3290 C   0  0  0  0  0  0  0  0  0  0  0  0
   57.4270   34.0820   45.1470 C   0  0  0  0  0  0  0  0  0  0  0  0
   56.6300   34.8800   44.5880 O   0  0  0  0  0  0  0  0  0  0  0  0
   58.6110   34.5190   45.5600 O   0  0  0  0  0  0  0  0  0  0  0  0
   59.4980   33.7290   46.1550 C   0  0  0  0  0  0  0  0  0  0  0  0
   60.7290   34.2530   46.5630 C   0  0  0  0  0  0  0  0  0  0  0  0
   61.6690   33.4310   47.1900 C   0  0  0  0  0  0  0  0  0  0  0  0
   61.3840   32.0810   47.4130 C   0  0  0  0  0  0  0  0  0  0  0  0
   60.1580   31.5450   47.0100 C   0  0  0  0  0  0  0  0  0  0  0  0
   59.2030   32.3630   46.3760 C   0  0  0  0  0  0  0  0  0  0  0  0
   57.2003   29.2097   43.0394 H   0  0  0  0  0  0  0  0  0  0  0  0
   55.6394   29.0537   42.1641 H   0  0  0  0  0  0  0  0  0  0  0  0
   56.5164   30.6214   42.1641 H   0  0  0  0  0  0  0  0  0  0  0  0
   55.8746   31.1402   44.3394 H   0  0  0  0  0  0  0  0  0  0  0  0
   54.4452   30.1850   43.8033 H   0  0  0  0  0  0  0  0  0  0  0  0
   55.8070   29.7090   45.9980 H   0  0  0  0  0  0  0  0  0  0  0  0
   57.0642   27.5589   45.4404 H   0  0  0  0  0  0  0  0  0  0  0  0
   57.2180   28.3400   43.8259 H   0  0  0  0  0  0  0  0  0  0  0  0
   58.8343   28.8090   46.0932 H   0  0  0  0  0  0  0  0  0  0  0  0
   58.7633   29.7950   44.5827 H   0  0  0  0  0  0  0  0  0  0  0  0
   56.0792   32.3860   44.9838 H   0  0  0  0  0  0  0  0  0  0  0  0
   60.9577   35.3149   46.3898 H   0  0  0  0  0  0  0  0  0  0  0  0
   62.6359   33.8475   47.5089 H   0  0  0  0  0  0  0  0  0  0  0  0
   62.1273   31.4383   47.9074 H   0  0  0  0  0  0  0  0  0  0  0  0
   59.9385   30.4820   47.1884 H   0  0  0  0  0  0  0  0  0  0  0  0
  1  2  1  0
  2  3  1  0
  3  4  1  0
  4  5  1  0
  5  6  1  0
  6  7  1  0
  7  8  2  0
  8  9  1  0
  9 10  2  0
  9 11  1  0
 11 12  1  0
 12 13  2  0
 13 14  1  0
 14 15  2  0
 15 16  1  0
 16 17  2  0
 17  7  1  0
 17 12  1  0
  1 18  1  0
  1 19  1  0
  1 20  1  0
  2 21  1  0
  2 22  1  0
  3 23  1  0
  4 24  1  0
  4 25  1  0
  5 26  1  0
  5 27  1  0
  8 28  1  0
 13 29  1  0
 14 30  1  0
 15 31  1  0
 16 32  1  0
M  END
>  <UniqueID>  (6) 
6

>  <SMILES>  (6) 
CCNCCOc1cc(=O)oc2ccccc12

>  <Energy>  (6) 
30.99470111232572

>  <Genealogy>  (6) 
CCNCCOc1cc(=O)oc2ccccc12 (3D coordinates assigned)
CCNCCOc1cc(=O)oc2ccccc12 (optimized conformer: 30.99470111232572 kcal/mol)

>  <smiles>  (6) 
CCNCCOc1cc(=O)oc2ccccc12

>  <score_type>  (6) 
oracle

>  <origin>  (6) 
adg

>  <m_score__min__energy>  (6) 
-6.0499999999999998

>  <m_primary>  (6) 
energy

$$$$
6:0
     RDKit          3D

 57 59  0  0  0  0  0  0  0  0999 V2000
   59.7530   33.5000   50.0360 C   0  0  0  0  0  0  0  0  0  0  0  0
   60.0820   34.4910   48.9210 C   0  0  0  0  0  0  0  0  0  0  0  0
   60.3080   33.8190   47.6780 O   0  0  0  0  0  0  0  0  0  0  0  0
   59.3560   33.5120   46.6920 C   0  0  0  0  0  0  0  0  0  0  0  0
   58.5950   34.5610   46.1430 C   0  0  0  0  0  0  0  0  0  0  0  0
   57.6050   34.3210   45.2170 C   0  0  0  0  0  0  0  0  0  0  0  0
   57.3810   33.0390   44.7620 C   0  0  0  0  0  0  0  0  0  0  0  0
   58.1670   31.9490   45.2030 C   0  0  0  0  0  0  0  0  0  0  0  0
   59.1420   32.1550   46.2370 C   0  0  0  0  0  0  0  0  0  0  0  0
   59.8430   30.9960   46.7430 C   0  0  0  0  0  0  0  0  0  0  0  0
   60.9250   31.0840   47.7210 N   0  0  0  0  0  0  0  0  0  0  0  0
   62.2610   30.8400   47.1290 C   0  0  0  0  0  0  0  0  0  0  0  0
   63.3910   31.5910   47.8620 C   0  0  0  0  0  0  0  0  0  0  0  0
   62.9340   32.8110   48.5650 N   0  0  0  0  0  0  0  0  0  0  0  0
   63.2480   32.7970   50.0140 C   0  0  0  0  0  0  0  0  0  0  0  0
   64.7580   32.7290   50.2020 C   0  0  0  0  0  0  0  0  0  0  0  0
   63.3380   34.0600   47.8830 C   0  0  0  0  0  0  0  0  0  0  0  0
   63.3780   33.8600   46.3710 C   0  0  0  0  0  0  0  0  0  0  0  0
   59.4560   29.7020   46.2730 C   0  0  0  0  0  0  0  0  0  0  0  0
   60.0350   28.5060   46.7860 C   0  0  0  0  0  0  0  0  0  0  0  0
   59.6010   27.2510   46.3700 C   0  0  0  0  0  0  0  0  0  0  0  0
   58.5820   27.1410   45.4390 C   0  0  0  0  0  0  0  0  0  0  0  0
   58.0210   28.2880   44.8890 C   0  0  0  0  0  0  0  0  0  0  0  0
   58.4750   29.5810   45.2560 C   0  0  0  0  0  0  0  0  0  0  0  0
   57.9800   30.7030   44.6400 N   0  0  0  0  0  0  0  0  0  0  0  0
   57.2760   30.5740   43.3410 C   0  0  0  0  0  0  0  0  0  0  0  0
   59.9125   33.9806   51.0125 H   0  0  0  0  0  0  0  0  0  0  0  0
   58.7024   33.1859   49.9492 H   0  0  0  0  0  0  0  0  0  0  0  0
   60.4072   32.6199   49.9492 H   0  0  0  0  0  0  0  0  0  0  0  0
   59.2406   35.1897   48.8028 H   0  0  0  0  0  0  0  0  0  0  0  0
   61.0003   35.0306   49.1959 H   0  0  0  0  0  0  0  0  0  0  0  0
   58.7956   35.5949   46.4607 H   0  0  0  0  0  0  0  0  0  0  0  0
   56.9921   35.1529   44.8398 H   0  0  0  0  0  0  0  0  0  0  0  0
   56.5718   32.8596   44.0388 H   0  0  0  0  0  0  0  0  0  0  0  0
   60.9180   32.0460   48.1310 H   0  0  0  0  0  0  0  0  0  0  0  0
   60.7790   30.5310   48.5830 H   0  0  0  0  0  0  0  0  0  0  0  0
   62.4717   29.7612   47.1719 H   0  0  0  0  0  0  0  0  0  0  0  0
   62.2355   31.2125   46.0943 H   0  0  0  0  0  0  0  0  0  0  0  0
   63.8379   30.9104   48.6016 H   0  0  0  0  0  0  0  0  0  0  0  0
   64.1138   31.9114   47.0973 H   0  0  0  0  0  0  0  0  0  0  0  0
   62.8604   33.7136   50.4827 H   0  0  0  0  0  0  0  0  0  0  0  0
   62.7786   31.9202   50.4840 H   0  0  0  0  0  0  0  0  0  0  0  0
   64.9936   32.7184   51.2764 H   0  0  0  0  0  0  0  0  0  0  0  0
   65.1450   31.8125   49.7327 H   0  0  0  0  0  0  0  0  0  0  0  0
   65.2258   33.6070   49.7327 H   0  0  0  0  0  0  0  0  0  0  0  0
   62.6145   34.8530   48.1234 H   0  0  0  0  0  0  0  0  0  0  0  0
   64.3431   34.3428   48.2291 H   0  0  0  0  0  0  0  0  0  0  0  0
   63.5892   32.8041   46.1463 H   0  0  0  0  0  0  0  0  0  0  0  0
   62.4061   34.1397   45.9383 H   0  0  0  0  0  0  0  0  0  0  0  0
   64.1675   34.4920   45.9383 H   0  0  0  0  0  0  0  0  0  0  0  0
   60.8439   28.5760   47.5282 H   0  0  0  0  0  0  0  0  0  0  0  0
   60.0685   26.3444   46.7817 H   0  0  0  0  0  0  0  0  0  0  0  0
   58.2173   26.1486   45.1353 H   0  0  0  0  0  0  0  0  0  0  0  0
   57.2083   28.1910   44.1541 H   0  0  0  0  0  0  0  0  0  0  0  0
   56.2085   30.3784   43.5203 H   0  0  0  0  0  0  0  0  0  0  0  0
   57.3868   31.5074   42.7696 H   0  0  0  0  0  0  0  0  0  0  0  0
   57.7106   29.7405   42.7696 H   0  0  0  0  0  0  0  0  0  0  0  0
  1  2  1  0
  2  3  1  0
  3  4  1  0
  4  5  2  0
  5  6  1  0
  6  7  2  0
  7  8  1  0
  8  9  2  0
  9 10  1  0
 10 11  1  0
 11 12  1  0
 12 13  1  0
 13 14  1  0
 14 15  1  0
 15 16  1  0
 14 17  1  0
 17 18  1  0
 10 19  2  0
 19 20  1  0
 20 21  2  0
 21 22  1  0
 22 23  2  0
 23 24  1  0
 24 25  2  0
 25 26  1  0
  9  4  1  0
 24 19  1  0
 25  8  1  0
  1 27  1  0
  1 28  1  0
  1 29  1  0
  2 30  1  0
  2 31  1  0
  5 32  1  0
  6 33  1  0
  7 34  1  0
 11 35  1  0
 11 36  1  0
 12 37  1  0
 12 38  1  0
 13 39  1  0
 13 40  1  0
 15 41  1  0
 15 42  1  0
 16 43  1  0
 16 44  1  0
 16 45  1  0
 17 46  1  0
 17 47  1  0
 18 48  1  0
 18 49  1  0
 18 50  1  0
 20 51  1  0
 21 52  1  0
 22 53  1  0
 23 54  1  0
 26 55  1  0
 26 56  1  0
 26 57  1  0
M  CHG  2  11   1  25   1
M  END
>  <UniqueID>  (7) 
7

>  <SMILES>  (7) 
CCOc1cccc2c1c([NH2+]CCN(CC)CC)c1ccccc1[n+]2C

>  <Energy>  (7) 
96.3367086225739

>  <Genealogy>  (7) 
CCOc1cccc2c1c([NH2+]CCN(CC)CC)c1ccccc1[n+]2C (protonated)
CCOc1cccc2c1c([NH2+]CCN(CC)CC)c1ccccc1[n+]2C (3D coordinates assigned)
CCOc1cccc2c1c([NH2+]CCN(CC)CC)c1ccccc1[n+]2C (optimized conformer: 96.3367086225739 kcal/mol)

>  <smiles>  (7) 
CCOc1cccc2c1c(NCCN(CC)CC)c1ccccc1[n+]2C

>  <score_type>  (7) 
oracle

>  <origin>  (7) 
adg

>  <m_score__min__energy>  (7) 
-3.7200000000000002

>  <m_primary>  (7) 
energy

$$$$
7:0
     RDKit          3D

 47 50  0  0  0  0  0  0  0  0999 V2000
   59.7470   28.6670   48.3350 C   0  0  0  0  0  0  0  0  0  0  0  0
   59.3490   29.6540   47.3180 N   0  0  0  0  0  0  0  0  0  0  0  0
   59.2540   29.2240   46.0220 C   0  0  0  0  0  0  0  0  0  0  0  0
   58.8110   30.0730   45.0140 C   0  0  0  0  0  0  0  0  0  0  0  0
   58.3950   31.3600   45.3390 C   0  0  0  0  0  0  0  0  0  0  0  0
   58.4450   31.7930   46.6710 C   0  0  0  0  0  0  0  0  0  0  0  0
   59.0780   30.9710   47.6460 C   0  0  0  0  0  0  0  0  0  0  0  0
   59.4490   31.5030   48.9540 N   0  0  0  0  0  0  0  0  0  0  0  0
   60.8880   31.6170   49.1490 C   0  0  0  0  0  0  0  0  0  0  0  0
   61.4870   30.8710   50.1730 C   0  0  0  0  0  0  0  0  0  0  0  0
   62.8390   31.0130   50.4580 C   0  0  0  0  0  0  0  0  0  0  0  0
   63.6290   31.8600   49.7340 N   0  0  0  0  0  0  0  0  0  0  0  0
   65.0430   31.9860   50.1250 C   0  0  0  0  0  0  0  0  0  0  0  0
   63.1100   32.5420   48.6530 C   0  0  0  0  0  0  0  0  0  0  0  0
   63.9260   33.3760   47.8510 C   0  0  0  0  0  0  0  0  0  0  0  0
   63.4070   34.0240   46.7320 C   0  0  0  0  0  0  0  0  0  0  0  0
   62.0760   33.8450   46.3770 C   0  0  0  0  0  0  0  0  0  0  0  0
   61.2460   33.0370   47.1510 C   0  0  0  0  0  0  0  0  0  0  0  0
   61.7300   32.4030   48.3150 C   0  0  0  0  0  0  0  0  0  0  0  0
   57.7360   33.0930   46.9710 C   0  0  0  0  0  0  0  0  0  0  0  0
   58.2170   34.1970   46.0160 C   0  0  0  0  0  0  0  0  0  0  0  0
   58.3540   33.7310   44.5410 C   0  0  0  0  0  0  0  0  0  0  0  0
   57.8560   32.2950   44.2860 C   0  0  0  0  0  0  0  0  0  0  0  0
   59.5782   29.0857   49.3381 H   0  0  0  0  0  0  0  0  0  0  0  0
   59.1472   27.7530   48.2134 H   0  0  0  0  0  0  0  0  0  0  0  0
   60.8131   28.4248   48.2134 H   0  0  0  0  0  0  0  0  0  0  0  0
   59.5328   28.1893   45.7738 H   0  0  0  0  0  0  0  0  0  0  0  0
   58.7897   29.7301   43.9690 H   0  0  0  0  0  0  0  0  0  0  0  0
   59.1040   30.9090   49.7370 H   0  0  0  0  0  0  0  0  0  0  0  0
   58.9790   32.4320   49.0560 H   0  0  0  0  0  0  0  0  0  0  0  0
   60.8794   30.1648   50.7579 H   0  0  0  0  0  0  0  0  0  0  0  0
   63.2814   30.4330   51.2814 H   0  0  0  0  0  0  0  0  0  0  0  0
   65.1208   31.9929   51.2222 H   0  0  0  0  0  0  0  0  0  0  0  0
   65.6120   31.1350   49.7224 H   0  0  0  0  0  0  0  0  0  0  0  0
   65.4525   32.9242   49.7224 H   0  0  0  0  0  0  0  0  0  0  0  0
   64.9848   33.5144   48.1151 H   0  0  0  0  0  0  0  0  0  0  0  0
   64.0527   34.6788   46.1284 H   0  0  0  0  0  0  0  0  0  0  0  0
   61.6759   34.3430   45.4815 H   0  0  0  0  0  0  0  0  0  0  0  0
   60.1980   32.8911   46.8503 H   0  0  0  0  0  0  0  0  0  0  0  0
   56.6522   32.9522   46.8461 H   0  0  0  0  0  0  0  0  0  0  0  0
   57.9610   33.3923   48.0053 H   0  0  0  0  0  0  0  0  0  0  0  0
   57.4953   35.0264   46.0525 H   0  0  0  0  0  0  0  0  0  0  0  0
   59.2201   34.4981   46.3523 H   0  0  0  0  0  0  0  0  0  0  0  0
   57.7722   34.4161   43.9068 H   0  0  0  0  0  0  0  0  0  0  0  0
   59.4280   33.7411   44.3036 H   0  0  0  0  0  0  0  0  0  0  0  0
   56.7565   32.2813   44.3169 H   0  0  0  0  0  0  0  0  0  0  0  0
   58.2092   31.9637   43.2983 H   0  0  0  0  0  0  0  0  0  0  0  0
  1  2  1  0
  2  3  2  0
  3  4  1  0
  4  5  2  0
  5  6  1  0
  6  7  2  0
  7  8  1  0
  8  9  1  0
  9 10  2  0
 10 11  1  0
 11 12  2  0
 12 13  1  0
 12 14  1  0
 14 15  2  0
 15 16  1  0
 16 17  2  0
 17 18  1  0
 18 19  2  0
  6 20  1  0
 20 21  1  0
 21 22  1  0
 22 23  1  0
  7  2  1  0
 19  9  1  0
 23  5  1  0
 19 14  1  0
  1 24  1  0
  1 25  1  0
  1 26  1  0
  3 27  1  0
  4 28  1  0
  8 29  1  0
  8 30  1  0
 10 31  1  0
 11 32  1  0
 13 33  1  0
 13 34  1  0
 13 35  1  0
 15 36  1  0
 16 37  1  0
 17 38  1  0
 18 39  1  0
 20 40  1  0
 20 41  1  0
 21 42  1  0
 21 43  1  0
 22 44  1  0
 22 45  1  0
 23 46  1  0
 23 47  1  0
M  CHG  3   2   1   8   1  12   1
M  END
>  <UniqueID>  (8) 
8

>  <SMILES>  (8) 
C[n+]1ccc2c(c1[NH2+]c1cc[n+](C)c3ccccc13)CCCC2

>  <Energy>  (8) 
79.20146977890182

>  <Genealogy>  (8) 
C[n+]1ccc2c(c1[NH2+]c1cc[n+](C)c3ccccc13)CCCC2 (protonated)
C[n+]1ccc2c(c1[NH2+]c1cc[n+](C)c3ccccc13)CCCC2 (3D coordinates assigned)
C[n+]1ccc2c(c1[NH2+]c1cc[n+](C)c3ccccc13)CCCC2 (nonaromatic ring conformer: 79.20146977890182 kcal/mol)

>  <smiles>  (8) 
C[n+]1ccc2c(c1Nc1cc[n+](C)c3ccccc13)CCCC2

>  <score_type>  (8) 
oracle

>  <origin>  (8) 
adg

>  <m_score__min__energy>  (8) 
-3.5600000000000001

>  <m_primary>  (8) 
energy

$$$$
8:0
     RDKit          3D

 23 25  0  0  0  0  0  0  0  0999 V2000
   58.7490   25.4690   46.4010 Br  0  0  0  0  0  0  0  0  0  0  0  0
   58.2150   27.2430   45.9350 C   0  0  0  0  0  0  0  0  0  0  0  0
   57.0260   27.4520   45.2280 C   0  0  0  0  0  0  0  0  0  0  0  0
   56.6290   28.7470   44.8830 C   0  0  0  0  0  0  0  0  0  0  0  0
   57.4220   29.8420   45.2470 C   0  0  0  0  0  0  0  0  0  0  0  0
   57.0360   31.1020   44.9120 N   0  0  0  0  0  0  0  0  0  0  0  0
   57.7780   32.1930   45.2480 C   0  0  0  0  0  0  0  0  0  0  0  0
   57.3450   33.4740   44.8850 C   0  0  0  0  0  0  0  0  0  0  0  0
   58.1090   34.5930   45.2290 C   0  0  0  0  0  0  0  0  0  0  0  0
   59.3050   34.4380   45.9370 C   0  0  0  0  0  0  0  0  0  0  0  0
   59.7460   33.1620   46.3050 C   0  0  0  0  0  0  0  0  0  0  0  0
   58.9860   32.0330   45.9630 C   0  0  0  0  0  0  0  0  0  0  0  0
   59.4030   30.7440   46.3180 C   0  0  0  0  0  0  0  0  0  0  0  0
   58.6230   29.6360   45.9620 C   0  0  0  0  0  0  0  0  0  0  0  0
   59.0140   28.3320   46.3030 C   0  0  0  0  0  0  0  0  0  0  0  0
   56.4007   26.5933   44.9423 H   0  0  0  0  0  0  0  0  0  0  0  0
   55.6940   28.9058   44.3258 H   0  0  0  0  0  0  0  0  0  0  0  0
   56.4040   33.5999   44.3294 H   0  0  0  0  0  0  0  0  0  0  0  0
   57.7683   35.5987   44.9419 H   0  0  0  0  0  0  0  0  0  0  0  0
   59.9013   35.3225   46.2056 H   0  0  0  0  0  0  0  0  0  0  0  0
   60.6873   33.0441   46.8617 H   0  0  0  0  0  0  0  0  0  0  0  0
   60.3408   30.6019   46.8751 H   0  0  0  0  0  0  0  0  0  0  0  0
   59.9482   28.1656   46.8594 H   0  0  0  0  0  0  0  0  0  0  0  0
  1  2  1  0
  2  3  2  0
  3  4  1  0
  4  5  2  0
  5  6  1  0
  6  7  2  0
  7  8  1  0
  8  9  2  0
  9 10  1  0
 10 11  2  0
 11 12  1  0
 12 13  2  0
 13 14  1  0
 14 15  2  0
 15  2  1  0
 14  5  1  0
 12  7  1  0
  3 16  1  0
  4 17  1  0
  8 18  1  0
  9 19  1  0
 10 20  1  0
 11 21  1  0
 13 22  1  0
 15 23  1  0
M  END
>  <UniqueID>  (9) 
9

>  <SMILES>  (9) 
Brc1ccc2nc3ccccc3cc2c1

>  <Energy>  (9) 
31.30640591350478

>  <Genealogy>  (9) 
Brc1ccc2nc3ccccc3cc2c1 (3D coordinates assigned)
Brc1ccc2nc3ccccc3cc2c1 (optimized conformer: 31.30640591350478 kcal/mol)

>  <smiles>  (9) 
Brc1ccc2nc3ccccc3cc2c1

>  <score_type>  (9) 
oracle

>  <origin>  (9) 
adg

>  <m_score__min__energy>  (9) 
-6.6299999999999999

>  <m_primary>  (9) 
energy

$$$$
9:0
     RDKit          3D

 56 59  0  0  0  0  0  0  0  0999 V2000
   57.2020   30.5230   43.7500 C   0  0  0  0  0  0  0  0  0  0  0  0
   55.8400   29.9680   44.1610 C   0  0  0  0  0  0  0  0  0  0  0  0
   55.9840   28.8020   45.0490 N   0  0  0  0  0  0  0  0  0  0  0  0
   57.1990   28.0250   44.7410 C   0  0  0  0  0  0  0  0  0  0  0  0
   58.0580   27.8130   46.0060 C   0  0  0  0  0  0  0  0  0  0  0  0
   57.9420   28.9080   46.9830 N   0  0  0  0  0  0  0  0  0  0  0  0
   59.0230   29.6150   47.6410 C   0  0  0  0  0  0  0  0  0  0  0  0
   59.9440   28.8320   48.3330 C   0  0  0  0  0  0  0  0  0  0  0  0
   61.1190   29.3730   48.8210 C   0  0  0  0  0  0  0  0  0  0  0  0
   61.4740   30.7000   48.5400 C   0  0  0  0  0  0  0  0  0  0  0  0
   60.6550   31.4800   47.6630 C   0  0  0  0  0  0  0  0  0  0  0  0
   61.0600   32.7220   47.0450 C   0  0  0  0  0  0  0  0  0  0  0  0
   60.0750   33.5090   46.3750 C   0  0  0  0  0  0  0  0  0  0  0  0
   60.3890   34.6710   45.6490 O   0  0  0  0  0  0  0  0  0  0  0  0
   59.8990   35.9690   45.9840 C   0  0  0  0  0  0  0  0  0  0  0  0
   58.7420   33.1070   46.3710 C   0  0  0  0  0  0  0  0  0  0  0  0
   57.7400   33.9870   45.9560 O   0  0  0  0  0  0  0  0  0  0  0  0
   57.3710   34.1440   44.5870 C   0  0  0  0  0  0  0  0  0  0  0  0
   58.4080   31.8150   46.7470 C   0  0  0  0  0  0  0  0  0  0  0  0
   59.3500   30.9690   47.3470 C   0  0  0  0  0  0  0  0  0  0  0  0
   62.4940   33.2420   46.9890 C   0  0  0  0  0  0  0  0  0  0  0  0
   63.5340   32.2330   47.2280 N   0  0  0  0  0  0  0  0  0  0  0  0
   63.6290   31.9850   48.6390 C   0  0  0  0  0  0  0  0  0  0  0  0
   64.6790   32.5600   49.3910 C   0  0  0  0  0  0  0  0  0  0  0  0
   64.7530   32.3610   50.7670 C   0  0  0  0  0  0  0  0  0  0  0  0
   63.7930   31.5850   51.4100 C   0  0  0  0  0  0  0  0  0  0  0  0
   62.7300   31.0420   50.6810 C   0  0  0  0  0  0  0  0  0  0  0  0
   62.6310   31.2550   49.2940 C   0  0  0  0  0  0  0  0  0  0  0  0
   57.7875   30.7616   44.6501 H   0  0  0  0  0  0  0  0  0  0  0  0
   57.7387   29.7719   43.1519 H   0  0  0  0  0  0  0  0  0  0  0  0
   57.0609   31.4353   43.1519 H   0  0  0  0  0  0  0  0  0  0  0  0
   55.2774   30.7527   44.6880 H   0  0  0  0  0  0  0  0  0  0  0  0
   55.3061   29.6498   43.2534 H   0  0  0  0  0  0  0  0  0  0  0  0
   55.1360   28.2050   44.8800 H   0  0  0  0  0  0  0  0  0  0  0  0
   56.9059   27.0447   44.3372 H   0  0  0  0  0  0  0  0  0  0  0  0
   57.7941   28.5842   44.0040 H   0  0  0  0  0  0  0  0  0  0  0  0
   57.7397   26.8783   46.4908 H   0  0  0  0  0  0  0  0  0  0  0  0
   59.1087   27.7773   45.6822 H   0  0  0  0  0  0  0  0  0  0  0  0
   57.0300   29.4230   46.9350 H   0  0  0  0  0  0  0  0  0  0  0  0
   59.7328   27.7646   48.4940 H   0  0  0  0  0  0  0  0  0  0  0  0
   61.7853   28.7531   49.4389 H   0  0  0  0  0  0  0  0  0  0  0  0
   59.8591   36.0747   47.0782 H   0  0  0  0  0  0  0  0  0  0  0  0
   60.5704   36.7335   45.5660 H   0  0  0  0  0  0  0  0  0  0  0  0
   58.8899   36.0991   45.5660 H   0  0  0  0  0  0  0  0  0  0  0  0
   56.3603   34.5740   44.5267 H   0  0  0  0  0  0  0  0  0  0  0  0
   58.0857   34.8160   44.0893 H   0  0  0  0  0  0  0  0  0  0  0  0
   57.3824   33.1631   44.0893 H   0  0  0  0  0  0  0  0  0  0  0  0
   57.3861   31.4479   46.5713 H   0  0  0  0  0  0  0  0  0  0  0  0
   62.6610   33.6733   45.9909 H   0  0  0  0  0  0  0  0  0  0  0  0
   62.5856   33.9744   47.8046 H   0  0  0  0  0  0  0  0  0  0  0  0
   63.3450   31.3510   46.6950 H   0  0  0  0  0  0  0  0  0  0  0  0
   64.4400   32.6130   46.8570 H   0  0  0  0  0  0  0  0  0  0  0  0
   65.4429   33.1689   48.8854 H   0  0  0  0  0  0  0  0  0  0  0  0
   65.5698   32.8169   51.3457 H   0  0  0  0  0  0  0  0  0  0  0  0
   63.8703   31.3988   52.4914 H   0  0  0  0  0  0  0  0  0  0  0  0
   61.9648   30.4432   51.1967 H   0  0  0  0  0  0  0  0  0  0  0  0
  1  2  1  0
  2  3  1  0
  3  4  1  0
  4  5  1  0
  5  6  1  0
  6  7  1  0
  7  8  2  0
  8  9  1  0
  9 10  2  0
 10 11  1  0
 11 12  2  0
 12 13  1  0
 13 14  1  0
 14 15  1  0
 13 16  2  0
 16 17  1  0
 17 18  1  0
 16 19  1  0
 19 20  2  0
 12 21  1  0
 21 22  1  0
 22 23  1  0
 23 24  2  0
 24 25  1  0
 25 26  2  0
 26 27  1  0
 27 28  2  0
 20  7  1  0
 28 23  1  0
 28 10  1  0
 20 11  1  0
  1 29  1  0
  1 30  1  0
  1 31  1  0
  2 32  1  0
  2 33  1  0
  3 34  1  0
  4 35  1  0
  4 36  1  0
  5 37  1  0
  5 38  1  0
  6 39  1  0
  8 40  1  0
  9 41  1  0
 15 42  1  0
 15 43  1  0
 15 44  1  0
 18 45  1  0
 18 46  1  0
 18 47  1  0
 19 48  1  0
 21 49  1  0
 21 50  1  0
 22 51  1  0
 22 52  1  0
 24 53  1  0
 25 54  1  0
 26 55  1  0
 27 56  1  0
M  CHG  1  22   1
M  END
>  <UniqueID>  (10) 
10

>  <SMILES>  (10) 
CCNCCNc1ccc2c3c(c(OC)c(OC)cc13)C[NH2+]c1ccccc1-2

>  <Energy>  (10) 
114.81604068477586

>  <Genealogy>  (10) 
CCNCCNc1ccc2c3c(c(OC)c(OC)cc13)C[NH2+]c1ccccc1-2 (protonated)
CCNCCNc1ccc2c3c(c(OC)c(OC)cc13)C[NH2+]c1ccccc1-2 (3D coordinates assigned)
CCNCCNc1ccc2c3c(c(OC)c(OC)cc13)C[NH2+]c1ccccc1-2 (nonaromatic ring conformer: 114.81604068477586 kcal/mol)

>  <smiles>  (10) 
CCNCCNc1ccc2c3c(c(OC)c(OC)cc13)CNc1ccccc1-2

>  <score_type>  (10) 
oracle

>  <origin>  (10) 
adg

>  <m_score__min__energy>  (10) 
-6.0899999999999999

>  <m_primary>  (10) 
energy

$$$$
10:0
     RDKit          3D

 75 78  0  0  0  0  0  0  0  0999 V2000
   56.6080   25.1380   46.6460 C   0  0  0  0  0  0  0  0  0  0  0  0
   56.7160   26.6000   46.1810 C   0  0  0  0  0  0  0  0  0  0  0  0
   58.0940   27.1460   46.1660 N   0  0  0  0  0  0  0  0  0  0  0  0
   58.8240   27.0060   44.8950 C   0  0  0  0  0  0  0  0  0  0  0  0
   58.9090   26.8530   47.3640 C   0  0  0  0  0  0  0  0  0  0  0  0
   60.1670   27.7310   47.4940 C   0  0  0  0  0  0  0  0  0  0  0  0
   59.8240   29.1440   47.9810 C   0  0  0  0  0  0  0  0  0  0  0  0
   58.5960   29.6360   47.3530 N   0  0  0  0  0  0  0  0  0  0  0  0
   58.5610   30.9140   46.6920 C   0  0  0  0  0  0  0  0  0  0  0  0
   58.0910   31.0190   45.3720 C   0  0  0  0  0  0  0  0  0  0  0  0
   57.5100   29.9110   44.7200 C   0  0  0  0  0  0  0  0  0  0  0  0
   57.0250   30.0230   43.4190 C   0  0  0  0  0  0  0  0  0  0  0  0
   57.0970   31.2400   42.7540 C   0  0  0  0  0  0  0  0  0  0  0  0
   57.6730   32.3470   43.3750 C   0  0  0  0  0  0  0  0  0  0  0  0
   58.2100   32.2560   44.6840 C   0  0  0  0  0  0  0  0  0  0  0  0
   58.8280   33.3320   45.2950 N   0  0  0  0  0  0  0  0  0  0  0  0
   59.2100   34.5180   44.4950 C   0  0  0  0  0  0  0  0  0  0  0  0
   59.0950   33.2950   46.6510 C   0  0  0  0  0  0  0  0  0  0  0  0
   59.4550   34.4590   47.3740 C   0  0  0  0  0  0  0  0  0  0  0  0
   59.7480   34.4050   48.7370 C   0  0  0  0  0  0  0  0  0  0  0  0
   59.6700   33.1920   49.4310 C   0  0  0  0  0  0  0  0  0  0  0  0
   59.9230   33.0900   50.8070 O   0  0  0  0  0  0  0  0  0  0  0  0
   61.1870   32.7870   51.4000 C   0  0  0  0  0  0  0  0  0  0  0  0
   62.2750   33.7610   50.8880 C   0  0  0  0  0  0  0  0  0  0  0  0
   63.3610   33.1730   50.0290 N   0  0  0  0  0  0  0  0  0  0  0  0
   64.6960   33.4920   50.6070 C   0  0  0  0  0  0  0  0  0  0  0  0
   63.2310   31.6800   49.9200 C   0  0  0  0  0  0  0  0  0  0  0  0
   62.2880   31.2440   48.7880 C   0  0  0  0  0  0  0  0  0  0  0  0
   62.8360   31.6870   47.4200 C   0  0  0  0  0  0  0  0  0  0  0  0
   63.7340   32.9320   47.5240 C   0  0  0  0  0  0  0  0  0  0  0  0
   63.2710   33.8360   48.6780 C   0  0  0  0  0  0  0  0  0  0  0  0
   59.2670   32.0440   48.7490 C   0  0  0  0  0  0  0  0  0  0  0  0
   58.9860   32.0740   47.3660 C   0  0  0  0  0  0  0  0  0  0  0  0
   56.6054   25.1022   47.7454 H   0  0  0  0  0  0  0  0  0  0  0  0
   55.6750   24.6993   46.2626 H   0  0  0  0  0  0  0  0  0  0  0  0
   57.4664   24.5669   46.2626 H   0  0  0  0  0  0  0  0  0  0  0  0
   56.3105   26.6656   45.1606 H   0  0  0  0  0  0  0  0  0  0  0  0
   56.1525   27.2001   46.9106 H   0  0  0  0  0  0  0  0  0  0  0  0
   59.8850   26.8025   45.1020 H   0  0  0  0  0  0  0  0  0  0  0  0
   58.3970   26.1734   44.3167 H   0  0  0  0  0  0  0  0  0  0  0  0
   58.7353   27.9375   44.3167 H   0  0  0  0  0  0  0  0  0  0  0  0
   58.2835   27.0103   48.2551 H   0  0  0  0  0  0  0  0  0  0  0  0
   59.2545   25.8131   47.2680 H   0  0  0  0  0  0  0  0  0  0  0  0
   60.8555   27.2633   48.2132 H   0  0  0  0  0  0  0  0  0  0  0  0
   60.6317   27.8139   46.5004 H   0  0  0  0  0  0  0  0  0  0  0  0
   59.6861   29.1240   49.0721 H   0  0  0  0  0  0  0  0  0  0  0  0
   60.6497   29.8173   47.7072 H   0  0  0  0  0  0  0  0  0  0  0  0
   57.7760   28.9920   47.2700 H   0  0  0  0  0  0  0  0  0  0  0  0
   57.4391   28.9471   45.2453 H   0  0  0  0  0  0  0  0  0  0  0  0
   56.5851   29.1478   42.9185 H   0  0  0  0  0  0  0  0  0  0  0  0
   56.6978   31.3308   41.7330 H   0  0  0  0  0  0  0  0  0  0  0  0
   57.7116   33.3076   42.8404 H   0  0  0  0  0  0  0  0  0  0  0  0
   59.4764   35.3450   45.1696 H   0  0  0  0  0  0  0  0  0  0  0  0
   60.0736   34.2697   43.8605 H   0  0  0  0  0  0  0  0  0  0  0  0
   58.3638   34.8204   43.8605 H   0  0  0  0  0  0  0  0  0  0  0  0
   59.5045   35.4249   46.8501 H   0  0  0  0  0  0  0  0  0  0  0  0
   60.0422   35.3214   49.2695 H   0  0  0  0  0  0  0  0  0  0  0  0
   61.1050   32.8786   52.4931 H   0  0  0  0  0  0  0  0  0  0  0  0
   61.4714   31.7606   51.1250 H   0  0  0  0  0  0  0  0  0  0  0  0
   61.7719   34.5427   50.2999 H   0  0  0  0  0  0  0  0  0  0  0  0
   62.7868   34.1224   51.7922 H   0  0  0  0  0  0  0  0  0  0  0  0
   64.6332   33.4770   51.7051 H   0  0  0  0  0  0  0  0  0  0  0  0
   65.4291   32.7438   50.2714 H   0  0  0  0  0  0  0  0  0  0  0  0
   65.0117   34.4909   50.2714 H   0  0  0  0  0  0  0  0  0  0  0  0
   64.2272   31.2536   49.7310 H   0  0  0  0  0  0  0  0  0  0  0  0
   62.8030   31.3156   50.8655 H   0  0  0  0  0  0  0  0  0  0  0  0
   62.1919   30.1483   48.8005 H   0  0  0  0  0  0  0  0  0  0  0  0
   61.3068   31.7159   48.9447 H   0  0  0  0  0  0  0  0  0  0  0  0
   63.4238   30.8622   46.9908 H   0  0  0  0  0  0  0  0  0  0  0  0
   61.9778   31.9445   46.7819 H   0  0  0  0  0  0  0  0  0  0  0  0
   64.7716   32.6155   47.7062 H   0  0  0  0  0  0  0  0  0  0  0  0
   63.6691   33.4967   46.5822 H   0  0  0  0  0  0  0  0  0  0  0  0
   63.9008   34.7378   48.6892 H   0  0  0  0  0  0  0  0  0  0  0  0
   62.2113   34.0722   48.5013 H   0  0  0  0  0  0  0  0  0  0  0  0
   59.1662   31.0970   49.2995 H   0  0  0  0  0  0  0  0  0  0  0  0
  1  2  1  0
  2  3  1  0
  3  4  1  0
  3  5  1  0
  5  6  1  0
  6  7  1  0
  7  8  1  0
  8  9  1  0
  9 10  2  0
 10 11  1  0
 11 12  2  0
 12 13  1  0
 13 14  2  0
 14 15  1  0
 15 16  2  0
 16 17  1  0
 16 18  1  0
 18 19  2  0
 19 20  1  0
 20 21  2  0
 21 22  1  0
 22 23  1  0
 23 24  1  0
 24 25  1  0
 25 26  1  0
 25 27  1  0
 27 28  1  0
 28 29  1  0
 29 30  1  0
 30 31  1  0
 21 32  1  0
 32 33  2  0
 33  9  1  0
 15 10  1  0
 33 18  1  0
 31 25  1  0
  1 34  1  0
  1 35  1  0
  1 36  1  0
  2 37  1  0
  2 38  1  0
  4 39  1  0
  4 40  1  0
  4 41  1  0
  5 42  1  0
  5 43  1  0
  6 44  1  0
  6 45  1  0
  7 46  1  0
  7 47  1  0
  8 48  1  0
 11 49  1  0
 12 50  1  0
 13 51  1  0
 14 52  1  0
 17 53  1  0
 17 54  1  0
 17 55  1  0
 19 56  1  0
 20 57  1  0
 23 58  1  0
 23 59  1  0
 24 60  1  0
 24 61  1  0
 26 62  1  0
 26 63  1  0
 26 64  1  0
 27 65  1  0
 27 66  1  0
 28 67  1  0
 28 68  1  0
 29 69  1  0
 29 70  1  0
 30 71  1  0
 30 72  1  0
 31 73  1  0
 31 74  1  0
 32 75  1  0
M  CHG  2  16   1  25   1
M  END
>  <UniqueID>  (11) 
11

>  <SMILES>  (11) 
CCN(C)CCCNc1c2ccccc2[n+](C)c2ccc(OCC[N+]3(C)CCCCC3)cc12

>  <Energy>  (11) 
127.36688214715561

>  <Genealogy>  (11) 
CCN(C)CCCNc1c2ccccc2[n+](C)c2ccc(OCC[N+]3(C)CCCCC3)cc12 (3D coordinates assigned)
CCN(C)CCCNc1c2ccccc2[n+](C)c2ccc(OCC[N+]3(C)CCCCC3)cc12 (nonaromatic ring conformer: 127.36688214715561 kcal/mol)

>  <smiles>  (11) 
CCN(C)CCCNc1c2ccccc2[n+](C)c2ccc(OCC[N+]3(C)CCCCC3)cc12

>  <score_type>  (11) 
oracle

>  <origin>  (11) 
adg

>  <m_score__min__energy>  (11) 
-5.4199999999999999

>  <m_primary>  (11) 
energy

$$$$
11:0
     RDKit          3D

 39 39  0  0  0  0  0  0  0  0999 V2000
   58.6180   32.2460   48.5370 C   0  0  0  0  0  0  0  0  0  0  0  0
   58.4790   32.7280   47.1190 C   0  0  0  0  0  0  0  0  0  0  0  0
   58.6570   34.0880   46.8180 C   0  0  0  0  0  0  0  0  0  0  0  0
   58.5280   34.5420   45.5030 C   0  0  0  0  0  0  0  0  0  0  0  0
   58.2210   33.6440   44.4800 C   0  0  0  0  0  0  0  0  0  0  0  0
   58.0410   32.2880   44.7680 C   0  0  0  0  0  0  0  0  0  0  0  0
   58.1670   31.8170   46.0900 C   0  0  0  0  0  0  0  0  0  0  0  0
   57.9930   30.4610   46.4130 O   0  0  0  0  0  0  0  0  0  0  0  0
   59.0540   29.5550   46.7010 C   0  0  0  0  0  0  0  0  0  0  0  0
   58.4740   28.1750   46.9940 C   0  0  0  0  0  0  0  0  0  0  0  0
   57.3500   27.9010   46.0900 N   0  0  0  0  0  0  0  0  0  0  0  0
   57.7560   27.0290   44.9780 C   0  0  0  0  0  0  0  0  0  0  0  0
   58.1410   27.8620   43.7570 C   0  0  0  0  0  0  0  0  0  0  0  0
   57.8520   29.2200   44.0160 O   0  0  0  0  0  0  0  0  0  0  0  0
   56.9840   29.7430   43.0280 C   0  0  0  0  0  0  0  0  0  0  0  0
   55.5690   29.9190   43.5850 C   0  0  0  0  0  0  0  0  0  0  0  0
   55.4510   29.2860   44.8960 N   0  0  0  0  0  0  0  0  0  0  0  0
   58.3810   33.0679   49.2286 H   0  0  0  0  0  0  0  0  0  0  0  0
   57.9244   31.4099   48.7097 H   0  0  0  0  0  0  0  0  0  0  0  0
   59.6503   31.9076   48.7097 H   0  0  0  0  0  0  0  0  0  0  0  0
   58.8992   34.7993   47.6214 H   0  0  0  0  0  0  0  0  0  0  0  0
   58.6686   35.6086   45.2738 H   0  0  0  0  0  0  0  0  0  0  0  0
   58.1205   34.0037   43.4453 H   0  0  0  0  0  0  0  0  0  0  0  0
   57.7995   31.5844   43.9577 H   0  0  0  0  0  0  0  0  0  0  0  0
   59.7295   29.4932   45.8350 H   0  0  0  0  0  0  0  0  0  0  0  0
   59.6154   29.9120   47.5770 H   0  0  0  0  0  0  0  0  0  0  0  0
   59.2539   27.4133   46.8470 H   0  0  0  0  0  0  0  0  0  0  0  0
   58.1165   28.1467   48.0339 H   0  0  0  0  0  0  0  0  0  0  0  0
   57.0450   28.8160   45.6810 H   0  0  0  0  0  0  0  0  0  0  0  0
   58.6197   26.4234   45.2898 H   0  0  0  0  0  0  0  0  0  0  0  0
   56.9114   26.3767   44.7113 H   0  0  0  0  0  0  0  0  0  0  0  0
   59.2162   27.7458   43.5556 H   0  0  0  0  0  0  0  0  0  0  0  0
   57.5702   27.5216   42.8804 H   0  0  0  0  0  0  0  0  0  0  0  0
   57.3643   30.7198   42.6945 H   0  0  0  0  0  0  0  0  0  0  0  0
   56.9454   29.0385   42.1841 H   0  0  0  0  0  0  0  0  0  0  0  0
   55.3489   30.9925   43.6806 H   0  0  0  0  0  0  0  0  0  0  0  0
   54.8548   29.4444   42.8961 H   0  0  0  0  0  0  0  0  0  0  0  0
   56.1560   29.7290   45.5280 H   0  0  0  0  0  0  0  0  0  0  0  0
   55.7310   28.2830   44.8020 H   0  0  0  0  0  0  0  0  0  0  0  0
  1  2  1  0
  2  3  2  0
  3  4  1  0
  4  5  2  0
  5  6  1  0
  6  7  2  0
  7  8  1  0
  8  9  1  0
  9 10  1  0
 10 11  1  0
 11 12  1  0
 12 13  1  0
 13 14  1  0
 14 15  1  0
 15 16  1  0
 16 17  1  0
  7  2  1  0
  1 18  1  0
  1 19  1  0
  1 20  1  0
  3 21  1  0
  4 22  1  0
  5 23  1  0
  6 24  1  0
  9 25  1  0
  9 26  1  0
 10 27  1  0
 10 28  1  0
 11 29  1  0
 12 30  1  0
 12 31  1  0
 13 32  1  0
 13 33  1  0
 15 34  1  0
 15 35  1  0
 16 36  1  0
 16 37  1  0
 17 38  1  0
 17 39  1  0
M  END
>  <UniqueID>  (12) 
12

>  <SMILES>  (12) 
Cc1ccccc1OCCNCCOCCN

>  <Energy>  (12) 
29.696941671130585

>  <Genealogy>  (12) 
Cc1ccccc1OCCNCCOCCN (3D coordinates assigned)
Cc1ccccc1OCCNCCOCCN (optimized conformer: 29.696941671130585 kcal/mol)

>  <smiles>  (12) 
Cc1ccccc1OCCNCCOCCN

>  <score_type>  (12) 
oracle

>  <origin>  (12) 
adg

>  <m_score__min__energy>  (12) 
-6.0300000000000002

>  <m_primary>  (12) 
energy

$$$$
12:0
     RDKit          3D

 41 43  0  0  0  0  0  0  0  0999 V2000
   57.0856   29.1017   42.3002 H   0  0  0  0  0  0  0  0  0  0  0  0
   57.2880   28.9520   43.3710 C   0  0  0  0  0  0  0  0  0  0  0  0
   56.7560   29.9540   44.3160 C   0  0  0  0  0  0  0  0  0  0  0  0
   55.6470   29.7180   44.8670 O   0  0  0  0  0  0  0  0  0  0  0  0
   57.4430   31.2420   44.5910 C   0  0  0  0  0  0  0  0  0  0  0  0
   57.7800   32.0980   43.5280 C   0  0  0  0  0  0  0  0  0  0  0  0
   57.5491   31.8000   42.4946 H   0  0  0  0  0  0  0  0  0  0  0  0
   58.4050   33.3230   43.7710 C   0  0  0  0  0  0  0  0  0  0  0  0
   58.6580   33.9851   42.9298 H   0  0  0  0  0  0  0  0  0  0  0  0
   58.7110   33.7120   45.0810 C   0  0  0  0  0  0  0  0  0  0  0  0
   59.3290   34.9460   45.3370 C   0  0  0  0  0  0  0  0  0  0  0  0
   59.5769   35.6188   44.5028 H   0  0  0  0  0  0  0  0  0  0  0  0
   59.6300   35.3220   46.6480 C   0  0  0  0  0  0  0  0  0  0  0  0
   60.1136   36.2906   46.8430 H   0  0  0  0  0  0  0  0  0  0  0  0
   59.3190   34.4720   47.7130 C   0  0  0  0  0  0  0  0  0  0  0  0
   59.5579   34.7738   48.7435 H   0  0  0  0  0  0  0  0  0  0  0  0
   58.7050   33.2390   47.4720 C   0  0  0  0  0  0  0  0  0  0  0  0
   58.4631   32.5723   48.3128 H   0  0  0  0  0  0  0  0  0  0  0  0
   58.3970   32.8510   46.1590 C   0  0  0  0  0  0  0  0  0  0  0  0
   57.7760   31.6180   45.9060 C   0  0  0  0  0  0  0  0  0  0  0  0
   57.5478   30.9402   46.7418 H   0  0  0  0  0  0  0  0  0  0  0  0
   58.0000   27.8730   43.7250 C   0  0  0  0  0  0  0  0  0  0  0  0
   57.8449   26.9381   43.1665 H   0  0  0  0  0  0  0  0  0  0  0  0
   58.9560   27.8770   44.7980 N   0  0  0  0  0  0  0  0  0  0  0  0
   60.0020   28.9100   44.8530 C   0  0  0  0  0  0  0  0  0  0  0  0
   59.6245   29.8314   44.3856 H   0  0  0  0  0  0  0  0  0  0  0  0
   60.8887   28.5445   44.3143 H   0  0  0  0  0  0  0  0  0  0  0  0
   60.3940   29.2060   46.3020 C   0  0  0  0  0  0  0  0  0  0  0  0
   60.9042   30.1791   46.3553 H   0  0  0  0  0  0  0  0  0  0  0  0
   61.0728   28.4236   46.6721 H   0  0  0  0  0  0  0  0  0  0  0  0
   59.1740   29.2410   47.1280 N   0  0  0  0  0  0  0  0  0  0  0  0
   59.4680   29.7940   48.4590 C   0  0  0  0  0  0  0  0  0  0  0  0
   59.1008   29.1033   49.2323 H   0  0  0  0  0  0  0  0  0  0  0  0
   60.5546   29.9245   48.5700 H   0  0  0  0  0  0  0  0  0  0  0  0
   58.9685   30.7677   48.5700 H   0  0  0  0  0  0  0  0  0  0  0  0
   58.5500   27.9010   47.2480 C   0  0  0  0  0  0  0  0  0  0  0  0
   57.4765   28.0319   47.4490 H   0  0  0  0  0  0  0  0  0  0  0  0
   59.0620   27.3738   48.0665 H   0  0  0  0  0  0  0  0  0  0  0  0
   58.7100   27.0400   45.9760 C   0  0  0  0  0  0  0  0  0  0  0  0
   57.7895   26.4590   45.8177 H   0  0  0  0  0  0  0  0  0  0  0  0
   59.5717   26.3704   46.1142 H   0  0  0  0  0  0  0  0  0  0  0  0
  1  2  1  0
  2  3  1  0
  3  4  2  0
  3  5  1  0
  5  6  2  0
  6  7  1  0
  6  8  1  0
  8  9  1  0
  8 10  2  0
 10 11  1  0
 11 12  1  0
 11 13  2  0
 13 14  1  0
 13 15  1  0
 15 16  1  0
 15 17  2  0
 17 18  1  0
 17 19  1  0
 19 20  2  0
 20 21  1  0
  2 22  2  0
 22 23  1  0
 22 24  1  0
 24 25  1  0
 25 26  1  0
 25 27  1  0
 25 28  1  0
 28 29  1  0
 28 30  1  0
 28 31  1  0
 31 32  1  0
 32 33  1  0
 32 34  1  0
 32 35  1  0
 31 36  1  0
 36 37  1  0
 36 38  1  0
 36 39  1  0
 39 40  1  0
 39 41  1  0
 20  5  1  0
 39 24  1  0
 19 10  1  0
M  END
>  <UniqueID>  (13) 
13

>  <SMILES>  (13) 
CN1CCN(/C=C\C(=O)c2ccc3ccccc3c2)CC1

>  <Energy>  (13) 
59.2207863173976

>  <Genealogy>  (13) 
CN1CCN(/C=C\C(=O)c2ccc3ccccc3c2)CC1 (cis-trans isomerization)
CN1CCN(/C=C\C(=O)c2ccc3ccccc3c2)CC1 (3D coordinates assigned)
CN1CCN(/C=C\C(=O)c2ccc3ccccc3c2)CC1 (nonaromatic ring conformer: 59.2207863173976 kcal/mol)

>  <smiles>  (13) 
CN1CCN(C=CC(=O)c2ccc3ccccc3c2)CC1

>  <score_type>  (13) 
oracle

>  <origin>  (13) 
adg

>  <m_score__min__energy>  (13) 
-8.0099999999999998

>  <m_primary>  (13) 
energy

$$$$
13:0
     RDKit          3D

 49 50  0  0  0  0  0  0  0  0999 V2000
   63.3450   32.0190   49.7150 C   0  0  0  0  0  0  0  0  0  0  0  0
   62.8940   33.4260   49.2910 C   0  0  0  0  0  0  0  0  0  0  0  0
   61.7800   33.4470   48.3110 N   0  0  0  0  0  0  0  0  0  0  0  0
   62.2160   33.8280   46.9520 C   0  0  0  0  0  0  0  0  0  0  0  0
   63.6770   33.4420   46.7340 C   0  0  0  0  0  0  0  0  0  0  0  0
   60.6010   34.2150   48.7770 C   0  0  0  0  0  0  0  0  0  0  0  0
   59.8810   33.4720   49.9020 C   0  0  0  0  0  0  0  0  0  0  0  0
   58.5230   32.4430   49.2420 S   0  0  0  0  0  0  0  0  0  0  0  0
   59.1350   30.8500   49.9100 C   0  0  0  0  0  0  0  0  0  0  0  0
   59.8150   30.0260   48.8140 C   0  0  0  0  0  0  0  0  0  0  0  0
   60.7990   30.8400   48.0860 N   0  0  0  0  0  0  0  0  0  0  0  0
   61.0820   30.2950   46.7510 C   0  0  0  0  0  0  0  0  0  0  0  0
   59.8080   30.2740   45.9410 C   0  0  0  0  0  0  0  0  0  0  0  0
   59.3300   29.0430   45.4650 C   0  0  0  0  0  0  0  0  0  0  0  0
   58.1070   28.9620   44.8010 C   0  0  0  0  0  0  0  0  0  0  0  0
   57.3270   30.1050   44.6020 C   0  0  0  0  0  0  0  0  0  0  0  0
   55.7840   29.9180   43.7740 Cl  0  0  0  0  0  0  0  0  0  0  0  0
   57.7850   31.3550   45.0710 C   0  0  0  0  0  0  0  0  0  0  0  0
   57.0320   32.5320   44.9100 C   0  0  0  0  0  0  0  0  0  0  0  0
   57.5170   33.7470   45.3950 C   0  0  0  0  0  0  0  0  0  0  0  0
   58.7510   33.7850   46.0380 C   0  0  0  0  0  0  0  0  0  0  0  0
   59.4730   32.6460   46.1930 N   0  0  0  0  0  0  0  0  0  0  0  0
   59.0350   31.4380   45.7380 C   0  0  0  0  0  0  0  0  0  0  0  0
   63.3653   31.9558   50.8130 H   0  0  0  0  0  0  0  0  0  0  0  0
   62.6410   31.2730   49.3177 H   0  0  0  0  0  0  0  0  0  0  0  0
   64.3515   31.8213   49.3177 H   0  0  0  0  0  0  0  0  0  0  0  0
   62.5696   33.9684   50.1913 H   0  0  0  0  0  0  0  0  0  0  0  0
   63.7564   33.8938   48.7936 H   0  0  0  0  0  0  0  0  0  0  0  0
   61.5896   33.3090   46.2116 H   0  0  0  0  0  0  0  0  0  0  0  0
   62.1137   34.9171   46.8366 H   0  0  0  0  0  0  0  0  0  0  0  0
   64.1710   33.3115   47.7081 H   0  0  0  0  0  0  0  0  0  0  0  0
   63.7269   32.4999   46.1684 H   0  0  0  0  0  0  0  0  0  0  0  0
   64.1857   34.2366   46.1684 H   0  0  0  0  0  0  0  0  0  0  0  0
   60.9328   35.1963   49.1472 H   0  0  0  0  0  0  0  0  0  0  0  0
   59.9052   34.3397   47.9342 H   0  0  0  0  0  0  0  0  0  0  0  0
   60.6012   32.8253   50.4246 H   0  0  0  0  0  0  0  0  0  0  0  0
   59.4550   34.2126   50.5949 H   0  0  0  0  0  0  0  0  0  0  0  0
   59.8599   31.0503   50.7127 H   0  0  0  0  0  0  0  0  0  0  0  0
   58.2793   30.2795   50.3002 H   0  0  0  0  0  0  0  0  0  0  0  0
   60.3261   29.1668   49.2729 H   0  0  0  0  0  0  0  0  0  0  0  0
   59.0484   29.6803   48.1049 H   0  0  0  0  0  0  0  0  0  0  0  0
   60.4020   31.8000   47.9630 H   0  0  0  0  0  0  0  0  0  0  0  0
   61.8279   30.9268   46.2466 H   0  0  0  0  0  0  0  0  0  0  0  0
   61.4755   29.2722   46.8460 H   0  0  0  0  0  0  0  0  0  0  0  0
   59.9273   28.1320   45.6177 H   0  0  0  0  0  0  0  0  0  0  0  0
   57.7522   27.9892   44.4300 H   0  0  0  0  0  0  0  0  0  0  0  0
   56.0580   32.4945   44.4003 H   0  0  0  0  0  0  0  0  0  0  0  0
   56.9286   34.6680   45.2702 H   0  0  0  0  0  0  0  0  0  0  0  0
   59.1416   34.7393   46.4210 H   0  0  0  0  0  0  0  0  0  0  0  0
  1  2  1  0
  2  3  1  0
  3  4  1  0
  4  5  1  0
  3  6  1  0
  6  7  1  0
  7  8  1  0
  8  9  1  0
  9 10  1  0
 10 11  1  0
 11 12  1  0
 12 13  1  0
 13 14  2  0
 14 15  1  0
 15 16  2  0
 16 17  1  0
 16 18  1  0
 18 19  2  0
 19 20  1  0
 20 21  2  0
 21 22  1  0
 22 23  2  0
 23 13  1  0
 23 18  1  0
  1 24  1  0
  1 25  1  0
  1 26  1  0
  2 27  1  0
  2 28  1  0
  4 29  1  0
  4 30  1  0
  5 31  1  0
  5 32  1  0
  5 33  1  0
  6 34  1  0
  6 35  1  0
  7 36  1  0
  7 37  1  0
  9 38  1  0
  9 39  1  0
 10 40  1  0
 10 41  1  0
 11 42  1  0
 12 43  1  0
 12 44  1  0
 14 45  1  0
 15 46  1  0
 19 47  1  0
 20 48  1  0
 21 49  1  0
M  END
>  <UniqueID>  (14) 
14

>  <SMILES>  (14) 
CCN(CC)CCSCCNCc1ccc(Cl)c2cccnc12

>  <Energy>  (14) 
44.231118208756456

>  <Genealogy>  (14) 
CCN(CC)CCSCCNCc1ccc(Cl)c2cccnc12 (3D coordinates assigned)
CCN(CC)CCSCCNCc1ccc(Cl)c2cccnc12 (optimized conformer: 44.231118208756456 kcal/mol)

>  <smiles>  (14) 
CCN(CC)CCSCCNCc1ccc(Cl)c2cccnc12

>  <score_type>  (14) 
oracle

>  <origin>  (14) 
adg

>  <m_score__min__energy>  (14) 
-6.9000000000000004

>  <m_primary>  (14) 
energy

$$$$
14:0
     RDKit          3D

 41 43  0  0  0  0  0  0  0  0999 V2000
   58.4480   27.4130   43.7730 C   0  0  0  0  0  0  0  0  0  0  0  0
   57.5140   28.5540   44.1840 C   0  0  0  0  0  0  0  0  0  0  0  0
   57.7070   29.7730   43.3730 N   0  0  0  0  0  0  0  0  0  0  0  0
   56.9410   30.9520   43.8190 C   0  0  0  0  0  0  0  0  0  0  0  0
   57.6960   32.3080   43.7690 C   0  0  0  0  0  0  0  0  0  0  0  0
   58.4270   32.8130   45.0610 C   0  0  2  0  0  0  0  0  0  0  0  0
   57.3370   33.2690   46.0820 C   0  0  0  0  0  0  0  0  0  0  0  0
   57.9830   33.7680   47.3910 C   0  0  1  0  0  0  0  0  0  0  0  0
   58.8050   32.6280   48.0250 C   0  0  0  0  0  0  0  0  0  0  0  0
   59.9030   32.1810   47.0400 C   0  0  2  0  0  0  0  0  0  0  0  0
   60.8330   33.3730   46.7250 C   0  0  0  0  0  0  0  0  0  0  0  0
   60.0090   34.5190   46.0960 C   0  0  2  0  0  0  0  0  0  0  0  0
   58.9090   34.9640   47.0810 C   0  0  0  0  0  0  0  0  0  0  0  0
   59.3620   34.0260   44.7820 C   0  0  0  0  0  0  0  0  0  0  0  0
   59.2520   31.6750   45.7340 C   0  0  0  0  0  0  0  0  0  0  0  0
   58.8481   26.9242   44.6736 H   0  0  0  0  0  0  0  0  0  0  0  0
   57.8885   26.6785   43.1750 H   0  0  0  0  0  0  0  0  0  0  0  0
   59.2785   27.8163   43.1750 H   0  0  0  0  0  0  0  0  0  0  0  0
   56.4738   28.2157   44.0676 H   0  0  0  0  0  0  0  0  0  0  0  0
   57.7456   28.8112   45.2281 H   0  0  0  0  0  0  0  0  0  0  0  0
   58.7220   30.0050   43.3260 H   0  0  0  0  0  0  0  0  0  0  0  0
   57.4190   29.5590   42.3890 H   0  0  0  0  0  0  0  0  0  0  0  0
   56.0507   31.0378   43.1787 H   0  0  0  0  0  0  0  0  0  0  0  0
   56.7138   30.7760   44.8808 H   0  0  0  0  0  0  0  0  0  0  0  0
   58.4564   32.2258   42.9784 H   0  0  0  0  0  0  0  0  0  0  0  0
   56.9003   33.0499   43.6061 H   0  0  0  0  0  0  0  0  0  0  0  0
   56.7465   34.0841   45.6383 H   0  0  0  0  0  0  0  0  0  0  0  0
   56.6915   32.4092   46.3143 H   0  0  0  0  0  0  0  0  0  0  0  0
   57.1976   34.0850   48.0928 H   0  0  0  0  0  0  0  0  0  0  0  0
   59.2699   32.9844   48.9561 H   0  0  0  0  0  0  0  0  0  0  0  0
   58.1436   31.7781   48.2490 H   0  0  0  0  0  0  0  0  0  0  0  0
   60.4907   31.3694   47.4937 H   0  0  0  0  0  0  0  0  0  0  0  0
   61.3027   33.7269   47.6546 H   0  0  0  0  0  0  0  0  0  0  0  0
   61.6127   33.0522   46.0184 H   0  0  0  0  0  0  0  0  0  0  0  0
   60.6700   35.3714   45.8802 H   0  0  0  0  0  0  0  0  0  0  0  0
   59.3729   35.3200   48.0127 H   0  0  0  0  0  0  0  0  0  0  0  0
   58.3204   35.7772   46.6312 H   0  0  0  0  0  0  0  0  0  0  0  0
   58.7738   34.8429   44.3386 H   0  0  0  0  0  0  0  0  0  0  0  0
   60.1560   33.7131   44.0881 H   0  0  0  0  0  0  0  0  0  0  0  0
   60.0395   31.3408   45.0425 H   0  0  0  0  0  0  0  0  0  0  0  0
   58.5779   30.8390   45.9723 H   0  0  0  0  0  0  0  0  0  0  0  0
  1  2  1  0
  2  3  1  0
  3  4  1  0
  4  5  1  0
  6  5  1  6
  6  7  1  0
  7  8  1  0
  8  9  1  0
  9 10  1  0
 10 11  1  0
 11 12  1  0
 12 13  1  0
 12 14  1  0
 10 15  1  0
 14  6  1  0
 15  6  1  0
 13  8  1  0
  1 16  1  0
  1 17  1  0
  1 18  1  0
  2 19  1  0
  2 20  1  0
  3 21  1  0
  3 22  1  0
  4 23  1  0
  4 24  1  0
  5 25  1  0
  5 26  1  0
  7 27  1  0
  7 28  1  0
  8 29  1  1
  9 30  1  0
  9 31  1  0
 10 32  1  1
 11 33  1  0
 11 34  1  0
 12 35  1  6
 13 36  1  0
 13 37  1  0
 14 38  1  0
 14 39  1  0
 15 40  1  0
 15 41  1  0
M  CHG  1   3   1
M  END
>  <UniqueID>  (15) 
15

>  <SMILES>  (15) 
CC[NH2+]CCC12CC3CC(CC(C3)C1)C2

>  <Energy>  (15) 
42.32358332217442

>  <Genealogy>  (15) 
CC[NH2+]CCC12CC3CC(CC(C3)C1)C2 (protonated)
CC[NH2+]CCC12CC3CC(CC(C3)C1)C2 (3D coordinates assigned)
CC[NH2+]CCC12CC3CC(CC(C3)C1)C2 (nonaromatic ring conformer: 42.32358332217442 kcal/mol)

>  <smiles>  (15) 
CCNCCC12CC3CC(CC(C3)C1)C2

>  <score_type>  (15) 
oracle

>  <origin>  (15) 
adg

>  <m_score__min__energy>  (15) 
-5

>  <m_primary>  (15) 
energy

$$$$
15:0
     RDKit          3D

 73 75  0  0  0  0  0  0  0  0999 V2000
   59.8790   29.0980   45.0600 C   0  0  0  0  0  0  0  0  0  0  0  0
   58.8520   30.2310   45.0920 C   0  0  0  0  0  0  0  0  0  0  0  0
   57.4770   29.7360   44.8590 N   0  0  0  0  0  0  0  0  0  0  0  0
   56.6050   30.6320   44.0590 C   0  0  0  0  0  0  0  0  0  0  0  0
   57.2950   31.2700   42.8430 C   0  0  0  0  0  0  0  0  0  0  0  0
   57.3400   28.2900   44.5560 C   0  0  0  0  0  0  0  0  0  0  0  0
   56.6380   27.4600   45.6440 C   0  0  0  0  0  0  0  0  0  0  0  0
   56.7630   26.0770   45.3530 O   0  0  0  0  0  0  0  0  0  0  0  0
   58.0110   25.7680   44.7660 C   0  0  0  0  0  0  0  0  0  0  0  0
   59.0620   25.5180   45.8450 C   0  0  0  0  0  0  0  0  0  0  0  0
   58.5680   25.9600   47.1070 O   0  0  0  0  0  0  0  0  0  0  0  0
   59.1650   26.9680   47.8800 C   0  0  0  0  0  0  0  0  0  0  0  0
   60.4080   26.7090   48.4670 C   0  0  0  0  0  0  0  0  0  0  0  0
   61.0430   27.6780   49.2470 C   0  0  0  0  0  0  0  0  0  0  0  0
   60.4340   28.9240   49.4700 C   0  0  0  0  0  0  0  0  0  0  0  0
   61.1090   29.9740   50.3350 C   0  0  0  0  0  0  0  0  0  0  0  0
   61.7430   31.0710   49.5590 N   0  0  0  0  0  0  0  0  0  0  0  0
   61.4870   30.9430   48.1070 C   0  0  0  0  0  0  0  0  0  0  0  0
   62.4060   31.8420   47.2630 C   0  0  0  0  0  0  0  0  0  0  0  0
   61.9540   33.2970   47.0300 C   0  0  0  0  0  0  0  0  0  0  0  0
   61.7060   34.0960   48.2450 N   0  0  0  0  0  0  0  0  0  0  0  0
   60.3820   34.7430   48.3560 C   0  0  0  0  0  0  0  0  0  0  0  0
   59.5290   34.3690   47.1670 C   0  0  0  0  0  0  0  0  0  0  0  0
   59.6870   35.1000   45.9750 C   0  0  0  0  0  0  0  0  0  0  0  0
   58.9190   34.8020   44.8490 C   0  0  0  0  0  0  0  0  0  0  0  0
   57.9830   33.7690   44.8960 C   0  0  0  0  0  0  0  0  0  0  0  0
   57.8160   33.0300   46.0690 C   0  0  0  0  0  0  0  0  0  0  0  0
   58.5820   33.3180   47.2060 C   0  0  0  0  0  0  0  0  0  0  0  0
   58.2990   32.3510   48.6500 Cl  0  0  0  0  0  0  0  0  0  0  0  0
   62.2350   33.5050   49.4880 C   0  0  0  0  0  0  0  0  0  0  0  0
   61.3500   32.4030   50.0720 C   0  0  0  0  0  0  0  0  0  0  0  0
   59.1930   29.1920   48.8670 C   0  0  0  0  0  0  0  0  0  0  0  0
   58.5630   28.2240   48.0790 C   0  0  0  0  0  0  0  0  0  0  0  0
   60.1398   28.8103   46.0892 H   0  0  0  0  0  0  0  0  0  0  0  0
   59.4525   28.2312   44.5339 H   0  0  0  0  0  0  0  0  0  0  0  0
   60.7834   29.4376   44.5339 H   0  0  0  0  0  0  0  0  0  0  0  0
   58.8920   30.7196   46.0767 H   0  0  0  0  0  0  0  0  0  0  0  0
   59.1003   30.9391   44.2877 H   0  0  0  0  0  0  0  0  0  0  0  0
   55.7469   30.0454   43.6990 H   0  0  0  0  0  0  0  0  0  0  0  0
   56.3114   31.4586   44.7227 H   0  0  0  0  0  0  0  0  0  0  0  0
   58.0621   31.9793   43.1871 H   0  0  0  0  0  0  0  0  0  0  0  0
   57.7681   30.4842   42.2358 H   0  0  0  0  0  0  0  0  0  0  0  0
   56.5486   31.8031   42.2358 H   0  0  0  0  0  0  0  0  0  0  0  0
   56.7625   28.1899   43.6251 H   0  0  0  0  0  0  0  0  0  0  0  0
   58.3635   27.8941   44.4807 H   0  0  0  0  0  0  0  0  0  0  0  0
   57.1013   27.6708   46.6192 H   0  0  0  0  0  0  0  0  0  0  0  0
   55.5717   27.7289   45.6727 H   0  0  0  0  0  0  0  0  0  0  0  0
   57.9061   24.8650   44.1467 H   0  0  0  0  0  0  0  0  0  0  0  0
   58.3327   26.6177   44.1460 H   0  0  0  0  0  0  0  0  0  0  0  0
   59.2852   24.4421   45.8960 H   0  0  0  0  0  0  0  0  0  0  0  0
   59.9785   26.0735   45.5972 H   0  0  0  0  0  0  0  0  0  0  0  0
   60.8901   25.7324   48.3127 H   0  0  0  0  0  0  0  0  0  0  0  0
   62.0269   27.4640   49.6898 H   0  0  0  0  0  0  0  0  0  0  0  0
   60.3524   30.4130   51.0019 H   0  0  0  0  0  0  0  0  0  0  0  0
   61.9127   29.4660   50.8881 H   0  0  0  0  0  0  0  0  0  0  0  0
   61.6501   29.8961   47.8114 H   0  0  0  0  0  0  0  0  0  0  0  0
   60.4499   31.2598   47.9223 H   0  0  0  0  0  0  0  0  0  0  0  0
   63.3847   31.8765   47.7639 H   0  0  0  0  0  0  0  0  0  0  0  0
   62.4073   31.3838   46.2630 H   0  0  0  0  0  0  0  0  0  0  0  0
   62.7369   33.8041   46.4469 H   0  0  0  0  0  0  0  0  0  0  0  0
   60.9845   33.2291   46.5148 H   0  0  0  0  0  0  0  0  0  0  0  0
   59.8879   34.4078   49.2799 H   0  0  0  0  0  0  0  0  0  0  0  0
   60.5121   35.8350   48.3808 H   0  0  0  0  0  0  0  0  0  0  0  0
   60.4241   35.9153   45.9305 H   0  0  0  0  0  0  0  0  0  0  0  0
   59.0517   35.3820   43.9238 H   0  0  0  0  0  0  0  0  0  0  0  0
   57.3761   33.5363   44.0086 H   0  0  0  0  0  0  0  0  0  0  0  0
   57.0773   32.2155   46.1005 H   0  0  0  0  0  0  0  0  0  0  0  0
   63.2259   33.0776   49.2747 H   0  0  0  0  0  0  0  0  0  0  0  0
   62.2768   34.3120   50.2343 H   0  0  0  0  0  0  0  0  0  0  0  0
   61.4470   32.4082   51.1677 H   0  0  0  0  0  0  0  0  0  0  0  0
   60.3094   32.5977   49.7732 H   0  0  0  0  0  0  0  0  0  0  0  0
   58.7137   30.1708   49.0162 H   0  0  0  0  0  0  0  0  0  0  0  0
   57.5919   28.4455   47.6123 H   0  0  0  0  0  0  0  0  0  0  0  0
  1  2  1  0
  2  3  1  0
  3  4  1  0
  4  5  1  0
  3  6  1  0
  6  7  1  0
  7  8  1  0
  8  9  1  0
  9 10  1  0
 10 11  1  0
 11 12  1  0
 12 13  2  0
 13 14  1  0
 14 15  2  0
 15 16  1  0
 16 17  1  0
 17 18  1  0
 18 19  1  0
 19 20  1  0
 20 21  1  0
 21 22  1  0
 22 23  1  0
 23 24  2  0
 24 25  1  0
 25 26  2  0
 26 27  1  0
 27 28  2  0
 28 29  1  0
 21 30  1  0
 30 31  1  0
 15 32  1  0
 32 33  2  0
 33 12  1  0
 31 17  1  0
 28 23  1  0
  1 34  1  0
  1 35  1  0
  1 36  1  0
  2 37  1  0
  2 38  1  0
  4 39  1  0
  4 40  1  0
  5 41  1  0
  5 42  1  0
  5 43  1  0
  6 44  1  0
  6 45  1  0
  7 46  1  0
  7 47  1  0
  9 48  1  0
  9 49  1  0
 10 50  1  0
 10 51  1  0
 13 52  1  0
 14 53  1  0
 16 54  1  0
 16 55  1  0
 18 56  1  0
 18 57  1  0
 19 58  1  0
 19 59  1  0
 20 60  1  0
 20 61  1  0
 22 62  1  0
 22 63  1  0
 24 64  1  0
 25 65  1  0
 26 66  1  0
 27 67  1  0
 30 68  1  0
 30 69  1  0
 31 70  1  0
 31 71  1  0
 32 72  1  0
 33 73  1  0
M  END
>  <UniqueID>  (16) 
16

>  <SMILES>  (16) 
CCN(CC)CCOCCOc1ccc(CN2CCCN(Cc3ccccc3Cl)CC2)cc1

>  <Energy>  (16) 
99.7990175012318

>  <Genealogy>  (16) 
CCN(CC)CCOCCOc1ccc(CN2CCCN(Cc3ccccc3Cl)CC2)cc1 (3D coordinates assigned)
CCN(CC)CCOCCOc1ccc(CN2CCCN(Cc3ccccc3Cl)CC2)cc1 (nonaromatic ring conformer: 99.7990175012318 kcal/mol)

>  <smiles>  (16) 
CCN(CC)CCOCCOc1ccc(CN2CCCN(Cc3ccccc3Cl)CC2)cc1

>  <score_type>  (16) 
oracle

>  <origin>  (16) 
adg

>  <m_score__min__energy>  (16) 
-6.2800000000000002

>  <m_primary>  (16) 
energy

$$$$
16:0
     RDKit          3D

 52 53  0  0  0  0  0  0  0  0999 V2000
   57.6026   35.5910   44.5080 H   0  0  0  0  0  0  0  0  0  0  0  0
   58.0650   34.6810   44.9180 C   0  0  0  0  0  0  0  0  0  0  0  0
   59.2840   34.7520   45.5090 N   0  0  0  0  0  0  0  0  0  0  0  0
   59.8920   33.6550   46.0290 C   0  0  0  0  0  0  0  0  0  0  0  0
   61.1500   33.7820   46.6330 C   0  0  0  0  0  0  0  0  0  0  0  0
   61.6381   34.7666   46.6819 H   0  0  0  0  0  0  0  0  0  0  0  0
   61.7870   32.6600   47.1740 C   0  0  0  0  0  0  0  0  0  0  0  0
   63.3660   32.8260   47.9310 Cl  0  0  0  0  0  0  0  0  0  0  0  0
   61.1690   31.4080   47.1140 C   0  0  0  0  0  0  0  0  0  0  0  0
   61.6728   30.5278   47.5399 H   0  0  0  0  0  0  0  0  0  0  0  0
   59.9130   31.2690   46.5150 C   0  0  0  0  0  0  0  0  0  0  0  0
   59.4326   30.2802   46.4753 H   0  0  0  0  0  0  0  0  0  0  0  0
   59.2580   32.3900   45.9610 C   0  0  0  0  0  0  0  0  0  0  0  0
   57.9870   32.2920   45.3470 C   0  0  0  0  0  0  0  0  0  0  0  0
   57.3920   31.1310   45.2750 N   0  0  0  0  0  0  0  0  0  0  0  0
   57.0350   30.4140   44.0540 C   0  0  0  0  0  0  0  0  0  0  0  0
   57.7224   29.5670   43.9125 H   0  0  0  0  0  0  0  0  0  0  0  0
   57.1098   31.0962   43.1943 H   0  0  0  0  0  0  0  0  0  0  0  0
   55.6040   29.8940   44.1660 C   0  0  0  0  0  0  0  0  0  0  0  0
   55.2729   29.5233   43.1847 H   0  0  0  0  0  0  0  0  0  0  0  0
   54.9466   30.7119   44.4960 H   0  0  0  0  0  0  0  0  0  0  0  0
   55.5460   28.8410   45.1090 O   0  0  0  0  0  0  0  0  0  0  0  0
   56.7940   28.1870   45.2090 C   0  0  0  0  0  0  0  0  0  0  0  0
   57.5447   28.8880   45.6027 H   0  0  0  0  0  0  0  0  0  0  0  0
   57.1053   27.8371   44.2137 H   0  0  0  0  0  0  0  0  0  0  0  0
   56.6690   26.9940   46.1510 C   0  0  0  0  0  0  0  0  0  0  0  0
   56.7960   27.3341   47.1894 H   0  0  0  0  0  0  0  0  0  0  0  0
   57.4454   26.2547   45.9046 H   0  0  0  0  0  0  0  0  0  0  0  0
   55.3930   26.3970   46.0050 O   0  0  0  0  0  0  0  0  0  0  0  0
   55.5110   25.0520   45.5860 C   0  0  0  0  0  0  0  0  0  0  0  0
   55.3276   24.9871   44.5033 H   0  0  0  0  0  0  0  0  0  0  0  0
   54.7731   24.4342   46.1187 H   0  0  0  0  0  0  0  0  0  0  0  0
   56.9190   24.5480   45.8960 C   0  0  0  0  0  0  0  0  0  0  0  0
   56.8554   23.6778   46.5658 H   0  0  0  0  0  0  0  0  0  0  0  0
   57.4916   25.3515   46.3824 H   0  0  0  0  0  0  0  0  0  0  0  0
   57.6030   24.1530   44.6410 N   0  0  0  0  0  0  0  0  0  0  0  0
   57.7550   22.6910   44.4890 C   0  0  0  0  0  0  0  0  0  0  0  0
   57.4460   22.1961   45.4215 H   0  0  0  0  0  0  0  0  0  0  0  0
   58.8088   22.4639   44.2702 H   0  0  0  0  0  0  0  0  0  0  0  0
   56.8910   22.1800   43.3390 C   0  0  0  0  0  0  0  0  0  0  0  0
   56.0110   21.6595   43.7448 H   0  0  0  0  0  0  0  0  0  0  0  0
   56.5625   23.0292   42.7218 H   0  0  0  0  0  0  0  0  0  0  0  0
   57.4769   21.4831   42.7218 H   0  0  0  0  0  0  0  0  0  0  0  0
   57.0320   24.8100   43.4400 C   0  0  0  0  0  0  0  0  0  0  0  0
   57.0679   24.0942   42.6055 H   0  0  0  0  0  0  0  0  0  0  0  0
   56.0063   25.1093   43.7014 H   0  0  0  0  0  0  0  0  0  0  0  0
   57.7690   26.0890   43.0100 C   0  0  0  0  0  0  0  0  0  0  0  0
   58.0896   26.6453   43.9032 H   0  0  0  0  0  0  0  0  0  0  0  0
   58.6506   25.8199   42.4096 H   0  0  0  0  0  0  0  0  0  0  0  0
   57.0942   26.7168   42.4096 H   0  0  0  0  0  0  0  0  0  0  0  0
   57.3950   33.4630   44.8270 C   0  0  0  0  0  0  0  0  0  0  0  0
   56.4050   33.4139   44.3501 H   0  0  0  0  0  0  0  0  0  0  0  0
  1  2  1  0
  2  3  1  0
  3  4  1  0
  4  5  2  0
  5  6  1  0
  5  7  1  0
  7  8  1  0
  7  9  2  0
  9 10  1  0
  9 11  1  0
 11 12  1  0
 11 13  2  0
 13 14  1  0
 14 15  2  0
 15 16  1  0
 16 17  1  0
 16 18  1  0
 16 19  1  0
 19 20  1  0
 19 21  1  0
 19 22  1  0
 22 23  1  0
 23 24  1  0
 23 25  1  0
 23 26  1  0
 26 27  1  0
 26 28  1  0
 26 29  1  0
 29 30  1  0
 30 31  1  0
 30 32  1  0
 30 33  1  0
 33 34  1  0
 33 35  1  0
 33 36  1  0
 36 37  1  0
 37 38  1  0
 37 39  1  0
 37 40  1  0
 40 41  1  0
 40 42  1  0
 40 43  1  0
 36 44  1  0
 44 45  1  0
 44 46  1  0
 44 47  1  0
 47 48  1  0
 47 49  1  0
 47 50  1  0
 14 51  1  0
 51 52  1  0
 51  2  2  0
 13  4  1  0
M  CHG  1   3  -1
M  END
>  <UniqueID>  (17) 
17

>  <SMILES>  (17) 
CCN(CC)CCOCCOCC/N=c1\cc[n-]c2cc(Cl)ccc12

>  <Energy>  (17) 
56.889749750374996

>  <Genealogy>  (17) 
CCN(CC)CCOCCOCCN=c1cc[n-]c2cc(Cl)ccc12 (protonated)
CCN(CC)CCOCCOCC/N=c1\cc[n-]c2cc(Cl)ccc12 (cis-trans isomerization)
CCN(CC)CCOCCOCC/N=c1\cc[n-]c2cc(Cl)ccc12 (3D coordinates assigned)
CCN(CC)CCOCCOCC/N=c1\cc[n-]c2cc(Cl)ccc12 (optimized conformer: 56.889749750374996 kcal/mol)

>  <smiles>  (17) 
CCN(CC)CCOCCOCCN=c1cc[nH]c2cc(Cl)ccc12

>  <score_type>  (17) 
oracle

>  <origin>  (17) 
adg

>  <m_score__min__energy>  (17) 
-8.3100000000000005

>  <m_primary>  (17) 
energy

$$$$
17:0
     RDKit          3D

 53 55  0  0  0  0  0  0  0  0999 V2000
   60.2290   33.2570   50.6150 C   0  0  0  0  0  0  0  0  0  0  0  0
   59.8860   33.9740   49.3870 C   0  0  0  0  0  0  0  0  0  0  0  0
   59.6040   34.5660   48.3750 C   0  0  0  0  0  0  0  0  0  0  0  0
   59.2600   35.2800   47.1400 C   0  0  0  0  0  0  0  0  0  0  0  0
   59.6930   34.5380   46.0010 O   0  0  0  0  0  0  0  0  0  0  0  0
   59.1140   33.3420   45.5430 C   0  0  0  0  0  0  0  0  0  0  0  0
   59.2920   32.1100   46.2020 C   0  0  0  0  0  0  0  0  0  0  0  0
   58.6890   30.9510   45.7040 C   0  0  0  0  0  0  0  0  0  0  0  0
   57.9080   31.0040   44.5430 C   0  0  0  0  0  0  0  0  0  0  0  0
   57.1290   29.5420   43.9430 S   0  0  0  0  0  0  0  0  0  0  0  0
   56.1870   29.0060   44.9850 O   0  0  0  0  0  0  0  0  0  0  0  0
   56.3280   29.8990   42.7220 O   0  0  0  0  0  0  0  0  0  0  0  0
   58.3270   28.3380   43.5160 N   0  0  0  0  0  0  0  0  0  0  0  0
   58.9960   27.7720   44.7010 C   0  0  0  0  0  0  0  0  0  0  0  0
   58.1120   26.7640   45.4650 C   0  0  0  0  0  0  0  0  0  0  0  0
   57.2560   25.9310   44.5750 N   0  0  0  0  0  0  0  0  0  0  0  0
   56.9870   24.5570   45.1020 C   0  0  0  0  0  0  0  0  0  0  0  0
   56.8240   24.4840   46.6500 C   0  0  0  0  0  0  0  0  0  0  0  0
   55.5080   23.8160   47.0510 C   0  0  0  0  0  0  0  0  0  0  0  0
   54.4420   24.4330   46.3660 O   0  0  0  0  0  0  0  0  0  0  0  0
   54.4300   24.0710   44.9940 C   0  0  0  0  0  0  0  0  0  0  0  0
   55.8240   23.8560   44.3500 C   0  0  0  0  0  0  0  0  0  0  0  0
   57.7580   25.8970   43.1840 C   0  0  0  0  0  0  0  0  0  0  0  0
   57.7870   27.3170   42.5870 C   0  0  0  0  0  0  0  0  0  0  0  0
   57.7290   32.2290   43.8860 C   0  0  0  0  0  0  0  0  0  0  0  0
   58.3310   33.3880   44.3840 C   0  0  0  0  0  0  0  0  0  0  0  0
   59.9393   33.8627   51.4863 H   0  0  0  0  0  0  0  0  0  0  0  0
   59.6926   32.2970   50.6411 H   0  0  0  0  0  0  0  0  0  0  0  0
   61.3130   33.0722   50.6411 H   0  0  0  0  0  0  0  0  0  0  0  0
   58.1695   35.4158   47.0913 H   0  0  0  0  0  0  0  0  0  0  0  0
   59.7624   36.2586   47.1412 H   0  0  0  0  0  0  0  0  0  0  0  0
   59.9078   32.0595   47.1120 H   0  0  0  0  0  0  0  0  0  0  0  0
   58.8288   29.9932   46.2266 H   0  0  0  0  0  0  0  0  0  0  0  0
   59.9125   27.2585   44.3749 H   0  0  0  0  0  0  0  0  0  0  0  0
   59.2150   28.6045   45.3858 H   0  0  0  0  0  0  0  0  0  0  0  0
   58.7664   26.0957   46.0439 H   0  0  0  0  0  0  0  0  0  0  0  0
   57.4377   27.3478   46.1088 H   0  0  0  0  0  0  0  0  0  0  0  0
   56.3210   26.4010   44.5200 H   0  0  0  0  0  0  0  0  0  0  0  0
   57.9029   23.9862   44.8891 H   0  0  0  0  0  0  0  0  0  0  0  0
   57.6598   23.9046   47.0692 H   0  0  0  0  0  0  0  0  0  0  0  0
   56.8196   25.5116   47.0425 H   0  0  0  0  0  0  0  0  0  0  0  0
   55.5436   22.7483   46.7889 H   0  0  0  0  0  0  0  0  0  0  0  0
   55.3579   23.9216   48.1356 H   0  0  0  0  0  0  0  0  0  0  0  0
   53.8626   23.1338   44.8954 H   0  0  0  0  0  0  0  0  0  0  0  0
   53.9778   24.9202   44.4607 H   0  0  0  0  0  0  0  0  0  0  0  0
   56.0301   22.7757   44.3261 H   0  0  0  0  0  0  0  0  0  0  0  0
   55.7811   24.3039   43.3462 H   0  0  0  0  0  0  0  0  0  0  0  0
   58.7759   25.4801   43.1764 H   0  0  0  0  0  0  0  0  0  0  0  0
   57.0873   25.2697   42.5785 H   0  0  0  0  0  0  0  0  0  0  0  0
   58.4141   27.3021   41.6834 H   0  0  0  0  0  0  0  0  0  0  0  0
   56.7461   27.5972   42.3679 H   0  0  0  0  0  0  0  0  0  0  0  0
   57.1131   32.2785   42.9760 H   0  0  0  0  0  0  0  0  0  0  0  0
   58.1881   34.3447   43.8603 H   0  0  0  0  0  0  0  0  0  0  0  0
  1  2  1  0
  2  3  3  0
  3  4  1  0
  4  5  1  0
  5  6  1  0
  6  7  2  0
  7  8  1  0
  8  9  2  0
  9 10  1  0
 10 11  2  0
 10 12  2  0
 10 13  1  0
 13 14  1  0
 14 15  1  0
 15 16  1  0
 16 17  1  0
 17 18  1  0
 18 19  1  0
 19 20  1  0
 20 21  1  0
 21 22  1  0
 16 23  1  0
 23 24  1  0
  9 25  1  0
 25 26  2  0
 26  6  1  0
 24 13  1  0
 22 17  1  0
  1 27  1  0
  1 28  1  0
  1 29  1  0
  4 30  1  0
  4 31  1  0
  7 32  1  0
  8 33  1  0
 14 34  1  0
 14 35  1  0
 15 36  1  0
 15 37  1  0
 16 38  1  0
 17 39  1  0
 18 40  1  0
 18 41  1  0
 19 42  1  0
 19 43  1  0
 21 44  1  0
 21 45  1  0
 22 46  1  0
 22 47  1  0
 23 48  1  0
 23 49  1  0
 24 50  1  0
 24 51  1  0
 25 52  1  0
 26 53  1  0
M  CHG  1  16   1
M  END
>  <UniqueID>  (18) 
18

>  <SMILES>  (18) 
CC#CCOc1ccc(S(=O)(=O)N2CC[NH+](C3CCOCC3)CC2)cc1

>  <Energy>  (18) 
74.90747254784236

>  <Genealogy>  (18) 
CC#CCOc1ccc(S(=O)(=O)N2CC[NH+](C3CCOCC3)CC2)cc1 (protonated)
CC#CCOc1ccc(S(=O)(=O)N2CC[NH+](C3CCOCC3)CC2)cc1 (3D coordinates assigned)
CC#CCOc1ccc(S(=O)(=O)N2CC[NH+](C3CCOCC3)CC2)cc1 (nonaromatic ring conformer: 74.90747254784236 kcal/mol)

>  <smiles>  (18) 
CC#CCOc1ccc(S(=O)(=O)N2CCN(C3CCOCC3)CC2)cc1

>  <score_type>  (18) 
oracle

>  <origin>  (18) 
adg

>  <m_score__min__energy>  (18) 
-6.9500000000000002

>  <m_primary>  (18) 
energy

$$$$
18:0
     RDKit          3D

 44 46  0  0  0  0  0  0  0  0999 V2000
   64.3120   33.1280   48.8330 C   0  0  0  0  0  0  0  0  0  0  0  0
   63.7970   32.6530   47.5370 N   0  0  0  0  0  0  0  0  0  0  0  0
   63.3090   33.7760   46.7160 C   0  0  0  0  0  0  0  0  0  0  0  0
   62.8130   31.5390   47.6440 C   0  0  0  0  0  0  0  0  0  0  0  0
   62.0170   31.4250   48.9710 C   0  0  0  0  0  0  0  0  0  0  0  0
   60.9340   32.4910   49.1980 C   0  0  0  0  0  0  0  0  0  0  0  0
   59.5930   31.9910   48.8810 N   0  0  0  0  0  0  0  0  0  0  0  0
   59.0850   31.8590   47.5350 C   0  0  0  0  0  0  0  0  0  0  0  0
   58.5420   30.6450   47.1240 C   0  0  0  0  0  0  0  0  0  0  0  0
   58.0250   30.4930   45.8440 C   0  0  0  0  0  0  0  0  0  0  0  0
   57.5050   29.2460   45.4590 C   0  0  0  0  0  0  0  0  0  0  0  0
   57.0040   29.0570   44.1760 C   0  0  0  0  0  0  0  0  0  0  0  0
   57.0250   30.1050   43.2630 C   0  0  0  0  0  0  0  0  0  0  0  0
   57.5340   31.3520   43.6300 C   0  0  0  0  0  0  0  0  0  0  0  0
   58.0310   31.5900   44.9430 C   0  0  0  0  0  0  0  0  0  0  0  0
   58.5310   32.8200   45.3610 N   0  0  0  0  0  0  0  0  0  0  0  0
   58.4840   33.9320   44.5430 C   0  0  0  0  0  0  0  0  0  0  0  0
   59.0370   35.1510   44.9290 C   0  0  0  0  0  0  0  0  0  0  0  0
   59.6450   35.2660   46.1650 C   0  0  0  0  0  0  0  0  0  0  0  0
   59.6700   34.1760   47.0190 C   0  0  0  0  0  0  0  0  0  0  0  0
   59.0850   32.9500   46.6310 C   0  0  0  0  0  0  0  0  0  0  0  0
   63.7695   32.6277   49.6487 H   0  0  0  0  0  0  0  0  0  0  0  0
   65.3844   32.8953   48.9090 H   0  0  0  0  0  0  0  0  0  0  0  0
   64.1666   34.2157   48.9090 H   0  0  0  0  0  0  0  0  0  0  0  0
   64.6220   32.2640   47.0200 H   0  0  0  0  0  0  0  0  0  0  0  0
   62.9574   34.5850   47.3732 H   0  0  0  0  0  0  0  0  0  0  0  0
   64.1264   34.1484   46.0811 H   0  0  0  0  0  0  0  0  0  0  0  0
   62.4790   33.4325   46.0811 H   0  0  0  0  0  0  0  0  0  0  0  0
   62.0839   31.6614   46.8295 H   0  0  0  0  0  0  0  0  0  0  0  0
   63.4160   30.6204   47.5937 H   0  0  0  0  0  0  0  0  0  0  0  0
   61.5285   30.4396   48.9873 H   0  0  0  0  0  0  0  0  0  0  0  0
   62.7541   31.5740   49.7738 H   0  0  0  0  0  0  0  0  0  0  0  0
   60.9568   32.8007   50.2533 H   0  0  0  0  0  0  0  0  0  0  0  0
   61.1467   33.3378   48.5289 H   0  0  0  0  0  0  0  0  0  0  0  0
   59.0010   31.6830   49.6820 H   0  0  0  0  0  0  0  0  0  0  0  0
   58.5221   29.7951   47.8220 H   0  0  0  0  0  0  0  0  0  0  0  0
   57.4942   28.4133   46.1777 H   0  0  0  0  0  0  0  0  0  0  0  0
   56.5917   28.0799   43.8839 H   0  0  0  0  0  0  0  0  0  0  0  0
   56.6381   29.9507   42.2449 H   0  0  0  0  0  0  0  0  0  0  0  0
   57.5515   32.1664   42.8907 H   0  0  0  0  0  0  0  0  0  0  0  0
   57.9967   33.8529   43.5600 H   0  0  0  0  0  0  0  0  0  0  0  0
   58.9900   36.0178   44.2534 H   0  0  0  0  0  0  0  0  0  0  0  0
   60.1062   36.2174   46.4685 H   0  0  0  0  0  0  0  0  0  0  0  0
   60.1483   34.2654   48.0055 H   0  0  0  0  0  0  0  0  0  0  0  0
  1  2  1  0
  2  3  1  0
  2  4  1  0
  4  5  1  0
  5  6  1  0
  6  7  1  0
  7  8  1  0
  8  9  2  0
  9 10  1  0
 10 11  2  0
 11 12  1  0
 12 13  2  0
 13 14  1  0
 14 15  2  0
 15 16  1  0
 16 17  2  0
 17 18  1  0
 18 19  2  0
 19 20  1  0
 20 21  2  0
 21  8  1  0
 15 10  1  0
 21 16  1  0
  1 22  1  0
  1 23  1  0
  1 24  1  0
  2 25  1  0
  3 26  1  0
  3 27  1  0
  3 28  1  0
  4 29  1  0
  4 30  1  0
  5 31  1  0
  5 32  1  0
  6 33  1  0
  6 34  1  0
  7 35  1  0
  9 36  1  0
 11 37  1  0
 12 38  1  0
 13 39  1  0
 14 40  1  0
 17 41  1  0
 18 42  1  0
 19 43  1  0
 20 44  1  0
M  CHG  2   2   1  16   1
M  END
>  <UniqueID>  (19) 
19

>  <SMILES>  (19) 
C[NH+](C)CCCNc1cc2ccccc2[n+]2ccccc12

>  <Energy>  (19) 
68.81048396046342

>  <Genealogy>  (19) 
C[NH+](C)CCCNc1cc2ccccc2[n+]2ccccc12 (protonated)
C[NH+](C)CCCNc1cc2ccccc2[n+]2ccccc12 (3D coordinates assigned)
C[NH+](C)CCCNc1cc2ccccc2[n+]2ccccc12 (optimized conformer: 68.81048396046342 kcal/mol)

>  <smiles>  (19) 
CN(C)CCCNc1cc2ccccc2[n+]2ccccc12

>  <score_type>  (19) 
oracle

>  <origin>  (19) 
adg

>  <m_score__min__energy>  (19) 
-4.5

>  <m_primary>  (19) 
energy

$$$$
19:0
     RDKit          3D

 37 38  0  0  0  0  0  0  0  0999 V2000
   57.0220   34.4100   44.8880 C   0  0  0  0  0  0  0  0  0  0  0  0
   57.0460   33.0230   45.3840 N   0  0  0  0  0  0  0  0  0  0  0  0
   57.4390   32.9870   46.8150 C   0  0  0  0  0  0  0  0  0  0  0  0
   58.9370   32.8930   46.9360 C   0  0  0  0  0  0  0  0  0  0  0  0
   59.7400   34.0060   46.6280 C   0  0  0  0  0  0  0  0  0  0  0  0
   61.1310   33.9210   46.7290 C   0  0  0  0  0  0  0  0  0  0  0  0
   61.7330   32.7230   47.1210 C   0  0  0  0  0  0  0  0  0  0  0  0
   60.9440   31.6060   47.4110 C   0  0  0  0  0  0  0  0  0  0  0  0
   59.5510   31.6880   47.3160 C   0  0  0  0  0  0  0  0  0  0  0  0
   57.9320   32.1980   44.5310 C   0  0  0  0  0  0  0  0  0  0  0  0
   57.2840   30.8520   44.1460 C   0  0  2  0  0  0  0  0  0  0  0  0
   55.9560   30.8400   44.5990 O   0  0  0  0  0  0  0  0  0  0  0  0
   58.0230   29.6550   44.7170 C   0  0  0  0  0  0  0  0  0  0  0  0
   59.4280   29.5770   44.6880 C   0  0  0  0  0  0  0  0  0  0  0  0
   60.0860   28.4650   45.2220 C   0  0  0  0  0  0  0  0  0  0  0  0
   59.3520   27.4310   45.8100 C   0  0  0  0  0  0  0  0  0  0  0  0
   60.1800   26.0340   46.4730 Cl  0  0  0  0  0  0  0  0  0  0  0  0
   57.9590   27.5170   45.8800 C   0  0  0  0  0  0  0  0  0  0  0  0
   57.2990   28.6270   45.3480 C   0  0  0  0  0  0  0  0  0  0  0  0
   57.0100   35.1043   45.7411 H   0  0  0  0  0  0  0  0  0  0  0  0
   57.9171   34.5962   44.2763 H   0  0  0  0  0  0  0  0  0  0  0  0
   56.1210   34.5651   44.2763 H   0  0  0  0  0  0  0  0  0  0  0  0
   57.0904   33.9045   47.3116 H   0  0  0  0  0  0  0  0  0  0  0  0
   56.9825   32.1075   47.2926 H   0  0  0  0  0  0  0  0  0  0  0  0
   59.2708   34.9475   46.3062 H   0  0  0  0  0  0  0  0  0  0  0  0
   61.7530   34.7988   46.4995 H   0  0  0  0  0  0  0  0  0  0  0  0
   62.8282   32.6585   47.2015 H   0  0  0  0  0  0  0  0  0  0  0  0
   61.4193   30.6615   47.7143 H   0  0  0  0  0  0  0  0  0  0  0  0
   58.9338   30.8054   47.5397 H   0  0  0  0  0  0  0  0  0  0  0  0
   58.1593   32.7573   43.6115 H   0  0  0  0  0  0  0  0  0  0  0  0
   58.8453   31.9808   45.1043 H   0  0  0  0  0  0  0  0  0  0  0  0
   57.3298   30.7648   43.0504 H   0  0  0  0  0  0  0  0  0  0  0  0
   55.8630   31.5930   45.2410 H   0  0  0  0  0  0  0  0  0  0  0  0
   60.0119   30.3959   44.2425 H   0  0  0  0  0  0  0  0  0  0  0  0
   61.1835   28.4037   45.1793 H   0  0  0  0  0  0  0  0  0  0  0  0
   57.3818   26.7098   46.3545 H   0  0  0  0  0  0  0  0  0  0  0  0
   56.2039   28.6980   45.4230 H   0  0  0  0  0  0  0  0  0  0  0  0
  1  2  1  0
  2  3  1  0
  3  4  1  0
  4  5  2  0
  5  6  1  0
  6  7  2  0
  7  8  1  0
  8  9  2  0
  2 10  1  0
 10 11  1  0
 11 12  1  0
 11 13  1  0
 13 14  2  0
 14 15  1  0
 15 16  2  0
 16 17  1  0
 16 18  1  0
 18 19  2  0
  9  4  1  0
 19 13  1  0
  1 20  1  0
  1 21  1  0
  1 22  1  0
  3 23  1  0
  3 24  1  0
  5 25  1  0
  6 26  1  0
  7 27  1  0
  8 28  1  0
  9 29  1  0
 10 30  1  0
 10 31  1  0
 11 32  1  6
 12 33  1  0
 14 34  1  0
 15 35  1  0
 18 36  1  0
 19 37  1  0
M  END
>  <UniqueID>  (20) 
20

>  <SMILES>  (20) 
CN(Cc1ccccc1)C[C@H](O)c1ccc(Cl)cc1

>  <Energy>  (20) 
36.53441425778117

>  <Genealogy>  (20) 
CN(Cc1ccccc1)C[C@H](O)c1ccc(Cl)cc1 (chirality)
CN(Cc1ccccc1)C[C@H](O)c1ccc(Cl)cc1 (3D coordinates assigned)
CN(Cc1ccccc1)C[C@H](O)c1ccc(Cl)cc1 (optimized conformer: 36.53441425778117 kcal/mol)

>  <smiles>  (20) 
CN(Cc1ccccc1)CC(O)c1ccc(Cl)cc1

>  <score_type>  (20) 
oracle

>  <origin>  (20) 
adg

>  <m_score__min__energy>  (20) 
-6.54

>  <m_primary>  (20) 
energy

$$$$
20:0
     RDKit          3D

 70 73  0  0  0  0  0  0  0  0999 V2000
   57.8430   32.2310   42.9960 C   0  0  0  0  0  0  0  0  0  0  0  0
   58.2270   31.9520   44.3990 N   0  0  0  0  0  0  0  0  0  0  0  0
   58.7910   32.9510   45.1730 C   0  0  0  0  0  0  0  0  0  0  0  0
   58.7600   34.3130   44.7690 C   0  0  0  0  0  0  0  0  0  0  0  0
   59.3710   35.3070   45.5390 C   0  0  0  0  0  0  0  0  0  0  0  0
   60.0120   34.9770   46.7280 C   0  0  0  0  0  0  0  0  0  0  0  0
   60.0300   33.6530   47.1680 C   0  0  0  0  0  0  0  0  0  0  0  0
   59.4070   32.6320   46.4140 C   0  0  0  0  0  0  0  0  0  0  0  0
   59.3920   31.3030   46.8750 C   0  0  0  0  0  0  0  0  0  0  0  0
   60.0120   30.9630   48.1290 N   0  0  0  0  0  0  0  0  0  0  0  0
   61.3960   30.4950   48.1880 C   0  0  0  0  0  0  0  0  0  0  0  0
   62.2420   31.1980   47.1170 C   0  0  0  0  0  0  0  0  0  0  0  0
   63.3720   31.9530   47.7070 N   0  0  0  0  0  0  0  0  0  0  0  0
   63.4060   33.3480   47.2260 C   0  0  0  0  0  0  0  0  0  0  0  0
   63.2710   31.9420   49.1760 C   0  0  0  0  0  0  0  0  0  0  0  0
   58.6760   30.3300   46.1490 C   0  0  0  0  0  0  0  0  0  0  0  0
   58.5470   29.0140   46.6390 C   0  0  0  0  0  0  0  0  0  0  0  0
   57.7710   28.0660   45.9710 C   0  0  0  0  0  0  0  0  0  0  0  0
   57.7310   26.7650   46.4920 O   0  0  0  0  0  0  0  0  0  0  0  0
   56.6170   25.8740   46.4090 C   0  0  0  0  0  0  0  0  0  0  0  0
   57.1310   24.4480   46.1070 C   0  0  0  0  0  0  0  0  0  0  0  0
   57.4000   24.1320   44.6600 N   0  0  0  0  0  0  0  0  0  0  0  0
   57.7750   25.3850   43.9440 C   0  0  0  0  0  0  0  0  0  0  0  0
   56.1100   23.6250   44.0630 C   0  0  0  0  0  0  0  0  0  0  0  0
   56.3210   22.5910   42.9440 C   0  0  0  0  0  0  0  0  0  0  0  0
   57.0450   21.3460   43.4820 C   0  0  0  0  0  0  0  0  0  0  0  0
   58.0300   21.6850   44.6110 C   0  0  0  0  0  0  0  0  0  0  0  0
   58.5140   23.1360   44.4960 C   0  0  0  0  0  0  0  0  0  0  0  0
   57.0750   28.4410   44.8160 C   0  0  0  0  0  0  0  0  0  0  0  0
   57.2100   29.7300   44.3000 C   0  0  0  0  0  0  0  0  0  0  0  0
   58.0440   30.6870   44.9290 C   0  0  0  0  0  0  0  0  0  0  0  0
   56.9532   32.8775   42.9810 H   0  0  0  0  0  0  0  0  0  0  0  0
   58.6732   32.7380   42.4825 H   0  0  0  0  0  0  0  0  0  0  0  0
   57.6174   31.2847   42.4825 H   0  0  0  0  0  0  0  0  0  0  0  0
   58.2473   34.5895   43.8359 H   0  0  0  0  0  0  0  0  0  0  0  0
   59.3446   36.3541   45.2030 H   0  0  0  0  0  0  0  0  0  0  0  0
   60.5053   35.7603   47.3222 H   0  0  0  0  0  0  0  0  0  0  0  0
   60.5346   33.4007   48.1123 H   0  0  0  0  0  0  0  0  0  0  0  0
   59.5620   31.2730   49.0160 H   0  0  0  0  0  0  0  0  0  0  0  0
   61.8119   30.7163   49.1820 H   0  0  0  0  0  0  0  0  0  0  0  0
   61.4153   29.4106   48.0045 H   0  0  0  0  0  0  0  0  0  0  0  0
   62.6430   30.4402   46.4278 H   0  0  0  0  0  0  0  0  0  0  0  0
   61.5945   31.9140   46.5897 H   0  0  0  0  0  0  0  0  0  0  0  0
   64.2750   31.4910   47.4460 H   0  0  0  0  0  0  0  0  0  0  0  0
   63.4227   34.0324   48.0870 H   0  0  0  0  0  0  0  0  0  0  0  0
   64.3082   33.5037   46.6163 H   0  0  0  0  0  0  0  0  0  0  0  0
   62.5124   33.5475   46.6163 H   0  0  0  0  0  0  0  0  0  0  0  0
   64.2744   32.0513   49.6133 H   0  0  0  0  0  0  0  0  0  0  0  0
   62.6343   32.7761   49.5060 H   0  0  0  0  0  0  0  0  0  0  0  0
   62.8288   30.9904   49.5060 H   0  0  0  0  0  0  0  0  0  0  0  0
   59.0679   28.7295   47.5651 H   0  0  0  0  0  0  0  0  0  0  0  0
   56.0729   25.8746   47.3650 H   0  0  0  0  0  0  0  0  0  0  0  0
   55.9397   26.2014   45.6064 H   0  0  0  0  0  0  0  0  0  0  0  0
   58.0698   24.3049   46.6621 H   0  0  0  0  0  0  0  0  0  0  0  0
   56.3185   23.7714   46.4104 H   0  0  0  0  0  0  0  0  0  0  0  0
   58.0100   26.1702   44.6776 H   0  0  0  0  0  0  0  0  0  0  0  0
   58.6563   25.1971   43.3131 H   0  0  0  0  0  0  0  0  0  0  0  0
   56.9354   25.7121   43.3131 H   0  0  0  0  0  0  0  0  0  0  0  0
   55.5156   23.1579   44.8621 H   0  0  0  0  0  0  0  0  0  0  0  0
   55.5973   24.4890   43.6150 H   0  0  0  0  0  0  0  0  0  0  0  0
   55.3427   22.2927   42.5392 H   0  0  0  0  0  0  0  0  0  0  0  0
   56.9387   23.0454   42.1553 H   0  0  0  0  0  0  0  0  0  0  0  0
   56.2948   20.6399   43.8675 H   0  0  0  0  0  0  0  0  0  0  0  0
   57.6213   20.9084   42.6536 H   0  0  0  0  0  0  0  0  0  0  0  0
   57.5282   21.5482   45.5803 H   0  0  0  0  0  0  0  0  0  0  0  0
   58.8999   21.0164   44.5318 H   0  0  0  0  0  0  0  0  0  0  0  0
   59.2676   23.3188   45.2761 H   0  0  0  0  0  0  0  0  0  0  0  0
   58.9333   23.2683   43.4877 H   0  0  0  0  0  0  0  0  0  0  0  0
   56.4185   27.7159   44.3128 H   0  0  0  0  0  0  0  0  0  0  0  0
   56.6595   30.0081   43.3892 H   0  0  0  0  0  0  0  0  0  0  0  0
  1  2  1  0
  2  3  2  0
  3  4  1  0
  4  5  2  0
  5  6  1  0
  6  7  2  0
  7  8  1  0
  8  9  2  0
  9 10  1  0
 10 11  1  0
 11 12  1  0
 12 13  1  0
 13 14  1  0
 13 15  1  0
  9 16  1  0
 16 17  2  0
 17 18  1  0
 18 19  1  0
 19 20  1  0
 20 21  1  0
 21 22  1  0
 22 23  1  0
 22 24  1  0
 24 25  1  0
 25 26  1  0
 26 27  1  0
 27 28  1  0
 18 29  2  0
 29 30  1  0
 30 31  2  0
 31  2  1  0
  8  3  1  0
 31 16  1  0
 28 22  1  0
  1 32  1  0
  1 33  1  0
  1 34  1  0
  4 35  1  0
  5 36  1  0
  6 37  1  0
  7 38  1  0
 10 39  1  0
 11 40  1  0
 11 41  1  0
 12 42  1  0
 12 43  1  0
 13 44  1  0
 14 45  1  0
 14 46  1  0
 14 47  1  0
 15 48  1  0
 15 49  1  0
 15 50  1  0
 17 51  1  0
 20 52  1  0
 20 53  1  0
 21 54  1  0
 21 55  1  0
 23 56  1  0
 23 57  1  0
 23 58  1  0
 24 59  1  0
 24 60  1  0
 25 61  1  0
 25 62  1  0
 26 63  1  0
 26 64  1  0
 27 65  1  0
 27 66  1  0
 28 67  1  0
 28 68  1  0
 29 69  1  0
 30 70  1  0
M  CHG  3   2   1  13   1  22   1
M  END
>  <UniqueID>  (21) 
21

>  <SMILES>  (21) 
C[n+]1c2ccccc2c(NCC[NH+](C)C)c2cc(OCC[N+]3(C)CCCCC3)ccc21

>  <Energy>  (21) 
117.08248773478174

>  <Genealogy>  (21) 
C[n+]1c2ccccc2c(NCC[NH+](C)C)c2cc(OCC[N+]3(C)CCCCC3)ccc21 (protonated)
C[n+]1c2ccccc2c(NCC[NH+](C)C)c2cc(OCC[N+]3(C)CCCCC3)ccc21 (3D coordinates assigned)
C[n+]1c2ccccc2c(NCC[NH+](C)C)c2cc(OCC[N+]3(C)CCCCC3)ccc21 (nonaromatic ring conformer: 117.08248773478174 kcal/mol)

>  <smiles>  (21) 
CN(C)CCNc1c2ccccc2[n+](C)c2ccc(OCC[N+]3(C)CCCCC3)cc12

>  <score_type>  (21) 
oracle

>  <origin>  (21) 
adg

>  <m_score__min__energy>  (21) 
-4.0499999999999998

>  <m_primary>  (21) 
energy

$$$$
21:0
     RDKit          3D

 48 50  0  0  0  0  0  0  0  0999 V2000
   58.0740   26.8110   42.6270 C   0  0  0  0  0  0  0  0  0  0  0  0
   57.7560   27.9580   43.5850 C   0  0  0  0  0  0  0  0  0  0  0  0
   57.0460   29.0450   42.8940 N   0  0  0  0  0  0  0  0  0  0  0  0
   56.0580   29.7170   43.7570 C   0  0  0  0  0  0  0  0  0  0  0  0
   56.6520   31.0190   44.2940 C   0  0  0  0  0  0  0  0  0  0  0  0
   58.1130   30.9730   44.2750 N   0  0  0  0  0  0  0  0  0  0  0  0
   58.8610   31.4000   45.4190 C   0  0  0  0  0  0  0  0  0  0  0  0
   59.3290   30.4810   46.3800 C   0  0  0  0  0  0  0  0  0  0  0  0
   59.0320   29.1120   46.2600 C   0  0  0  0  0  0  0  0  0  0  0  0
   59.4410   28.1950   47.2420 C   0  0  0  0  0  0  0  0  0  0  0  0
   59.1510   26.8250   47.1480 O   0  0  0  0  0  0  0  0  0  0  0  0
   59.8560   25.9020   46.3230 C   0  0  0  0  0  0  0  0  0  0  0  0
   60.1490   28.6470   48.3600 C   0  0  0  0  0  0  0  0  0  0  0  0
   60.5270   27.7020   49.3270 O   0  0  0  0  0  0  0  0  0  0  0  0
   60.8460   28.0070   50.6810 C   0  0  0  0  0  0  0  0  0  0  0  0
   60.4550   30.0140   48.4910 C   0  0  0  0  0  0  0  0  0  0  0  0
   60.0760   30.9540   47.5020 C   0  0  0  0  0  0  0  0  0  0  0  0
   60.3920   32.3030   47.6160 N   0  0  0  0  0  0  0  0  0  0  0  0
   61.2870   32.7840   48.6880 C   0  0  0  0  0  0  0  0  0  0  0  0
   59.8530   33.1910   46.7130 C   0  0  0  0  0  0  0  0  0  0  0  0
   59.9570   34.5990   46.7480 C   0  0  0  0  0  0  0  0  0  0  0  0
   59.3250   35.2240   45.6770 C   0  0  0  0  0  0  0  0  0  0  0  0
   58.6230   34.0510   44.6930 S   0  0  0  0  0  0  0  0  0  0  0  0
   59.1160   32.7450   45.6280 C   0  0  0  0  0  0  0  0  0  0  0  0
   58.3240   25.9091   43.2050 H   0  0  0  0  0  0  0  0  0  0  0  0
   57.1980   26.6091   41.9931 H   0  0  0  0  0  0  0  0  0  0  0  0
   58.9289   27.0890   41.9931 H   0  0  0  0  0  0  0  0  0  0  0  0
   57.1244   27.5789   44.4019 H   0  0  0  0  0  0  0  0  0  0  0  0
   58.7026   28.3553   43.9800 H   0  0  0  0  0  0  0  0  0  0  0  0
   57.7630   29.7510   42.6040 H   0  0  0  0  0  0  0  0  0  0  0  0
   55.1529   29.9404   43.1731 H   0  0  0  0  0  0  0  0  0  0  0  0
   55.7982   29.0581   44.5986 H   0  0  0  0  0  0  0  0  0  0  0  0
   56.3099   31.8561   43.6677 H   0  0  0  0  0  0  0  0  0  0  0  0
   56.3183   31.1551   45.3333 H   0  0  0  0  0  0  0  0  0  0  0  0
   58.6120   30.4250   43.5390 H   0  0  0  0  0  0  0  0  0  0  0  0
   58.4711   28.7539   45.3841 H   0  0  0  0  0  0  0  0  0  0  0  0
   60.4020   25.1872   46.9562 H   0  0  0  0  0  0  0  0  0  0  0  0
   59.1414   25.3579   45.6879 H   0  0  0  0  0  0  0  0  0  0  0  0
   60.5689   26.4483   45.6879 H   0  0  0  0  0  0  0  0  0  0  0  0
   60.2154   27.4041   51.3510 H   0  0  0  0  0  0  0  0  0  0  0  0
   61.9052   27.7771   50.8689 H   0  0  0  0  0  0  0  0  0  0  0  0
   60.6638   29.0754   50.8689 H   0  0  0  0  0  0  0  0  0  0  0  0
   61.0006   30.3602   49.3812 H   0  0  0  0  0  0  0  0  0  0  0  0
   60.8462   32.5471   49.6676 H   0  0  0  0  0  0  0  0  0  0  0  0
   62.2659   32.2904   48.5974 H   0  0  0  0  0  0  0  0  0  0  0  0
   61.4155   33.8727   48.5974 H   0  0  0  0  0  0  0  0  0  0  0  0
   60.4848   35.1470   47.5424 H   0  0  0  0  0  0  0  0  0  0  0  0
   59.2897   36.3093   45.5014 H   0  0  0  0  0  0  0  0  0  0  0  0
  1  2  1  0
  2  3  1  0
  3  4  1  0
  4  5  1  0
  5  6  1  0
  6  7  1  0
  7  8  2  0
  8  9  1  0
  9 10  2  0
 10 11  1  0
 11 12  1  0
 10 13  1  0
 13 14  1  0
 14 15  1  0
 13 16  2  0
 16 17  1  0
 17 18  2  0
 18 19  1  0
 18 20  1  0
 20 21  1  0
 21 22  2  0
 22 23  1  0
 23 24  1  0
 24  7  1  0
 17  8  1  0
 24 20  2  0
  1 25  1  0
  1 26  1  0
  1 27  1  0
  2 28  1  0
  2 29  1  0
  3 30  1  0
  4 31  1  0
  4 32  1  0
  5 33  1  0
  5 34  1  0
  6 35  1  0
  9 36  1  0
 12 37  1  0
 12 38  1  0
 12 39  1  0
 15 40  1  0
 15 41  1  0
 15 42  1  0
 16 43  1  0
 19 44  1  0
 19 45  1  0
 19 46  1  0
 21 47  1  0
 22 48  1  0
M  CHG  1  18   1
M  END
>  <UniqueID>  (22) 
22

>  <SMILES>  (22) 
CCNCCNc1c2cc(OC)c(OC)cc2[n+](C)c2ccsc12

>  <Energy>  (22) 
93.26538000962053

>  <Genealogy>  (22) 
CCNCCNc1c2cc(OC)c(OC)cc2[n+](C)c2ccsc12 (3D coordinates assigned)
CCNCCNc1c2cc(OC)c(OC)cc2[n+](C)c2ccsc12 (optimized conformer: 93.26538000962053 kcal/mol)

>  <smiles>  (22) 
CCNCCNc1c2cc(OC)c(OC)cc2[n+](C)c2ccsc12

>  <score_type>  (22) 
oracle

>  <origin>  (22) 
adg

>  <m_score__min__energy>  (22) 
-4.9199999999999999

>  <m_primary>  (22) 
energy

$$$$
22:0
     RDKit          3D

 41 43  0  0  0  0  0  0  0  0999 V2000
   63.3030   33.8320   46.7090 C   0  0  0  0  0  0  0  0  0  0  0  0
   62.6800   32.9720   47.7390 N   0  0  0  0  0  0  0  0  0  0  0  0
   63.7090   32.5440   48.7060 C   0  0  0  0  0  0  0  0  0  0  0  0
   62.0260   31.7820   47.1310 C   0  0  0  0  0  0  0  0  0  0  0  0
   60.5670   31.5680   47.6240 C   0  0  0  0  0  0  0  0  0  0  0  0
   59.6000   32.4890   46.9750 N   0  0  0  0  0  0  0  0  0  0  0  0
   58.8540   32.1140   45.8640 C   0  0  0  0  0  0  0  0  0  0  0  0
   58.4710   33.1060   44.9310 C   0  0  0  0  0  0  0  0  0  0  0  0
   58.5940   34.4530   45.2710 C   0  0  0  0  0  0  0  0  0  0  0  0
   59.1200   34.8070   46.5030 C   0  0  0  0  0  0  0  0  0  0  0  0
   59.6630   33.8210   47.3290 C   0  0  0  0  0  0  0  0  0  0  0  0
   60.2280   34.1800   48.3950 O   0  0  0  0  0  0  0  0  0  0  0  0
   58.1490   32.7410   43.5030 C   0  0  0  0  0  0  0  0  0  0  0  0
   57.3530   31.4460   43.3870 C   0  0  0  0  0  0  0  0  0  0  0  0
   57.8120   30.3720   44.3410 C   0  0  0  0  0  0  0  0  0  0  0  0
   57.4330   29.0450   44.0700 C   0  0  0  0  0  0  0  0  0  0  0  0
   57.5420   28.0640   45.0510 C   0  0  0  0  0  0  0  0  0  0  0  0
   57.9240   28.4240   46.3390 C   0  0  0  0  0  0  0  0  0  0  0  0
   58.3040   29.7390   46.6180 C   0  0  0  0  0  0  0  0  0  0  0  0
   58.3860   30.7040   45.5980 C   0  0  0  0  0  0  0  0  0  0  0  0
   63.8810   34.6299   47.1982 H   0  0  0  0  0  0  0  0  0  0  0  0
   63.9730   33.2259   46.0815 H   0  0  0  0  0  0  0  0  0  0  0  0
   62.5183   34.2797   46.0815 H   0  0  0  0  0  0  0  0  0  0  0  0
   61.9730   33.5420   48.2640 H   0  0  0  0  0  0  0  0  0  0  0  0
   63.3371   32.6987   49.7296 H   0  0  0  0  0  0  0  0  0  0  0  0
   63.9336   31.4779   48.5546 H   0  0  0  0  0  0  0  0  0  0  0  0
   64.6234   33.1364   48.5546 H   0  0  0  0  0  0  0  0  0  0  0  0
   62.0108   31.9110   46.0387 H   0  0  0  0  0  0  0  0  0  0  0  0
   62.6070   30.8984   47.4340 H   0  0  0  0  0  0  0  0  0  0  0  0
   60.2693   30.5325   47.4023 H   0  0  0  0  0  0  0  0  0  0  0  0
   60.5484   31.7753   48.7041 H   0  0  0  0  0  0  0  0  0  0  0  0
   58.2744   35.2320   44.5632 H   0  0  0  0  0  0  0  0  0  0  0  0
   59.1098   35.8578   46.8281 H   0  0  0  0  0  0  0  0  0  0  0  0
   57.5604   33.5560   43.0565 H   0  0  0  0  0  0  0  0  0  0  0  0
   59.1035   32.5901   42.9775 H   0  0  0  0  0  0  0  0  0  0  0  0
   56.2955   31.6672   43.5940 H   0  0  0  0  0  0  0  0  0  0  0  0
   57.5062   31.0614   42.3679 H   0  0  0  0  0  0  0  0  0  0  0  0
   57.0472   28.7804   43.0744 H   0  0  0  0  0  0  0  0  0  0  0  0
   57.3278   27.0124   44.8097 H   0  0  0  0  0  0  0  0  0  0  0  0
   57.9269   27.6707   47.1406 H   0  0  0  0  0  0  0  0  0  0  0  0
   58.5432   30.0246   47.6530 H   0  0  0  0  0  0  0  0  0  0  0  0
  1  2  1  0
  2  3  1  0
  2  4  1  0
  4  5  1  0
  5  6  1  0
  6  7  1  0
  7  8  2  0
  8  9  1  0
  9 10  2  0
 10 11  1  0
 11 12  2  0
  8 13  1  0
 13 14  1  0
 14 15  1  0
 15 16  2  0
 16 17  1  0
 17 18  2  0
 18 19  1  0
 19 20  2  0
 11  6  1  0
 20 15  1  0
 20  7  1  0
  1 21  1  0
  1 22  1  0
  1 23  1  0
  2 24  1  0
  3 25  1  0
  3 26  1  0
  3 27  1  0
  4 28  1  0
  4 29  1  0
  5 30  1  0
  5 31  1  0
  9 32  1  0
 10 33  1  0
 13 34  1  0
 13 35  1  0
 14 36  1  0
 14 37  1  0
 16 38  1  0
 17 39  1  0
 18 40  1  0
 19 41  1  0
M  CHG  1   2   1
M  END
>  <UniqueID>  (23) 
23

>  <SMILES>  (23) 
C[NH+](C)CCn1c2c(ccc1=O)CCc1ccccc1-2

>  <Energy>  (23) 
74.64595953111719

>  <Genealogy>  (23) 
C[NH+](C)CCn1c2c(ccc1=O)CCc1ccccc1-2 (protonated)
C[NH+](C)CCn1c2c(ccc1=O)CCc1ccccc1-2 (3D coordinates assigned)
C[NH+](C)CCn1c2c(ccc1=O)CCc1ccccc1-2 (nonaromatic ring conformer: 74.64595953111719 kcal/mol)

>  <smiles>  (23) 
CN(C)CCn1c2c(ccc1=O)CCc1ccccc1-2

>  <score_type>  (23) 
oracle

>  <origin>  (23) 
adg

>  <m_score__min__energy>  (23) 
-5.4900000000000002

>  <m_primary>  (23) 
energy

$$$$
23:0
     RDKit          3D

 53 55  0  0  0  0  0  0  0  0999 V2000
   64.9150   33.0130   49.7100 C   0  0  0  0  0  0  0  0  0  0  0  0
   64.0590   31.9650   48.9840 C   0  0  0  0  0  0  0  0  0  0  0  0
   62.7920   32.5050   48.4410 N   0  0  0  0  0  0  0  0  0  0  0  0
   62.9510   33.8460   47.8390 C   0  0  0  0  0  0  0  0  0  0  0  0
   63.3850   33.7370   46.3800 C   0  0  0  0  0  0  0  0  0  0  0  0
   61.6680   32.4170   49.4020 C   0  0  0  0  0  0  0  0  0  0  0  0
   60.7120   31.3080   48.9650 C   0  0  0  0  0  0  0  0  0  0  0  0
   60.8740   31.0290   47.5400 N   0  0  0  0  0  0  0  0  0  0  0  0
   59.7380   31.0130   46.6580 C   0  0  0  0  0  0  0  0  0  0  0  0
   59.3140   32.1990   46.0320 C   0  0  0  0  0  0  0  0  0  0  0  0
   59.9270   33.4330   46.3330 C   0  0  0  0  0  0  0  0  0  0  0  0
   59.4760   34.6140   45.7490 C   0  0  0  0  0  0  0  0  0  0  0  0
   58.3960   34.5890   44.8740 C   0  0  0  0  0  0  0  0  0  0  0  0
   57.7730   33.3810   44.5620 C   0  0  0  0  0  0  0  0  0  0  0  0
   58.2340   32.1560   45.1100 C   0  0  0  0  0  0  0  0  0  0  0  0
   57.6450   30.9470   44.7870 N   0  0  0  0  0  0  0  0  0  0  0  0
   56.7320   30.8560   43.6260 C   0  0  0  0  0  0  0  0  0  0  0  0
   57.9280   29.8190   45.5350 C   0  0  0  0  0  0  0  0  0  0  0  0
   57.1560   28.6340   45.4170 C   0  0  0  0  0  0  0  0  0  0  0  0
   57.4920   27.4800   46.1280 C   0  0  0  0  0  0  0  0  0  0  0  0
   56.5040   25.9930   45.9470 S   0  0  0  0  0  0  0  0  0  0  0  0
   57.4160   25.4230   44.4780 C   0  0  0  0  0  0  0  0  0  0  0  0
   58.5870   27.4850   46.9870 C   0  0  0  0  0  0  0  0  0  0  0  0
   59.3360   28.6460   47.1570 C   0  0  0  0  0  0  0  0  0  0  0  0
   59.0080   29.8270   46.4590 C   0  0  0  0  0  0  0  0  0  0  0  0
   64.8092   32.8835   50.7972 H   0  0  0  0  0  0  0  0  0  0  0  0
   65.9701   32.8849   49.4264 H   0  0  0  0  0  0  0  0  0  0  0  0
   64.5789   34.0213   49.4264 H   0  0  0  0  0  0  0  0  0  0  0  0
   64.6468   31.5534   48.1503 H   0  0  0  0  0  0  0  0  0  0  0  0
   63.7904   31.1988   49.7262 H   0  0  0  0  0  0  0  0  0  0  0  0
   61.9911   34.3807   47.8907 H   0  0  0  0  0  0  0  0  0  0  0  0
   63.7248   34.3935   48.3971 H   0  0  0  0  0  0  0  0  0  0  0  0
   64.4509   33.4693   46.3336 H   0  0  0  0  0  0  0  0  0  0  0  0
   62.7897   32.9605   45.8774 H   0  0  0  0  0  0  0  0  0  0  0  0
   63.2272   34.7027   45.8774 H   0  0  0  0  0  0  0  0  0  0  0  0
   62.0594   32.1901   50.4047 H   0  0  0  0  0  0  0  0  0  0  0  0
   61.1305   33.3764   49.4275 H   0  0  0  0  0  0  0  0  0  0  0  0
   60.9282   30.3955   49.5400 H   0  0  0  0  0  0  0  0  0  0  0  0
   59.6780   31.6346   49.1496 H   0  0  0  0  0  0  0  0  0  0  0  0
   61.8300   31.1100   47.1290 H   0  0  0  0  0  0  0  0  0  0  0  0
   60.7713   33.4629   47.0374 H   0  0  0  0  0  0  0  0  0  0  0  0
   59.9745   35.5670   45.9801 H   0  0  0  0  0  0  0  0  0  0  0  0
   58.0316   35.5253   44.4262 H   0  0  0  0  0  0  0  0  0  0  0  0
   56.9100   33.3777   43.8799 H   0  0  0  0  0  0  0  0  0  0  0  0
   55.6961   30.7528   43.9814 H   0  0  0  0  0  0  0  0  0  0  0  0
   56.8215   31.7675   43.0168 H   0  0  0  0  0  0  0  0  0  0  0  0
   56.9997   29.9801   43.0168 H   0  0  0  0  0  0  0  0  0  0  0  0
   56.2781   28.6244   44.7543 H   0  0  0  0  0  0  0  0  0  0  0  0
   58.3093   24.8647   44.7948 H   0  0  0  0  0  0  0  0  0  0  0  0
   56.7689   24.7683   43.8758 H   0  0  0  0  0  0  0  0  0  0  0  0
   57.7209   26.2916   43.8758 H   0  0  0  0  0  0  0  0  0  0  0  0
   58.8611   26.5700   47.5325 H   0  0  0  0  0  0  0  0  0  0  0  0
   60.1947   28.6424   47.8445 H   0  0  0  0  0  0  0  0  0  0  0  0
  1  2  1  0
  2  3  1  0
  3  4  1  0
  4  5  1  0
  3  6  1  0
  6  7  1  0
  7  8  1  0
  8  9  1  0
  9 10  2  0
 10 11  1  0
 11 12  2  0
 12 13  1  0
 13 14  2  0
 14 15  1  0
 15 16  2  0
 16 17  1  0
 16 18  1  0
 18 19  2  0
 19 20  1  0
 20 21  1  0
 21 22  1  0
 20 23  2  0
 23 24  1  0
 24 25  2  0
 25  9  1  0
 15 10  1  0
 25 18  1  0
  1 26  1  0
  1 27  1  0
  1 28  1  0
  2 29  1  0
  2 30  1  0
  4 31  1  0
  4 32  1  0
  5 33  1  0
  5 34  1  0
  5 35  1  0
  6 36  1  0
  6 37  1  0
  7 38  1  0
  7 39  1  0
  8 40  1  0
 11 41  1  0
 12 42  1  0
 13 43  1  0
 14 44  1  0
 17 45  1  0
 17 46  1  0
 17 47  1  0
 19 48  1  0
 22 49  1  0
 22 50  1  0
 22 51  1  0
 23 52  1  0
 24 53  1  0
M  CHG  1  16   1
M  END
>  <UniqueID>  (24) 
24

>  <SMILES>  (24) 
CCN(CC)CCNc1c2ccccc2[n+](C)c2cc(SC)ccc12

>  <Energy>  (24) 
74.9842580663644

>  <Genealogy>  (24) 
CCN(CC)CCNc1c2ccccc2[n+](C)c2cc(SC)ccc12 (3D coordinates assigned)
CCN(CC)CCNc1c2ccccc2[n+](C)c2cc(SC)ccc12 (optimized conformer: 74.9842580663644 kcal/mol)

>  <smiles>  (24) 
CCN(CC)CCNc1c2ccccc2[n+](C)c2cc(SC)ccc12

>  <score_type>  (24) 
oracle

>  <origin>  (24) 
adg

>  <m_score__min__energy>  (24) 
-5.5800000000000001

>  <m_primary>  (24) 
energy

$$$$
24:0
     RDKit          3D

 32 35  0  0  0  0  0  0  0  0999 V2000
   60.3580   34.5360   46.9660 C   0  0  0  0  0  0  0  0  0  0  0  0
   59.2870   33.7310   46.2780 C   0  0  0  0  0  0  0  0  0  0  0  0
   58.3930   34.3850   45.4100 C   0  0  0  0  0  0  0  0  0  0  0  0
   57.3850   33.6770   44.7520 C   0  0  0  0  0  0  0  0  0  0  0  0
   57.2460   32.3030   44.9460 C   0  0  0  0  0  0  0  0  0  0  0  0
   58.1210   31.6290   45.8040 C   0  0  0  0  0  0  0  0  0  0  0  0
   59.1570   32.3340   46.4850 C   0  0  0  0  0  0  0  0  0  0  0  0
   60.0080   31.6430   47.3270 N   0  0  0  0  0  0  0  0  0  0  0  0
   59.8880   30.2960   47.5310 C   0  0  0  0  0  0  0  0  0  0  0  0
   58.8790   29.6140   46.8660 C   0  0  0  0  0  0  0  0  0  0  0  0
   58.5900   28.3060   46.9230 N   0  0  0  0  0  0  0  0  0  0  0  0
   57.5250   28.2090   46.0850 C   0  0  0  0  0  0  0  0  0  0  0  0
   56.8410   26.9400   45.8140 C   0  0  0  0  0  0  0  0  0  0  0  0
   57.4570   25.8950   45.3830 N   0  0  0  0  0  0  0  0  0  0  0  0
   56.5080   24.8010   45.2140 C   0  0  0  0  0  0  0  0  0  0  0  0
   55.1480   25.3820   45.6340 C   0  0  0  0  0  0  0  0  0  0  0  0
   55.4530   26.7490   46.0020 N   0  0  0  0  0  0  0  0  0  0  0  0
   57.1460   29.3850   45.5160 N   0  0  0  0  0  0  0  0  0  0  0  0
   58.0250   30.2560   46.0330 C   0  0  0  0  0  0  0  0  0  0  0  0
   60.2400   34.4473   48.0561 H   0  0  0  0  0  0  0  0  0  0  0  0
   61.3477   34.1563   46.6722 H   0  0  0  0  0  0  0  0  0  0  0  0
   60.2685   35.5923   46.6722 H   0  0  0  0  0  0  0  0  0  0  0  0
   58.4895   35.4687   45.2476 H   0  0  0  0  0  0  0  0  0  0  0  0
   56.6966   34.2062   44.0767 H   0  0  0  0  0  0  0  0  0  0  0  0
   56.4499   31.7506   44.4254 H   0  0  0  0  0  0  0  0  0  0  0  0
   60.7750   32.1320   47.8390 H   0  0  0  0  0  0  0  0  0  0  0  0
   60.5753   29.7656   48.2065 H   0  0  0  0  0  0  0  0  0  0  0  0
   56.4801   24.4726   44.1645 H   0  0  0  0  0  0  0  0  0  0  0  0
   56.7829   23.9206   45.8135 H   0  0  0  0  0  0  0  0  0  0  0  0
   54.4341   25.3516   44.7976 H   0  0  0  0  0  0  0  0  0  0  0  0
   54.6792   24.8164   46.4527 H   0  0  0  0  0  0  0  0  0  0  0  0
   54.7690   27.4600   46.3440 H   0  0  0  0  0  0  0  0  0  0  0  0
  1  2  1  0
  2  3  2  0
  3  4  1  0
  4  5  2  0
  5  6  1  0
  6  7  2  0
  7  8  1  0
  8  9  2  0
  9 10  1  0
 10 11  1  0
 11 12  1  0
 12 13  1  0
 13 14  2  0
 14 15  1  0
 15 16  1  0
 16 17  1  0
 12 18  2  0
 18 19  1  0
  7  2  1  0
 19 10  2  0
 19  6  1  0
 17 13  1  0
  1 20  1  0
  1 21  1  0
  1 22  1  0
  3 23  1  0
  4 24  1  0
  5 25  1  0
  8 26  1  0
  9 27  1  0
 15 28  1  0
 15 29  1  0
 16 30  1  0
 16 31  1  0
 17 32  1  0
M  CHG  2   8   1  11  -1
M  END
>  <UniqueID>  (25) 
25

>  <SMILES>  (25) 
Cc1cccc2c1[nH+]cc1[n-]c(C3=NCCN3)nc12

>  <Energy>  (25) 
86.0605207942124

>  <Genealogy>  (25) 
Cc1cccc2c1[nH+]cc1[n-]c(C3=NCCN3)nc12 (protonated)
Cc1cccc2c1[nH+]cc1[n-]c(C3=NCCN3)nc12 (3D coordinates assigned)
Cc1cccc2c1[nH+]cc1[n-]c(C3=NCCN3)nc12 (nonaromatic ring conformer: 86.0605207942124 kcal/mol)

>  <smiles>  (25) 
Cc1cccc2c1ncc1[nH]c(C3=NCCN3)nc12

>  <score_type>  (25) 
oracle

>  <origin>  (25) 
adg

>  <m_score__min__energy>  (25) 
-7.04

>  <m_primary>  (25) 
energy

$$$$
25:0
     RDKit          3D

 38 40  0  0  0  0  0  0  0  0999 V2000
   58.7090   34.6750   44.8690 C   0  0  0  0  0  0  0  0  0  0  0  0
   57.3200   34.2050   45.2890 C   0  0  0  0  0  0  0  0  0  0  0  0
   57.3760   33.4060   46.5960 C   0  0  0  0  0  0  0  0  0  0  0  0
   58.4780   32.4300   46.5490 N   0  0  0  0  0  0  0  0  0  0  0  0
   59.6720   32.7410   47.1450 C   0  0  0  0  0  0  0  0  0  0  0  0
   60.7630   31.8460   47.1070 C   0  0  0  0  0  0  0  0  0  0  0  0
   62.0570   32.1720   47.7590 C   0  0  0  0  0  0  0  0  0  0  0  0
   62.9280   33.1400   47.2180 C   0  0  0  0  0  0  0  0  0  0  0  0
   64.1380   33.4380   47.8540 C   0  0  0  0  0  0  0  0  0  0  0  0
   64.4900   32.7830   49.0340 C   0  0  0  0  0  0  0  0  0  0  0  0
   63.6310   31.8310   49.5860 C   0  0  0  0  0  0  0  0  0  0  0  0
   62.4200   31.5290   48.9570 C   0  0  0  0  0  0  0  0  0  0  0  0
   60.6390   30.6680   46.4380 N   0  0  0  0  0  0  0  0  0  0  0  0
   59.4840   30.3290   45.8180 C   0  0  0  0  0  0  0  0  0  0  0  0
   59.3330   29.1310   45.1210 C   0  0  0  0  0  0  0  0  0  0  0  0
   60.2950   28.3140   45.0810 O   0  0  0  0  0  0  0  0  0  0  0  0
   58.1450   28.8490   44.4880 N   0  0  0  0  0  0  0  0  0  0  0  0
   57.9830   27.5700   43.7750 C   0  0  0  0  0  0  0  0  0  0  0  0
   57.0830   29.7220   44.5770 C   0  0  0  0  0  0  0  0  0  0  0  0
   55.9790   29.4440   44.0360 O   0  0  0  0  0  0  0  0  0  0  0  0
   57.1980   30.8970   45.2510 N   0  0  0  0  0  0  0  0  0  0  0  0
   58.3480   31.2490   45.8730 C   0  0  0  0  0  0  0  0  0  0  0  0
   59.3134   34.8795   45.7650 H   0  0  0  0  0  0  0  0  0  0  0  0
   59.1955   33.8915   44.2695 H   0  0  0  0  0  0  0  0  0  0  0  0
   58.6198   35.5930   44.2695 H   0  0  0  0  0  0  0  0  0  0  0  0
   56.6726   35.0826   45.4326 H   0  0  0  0  0  0  0  0  0  0  0  0
   56.9198   33.5524   44.4991 H   0  0  0  0  0  0  0  0  0  0  0  0
   57.5376   34.0962   47.4371 H   0  0  0  0  0  0  0  0  0  0  0  0
   56.4257   32.8681   46.7287 H   0  0  0  0  0  0  0  0  0  0  0  0
   59.7824   33.7054   47.6624 H   0  0  0  0  0  0  0  0  0  0  0  0
   62.6545   33.6640   46.2903 H   0  0  0  0  0  0  0  0  0  0  0  0
   64.8137   34.1910   47.4222 H   0  0  0  0  0  0  0  0  0  0  0  0
   65.4440   33.0164   49.5294 H   0  0  0  0  0  0  0  0  0  0  0  0
   63.9080   31.3172   50.5184 H   0  0  0  0  0  0  0  0  0  0  0  0
   61.7453   30.7828   49.4019 H   0  0  0  0  0  0  0  0  0  0  0  0
   57.8796   26.7537   44.5051 H   0  0  0  0  0  0  0  0  0  0  0  0
   57.0832   27.6135   43.1438 H   0  0  0  0  0  0  0  0  0  0  0  0
   58.8652   27.3878   43.1438 H   0  0  0  0  0  0  0  0  0  0  0  0
  1  2  1  0
  2  3  1  0
  3  4  1  0
  4  5  1  0
  5  6  2  0
  6  7  1  0
  7  8  2  0
  8  9  1  0
  9 10  2  0
 10 11  1  0
 11 12  2  0
  6 13  1  0
 13 14  2  0
 14 15  1  0
 15 16  2  0
 15 17  1  0
 17 18  1  0
 17 19  1  0
 19 20  2  0
 19 21  1  0
 21 22  2  0
 22  4  1  0
 12  7  1  0
 22 14  1  0
  1 23  1  0
  1 24  1  0
  1 25  1  0
  2 26  1  0
  2 27  1  0
  3 28  1  0
  3 29  1  0
  5 30  1  0
  8 31  1  0
  9 32  1  0
 10 33  1  0
 11 34  1  0
 12 35  1  0
 18 36  1  0
 18 37  1  0
 18 38  1  0
M  END
>  <UniqueID>  (26) 
26

>  <SMILES>  (26) 
CCCn1cc(-c2ccccc2)nc2c(=O)n(C)c(=O)nc1-2

>  <Energy>  (26) 
47.77905765680444

>  <Genealogy>  (26) 
CCCn1cc(-c2ccccc2)nc2c(=O)n(C)c(=O)nc1-2 (3D coordinates assigned)
CCCn1cc(-c2ccccc2)nc2c(=O)n(C)c(=O)nc1-2 (optimized conformer: 47.77905765680444 kcal/mol)

>  <smiles>  (26) 
CCCn1cc(-c2ccccc2)nc2c(=O)n(C)c(=O)nc1-2

>  <score_type>  (26) 
oracle

>  <origin>  (26) 
adg

>  <m_score__min__energy>  (26) 
-7.4900000000000002

>  <m_primary>  (26) 
energy

$$$$
