0:0
     RDKit          3D

 44 46  0  0  0  0  0  0  0  0999 V2000
   55.1616   31.0783   44.0551 H   0  0  0  0  0  0  0  0  0  0  0  0
   55.9230   30.3500   44.3710 C   0  0  0  0  0  0  0  0  0  0  0  0
   55.5410   29.1340   44.8450 N   0  0  0  0  0  0  0  0  0  0  0  0
   56.4380   28.2010   45.2640 C   0  0  0  0  0  0  0  0  0  0  0  0
   55.9890   27.0490   45.6770 N   0  0  0  0  0  0  0  0  0  0  0  0
   56.6740   25.7880   45.6170 C   0  0  0  0  0  0  0  0  0  0  0  0
   56.3050   24.8620   44.6330 C   0  0  0  0  0  0  0  0  0  0  0  0
   55.4882   25.1008   43.9360 H   0  0  0  0  0  0  0  0  0  0  0  0
   56.9680   23.6380   44.5320 C   0  0  0  0  0  0  0  0  0  0  0  0
   56.5940   22.7390   43.5870 F   0  0  0  0  0  0  0  0  0  0  0  0
   58.0180   23.3380   45.4010 C   0  0  0  0  0  0  0  0  0  0  0  0
   58.5320   22.3684   45.3265 H   0  0  0  0  0  0  0  0  0  0  0  0
   58.4180   24.2670   46.3660 C   0  0  0  0  0  0  0  0  0  0  0  0
   59.2495   24.0278   47.0453 H   0  0  0  0  0  0  0  0  0  0  0  0
   57.7600   25.5090   46.4720 C   0  0  0  0  0  0  0  0  0  0  0  0
   58.1610   26.4840   47.4000 O   0  0  0  0  0  0  0  0  0  0  0  0
   59.5080   26.8840   47.6230 C   0  0  0  0  0  0  0  0  0  0  0  0
   59.6993   26.9408   48.7047 H   0  0  0  0  0  0  0  0  0  0  0  0
   60.1887   26.1492   47.1683 H   0  0  0  0  0  0  0  0  0  0  0  0
   59.6774   27.8712   47.1683 H   0  0  0  0  0  0  0  0  0  0  0  0
   57.8090   28.5230   45.2600 C   0  0  0  0  0  0  0  0  0  0  0  0
   58.5484   27.8001   45.6351 H   0  0  0  0  0  0  0  0  0  0  0  0
   58.2230   29.7630   44.7780 C   0  0  0  0  0  0  0  0  0  0  0  0
   59.2915   30.0242   44.7857 H   0  0  0  0  0  0  0  0  0  0  0  0
   57.2840   30.6800   44.2830 C   0  0  0  0  0  0  0  0  0  0  0  0
   57.7330   32.0190   43.7390 C   0  0  0  0  0  0  0  0  0  0  0  0
   58.7909   31.9340   43.4498 H   0  0  0  0  0  0  0  0  0  0  0  0
   57.0698   32.2483   42.8919 H   0  0  0  0  0  0  0  0  0  0  0  0
   57.6030   33.1540   44.6940 N   0  0  0  0  0  0  0  0  0  0  0  0
   56.6910   33.5960   44.4210 H   0  0  0  0  0  0  0  0  0  0  0  0
   57.3980   32.7370   46.1060 C   0  0  0  0  0  0  0  0  0  0  0  0
   56.7874   33.5042   46.6046 H   0  0  0  0  0  0  0  0  0  0  0  0
   56.9109   31.7514   46.0713 H   0  0  0  0  0  0  0  0  0  0  0  0
   58.7030   32.5520   46.9230 C   0  0  0  0  0  0  0  0  0  0  0  0
   58.4927   32.8147   47.9703 H   0  0  0  0  0  0  0  0  0  0  0  0
   59.0058   31.5023   46.7950 H   0  0  0  0  0  0  0  0  0  0  0  0
   59.8330   33.3720   46.4620 N   0  0  0  0  0  0  0  0  0  0  0  0
   60.4220   32.8110   45.8030 H   0  0  0  0  0  0  0  0  0  0  0  0
   59.3830   34.5830   45.7810 C   0  0  0  0  0  0  0  0  0  0  0  0
   58.7165   35.1484   46.4489 H   0  0  0  0  0  0  0  0  0  0  0  0
   60.2602   35.1928   45.5190 H   0  0  0  0  0  0  0  0  0  0  0  0
   58.6250   34.2220   44.4970 C   0  0  0  0  0  0  0  0  0  0  0  0
   58.1187   35.1250   44.1252 H   0  0  0  0  0  0  0  0  0  0  0  0
   59.3648   33.8358   43.7804 H   0  0  0  0  0  0  0  0  0  0  0  0
  1  2  1  0
  2  3  1  0
  3  4  1  0
  4  5  2  0
  5  6  1  0
  6  7  2  0
  7  8  1  0
  7  9  1  0
  9 10  1  0
  9 11  2  0
 11 12  1  0
 11 13  1  0
 13 14  1  0
 13 15  2  0
 15 16  1  0
 16 17  1  0
 17 18  1  0
 17 19  1  0
 17 20  1  0
  4 21  1  0
 21 22  1  0
 21 23  2  0
 23 24  1  0
 23 25  1  0
 25 26  1  0
 26 27  1  0
 26 28  1  0
 26 29  1  0
 29 30  1  0
 29 31  1  0
 31 32  1  0
 31 33  1  0
 31 34  1  0
 34 35  1  0
 34 36  1  0
 34 37  1  0
 37 38  1  0
 37 39  1  0
 39 40  1  0
 39 41  1  0
 39 42  1  0
 42 43  1  0
 42 44  1  0
 25  2  2  0
 42 29  1  0
 15  6  1  0
M  CHG  2   3  -1  29   1
M  END
>  <UniqueID>  (1) 
1

>  <SMILES>  (1) 
COc1ccc(F)cc1/N=c1\ccc(C[NH+]2CCNCC2)c[n-]1

>  <Energy>  (1) 
71.23084763601956

>  <Genealogy>  (1) 
COc1ccc(F)cc1N=c1ccc(C[NH+]2CCNCC2)c[n-]1 (protonated)
COc1ccc(F)cc1/N=c1\ccc(C[NH+]2CCNCC2)c[n-]1 (cis-trans isomerization)
COc1ccc(F)cc1/N=c1\ccc(C[NH+]2CCNCC2)c[n-]1 (3D coordinates assigned)
COc1ccc(F)cc1/N=c1\ccc(C[NH+]2CCNCC2)c[n-]1 (nonaromatic ring conformer: 71.23084763601956 kcal/mol)

>  <smiles>  (1) 
COc1ccc(F)cc1N=c1ccc(CN2CCNCC2)c[nH]1

>  <score_type>  (1) 
oracle

>  <origin>  (1) 
adg

>  <m_score__min__energy>  (1) 
-8.1500000000000004

>  <m_primary>  (1) 
energy

$$$$
1:0
     RDKit          3D

 43 46  0  0  0  0  0  0  0  0999 V2000
   57.2677   32.7224   44.0611 H   0  0  0  0  0  0  0  0  0  0  0  0
   57.6630   32.1680   44.9250 C   0  0  0  0  0  0  0  0  0  0  0  0
   58.2840   32.8500   46.0040 C   0  0  0  0  0  0  0  0  0  0  0  0
   58.3130   34.3610   45.9230 C   0  0  0  0  0  0  0  0  0  0  0  0
   57.2538   34.4926   46.1892 H   0  0  0  0  0  0  0  0  0  0  0  0
   59.2490   34.9520   44.8750 C   0  0  0  0  0  0  0  0  0  0  0  0
   59.7984   34.2864   44.1930 H   0  0  0  0  0  0  0  0  0  0  0  0
   59.1394   35.6921   44.0686 H   0  0  0  0  0  0  0  0  0  0  0  0
   59.6340   35.0190   46.3330 C   0  0  0  0  0  0  0  0  0  0  0  0
   60.4614   34.4011   46.7119 H   0  0  0  0  0  0  0  0  0  0  0  0
   59.9184   35.8253   47.0252 H   0  0  0  0  0  0  0  0  0  0  0  0
   58.8980   32.0610   47.0600 C   0  0  0  0  0  0  0  0  0  0  0  0
   59.6490   32.5360   48.0210 N   0  0  0  0  0  0  0  0  0  0  0  0
   61.0530   32.3770   48.4090 C   0  0  0  0  0  0  0  0  0  0  0  0
   61.1701   31.4961   49.0573 H   0  0  0  0  0  0  0  0  0  0  0  0
   61.9320   32.1600   47.1570 C   0  0  0  0  0  0  0  0  0  0  0  0
   62.7035   31.4105   47.3873 H   0  0  0  0  0  0  0  0  0  0  0  0
   61.2852   31.8163   46.3363 H   0  0  0  0  0  0  0  0  0  0  0  0
   62.6170   33.4630   46.7180 C   0  0  0  0  0  0  0  0  0  0  0  0
   63.2117   33.2572   45.8158 H   0  0  0  0  0  0  0  0  0  0  0  0
   61.8223   34.2009   46.5335 H   0  0  0  0  0  0  0  0  0  0  0  0
   63.4770   34.0120   47.7090 O   0  0  0  0  0  0  0  0  0  0  0  0
   63.0100   33.8450   49.0450 C   0  0  0  0  0  0  0  0  0  0  0  0
   63.5100   32.9651   49.4761 H   0  0  0  0  0  0  0  0  0  0  0  0
   63.2459   34.7783   49.5773 H   0  0  0  0  0  0  0  0  0  0  0  0
   61.4910   33.6430   49.1700 C   0  0  0  0  0  0  0  0  0  0  0  0
   61.2256   33.5373   50.2323 H   0  0  0  0  0  0  0  0  0  0  0  0
   60.9784   34.5147   48.7372 H   0  0  0  0  0  0  0  0  0  0  0  0
   58.7410   30.6950   47.0420 N   0  0  0  0  0  0  0  0  0  0  0  0
   59.1630   30.1090   47.7980 H   0  0  0  0  0  0  0  0  0  0  0  0
   58.0790   30.0950   46.0240 C   0  0  0  0  0  0  0  0  0  0  0  0
   57.5670   30.7900   44.9860 C   0  0  0  0  0  0  0  0  0  0  0  0
   57.0390   29.8350   44.1380 C   0  0  0  0  0  0  0  0  0  0  0  0
   56.4040   30.0740   42.8090 C   0  0  0  0  0  0  0  0  0  0  0  0
   55.3835   30.4581   42.9540 H   0  0  0  0  0  0  0  0  0  0  0  0
   56.9966   30.8106   42.2466 H   0  0  0  0  0  0  0  0  0  0  0  0
   56.3638   29.1295   42.2466 H   0  0  0  0  0  0  0  0  0  0  0  0
   57.2600   28.6080   44.6720 N   0  0  0  0  0  0  0  0  0  0  0  0
   57.8880   28.7780   45.8310 N   0  0  0  0  0  0  0  0  0  0  0  0
   58.3340   27.6860   46.6890 C   0  0  0  0  0  0  0  0  0  0  0  0
   58.2155   27.9763   47.7434 H   0  0  0  0  0  0  0  0  0  0  0  0
   57.7300   26.7895   46.4853 H   0  0  0  0  0  0  0  0  0  0  0  0
   59.3929   27.4687   46.4853 H   0  0  0  0  0  0  0  0  0  0  0  0
  1  2  1  0
  2  3  2  0
  3  4  1  0
  4  5  1  0
  4  6  1  0
  6  7  1  0
  6  8  1  0
  6  9  1  0
  9 10  1  0
  9 11  1  0
  3 12  1  0
 12 13  2  0
 13 14  1  0
 14 15  1  0
 14 16  1  0
 16 17  1  0
 16 18  1  0
 16 19  1  0
 19 20  1  0
 19 21  1  0
 19 22  1  0
 22 23  1  0
 23 24  1  0
 23 25  1  0
 23 26  1  0
 26 27  1  0
 26 28  1  0
 12 29  1  0
 29 30  1  0
 29 31  1  0
 31 32  2  0
 32 33  1  0
 33 34  1  0
 34 35  1  0
 34 36  1  0
 34 37  1  0
 33 38  2  0
 38 39  1  0
 39 40  1  0
 40 41  1  0
 40 42  1  0
 40 43  1  0
 32  2  1  0
  9  4  1  0
 26 14  1  0
 39 31  1  0
M  END
>  <UniqueID>  (2) 
2

>  <SMILES>  (2) 
Cc1nn(C)c2[nH]/c(=N/C3CCOCC3)c(C3CC3)cc12

>  <Energy>  (2) 
372.0826887399583

>  <Genealogy>  (2) 
Cc1nn(C)c2[nH]/c(=N/C3CCOCC3)c(C3CC3)cc12 (cis-trans isomerization)
Cc1nn(C)c2[nH]/c(=N/C3CCOCC3)c(C3CC3)cc12 (3D coordinates assigned)
Cc1nn(C)c2[nH]/c(=N/C3CCOCC3)c(C3CC3)cc12 (nonaromatic ring conformer: 372.0826887399583 kcal/mol)

>  <smiles>  (2) 
Cc1nn(C)c2[nH]c(=NC3CCOCC3)c(C3CC3)cc12

>  <score_type>  (2) 
oracle

>  <origin>  (2) 
adg

>  <m_score__min__energy>  (2) 
-7.1600000000000001

>  <m_primary>  (2) 
energy

$$$$
2:0
     RDKit          3D

 24 24  0  0  0  0  0  0  0  0999 V2000
   59.7231   34.4713   44.1934 H   0  0  0  0  0  0  0  0  0  0  0  0
   58.9140   33.7980   44.5130 C   0  0  0  0  0  0  0  0  0  0  0  0
   58.0870   32.7080   43.5310 S   0  0  0  0  0  0  0  0  0  0  0  0
   57.1090   32.1460   44.7870 C   0  0  0  0  0  0  0  0  0  0  0  0
   56.1900   31.2260   44.7080 N   0  0  0  0  0  0  0  0  0  0  0  0
   56.3780   29.8170   44.4980 C   0  0  0  0  0  0  0  0  0  0  0  0
   55.5220   28.9750   44.8800 O   0  0  0  0  0  0  0  0  0  0  0  0
   57.6040   29.3430   43.7790 C   0  0  0  0  0  0  0  0  0  0  0  0
   58.2152   30.2151   43.5035 H   0  0  0  0  0  0  0  0  0  0  0  0
   57.2840   28.7876   42.8851 H   0  0  0  0  0  0  0  0  0  0  0  0
   58.4450   28.4020   44.6510 C   0  0  0  0  0  0  0  0  0  0  0  0
   58.5165   27.4254   44.1500 H   0  0  0  0  0  0  0  0  0  0  0  0
   57.9487   28.3171   45.6290 H   0  0  0  0  0  0  0  0  0  0  0  0
   59.8580   28.9370   44.8890 C   0  0  0  0  0  0  0  0  0  0  0  0
   60.0458   29.0081   45.9705 H   0  0  0  0  0  0  0  0  0  0  0  0
   60.5902   28.2539   44.4338 H   0  0  0  0  0  0  0  0  0  0  0  0
   59.9542   29.9338   44.4338 H   0  0  0  0  0  0  0  0  0  0  0  0
   57.4030   32.7730   45.9450 N   0  0  0  0  0  0  0  0  0  0  0  0
   56.9270   32.5670   46.8530 H   0  0  0  0  0  0  0  0  0  0  0  0
   58.3930   33.6970   45.8020 C   0  0  0  0  0  0  0  0  0  0  0  0
   58.9260   34.4800   46.9580 C   0  0  0  0  0  0  0  0  0  0  0  0
   58.6054   34.0090   47.8989 H   0  0  0  0  0  0  0  0  0  0  0  0
   60.0249   34.4983   46.9130 H   0  0  0  0  0  0  0  0  0  0  0  0
   58.5400   35.5091   46.9130 H   0  0  0  0  0  0  0  0  0  0  0  0
  1  2  1  0
  2  3  1  0
  3  4  1  0
  4  5  2  0
  5  6  1  0
  6  7  2  0
  6  8  1  0
  8  9  1  0
  8 10  1  0
  8 11  1  0
 11 12  1  0
 11 13  1  0
 11 14  1  0
 14 15  1  0
 14 16  1  0
 14 17  1  0
  4 18  1  0
 18 19  1  0
 18 20  1  0
 20 21  1  0
 21 22  1  0
 21 23  1  0
 21 24  1  0
 20  2  2  0
M  END
>  <UniqueID>  (3) 
3

>  <SMILES>  (3) 
CCCC(=O)/N=c1/[nH]c(C)cs1

>  <Energy>  (3) 
47.686808835063786

>  <Genealogy>  (3) 
CCCC(=O)/N=c1/[nH]c(C)cs1 (cis-trans isomerization)
CCCC(=O)/N=c1/[nH]c(C)cs1 (3D coordinates assigned)
CCCC(=O)/N=c1/[nH]c(C)cs1 (optimized conformer: 47.686808835063786 kcal/mol)

>  <smiles>  (3) 
CCCC(=O)N=c1[nH]c(C)cs1

>  <score_type>  (3) 
oracle

>  <origin>  (3) 
adg

>  <m_score__min__energy>  (3) 
-5.46

>  <m_primary>  (3) 
energy

$$$$
3:0
     RDKit          3D

 48 51  0  0  0  0  0  0  0  0999 V2000
   62.5380   34.2170   49.4520 C   0  0  0  0  0  0  0  0  0  0  0  0
   62.1680   32.8940   48.8510 C   0  0  0  0  0  0  0  0  0  0  0  0
   62.2000   31.7350   49.5300 N   0  0  0  0  0  0  0  0  0  0  0  0
   61.7330   30.7820   48.7410 N   0  0  0  0  0  0  0  0  0  0  0  0
   61.4130   31.3770   47.5710 C   0  0  0  0  0  0  0  0  0  0  0  0
   60.8890   30.6030   46.3940 C   0  0  0  0  0  0  0  0  0  0  0  0
   59.4720   30.2560   46.5930 N   0  0  0  0  0  0  0  0  0  0  0  0
   58.9460   30.0620   47.9480 C   0  0  0  0  0  0  0  0  0  0  0  0
   58.9990   28.5880   48.3530 C   0  0  0  0  0  0  0  0  0  0  0  0
   58.6350   27.6250   47.2140 C   0  0  0  0  0  0  0  0  0  0  0  0
   57.5180   28.0820   46.4560 O   0  0  0  0  0  0  0  0  0  0  0  0
   57.5860   29.0780   45.4690 C   0  0  0  0  0  0  0  0  0  0  0  0
   56.6380   29.0360   44.4410 C   0  0  0  0  0  0  0  0  0  0  0  0
   56.6580   29.9790   43.4140 C   0  0  0  0  0  0  0  0  0  0  0  0
   57.6120   30.9970   43.4200 C   0  0  0  0  0  0  0  0  0  0  0  0
   57.6210   32.3070   42.0280 Br  0  0  0  0  0  0  0  0  0  0  0  0
   58.5430   31.0750   44.4570 C   0  0  0  0  0  0  0  0  0  0  0  0
   58.5620   30.1100   45.4810 C   0  0  0  0  0  0  0  0  0  0  0  0
   61.6670   32.7120   47.6100 N   0  0  0  0  0  0  0  0  0  0  0  0
   61.3500   33.7520   46.6250 C   0  0  0  0  0  0  0  0  0  0  0  0
   59.8730   33.7700   46.3390 C   0  0  0  0  0  0  0  0  0  0  0  0
   59.3920   34.1410   45.0710 C   0  0  0  0  0  0  0  0  0  0  0  0
   58.0170   34.1770   44.8200 C   0  0  0  0  0  0  0  0  0  0  0  0
   57.1110   33.8420   45.8300 C   0  0  0  0  0  0  0  0  0  0  0  0
   57.5820   33.4700   47.0920 C   0  0  0  0  0  0  0  0  0  0  0  0
   58.9560   33.4310   47.3470 C   0  0  0  0  0  0  0  0  0  0  0  0
   62.5165   34.1402   50.5491 H   0  0  0  0  0  0  0  0  0  0  0  0
   63.5494   34.4988   49.1239 H   0  0  0  0  0  0  0  0  0  0  0  0
   61.8195   34.9826   49.1239 H   0  0  0  0  0  0  0  0  0  0  0  0
   62.5240   31.5880   50.5130 H   0  0  0  0  0  0  0  0  0  0  0  0
   60.9874   31.2154   45.4855 H   0  0  0  0  0  0  0  0  0  0  0  0
   61.4709   29.6752   46.2915 H   0  0  0  0  0  0  0  0  0  0  0  0
   59.5487   30.6508   48.6551 H   0  0  0  0  0  0  0  0  0  0  0  0
   57.8968   30.3920   47.9663 H   0  0  0  0  0  0  0  0  0  0  0  0
   60.0198   28.3566   48.6913 H   0  0  0  0  0  0  0  0  0  0  0  0
   58.2526   28.4445   49.1481 H   0  0  0  0  0  0  0  0  0  0  0  0
   59.5013   27.5267   46.5433 H   0  0  0  0  0  0  0  0  0  0  0  0
   58.3638   26.6586   47.6639 H   0  0  0  0  0  0  0  0  0  0  0  0
   55.8682   28.2503   44.4429 H   0  0  0  0  0  0  0  0  0  0  0  0
   55.9215   29.9203   42.5990 H   0  0  0  0  0  0  0  0  0  0  0  0
   59.2701   31.9002   44.4740 H   0  0  0  0  0  0  0  0  0  0  0  0
   61.6545   34.7318   47.0216 H   0  0  0  0  0  0  0  0  0  0  0  0
   61.8917   33.5372   45.6921 H   0  0  0  0  0  0  0  0  0  0  0  0
   60.1011   34.4043   44.2723 H   0  0  0  0  0  0  0  0  0  0  0  0
   57.6477   34.4695   43.8260 H   0  0  0  0  0  0  0  0  0  0  0  0
   56.0294   33.8711   45.6320 H   0  0  0  0  0  0  0  0  0  0  0  0
   56.8692   33.2070   47.8874 H   0  0  0  0  0  0  0  0  0  0  0  0
   59.3203   33.1335   48.3414 H   0  0  0  0  0  0  0  0  0  0  0  0
  1  2  1  0
  2  3  2  0
  3  4  1  0
  4  5  2  0
  5  6  1  0
  6  7  1  0
  7  8  1  0
  8  9  1  0
  9 10  1  0
 10 11  1  0
 11 12  1  0
 12 13  2  0
 13 14  1  0
 14 15  2  0
 15 16  1  0
 15 17  1  0
 17 18  2  0
  5 19  1  0
 19 20  1  0
 20 21  1  0
 21 22  2  0
 22 23  1  0
 23 24  2  0
 24 25  1  0
 25 26  2  0
 19  2  1  0
 26 21  1  0
 18  7  1  0
 18 12  1  0
  1 27  1  0
  1 28  1  0
  1 29  1  0
  3 30  1  0
  6 31  1  0
  6 32  1  0
  8 33  1  0
  8 34  1  0
  9 35  1  0
  9 36  1  0
 10 37  1  0
 10 38  1  0
 13 39  1  0
 14 40  1  0
 17 41  1  0
 20 42  1  0
 20 43  1  0
 22 44  1  0
 23 45  1  0
 24 46  1  0
 25 47  1  0
 26 48  1  0
M  CHG  1   3   1
M  END
>  <UniqueID>  (4) 
4

>  <SMILES>  (4) 
Cc1[nH+]nc(CN2CCCOc3ccc(Br)cc32)n1Cc1ccccc1

>  <Energy>  (4) 
89.81467792726386

>  <Genealogy>  (4) 
Cc1[nH+]nc(CN2CCCOc3ccc(Br)cc32)n1Cc1ccccc1 (protonated)
Cc1[nH+]nc(CN2CCCOc3ccc(Br)cc32)n1Cc1ccccc1 (3D coordinates assigned)
Cc1[nH+]nc(CN2CCCOc3ccc(Br)cc32)n1Cc1ccccc1 (nonaromatic ring conformer: 89.81467792726386 kcal/mol)

>  <smiles>  (4) 
Cc1nnc(CN2CCCOc3ccc(Br)cc32)n1Cc1ccccc1

>  <score_type>  (4) 
oracle

>  <origin>  (4) 
adg

>  <m_score__min__energy>  (4) 
-5.9000000000000004

>  <m_primary>  (4) 
energy

$$$$
4:0
     RDKit          3D

 32 33  0  0  0  0  0  0  0  0999 V2000
   56.5350   30.2890   43.5580 C   0  0  0  0  0  0  0  0  0  0  0  0
   56.3550   31.2110   44.6280 O   0  0  0  0  0  0  0  0  0  0  0  0
   57.3960   31.9230   45.2430 C   0  0  0  0  0  0  0  0  0  0  0  0
   57.3840   33.3240   45.3680 C   0  0  0  0  0  0  0  0  0  0  0  0
   58.4470   33.9890   45.9850 C   0  0  0  0  0  0  0  0  0  0  0  0
   59.5550   33.2700   46.4800 C   0  0  0  0  0  0  0  0  0  0  0  0
   60.7390   33.9350   47.1810 C   0  0  2  0  0  0  0  0  0  0  0  0
   62.0730   33.1930   47.1470 C   0  0  0  0  0  0  0  0  0  0  0  0
   62.8700   33.8410   48.2640 C   0  0  0  0  0  0  0  0  0  0  0  0
   61.8420   34.5570   49.1430 C   0  0  0  0  0  0  0  0  0  0  0  0
   60.4990   34.2670   48.6020 N   0  0  2  0  0  0  0  0  0  0  0  0
   59.8600   33.1720   49.3640 C   0  0  0  0  0  0  0  0  0  0  0  0
   59.5440   31.8680   46.3710 C   0  0  0  0  0  0  0  0  0  0  0  0
   58.4810   31.2050   45.7530 C   0  0  0  0  0  0  0  0  0  0  0  0
   56.7307   29.2867   43.9667 H   0  0  0  0  0  0  0  0  0  0  0  0
   55.6252   30.2619   42.9403 H   0  0  0  0  0  0  0  0  0  0  0  0
   57.3882   30.6061   42.9403 H   0  0  0  0  0  0  0  0  0  0  0  0
   56.5321   33.9000   44.9775 H   0  0  0  0  0  0  0  0  0  0  0  0
   58.4194   35.0840   46.0857 H   0  0  0  0  0  0  0  0  0  0  0  0
   60.8211   34.8383   46.5587 H   0  0  0  0  0  0  0  0  0  0  0  0
   61.9302   32.1192   47.3382 H   0  0  0  0  0  0  0  0  0  0  0  0
   62.5743   33.2592   46.1701 H   0  0  0  0  0  0  0  0  0  0  0  0
   63.4066   33.0770   48.8457 H   0  0  0  0  0  0  0  0  0  0  0  0
   63.6259   34.5378   47.8727 H   0  0  0  0  0  0  0  0  0  0  0  0
   61.9151   34.1901   50.1774 H   0  0  0  0  0  0  0  0  0  0  0  0
   62.0282   35.6411   49.1434 H   0  0  0  0  0  0  0  0  0  0  0  0
   59.8990   35.1230   48.6770 H   0  0  0  0  0  0  0  0  0  0  0  0
   59.9709   33.3620   50.4418 H   0  0  0  0  0  0  0  0  0  0  0  0
   58.7912   33.1225   49.1084 H   0  0  0  0  0  0  0  0  0  0  0  0
   60.3427   32.2172   49.1084 H   0  0  0  0  0  0  0  0  0  0  0  0
   60.3838   31.2855   46.7779 H   0  0  0  0  0  0  0  0  0  0  0  0
   58.4982   30.1085   45.6671 H   0  0  0  0  0  0  0  0  0  0  0  0
  1  2  1  0
  2  3  1  0
  3  4  2  0
  4  5  1  0
  5  6  2  0
  6  7  1  0
  7  8  1  0
  8  9  1  0
  9 10  1  0
 10 11  1  0
 11 12  1  0
  6 13  1  0
 13 14  2  0
 14  3  1  0
 11  7  1  0
  1 15  1  0
  1 16  1  0
  1 17  1  0
  4 18  1  0
  5 19  1  0
  7 20  1  6
  8 21  1  0
  8 22  1  0
  9 23  1  0
  9 24  1  0
 10 25  1  0
 10 26  1  0
 11 27  1  6
 12 28  1  0
 12 29  1  0
 12 30  1  0
 13 31  1  0
 14 32  1  0
M  CHG  1  11   1
M  END
>  <UniqueID>  (5) 
5

>  <SMILES>  (5) 
COc1ccc([C@@H]2CCC[N@@H+]2C)cc1

>  <Energy>  (5) 
41.32027742158513

>  <Genealogy>  (5) 
COc1ccc(C2CCC[NH+]2C)cc1 (protonated)
COc1ccc([C@@H]2CCC[N@@H+]2C)cc1 (chirality)
COc1ccc([C@@H]2CCC[N@@H+]2C)cc1 (3D coordinates assigned)
COc1ccc([C@@H]2CCC[N@@H+]2C)cc1 (nonaromatic ring conformer: 41.32027742158513 kcal/mol)

>  <smiles>  (5) 
COc1ccc(C2CCCN2C)cc1

>  <score_type>  (5) 
oracle

>  <origin>  (5) 
adg

>  <m_score__min__energy>  (5) 
-4.0800000000000001

>  <m_primary>  (5) 
energy

$$$$
5:0
     RDKit          3D

 54 55  0  0  0  0  0  0  0  0999 V2000
   57.4780   31.9700   41.8130 C   0  0  0  0  0  0  0  0  0  0  0  0
   57.9830   32.3790   43.2060 C   0  0  0  0  0  0  0  0  0  0  0  0
   57.0770   31.9890   44.3130 N   0  0  0  0  0  0  0  0  0  0  0  0
   57.3910   30.6300   44.8140 C   0  0  0  0  0  0  0  0  0  0  0  0
   56.4510   29.5830   44.2220 C   0  0  0  0  0  0  0  0  0  0  0  0
   57.0180   33.0120   45.3890 C   0  0  0  0  0  0  0  0  0  0  0  0
   57.9080   34.2210   45.0530 C   0  0  0  0  0  0  0  0  0  0  0  0
   59.3850   34.0470   45.4470 C   0  0  0  0  0  0  0  0  0  0  0  0
   59.5300   33.5380   46.8210 N   0  0  0  0  0  0  0  0  0  0  0  0
   60.1850   34.3520   47.8550 C   0  0  0  0  0  0  0  0  0  0  0  0
   61.5860   33.8730   48.1210 C   0  0  0  0  0  0  0  0  0  0  0  0
   62.4310   33.5180   47.0570 C   0  0  0  0  0  0  0  0  0  0  0  0
   63.7450   33.1080   47.3060 C   0  0  0  0  0  0  0  0  0  0  0  0
   64.2240   33.0550   48.6180 C   0  0  0  0  0  0  0  0  0  0  0  0
   63.3900   33.4100   49.6810 C   0  0  0  0  0  0  0  0  0  0  0  0
   62.0760   33.8200   49.4360 C   0  0  0  0  0  0  0  0  0  0  0  0
   59.3690   32.1340   47.0660 C   0  0  0  0  0  0  0  0  0  0  0  0
   58.4520   31.7370   47.8360 O   0  0  0  0  0  0  0  0  0  0  0  0
   60.2820   31.1980   46.4750 N   0  0  0  0  0  0  0  0  0  0  0  0
   60.2550   29.7880   46.7440 C   0  0  0  0  0  0  0  0  0  0  0  0
   60.3240   29.3370   48.0710 C   0  0  0  0  0  0  0  0  0  0  0  0
   60.3030   27.9680   48.3540 C   0  0  0  0  0  0  0  0  0  0  0  0
   60.2310   27.0390   47.3130 C   0  0  0  0  0  0  0  0  0  0  0  0
   60.1860   27.4780   45.9880 C   0  0  0  0  0  0  0  0  0  0  0  0
   60.2020   28.8460   45.7010 C   0  0  0  0  0  0  0  0  0  0  0  0
   56.6272   31.2809   41.9192 H   0  0  0  0  0  0  0  0  0  0  0  0
   57.1574   32.8661   41.2615 H   0  0  0  0  0  0  0  0  0  0  0  0
   58.2880   31.4702   41.2615 H   0  0  0  0  0  0  0  0  0  0  0  0
   58.9599   31.9020   43.3739 H   0  0  0  0  0  0  0  0  0  0  0  0
   58.0418   33.4774   43.2140 H   0  0  0  0  0  0  0  0  0  0  0  0
   58.4256   30.3778   44.5382 H   0  0  0  0  0  0  0  0  0  0  0  0
   57.2647   30.6279   45.9067 H   0  0  0  0  0  0  0  0  0  0  0  0
   55.9565   29.0322   45.0357 H   0  0  0  0  0  0  0  0  0  0  0  0
   55.6912   30.0812   43.6018 H   0  0  0  0  0  0  0  0  0  0  0  0
   57.0279   28.8811   43.6018 H   0  0  0  0  0  0  0  0  0  0  0  0
   55.9784   33.3523   45.5046 H   0  0  0  0  0  0  0  0  0  0  0  0
   57.3824   32.5586   46.3226 H   0  0  0  0  0  0  0  0  0  0  0  0
   57.8588   34.3944   43.9679 H   0  0  0  0  0  0  0  0  0  0  0  0
   57.5229   35.0689   45.6385 H   0  0  0  0  0  0  0  0  0  0  0  0
   59.8570   33.3362   44.7527 H   0  0  0  0  0  0  0  0  0  0  0  0
   59.8702   35.0329   45.3955 H   0  0  0  0  0  0  0  0  0  0  0  0
   60.2220   35.3983   47.5174 H   0  0  0  0  0  0  0  0  0  0  0  0
   59.6052   34.2638   48.7856 H   0  0  0  0  0  0  0  0  0  0  0  0
   62.0579   33.5625   46.0232 H   0  0  0  0  0  0  0  0  0  0  0  0
   64.4014   32.8273   46.4692 H   0  0  0  0  0  0  0  0  0  0  0  0
   65.2577   32.7337   48.8135 H   0  0  0  0  0  0  0  0  0  0  0  0
   63.7680   33.3669   50.7131 H   0  0  0  0  0  0  0  0  0  0  0  0
   61.4240   34.1019   50.2759 H   0  0  0  0  0  0  0  0  0  0  0  0
   61.1240   31.5870   45.9950 H   0  0  0  0  0  0  0  0  0  0  0  0
   60.3950   30.0645   48.8930 H   0  0  0  0  0  0  0  0  0  0  0  0
   60.3432   27.6220   49.3974 H   0  0  0  0  0  0  0  0  0  0  0  0
   60.2098   25.9622   47.5369 H   0  0  0  0  0  0  0  0  0  0  0  0
   60.1379   26.7458   45.1685 H   0  0  0  0  0  0  0  0  0  0  0  0
   60.1730   29.1870   44.6556 H   0  0  0  0  0  0  0  0  0  0  0  0
  1  2  1  0
  2  3  1  0
  3  4  1  0
  4  5  1  0
  3  6  1  0
  6  7  1  0
  7  8  1  0
  8  9  1  0
  9 10  1  0
 10 11  1  0
 11 12  2  0
 12 13  1  0
 13 14  2  0
 14 15  1  0
 15 16  2  0
  9 17  1  0
 17 18  2  0
 17 19  1  0
 19 20  1  0
 20 21  2  0
 21 22  1  0
 22 23  2  0
 23 24  1  0
 24 25  2  0
 16 11  1  0
 25 20  1  0
  1 26  1  0
  1 27  1  0
  1 28  1  0
  2 29  1  0
  2 30  1  0
  4 31  1  0
  4 32  1  0
  5 33  1  0
  5 34  1  0
  5 35  1  0
  6 36  1  0
  6 37  1  0
  7 38  1  0
  7 39  1  0
  8 40  1  0
  8 41  1  0
 10 42  1  0
 10 43  1  0
 12 44  1  0
 13 45  1  0
 14 46  1  0
 15 47  1  0
 16 48  1  0
 19 49  1  0
 21 50  1  0
 22 51  1  0
 23 52  1  0
 24 53  1  0
 25 54  1  0
M  END
>  <UniqueID>  (6) 
6

>  <SMILES>  (6) 
CCN(CC)CCCN(Cc1ccccc1)C(=O)Nc1ccccc1

>  <Energy>  (6) 
56.22145516130861

>  <Genealogy>  (6) 
CCN(CC)CCCN(Cc1ccccc1)C(=O)Nc1ccccc1 (3D coordinates assigned)
CCN(CC)CCCN(Cc1ccccc1)C(=O)Nc1ccccc1 (optimized conformer: 56.22145516130861 kcal/mol)

>  <smiles>  (6) 
CCN(CC)CCCN(Cc1ccccc1)C(=O)Nc1ccccc1

>  <score_type>  (6) 
oracle

>  <origin>  (6) 
adg

>  <m_score__min__energy>  (6) 
-7.1200000000000001

>  <m_primary>  (6) 
energy

$$$$
6:0
     RDKit          3D

 49 52  0  0  0  0  0  0  0  0999 V2000
   55.5950   22.7720   47.9000 C   0  0  0  0  0  0  0  0  0  0  0  0
   56.2910   23.9440   47.2990 C   0  0  0  0  0  0  0  0  0  0  0  0
   57.4200   24.4830   47.8090 N   0  0  0  0  0  0  0  0  0  0  0  0
   57.8180   25.5880   47.1190 C   0  0  0  0  0  0  0  0  0  0  0  0
   59.0500   26.3390   47.5140 C   0  0  0  0  0  0  0  0  0  0  0  0
   56.9810   25.9420   46.0530 C   0  0  0  0  0  0  0  0  0  0  0  0
   57.1230   27.0770   45.1270 C   0  0  0  0  0  0  0  0  0  0  0  0
   57.8240   27.0520   43.9770 N   0  0  0  0  0  0  0  0  0  0  0  0
   57.7080   28.2560   43.4420 N   0  0  0  0  0  0  0  0  0  0  0  0
   56.9370   28.9690   44.2850 C   0  0  0  0  0  0  0  0  0  0  0  0
   56.5600   30.4020   44.0780 C   0  0  0  0  0  0  0  0  0  0  0  0
   56.9630   31.2240   45.2380 N   0  0  0  0  0  0  0  0  0  0  0  0
   58.1810   30.6800   45.8920 C   0  0  0  0  0  0  0  0  0  0  0  0
   58.9460   31.7690   46.6520 C   0  0  0  0  0  0  0  0  0  0  0  0
   59.4420   32.8090   45.7270 N   0  0  0  0  0  0  0  0  0  0  0  0
   59.7790   34.2800   46.6080 S   0  0  0  0  0  0  0  0  0  0  0  0
   58.6150   34.6290   47.4930 O   0  0  0  0  0  0  0  0  0  0  0  0
   60.0030   35.4090   45.6410 O   0  0  0  0  0  0  0  0  0  0  0  0
   61.2330   34.0740   47.5850 C   0  0  0  0  0  0  0  0  0  0  0  0
   61.1680   34.2390   48.9750 C   0  0  0  0  0  0  0  0  0  0  0  0
   62.3200   34.0990   49.7550 C   0  0  0  0  0  0  0  0  0  0  0  0
   63.5430   33.7970   49.1470 C   0  0  0  0  0  0  0  0  0  0  0  0
   64.6600   33.6620   49.9050 F   0  0  0  0  0  0  0  0  0  0  0  0
   63.6150   33.6390   47.7600 C   0  0  0  0  0  0  0  0  0  0  0  0
   62.4630   33.7780   46.9790 C   0  0  0  0  0  0  0  0  0  0  0  0
   58.5380   33.0690   44.5820 C   0  0  0  0  0  0  0  0  0  0  0  0
   57.0830   32.6580   44.8720 C   0  0  0  0  0  0  0  0  0  0  0  0
   56.5760   28.2520   45.3220 O   0  0  0  0  0  0  0  0  0  0  0  0
   55.7180   24.8320   45.9920 S   0  0  0  0  0  0  0  0  0  0  0  0
   55.6373   22.8433   48.9969 H   0  0  0  0  0  0  0  0  0  0  0  0
   54.5446   22.7623   47.5735 H   0  0  0  0  0  0  0  0  0  0  0  0
   56.0891   21.8451   47.5735 H   0  0  0  0  0  0  0  0  0  0  0  0
   59.1181   26.3805   48.6111 H   0  0  0  0  0  0  0  0  0  0  0  0
   59.9364   25.8275   47.1107 H   0  0  0  0  0  0  0  0  0  0  0  0
   59.0014   27.3612   47.1107 H   0  0  0  0  0  0  0  0  0  0  0  0
   57.0629   30.7804   43.1758 H   0  0  0  0  0  0  0  0  0  0  0  0
   55.4679   30.4660   43.9632 H   0  0  0  0  0  0  0  0  0  0  0  0
   57.8846   29.8917   46.5996 H   0  0  0  0  0  0  0  0  0  0  0  0
   58.8413   30.2771   45.1099 H   0  0  0  0  0  0  0  0  0  0  0  0
   58.2742   32.2333   47.3889 H   0  0  0  0  0  0  0  0  0  0  0  0
   59.8079   31.3065   47.1552 H   0  0  0  0  0  0  0  0  0  0  0  0
   60.2075   34.4795   49.4541 H   0  0  0  0  0  0  0  0  0  0  0  0
   62.2645   34.2263   50.8462 H   0  0  0  0  0  0  0  0  0  0  0  0
   64.5780   33.4053   47.2825 H   0  0  0  0  0  0  0  0  0  0  0  0
   62.5217   33.6550   45.8875 H   0  0  0  0  0  0  0  0  0  0  0  0
   58.5612   34.1444   44.3518 H   0  0  0  0  0  0  0  0  0  0  0  0
   58.8923   32.4650   43.7336 H   0  0  0  0  0  0  0  0  0  0  0  0
   56.7026   33.2682   45.7044 H   0  0  0  0  0  0  0  0  0  0  0  0
   56.4990   32.8203   43.9541 H   0  0  0  0  0  0  0  0  0  0  0  0
  1  2  1  0
  2  3  2  0
  3  4  1  0
  4  5  1  0
  4  6  2  0
  6  7  1  0
  7  8  2  0
  8  9  1  0
  9 10  2  0
 10 11  1  0
 11 12  1  0
 12 13  1  0
 13 14  1  0
 14 15  1  0
 15 16  1  0
 16 17  2  0
 16 18  2  0
 16 19  1  0
 19 20  2  0
 20 21  1  0
 21 22  2  0
 22 23  1  0
 22 24  1  0
 24 25  2  0
 15 26  1  0
 26 27  1  0
 10 28  1  0
  6 29  1  0
 29  2  1  0
 28  7  1  0
 27 12  1  0
 25 19  1  0
  1 30  1  0
  1 31  1  0
  1 32  1  0
  5 33  1  0
  5 34  1  0
  5 35  1  0
 11 36  1  0
 11 37  1  0
 13 38  1  0
 13 39  1  0
 14 40  1  0
 14 41  1  0
 20 42  1  0
 21 43  1  0
 24 44  1  0
 25 45  1  0
 26 46  1  0
 26 47  1  0
 27 48  1  0
 27 49  1  0
M  END
>  <UniqueID>  (7) 
7

>  <SMILES>  (7) 
Cc1nc(C)c(-c2nnc(CN3CCN(S(=O)(=O)c4ccc(F)cc4)CC3)o2)s1

>  <Energy>  (7) 
124.27236885248185

>  <Genealogy>  (7) 
Cc1nc(C)c(-c2nnc(CN3CCN(S(=O)(=O)c4ccc(F)cc4)CC3)o2)s1 (3D coordinates assigned)
Cc1nc(C)c(-c2nnc(CN3CCN(S(=O)(=O)c4ccc(F)cc4)CC3)o2)s1 (nonaromatic ring conformer: 124.27236885248185 kcal/mol)

>  <smiles>  (7) 
Cc1nc(C)c(-c2nnc(CN3CCN(S(=O)(=O)c4ccc(F)cc4)CC3)o2)s1

>  <score_type>  (7) 
oracle

>  <origin>  (7) 
adg

>  <m_score__min__energy>  (7) 
-9.3000000000000007

>  <m_primary>  (7) 
energy

$$$$
7:0
     RDKit          3D

 48 50  0  0  0  0  0  0  0  0999 V2000
   62.5760   33.4740   51.3620 C   0  0  0  0  0  0  0  0  0  0  0  0
   63.9160   33.7660   50.6980 C   0  0  0  0  0  0  0  0  0  0  0  0
   64.5010   32.3440   49.7850 S   0  0  0  0  0  0  0  0  0  0  0  0
   66.0040   32.3580   49.7630 O   0  0  0  0  0  0  0  0  0  0  0  0
   64.0290   31.0850   50.4590 O   0  0  0  0  0  0  0  0  0  0  0  0
   63.9000   32.4120   48.1450 N   0  0  2  0  0  0  0  0  0  0  0  0
   63.7850   33.7950   47.6690 C   0  0  0  0  0  0  0  0  0  0  0  0
   62.5410   33.8600   46.8050 C   0  0  0  0  0  0  0  0  0  0  0  0
   61.5880   32.8270   47.4270 C   0  0  1  0  0  0  0  0  0  0  0  0
   60.7470   33.4670   48.5610 C   0  0  0  0  0  0  0  0  0  0  0  0
   59.7270   34.4960   48.0420 C   0  0  0  0  0  0  0  0  0  0  0  0
   59.3200   34.2590   46.5770 C   0  0  0  0  0  0  0  0  0  0  0  0
   59.3110   32.8290   46.2090 N   0  0  0  0  0  0  0  0  0  0  0  0
   58.2010   32.0740   46.8340 C   0  0  0  0  0  0  0  0  0  0  0  0
   57.8060   30.9020   45.9870 C   0  0  0  0  0  0  0  0  0  0  0  0
   58.2620   29.6070   46.2260 C   0  0  0  0  0  0  0  0  0  0  0  0
   57.6300   28.6120   45.0260 S   0  0  0  0  0  0  0  0  0  0  0  0
   56.7980   29.8620   44.2720 C   0  0  0  0  0  0  0  0  0  0  0  0
   56.0190   29.7250   43.0090 C   0  0  0  0  0  0  0  0  0  0  0  0
   57.0050   31.0410   44.8950 N   0  0  0  0  0  0  0  0  0  0  0  0
   60.6340   32.1670   46.3720 C   0  0  0  0  0  0  0  0  0  0  0  0
   62.5690   31.7860   48.0180 C   0  0  0  0  0  0  0  0  0  0  0  0
   62.6951   33.5000   52.4552 H   0  0  0  0  0  0  0  0  0  0  0  0
   61.8415   34.2332   51.0551 H   0  0  0  0  0  0  0  0  0  0  0  0
   62.2240   32.4781   51.0551 H   0  0  0  0  0  0  0  0  0  0  0  0
   63.7981   34.6137   50.0070 H   0  0  0  0  0  0  0  0  0  0  0  0
   64.6504   34.0067   51.4808 H   0  0  0  0  0  0  0  0  0  0  0  0
   64.5830   31.9010   47.5360 H   0  0  0  0  0  0  0  0  0  0  0  0
   63.6894   34.4823   48.5225 H   0  0  0  0  0  0  0  0  0  0  0  0
   64.6774   34.0909   47.0981 H   0  0  0  0  0  0  0  0  0  0  0  0
   62.0979   34.8663   46.8360 H   0  0  0  0  0  0  0  0  0  0  0  0
   62.7545   33.6491   45.7467 H   0  0  0  0  0  0  0  0  0  0  0  0
   60.2035   32.6690   49.0881 H   0  0  0  0  0  0  0  0  0  0  0  0
   61.4419   33.9983   49.2279 H   0  0  0  0  0  0  0  0  0  0  0  0
   58.8248   34.4410   48.6689 H   0  0  0  0  0  0  0  0  0  0  0  0
   60.2053   35.4853   48.0928 H   0  0  0  0  0  0  0  0  0  0  0  0
   58.3106   34.6679   46.4222 H   0  0  0  0  0  0  0  0  0  0  0  0
   60.0654   34.7595   45.9414 H   0  0  0  0  0  0  0  0  0  0  0  0
   58.5231   31.7121   47.8216 H   0  0  0  0  0  0  0  0  0  0  0  0
   57.3337   32.7432   46.9335 H   0  0  0  0  0  0  0  0  0  0  0  0
   58.9176   29.2920   47.0513 H   0  0  0  0  0  0  0  0  0  0  0  0
   54.9617   29.5391   43.2487 H   0  0  0  0  0  0  0  0  0  0  0  0
   56.1046   30.6520   42.4230 H   0  0  0  0  0  0  0  0  0  0  0  0
   56.4157   28.8828   42.4230 H   0  0  0  0  0  0  0  0  0  0  0  0
   60.4574   31.1254   46.6782 H   0  0  0  0  0  0  0  0  0  0  0  0
   61.1427   32.2607   45.4012 H   0  0  0  0  0  0  0  0  0  0  0  0
   62.2150   31.4638   49.0084 H   0  0  0  0  0  0  0  0  0  0  0  0
   62.6281   30.9082   47.3577 H   0  0  0  0  0  0  0  0  0  0  0  0
  1  2  1  0
  2  3  1  0
  3  4  2  0
  3  5  2  0
  3  6  1  0
  6  7  1  0
  7  8  1  0
  9  8  1  6
  9 10  1  0
 10 11  1  0
 11 12  1  0
 12 13  1  0
 13 14  1  0
 14 15  1  0
 15 16  2  0
 16 17  1  0
 17 18  1  0
 18 19  1  0
 18 20  2  0
 13 21  1  0
  9 22  1  0
 22  6  1  0
 21  9  1  0
 20 15  1  0
  1 23  1  0
  1 24  1  0
  1 25  1  0
  2 26  1  0
  2 27  1  0
  6 28  1  6
  7 29  1  0
  7 30  1  0
  8 31  1  0
  8 32  1  0
 10 33  1  0
 10 34  1  0
 11 35  1  0
 11 36  1  0
 12 37  1  0
 12 38  1  0
 14 39  1  0
 14 40  1  0
 16 41  1  0
 19 42  1  0
 19 43  1  0
 19 44  1  0
 21 45  1  0
 21 46  1  0
 22 47  1  0
 22 48  1  0
M  CHG  1   6   1
M  END
>  <UniqueID>  (8) 
8

>  <SMILES>  (8) 
CCS(=O)(=O)[N@@H+]1CC[C@]2(CCCN(Cc3csc(C)n3)C2)C1

>  <Energy>  (8) 
84.38447132341155

>  <Genealogy>  (8) 
CCS(=O)(=O)[NH+]1CCC2(CCCN(Cc3csc(C)n3)C2)C1 (protonated)
CCS(=O)(=O)[N@@H+]1CC[C@]2(CCCN(Cc3csc(C)n3)C2)C1 (chirality)
CCS(=O)(=O)[N@@H+]1CC[C@]2(CCCN(Cc3csc(C)n3)C2)C1 (3D coordinates assigned)
CCS(=O)(=O)[N@@H+]1CC[C@]2(CCCN(Cc3csc(C)n3)C2)C1 (nonaromatic ring conformer: 84.38447132341155 kcal/mol)

>  <smiles>  (8) 
CCS(=O)(=O)N1CCC2(CCCN(Cc3csc(C)n3)C2)C1

>  <score_type>  (8) 
oracle

>  <origin>  (8) 
adg

>  <m_score__min__energy>  (8) 
-6.9100000000000001

>  <m_primary>  (8) 
energy

$$$$
8:0
     RDKit          3D

 60 61  0  0  0  0  0  0  0  0999 V2000
   59.3330   28.5880   46.2470 C   0  0  0  0  0  0  0  0  0  0  0  0
   59.4580   29.4390   44.9750 C   0  0  0  0  0  0  0  0  0  0  0  0
   58.3850   29.2200   43.9730 N   0  0  0  0  0  0  0  0  0  0  0  0
   57.7650   27.8750   44.0170 C   0  0  0  0  0  0  0  0  0  0  0  0
   58.1160   27.0190   42.7970 C   0  0  0  0  0  0  0  0  0  0  0  0
   57.1420   30.4510   44.0740 S   0  0  0  0  0  0  0  0  0  0  0  0
   55.9710   29.9530   44.8770 O   0  0  0  0  0  0  0  0  0  0  0  0
   56.6540   30.8240   42.7010 O   0  0  0  0  0  0  0  0  0  0  0  0
   57.8020   31.8800   44.8680 C   0  0  0  0  0  0  0  0  0  0  0  0
   58.0240   33.0560   44.1410 C   0  0  0  0  0  0  0  0  0  0  0  0
   58.5690   34.1790   44.7700 C   0  0  0  0  0  0  0  0  0  0  0  0
   58.9050   34.1390   46.1330 C   0  0  0  0  0  0  0  0  0  0  0  0
   59.4900   35.3570   46.7950 C   0  0  0  0  0  0  0  0  0  0  0  0
   58.6560   32.9610   46.8700 C   0  0  0  0  0  0  0  0  0  0  0  0
   58.9600   32.8880   48.2650 N   0  0  0  0  0  0  0  0  0  0  0  0
   59.1960   31.6640   48.9700 C   0  0  0  0  0  0  0  0  0  0  0  0
   58.3420   31.2750   49.8110 O   0  0  0  0  0  0  0  0  0  0  0  0
   60.4730   30.8830   48.7890 C   0  0  0  0  0  0  0  0  0  0  0  0
   61.1390   31.2600   47.5840 O   0  0  0  0  0  0  0  0  0  0  0  0
   61.8690   32.4460   47.4380 C   0  0  0  0  0  0  0  0  0  0  0  0
   61.7770   33.1210   46.3750 O   0  0  0  0  0  0  0  0  0  0  0  0
   62.7500   32.9060   48.5340 C   0  0  0  0  0  0  0  0  0  0  0  0
   62.3040   33.8570   49.4640 C   0  0  0  0  0  0  0  0  0  0  0  0
   63.1380   34.2850   50.5020 C   0  0  0  0  0  0  0  0  0  0  0  0
   64.4470   33.7730   50.6410 C   0  0  0  0  0  0  0  0  0  0  0  0
   65.3160   34.2180   51.7200 N   0  0  0  0  0  0  0  0  0  0  0  0
   66.7670   33.9830   51.6600 C   0  0  0  0  0  0  0  0  0  0  0  0
   64.7620   34.9100   52.8920 C   0  0  0  0  0  0  0  0  0  0  0  0
   64.8840   32.8160   49.6990 C   0  0  0  0  0  0  0  0  0  0  0  0
   64.0480   32.3910   48.6630 C   0  0  0  0  0  0  0  0  0  0  0  0
   58.1270   31.8350   46.2290 C   0  0  0  0  0  0  0  0  0  0  0  0
   59.4280   29.2348   47.1317 H   0  0  0  0  0  0  0  0  0  0  0  0
   58.3521   28.0903   46.2603 H   0  0  0  0  0  0  0  0  0  0  0  0
   60.1293   27.8293   46.2603 H   0  0  0  0  0  0  0  0  0  0  0  0
   59.4408   30.4988   45.2690 H   0  0  0  0  0  0  0  0  0  0  0  0
   60.3995   29.1384   44.4920 H   0  0  0  0  0  0  0  0  0  0  0  0
   58.8220   29.3360   43.0280 H   0  0  0  0  0  0  0  0  0  0  0  0
   58.1142   27.3566   44.9221 H   0  0  0  0  0  0  0  0  0  0  0  0
   56.6738   28.0136   44.0211 H   0  0  0  0  0  0  0  0  0  0  0  0
   58.5136   26.0494   43.1315 H   0  0  0  0  0  0  0  0  0  0  0  0
   57.2123   26.8555   42.1915 H   0  0  0  0  0  0  0  0  0  0  0  0
   58.8743   27.5370   42.1915 H   0  0  0  0  0  0  0  0  0  0  0  0
   57.7688   33.0962   43.0718 H   0  0  0  0  0  0  0  0  0  0  0  0
   58.7359   35.1007   44.1933 H   0  0  0  0  0  0  0  0  0  0  0  0
   59.4350   35.2425   47.8876 H   0  0  0  0  0  0  0  0  0  0  0  0
   60.5409   35.4706   46.4907 H   0  0  0  0  0  0  0  0  0  0  0  0
   58.9217   36.2483   46.4907 H   0  0  0  0  0  0  0  0  0  0  0  0
   61.1379   31.0784   49.6433 H   0  0  0  0  0  0  0  0  0  0  0  0
   60.2233   29.8133   48.7305 H   0  0  0  0  0  0  0  0  0  0  0  0
   61.2883   34.2701   49.3760 H   0  0  0  0  0  0  0  0  0  0  0  0
   62.7690   35.0314   51.2208 H   0  0  0  0  0  0  0  0  0  0  0  0
   67.1704   33.9177   52.6813 H   0  0  0  0  0  0  0  0  0  0  0  0
   66.9642   33.0412   51.1269 H   0  0  0  0  0  0  0  0  0  0  0  0
   67.2514   34.8144   51.1269 H   0  0  0  0  0  0  0  0  0  0  0  0
   65.1407   34.4370   53.8100 H   0  0  0  0  0  0  0  0  0  0  0  0
   65.0664   35.9668   52.8716 H   0  0  0  0  0  0  0  0  0  0  0  0
   63.6642   34.8442   52.8716 H   0  0  0  0  0  0  0  0  0  0  0  0
   65.8983   32.3986   49.7820 H   0  0  0  0  0  0  0  0  0  0  0  0
   64.4118   31.6448   47.9413 H   0  0  0  0  0  0  0  0  0  0  0  0
   57.9654   30.9080   46.7986 H   0  0  0  0  0  0  0  0  0  0  0  0
  1  2  1  0
  2  3  1  0
  3  4  1  0
  4  5  1  0
  3  6  1  0
  6  7  2  0
  6  8  2  0
  6  9  1  0
  9 10  2  0
 10 11  1  0
 11 12  2  0
 12 13  1  0
 12 14  1  0
 14 15  1  0
 15 16  1  0
 16 17  2  0
 16 18  1  0
 18 19  1  0
 19 20  1  0
 20 21  2  0
 20 22  1  0
 22 23  2  0
 23 24  1  0
 24 25  2  0
 25 26  1  0
 26 27  1  0
 26 28  1  0
 25 29  1  0
 29 30  2  0
 14 31  2  0
 31  9  1  0
 30 22  1  0
  1 32  1  0
  1 33  1  0
  1 34  1  0
  2 35  1  0
  2 36  1  0
  3 37  1  0
  4 38  1  0
  4 39  1  0
  5 40  1  0
  5 41  1  0
  5 42  1  0
 10 43  1  0
 11 44  1  0
 13 45  1  0
 13 46  1  0
 13 47  1  0
 18 48  1  0
 18 49  1  0
 23 50  1  0
 24 51  1  0
 27 52  1  0
 27 53  1  0
 27 54  1  0
 28 55  1  0
 28 56  1  0
 28 57  1  0
 29 58  1  0
 30 59  1  0
 31 60  1  0
M  CHG  2   3   1  15  -1
M  END
>  <UniqueID>  (9) 
9

>  <SMILES>  (9) 
CC[NH+](CC)S(=O)(=O)c1ccc(C)c([N-]C(=O)COC(=O)c2ccc(N(C)C)cc2)c1

>  <Energy>  (9) 
67.60331899631954

>  <Genealogy>  (9) 
CC[NH+](CC)S(=O)(=O)c1ccc(C)c([N-]C(=O)COC(=O)c2ccc(N(C)C)cc2)c1 (protonated)
CC[NH+](CC)S(=O)(=O)c1ccc(C)c([N-]C(=O)COC(=O)c2ccc(N(C)C)cc2)c1 (3D coordinates assigned)
CC[NH+](CC)S(=O)(=O)c1ccc(C)c([N-]C(=O)COC(=O)c2ccc(N(C)C)cc2)c1 (optimized conformer: 67.60331899631954 kcal/mol)

>  <smiles>  (9) 
CCN(CC)S(=O)(=O)c1ccc(C)c(NC(=O)COC(=O)c2ccc(N(C)C)cc2)c1

>  <score_type>  (9) 
oracle

>  <origin>  (9) 
adg

>  <m_score__min__energy>  (9) 
-8.4000000000000004

>  <m_primary>  (9) 
energy

$$$$
9:0
     RDKit          3D

 55 58  0  0  0  0  0  0  0  0999 V2000
   61.3550   29.1480   50.1330 C   0  0  0  0  0  0  0  0  0  0  0  0
   61.0570   30.5650   49.7400 C   0  0  0  0  0  0  0  0  0  0  0  0
   60.1940   31.3420   50.5150 C   0  0  0  0  0  0  0  0  0  0  0  0
   59.8790   32.6590   50.1460 C   0  0  0  0  0  0  0  0  0  0  0  0
   58.9330   33.4400   51.0270 C   0  0  0  0  0  0  0  0  0  0  0  0
   60.4130   33.2030   48.9440 C   0  0  0  0  0  0  0  0  0  0  0  0
   60.0300   34.6140   48.5160 C   0  0  0  0  0  0  0  0  0  0  0  0
   58.9900   34.5800   47.4670 N   0  0  0  0  0  0  0  0  0  0  0  0
   59.5630   34.8830   46.1320 C   0  0  0  0  0  0  0  0  0  0  0  0
   58.5730   34.5610   44.9750 C   0  0  2  0  0  0  0  0  0  0  0  0
   57.1630   34.4740   45.5360 C   0  0  0  0  0  0  0  0  0  0  0  0
   57.2830   33.1370   46.2460 C   0  0  2  0  0  0  0  0  0  0  0  0
   58.1830   33.3320   47.5160 C   0  0  0  0  0  0  0  0  0  0  0  0
   57.8870   32.2720   45.2120 N   0  0  0  0  0  0  0  0  0  0  0  0
   58.4800   30.9810   45.6200 C   0  0  0  0  0  0  0  0  0  0  0  0
   58.1040   29.8760   44.6680 C   0  0  0  0  0  0  0  0  0  0  0  0
   58.7880   28.6510   44.6860 C   0  0  0  0  0  0  0  0  0  0  0  0
   58.4120   27.6400   43.7980 C   0  0  0  0  0  0  0  0  0  0  0  0
   57.3930   27.8440   42.9180 N   0  0  0  0  0  0  0  0  0  0  0  0
   56.7210   29.0270   42.8750 C   0  0  0  0  0  0  0  0  0  0  0  0
   57.0650   30.0630   43.7460 C   0  0  0  0  0  0  0  0  0  0  0  0
   58.8020   33.1330   44.4510 C   0  0  0  0  0  0  0  0  0  0  0  0
   61.2820   32.4020   48.1520 C   0  0  0  0  0  0  0  0  0  0  0  0
   61.9060   32.9120   46.8770 C   0  0  0  0  0  0  0  0  0  0  0  0
   61.5850   31.0920   48.5590 C   0  0  0  0  0  0  0  0  0  0  0  0
   61.3719   29.0675   51.2299 H   0  0  0  0  0  0  0  0  0  0  0  0
   60.5769   28.4840   49.7286 H   0  0  0  0  0  0  0  0  0  0  0  0
   62.3347   28.8536   49.7286 H   0  0  0  0  0  0  0  0  0  0  0  0
   59.7543   30.9156   51.4287 H   0  0  0  0  0  0  0  0  0  0  0  0
   59.1699   33.2445   52.0833 H   0  0  0  0  0  0  0  0  0  0  0  0
   59.0419   34.5148   50.8197 H   0  0  0  0  0  0  0  0  0  0  0  0
   57.8983   33.1296   50.8197 H   0  0  0  0  0  0  0  0  0  0  0  0
   59.6450   35.1633   49.3878 H   0  0  0  0  0  0  0  0  0  0  0  0
   60.9224   35.1143   48.1117 H   0  0  0  0  0  0  0  0  0  0  0  0
   59.8182   35.9522   46.0914 H   0  0  0  0  0  0  0  0  0  0  0  0
   60.4532   34.2510   45.9976 H   0  0  0  0  0  0  0  0  0  0  0  0
   58.7150   35.3357   44.2071 H   0  0  0  0  0  0  0  0  0  0  0  0
   56.9436   35.2953   46.2340 H   0  0  0  0  0  0  0  0  0  0  0  0
   56.3507   34.5510   44.7983 H   0  0  0  0  0  0  0  0  0  0  0  0
   56.3439   32.7014   46.6180 H   0  0  0  0  0  0  0  0  0  0  0  0
   57.5344   33.3680   48.4037 H   0  0  0  0  0  0  0  0  0  0  0  0
   58.8851   32.4862   47.5562 H   0  0  0  0  0  0  0  0  0  0  0  0
   59.5754   31.0804   45.6377 H   0  0  0  0  0  0  0  0  0  0  0  0
   58.0942   30.7236   46.6175 H   0  0  0  0  0  0  0  0  0  0  0  0
   59.6140   28.4879   45.3939 H   0  0  0  0  0  0  0  0  0  0  0  0
   58.9411   26.6757   43.8098 H   0  0  0  0  0  0  0  0  0  0  0  0
   57.1250   27.0780   42.2610 H   0  0  0  0  0  0  0  0  0  0  0  0
   55.9042   29.1674   42.1517 H   0  0  0  0  0  0  0  0  0  0  0  0
   56.5238   31.0200   43.7087 H   0  0  0  0  0  0  0  0  0  0  0  0
   59.8448   32.8264   44.6198 H   0  0  0  0  0  0  0  0  0  0  0  0
   58.6137   33.0652   43.3694 H   0  0  0  0  0  0  0  0  0  0  0  0
   62.7365   33.5907   47.1212 H   0  0  0  0  0  0  0  0  0  0  0  0
   62.2867   32.0632   46.2900 H   0  0  0  0  0  0  0  0  0  0  0  0
   61.1499   33.4540   46.2900 H   0  0  0  0  0  0  0  0  0  0  0  0
   62.2482   30.4717   47.9382 H   0  0  0  0  0  0  0  0  0  0  0  0
  1  2  1  0
  2  3  2  0
  3  4  1  0
  4  5  1  0
  4  6  2  0
  6  7  1  0
  7  8  1  0
  8  9  1  0
  9 10  1  0
 10 11  1  0
 11 12  1  0
 12 13  1  0
 12 14  1  0
 14 15  1  0
 15 16  1  0
 16 17  2  0
 17 18  1  0
 18 19  2  0
 19 20  1  0
 20 21  2  0
 14 22  1  0
  6 23  1  0
 23 24  1  0
 23 25  2  0
 25  2  1  0
 13  8  1  0
 21 16  1  0
 22 10  1  0
  1 26  1  0
  1 27  1  0
  1 28  1  0
  3 29  1  0
  5 30  1  0
  5 31  1  0
  5 32  1  0
  7 33  1  0
  7 34  1  0
  9 35  1  0
  9 36  1  0
 10 37  1  6
 11 38  1  0
 11 39  1  0
 12 40  1  1
 13 41  1  0
 13 42  1  0
 15 43  1  0
 15 44  1  0
 17 45  1  0
 18 46  1  0
 19 47  1  0
 20 48  1  0
 21 49  1  0
 22 50  1  0
 22 51  1  0
 24 52  1  0
 24 53  1  0
 24 54  1  0
 25 55  1  0
M  CHG  1  19   1
M  END
>  <UniqueID>  (10) 
10

>  <SMILES>  (10) 
Cc1cc(C)c(CN2C[C@@H]3C[C@H](C2)N(Cc2cc[nH+]cc2)C3)c(C)c1

>  <Energy>  (10) 
86.97289745089058

>  <Genealogy>  (10) 
Cc1cc(C)c(CN2CC3CC(C2)N(Cc2cc[nH+]cc2)C3)c(C)c1 (protonated)
Cc1cc(C)c(CN2C[C@@H]3C[C@H](C2)N(Cc2cc[nH+]cc2)C3)c(C)c1 (chirality)
Cc1cc(C)c(CN2C[C@@H]3C[C@H](C2)N(Cc2cc[nH+]cc2)C3)c(C)c1 (3D coordinates assigned)
Cc1cc(C)c(CN2C[C@@H]3C[C@H](C2)N(Cc2cc[nH+]cc2)C3)c(C)c1 (nonaromatic ring conformer: 86.97289745089058 kcal/mol)

>  <smiles>  (10) 
Cc1cc(C)c(CN2CC3CC(C2)N(Cc2ccncc2)C3)c(C)c1

>  <score_type>  (10) 
oracle

>  <origin>  (10) 
adg

>  <m_score__min__energy>  (10) 
-7.1100000000000003

>  <m_primary>  (10) 
energy

$$$$
10:0
     RDKit          3D

 34 35  0  0  0  0  0  0  0  0999 V2000
   57.4460   32.3440   40.9700 C   0  0  0  0  0  0  0  0  0  0  0  0
   57.4190   31.6450   42.2560 N   0  0  0  0  0  0  0  0  0  0  0  0
   57.8080   32.5570   43.3380 C   0  0  0  0  0  0  0  0  0  0  0  0
   58.0100   31.7730   44.6130 C   0  0  0  0  0  0  0  0  0  0  0  0
   57.8180   30.3800   44.5850 C   0  0  0  0  0  0  0  0  0  0  0  0
   58.0730   29.6050   45.7170 C   0  0  0  0  0  0  0  0  0  0  0  0
   58.5450   30.2050   46.8840 C   0  0  0  0  0  0  0  0  0  0  0  0
   58.7560   31.5830   46.9250 C   0  0  0  0  0  0  0  0  0  0  0  0
   58.4820   32.3790   45.8020 C   0  0  0  0  0  0  0  0  0  0  0  0
   58.7770   34.1530   45.9240 S   0  0  0  0  0  0  0  0  0  0  0  0
   60.2390   33.9580   46.9480 C   0  0  0  0  0  0  0  0  0  0  0  0
   60.1830   34.2200   48.3220 C   0  0  0  0  0  0  0  0  0  0  0  0
   61.3250   34.0650   49.1130 C   0  0  0  0  0  0  0  0  0  0  0  0
   62.5330   33.6420   48.5380 C   0  0  0  0  0  0  0  0  0  0  0  0
   63.7680   33.5130   49.3800 C   0  0  0  0  0  0  0  0  0  0  0  0
   62.5930   33.4110   47.1550 C   0  0  0  0  0  0  0  0  0  0  0  0
   61.4500   33.5660   46.3650 C   0  0  0  0  0  0  0  0  0  0  0  0
   57.4879   33.4294   41.1435 H   0  0  0  0  0  0  0  0  0  0  0  0
   58.3327   32.0292   40.4001 H   0  0  0  0  0  0  0  0  0  0  0  0
   56.5377   32.0986   40.4001 H   0  0  0  0  0  0  0  0  0  0  0  0
   58.1260   30.8750   42.2070 H   0  0  0  0  0  0  0  0  0  0  0  0
   58.7453   33.0659   43.0687 H   0  0  0  0  0  0  0  0  0  0  0  0
   57.0144   33.3034   43.4898 H   0  0  0  0  0  0  0  0  0  0  0  0
   57.4636   29.8971   43.6624 H   0  0  0  0  0  0  0  0  0  0  0  0
   57.9014   28.5188   45.6888 H   0  0  0  0  0  0  0  0  0  0  0  0
   58.7511   29.5909   47.7730 H   0  0  0  0  0  0  0  0  0  0  0  0
   59.1400   32.0494   47.8442 H   0  0  0  0  0  0  0  0  0  0  0  0
   59.2384   34.5485   48.7801 H   0  0  0  0  0  0  0  0  0  0  0  0
   61.2764   34.2757   50.1915 H   0  0  0  0  0  0  0  0  0  0  0  0
   63.4909   33.5419   50.4441 H   0  0  0  0  0  0  0  0  0  0  0  0
   64.2660   32.5580   49.1566 H   0  0  0  0  0  0  0  0  0  0  0  0
   64.4526   34.3445   49.1566 H   0  0  0  0  0  0  0  0  0  0  0  0
   63.5428   33.1069   46.6909 H   0  0  0  0  0  0  0  0  0  0  0  0
   61.5023   33.3794   45.2822 H   0  0  0  0  0  0  0  0  0  0  0  0
  1  2  1  0
  2  3  1  0
  3  4  1  0
  4  5  2  0
  5  6  1  0
  6  7  2  0
  7  8  1  0
  8  9  2  0
  9 10  1  0
 10 11  1  0
 11 12  2  0
 12 13  1  0
 13 14  2  0
 14 15  1  0
 14 16  1  0
 16 17  2  0
  9  4  1  0
 17 11  1  0
  1 18  1  0
  1 19  1  0
  1 20  1  0
  2 21  1  0
  3 22  1  0
  3 23  1  0
  5 24  1  0
  6 25  1  0
  7 26  1  0
  8 27  1  0
 12 28  1  0
 13 29  1  0
 15 30  1  0
 15 31  1  0
 15 32  1  0
 16 33  1  0
 17 34  1  0
M  END
>  <UniqueID>  (11) 
11

>  <SMILES>  (11) 
CNCc1ccccc1Sc1ccc(C)cc1

>  <Energy>  (11) 
28.073970978705383

>  <Genealogy>  (11) 
CNCc1ccccc1Sc1ccc(C)cc1 (3D coordinates assigned)
CNCc1ccccc1Sc1ccc(C)cc1 (optimized conformer: 28.073970978705383 kcal/mol)

>  <smiles>  (11) 
CNCc1ccccc1Sc1ccc(C)cc1

>  <score_type>  (11) 
oracle

>  <origin>  (11) 
adg

>  <m_score__min__energy>  (11) 
-6.6799999999999997

>  <m_primary>  (11) 
energy

$$$$
11:0
     RDKit          3D

 33 35  0  0  0  0  0  0  0  0999 V2000
   55.6090   29.3750   44.1120 C   0  0  0  0  0  0  0  0  0  0  0  0
   56.5100   30.5670   44.0340 C   0  0  0  0  0  0  0  0  0  0  0  0
   56.9980   31.0070   42.7820 C   0  0  0  0  0  0  0  0  0  0  0  0
   57.8380   32.1340   42.7380 C   0  0  0  0  0  0  0  0  0  0  0  0
   58.3620   32.6650   41.4370 C   0  0  0  0  0  0  0  0  0  0  0  0
   58.1100   32.7560   43.9120 N   0  0  0  0  0  0  0  0  0  0  0  0
   58.8500   33.8270   44.1190 N   0  0  0  0  0  0  0  0  0  0  0  0
   58.7970   34.0170   45.4590 C   0  0  0  0  0  0  0  0  0  0  0  0
   59.6630   35.3430   46.2950 S   0  0  0  0  0  0  0  0  0  0  0  0
   60.0090   34.3690   47.8010 C   0  0  0  0  0  0  0  0  0  0  0  0
   61.4360   33.8900   47.8170 C   0  0  0  0  0  0  0  0  0  0  0  0
   62.0520   33.5220   49.0210 C   0  0  0  0  0  0  0  0  0  0  0  0
   63.3870   33.1100   49.0130 C   0  0  0  0  0  0  0  0  0  0  0  0
   64.0830   33.0660   47.8450 N   0  0  0  0  0  0  0  0  0  0  0  0
   63.5080   33.4200   46.6640 C   0  0  0  0  0  0  0  0  0  0  0  0
   62.1770   33.8410   46.6280 C   0  0  0  0  0  0  0  0  0  0  0  0
   58.0370   33.0980   46.1130 N   0  0  0  0  0  0  0  0  0  0  0  0
   57.6360   32.3330   45.0850 C   0  0  0  0  0  0  0  0  0  0  0  0
   56.8350   31.2450   45.1760 N   0  0  0  0  0  0  0  0  0  0  0  0
   55.4208   29.1260   45.1668 H   0  0  0  0  0  0  0  0  0  0  0  0
   54.6554   29.6029   43.6133 H   0  0  0  0  0  0  0  0  0  0  0  0
   56.0884   28.5197   43.6133 H   0  0  0  0  0  0  0  0  0  0  0  0
   56.7251   30.4766   41.8578 H   0  0  0  0  0  0  0  0  0  0  0  0
   59.1220   33.4352   41.6348 H   0  0  0  0  0  0  0  0  0  0  0  0
   58.8134   31.8438   40.8610 H   0  0  0  0  0  0  0  0  0  0  0  0
   57.5349   33.1055   40.8610 H   0  0  0  0  0  0  0  0  0  0  0  0
   59.8308   34.9984   48.6854 H   0  0  0  0  0  0  0  0  0  0  0  0
   59.3447   33.4923   47.8120 H   0  0  0  0  0  0  0  0  0  0  0  0
   61.4886   33.5573   49.9651 H   0  0  0  0  0  0  0  0  0  0  0  0
   63.8769   32.8202   49.9543 H   0  0  0  0  0  0  0  0  0  0  0  0
   65.0800   32.7550   47.8550 H   0  0  0  0  0  0  0  0  0  0  0  0
   64.0937   33.3744   45.7340 H   0  0  0  0  0  0  0  0  0  0  0  0
   61.7135   34.1320   45.6738 H   0  0  0  0  0  0  0  0  0  0  0  0
  1  2  1  0
  2  3  1  0
  3  4  2  0
  4  5  1  0
  4  6  1  0
  6  7  1  0
  7  8  2  0
  8  9  1  0
  9 10  1  0
 10 11  1  0
 11 12  2  0
 12 13  1  0
 13 14  2  0
 14 15  1  0
 15 16  2  0
  8 17  1  0
 17 18  2  0
 18 19  1  0
 19  2  2  0
 18  6  1  0
 16 11  1  0
  1 20  1  0
  1 21  1  0
  1 22  1  0
  3 23  1  0
  5 24  1  0
  5 25  1  0
  5 26  1  0
 10 27  1  0
 10 28  1  0
 12 29  1  0
 13 30  1  0
 14 31  1  0
 15 32  1  0
 16 33  1  0
M  CHG  1  14   1
M  END
>  <UniqueID>  (12) 
12

>  <SMILES>  (12) 
Cc1cc(C)n2nc(SCc3cc[nH+]cc3)nc2n1

>  <Energy>  (12) 
68.20827022395943

>  <Genealogy>  (12) 
Cc1cc(C)n2nc(SCc3cc[nH+]cc3)nc2n1 (protonated)
Cc1cc(C)n2nc(SCc3cc[nH+]cc3)nc2n1 (3D coordinates assigned)
Cc1cc(C)n2nc(SCc3cc[nH+]cc3)nc2n1 (optimized conformer: 68.20827022395943 kcal/mol)

>  <smiles>  (12) 
Cc1cc(C)n2nc(SCc3ccncc3)nc2n1

>  <score_type>  (12) 
oracle

>  <origin>  (12) 
adg

>  <m_score__min__energy>  (12) 
-6.75

>  <m_primary>  (12) 
energy

$$$$
12:0
     RDKit          3D

 43 46  0  0  0  0  0  0  0  0999 V2000
   57.7690   26.2970   42.8560 C   0  0  0  0  0  0  0  0  0  0  0  0
   58.2980   26.8810   44.1320 C   0  0  0  0  0  0  0  0  0  0  0  0
   57.8930   26.3580   45.3700 C   0  0  0  0  0  0  0  0  0  0  0  0
   58.4120   26.8790   46.5590 C   0  0  0  0  0  0  0  0  0  0  0  0
   59.3560   27.9170   46.5250 C   0  0  0  0  0  0  0  0  0  0  0  0
   59.8840   28.4960   47.8080 C   0  0  0  0  0  0  0  0  0  0  0  0
   59.8920   29.9550   47.7330 N   0  0  0  0  0  0  0  0  0  0  0  0
   60.9890   30.8160   48.1770 C   0  0  0  0  0  0  0  0  0  0  0  0
   60.4800   32.1980   47.8840 C   0  0  0  0  0  0  0  0  0  0  0  0
   61.1380   33.4060   48.1070 C   0  0  0  0  0  0  0  0  0  0  0  0
   60.4950   34.5980   47.7450 C   0  0  0  0  0  0  0  0  0  0  0  0
   59.2090   34.5710   47.1700 C   0  0  0  0  0  0  0  0  0  0  0  0
   58.5410   33.3460   46.9590 C   0  0  0  0  0  0  0  0  0  0  0  0
   57.1870   33.3310   46.3020 C   0  0  0  0  0  0  0  0  0  0  0  0
   57.2580   32.6250   45.0270 N   0  0  0  0  0  0  0  0  0  0  0  0
   58.0060   32.9860   43.9670 C   0  0  0  0  0  0  0  0  0  0  0  0
   57.8350   32.0300   42.9940 C   0  0  0  0  0  0  0  0  0  0  0  0
   58.4100   32.0000   41.7670 F   0  0  0  0  0  0  0  0  0  0  0  0
   56.9700   31.0980   43.5300 C   0  0  0  0  0  0  0  0  0  0  0  0
   56.6350   31.4820   44.7780 N   0  0  0  0  0  0  0  0  0  0  0  0
   59.2170   32.1670   47.3210 C   0  0  0  0  0  0  0  0  0  0  0  0
   58.8430   30.7710   47.2200 C   0  0  0  0  0  0  0  0  0  0  0  0
   57.7660   30.3190   46.7500 O   0  0  0  0  0  0  0  0  0  0  0  0
   59.7670   28.4330   45.2860 C   0  0  0  0  0  0  0  0  0  0  0  0
   59.2480   27.9120   44.0970 C   0  0  0  0  0  0  0  0  0  0  0  0
   57.0473   25.5002   43.0889 H   0  0  0  0  0  0  0  0  0  0  0  0
   57.2702   27.0842   42.2716 H   0  0  0  0  0  0  0  0  0  0  0  0
   58.6015   25.8782   42.2716 H   0  0  0  0  0  0  0  0  0  0  0  0
   57.1642   25.5348   45.4048 H   0  0  0  0  0  0  0  0  0  0  0  0
   58.0789   26.4735   47.5257 H   0  0  0  0  0  0  0  0  0  0  0  0
   59.2418   28.1779   48.6425 H   0  0  0  0  0  0  0  0  0  0  0  0
   60.9113   28.1376   47.9695 H   0  0  0  0  0  0  0  0  0  0  0  0
   61.1820   30.6863   49.2522 H   0  0  0  0  0  0  0  0  0  0  0  0
   61.9428   30.5923   47.6768 H   0  0  0  0  0  0  0  0  0  0  0  0
   62.1412   33.4239   48.5578 H   0  0  0  0  0  0  0  0  0  0  0  0
   60.9984   35.5618   47.9112 H   0  0  0  0  0  0  0  0  0  0  0  0
   58.7209   35.5140   46.8828 H   0  0  0  0  0  0  0  0  0  0  0  0
   56.4682   32.8217   46.9607 H   0  0  0  0  0  0  0  0  0  0  0  0
   56.8612   34.3663   46.1234 H   0  0  0  0  0  0  0  0  0  0  0  0
   58.6388   33.8827   43.8931 H   0  0  0  0  0  0  0  0  0  0  0  0
   56.6123   30.1902   43.0220 H   0  0  0  0  0  0  0  0  0  0  0  0
   60.5011   29.2514   45.2504 H   0  0  0  0  0  0  0  0  0  0  0  0
   59.5862   28.3125   43.1299 H   0  0  0  0  0  0  0  0  0  0  0  0
  1  2  1  0
  2  3  2  0
  3  4  1  0
  4  5  2  0
  5  6  1  0
  6  7  1  0
  7  8  1  0
  8  9  1  0
  9 10  2  0
 10 11  1  0
 11 12  2  0
 12 13  1  0
 13 14  1  0
 14 15  1  0
 15 16  1  0
 16 17  2  0
 17 18  1  0
 17 19  1  0
 19 20  2  0
 13 21  2  0
 21 22  1  0
 22 23  2  0
  5 24  1  0
 24 25  2  0
 25  2  1  0
 22  7  1  0
 21  9  1  0
 20 15  1  0
  1 26  1  0
  1 27  1  0
  1 28  1  0
  3 29  1  0
  4 30  1  0
  6 31  1  0
  6 32  1  0
  8 33  1  0
  8 34  1  0
 10 35  1  0
 11 36  1  0
 12 37  1  0
 14 38  1  0
 14 39  1  0
 16 40  1  0
 19 41  1  0
 24 42  1  0
 25 43  1  0
M  END
>  <UniqueID>  (13) 
13

>  <SMILES>  (13) 
Cc1ccc(CN2Cc3cccc(Cn4cc(F)cn4)c3C2=O)cc1

>  <Energy>  (13) 
94.76643751636479

>  <Genealogy>  (13) 
Cc1ccc(CN2Cc3cccc(Cn4cc(F)cn4)c3C2=O)cc1 (3D coordinates assigned)
Cc1ccc(CN2Cc3cccc(Cn4cc(F)cn4)c3C2=O)cc1 (nonaromatic ring conformer: 94.76643751636479 kcal/mol)

>  <smiles>  (13) 
Cc1ccc(CN2Cc3cccc(Cn4cc(F)cn4)c3C2=O)cc1

>  <score_type>  (13) 
oracle

>  <origin>  (13) 
adg

>  <m_score__min__energy>  (13) 
-8.1999999999999993

>  <m_primary>  (13) 
energy

$$$$
13:0
     RDKit          3D

 47 49  0  0  0  0  0  0  0  0999 V2000
   56.6540   28.4600   45.1260 C   0  0  0  0  0  0  0  0  0  0  0  0
   56.5620   29.8280   43.9850 S   0  0  0  0  0  0  0  0  0  0  0  0
   56.0850   29.2750   42.6710 O   0  0  0  0  0  0  0  0  0  0  0  0
   55.5530   30.8140   44.5030 O   0  0  0  0  0  0  0  0  0  0  0  0
   58.1390   30.5810   43.8050 N   0  0  1  0  0  0  0  0  0  0  0  0
   58.0900   32.0520   43.6530 C   0  0  0  0  0  0  0  0  0  0  0  0
   57.3740   32.8220   44.7890 C   0  0  0  0  0  0  0  0  0  0  0  0
   57.9330   32.5840   46.1910 C   0  0  0  0  0  0  0  0  0  0  0  0
   59.3910   32.1550   46.1540 C   0  0  0  0  0  0  0  0  0  0  0  0
   59.5580   30.6680   45.8900 C   0  0  0  0  0  0  0  0  0  0  0  0
   59.1180   30.0350   44.7510 C   0  0  0  0  0  0  0  0  0  0  0  0
   59.5710   28.6050   44.5000 C   0  0  0  0  0  0  0  0  0  0  0  0
   60.8040   28.2610   45.3180 C   0  0  0  0  0  0  0  0  0  0  0  0
   60.5320   28.5350   46.6690 O   0  0  0  0  0  0  0  0  0  0  0  0
   60.4740   29.9370   46.8790 C   0  0  2  0  0  0  0  0  0  0  0  0
   59.9830   30.1620   48.1890 O   0  0  0  0  0  0  0  0  0  0  0  0
   61.0320   30.4930   49.0790 C   0  0  0  0  0  0  0  0  0  0  0  0
   61.7810   31.6960   48.5730 C   0  0  0  0  0  0  0  0  0  0  0  0
   61.2540   32.9830   48.7700 C   0  0  0  0  0  0  0  0  0  0  0  0
   61.9270   34.1030   48.2710 C   0  0  0  0  0  0  0  0  0  0  0  0
   63.1270   33.9470   47.5740 C   0  0  0  0  0  0  0  0  0  0  0  0
   63.6550   32.6690   47.3690 C   0  0  0  0  0  0  0  0  0  0  0  0
   62.9830   31.5450   47.8630 C   0  0  0  0  0  0  0  0  0  0  0  0
   56.6284   28.8407   46.1577 H   0  0  0  0  0  0  0  0  0  0  0  0
   55.7990   27.7876   44.9620 H   0  0  0  0  0  0  0  0  0  0  0  0
   57.5913   27.9081   44.9620 H   0  0  0  0  0  0  0  0  0  0  0  0
   58.4620   30.2610   42.8620 H   0  0  0  0  0  0  0  0  0  0  0  0
   59.1249   32.4202   43.5955 H   0  0  0  0  0  0  0  0  0  0  0  0
   57.4980   32.2395   42.7450 H   0  0  0  0  0  0  0  0  0  0  0  0
   57.4495   33.8975   44.5709 H   0  0  0  0  0  0  0  0  0  0  0  0
   56.3397   32.4478   44.8059 H   0  0  0  0  0  0  0  0  0  0  0  0
   57.8510   33.5159   46.7696 H   0  0  0  0  0  0  0  0  0  0  0  0
   57.3512   31.7754   46.6576 H   0  0  0  0  0  0  0  0  0  0  0  0
   59.9021   32.7137   45.3561 H   0  0  0  0  0  0  0  0  0  0  0  0
   59.8253   32.3680   47.1420 H   0  0  0  0  0  0  0  0  0  0  0  0
   58.7566   27.9185   44.7747 H   0  0  0  0  0  0  0  0  0  0  0  0
   59.8243   28.5048   43.4343 H   0  0  0  0  0  0  0  0  0  0  0  0
   61.0444   27.1945   45.1966 H   0  0  0  0  0  0  0  0  0  0  0  0
   61.6621   28.8589   44.9770 H   0  0  0  0  0  0  0  0  0  0  0  0
   61.4893   30.3335   46.7311 H   0  0  0  0  0  0  0  0  0  0  0  0
   60.6108   30.7174   50.0701 H   0  0  0  0  0  0  0  0  0  0  0  0
   61.7251   29.6418   49.1501 H   0  0  0  0  0  0  0  0  0  0  0  0
   60.3090   33.1105   49.3184 H   0  0  0  0  0  0  0  0  0  0  0  0
   61.5102   35.1088   48.4279 H   0  0  0  0  0  0  0  0  0  0  0  0
   63.6567   34.8297   47.1863 H   0  0  0  0  0  0  0  0  0  0  0  0
   64.5996   32.5466   46.8188 H   0  0  0  0  0  0  0  0  0  0  0  0
   63.3978   30.5402   47.6945 H   0  0  0  0  0  0  0  0  0  0  0  0
  1  2  1  0
  2  3  2  0
  2  4  2  0
  2  5  1  0
  5  6  1  0
  6  7  1  0
  7  8  1  0
  8  9  1  0
  9 10  1  0
 10 11  2  0
 11 12  1  0
 12 13  1  0
 13 14  1  0
 14 15  1  0
 15 16  1  0
 16 17  1  0
 17 18  1  0
 18 19  2  0
 19 20  1  0
 20 21  2  0
 21 22  1  0
 22 23  2  0
 11  5  1  0
 23 18  1  0
 15 10  1  0
  1 24  1  0
  1 25  1  0
  1 26  1  0
  5 27  1  6
  6 28  1  0
  6 29  1  0
  7 30  1  0
  7 31  1  0
  8 32  1  0
  8 33  1  0
  9 34  1  0
  9 35  1  0
 12 36  1  0
 12 37  1  0
 13 38  1  0
 13 39  1  0
 15 40  1  1
 17 41  1  0
 17 42  1  0
 19 43  1  0
 20 44  1  0
 21 45  1  0
 22 46  1  0
 23 47  1  0
M  CHG  1   5   1
M  END
>  <UniqueID>  (14) 
14

>  <SMILES>  (14) 
CS(=O)(=O)[N@H+]1CCCCC2=C1CCO[C@@H]2OCc1ccccc1

>  <Energy>  (14) 
66.98038946884238

>  <Genealogy>  (14) 
CS(=O)(=O)[NH+]1CCCCC2=C1CCOC2OCc1ccccc1 (protonated)
CS(=O)(=O)[N@H+]1CCCCC2=C1CCO[C@@H]2OCc1ccccc1 (chirality)
CS(=O)(=O)[N@H+]1CCCCC2=C1CCO[C@@H]2OCc1ccccc1 (3D coordinates assigned)
CS(=O)(=O)[N@H+]1CCCCC2=C1CCO[C@@H]2OCc1ccccc1 (nonaromatic ring conformer: 66.98038946884238 kcal/mol)

>  <smiles>  (14) 
CS(=O)(=O)N1CCCCC2=C1CCOC2OCc1ccccc1

>  <score_type>  (14) 
oracle

>  <origin>  (14) 
adg

>  <m_score__min__energy>  (14) 
-4.8799999999999999

>  <m_primary>  (14) 
energy

$$$$
14:0
     RDKit          3D

 38 39  0  0  0  0  0  0  0  0999 V2000
   57.9302   32.0127   47.4199 H   0  0  0  0  0  0  0  0  0  0  0  0
   58.4840   32.8730   47.0160 C   0  0  0  0  0  0  0  0  0  0  0  0
   57.7780   33.8820   46.4860 C   0  0  0  0  0  0  0  0  0  0  0  0
   57.4547   34.7098   47.1343 H   0  0  0  0  0  0  0  0  0  0  0  0
   57.4180   33.9090   45.0280 C   0  0  0  0  0  0  0  0  0  0  0  0
   57.1717   34.9397   44.7331 H   0  0  0  0  0  0  0  0  0  0  0  0
   56.5506   33.2539   44.8592 H   0  0  0  0  0  0  0  0  0  0  0  0
   58.5500   33.4280   44.2180 N   0  0  0  0  0  0  0  0  0  0  0  0
   58.9770   34.2630   43.7520 H   0  0  0  0  0  0  0  0  0  0  0  0
   58.1340   32.5040   43.1490 C   0  0  0  0  0  0  0  0  0  0  0  0
   59.0076   32.2580   42.5275 H   0  0  0  0  0  0  0  0  0  0  0  0
   57.3556   32.9959   42.5472 H   0  0  0  0  0  0  0  0  0  0  0  0
   57.5620   31.2300   43.7200 C   0  0  0  0  0  0  0  0  0  0  0  0
   56.2670   30.8130   43.3760 C   0  0  0  0  0  0  0  0  0  0  0  0
   55.6926   31.3755   42.6252 H   0  0  0  0  0  0  0  0  0  0  0  0
   55.7030   29.6870   43.9820 C   0  0  0  0  0  0  0  0  0  0  0  0
   54.6835   29.3730   43.7135 H   0  0  0  0  0  0  0  0  0  0  0  0
   56.4350   28.9530   44.9350 C   0  0  0  0  0  0  0  0  0  0  0  0
   55.8990   27.8420   45.6020 O   0  0  0  0  0  0  0  0  0  0  0  0
   56.6590   26.7080   46.0080 C   0  0  0  0  0  0  0  0  0  0  0  0
   56.6901   26.6616   47.1066 H   0  0  0  0  0  0  0  0  0  0  0  0
   56.1909   25.7932   45.6155 H   0  0  0  0  0  0  0  0  0  0  0  0
   57.6830   26.7933   45.6155 H   0  0  0  0  0  0  0  0  0  0  0  0
   57.7410   29.3480   45.2440 C   0  0  0  0  0  0  0  0  0  0  0  0
   58.3316   28.7630   45.9644 H   0  0  0  0  0  0  0  0  0  0  0  0
   58.3020   30.4800   44.6450 C   0  0  0  0  0  0  0  0  0  0  0  0
   59.3280   30.7834   44.9005 H   0  0  0  0  0  0  0  0  0  0  0  0
   59.9660   32.8440   47.0920 C   0  0  0  0  0  0  0  0  0  0  0  0
   60.7710   33.9380   46.7100 C   0  0  0  0  0  0  0  0  0  0  0  0
   60.2993   34.8771   46.3852 H   0  0  0  0  0  0  0  0  0  0  0  0
   62.1640   33.8350   46.7420 C   0  0  0  0  0  0  0  0  0  0  0  0
   62.7839   34.6942   46.4461 H   0  0  0  0  0  0  0  0  0  0  0  0
   62.7720   32.6460   47.1480 C   0  0  0  0  0  0  0  0  0  0  0  0
   63.8690   32.5702   47.1764 H   0  0  0  0  0  0  0  0  0  0  0  0
   61.9860   31.5530   47.5180 C   0  0  0  0  0  0  0  0  0  0  0  0
   62.4650   30.6150   47.8354 H   0  0  0  0  0  0  0  0  0  0  0  0
   60.5920   31.6480   47.4860 C   0  0  0  0  0  0  0  0  0  0  0  0
   59.9794   30.7801   47.7714 H   0  0  0  0  0  0  0  0  0  0  0  0
  1  2  1  0
  2  3  2  0
  3  4  1  0
  3  5  1  0
  5  6  1  0
  5  7  1  0
  5  8  1  0
  8  9  1  0
  8 10  1  0
 10 11  1  0
 10 12  1  0
 10 13  1  0
 13 14  2  0
 14 15  1  0
 14 16  1  0
 16 17  1  0
 16 18  2  0
 18 19  1  0
 19 20  1  0
 20 21  1  0
 20 22  1  0
 20 23  1  0
 18 24  1  0
 24 25  1  0
 24 26  2  0
 26 27  1  0
  2 28  1  0
 28 29  2  0
 29 30  1  0
 29 31  1  0
 31 32  1  0
 31 33  2  0
 33 34  1  0
 33 35  1  0
 35 36  1  0
 35 37  2  0
 37 38  1  0
 26 13  1  0
 37 28  1  0
M  END
>  <UniqueID>  (15) 
15

>  <SMILES>  (15) 
COc1ccc(CNC/C=C/c2ccccc2)cc1

>  <Energy>  (15) 
34.42238172404962

>  <Genealogy>  (15) 
COc1ccc(CNC/C=C/c2ccccc2)cc1 (cis-trans isomerization)
COc1ccc(CNC/C=C/c2ccccc2)cc1 (3D coordinates assigned)
COc1ccc(CNC/C=C/c2ccccc2)cc1 (optimized conformer: 34.42238172404962 kcal/mol)

>  <smiles>  (15) 
COc1ccc(CNCC=Cc2ccccc2)cc1

>  <score_type>  (15) 
oracle

>  <origin>  (15) 
adg

>  <m_score__min__energy>  (15) 
-6.8300000000000001

>  <m_primary>  (15) 
energy

$$$$
15:0
     RDKit          3D

 71 75  0  0  0  0  0  0  0  0999 V2000
   57.4240   24.4650   46.9560 C   0  0  0  0  0  0  0  0  0  0  0  0
   58.2400   25.5590   47.6480 C   0  0  0  0  0  0  0  0  0  0  0  0
   59.5030   26.0390   46.8850 C   0  0  2  0  0  0  0  0  0  0  0  0
   60.3700   27.0340   47.6970 C   0  0  0  0  0  0  0  0  0  0  0  0
   59.6880   27.5150   48.9270 N   0  0  0  0  0  0  0  0  0  0  0  0
   58.7760   28.6690   48.6810 C   0  0  0  0  0  0  0  0  0  0  0  0
   59.2280   29.9930   49.3260 C   0  0  0  0  0  0  0  0  0  0  0  0
   60.6880   30.1100   49.3010 N   0  0  0  0  0  0  0  0  0  0  0  0
   61.3180   31.3640   48.9800 C   0  0  0  0  0  0  0  0  0  0  0  0
   62.2340   31.4270   47.9190 C   0  0  0  0  0  0  0  0  0  0  0  0
   62.8480   32.6350   47.5840 C   0  0  0  0  0  0  0  0  0  0  0  0
   62.5510   33.7920   48.3020 C   0  0  0  0  0  0  0  0  0  0  0  0
   61.6450   33.7450   49.3630 C   0  0  0  0  0  0  0  0  0  0  0  0
   61.0240   32.5310   49.7180 C   0  0  0  0  0  0  0  0  0  0  0  0
   60.1310   32.4450   50.7980 O   0  0  0  0  0  0  0  0  0  0  0  0
   59.3280   33.5200   51.2730 C   0  0  0  0  0  0  0  0  0  0  0  0
   61.5100   28.9880   49.7630 C   0  0  0  0  0  0  0  0  0  0  0  0
   60.6390   27.7530   50.0340 C   0  0  0  0  0  0  0  0  0  0  0  0
   59.2160   26.5240   45.4450 C   0  0  0  0  0  0  0  0  0  0  0  0
   58.4770   27.7870   45.4430 N   0  0  0  0  0  0  0  0  0  0  0  0
   57.1100   27.9890   45.7540 C   0  0  0  0  0  0  0  0  0  0  0  0
   56.2940   27.0550   45.9610 O   0  0  0  0  0  0  0  0  0  0  0  0
   56.7530   29.3650   45.7920 N   0  0  0  0  0  0  0  0  0  0  0  0
   57.9500   30.1640   45.5080 C   0  0  2  0  0  0  0  0  0  0  0  0
   58.2860   31.0200   46.7490 C   0  0  0  0  0  0  0  0  0  0  0  0
   59.3090   32.1080   46.4240 C   0  0  0  0  0  0  0  0  0  0  0  0
   58.7510   33.0640   45.3700 C   0  0  0  0  0  0  0  0  0  0  0  0
   58.1930   32.3400   44.1680 C   0  0  0  0  0  0  0  0  0  0  0  0
   58.0220   33.0580   42.9730 C   0  0  0  0  0  0  0  0  0  0  0  0
   57.4630   32.4460   41.8510 C   0  0  0  0  0  0  0  0  0  0  0  0
   57.0540   31.1150   41.9110 C   0  0  0  0  0  0  0  0  0  0  0  0
   57.1990   30.3910   43.0960 C   0  0  0  0  0  0  0  0  0  0  0  0
   57.7510   30.9930   44.2440 C   0  0  0  0  0  0  0  0  0  0  0  0
   59.0010   29.1010   45.2800 C   0  0  0  0  0  0  0  0  0  0  0  0
   60.1950   29.3310   44.9500 O   0  0  0  0  0  0  0  0  0  0  0  0
   56.9481   23.8269   47.7152 H   0  0  0  0  0  0  0  0  0  0  0  0
   56.6487   24.9278   46.3277 H   0  0  0  0  0  0  0  0  0  0  0  0
   58.0886   23.8538   46.3277 H   0  0  0  0  0  0  0  0  0  0  0  0
   57.5830   26.4288   47.7955 H   0  0  0  0  0  0  0  0  0  0  0  0
   58.6062   25.1135   48.5847 H   0  0  0  0  0  0  0  0  0  0  0  0
   60.1184   25.1349   46.7668 H   0  0  0  0  0  0  0  0  0  0  0  0
   61.3050   26.5319   47.9861 H   0  0  0  0  0  0  0  0  0  0  0  0
   60.5600   27.9088   47.0578 H   0  0  0  0  0  0  0  0  0  0  0  0
   58.7041   28.8238   47.5943 H   0  0  0  0  0  0  0  0  0  0  0  0
   57.8129   28.4094   49.1447 H   0  0  0  0  0  0  0  0  0  0  0  0
   58.7889   30.8341   48.7694 H   0  0  0  0  0  0  0  0  0  0  0  0
   58.8901   30.0096   50.3727 H   0  0  0  0  0  0  0  0  0  0  0  0
   62.4700   30.5176   47.3469 H   0  0  0  0  0  0  0  0  0  0  0  0
   63.5670   32.6738   46.7524 H   0  0  0  0  0  0  0  0  0  0  0  0
   63.0314   34.7440   48.0321 H   0  0  0  0  0  0  0  0  0  0  0  0
   61.4144   34.6617   49.9256 H   0  0  0  0  0  0  0  0  0  0  0  0
   59.3283   33.5196   52.3730 H   0  0  0  0  0  0  0  0  0  0  0  0
   59.7371   34.4731   50.9065 H   0  0  0  0  0  0  0  0  0  0  0  0
   58.2980   33.3981   50.9065 H   0  0  0  0  0  0  0  0  0  0  0  0
   62.2537   28.7430   48.9904 H   0  0  0  0  0  0  0  0  0  0  0  0
   62.0123   29.2786   50.6975 H   0  0  0  0  0  0  0  0  0  0  0  0
   61.2893   26.8726   50.1437 H   0  0  0  0  0  0  0  0  0  0  0  0
   60.0639   27.9282   50.9552 H   0  0  0  0  0  0  0  0  0  0  0  0
   60.1713   26.6678   44.9190 H   0  0  0  0  0  0  0  0  0  0  0  0
   58.6022   25.7636   44.9401 H   0  0  0  0  0  0  0  0  0  0  0  0
   55.7990   29.7370   45.9970 H   0  0  0  0  0  0  0  0  0  0  0  0
   57.3639   31.4953   47.1147 H   0  0  0  0  0  0  0  0  0  0  0  0
   58.7189   30.3595   47.5147 H   0  0  0  0  0  0  0  0  0  0  0  0
   59.5413   32.6725   47.3391 H   0  0  0  0  0  0  0  0  0  0  0  0
   60.2210   31.6352   46.0308 H   0  0  0  0  0  0  0  0  0  0  0  0
   57.9477   33.6614   45.8259 H   0  0  0  0  0  0  0  0  0  0  0  0
   59.5800   33.6980   45.0224 H   0  0  0  0  0  0  0  0  0  0  0  0
   58.3316   34.1123   42.9214 H   0  0  0  0  0  0  0  0  0  0  0  0
   57.3448   33.0150   40.9171 H   0  0  0  0  0  0  0  0  0  0  0  0
   56.6164   30.6343   41.0236 H   0  0  0  0  0  0  0  0  0  0  0  0
   56.8788   29.3393   43.1337 H   0  0  0  0  0  0  0  0  0  0  0  0
  1  2  1  0
  2  3  1  0
  3  4  1  0
  4  5  1  0
  5  6  1  0
  6  7  1  0
  7  8  1  0
  8  9  1  0
  9 10  2  0
 10 11  1  0
 11 12  2  0
 12 13  1  0
 13 14  2  0
 14 15  1  0
 15 16  1  0
  8 17  1  0
 17 18  1  0
  3 19  1  0
 19 20  1  0
 20 21  1  0
 21 22  2  0
 21 23  1  0
 24 23  1  1
 24 25  1  0
 25 26  1  0
 26 27  1  0
 27 28  1  0
 28 29  2  0
 29 30  1  0
 30 31  2  0
 31 32  1  0
 32 33  2  0
 24 34  1  0
 34 35  2  0
 18  5  1  0
 34 20  1  0
 14  9  1  0
 33 24  1  0
 33 28  1  0
  1 36  1  0
  1 37  1  0
  1 38  1  0
  2 39  1  0
  2 40  1  0
  3 41  1  6
  4 42  1  0
  4 43  1  0
  6 44  1  0
  6 45  1  0
  7 46  1  0
  7 47  1  0
 10 48  1  0
 11 49  1  0
 12 50  1  0
 13 51  1  0
 16 52  1  0
 16 53  1  0
 16 54  1  0
 17 55  1  0
 17 56  1  0
 18 57  1  0
 18 58  1  0
 19 59  1  0
 19 60  1  0
 23 61  1  0
 25 62  1  0
 25 63  1  0
 26 64  1  0
 26 65  1  0
 27 66  1  0
 27 67  1  0
 29 68  1  0
 30 69  1  0
 31 70  1  0
 32 71  1  0
M  END
>  <UniqueID>  (16) 
16

>  <SMILES>  (16) 
CC[C@H](CN1CCN(c2ccccc2OC)CC1)CN1C(=O)N[C@@]2(CCCc3ccccc32)C1=O

>  <Energy>  (16) 
104.62996423514188

>  <Genealogy>  (16) 
CC[C@H](CN1CCN(c2ccccc2OC)CC1)CN1C(=O)N[C@@]2(CCCc3ccccc32)C1=O (chirality)
CC[C@H](CN1CCN(c2ccccc2OC)CC1)CN1C(=O)N[C@@]2(CCCc3ccccc32)C1=O (3D coordinates assigned)
CC[C@H](CN1CCN(c2ccccc2OC)CC1)CN1C(=O)N[C@@]2(CCCc3ccccc32)C1=O (nonaromatic ring conformer: 104.62996423514188 kcal/mol)

>  <smiles>  (16) 
CCC(CN1CCN(c2ccccc2OC)CC1)CN1C(=O)NC2(CCCc3ccccc32)C1=O

>  <score_type>  (16) 
oracle

>  <origin>  (16) 
adg

>  <m_score__min__energy>  (16) 
-9.4800000000000004

>  <m_primary>  (16) 
energy

$$$$
16:0
     RDKit          3D

 56 57  0  0  0  0  0  0  0  0999 V2000
   54.9290   31.1230   51.8980 C   0  0  0  0  0  0  0  0  0  0  0  0
   56.0520   31.8360   52.4020 O   0  0  0  0  0  0  0  0  0  0  0  0
   57.3690   31.6770   51.9400 C   0  0  0  0  0  0  0  0  0  0  0  0
   58.2070   32.7760   51.6800 C   0  0  0  0  0  0  0  0  0  0  0  0
   59.5090   32.5790   51.2180 C   0  0  0  0  0  0  0  0  0  0  0  0
   59.9970   31.2810   51.0090 C   0  0  0  0  0  0  0  0  0  0  0  0
   61.3920   31.0670   50.4860 C   0  0  0  0  0  0  0  0  0  0  0  0
   61.9730   32.3210   49.8010 C   0  0  0  0  0  0  0  0  0  0  0  0
   61.6180   32.4180   48.3560 N   0  0  2  0  0  0  0  0  0  0  0  0
   62.6980   31.9070   47.4860 C   0  0  0  0  0  0  0  0  0  0  0  0
   61.2230   33.7960   47.9690 C   0  0  0  0  0  0  0  0  0  0  0  0
   59.7140   34.0880   48.1290 C   0  0  0  0  0  0  0  0  0  0  0  0
   58.9610   33.6580   46.8930 C   0  0  0  0  0  0  0  0  0  0  0  0
   58.6920   34.6060   45.8950 C   0  0  0  0  0  0  0  0  0  0  0  0
   57.9770   34.2490   44.7570 C   0  0  0  0  0  0  0  0  0  0  0  0
   57.5130   32.9450   44.6030 C   0  0  0  0  0  0  0  0  0  0  0  0
   57.7510   31.9730   45.5940 C   0  0  0  0  0  0  0  0  0  0  0  0
   57.2780   30.6600   45.4410 O   0  0  0  0  0  0  0  0  0  0  0  0
   57.1400   29.9810   44.1970 C   0  0  0  0  0  0  0  0  0  0  0  0
   58.4800   32.3350   46.7610 C   0  0  0  0  0  0  0  0  0  0  0  0
   58.7540   31.4390   47.8130 O   0  0  0  0  0  0  0  0  0  0  0  0
   59.0060   30.0430   47.7000 C   0  0  0  0  0  0  0  0  0  0  0  0
   59.1650   30.1820   51.2690 C   0  0  0  0  0  0  0  0  0  0  0  0
   57.8490   30.3740   51.7330 C   0  0  0  0  0  0  0  0  0  0  0  0
   56.9890   29.2960   51.9990 O   0  0  0  0  0  0  0  0  0  0  0  0
   56.7890   28.7210   53.2850 C   0  0  0  0  0  0  0  0  0  0  0  0
   54.3293   30.7423   52.7379 H   0  0  0  0  0  0  0  0  0  0  0  0
   54.3132   31.7959   51.2832 H   0  0  0  0  0  0  0  0  0  0  0  0
   55.2760   30.2795   51.2832 H   0  0  0  0  0  0  0  0  0  0  0  0
   57.8336   33.7980   51.8419 H   0  0  0  0  0  0  0  0  0  0  0  0
   60.1555   33.4459   51.0168 H   0  0  0  0  0  0  0  0  0  0  0  0
   62.0446   30.7923   51.3278 H   0  0  0  0  0  0  0  0  0  0  0  0
   61.3433   30.2695   49.7300 H   0  0  0  0  0  0  0  0  0  0  0  0
   61.5860   33.2122   50.3168 H   0  0  0  0  0  0  0  0  0  0  0  0
   63.0689   32.2504   49.8646 H   0  0  0  0  0  0  0  0  0  0  0  0
   60.7770   31.8210   48.1700 H   0  0  0  0  0  0  0  0  0  0  0  0
   63.5178   31.5191   48.1085 H   0  0  0  0  0  0  0  0  0  0  0  0
   62.3059   31.0989   46.8510 H   0  0  0  0  0  0  0  0  0  0  0  0
   63.0742   32.7226   46.8510 H   0  0  0  0  0  0  0  0  0  0  0  0
   61.7807   34.5049   48.5986 H   0  0  0  0  0  0  0  0  0  0  0  0
   61.4554   33.9041   46.8993 H   0  0  0  0  0  0  0  0  0  0  0  0
   59.3282   33.5361   48.9988 H   0  0  0  0  0  0  0  0  0  0  0  0
   59.5732   35.1692   48.2747 H   0  0  0  0  0  0  0  0  0  0  0  0
   59.0493   35.6396   46.0133 H   0  0  0  0  0  0  0  0  0  0  0  0
   57.7775   34.9982   43.9767 H   0  0  0  0  0  0  0  0  0  0  0  0
   56.9538   32.6708   43.6963 H   0  0  0  0  0  0  0  0  0  0  0  0
   56.9240   28.9183   44.3813 H   0  0  0  0  0  0  0  0  0  0  0  0
   56.3145   30.4290   43.6243 H   0  0  0  0  0  0  0  0  0  0  0  0
   58.0748   30.0712   43.6243 H   0  0  0  0  0  0  0  0  0  0  0  0
   59.0856   29.6023   48.7047 H   0  0  0  0  0  0  0  0  0  0  0  0
   58.1798   29.5643   47.1540 H   0  0  0  0  0  0  0  0  0  0  0  0
   59.9475   29.8834   47.1540 H   0  0  0  0  0  0  0  0  0  0  0  0
   59.5435   29.1616   51.1092 H   0  0  0  0  0  0  0  0  0  0  0  0
   57.0454   29.4582   54.0601 H   0  0  0  0  0  0  0  0  0  0  0  0
   55.7352   28.4252   53.3945 H   0  0  0  0  0  0  0  0  0  0  0  0
   57.4318   27.8351   53.3945 H   0  0  0  0  0  0  0  0  0  0  0  0
  1  2  1  0
  2  3  1  0
  3  4  2  0
  4  5  1  0
  5  6  2  0
  6  7  1  0
  7  8  1  0
  8  9  1  0
  9 10  1  0
  9 11  1  0
 11 12  1  0
 12 13  1  0
 13 14  2  0
 14 15  1  0
 15 16  2  0
 16 17  1  0
 17 18  1  0
 18 19  1  0
 17 20  2  0
 20 21  1  0
 21 22  1  0
  6 23  1  0
 23 24  2  0
 24 25  1  0
 25 26  1  0
 24  3  1  0
 20 13  1  0
  1 27  1  0
  1 28  1  0
  1 29  1  0
  4 30  1  0
  5 31  1  0
  7 32  1  0
  7 33  1  0
  8 34  1  0
  8 35  1  0
  9 36  1  1
 10 37  1  0
 10 38  1  0
 10 39  1  0
 11 40  1  0
 11 41  1  0
 12 42  1  0
 12 43  1  0
 14 44  1  0
 15 45  1  0
 16 46  1  0
 19 47  1  0
 19 48  1  0
 19 49  1  0
 22 50  1  0
 22 51  1  0
 22 52  1  0
 23 53  1  0
 26 54  1  0
 26 55  1  0
 26 56  1  0
M  CHG  1   9   1
M  END
>  <UniqueID>  (17) 
17

>  <SMILES>  (17) 
COc1ccc(CC[N@H+](C)CCc2cccc(OC)c2OC)cc1OC

>  <Energy>  (17) 
58.71623086296343

>  <Genealogy>  (17) 
COc1ccc(CC[NH+](C)CCc2cccc(OC)c2OC)cc1OC (protonated)
COc1ccc(CC[N@H+](C)CCc2cccc(OC)c2OC)cc1OC (chirality)
COc1ccc(CC[N@H+](C)CCc2cccc(OC)c2OC)cc1OC (3D coordinates assigned)
COc1ccc(CC[N@H+](C)CCc2cccc(OC)c2OC)cc1OC (optimized conformer: 58.71623086296343 kcal/mol)

>  <smiles>  (17) 
COc1ccc(CCN(C)CCc2cccc(OC)c2OC)cc1OC

>  <score_type>  (17) 
oracle

>  <origin>  (17) 
adg

>  <m_score__min__energy>  (17) 
-5.9800000000000004

>  <m_primary>  (17) 
energy

$$$$
17:0
     RDKit          3D

 27 28  0  0  0  0  0  0  0  0999 V2000
   57.4626   31.6884   41.1072 H   0  0  0  0  0  0  0  0  0  0  0  0
   57.3930   31.6080   42.2020 C   0  0  0  0  0  0  0  0  0  0  0  0
   57.9310   32.5600   42.9690 C   0  0  0  0  0  0  0  0  0  0  0  0
   58.4559   33.4115   42.5113 H   0  0  0  0  0  0  0  0  0  0  0  0
   57.8140   32.4580   44.4380 C   0  0  0  0  0  0  0  0  0  0  0  0
   57.9550   33.5720   45.1810 C   0  0  0  0  0  0  0  0  0  0  0  0
   57.1932   34.3569   45.0647 H   0  0  0  0  0  0  0  0  0  0  0  0
   59.0480   33.8250   46.1380 C   0  0  0  0  0  0  0  0  0  0  0  0
   60.2780   33.4060   45.9480 O   0  0  0  0  0  0  0  0  0  0  0  0
   61.0180   33.8230   46.9480 C   0  0  0  0  0  0  0  0  0  0  0  0
   62.8800   33.4610   47.1280 Br  0  0  0  0  0  0  0  0  0  0  0  0
   60.2550   34.5570   47.8310 C   0  0  0  0  0  0  0  0  0  0  0  0
   60.5933   35.0357   48.7618 H   0  0  0  0  0  0  0  0  0  0  0  0
   58.9800   34.5670   47.3060 C   0  0  0  0  0  0  0  0  0  0  0  0
   58.0925   35.0618   47.7274 H   0  0  0  0  0  0  0  0  0  0  0  0
   57.4440   31.1710   44.9880 N   0  0  0  0  0  0  0  0  0  0  0  0
   58.1650   30.5940   46.1330 C   0  0  0  0  0  0  0  0  0  0  0  0
   57.5072   29.8818   46.6527 H   0  0  0  0  0  0  0  0  0  0  0  0
   58.4587   31.4070   46.8132 H   0  0  0  0  0  0  0  0  0  0  0  0
   59.4220   29.8660   45.6650 C   0  0  0  0  0  0  0  0  0  0  0  0
   59.9992   29.5317   46.5397 H   0  0  0  0  0  0  0  0  0  0  0  0
   59.1363   28.9936   45.0590 H   0  0  0  0  0  0  0  0  0  0  0  0
   60.0365   30.5480   45.0590 H   0  0  0  0  0  0  0  0  0  0  0  0
   56.7290   30.2590   44.1300 C   0  0  0  0  0  0  0  0  0  0  0  0
   56.1984   29.4005   44.5675 H   0  0  0  0  0  0  0  0  0  0  0  0
   56.7060   30.4490   42.8060 C   0  0  0  0  0  0  0  0  0  0  0  0
   56.1708   29.7358   42.1619 H   0  0  0  0  0  0  0  0  0  0  0  0
  1  2  1  0
  2  3  2  0
  3  4  1  0
  3  5  1  0
  5  6  2  0
  6  7  1  0
  6  8  1  0
  8  9  1  0
  9 10  1  0
 10 11  1  0
 10 12  2  0
 12 13  1  0
 12 14  1  0
 14 15  1  0
  5 16  1  0
 16 17  1  0
 17 18  1  0
 17 19  1  0
 17 20  1  0
 20 21  1  0
 20 22  1  0
 20 23  1  0
 16 24  1  0
 24 25  1  0
 24 26  2  0
 26 27  1  0
 26  2  1  0
 14  8  2  0
M  END
>  <UniqueID>  (18) 
18

>  <SMILES>  (18) 
CCN1C=CC=C/C1=C/c1ccc(Br)o1

>  <Energy>  (18) 
60.83190766766114

>  <Genealogy>  (18) 
CCN1C=CC=C/C1=C/c1ccc(Br)o1 (cis-trans isomerization)
CCN1C=CC=C/C1=C/c1ccc(Br)o1 (3D coordinates assigned)
CCN1C=CC=C/C1=C/c1ccc(Br)o1 (nonaromatic ring conformer: 60.83190766766114 kcal/mol)

>  <smiles>  (18) 
CCN1C=CC=CC1=Cc1ccc(Br)o1

>  <score_type>  (18) 
oracle

>  <origin>  (18) 
adg

>  <m_score__min__energy>  (18) 
-6.4400000000000004

>  <m_primary>  (18) 
energy

$$$$
18:0
     RDKit          3D

 29 31  0  0  0  0  0  0  0  0999 V2000
   56.8380   30.4430   43.9240 C   0  0  0  0  0  0  0  0  0  0  0  0
   57.0080   31.0900   45.1810 O   0  0  0  0  0  0  0  0  0  0  0  0
   57.7720   32.2500   45.3810 C   0  0  0  0  0  0  0  0  0  0  0  0
   57.3970   33.4150   44.7060 C   0  0  0  0  0  0  0  0  0  0  0  0
   58.1260   34.5930   44.8700 C   0  0  0  0  0  0  0  0  0  0  0  0
   59.2380   34.6210   45.7130 C   0  0  0  0  0  0  0  0  0  0  0  0
   59.6320   33.4640   46.4100 C   0  0  0  0  0  0  0  0  0  0  0  0
   60.7800   33.4750   47.2820 N   0  0  0  0  0  0  0  0  0  0  0  0
   61.9500   32.9230   46.9580 N   0  0  0  0  0  0  0  0  0  0  0  0
   62.7450   33.1320   48.0220 C   0  0  0  0  0  0  0  0  0  0  0  0
   64.0690   32.7510   48.2130 C   0  0  0  0  0  0  0  0  0  0  0  0
   64.6680   33.0900   49.4440 C   0  0  0  0  0  0  0  0  0  0  0  0
   63.9320   33.7860   50.4350 C   0  0  0  0  0  0  0  0  0  0  0  0
   62.5910   34.1520   50.2030 C   0  0  0  0  0  0  0  0  0  0  0  0
   62.0400   33.8020   48.9740 C   0  0  0  0  0  0  0  0  0  0  0  0
   60.8050   34.0140   48.5010 N   0  0  0  0  0  0  0  0  0  0  0  0
   58.8950   32.2780   46.2320 C   0  0  0  0  0  0  0  0  0  0  0  0
   56.5616   29.3909   44.0875 H   0  0  0  0  0  0  0  0  0  0  0  0
   56.0419   30.9474   43.3567 H   0  0  0  0  0  0  0  0  0  0  0  0
   57.7792   30.4909   43.3567 H   0  0  0  0  0  0  0  0  0  0  0  0
   56.5210   33.4029   44.0408 H   0  0  0  0  0  0  0  0  0  0  0  0
   57.8231   35.5038   44.3326 H   0  0  0  0  0  0  0  0  0  0  0  0
   59.8097   35.5530   45.8332 H   0  0  0  0  0  0  0  0  0  0  0  0
   64.6261   32.2075   47.4357 H   0  0  0  0  0  0  0  0  0  0  0  0
   65.7147   32.8120   49.6364 H   0  0  0  0  0  0  0  0  0  0  0  0
   64.4106   34.0423   51.3917 H   0  0  0  0  0  0  0  0  0  0  0  0
   62.0046   34.6915   50.9613 H   0  0  0  0  0  0  0  0  0  0  0  0
   60.0130   34.4750   49.0000 H   0  0  0  0  0  0  0  0  0  0  0  0
   59.1988   31.3636   46.7626 H   0  0  0  0  0  0  0  0  0  0  0  0
  1  2  1  0
  2  3  1  0
  3  4  2  0
  4  5  1  0
  5  6  2  0
  6  7  1  0
  7  8  1  0
  8  9  1  0
  9 10  2  0
 10 11  1  0
 11 12  2  0
 12 13  1  0
 13 14  2  0
 14 15  1  0
 15 16  2  0
  7 17  2  0
 17  3  1  0
 16  8  1  0
 15 10  1  0
  1 18  1  0
  1 19  1  0
  1 20  1  0
  4 21  1  0
  5 22  1  0
  6 23  1  0
 11 24  1  0
 12 25  1  0
 13 26  1  0
 14 27  1  0
 16 28  1  0
 17 29  1  0
M  CHG  1  16   1
M  END
>  <UniqueID>  (19) 
19

>  <SMILES>  (19) 
COc1cccc(-n2nc3ccccc3[nH+]2)c1

>  <Energy>  (19) 
77.4304904122979

>  <Genealogy>  (19) 
COc1cccc(-n2nc3ccccc3[nH+]2)c1 (protonated)
COc1cccc(-n2nc3ccccc3[nH+]2)c1 (3D coordinates assigned)
COc1cccc(-n2nc3ccccc3[nH+]2)c1 (optimized conformer: 77.4304904122979 kcal/mol)

>  <smiles>  (19) 
COc1cccc(-n2nc3ccccc3n2)c1

>  <score_type>  (19) 
oracle

>  <origin>  (19) 
adg

>  <m_score__min__energy>  (19) 
-5.3899999999999997

>  <m_primary>  (19) 
energy

$$$$
19:0
     RDKit          3D

 53 55  0  0  0  0  0  0  0  0999 V2000
   62.1710   30.4530   50.3440 C   0  0  0  0  0  0  0  0  0  0  0  0
   63.0880   30.5490   51.5710 C   0  0  0  0  0  0  0  0  0  0  0  0
   63.9100   31.7880   51.5750 N   0  0  0  0  0  0  0  0  0  0  0  0
   64.1360   32.2080   52.9830 C   0  0  0  0  0  0  0  0  0  0  0  0
   64.0650   33.7280   53.1710 C   0  0  0  0  0  0  0  0  0  0  0  0
   65.2040   31.5830   50.8510 C   0  0  0  0  0  0  0  0  0  0  0  0
   65.4820   32.6950   49.8230 C   0  0  0  0  0  0  0  0  0  0  0  0
   64.4350   33.6680   49.8180 O   0  0  0  0  0  0  0  0  0  0  0  0
   63.3680   33.7220   48.9060 C   0  0  0  0  0  0  0  0  0  0  0  0
   63.5650   33.8030   47.5150 C   0  0  0  0  0  0  0  0  0  0  0  0
   62.4730   33.8420   46.6470 C   0  0  0  0  0  0  0  0  0  0  0  0
   61.1660   33.8150   47.1500 C   0  0  0  0  0  0  0  0  0  0  0  0
   60.0380   33.8350   46.2580 N   0  0  0  0  0  0  0  0  0  0  0  0
   59.5330   34.9200   45.6190 C   0  0  0  0  0  0  0  0  0  0  0  0
   58.4500   34.6340   44.8500 N   0  0  0  0  0  0  0  0  0  0  0  0
   58.2930   33.3090   45.0260 C   0  0  0  0  0  0  0  0  0  0  0  0
   57.3370   32.4860   44.4350 C   0  0  0  0  0  0  0  0  0  0  0  0
   57.3770   31.1010   44.7240 C   0  0  0  0  0  0  0  0  0  0  0  0
   56.4100   30.2070   44.1420 N   0  0  0  0  0  0  0  0  0  0  0  0
   55.5770   29.6160   44.8590 O   0  0  0  0  0  0  0  0  0  0  0  0
   56.3900   29.9870   42.7840 O   0  0  0  0  0  0  0  0  0  0  0  0
   58.3880   30.5970   45.5860 C   0  0  0  0  0  0  0  0  0  0  0  0
   59.3400   31.4590   46.1620 C   0  0  0  0  0  0  0  0  0  0  0  0
   59.2470   32.8200   45.8690 C   0  0  0  0  0  0  0  0  0  0  0  0
   60.9650   33.7230   48.5350 C   0  0  0  0  0  0  0  0  0  0  0  0
   62.0620   33.6830   49.4170 C   0  0  0  0  0  0  0  0  0  0  0  0
   61.8950   33.5950   50.8090 O   0  0  0  0  0  0  0  0  0  0  0  0
   60.6390   33.4450   51.4640 C   0  0  0  0  0  0  0  0  0  0  0  0
   61.1273   30.3437   50.6739 H   0  0  0  0  0  0  0  0  0  0  0  0
   62.2707   31.3665   49.7394 H   0  0  0  0  0  0  0  0  0  0  0  0
   62.4577   29.5800   49.7394 H   0  0  0  0  0  0  0  0  0  0  0  0
   62.4656   30.5363   52.4779 H   0  0  0  0  0  0  0  0  0  0  0  0
   63.7771   29.6921   51.5398 H   0  0  0  0  0  0  0  0  0  0  0  0
   63.3430   32.5400   51.1160 H   0  0  0  0  0  0  0  0  0  0  0  0
   63.3682   31.7398   53.6165 H   0  0  0  0  0  0  0  0  0  0  0  0
   65.1500   31.8876   53.2643 H   0  0  0  0  0  0  0  0  0  0  0  0
   64.0540   33.9645   54.2452 H   0  0  0  0  0  0  0  0  0  0  0  0
   64.9422   34.1969   52.7013 H   0  0  0  0  0  0  0  0  0  0  0  0
   63.1479   34.1131   52.7013 H   0  0  0  0  0  0  0  0  0  0  0  0
   66.0221   31.5686   51.5862 H   0  0  0  0  0  0  0  0  0  0  0  0
   65.1367   30.6302   50.3055 H   0  0  0  0  0  0  0  0  0  0  0  0
   66.4307   33.1901   50.0778 H   0  0  0  0  0  0  0  0  0  0  0  0
   65.5385   32.2391   48.8235 H   0  0  0  0  0  0  0  0  0  0  0  0
   64.5868   33.8358   47.1091 H   0  0  0  0  0  0  0  0  0  0  0  0
   62.6397   33.8943   45.5610 H   0  0  0  0  0  0  0  0  0  0  0  0
   59.9578   35.9302   45.7140 H   0  0  0  0  0  0  0  0  0  0  0  0
   56.5721   32.9011   43.7622 H   0  0  0  0  0  0  0  0  0  0  0  0
   58.4271   29.5199   45.8058 H   0  0  0  0  0  0  0  0  0  0  0  0
   60.1311   31.0725   46.8213 H   0  0  0  0  0  0  0  0  0  0  0  0
   59.9414   33.6817   48.9358 H   0  0  0  0  0  0  0  0  0  0  0  0
   60.7892   33.4629   52.5535 H   0  0  0  0  0  0  0  0  0  0  0  0
   59.9724   34.2699   51.1721 H   0  0  0  0  0  0  0  0  0  0  0  0
   60.1854   32.4863   51.1721 H   0  0  0  0  0  0  0  0  0  0  0  0
  1  2  1  0
  2  3  1  0
  3  4  1  0
  4  5  1  0
  3  6  1  0
  6  7  1  0
  7  8  1  0
  8  9  1  0
  9 10  2  0
 10 11  1  0
 11 12  2  0
 12 13  1  0
 13 14  1  0
 14 15  2  0
 15 16  1  0
 16 17  2  0
 17 18  1  0
 18 19  1  0
 19 20  2  0
 19 21  1  0
 18 22  2  0
 22 23  1  0
 23 24  2  0
 12 25  1  0
 25 26  2  0
 26 27  1  0
 27 28  1  0
 26  9  1  0
 24 13  1  0
 24 16  1  0
  1 29  1  0
  1 30  1  0
  1 31  1  0
  2 32  1  0
  2 33  1  0
  3 34  1  0
  4 35  1  0
  4 36  1  0
  5 37  1  0
  5 38  1  0
  5 39  1  0
  6 40  1  0
  6 41  1  0
  7 42  1  0
  7 43  1  0
 10 44  1  0
 11 45  1  0
 14 46  1  0
 17 47  1  0
 22 48  1  0
 23 49  1  0
 25 50  1  0
 28 51  1  0
 28 52  1  0
 28 53  1  0
M  CHG  3   3   1  19   1  21  -1
M  END
>  <UniqueID>  (20) 
20

>  <SMILES>  (20) 
CC[NH+](CC)CCOc1ccc(-n2cnc3cc([N+](=O)[O-])ccc32)cc1OC

>  <Energy>  (20) 
99.12718201813972

>  <Genealogy>  (20) 
CC[NH+](CC)CCOc1ccc(-n2cnc3cc([N+](=O)[O-])ccc32)cc1OC (protonated)
CC[NH+](CC)CCOc1ccc(-n2cnc3cc([N+](=O)[O-])ccc32)cc1OC (3D coordinates assigned)
CC[NH+](CC)CCOc1ccc(-n2cnc3cc([N+](=O)[O-])ccc32)cc1OC (optimized conformer: 99.12718201813972 kcal/mol)

>  <smiles>  (20) 
CCN(CC)CCOc1ccc(-n2cnc3cc([N+](=O)[O-])ccc32)cc1OC

>  <score_type>  (20) 
oracle

>  <origin>  (20) 
adg

>  <m_score__min__energy>  (20) 
-5.9100000000000001

>  <m_primary>  (20) 
energy

$$$$
20:0
     RDKit          3D

 29 30  0  0  0  0  0  0  0  0999 V2000
   58.2139   33.2815   47.4741 H   0  0  0  0  0  0  0  0  0  0  0  0
   58.0950   33.0470   46.4060 C   0  0  0  0  0  0  0  0  0  0  0  0
   57.2910   32.0240   46.0200 N   0  0  0  0  0  0  0  0  0  0  0  0
   57.0960   31.6790   44.7160 C   0  0  0  0  0  0  0  0  0  0  0  0
   56.2760   30.6870   44.4910 N   0  0  0  0  0  0  0  0  0  0  0  0
   56.4820   29.3380   43.9640 C   0  0  0  0  0  0  0  0  0  0  0  0
   56.7442   29.4099   42.8981 H   0  0  0  0  0  0  0  0  0  0  0  0
   55.5499   28.7720   44.1086 H   0  0  0  0  0  0  0  0  0  0  0  0
   57.5900   28.6050   44.6910 C   0  0  0  0  0  0  0  0  0  0  0  0
   58.9110   29.0730   44.5730 C   0  0  0  0  0  0  0  0  0  0  0  0
   59.1252   29.9460   43.9390 H   0  0  0  0  0  0  0  0  0  0  0  0
   59.9530   28.4400   45.2530 C   0  0  0  0  0  0  0  0  0  0  0  0
   61.2250   28.8910   45.1130 F   0  0  0  0  0  0  0  0  0  0  0  0
   59.6870   27.3490   46.0790 C   0  0  0  0  0  0  0  0  0  0  0  0
   60.5112   26.8437   46.6038 H   0  0  0  0  0  0  0  0  0  0  0  0
   58.3770   26.8970   46.2410 C   0  0  0  0  0  0  0  0  0  0  0  0
   58.1735   26.0412   46.9015 H   0  0  0  0  0  0  0  0  0  0  0  0
   57.3120   27.5270   45.5660 C   0  0  0  0  0  0  0  0  0  0  0  0
   55.9820   27.1150   45.7470 O   0  0  0  0  0  0  0  0  0  0  0  0
   55.5750   25.7740   45.9950 C   0  0  0  0  0  0  0  0  0  0  0  0
   55.5226   25.6014   47.0801 H   0  0  0  0  0  0  0  0  0  0  0  0
   54.5845   25.6029   45.5483 H   0  0  0  0  0  0  0  0  0  0  0  0
   56.3033   25.0812   45.5483 H   0  0  0  0  0  0  0  0  0  0  0  0
   57.7860   32.4180   43.7100 C   0  0  0  0  0  0  0  0  0  0  0  0
   57.7490   32.0870   41.9840 Cl  0  0  0  0  0  0  0  0  0  0  0  0
   58.6130   33.4780   44.1020 C   0  0  0  0  0  0  0  0  0  0  0  0
   59.1457   34.0640   43.3385 H   0  0  0  0  0  0  0  0  0  0  0  0
   58.7680   33.7980   45.4490 C   0  0  0  0  0  0  0  0  0  0  0  0
   59.8100   35.1240   45.9330 Cl  0  0  0  0  0  0  0  0  0  0  0  0
  1  2  1  0
  2  3  1  0
  3  4  1  0
  4  5  2  0
  5  6  1  0
  6  7  1  0
  6  8  1  0
  6  9  1  0
  9 10  2  0
 10 11  1  0
 10 12  1  0
 12 13  1  0
 12 14  2  0
 14 15  1  0
 14 16  1  0
 16 17  1  0
 16 18  2  0
 18 19  1  0
 19 20  1  0
 20 21  1  0
 20 22  1  0
 20 23  1  0
  4 24  1  0
 24 25  1  0
 24 26  2  0
 26 27  1  0
 26 28  1  0
 28 29  1  0
 28  2  2  0
 18  9  1  0
M  CHG  1   3  -1
M  END
>  <UniqueID>  (21) 
21

>  <SMILES>  (21) 
COc1ccc(F)cc1C/N=c1/[n-]cc(Cl)cc1Cl

>  <Energy>  (21) 
41.03410139521071

>  <Genealogy>  (21) 
COc1ccc(F)cc1CN=c1[n-]cc(Cl)cc1Cl (protonated)
COc1ccc(F)cc1C/N=c1/[n-]cc(Cl)cc1Cl (cis-trans isomerization)
COc1ccc(F)cc1C/N=c1/[n-]cc(Cl)cc1Cl (3D coordinates assigned)
COc1ccc(F)cc1C/N=c1/[n-]cc(Cl)cc1Cl (optimized conformer: 41.03410139521071 kcal/mol)

>  <smiles>  (21) 
COc1ccc(F)cc1CN=c1[nH]cc(Cl)cc1Cl

>  <score_type>  (21) 
oracle

>  <origin>  (21) 
adg

>  <m_score__min__energy>  (21) 
-8.6199999999999992

>  <m_primary>  (21) 
energy

$$$$
21:0
     RDKit          3D

120120  0  0  0  0  0  0  0  0999 V2000
   62.3483   25.9952   51.4849 H   0  0  0  0  0  0  0  0  0  0  0  0
   63.0810   26.6120   52.0260 C   0  0  0  0  0  0  0  0  0  0  0  0
   63.8840   27.2880   52.6190 C   0  0  0  0  0  0  0  0  0  0  0  0
   64.8530   28.1050   53.3510 C   0  0  2  0  0  0  0  0  0  0  0  0
   64.3532   28.6786   54.1455 H   0  0  0  0  0  0  0  0  0  0  0  0
   65.4940   29.0440   52.4190 C   0  0  0  0  0  0  0  0  0  0  0  0
   66.0370   29.8410   51.6930 C   0  0  0  0  0  0  0  0  0  0  0  0
   66.7610   30.7710   50.8120 C   0  0  0  0  0  0  0  0  0  0  0  0
   67.8388   30.5584   50.8683 H   0  0  0  0  0  0  0  0  0  0  0  0
   66.4020   30.6373   49.7809 H   0  0  0  0  0  0  0  0  0  0  0  0
   66.5090   32.2240   51.2420 C   0  0  0  0  0  0  0  0  0  0  0  0
   65.7689   32.2301   52.0558 H   0  0  0  0  0  0  0  0  0  0  0  0
   67.4673   32.6515   51.5720 H   0  0  0  0  0  0  0  0  0  0  0  0
   65.9780   33.0870   50.0800 C   0  0  0  0  0  0  0  0  0  0  0  0
   66.0564   34.1486   50.3571 H   0  0  0  0  0  0  0  0  0  0  0  0
   66.5805   32.8731   49.1849 H   0  0  0  0  0  0  0  0  0  0  0  0
   64.5120   32.7590   49.7670 C   0  0  0  0  0  0  0  0  0  0  0  0
   64.4509   31.7385   49.3609 H   0  0  0  0  0  0  0  0  0  0  0  0
   63.9294   32.8406   50.6965 H   0  0  0  0  0  0  0  0  0  0  0  0
   63.9310   33.7460   48.7370 C   0  0  0  0  0  0  0  0  0  0  0  0
   62.9697   34.1220   49.1171 H   0  0  0  0  0  0  0  0  0  0  0  0
   64.6679   34.5521   48.6057 H   0  0  0  0  0  0  0  0  0  0  0  0
   63.6960   33.1130   47.3550 C   0  0  0  0  0  0  0  0  0  0  0  0
   62.7790   33.5386   46.9214 H   0  0  0  0  0  0  0  0  0  0  0  0
   64.5733   33.3324   46.7288 H   0  0  0  0  0  0  0  0  0  0  0  0
   63.5430   31.5850   47.4360 C   0  0  0  0  0  0  0  0  0  0  0  0
   64.1611   31.1201   46.6538 H   0  0  0  0  0  0  0  0  0  0  0  0
   63.8679   31.2538   48.4334 H   0  0  0  0  0  0  0  0  0  0  0  0
   62.0860   31.1660   47.2360 C   0  0  0  0  0  0  0  0  0  0  0  0
   61.9439   30.8304   46.1981 H   0  0  0  0  0  0  0  0  0  0  0  0
   61.8497   30.3474   47.9317 H   0  0  0  0  0  0  0  0  0  0  0  0
   61.1920   32.2950   47.5060 C   0  0  0  0  0  0  0  0  0  0  0  0
   60.4440   33.2130   47.7350 C   0  0  0  0  0  0  0  0  0  0  0  0
   59.5570   34.3120   48.0290 C   0  0  0  0  0  0  0  0  0  0  0  0
   59.4209   34.6354   49.0716 H   0  0  0  0  0  0  0  0  0  0  0  0
   58.8990   34.9420   47.0530 C   0  0  0  0  0  0  0  0  0  0  0  0
   59.0667   36.0174   46.8935 H   0  0  0  0  0  0  0  0  0  0  0  0
   57.9340   34.2060   46.1700 C   0  0  0  0  0  0  0  0  0  0  0  0
   57.5178   33.3531   46.7262 H   0  0  0  0  0  0  0  0  0  0  0  0
   57.1360   34.9016   45.8712 H   0  0  0  0  0  0  0  0  0  0  0  0
   58.6250   33.6870   44.9020 C   0  0  0  0  0  0  0  0  0  0  0  0
   58.1793   34.1779   44.0243 H   0  0  0  0  0  0  0  0  0  0  0  0
   59.6985   33.9166   44.9722 H   0  0  0  0  0  0  0  0  0  0  0  0
   58.4620   32.1680   44.7620 C   0  0  0  0  0  0  0  0  0  0  0  0
   59.0940   31.8200   43.9316 H   0  0  0  0  0  0  0  0  0  0  0  0
   58.7611   31.7095   45.7161 H   0  0  0  0  0  0  0  0  0  0  0  0
   57.0090   31.7580   44.4810 C   0  0  0  0  0  0  0  0  0  0  0  0
   56.5300   31.4741   45.4297 H   0  0  0  0  0  0  0  0  0  0  0  0
   56.4969   32.6146   44.0183 H   0  0  0  0  0  0  0  0  0  0  0  0
   56.9270   30.5960   43.5280 C   0  0  0  0  0  0  0  0  0  0  0  0
   57.0335   30.7790   42.4486 H   0  0  0  0  0  0  0  0  0  0  0  0
   56.7270   29.3410   43.9630 C   0  0  0  0  0  0  0  0  0  0  0  0
   55.7119   29.0185   44.2377 H   0  0  0  0  0  0  0  0  0  0  0  0
   57.8670   28.3720   44.0800 C   0  0  0  0  0  0  0  0  0  0  0  0
   57.4667   27.3945   44.3871 H   0  0  0  0  0  0  0  0  0  0  0  0
   58.3601   28.3221   43.0980 H   0  0  0  0  0  0  0  0  0  0  0  0
   58.9260   28.8140   45.1070 C   0  0  0  0  0  0  0  0  0  0  0  0
   59.6285   27.9821   45.2632 H   0  0  0  0  0  0  0  0  0  0  0  0
   59.4220   29.7065   44.6977 H   0  0  0  0  0  0  0  0  0  0  0  0
   58.3280   29.2120   46.4730 C   0  0  0  0  0  0  0  0  0  0  0  0
   58.5068   30.2854   46.6338 H   0  0  0  0  0  0  0  0  0  0  0  0
   57.2548   28.9725   46.4429 H   0  0  0  0  0  0  0  0  0  0  0  0
   58.9380   28.4330   47.6500 C   0  0  0  0  0  0  0  0  0  0  0  0
   58.2054   27.6924   48.0033 H   0  0  0  0  0  0  0  0  0  0  0  0
   59.8574   27.9452   47.2941 H   0  0  0  0  0  0  0  0  0  0  0  0
   59.3160   29.3630   48.8280 C   0  0  0  0  0  0  0  0  0  0  0  0
   59.2749   30.4053   48.4789 H   0  0  0  0  0  0  0  0  0  0  0  0
   58.5988   29.1735   49.6402 H   0  0  0  0  0  0  0  0  0  0  0  0
   60.7300   29.0860   49.3860 C   0  0  0  0  0  0  0  0  0  0  0  0
   61.1873   28.2712   48.8055 H   0  0  0  0  0  0  0  0  0  0  0  0
   61.3158   30.0132   49.3012 H   0  0  0  0  0  0  0  0  0  0  0  0
   60.6960   28.6790   50.8740 C   0  0  0  0  0  0  0  0  0  0  0  0
   59.6520   28.4862   51.1620 H   0  0  0  0  0  0  0  0  0  0  0  0
   61.3224   27.7818   50.9866 H   0  0  0  0  0  0  0  0  0  0  0  0
   61.2710   29.7670   51.8040 C   0  0  0  0  0  0  0  0  0  0  0  0
   60.4917   30.5258   51.9681 H   0  0  0  0  0  0  0  0  0  0  0  0
   61.5770   29.2578   52.7298 H   0  0  0  0  0  0  0  0  0  0  0  0
   62.5260   30.4760   51.2580 C   0  0  0  0  0  0  0  0  0  0  0  0
   63.2675   29.7119   50.9818 H   0  0  0  0  0  0  0  0  0  0  0  0
   62.2123   31.0775   50.3921 H   0  0  0  0  0  0  0  0  0  0  0  0
   63.1650   31.4320   52.2710 C   0  0  0  0  0  0  0  0  0  0  0  0
   63.4475   30.8662   53.1710 H   0  0  0  0  0  0  0  0  0  0  0  0
   64.0524   31.8899   51.8096 H   0  0  0  0  0  0  0  0  0  0  0  0
   62.1870   32.5490   52.6660 C   0  0  0  0  0  0  0  0  0  0  0  0
   61.3517   32.1052   53.2275 H   0  0  0  0  0  0  0  0  0  0  0  0
   62.7395   33.2788   53.2760 H   0  0  0  0  0  0  0  0  0  0  0  0
   61.6240   33.2880   51.4490 C   0  0  0  0  0  0  0  0  0  0  0  0
   61.6138   34.3672   51.6617 H   0  0  0  0  0  0  0  0  0  0  0  0
   62.2655   33.0600   50.5850 H   0  0  0  0  0  0  0  0  0  0  0  0
   60.2600   32.8550   51.1290 C   0  0  0  0  0  0  0  0  0  0  0  0
   59.1490   32.4770   50.8560 C   0  0  0  0  0  0  0  0  0  0  0  0
   57.8050   31.9910   50.5200 C   0  0  0  0  0  0  0  0  0  0  0  0
   57.0989   32.8328   50.5715 H   0  0  0  0  0  0  0  0  0  0  0  0
   57.8392   31.5648   49.5065 H   0  0  0  0  0  0  0  0  0  0  0  0
   57.3390   30.8930   51.4830 C   0  0  0  0  0  0  0  0  0  0  0  0
   57.1115   29.9898   50.8977 H   0  0  0  0  0  0  0  0  0  0  0  0
   58.1528   30.7279   52.2044 H   0  0  0  0  0  0  0  0  0  0  0  0
   56.0870   31.2780   52.2920 C   0  0  0  0  0  0  0  0  0  0  0  0
   56.2936   31.1058   53.3586 H   0  0  0  0  0  0  0  0  0  0  0  0
   55.8723   32.3353   52.0775 H   0  0  0  0  0  0  0  0  0  0  0  0
   54.8460   30.4750   51.9020 C   0  0  0  0  0  0  0  0  0  0  0  0
   54.0094   30.7516   52.5604 H   0  0  0  0  0  0  0  0  0  0  0  0
   54.5818   30.6961   50.8573 H   0  0  0  0  0  0  0  0  0  0  0  0
   55.1110   29.1020   52.0350 O   0  0  0  0  0  0  0  0  0  0  0  0
   54.3850   28.6210   51.5530 H   0  0  0  0  0  0  0  0  0  0  0  0
   65.8190   27.2490   53.9250 O   0  0  0  0  0  0  0  0  0  0  0  0
   66.0850   26.1330   53.0930 C   0  0  0  0  0  0  0  0  0  0  0  0
   66.4891   25.3127   53.7043 H   0  0  0  0  0  0  0  0  0  0  0  0
   65.1494   25.8163   52.6089 H   0  0  0  0  0  0  0  0  0  0  0  0
   67.0870   26.5010   52.0300 C   0  0  0  0  0  0  0  0  0  0  0  0
   66.7730   26.3610   50.6670 C   0  0  0  0  0  0  0  0  0  0  0  0
   65.7927   25.9610   50.3685 H   0  0  0  0  0  0  0  0  0  0  0  0
   67.7040   26.7290   49.6880 C   0  0  0  0  0  0  0  0  0  0  0  0
   67.4523   26.6248   48.6223 H   0  0  0  0  0  0  0  0  0  0  0  0
   68.9540   27.2290   50.0660 C   0  0  0  0  0  0  0  0  0  0  0  0
   69.6877   27.5106   49.2963 H   0  0  0  0  0  0  0  0  0  0  0  0
   69.2740   27.3720   51.4200 C   0  0  0  0  0  0  0  0  0  0  0  0
   70.2578   27.7662   51.7146 H   0  0  0  0  0  0  0  0  0  0  0  0
   68.3410   27.0130   52.4000 C   0  0  0  0  0  0  0  0  0  0  0  0
   68.5914   27.1325   53.4644 H   0  0  0  0  0  0  0  0  0  0  0  0
  1  2  1  0
  2  3  3  0
  3  4  1  0
  4  5  1  1
  4  6  1  0
  6  7  3  0
  7  8  1  0
  8  9  1  0
  8 10  1  0
  8 11  1  0
 11 12  1  0
 11 13  1  0
 11 14  1  0
 14 15  1  0
 14 16  1  0
 14 17  1  0
 17 18  1  0
 17 19  1  0
 17 20  1  0
 20 21  1  0
 20 22  1  0
 20 23  1  0
 23 24  1  0
 23 25  1  0
 23 26  1  0
 26 27  1  0
 26 28  1  0
 26 29  1  0
 29 30  1  0
 29 31  1  0
 29 32  1  0
 32 33  3  0
 33 34  1  0
 34 35  1  0
 34 36  2  0
 36 37  1  0
 36 38  1  0
 38 39  1  0
 38 40  1  0
 38 41  1  0
 41 42  1  0
 41 43  1  0
 41 44  1  0
 44 45  1  0
 44 46  1  0
 44 47  1  0
 47 48  1  0
 47 49  1  0
 47 50  1  0
 50 51  1  0
 50 52  2  0
 52 53  1  0
 52 54  1  0
 54 55  1  0
 54 56  1  0
 54 57  1  0
 57 58  1  0
 57 59  1  0
 57 60  1  0
 60 61  1  0
 60 62  1  0
 60 63  1  0
 63 64  1  0
 63 65  1  0
 63 66  1  0
 66 67  1  0
 66 68  1  0
 66 69  1  0
 69 70  1  0
 69 71  1  0
 69 72  1  0
 72 73  1  0
 72 74  1  0
 72 75  1  0
 75 76  1  0
 75 77  1  0
 75 78  1  0
 78 79  1  0
 78 80  1  0
 78 81  1  0
 81 82  1  0
 81 83  1  0
 81 84  1  0
 84 85  1  0
 84 86  1  0
 84 87  1  0
 87 88  1  0
 87 89  1  0
 87 90  1  0
 90 91  3  0
 91 92  1  0
 92 93  1  0
 92 94  1  0
 92 95  1  0
 95 96  1  0
 95 97  1  0
 95 98  1  0
 98 99  1  0
 98100  1  0
 98101  1  0
101102  1  0
101103  1  0
101104  1  0
104105  1  0
  4106  1  0
106107  1  0
107108  1  0
107109  1  0
107110  1  0
110111  2  0
111112  1  0
111113  1  0
113114  1  0
113115  2  0
115116  1  0
115117  1  0
117118  1  0
117119  2  0
119120  1  0
119110  1  0
M  END
>  <UniqueID>  (22) 
22

>  <SMILES>  (22) 
C#C[C@H](C#CCCCCCCCCC#C/C=C/CCCC/C=C/CCCCCCCCCCCCC#CCCCCO)OCc1ccccc1

>  <Energy>  (22) 
48.66466121160888

>  <Genealogy>  (22) 
C#C[C@H](C#CCCCCCCCCC#CC=CCCCCC=CCCCCCCCCCCCCC#CCCCCO)OCc1ccccc1 (chirality)
C#C[C@H](C#CCCCCCCCCC#C/C=C/CCCC/C=C/CCCCCCCCCCCCC#CCCCCO)OCc1ccccc1 (cis-trans isomerization)
C#C[C@H](C#CCCCCCCCCC#C/C=C/CCCC/C=C/CCCCCCCCCCCCC#CCCCCO)OCc1ccccc1 (3D coordinates assigned)
C#C[C@H](C#CCCCCCCCCC#C/C=C/CCCC/C=C/CCCCCCCCCCCCC#CCCCCO)OCc1ccccc1 (optimized conformer: 48.66466121160888 kcal/mol)

>  <smiles>  (22) 
C#CC(C#CCCCCCCCCC#CC=CCCCCC=CCCCCCCCCCCCCC#CCCCCO)OCc1ccccc1

>  <score_type>  (22) 
oracle

>  <origin>  (22) 
adg

>  <m_score__min__energy>  (22) 
-6.1799999999999997

>  <m_primary>  (22) 
energy

$$$$
22:0
     RDKit          3D

 40 42  0  0  0  0  0  0  0  0999 V2000
   56.2720   30.2410   43.0980 C   0  0  0  0  0  0  0  0  0  0  0  0
   56.2960   30.4940   44.4990 O   0  0  0  0  0  0  0  0  0  0  0  0
   57.3890   31.0350   45.1940 C   0  0  0  0  0  0  0  0  0  0  0  0
   57.5250   32.4170   45.4110 C   0  0  0  0  0  0  0  0  0  0  0  0
   58.6150   32.9240   46.1330 C   0  0  0  0  0  0  0  0  0  0  0  0
   58.7340   34.2990   46.3410 C   0  0  0  0  0  0  0  0  0  0  0  0
   59.8110   34.8000   47.0570 C   0  0  0  0  0  0  0  0  0  0  0  0
   60.7720   33.9290   47.5700 C   0  0  0  0  0  0  0  0  0  0  0  0
   61.7380   34.4200   48.2160 O   0  0  0  0  0  0  0  0  0  0  0  0
   60.6680   32.5680   47.3750 N   0  0  0  0  0  0  0  0  0  0  0  0
   61.7010   31.6700   47.9320 C   0  0  0  0  0  0  0  0  0  0  0  0
   59.6010   32.0520   46.6600 C   0  0  0  0  0  0  0  0  0  0  0  0
   59.4530   30.6650   46.4280 C   0  0  0  0  0  0  0  0  0  0  0  0
   58.3650   30.1630   45.6980 C   0  0  0  0  0  0  0  0  0  0  0  0
   58.2520   28.7480   45.4750 N   0  0  0  0  0  0  0  0  0  0  0  0
   58.1860   27.8360   46.6220 C   0  0  0  0  0  0  0  0  0  0  0  0
   57.2910   26.6140   46.3230 C   0  0  0  0  0  0  0  0  0  0  0  0
   57.1320   26.3300   44.8810 N   0  0  0  0  0  0  0  0  0  0  0  0
   58.3200   26.6980   44.1020 C   0  0  0  0  0  0  0  0  0  0  0  0
   58.5140   28.2170   44.1330 C   0  0  0  0  0  0  0  0  0  0  0  0
   56.1694   29.1600   42.9223 H   0  0  0  0  0  0  0  0  0  0  0  0
   55.4199   30.7686   42.6447 H   0  0  0  0  0  0  0  0  0  0  0  0
   57.2081   30.5990   42.6447 H   0  0  0  0  0  0  0  0  0  0  0  0
   56.7687   33.1080   45.0104 H   0  0  0  0  0  0  0  0  0  0  0  0
   57.9744   34.9846   45.9375 H   0  0  0  0  0  0  0  0  0  0  0  0
   59.9072   35.8836   47.2202 H   0  0  0  0  0  0  0  0  0  0  0  0
   61.6623   31.7036   49.0308 H   0  0  0  0  0  0  0  0  0  0  0  0
   61.5156   30.6411   47.5899 H   0  0  0  0  0  0  0  0  0  0  0  0
   62.6941   31.9968   47.5899 H   0  0  0  0  0  0  0  0  0  0  0  0
   60.2041   29.9673   46.8269 H   0  0  0  0  0  0  0  0  0  0  0  0
   59.2015   27.4858   46.8590 H   0  0  0  0  0  0  0  0  0  0  0  0
   57.7515   28.3820   47.4723 H   0  0  0  0  0  0  0  0  0  0  0  0
   57.7378   25.7310   46.8033 H   0  0  0  0  0  0  0  0  0  0  0  0
   56.2902   26.8457   46.7163 H   0  0  0  0  0  0  0  0  0  0  0  0
   56.9490   25.3060   44.7550 H   0  0  0  0  0  0  0  0  0  0  0  0
   56.3000   26.8490   44.5120 H   0  0  0  0  0  0  0  0  0  0  0  0
   59.2053   26.2084   44.5338 H   0  0  0  0  0  0  0  0  0  0  0  0
   58.1853   26.3714   43.0603 H   0  0  0  0  0  0  0  0  0  0  0  0
   59.5493   28.4543   43.8470 H   0  0  0  0  0  0  0  0  0  0  0  0
   57.8069   28.6774   43.4273 H   0  0  0  0  0  0  0  0  0  0  0  0
  1  2  1  0
  2  3  1  0
  3  4  2  0
  4  5  1  0
  5  6  1  0
  6  7  2  0
  7  8  1  0
  8  9  2  0
  8 10  1  0
 10 11  1  0
 10 12  1  0
 12 13  1  0
 13 14  2  0
 14 15  1  0
 15 16  1  0
 16 17  1  0
 17 18  1  0
 18 19  1  0
 19 20  1  0
 14  3  1  0
 20 15  1  0
 12  5  2  0
  1 21  1  0
  1 22  1  0
  1 23  1  0
  4 24  1  0
  6 25  1  0
  7 26  1  0
 11 27  1  0
 11 28  1  0
 11 29  1  0
 13 30  1  0
 16 31  1  0
 16 32  1  0
 17 33  1  0
 17 34  1  0
 18 35  1  0
 18 36  1  0
 19 37  1  0
 19 38  1  0
 20 39  1  0
 20 40  1  0
M  CHG  1  18   1
M  END
>  <UniqueID>  (23) 
23

>  <SMILES>  (23) 
COc1cc2ccc(=O)n(C)c2cc1N1CC[NH2+]CC1

>  <Energy>  (23) 
59.04202024894428

>  <Genealogy>  (23) 
COc1cc2ccc(=O)n(C)c2cc1N1CC[NH2+]CC1 (protonated)
COc1cc2ccc(=O)n(C)c2cc1N1CC[NH2+]CC1 (3D coordinates assigned)
COc1cc2ccc(=O)n(C)c2cc1N1CC[NH2+]CC1 (nonaromatic ring conformer: 59.04202024894428 kcal/mol)

>  <smiles>  (23) 
COc1cc2ccc(=O)n(C)c2cc1N1CCNCC1

>  <score_type>  (23) 
oracle

>  <origin>  (23) 
adg

>  <m_score__min__energy>  (23) 
-5.0700000000000003

>  <m_primary>  (23) 
energy

$$$$
23:0
     RDKit          3D

 41 44  0  0  0  0  0  0  0  0999 V2000
   56.6520   28.2610   45.2810 C   0  0  0  0  0  0  0  0  0  0  0  0
   56.4070   29.6630   45.2670 O   0  0  0  0  0  0  0  0  0  0  0  0
   56.8670   30.5430   44.2730 C   0  0  0  0  0  0  0  0  0  0  0  0
   56.5550   30.3560   42.9120 C   0  0  0  0  0  0  0  0  0  0  0  0
   57.0180   31.2570   41.9500 C   0  0  0  0  0  0  0  0  0  0  0  0
   57.7940   32.3520   42.3320 C   0  0  0  0  0  0  0  0  0  0  0  0
   58.1110   32.5490   43.6770 C   0  0  0  0  0  0  0  0  0  0  0  0
   57.6590   31.6470   44.6540 C   0  0  0  0  0  0  0  0  0  0  0  0
   57.9920   31.8830   46.1070 C   0  0  0  0  0  0  0  0  0  0  0  0
   59.1780   32.7420   46.2270 N   0  0  0  0  0  0  0  0  0  0  0  0
   59.1670   34.0870   46.0480 C   0  0  0  0  0  0  0  0  0  0  0  0
   60.3240   34.6930   46.4110 N   0  0  0  0  0  0  0  0  0  0  0  0
   61.0870   33.6650   46.8190 C   0  0  0  0  0  0  0  0  0  0  0  0
   62.3680   33.7430   47.3530 C   0  0  0  0  0  0  0  0  0  0  0  0
   62.9660   32.5410   47.7580 C   0  0  0  0  0  0  0  0  0  0  0  0
   62.3110   31.3520   47.5900 N   0  0  0  0  0  0  0  0  0  0  0  0
   61.0560   31.2710   47.0550 C   0  0  0  0  0  0  0  0  0  0  0  0
   60.5070   29.9360   46.7780 C   0  0  0  0  0  0  0  0  0  0  0  0
   60.6650   29.3550   45.5080 C   0  0  0  0  0  0  0  0  0  0  0  0
   60.1690   28.0710   45.2580 C   0  0  0  0  0  0  0  0  0  0  0  0
   59.5320   27.3550   46.2760 C   0  0  0  0  0  0  0  0  0  0  0  0
   59.3960   27.9190   47.5480 C   0  0  0  0  0  0  0  0  0  0  0  0
   59.8910   29.2020   47.8020 C   0  0  0  0  0  0  0  0  0  0  0  0
   60.4210   32.4780   46.6920 C   0  0  0  0  0  0  0  0  0  0  0  0
   56.7134   27.9099   46.3216 H   0  0  0  0  0  0  0  0  0  0  0  0
   55.8313   27.7402   44.7661 H   0  0  0  0  0  0  0  0  0  0  0  0
   57.6007   28.0494   44.7661 H   0  0  0  0  0  0  0  0  0  0  0  0
   55.9430   29.4951   42.6049 H   0  0  0  0  0  0  0  0  0  0  0  0
   56.7704   31.1030   40.8894 H   0  0  0  0  0  0  0  0  0  0  0  0
   58.1562   33.0605   41.5725 H   0  0  0  0  0  0  0  0  0  0  0  0
   58.7189   33.4165   43.9737 H   0  0  0  0  0  0  0  0  0  0  0  0
   57.1387   32.3721   46.5997 H   0  0  0  0  0  0  0  0  0  0  0  0
   58.2016   30.9157   46.5870 H   0  0  0  0  0  0  0  0  0  0  0  0
   58.3012   34.6339   45.6464 H   0  0  0  0  0  0  0  0  0  0  0  0
   62.8901   34.7060   47.4535 H   0  0  0  0  0  0  0  0  0  0  0  0
   63.9673   32.5544   48.2133 H   0  0  0  0  0  0  0  0  0  0  0  0
   61.1792   29.9104   44.7098 H   0  0  0  0  0  0  0  0  0  0  0  0
   60.2803   27.6241   44.2591 H   0  0  0  0  0  0  0  0  0  0  0  0
   59.1378   26.3477   46.0761 H   0  0  0  0  0  0  0  0  0  0  0  0
   58.8992   27.3530   48.3498 H   0  0  0  0  0  0  0  0  0  0  0  0
   59.7969   29.6368   48.8080 H   0  0  0  0  0  0  0  0  0  0  0  0
  1  2  1  0
  2  3  1  0
  3  4  2  0
  4  5  1  0
  5  6  2  0
  6  7  1  0
  7  8  2  0
  8  9  1  0
  9 10  1  0
 10 11  1  0
 11 12  2  0
 12 13  1  0
 13 14  2  0
 14 15  1  0
 15 16  2  0
 16 17  1  0
 17 18  1  0
 18 19  2  0
 19 20  1  0
 20 21  2  0
 21 22  1  0
 22 23  2  0
 17 24  2  0
  8  3  1  0
 24 10  1  0
 24 13  1  0
 23 18  1  0
  1 25  1  0
  1 26  1  0
  1 27  1  0
  4 28  1  0
  5 29  1  0
  6 30  1  0
  7 31  1  0
  9 32  1  0
  9 33  1  0
 11 34  1  0
 14 35  1  0
 15 36  1  0
 19 37  1  0
 20 38  1  0
 21 39  1  0
 22 40  1  0
 23 41  1  0
M  END
>  <UniqueID>  (24) 
24

>  <SMILES>  (24) 
COc1ccccc1Cn1cnc2ccnc(-c3ccccc3)c21

>  <Energy>  (24) 
92.75117413721924

>  <Genealogy>  (24) 
COc1ccccc1Cn1cnc2ccnc(-c3ccccc3)c21 (3D coordinates assigned)
COc1ccccc1Cn1cnc2ccnc(-c3ccccc3)c21 (optimized conformer: 92.75117413721924 kcal/mol)

>  <smiles>  (24) 
COc1ccccc1Cn1cnc2ccnc(-c3ccccc3)c21

>  <score_type>  (24) 
oracle

>  <origin>  (24) 
adg

>  <m_score__min__energy>  (24) 
-7.6799999999999997

>  <m_primary>  (24) 
energy

$$$$
24:0
     RDKit          3D

 37 39  0  0  0  0  0  0  0  0999 V2000
   57.0090   19.5390   45.9980 C   0  0  0  0  0  0  0  0  0  0  0  0
   56.6430   20.5290   46.9550 O   0  0  0  0  0  0  0  0  0  0  0  0
   56.8250   21.9070   46.7760 C   0  0  0  0  0  0  0  0  0  0  0  0
   56.2260   22.8640   47.6180 C   0  0  0  0  0  0  0  0  0  0  0  0
   56.4380   24.2290   47.3970 C   0  0  0  0  0  0  0  0  0  0  0  0
   57.2430   24.6590   46.3320 C   0  0  0  0  0  0  0  0  0  0  0  0
   57.4760   26.0590   46.1130 N   0  0  0  0  0  0  0  0  0  0  0  0
   58.6640   26.6890   45.9540 C   0  0  0  0  0  0  0  0  0  0  0  0
   59.9110   26.0780   46.0600 O   0  0  0  0  0  0  0  0  0  0  0  0
   58.4830   28.0370   45.7020 C   0  0  0  0  0  0  0  0  0  0  0  0
   57.1180   28.2400   45.7400 C   0  0  0  0  0  0  0  0  0  0  0  0
   56.4610   29.4850   45.4630 N   0  0  0  0  0  0  0  0  0  0  0  0
   56.9240   30.4430   44.4970 C   0  0  0  0  0  0  0  0  0  0  0  0
   56.5990   30.3200   43.1330 C   0  0  0  0  0  0  0  0  0  0  0  0
   57.0350   31.2800   42.2160 C   0  0  0  0  0  0  0  0  0  0  0  0
   57.7830   32.3770   42.6510 C   0  0  0  0  0  0  0  0  0  0  0  0
   58.0900   32.5190   44.0070 C   0  0  0  0  0  0  0  0  0  0  0  0
   57.6550   31.5610   44.9290 C   0  0  0  0  0  0  0  0  0  0  0  0
   56.5300   27.0100   45.9710 C   0  0  0  0  0  0  0  0  0  0  0  0
   55.1620   26.7550   45.9860 O   0  0  0  0  0  0  0  0  0  0  0  0
   57.8480   23.7050   45.5000 C   0  0  0  0  0  0  0  0  0  0  0  0
   57.6350   22.3410   45.7200 C   0  0  0  0  0  0  0  0  0  0  0  0
   57.3447   18.6308   46.5200 H   0  0  0  0  0  0  0  0  0  0  0  0
   56.1400   19.2995   45.3676 H   0  0  0  0  0  0  0  0  0  0  0  0
   57.8248   19.9223   45.3676 H   0  0  0  0  0  0  0  0  0  0  0  0
   55.5888   22.5368   48.4528 H   0  0  0  0  0  0  0  0  0  0  0  0
   55.9705   24.9696   48.0625 H   0  0  0  0  0  0  0  0  0  0  0  0
   60.7500   26.5050   45.6910 H   0  0  0  0  0  0  0  0  0  0  0  0
   59.2628   28.7891   45.5114 H   0  0  0  0  0  0  0  0  0  0  0  0
   55.5870   29.7020   45.9950 H   0  0  0  0  0  0  0  0  0  0  0  0
   55.9995   29.4649   42.7876 H   0  0  0  0  0  0  0  0  0  0  0  0
   56.7888   31.1718   41.1494 H   0  0  0  0  0  0  0  0  0  0  0  0
   58.1301   33.1285   41.9266 H   0  0  0  0  0  0  0  0  0  0  0  0
   58.6746   33.3854   44.3499 H   0  0  0  0  0  0  0  0  0  0  0  0
   57.8868   31.6843   45.9972 H   0  0  0  0  0  0  0  0  0  0  0  0
   58.4928   24.0318   44.6709 H   0  0  0  0  0  0  0  0  0  0  0  0
   58.1084   21.6018   45.0571 H   0  0  0  0  0  0  0  0  0  0  0  0
  1  2  1  0
  2  3  1  0
  3  4  2  0
  4  5  1  0
  5  6  2  0
  6  7  1  0
  7  8  1  0
  8  9  1  0
  8 10  2  0
 10 11  1  0
 11 12  1  0
 12 13  1  0
 13 14  2  0
 14 15  1  0
 15 16  2  0
 16 17  1  0
 17 18  2  0
 11 19  2  0
 19 20  1  0
  6 21  1  0
 21 22  2  0
 22  3  1  0
 19  7  1  0
 18 13  1  0
  1 23  1  0
  1 24  1  0
  1 25  1  0
  4 26  1  0
  5 27  1  0
  9 28  1  0
 10 29  1  0
 12 30  1  0
 14 31  1  0
 15 32  1  0
 16 33  1  0
 17 34  1  0
 18 35  1  0
 21 36  1  0
 22 37  1  0
M  CHG  1  20  -1
M  END
>  <UniqueID>  (25) 
25

>  <SMILES>  (25) 
COc1ccc(-n2c(O)cc(Nc3ccccc3)c2[O-])cc1

>  <Energy>  (25) 
78.68452310847634

>  <Genealogy>  (25) 
COc1ccc(-n2c(O)cc(Nc3ccccc3)c2[O-])cc1 (protonated)
COc1ccc(-n2c(O)cc(Nc3ccccc3)c2[O-])cc1 (3D coordinates assigned)
COc1ccc(-n2c(O)cc(Nc3ccccc3)c2[O-])cc1 (optimized conformer: 78.68452310847634 kcal/mol)

>  <smiles>  (25) 
COc1ccc(-n2c(O)cc(Nc3ccccc3)c2O)cc1

>  <score_type>  (25) 
oracle

>  <origin>  (25) 
adg

>  <m_score__min__energy>  (25) 
-9.8599999999999994

>  <m_primary>  (25) 
energy

$$$$
25:0
     RDKit          3D

 64 66  0  0  0  0  0  0  0  0999 V2000
   61.1060   30.4960   47.6370 C   0  0  0  0  0  0  0  0  0  0  0  0
   59.9210   29.9150   46.8660 C   0  0  0  0  0  0  0  0  0  0  0  0
   60.3390   28.8580   45.8260 C   0  0  0  0  0  0  0  0  0  0  0  0
   59.5510   28.9060   44.5030 C   0  0  0  0  0  0  0  0  0  0  0  0
   58.0210   28.9930   44.6580 C   0  0  0  0  0  0  0  0  0  0  0  0
   57.3440   29.9510   43.6530 C   0  0  0  0  0  0  0  0  0  0  0  0
   56.6840   31.1890   44.2970 C   0  0  0  0  0  0  0  0  0  0  0  0
   57.3910   32.5220   43.9920 C   0  0  0  0  0  0  0  0  0  0  0  0
   58.1630   33.0430   45.1760 C   0  0  0  0  0  0  0  0  0  0  0  0
   57.8580   32.5970   46.4710 C   0  0  0  0  0  0  0  0  0  0  0  0
   58.5910   33.0600   47.5680 C   0  0  0  0  0  0  0  0  0  0  0  0
   59.6430   33.9710   47.3850 C   0  0  0  0  0  0  0  0  0  0  0  0
   60.4430   34.4690   48.5690 C   0  0  0  0  0  0  0  0  0  0  0  0
   61.4040   33.4540   49.0680 N   0  0  0  0  0  0  0  0  0  0  0  0
   62.6080   33.4410   48.1950 C   0  0  0  0  0  0  0  0  0  0  0  0
   63.8230   32.8120   48.8870 C   0  0  0  0  0  0  0  0  0  0  0  0
   64.1400   33.5570   50.1130 N   0  0  0  0  0  0  0  0  0  0  0  0
   65.4860   33.5700   50.6380 C   0  0  0  0  0  0  0  0  0  0  0  0
   66.4570   32.6770   50.1440 C   0  0  0  0  0  0  0  0  0  0  0  0
   67.7600   32.6920   50.6510 C   0  0  0  0  0  0  0  0  0  0  0  0
   68.1090   33.5960   51.6570 C   0  0  0  0  0  0  0  0  0  0  0  0
   67.1580   34.4880   52.1550 C   0  0  0  0  0  0  0  0  0  0  0  0
   65.8540   34.4770   51.6510 C   0  0  0  0  0  0  0  0  0  0  0  0
   63.0700   34.3190   50.7690 C   0  0  0  0  0  0  0  0  0  0  0  0
   61.7120   33.6470   50.5170 C   0  0  0  0  0  0  0  0  0  0  0  0
   59.9480   34.4180   46.0900 C   0  0  0  0  0  0  0  0  0  0  0  0
   59.2150   33.9540   44.9930 C   0  0  0  0  0  0  0  0  0  0  0  0
   60.9206   30.4051   48.7174 H   0  0  0  0  0  0  0  0  0  0  0  0
   62.0205   29.9441   47.3742 H   0  0  0  0  0  0  0  0  0  0  0  0
   61.2297   31.5570   47.3742 H   0  0  0  0  0  0  0  0  0  0  0  0
   59.2314   29.4468   47.5839 H   0  0  0  0  0  0  0  0  0  0  0  0
   59.4457   30.7434   46.3202 H   0  0  0  0  0  0  0  0  0  0  0  0
   61.4041   29.0074   45.5954 H   0  0  0  0  0  0  0  0  0  0  0  0
   60.1259   27.8780   46.2778 H   0  0  0  0  0  0  0  0  0  0  0  0
   59.8872   29.7877   43.9377 H   0  0  0  0  0  0  0  0  0  0  0  0
   59.7539   27.9542   43.9903 H   0  0  0  0  0  0  0  0  0  0  0  0
   57.6005   27.9867   44.5145 H   0  0  0  0  0  0  0  0  0  0  0  0
   57.8240   29.3934   45.6634 H   0  0  0  0  0  0  0  0  0  0  0  0
   58.1076   30.2991   42.9418 H   0  0  0  0  0  0  0  0  0  0  0  0
   56.5368   29.3804   43.1706 H   0  0  0  0  0  0  0  0  0  0  0  0
   55.6495   31.2570   43.9292 H   0  0  0  0  0  0  0  0  0  0  0  0
   56.7454   31.0448   45.3858 H   0  0  0  0  0  0  0  0  0  0  0  0
   58.0878   32.3695   43.1546 H   0  0  0  0  0  0  0  0  0  0  0  0
   56.6181   33.2635   43.7412 H   0  0  0  0  0  0  0  0  0  0  0  0
   57.0383   31.8796   46.6239 H   0  0  0  0  0  0  0  0  0  0  0  0
   58.3418   32.7083   48.5801 H   0  0  0  0  0  0  0  0  0  0  0  0
   61.0023   35.3663   48.2655 H   0  0  0  0  0  0  0  0  0  0  0  0
   59.7365   34.6912   49.3823 H   0  0  0  0  0  0  0  0  0  0  0  0
   60.9580   32.5100   48.9670 H   0  0  0  0  0  0  0  0  0  0  0  0
   62.3801   32.8635   47.2869 H   0  0  0  0  0  0  0  0  0  0  0  0
   62.8606   34.4844   47.9553 H   0  0  0  0  0  0  0  0  0  0  0  0
   63.5962   31.7666   49.1435 H   0  0  0  0  0  0  0  0  0  0  0  0
   64.6868   32.8484   48.2069 H   0  0  0  0  0  0  0  0  0  0  0  0
   66.1879   31.9618   49.3527 H   0  0  0  0  0  0  0  0  0  0  0  0
   68.5109   31.9912   50.2573 H   0  0  0  0  0  0  0  0  0  0  0  0
   69.1337   33.6049   52.0569 H   0  0  0  0  0  0  0  0  0  0  0  0
   67.4350   35.2010   52.9455 H   0  0  0  0  0  0  0  0  0  0  0  0
   65.1094   35.1823   52.0487 H   0  0  0  0  0  0  0  0  0  0  0  0
   63.2617   34.3571   51.8515 H   0  0  0  0  0  0  0  0  0  0  0  0
   63.0491   35.3384   50.3562 H   0  0  0  0  0  0  0  0  0  0  0  0
   61.7143   32.6621   51.0069 H   0  0  0  0  0  0  0  0  0  0  0  0
   60.9392   34.3141   50.9266 H   0  0  0  0  0  0  0  0  0  0  0  0
   60.7670   35.1363   45.9372 H   0  0  0  0  0  0  0  0  0  0  0  0
   59.4644   34.3051   43.9808 H   0  0  0  0  0  0  0  0  0  0  0  0
  1  2  1  0
  2  3  1  0
  3  4  1  0
  4  5  1  0
  5  6  1  0
  6  7  1  0
  7  8  1  0
  8  9  1  0
  9 10  2  0
 10 11  1  0
 11 12  2  0
 12 13  1  0
 13 14  1  0
 14 15  1  0
 15 16  1  0
 16 17  1  0
 17 18  1  0
 18 19  2  0
 19 20  1  0
 20 21  2  0
 21 22  1  0
 22 23  2  0
 17 24  1  0
 24 25  1  0
 12 26  1  0
 26 27  2  0
 27  9  1  0
 25 14  1  0
 23 18  1  0
  1 28  1  0
  1 29  1  0
  1 30  1  0
  2 31  1  0
  2 32  1  0
  3 33  1  0
  3 34  1  0
  4 35  1  0
  4 36  1  0
  5 37  1  0
  5 38  1  0
  6 39  1  0
  6 40  1  0
  7 41  1  0
  7 42  1  0
  8 43  1  0
  8 44  1  0
 10 45  1  0
 11 46  1  0
 13 47  1  0
 13 48  1  0
 14 49  1  0
 15 50  1  0
 15 51  1  0
 16 52  1  0
 16 53  1  0
 19 54  1  0
 20 55  1  0
 21 56  1  0
 22 57  1  0
 23 58  1  0
 24 59  1  0
 24 60  1  0
 25 61  1  0
 25 62  1  0
 26 63  1  0
 27 64  1  0
M  CHG  1  14   1
M  END
>  <UniqueID>  (26) 
26

>  <SMILES>  (26) 
CCCCCCCCc1ccc(C[NH+]2CCN(c3ccccc3)CC2)cc1

>  <Energy>  (26) 
67.43184099149074

>  <Genealogy>  (26) 
CCCCCCCCc1ccc(C[NH+]2CCN(c3ccccc3)CC2)cc1 (protonated)
CCCCCCCCc1ccc(C[NH+]2CCN(c3ccccc3)CC2)cc1 (3D coordinates assigned)
CCCCCCCCc1ccc(C[NH+]2CCN(c3ccccc3)CC2)cc1 (nonaromatic ring conformer: 67.43184099149074 kcal/mol)

>  <smiles>  (26) 
CCCCCCCCc1ccc(CN2CCN(c3ccccc3)CC2)cc1

>  <score_type>  (26) 
oracle

>  <origin>  (26) 
adg

>  <m_score__min__energy>  (26) 
-6.2000000000000002

>  <m_primary>  (26) 
energy

$$$$
26:0
     RDKit          3D

 41 43  0  0  1  0  0  0  0  0999 V2000
   63.5630   33.5210   49.3400 C   0  0  0  0  0  0  0  0  0  0  0  0
   63.3960   32.9810   47.9180 C   0  0  0  0  0  0  0  0  0  0  0  0
   61.9780   32.9950   47.5310 N   0  0  0  0  0  0  0  0  0  0  0  0
   61.9350   33.8550   46.3710 C   0  0  0  0  0  0  0  0  0  0  0  0
   60.4500   34.0200   46.0630 C   0  0  2  0  0  0  0  0  0  0  0  0
   59.9980   34.9690   47.1670 C   0  0  0  0  0  0  0  0  0  0  0  0
   59.9260   34.1110   48.4030 C   0  0  2  0  0  0  0  0  0  0  0  0
   61.2100   33.4340   48.6540 C   0  0  0  0  0  0  0  0  0  0  0  0
   58.7190   33.2020   48.2450 C   0  0  0  0  0  0  0  0  0  0  0  0
   58.6220   32.6350   46.9500 N   0  0  0  0  0  0  0  0  0  0  0  0
   57.5310   33.0170   46.1280 C   0  0  0  0  0  0  0  0  0  0  0  0
   57.3220   32.2040   44.9140 C   0  0  0  0  0  0  0  0  0  0  0  0
   57.8340   32.7050   43.7090 C   0  0  0  0  0  0  0  0  0  0  0  0
   57.6640   32.0020   42.5270 C   0  0  0  0  0  0  0  0  0  0  0  0
   56.9850   30.7910   42.5100 C   0  0  0  0  0  0  0  0  0  0  0  0
   56.4860   30.3180   43.7320 C   0  0  0  0  0  0  0  0  0  0  0  0
   56.6720   31.0370   44.8720 N   0  0  0  0  0  0  0  0  0  0  0  0
   59.8690   32.6330   46.2140 C   0  0  0  0  0  0  0  0  0  0  0  0
   63.3183   32.7297   50.0638 H   0  0  0  0  0  0  0  0  0  0  0  0
   64.6034   33.8454   49.4892 H   0  0  0  0  0  0  0  0  0  0  0  0
   62.8873   34.3761   49.4892 H   0  0  0  0  0  0  0  0  0  0  0  0
   63.9687   33.6105   47.2211 H   0  0  0  0  0  0  0  0  0  0  0  0
   63.7668   31.9460   47.8821 H   0  0  0  0  0  0  0  0  0  0  0  0
   62.4571   33.3880   45.5229 H   0  0  0  0  0  0  0  0  0  0  0  0
   62.4314   34.8200   46.5509 H   0  0  0  0  0  0  0  0  0  0  0  0
   60.1679   34.4090   45.0735 H   0  0  0  0  0  0  0  0  0  0  0  0
   59.0113   35.3950   46.9325 H   0  0  0  0  0  0  0  0  0  0  0  0
   60.6836   35.8203   47.2906 H   0  0  0  0  0  0  0  0  0  0  0  0
   59.7745   34.7032   49.3175 H   0  0  0  0  0  0  0  0  0  0  0  0
   60.9954   32.5469   49.2680 H   0  0  0  0  0  0  0  0  0  0  0  0
   61.8358   34.2069   49.1241 H   0  0  0  0  0  0  0  0  0  0  0  0
   57.8095   33.7890   48.4403 H   0  0  0  0  0  0  0  0  0  0  0  0
   58.8331   32.3742   48.9603 H   0  0  0  0  0  0  0  0  0  0  0  0
   56.6153   32.9581   46.7347 H   0  0  0  0  0  0  0  0  0  0  0  0
   57.7685   34.0298   45.7704 H   0  0  0  0  0  0  0  0  0  0  0  0
   58.3745   33.6630   43.7017 H   0  0  0  0  0  0  0  0  0  0  0  0
   58.0723   32.4086   41.5900 H   0  0  0  0  0  0  0  0  0  0  0  0
   56.8444   30.2261   41.5766 H   0  0  0  0  0  0  0  0  0  0  0  0
   55.9423   29.3625   43.7691 H   0  0  0  0  0  0  0  0  0  0  0  0
   59.6878   32.2148   45.2129 H   0  0  0  0  0  0  0  0  0  0  0  0
   60.5915   32.0260   46.7792 H   0  0  0  0  0  0  0  0  0  0  0  0
  1  2  1  0
  2  3  1  0
  3  4  1  0
  4  5  1  0
  5  6  1  0
  6  7  1  0
  7  8  1  0
  7  9  1  0
  9 10  1  0
 10 11  1  0
 11 12  1  0
 12 13  2  0
 13 14  1  0
 14 15  2  0
 15 16  1  0
 16 17  2  0
 10 18  1  0
  8  3  1  0
 17 12  1  0
 18  5  1  0
  1 19  1  0
  1 20  1  0
  1 21  1  0
  2 22  1  0
  2 23  1  0
  4 24  1  0
  4 25  1  0
  5 26  1  6
  6 27  1  0
  6 28  1  0
  7 29  1  1
  8 30  1  0
  8 31  1  0
  9 32  1  0
  9 33  1  0
 11 34  1  0
 11 35  1  0
 13 36  1  0
 14 37  1  0
 15 38  1  0
 16 39  1  0
 18 40  1  0
 18 41  1  0
M  END
>  <smiles>  (27) 
CCN1CC2CC(C1)CN(Cc1ccccn1)C2

>  <score_type>  (27) 
oracle

>  <origin>  (27) 
adg

>  <m_score__min__energy>  (27) 
-7.3799999999999999

>  <m_primary>  (27) 
energy

$$$$
27:0
     RDKit          3D

 41 42  0  0  0  0  0  0  0  0999 V2000
   63.7940   33.5170   48.3860 C   0  0  0  0  0  0  0  0  0  0  0  0
   62.3800   34.0870   48.3880 C   0  0  0  0  0  0  0  0  0  0  0  0
   61.4620   33.1910   47.6640 N   0  0  0  0  0  0  0  0  0  0  0  0
   61.7930   31.8720   47.5300 C   0  0  0  0  0  0  0  0  0  0  0  0
   60.9820   31.0190   46.8550 N   0  0  0  0  0  0  0  0  0  0  0  0
   59.8280   31.4470   46.2860 C   0  0  0  0  0  0  0  0  0  0  0  0
   59.0090   30.5430   45.6010 C   0  0  0  0  0  0  0  0  0  0  0  0
   57.8190   30.9840   45.0020 C   0  0  0  0  0  0  0  0  0  0  0  0
   56.7720   29.8570   44.1390 S   0  0  0  0  0  0  0  0  0  0  0  0
   56.9110   30.1390   42.6690 O   0  0  0  0  0  0  0  0  0  0  0  0
   55.3380   30.0880   44.5350 O   0  0  0  0  0  0  0  0  0  0  0  0
   57.2390   28.2000   44.4960 N   0  0  0  0  0  0  0  0  0  0  0  0
   57.3880   27.9780   45.9540 C   0  0  0  0  0  0  0  0  0  0  0  0
   58.6630   27.2200   46.3540 C   0  0  0  0  0  0  0  0  0  0  0  0
   58.4490   27.7840   43.7480 C   0  0  0  0  0  0  0  0  0  0  0  0
   58.1360   26.7900   42.6260 C   0  0  0  0  0  0  0  0  0  0  0  0
   57.4510   32.3320   45.1030 C   0  0  0  0  0  0  0  0  0  0  0  0
   58.2660   33.2400   45.7860 C   0  0  0  0  0  0  0  0  0  0  0  0
   59.4610   32.8030   46.3850 C   0  0  0  0  0  0  0  0  0  0  0  0
   60.3120   33.6730   47.0880 C   0  0  0  0  0  0  0  0  0  0  0  0
   60.0150   34.8970   47.1900 O   0  0  0  0  0  0  0  0  0  0  0  0
   64.1353   33.3794   49.4226 H   0  0  0  0  0  0  0  0  0  0  0  0
   63.7976   32.5472   47.8670 H   0  0  0  0  0  0  0  0  0  0  0  0
   64.4692   34.2132   47.8670 H   0  0  0  0  0  0  0  0  0  0  0  0
   62.0351   34.1962   49.4268 H   0  0  0  0  0  0  0  0  0  0  0  0
   62.3903   35.0663   47.8871 H   0  0  0  0  0  0  0  0  0  0  0  0
   62.7271   31.4977   47.9742 H   0  0  0  0  0  0  0  0  0  0  0  0
   59.2985   29.4840   45.5318 H   0  0  0  0  0  0  0  0  0  0  0  0
   56.4440   27.5890   44.1940 H   0  0  0  0  0  0  0  0  0  0  0  0
   57.4006   28.9589   46.4517 H   0  0  0  0  0  0  0  0  0  0  0  0
   56.5396   27.3503   46.2641 H   0  0  0  0  0  0  0  0  0  0  0  0
   58.7352   27.1771   47.4508 H   0  0  0  0  0  0  0  0  0  0  0  0
   58.6244   26.1981   45.9488 H   0  0  0  0  0  0  0  0  0  0  0  0
   59.5423   27.7421   45.9488 H   0  0  0  0  0  0  0  0  0  0  0  0
   58.9149   28.6776   43.3070 H   0  0  0  0  0  0  0  0  0  0  0  0
   59.1233   27.2829   44.4581 H   0  0  0  0  0  0  0  0  0  0  0  0
   57.8328   25.8272   43.0631 H   0  0  0  0  0  0  0  0  0  0  0  0
   57.3185   27.1841   42.0044 H   0  0  0  0  0  0  0  0  0  0  0  0
   59.0318   26.6446   42.0044 H   0  0  0  0  0  0  0  0  0  0  0  0
   56.5144   32.6785   44.6418 H   0  0  0  0  0  0  0  0  0  0  0  0
   57.9720   34.2977   45.8549 H   0  0  0  0  0  0  0  0  0  0  0  0
  1  2  1  0
  2  3  1  0
  3  4  1  0
  4  5  2  0
  5  6  1  0
  6  7  2  0
  7  8  1  0
  8  9  1  0
  9 10  2  0
  9 11  2  0
  9 12  1  0
 12 13  1  0
 13 14  1  0
 12 15  1  0
 15 16  1  0
  8 17  2  0
 17 18  1  0
 18 19  2  0
 19 20  1  0
 20 21  2  0
 20  3  1  0
 19  6  1  0
  1 22  1  0
  1 23  1  0
  1 24  1  0
  2 25  1  0
  2 26  1  0
  4 27  1  0
  7 28  1  0
 12 29  1  0
 13 30  1  0
 13 31  1  0
 14 32  1  0
 14 33  1  0
 14 34  1  0
 15 35  1  0
 15 36  1  0
 16 37  1  0
 16 38  1  0
 16 39  1  0
 17 40  1  0
 18 41  1  0
M  CHG  1  12   1
M  END
>  <UniqueID>  (28) 
27

>  <SMILES>  (28) 
CCn1cnc2cc(S(=O)(=O)[NH+](CC)CC)ccc2c1=O

>  <Energy>  (28) 
43.987607305331544

>  <Genealogy>  (28) 
CCn1cnc2cc(S(=O)(=O)[NH+](CC)CC)ccc2c1=O (protonated)
CCn1cnc2cc(S(=O)(=O)[NH+](CC)CC)ccc2c1=O (3D coordinates assigned)
CCn1cnc2cc(S(=O)(=O)[NH+](CC)CC)ccc2c1=O (optimized conformer: 43.987607305331544 kcal/mol)

>  <smiles>  (28) 
CCN(CC)S(=O)(=O)c1ccc2c(=O)n(CC)cnc2c1

>  <score_type>  (28) 
oracle

>  <origin>  (28) 
adg

>  <m_score__min__energy>  (28) 
-5.7800000000000002

>  <m_primary>  (28) 
energy

$$$$
28:0
     RDKit          3D

 54 57  0  0  0  0  0  0  0  0999 V2000
   61.6120   34.2000   49.5350 C   0  0  0  0  0  0  0  0  0  0  0  0
   61.3690   32.7130   49.5000 C   0  0  0  0  0  0  0  0  0  0  0  0
   62.4330   31.8490   49.8080 C   0  0  0  0  0  0  0  0  0  0  0  0
   62.2510   30.4660   49.8240 C   0  0  0  0  0  0  0  0  0  0  0  0
   60.9920   29.9180   49.5560 C   0  0  0  0  0  0  0  0  0  0  0  0
   60.8020   28.4250   49.5420 C   0  0  0  0  0  0  0  0  0  0  0  0
   60.6690   27.9350   48.1680 N   0  0  0  0  0  0  0  0  0  0  0  0
   59.4550   28.0500   47.3970 C   0  0  0  0  0  0  0  0  0  0  0  0
   59.2210   29.1530   46.5520 C   0  0  0  0  0  0  0  0  0  0  0  0
   58.0280   29.2520   45.8050 C   0  0  0  0  0  0  0  0  0  0  0  0
   57.7560   30.3460   44.9450 C   0  0  0  0  0  0  0  0  0  0  0  0
   58.7280   31.4850   44.7690 C   0  0  0  0  0  0  0  0  0  0  0  0
   56.5440   30.3700   44.2350 C   0  0  0  0  0  0  0  0  0  0  0  0
   55.6280   29.3280   44.3820 C   0  0  0  0  0  0  0  0  0  0  0  0
   54.5420   29.3470   43.7460 O   0  0  0  0  0  0  0  0  0  0  0  0
   55.9050   28.2890   45.2090 N   0  0  0  0  0  0  0  0  0  0  0  0
   57.0640   28.2220   45.9160 C   0  0  0  0  0  0  0  0  0  0  0  0
   57.2960   27.1290   46.7530 C   0  0  0  0  0  0  0  0  0  0  0  0
   58.4800   27.0410   47.4880 C   0  0  0  0  0  0  0  0  0  0  0  0
   58.6740   25.9650   48.2920 F   0  0  0  0  0  0  0  0  0  0  0  0
   59.9260   30.7670   49.2320 C   0  0  0  0  0  0  0  0  0  0  0  0
   60.0960   32.1630   49.1890 C   0  0  0  0  0  0  0  0  0  0  0  0
   58.8990   33.0180   48.8040 C   0  0  0  0  0  0  0  0  0  0  0  0
   58.7760   33.1590   47.3350 N   0  0  0  0  0  0  0  0  0  0  0  0
   59.5650   34.2720   46.7960 C   0  0  0  0  0  0  0  0  0  0  0  0
   58.9050   34.6750   45.4860 C   0  0  0  0  0  0  0  0  0  0  0  0
   57.4690   34.1850   45.5980 C   0  0  0  0  0  0  0  0  0  0  0  0
   57.3940   33.4390   46.9250 C   0  0  0  0  0  0  0  0  0  0  0  0
   61.6672   34.5380   50.5803 H   0  0  0  0  0  0  0  0  0  0  0  0
   62.5594   34.4288   49.0251 H   0  0  0  0  0  0  0  0  0  0  0  0
   60.7867   34.7185   49.0251 H   0  0  0  0  0  0  0  0  0  0  0  0
   63.4231   32.2687   50.0397 H   0  0  0  0  0  0  0  0  0  0  0  0
   63.1004   29.8040   50.0481 H   0  0  0  0  0  0  0  0  0  0  0  0
   61.6721   27.9454   50.0142 H   0  0  0  0  0  0  0  0  0  0  0  0
   59.8844   28.1791   50.0965 H   0  0  0  0  0  0  0  0  0  0  0  0
   61.4980   27.4800   47.7210 H   0  0  0  0  0  0  0  0  0  0  0  0
   59.9781   29.9471   46.4736 H   0  0  0  0  0  0  0  0  0  0  0  0
   59.0430   31.8541   45.7562 H   0  0  0  0  0  0  0  0  0  0  0  0
   59.6083   31.1329   44.2112 H   0  0  0  0  0  0  0  0  0  0  0  0
   58.2419   32.2990   44.2112 H   0  0  0  0  0  0  0  0  0  0  0  0
   56.3171   31.2107   43.5629 H   0  0  0  0  0  0  0  0  0  0  0  0
   56.5417   26.3325   46.8340 H   0  0  0  0  0  0  0  0  0  0  0  0
   58.9396   30.3351   49.0074 H   0  0  0  0  0  0  0  0  0  0  0  0
   57.9846   32.5476   49.1947 H   0  0  0  0  0  0  0  0  0  0  0  0
   59.0414   34.0205   49.2338 H   0  0  0  0  0  0  0  0  0  0  0  0
   59.0790   32.2720   46.8640 H   0  0  0  0  0  0  0  0  0  0  0  0
   59.5599   35.1173   47.4999 H   0  0  0  0  0  0  0  0  0  0  0  0
   60.6131   33.9772   46.6391 H   0  0  0  0  0  0  0  0  0  0  0  0
   58.9315   35.7675   45.3604 H   0  0  0  0  0  0  0  0  0  0  0  0
   59.4207   34.2440   44.6152 H   0  0  0  0  0  0  0  0  0  0  0  0
   56.7715   35.0356   45.5955 H   0  0  0  0  0  0  0  0  0  0  0  0
   57.1915   33.5397   44.7515 H   0  0  0  0  0  0  0  0  0  0  0  0
   56.8937   34.0616   47.6813 H   0  0  0  0  0  0  0  0  0  0  0  0
   56.8175   32.5079   46.8215 H   0  0  0  0  0  0  0  0  0  0  0  0
  1  2  1  0
  2  3  2  0
  3  4  1  0
  4  5  2  0
  5  6  1  0
  6  7  1  0
  7  8  1  0
  8  9  2  0
  9 10  1  0
 10 11  1  0
 11 12  1  0
 11 13  2  0
 13 14  1  0
 14 15  2  0
 14 16  1  0
 16 17  1  0
 17 18  1  0
 18 19  2  0
 19 20  1  0
  5 21  1  0
 21 22  2  0
 22 23  1  0
 23 24  1  0
 24 25  1  0
 25 26  1  0
 26 27  1  0
 27 28  1  0
 22  2  1  0
 28 24  1  0
 19  8  1  0
 17 10  2  0
  1 29  1  0
  1 30  1  0
  1 31  1  0
  3 32  1  0
  4 33  1  0
  6 34  1  0
  6 35  1  0
  7 36  1  0
  9 37  1  0
 12 38  1  0
 12 39  1  0
 12 40  1  0
 13 41  1  0
 18 42  1  0
 21 43  1  0
 23 44  1  0
 23 45  1  0
 24 46  1  0
 25 47  1  0
 25 48  1  0
 26 49  1  0
 26 50  1  0
 27 51  1  0
 27 52  1  0
 28 53  1  0
 28 54  1  0
M  CHG  2  16  -1  24   1
M  END
>  <UniqueID>  (29) 
28

>  <SMILES>  (29) 
Cc1ccc(CNc2cc3c(C)cc(=O)[n-]c3cc2F)cc1C[NH+]1CCCC1

>  <Energy>  (29) 
66.24115654644771

>  <Genealogy>  (29) 
Cc1ccc(CNc2cc3c(C)cc(=O)[n-]c3cc2F)cc1C[NH+]1CCCC1 (protonated)
Cc1ccc(CNc2cc3c(C)cc(=O)[n-]c3cc2F)cc1C[NH+]1CCCC1 (3D coordinates assigned)
Cc1ccc(CNc2cc3c(C)cc(=O)[n-]c3cc2F)cc1C[NH+]1CCCC1 (nonaromatic ring conformer: 66.24115654644771 kcal/mol)

>  <smiles>  (29) 
Cc1ccc(CNc2cc3c(C)cc(=O)[nH]c3cc2F)cc1CN1CCCC1

>  <score_type>  (29) 
oracle

>  <origin>  (29) 
adg

>  <m_score__min__energy>  (29) 
-9.3800000000000008

>  <m_primary>  (29) 
energy

$$$$
29:0
     RDKit          3D

 66 68  0  0  0  0  0  0  0  0999 V2000
   56.2950   29.7310   42.8240 C   0  0  0  0  0  0  0  0  0  0  0  0
   56.6340   29.9770   44.2850 C   0  0  0  0  0  0  0  0  0  0  0  0
   56.6630   31.3780   44.5380 O   0  0  0  0  0  0  0  0  0  0  0  0
   57.6350   32.2210   43.9930 C   0  0  0  0  0  0  0  0  0  0  0  0
   58.2820   31.8710   42.9660 O   0  0  0  0  0  0  0  0  0  0  0  0
   57.8740   33.5700   44.6140 C   0  0  2  0  0  0  0  0  0  0  0  0
   59.3860   33.7650   44.8780 C   0  0  0  0  0  0  0  0  0  0  0  0
   59.6360   34.8640   45.9200 C   0  0  0  0  0  0  0  0  0  0  0  0
   58.9790   34.5360   47.2900 C   0  0  2  0  0  0  0  0  0  0  0  0
   59.9900   34.1210   48.3890 C   0  0  0  0  0  0  0  0  0  0  0  0
   59.7020   32.7750   48.9580 N   0  0  0  0  0  0  0  0  0  0  0  0
   60.7190   31.7900   48.5120 C   0  0  0  0  0  0  0  0  0  0  0  0
   60.0970   30.6770   47.7060 C   0  0  0  0  0  0  0  0  0  0  0  0
   60.4550   30.4910   46.3630 C   0  0  0  0  0  0  0  0  0  0  0  0
   59.8840   29.4580   45.6140 C   0  0  0  0  0  0  0  0  0  0  0  0
   58.9570   28.5860   46.1970 C   0  0  0  0  0  0  0  0  0  0  0  0
   58.4130   27.5660   45.4040 O   0  0  0  0  0  0  0  0  0  0  0  0
   58.6280   27.4370   44.0020 C   0  0  0  0  0  0  0  0  0  0  0  0
   58.6120   28.7570   47.5510 C   0  0  0  0  0  0  0  0  0  0  0  0
   59.1840   29.7890   48.3000 C   0  0  0  0  0  0  0  0  0  0  0  0
   59.7000   32.8460   50.7160 S   0  0  0  0  0  0  0  0  0  0  0  0
   61.0700   32.5520   51.2590 O   0  0  0  0  0  0  0  0  0  0  0  0
   59.2980   34.2210   51.1740 O   0  0  0  0  0  0  0  0  0  0  0  0
   58.5970   31.6540   51.3940 C   0  0  0  0  0  0  0  0  0  0  0  0
   57.2480   31.9680   51.6080 C   0  0  0  0  0  0  0  0  0  0  0  0
   56.3710   30.9980   52.1020 C   0  0  0  0  0  0  0  0  0  0  0  0
   56.8260   29.7050   52.3880 C   0  0  0  0  0  0  0  0  0  0  0  0
   55.9050   28.7650   52.8700 O   0  0  0  0  0  0  0  0  0  0  0  0
   54.5130   29.0150   53.0360 C   0  0  0  0  0  0  0  0  0  0  0  0
   58.1840   29.3940   52.1790 C   0  0  0  0  0  0  0  0  0  0  0  0
   59.0620   30.3650   51.6900 C   0  0  0  0  0  0  0  0  0  0  0  0
   57.8180   33.5230   47.1630 C   0  0  0  0  0  0  0  0  0  0  0  0
   57.0080   33.7690   45.8860 C   0  0  0  0  0  0  0  0  0  0  0  0
   55.4063   29.0861   42.7573 H   0  0  0  0  0  0  0  0  0  0  0  0
   56.0892   30.6913   42.3286 H   0  0  0  0  0  0  0  0  0  0  0  0
   57.1441   29.2375   42.3286 H   0  0  0  0  0  0  0  0  0  0  0  0
   55.8716   29.5053   44.9224 H   0  0  0  0  0  0  0  0  0  0  0  0
   57.6200   29.5442   44.5097 H   0  0  0  0  0  0  0  0  0  0  0  0
   57.5568   34.3533   43.9099 H   0  0  0  0  0  0  0  0  0  0  0  0
   59.8097   32.8192   45.2468 H   0  0  0  0  0  0  0  0  0  0  0  0
   59.8657   34.0666   43.9352 H   0  0  0  0  0  0  0  0  0  0  0  0
   60.7208   34.9743   46.0649 H   0  0  0  0  0  0  0  0  0  0  0  0
   59.1852   35.7942   45.5439 H   0  0  0  0  0  0  0  0  0  0  0  0
   58.5457   35.4881   47.6302 H   0  0  0  0  0  0  0  0  0  0  0  0
   60.9994   34.1094   47.9520 H   0  0  0  0  0  0  0  0  0  0  0  0
   59.9087   34.8514   49.2074 H   0  0  0  0  0  0  0  0  0  0  0  0
   61.4671   32.3052   47.8916 H   0  0  0  0  0  0  0  0  0  0  0  0
   61.1861   31.3490   49.4049 H   0  0  0  0  0  0  0  0  0  0  0  0
   61.1902   31.1626   45.8957 H   0  0  0  0  0  0  0  0  0  0  0  0
   60.1653   29.3294   44.5584 H   0  0  0  0  0  0  0  0  0  0  0  0
   59.5588   26.8785   43.8236 H   0  0  0  0  0  0  0  0  0  0  0  0
   57.7836   26.8963   43.5498 H   0  0  0  0  0  0  0  0  0  0  0  0
   58.7077   28.4366   43.5498 H   0  0  0  0  0  0  0  0  0  0  0  0
   57.8887   28.0750   48.0218 H   0  0  0  0  0  0  0  0  0  0  0  0
   58.9180   29.9069   49.3608 H   0  0  0  0  0  0  0  0  0  0  0  0
   56.8784   32.9802   51.3867 H   0  0  0  0  0  0  0  0  0  0  0  0
   55.3138   31.2528   52.2676 H   0  0  0  0  0  0  0  0  0  0  0  0
   54.2736   29.0580   54.1088 H   0  0  0  0  0  0  0  0  0  0  0  0
   54.2538   29.9741   52.5637 H   0  0  0  0  0  0  0  0  0  0  0  0
   53.9363   28.2061   52.5637 H   0  0  0  0  0  0  0  0  0  0  0  0
   58.5548   28.3826   52.4017 H   0  0  0  0  0  0  0  0  0  0  0  0
   60.1226   30.1168   51.5367 H   0  0  0  0  0  0  0  0  0  0  0  0
   58.2317   32.5041   47.1352 H   0  0  0  0  0  0  0  0  0  0  0  0
   57.1508   33.6461   48.0289 H   0  0  0  0  0  0  0  0  0  0  0  0
   56.1639   33.0643   45.8572 H   0  0  0  0  0  0  0  0  0  0  0  0
   56.6505   34.8092   45.9000 H   0  0  0  0  0  0  0  0  0  0  0  0
  1  2  1  0
  2  3  1  0
  3  4  1  0
  4  5  2  0
  4  6  1  0
  6  7  1  0
  7  8  1  0
  8  9  1  0
  9 10  1  0
 10 11  1  0
 11 12  1  0
 12 13  1  0
 13 14  2  0
 14 15  1  0
 15 16  2  0
 16 17  1  0
 17 18  1  0
 16 19  1  0
 19 20  2  0
 11 21  1  0
 21 22  2  0
 21 23  2  0
 21 24  1  0
 24 25  2  0
 25 26  1  0
 26 27  2  0
 27 28  1  0
 28 29  1  0
 27 30  1  0
 30 31  2  0
  9 32  1  0
 32 33  1  0
 33  6  1  0
 20 13  1  0
 31 24  1  0
  1 34  1  0
  1 35  1  0
  1 36  1  0
  2 37  1  0
  2 38  1  0
  6 39  1  6
  7 40  1  0
  7 41  1  0
  8 42  1  0
  8 43  1  0
  9 44  1  1
 10 45  1  0
 10 46  1  0
 12 47  1  0
 12 48  1  0
 14 49  1  0
 15 50  1  0
 18 51  1  0
 18 52  1  0
 18 53  1  0
 19 54  1  0
 20 55  1  0
 25 56  1  0
 26 57  1  0
 29 58  1  0
 29 59  1  0
 29 60  1  0
 30 61  1  0
 31 62  1  0
 32 63  1  0
 32 64  1  0
 33 65  1  0
 33 66  1  0
M  END
>  <UniqueID>  (30) 
29

>  <SMILES>  (30) 
CCOC(=O)C1CCC(CN(Cc2ccc(OC)cc2)S(=O)(=O)c2ccc(OC)cc2)CC1

>  <Energy>  (30) 
63.13863005912891

>  <Genealogy>  (30) 
CCOC(=O)C1CCC(CN(Cc2ccc(OC)cc2)S(=O)(=O)c2ccc(OC)cc2)CC1 (3D coordinates assigned)
CCOC(=O)C1CCC(CN(Cc2ccc(OC)cc2)S(=O)(=O)c2ccc(OC)cc2)CC1 (nonaromatic ring conformer: 63.13863005912891 kcal/mol)

>  <smiles>  (30) 
CCOC(=O)C1CCC(CN(Cc2ccc(OC)cc2)S(=O)(=O)c2ccc(OC)cc2)CC1

>  <score_type>  (30) 
oracle

>  <origin>  (30) 
adg

>  <m_score__min__energy>  (30) 
-8.6799999999999997

>  <m_primary>  (30) 
energy

$$$$
30:0
     RDKit          3D

 43 45  0  0  1  0  0  0  0  0999 V2000
   59.2890   34.9660   45.2400 C   0  0  0  0  0  0  0  0  0  0  0  0
   57.8870   34.4800   45.5460 C   0  0  0  0  0  0  0  0  0  0  0  0
   57.5020   33.4990   44.4910 C   0  0  0  0  0  0  0  0  0  0  0  0
   57.5520   32.1420   44.9340 N   0  0  0  0  0  0  0  0  0  0  0  0
   56.6380   31.2200   44.6750 N   0  0  0  0  0  0  0  0  0  0  0  0
   57.0090   30.0670   45.2470 N   0  0  0  0  0  0  0  0  0  0  0  0
   58.1730   30.2730   45.8710 C   0  0  0  0  0  0  0  0  0  0  0  0
   59.0360   29.4950   46.6180 C   0  0  0  0  0  0  0  0  0  0  0  0
   58.7530   28.2610   46.8280 N   0  0  0  0  0  0  0  0  0  0  0  0
   59.6740   27.1780   46.4690 C   0  0  0  0  0  0  0  0  0  0  0  0
   60.2800   26.7500   47.8090 C   0  0  0  0  0  0  0  0  0  0  0  0
   61.0050   27.7570   48.4010 O   0  0  0  0  0  0  0  0  0  0  0  0
   60.7110   27.7800   49.7590 C   0  0  0  0  0  0  0  0  0  0  0  0
   60.1690   30.0340   47.1230 N   0  0  0  0  0  0  0  0  0  0  0  0
   60.5190   31.3150   46.9390 C   0  0  0  0  0  0  0  0  0  0  0  0
   61.7370   31.8960   47.4830 C   0  0  0  0  0  0  0  0  0  0  0  0
   62.4390   31.3430   48.5300 C   0  0  0  0  0  0  0  0  0  0  0  0
   63.5880   31.9380   49.0030 C   0  0  0  0  0  0  0  0  0  0  0  0
   64.0910   33.1100   48.4540 C   0  0  0  0  0  0  0  0  0  0  0  0
   63.3940   33.6670   47.4070 C   0  0  0  0  0  0  0  0  0  0  0  0
   62.2430   33.0610   46.9420 C   0  0  0  0  0  0  0  0  0  0  0  0
   59.6840   32.0780   46.2140 N   0  0  0  0  0  0  0  0  0  0  0  0
   58.5430   31.5940   45.6870 C   0  0  0  0  0  0  0  0  0  0  0  0
   59.8262   35.1522   46.1817 H   0  0  0  0  0  0  0  0  0  0  0  0
   59.8235   34.2007   44.6581 H   0  0  0  0  0  0  0  0  0  0  0  0
   59.2352   35.8979   44.6581 H   0  0  0  0  0  0  0  0  0  0  0  0
   57.8666   33.9948   46.5330 H   0  0  0  0  0  0  0  0  0  0  0  0
   57.1827   35.3249   45.5592 H   0  0  0  0  0  0  0  0  0  0  0  0
   56.4753   33.7220   44.1652 H   0  0  0  0  0  0  0  0  0  0  0  0
   58.2290   33.6006   43.6717 H   0  0  0  0  0  0  0  0  0  0  0  0
   59.1326   26.3432   45.9999 H   0  0  0  0  0  0  0  0  0  0  0  0
   60.4356   27.4930   45.7404 H   0  0  0  0  0  0  0  0  0  0  0  0
   59.4656   26.4552   48.4871 H   0  0  0  0  0  0  0  0  0  0  0  0
   60.9657   25.9120   47.6150 H   0  0  0  0  0  0  0  0  0  0  0  0
   61.6438   27.7070   50.3374 H   0  0  0  0  0  0  0  0  0  0  0  0
   60.1983   28.7210   50.0073 H   0  0  0  0  0  0  0  0  0  0  0  0
   60.0582   26.9302   50.0073 H   0  0  0  0  0  0  0  0  0  0  0  0
   60.7700   29.3890   47.6750 H   0  0  0  0  0  0  0  0  0  0  0  0
   62.0778   30.4139   48.9951 H   0  0  0  0  0  0  0  0  0  0  0  0
   64.1238   31.4699   49.8419 H   0  0  0  0  0  0  0  0  0  0  0  0
   65.0100   33.5745   48.8408 H   0  0  0  0  0  0  0  0  0  0  0  0
   63.7534   34.5957   46.9397 H   0  0  0  0  0  0  0  0  0  0  0  0
   61.7056   33.5275   46.1032 H   0  0  0  0  0  0  0  0  0  0  0  0
  1  2  1  0
  2  3  1  0
  3  4  1  0
  4  5  1  0
  5  6  2  0
  6  7  1  0
  7  8  1  0
  8  9  2  0
  9 10  1  0
 10 11  1  0
 11 12  1  0
 12 13  1  0
  8 14  1  0
 14 15  1  0
 15 16  1  0
 16 17  2  0
 17 18  1  0
 18 19  2  0
 19 20  1  0
 20 21  2  0
 15 22  2  0
 22 23  1  0
 23  4  1  0
 23  7  2  0
 21 16  1  0
  1 24  1  0
  1 25  1  0
  1 26  1  0
  2 27  1  0
  2 28  1  0
  3 29  1  0
  3 30  1  0
 10 31  1  0
 10 32  1  0
 11 33  1  0
 11 34  1  0
 13 35  1  0
 13 36  1  0
 13 37  1  0
 14 38  1  0
 17 39  1  0
 18 40  1  0
 19 41  1  0
 20 42  1  0
 21 43  1  0
M  END
>  <smiles>  (31) 
CCCn1nnc2c(=NCCOC)[nH]c(-c3ccccc3)nc21

>  <score_type>  (31) 
oracle

>  <origin>  (31) 
adg

>  <m_score__min__energy>  (31) 
-7.6600000000000001

>  <m_primary>  (31) 
energy

$$$$
31:0
     RDKit          3D

 51 52  0  0  0  0  0  0  0  0999 V2000
   58.8500   33.0440   51.7960 C   0  0  0  0  0  0  0  0  0  0  0  0
   59.3180   33.8090   50.6900 O   0  0  0  0  0  0  0  0  0  0  0  0
   59.7070   33.2770   49.4500 C   0  0  0  0  0  0  0  0  0  0  0  0
   58.8890   32.3530   48.7720 C   0  0  0  0  0  0  0  0  0  0  0  0
   59.2770   31.8160   47.5400 C   0  0  0  0  0  0  0  0  0  0  0  0
   58.3700   30.8600   46.8100 C   0  0  0  0  0  0  0  0  0  0  0  0
   58.1730   31.3110   45.3590 C   0  0  0  0  0  0  0  0  0  0  0  0
   58.3060   30.1290   44.3900 C   0  0  0  0  0  0  0  0  0  0  0  0
   58.0140   28.8160   45.0970 C   0  0  0  0  0  0  0  0  0  0  0  0
   59.0590   27.9800   45.5800 C   0  0  0  0  0  0  0  0  0  0  0  0
   60.5220   28.3610   45.4820 C   0  0  0  0  0  0  0  0  0  0  0  0
   60.8820   28.6080   44.1500 O   0  0  0  0  0  0  0  0  0  0  0  0
   58.7360   26.7520   46.1750 C   0  0  0  0  0  0  0  0  0  0  0  0
   57.4120   26.3490   46.3040 C   0  0  0  0  0  0  0  0  0  0  0  0
   56.3770   27.1560   45.8380 C   0  0  0  0  0  0  0  0  0  0  0  0
   55.0730   26.7020   45.9970 O   0  0  0  0  0  0  0  0  0  0  0  0
   56.6640   28.3980   45.2230 C   0  0  0  0  0  0  0  0  0  0  0  0
   55.6640   29.2540   44.7190 O   0  0  0  0  0  0  0  0  0  0  0  0
   55.5540   29.7380   43.3850 C   0  0  0  0  0  0  0  0  0  0  0  0
   60.4830   32.2230   46.9600 C   0  0  0  0  0  0  0  0  0  0  0  0
   61.3180   33.1440   47.6180 C   0  0  0  0  0  0  0  0  0  0  0  0
   62.5380   33.5640   47.0630 O   0  0  0  0  0  0  0  0  0  0  0  0
   63.7510   32.8190   47.1180 C   0  0  0  0  0  0  0  0  0  0  0  0
   60.9380   33.6730   48.8630 C   0  0  0  0  0  0  0  0  0  0  0  0
   61.8300   34.5870   49.4580 O   0  0  0  0  0  0  0  0  0  0  0  0
   62.9580   34.2700   50.2650 C   0  0  0  0  0  0  0  0  0  0  0  0
   59.1499   33.5342   52.7340 H   0  0  0  0  0  0  0  0  0  0  0  0
   57.7531   32.9721   51.7542 H   0  0  0  0  0  0  0  0  0  0  0  0
   59.2854   32.0347   51.7542 H   0  0  0  0  0  0  0  0  0  0  0  0
   57.9305   32.0489   49.2178 H   0  0  0  0  0  0  0  0  0  0  0  0
   58.8192   29.8559   46.8194 H   0  0  0  0  0  0  0  0  0  0  0  0
   57.3921   30.8421   47.3134 H   0  0  0  0  0  0  0  0  0  0  0  0
   57.1707   31.7516   45.2527 H   0  0  0  0  0  0  0  0  0  0  0  0
   58.9489   32.0516   45.1151 H   0  0  0  0  0  0  0  0  0  0  0  0
   57.5932   30.2592   43.5624 H   0  0  0  0  0  0  0  0  0  0  0  0
   59.3368   30.1015   44.0069 H   0  0  0  0  0  0  0  0  0  0  0  0
   60.6995   29.2683   46.0781 H   0  0  0  0  0  0  0  0  0  0  0  0
   61.1305   27.5280   45.8639 H   0  0  0  0  0  0  0  0  0  0  0  0
   61.7910   28.2280   44.0280 H   0  0  0  0  0  0  0  0  0  0  0  0
   59.5407   26.0993   46.5444 H   0  0  0  0  0  0  0  0  0  0  0  0
   57.1796   25.3841   46.7784 H   0  0  0  0  0  0  0  0  0  0  0  0
   55.3102   30.8105   43.4030 H   0  0  0  0  0  0  0  0  0  0  0  0
   56.5092   29.5878   42.8605 H   0  0  0  0  0  0  0  0  0  0  0  0
   54.7576   29.1897   42.8605 H   0  0  0  0  0  0  0  0  0  0  0  0
   60.7809   31.8194   45.9810 H   0  0  0  0  0  0  0  0  0  0  0  0
   64.0291   32.6482   48.1685 H   0  0  0  0  0  0  0  0  0  0  0  0
   63.6102   31.8514   46.6140 H   0  0  0  0  0  0  0  0  0  0  0  0
   64.5503   33.3821   46.6140 H   0  0  0  0  0  0  0  0  0  0  0  0
   62.6824   34.3475   51.3271 H   0  0  0  0  0  0  0  0  0  0  0  0
   63.2889   33.2441   50.0459 H   0  0  0  0  0  0  0  0  0  0  0  0
   63.7749   34.9734   50.0459 H   0  0  0  0  0  0  0  0  0  0  0  0
  1  2  1  0
  2  3  1  0
  3  4  2  0
  4  5  1  0
  5  6  1  0
  6  7  1  0
  7  8  1  0
  8  9  1  0
  9 10  2  0
 10 11  1  0
 11 12  1  0
 10 13  1  0
 13 14  2  0
 14 15  1  0
 15 16  1  0
 15 17  2  0
 17 18  1  0
 18 19  1  0
  5 20  2  0
 20 21  1  0
 21 22  1  0
 22 23  1  0
 21 24  2  0
 24 25  1  0
 25 26  1  0
 24  3  1  0
 17  9  1  0
  1 27  1  0
  1 28  1  0
  1 29  1  0
  4 30  1  0
  6 31  1  0
  6 32  1  0
  7 33  1  0
  7 34  1  0
  8 35  1  0
  8 36  1  0
 11 37  1  0
 11 38  1  0
 12 39  1  0
 13 40  1  0
 14 41  1  0
 19 42  1  0
 19 43  1  0
 19 44  1  0
 20 45  1  0
 23 46  1  0
 23 47  1  0
 23 48  1  0
 26 49  1  0
 26 50  1  0
 26 51  1  0
M  CHG  1  16  -1
M  END
>  <UniqueID>  (32) 
30

>  <SMILES>  (32) 
COc1cc(CCCc2c(CO)ccc([O-])c2OC)cc(OC)c1OC

>  <Energy>  (32) 
51.98394599850764

>  <Genealogy>  (32) 
COc1cc(CCCc2c(CO)ccc([O-])c2OC)cc(OC)c1OC (protonated)
COc1cc(CCCc2c(CO)ccc([O-])c2OC)cc(OC)c1OC (3D coordinates assigned)
COc1cc(CCCc2c(CO)ccc([O-])c2OC)cc(OC)c1OC (optimized conformer: 51.98394599850764 kcal/mol)

>  <smiles>  (32) 
COc1cc(CCCc2c(CO)ccc(O)c2OC)cc(OC)c1OC

>  <score_type>  (32) 
oracle

>  <origin>  (32) 
adg

>  <m_score__min__energy>  (32) 
-10.76

>  <m_primary>  (32) 
energy

$$$$
32:0
     RDKit          3D

 50 52  0  0  0  0  0  0  0  0999 V2000
   59.6890   22.2230   44.8570 C   0  0  0  0  0  0  0  0  0  0  0  0
   58.7920   21.5610   43.7970 C   0  0  0  0  0  0  0  0  0  0  0  0
   57.3280   21.5840   44.0970 N   0  0  2  0  0  0  0  0  0  0  0  0
   57.0110   20.9440   45.4000 C   0  0  0  0  0  0  0  0  0  0  0  0
   56.6340   20.9520   43.1000 O   0  0  0  0  0  0  0  0  0  0  0  0
   56.8320   22.9900   44.1520 C   0  0  0  0  0  0  0  0  0  0  0  0
   55.6180   23.1930   45.0860 C   0  0  0  0  0  0  0  0  0  0  0  0
   55.7770   24.4690   45.9210 C   0  0  0  0  0  0  0  0  0  0  0  0
   57.1250   24.9380   45.8730 O   0  0  0  0  0  0  0  0  0  0  0  0
   57.5260   26.2840   45.9070 C   0  0  0  0  0  0  0  0  0  0  0  0
   58.7100   26.5990   46.5840 C   0  0  0  0  0  0  0  0  0  0  0  0
   59.1610   27.9190   46.6570 C   0  0  0  0  0  0  0  0  0  0  0  0
   58.4340   28.9440   46.0500 C   0  0  0  0  0  0  0  0  0  0  0  0
   58.8720   30.1980   46.1290 O   0  0  0  0  0  0  0  0  0  0  0  0
   58.2320   31.2300   45.5800 C   0  0  0  0  0  0  0  0  0  0  0  0
   58.8110   32.5890   45.7290 C   0  0  0  0  0  0  0  0  0  0  0  0
   58.5030   33.6300   44.8310 C   0  0  0  0  0  0  0  0  0  0  0  0
   59.0560   34.9020   45.0040 C   0  0  0  0  0  0  0  0  0  0  0  0
   59.9170   35.1540   46.0750 C   0  0  0  0  0  0  0  0  0  0  0  0
   60.2200   34.1350   46.9800 C   0  0  0  0  0  0  0  0  0  0  0  0
   59.6690   32.8610   46.8120 C   0  0  0  0  0  0  0  0  0  0  0  0
   57.0410   31.0060   44.8670 C   0  0  0  0  0  0  0  0  0  0  0  0
   56.5420   29.7080   44.7580 C   0  0  0  0  0  0  0  0  0  0  0  0
   55.4750   29.5040   44.1190 O   0  0  0  0  0  0  0  0  0  0  0  0
   57.2400   28.6480   45.3580 C   0  0  0  0  0  0  0  0  0  0  0  0
   56.7920   27.3150   45.2870 C   0  0  0  0  0  0  0  0  0  0  0  0
   59.3278   21.9564   45.8612 H   0  0  0  0  0  0  0  0  0  0  0  0
   60.7236   21.8703   44.7339 H   0  0  0  0  0  0  0  0  0  0  0  0
   59.6570   23.3156   44.7339 H   0  0  0  0  0  0  0  0  0  0  0  0
   58.9518   22.0831   42.8421 H   0  0  0  0  0  0  0  0  0  0  0  0
   59.0815   20.5001   43.7720 H   0  0  0  0  0  0  0  0  0  0  0  0
   57.3364   21.6010   46.2200 H   0  0  0  0  0  0  0  0  0  0  0  0
   55.9261   20.7772   45.4723 H   0  0  0  0  0  0  0  0  0  0  0  0
   57.5358   19.9800   45.4723 H   0  0  0  0  0  0  0  0  0  0  0  0
   56.9820   20.0280   43.0030 H   0  0  0  0  0  0  0  0  0  0  0  0
   57.6518   23.6322   44.5061 H   0  0  0  0  0  0  0  0  0  0  0  0
   56.4985   23.2494   43.1364 H   0  0  0  0  0  0  0  0  0  0  0  0
   54.7049   23.2722   44.4777 H   0  0  0  0  0  0  0  0  0  0  0  0
   55.5519   22.3327   45.7682 H   0  0  0  0  0  0  0  0  0  0  0  0
   55.1094   25.2471   45.5224 H   0  0  0  0  0  0  0  0  0  0  0  0
   55.5178   24.2429   46.9659 H   0  0  0  0  0  0  0  0  0  0  0  0
   59.2917   25.7982   47.0638 H   0  0  0  0  0  0  0  0  0  0  0  0
   60.0921   28.1513   47.1946 H   0  0  0  0  0  0  0  0  0  0  0  0
   57.8225   33.4404   43.9878 H   0  0  0  0  0  0  0  0  0  0  0  0
   58.8126   35.7069   44.2949 H   0  0  0  0  0  0  0  0  0  0  0  0
   60.3557   36.1543   46.2051 H   0  0  0  0  0  0  0  0  0  0  0  0
   60.8933   34.3348   47.8266 H   0  0  0  0  0  0  0  0  0  0  0  0
   59.9078   32.0644   47.5320 H   0  0  0  0  0  0  0  0  0  0  0  0
   56.5076   31.8467   44.3994 H   0  0  0  0  0  0  0  0  0  0  0  0
   55.8648   27.0773   44.7451 H   0  0  0  0  0  0  0  0  0  0  0  0
  1  2  1  0
  2  3  1  0
  3  4  1  0
  3  5  1  6
  3  6  1  0
  6  7  1  0
  7  8  1  0
  8  9  1  0
  9 10  1  0
 10 11  2  0
 11 12  1  0
 12 13  2  0
 13 14  1  0
 14 15  1  0
 15 16  1  0
 16 17  2  0
 17 18  1  0
 18 19  2  0
 19 20  1  0
 20 21  2  0
 15 22  2  0
 22 23  1  0
 23 24  2  0
 23 25  1  0
 25 26  2  0
 26 10  1  0
 25 13  1  0
 21 16  1  0
  1 27  1  0
  1 28  1  0
  1 29  1  0
  2 30  1  0
  2 31  1  0
  4 32  1  0
  4 33  1  0
  4 34  1  0
  5 35  1  0
  6 36  1  0
  6 37  1  0
  7 38  1  0
  7 39  1  0
  8 40  1  0
  8 41  1  0
 11 42  1  0
 12 43  1  0
 17 44  1  0
 18 45  1  0
 19 46  1  0
 20 47  1  0
 21 48  1  0
 22 49  1  0
 26 50  1  0
M  CHG  1   3   1
M  END
>  <UniqueID>  (33) 
31

>  <SMILES>  (33) 
CC[N@+](C)(O)CCCOc1ccc2oc(-c3ccccc3)cc(=O)c2c1

>  <Energy>  (33) 
66.89529620173899

>  <Genealogy>  (33) 
CC[N+](C)(O)CCCOc1ccc2oc(-c3ccccc3)cc(=O)c2c1 (protonated)
CC[N@+](C)(O)CCCOc1ccc2oc(-c3ccccc3)cc(=O)c2c1 (chirality)
CC[N@+](C)(O)CCCOc1ccc2oc(-c3ccccc3)cc(=O)c2c1 (3D coordinates assigned)
CC[N@+](C)(O)CCCOc1ccc2oc(-c3ccccc3)cc(=O)c2c1 (optimized conformer: 66.89529620173899 kcal/mol)

>  <smiles>  (33) 
CC[N+](C)([O-])CCCOc1ccc2oc(-c3ccccc3)cc(=O)c2c1

>  <score_type>  (33) 
oracle

>  <origin>  (33) 
adg

>  <m_score__min__energy>  (33) 
-6.5599999999999996

>  <m_primary>  (33) 
energy

$$$$
33:0
     RDKit          3D

 62 67  0  0  0  0  0  0  0  0999 V2000
   66.6880   30.4320   51.8260 C   0  0  0  0  0  0  0  0  0  0  0  0
   65.4470   31.2720   51.7590 C   0  0  0  0  0  0  0  0  0  0  0  0
   64.8410   31.7350   52.9370 C   0  0  0  0  0  0  0  0  0  0  0  0
   63.7080   32.5480   52.8710 C   0  0  0  0  0  0  0  0  0  0  0  0
   63.1770   32.9150   51.6330 C   0  0  0  0  0  0  0  0  0  0  0  0
   63.7750   32.4650   50.4440 C   0  0  0  0  0  0  0  0  0  0  0  0
   63.2460   32.8560   49.1650 N   0  0  0  0  0  0  0  0  0  0  0  0
   63.8530   33.6900   48.3280 N   0  0  0  0  0  0  0  0  0  0  0  0
   63.1110   33.8120   47.2070 C   0  0  0  0  0  0  0  0  0  0  0  0
   61.9820   33.0340   47.3560 C   0  0  0  0  0  0  0  0  0  0  0  0
   62.1020   32.4400   48.5820 C   0  0  0  0  0  0  0  0  0  0  0  0
   61.2010   31.3580   49.0010 C   0  0  0  0  0  0  0  0  0  0  0  0
   60.1120   31.0890   48.2500 C   0  0  0  0  0  0  0  0  0  0  0  0
   59.3100   29.8240   48.5320 C   0  0  0  0  0  0  0  0  0  0  0  0
   58.9400   29.1100   47.2500 C   0  0  0  0  0  0  0  0  0  0  0  0
   58.4100   28.0130   47.3020 O   0  0  0  0  0  0  0  0  0  0  0  0
   59.2280   29.8020   45.9380 C   0  0  1  0  0  0  0  0  0  0  0  0
   58.6900   29.1890   44.6170 C   0  0  1  0  0  0  0  0  0  0  0  0
   58.7370   27.6910   44.3080 C   0  0  0  0  0  0  0  0  0  0  0  0
   57.9310   27.5800   43.0020 C   0  0  0  0  0  0  0  0  0  0  0  0
   57.0850   28.8190   42.9920 C   0  0  0  0  0  0  0  0  0  0  0  0
   56.2660   29.0630   42.1200 O   0  0  0  0  0  0  0  0  0  0  0  0
   57.3000   29.6820   44.1980 C   0  0  1  0  0  0  0  0  0  0  0  0
   56.1740   29.3250   45.2030 C   0  0  0  0  0  0  0  0  0  0  0  0
   57.3680   31.2180   43.9140 C   0  0  0  0  0  0  0  0  0  0  0  0
   58.4690   31.9630   44.7360 C   0  0  0  0  0  0  0  0  0  0  0  0
   58.7460   31.2800   46.1040 C   0  0  2  0  0  0  0  0  0  0  0  0
   59.6850   32.0510   47.1010 C   0  0  1  0  0  0  0  0  0  0  0  0
   58.9020   33.2240   47.7440 C   0  0  0  0  0  0  0  0  0  0  0  0
   60.9410   32.6310   46.3610 C   0  0  0  0  0  0  0  0  0  0  0  0
   64.9220   31.6560   50.5160 C   0  0  0  0  0  0  0  0  0  0  0  0
   66.9530   30.2526   52.8784 H   0  0  0  0  0  0  0  0  0  0  0  0
   66.5071   29.4699   51.3243 H   0  0  0  0  0  0  0  0  0  0  0  0
   67.5140   30.9575   51.3243 H   0  0  0  0  0  0  0  0  0  0  0  0
   65.2599   31.4565   53.9152 H   0  0  0  0  0  0  0  0  0  0  0  0
   63.2319   32.9007   53.7978 H   0  0  0  0  0  0  0  0  0  0  0  0
   62.2865   33.5593   51.5884 H   0  0  0  0  0  0  0  0  0  0  0  0
   64.7670   34.1620   48.5070 H   0  0  0  0  0  0  0  0  0  0  0  0
   63.3627   34.4245   46.3287 H   0  0  0  0  0  0  0  0  0  0  0  0
   61.4102   30.7769   49.9112 H   0  0  0  0  0  0  0  0  0  0  0  0
   59.9135   29.1490   49.1567 H   0  0  0  0  0  0  0  0  0  0  0  0
   58.3827   30.1093   49.0505 H   0  0  0  0  0  0  0  0  0  0  0  0
   60.3101   29.6836   45.7798 H   0  0  0  0  0  0  0  0  0  0  0  0
   59.5216   29.6014   44.0268 H   0  0  0  0  0  0  0  0  0  0  0  0
   59.7727   27.3497   44.1633 H   0  0  0  0  0  0  0  0  0  0  0  0
   58.3332   27.0686   45.1201 H   0  0  0  0  0  0  0  0  0  0  0  0
   58.6008   27.5567   42.1298 H   0  0  0  0  0  0  0  0  0  0  0  0
   57.3329   26.6582   42.9503 H   0  0  0  0  0  0  0  0  0  0  0  0
   56.5484   29.4437   46.2305 H   0  0  0  0  0  0  0  0  0  0  0  0
   55.3160   29.9952   45.0457 H   0  0  0  0  0  0  0  0  0  0  0  0
   55.8589   28.2829   45.0457 H   0  0  0  0  0  0  0  0  0  0  0  0
   57.5758   31.3640   42.8437 H   0  0  0  0  0  0  0  0  0  0  0  0
   56.3996   31.6431   44.2164 H   0  0  0  0  0  0  0  0  0  0  0  0
   59.4005   31.9742   44.1510 H   0  0  0  0  0  0  0  0  0  0  0  0
   58.1081   32.9828   44.9356 H   0  0  0  0  0  0  0  0  0  0  0  0
   57.7561   31.3008   46.5832 H   0  0  0  0  0  0  0  0  0  0  0  0
   58.9556   33.1437   48.8397 H   0  0  0  0  0  0  0  0  0  0  0  0
   59.3444   34.1790   47.4243 H   0  0  0  0  0  0  0  0  0  0  0  0
   57.8503   33.1818   47.4243 H   0  0  0  0  0  0  0  0  0  0  0  0
   61.3556   31.8632   45.6912 H   0  0  0  0  0  0  0  0  0  0  0  0
   60.6398   33.5133   45.7772 H   0  0  0  0  0  0  0  0  0  0  0  0
   65.4122   31.3211   49.5900 H   0  0  0  0  0  0  0  0  0  0  0  0
  1  2  1  0
  2  3  2  0
  3  4  1  0
  4  5  2  0
  5  6  1  0
  6  7  1  0
  7  8  1  0
  8  9  2  0
  9 10  1  0
 10 11  2  0
 11 12  1  0
 12 13  2  0
 13 14  1  0
 14 15  1  0
 15 16  2  0
 15 17  1  0
 17 18  1  0
 18 19  1  0
 19 20  1  0
 20 21  1  0
 21 22  2  0
 21 23  1  0
 23 24  1  1
 23 25  1  0
 25 26  1  0
 26 27  1  0
 27 28  1  0
 28 29  1  1
 28 30  1  0
  6 31  2  0
 31  2  1  0
 11  7  1  0
 28 13  1  0
 30 10  1  0
 27 17  1  0
 23 18  1  0
  1 32  1  0
  1 33  1  0
  1 34  1  0
  3 35  1  0
  4 36  1  0
  5 37  1  0
  8 38  1  0
  9 39  1  0
 12 40  1  0
 14 41  1  0
 14 42  1  0
 17 43  1  6
 18 44  1  6
 19 45  1  0
 19 46  1  0
 20 47  1  0
 20 48  1  0
 24 49  1  0
 24 50  1  0
 24 51  1  0
 25 52  1  0
 25 53  1  0
 26 54  1  0
 26 55  1  0
 27 56  1  1
 29 57  1  0
 29 58  1  0
 29 59  1  0
 30 60  1  0
 30 61  1  0
 31 62  1  0
M  CHG  1   8   1
M  END
>  <UniqueID>  (34) 
32

>  <SMILES>  (34) 
Cc1cccc(-n2[nH+]cc3c2C=C2CC(=O)[C@@H]4C(CCC5(C)C(=O)CC[C@H]45)C2(C)C3)c1

>  <Energy>  (34) 
142.39653434539434

>  <Genealogy>  (34) 
Cc1cccc(-n2[nH+]cc3c2C=C2CC(=O)C4C5CCC(=O)C5(C)CCC4C2(C)C3)c1 (protonated)
Cc1cccc(-n2[nH+]cc3c2C=C2CC(=O)[C@@H]4C(CCC5(C)C(=O)CC[C@H]45)C2(C)C3)c1 (chirality)
Cc1cccc(-n2[nH+]cc3c2C=C2CC(=O)[C@@H]4C(CCC5(C)C(=O)CC[C@H]45)C2(C)C3)c1 (3D coordinates assigned)
Cc1cccc(-n2[nH+]cc3c2C=C2CC(=O)[C@@H]4C(CCC5(C)C(=O)CC[C@H]45)C2(C)C3)c1 (nonaromatic ring conformer: 142.39653434539434 kcal/mol)

>  <smiles>  (34) 
Cc1cccc(-n2ncc3c2C=C2CC(=O)C4C5CCC(=O)C5(C)CCC4C2(C)C3)c1

>  <score_type>  (34) 
oracle

>  <origin>  (34) 
adg

>  <m_score__min__energy>  (34) 
-8.2300000000000004

>  <m_primary>  (34) 
energy

$$$$
34:0
     RDKit          3D

 41 44  0  0  0  0  0  0  0  0999 V2000
   57.8309   32.3708   43.4836 H   0  0  0  0  0  0  0  0  0  0  0  0
   57.8850   31.9080   44.4800 C   0  0  0  0  0  0  0  0  0  0  0  0
   57.5050   30.6260   44.5910 C   0  0  0  0  0  0  0  0  0  0  0  0
   56.1230   30.1500   44.4780 C   0  0  0  0  0  0  0  0  0  0  0  0
   55.1390   30.8460   44.1110 O   0  0  0  0  0  0  0  0  0  0  0  0
   56.0150   28.7890   44.8780 N   0  0  0  0  0  0  0  0  0  0  0  0
   55.1580   28.1920   44.8750 H   0  0  0  0  0  0  0  0  0  0  0  0
   57.3470   28.3940   45.1780 C   0  0  0  0  0  0  0  0  0  0  0  0
   57.7600   27.1020   45.4990 C   0  0  0  0  0  0  0  0  0  0  0  0
   57.0250   26.2995   45.6593 H   0  0  0  0  0  0  0  0  0  0  0  0
   59.1370   26.8490   45.6130 C   0  0  0  0  0  0  0  0  0  0  0  0
   59.6990   25.2390   46.0230 Cl  0  0  0  0  0  0  0  0  0  0  0  0
   60.0690   27.8730   45.3500 C   0  0  0  0  0  0  0  0  0  0  0  0
   61.1463   27.6605   45.4156 H   0  0  0  0  0  0  0  0  0  0  0  0
   59.6330   29.1620   45.0050 C   0  0  0  0  0  0  0  0  0  0  0  0
   60.3567   29.9498   44.7487 H   0  0  0  0  0  0  0  0  0  0  0  0
   58.2570   29.4240   44.9940 C   0  0  0  0  0  0  0  0  0  0  0  0
   58.3690   32.7410   45.5930 C   0  0  0  0  0  0  0  0  0  0  0  0
   58.6580   32.2980   46.7930 O   0  0  0  0  0  0  0  0  0  0  0  0
   58.9550   33.3210   47.5590 C   0  0  0  0  0  0  0  0  0  0  0  0
   59.3630   33.2180   49.0020 C   0  0  0  0  0  0  0  0  0  0  0  0
   59.0970   34.1579   49.5077 H   0  0  0  0  0  0  0  0  0  0  0  0
   58.8341   32.3529   49.4286 H   0  0  0  0  0  0  0  0  0  0  0  0
   60.8090   32.9800   49.1860 N   0  0  0  0  0  0  0  0  0  0  0  0
   61.3420   31.7420   48.5760 C   0  0  0  0  0  0  0  0  0  0  0  0
   62.1985   31.4018   49.1766 H   0  0  0  0  0  0  0  0  0  0  0  0
   60.5174   31.0141   48.5624 H   0  0  0  0  0  0  0  0  0  0  0  0
   61.8090   31.9110   47.1210 C   0  0  0  0  0  0  0  0  0  0  0  0
   62.4083   31.0283   46.8531 H   0  0  0  0  0  0  0  0  0  0  0  0
   60.8934   32.0250   46.5221 H   0  0  0  0  0  0  0  0  0  0  0  0
   62.8200   33.4040   46.7820 S   0  0  0  0  0  0  0  0  0  0  0  0
   63.0210   33.9690   48.4980 C   0  0  0  0  0  0  0  0  0  0  0  0
   63.5705   33.2067   49.0697 H   0  0  0  0  0  0  0  0  0  0  0  0
   63.5806   34.9160   48.5013 H   0  0  0  0  0  0  0  0  0  0  0  0
   61.6530   34.1950   49.1420 C   0  0  0  0  0  0  0  0  0  0  0  0
   61.8080   34.5478   50.1723 H   0  0  0  0  0  0  0  0  0  0  0  0
   61.1231   34.9327   48.5215 H   0  0  0  0  0  0  0  0  0  0  0  0
   58.8670   34.4920   46.8310 C   0  0  0  0  0  0  0  0  0  0  0  0
   59.0649   35.5128   47.1898 H   0  0  0  0  0  0  0  0  0  0  0  0
   58.4800   34.1170   45.5620 C   0  0  0  0  0  0  0  0  0  0  0  0
   58.2973   34.7779   44.7019 H   0  0  0  0  0  0  0  0  0  0  0  0
  1  2  1  0
  2  3  2  0
  3  4  1  0
  4  5  2  0
  4  6  1  0
  6  7  1  0
  6  8  1  0
  8  9  2  0
  9 10  1  0
  9 11  1  0
 11 12  1  0
 11 13  2  0
 13 14  1  0
 13 15  1  0
 15 16  1  0
 15 17  2  0
  2 18  1  0
 18 19  1  0
 19 20  1  0
 20 21  1  0
 21 22  1  0
 21 23  1  0
 21 24  1  0
 24 25  1  0
 25 26  1  0
 25 27  1  0
 25 28  1  0
 28 29  1  0
 28 30  1  0
 28 31  1  0
 31 32  1  0
 32 33  1  0
 32 34  1  0
 32 35  1  0
 35 36  1  0
 35 37  1  0
 20 38  2  0
 38 39  1  0
 38 40  1  0
 40 41  1  0
 17  3  1  0
 40 18  2  0
 17  8  1  0
 35 24  1  0
M  END
>  <UniqueID>  (35) 
33

>  <SMILES>  (35) 
O=C1Nc2cc(Cl)ccc2/C1=C\c1ccc(CN2CCSCC2)o1

>  <Energy>  (35) 
115.06472687469304

>  <Genealogy>  (35) 
O=C1Nc2cc(Cl)ccc2/C1=C\c1ccc(CN2CCSCC2)o1 (cis-trans isomerization)
O=C1Nc2cc(Cl)ccc2/C1=C\c1ccc(CN2CCSCC2)o1 (3D coordinates assigned)
O=C1Nc2cc(Cl)ccc2/C1=C\c1ccc(CN2CCSCC2)o1 (nonaromatic ring conformer: 115.06472687469304 kcal/mol)

>  <smiles>  (35) 
O=C1Nc2cc(Cl)ccc2C1=Cc1ccc(CN2CCSCC2)o1

>  <score_type>  (35) 
oracle

>  <origin>  (35) 
adg

>  <m_score__min__energy>  (35) 
-8.7100000000000009

>  <m_primary>  (35) 
energy

$$$$
35:0
     RDKit          3D

 43 45  0  0  0  0  0  0  0  0999 V2000
   57.0100   23.3810   43.7780 C   0  0  0  0  0  0  0  0  0  0  0  0
   57.8680   24.2910   44.4570 O   0  0  0  0  0  0  0  0  0  0  0  0
   57.7110   25.6840   44.4490 C   0  0  0  0  0  0  0  0  0  0  0  0
   58.0950   26.4820   43.3540 C   0  0  0  0  0  0  0  0  0  0  0  0
   57.9140   27.8680   43.3930 C   0  0  0  0  0  0  0  0  0  0  0  0
   57.3440   28.4750   44.5210 C   0  0  0  0  0  0  0  0  0  0  0  0
   57.0860   30.2210   44.5560 S   0  0  0  0  0  0  0  0  0  0  0  0
   55.6100   30.5060   44.5090 O   0  0  0  0  0  0  0  0  0  0  0  0
   57.7180   30.8410   43.3400 O   0  0  0  0  0  0  0  0  0  0  0  0
   57.7680   30.9390   45.9980 N   0  0  0  0  0  0  0  0  0  0  0  0
   58.2470   32.3090   45.7120 C   0  0  0  0  0  0  0  0  0  0  0  0
   59.2530   32.7960   46.7610 C   0  0  0  0  0  0  0  0  0  0  0  0
   60.3970   31.8760   46.8220 N   0  0  0  0  0  0  0  0  0  0  0  0
   61.6670   32.3310   47.3350 C   0  0  0  0  0  0  0  0  0  0  0  0
   62.3230   33.4200   46.7300 C   0  0  0  0  0  0  0  0  0  0  0  0
   63.5500   33.8710   47.2220 C   0  0  0  0  0  0  0  0  0  0  0  0
   64.1400   33.2390   48.3190 C   0  0  0  0  0  0  0  0  0  0  0  0
   63.5050   32.1530   48.9230 C   0  0  0  0  0  0  0  0  0  0  0  0
   62.2760   31.6960   48.4370 C   0  0  0  0  0  0  0  0  0  0  0  0
   61.7020   30.6140   49.0230 F   0  0  0  0  0  0  0  0  0  0  0  0
   60.2170   30.4860   46.3840 C   0  0  0  0  0  0  0  0  0  0  0  0
   58.7680   30.0430   46.6290 C   0  0  0  0  0  0  0  0  0  0  0  0
   56.9710   27.6830   45.6150 C   0  0  0  0  0  0  0  0  0  0  0  0
   57.1520   26.2970   45.5760 C   0  0  0  0  0  0  0  0  0  0  0  0
   56.4495   22.7865   44.5145 H   0  0  0  0  0  0  0  0  0  0  0  0
   56.3052   23.9427   43.1473 H   0  0  0  0  0  0  0  0  0  0  0  0
   57.6121   22.7104   43.1473 H   0  0  0  0  0  0  0  0  0  0  0  0
   58.5394   26.0128   42.4639 H   0  0  0  0  0  0  0  0  0  0  0  0
   58.2201   28.4847   42.5351 H   0  0  0  0  0  0  0  0  0  0  0  0
   58.7316   32.3169   44.7246 H   0  0  0  0  0  0  0  0  0  0  0  0
   57.3789   32.9842   45.7344 H   0  0  0  0  0  0  0  0  0  0  0  0
   59.6073   33.8009   46.4876 H   0  0  0  0  0  0  0  0  0  0  0  0
   58.7624   32.8295   47.7450 H   0  0  0  0  0  0  0  0  0  0  0  0
   61.8657   33.9195   45.8632 H   0  0  0  0  0  0  0  0  0  0  0  0
   64.0525   34.7253   46.7448 H   0  0  0  0  0  0  0  0  0  0  0  0
   65.1050   33.5973   48.7068 H   0  0  0  0  0  0  0  0  0  0  0  0
   63.9730   31.6545   49.7847 H   0  0  0  0  0  0  0  0  0  0  0  0
   60.4449   30.4097   45.3106 H   0  0  0  0  0  0  0  0  0  0  0  0
   60.8954   29.8360   46.9560 H   0  0  0  0  0  0  0  0  0  0  0  0
   58.6380   29.0305   46.2192 H   0  0  0  0  0  0  0  0  0  0  0  0
   58.5958   30.0746   47.7150 H   0  0  0  0  0  0  0  0  0  0  0  0
   56.5340   28.1534   46.5082 H   0  0  0  0  0  0  0  0  0  0  0  0
   56.8525   25.6834   46.4384 H   0  0  0  0  0  0  0  0  0  0  0  0
  1  2  1  0
  2  3  1  0
  3  4  2  0
  4  5  1  0
  5  6  2  0
  6  7  1  0
  7  8  2  0
  7  9  2  0
  7 10  1  0
 10 11  1  0
 11 12  1  0
 12 13  1  0
 13 14  1  0
 14 15  2  0
 15 16  1  0
 16 17  2  0
 17 18  1  0
 18 19  2  0
 19 20  1  0
 13 21  1  0
 21 22  1  0
  6 23  1  0
 23 24  2  0
 24  3  1  0
 22 10  1  0
 19 14  1  0
  1 25  1  0
  1 26  1  0
  1 27  1  0
  4 28  1  0
  5 29  1  0
 11 30  1  0
 11 31  1  0
 12 32  1  0
 12 33  1  0
 15 34  1  0
 16 35  1  0
 17 36  1  0
 18 37  1  0
 21 38  1  0
 21 39  1  0
 22 40  1  0
 22 41  1  0
 23 42  1  0
 24 43  1  0
M  END
>  <UniqueID>  (36) 
34

>  <SMILES>  (36) 
COc1ccc(S(=O)(=O)N2CCN(c3ccccc3F)CC2)cc1

>  <Energy>  (36) 
52.6086062283011

>  <Genealogy>  (36) 
COc1ccc(S(=O)(=O)N2CCN(c3ccccc3F)CC2)cc1 (3D coordinates assigned)
COc1ccc(S(=O)(=O)N2CCN(c3ccccc3F)CC2)cc1 (nonaromatic ring conformer: 52.6086062283011 kcal/mol)

>  <smiles>  (36) 
COc1ccc(S(=O)(=O)N2CCN(c3ccccc3F)CC2)cc1

>  <score_type>  (36) 
oracle

>  <origin>  (36) 
adg

>  <m_score__min__energy>  (36) 
-7.5700000000000003

>  <m_primary>  (36) 
energy

$$$$
36:0
     RDKit          3D

 44 46  0  0  0  0  0  0  0  0999 V2000
   59.8710   34.0430   49.3180 C   0  0  0  0  0  0  0  0  0  0  0  0
   61.0710   33.6840   48.4850 C   0  0  0  0  0  0  0  0  0  0  0  0
   62.0470   32.8200   49.0100 C   0  0  0  0  0  0  0  0  0  0  0  0
   63.1710   32.4780   48.2530 C   0  0  0  0  0  0  0  0  0  0  0  0
   63.3330   32.9940   46.9670 C   0  0  0  0  0  0  0  0  0  0  0  0
   62.3660   33.8470   46.4290 C   0  0  0  0  0  0  0  0  0  0  0  0
   61.2300   34.1880   47.1740 C   0  0  0  0  0  0  0  0  0  0  0  0
   60.0050   35.2730   46.4250 S   0  0  0  0  0  0  0  0  0  0  0  0
   58.9600   33.9060   45.9310 C   0  0  0  0  0  0  0  0  0  0  0  0
   57.6000   34.1230   45.6140 C   0  0  0  0  0  0  0  0  0  0  0  0
   56.7870   33.0400   45.2380 C   0  0  0  0  0  0  0  0  0  0  0  0
   57.3870   31.7890   45.1990 C   0  0  0  0  0  0  0  0  0  0  0  0
   56.8150   30.6050   44.9100 N   0  0  0  0  0  0  0  0  0  0  0  0
   57.7740   29.6890   45.0410 N   0  0  0  0  0  0  0  0  0  0  0  0
   58.9100   30.3340   45.4030 C   0  0  0  0  0  0  0  0  0  0  0  0
   60.2070   29.6550   45.7300 C   0  0  0  0  0  0  0  0  0  0  0  0
   59.9980   28.4030   46.5970 C   0  0  0  0  0  0  0  0  0  0  0  0
   59.3670   28.7050   47.9700 C   0  0  0  0  0  0  0  0  0  0  0  0
   59.9490   29.9100   48.6000 N   0  0  0  0  0  0  0  0  0  0  0  0
   60.7830   29.5290   49.7500 C   0  0  0  0  0  0  0  0  0  0  0  0
   58.8990   30.8450   49.0430 C   0  0  0  0  0  0  0  0  0  0  0  0
   58.6760   31.6470   45.5050 N   0  0  0  0  0  0  0  0  0  0  0  0
   59.4730   32.6450   45.8720 N   0  0  0  0  0  0  0  0  0  0  0  0
   60.1287   33.9659   50.3846 H   0  0  0  0  0  0  0  0  0  0  0  0
   59.5608   35.0733   49.0893 H   0  0  0  0  0  0  0  0  0  0  0  0
   59.0460   33.3523   49.0893 H   0  0  0  0  0  0  0  0  0  0  0  0
   61.9256   32.4101   50.0235 H   0  0  0  0  0  0  0  0  0  0  0  0
   63.9295   31.8005   48.6721 H   0  0  0  0  0  0  0  0  0  0  0  0
   64.2224   32.7292   46.3764 H   0  0  0  0  0  0  0  0  0  0  0  0
   62.4975   34.2529   45.4151 H   0  0  0  0  0  0  0  0  0  0  0  0
   57.1784   35.1379   45.6615 H   0  0  0  0  0  0  0  0  0  0  0  0
   55.7250   33.1773   44.9864 H   0  0  0  0  0  0  0  0  0  0  0  0
   60.6997   29.3594   44.7920 H   0  0  0  0  0  0  0  0  0  0  0  0
   60.8276   30.3630   46.2989 H   0  0  0  0  0  0  0  0  0  0  0  0
   59.3374   27.7103   46.0549 H   0  0  0  0  0  0  0  0  0  0  0  0
   60.9916   27.9702   46.7855 H   0  0  0  0  0  0  0  0  0  0  0  0
   58.2865   28.8620   47.8364 H   0  0  0  0  0  0  0  0  0  0  0  0
   59.5687   27.8483   48.6299 H   0  0  0  0  0  0  0  0  0  0  0  0
   60.2533   29.7710   50.6832 H   0  0  0  0  0  0  0  0  0  0  0  0
   60.9865   28.4486   49.7134 H   0  0  0  0  0  0  0  0  0  0  0  0
   61.7329   30.0825   49.7134 H   0  0  0  0  0  0  0  0  0  0  0  0
   58.8706   30.8703   50.1423 H   0  0  0  0  0  0  0  0  0  0  0  0
   59.1187   31.8520   48.6586 H   0  0  0  0  0  0  0  0  0  0  0  0
   57.9242   30.5105   48.6586 H   0  0  0  0  0  0  0  0  0  0  0  0
  1  2  1  0
  2  3  2  0
  3  4  1  0
  4  5  2  0
  5  6  1  0
  6  7  2  0
  7  8  1  0
  8  9  1  0
  9 10  1  0
 10 11  2  0
 11 12  1  0
 12 13  2  0
 13 14  1  0
 14 15  2  0
 15 16  1  0
 16 17  1  0
 17 18  1  0
 18 19  1  0
 19 20  1  0
 19 21  1  0
 15 22  1  0
 22 23  1  0
  7  2  1  0
 23  9  2  0
 22 12  1  0
  1 24  1  0
  1 25  1  0
  1 26  1  0
  3 27  1  0
  4 28  1  0
  5 29  1  0
  6 30  1  0
 10 31  1  0
 11 32  1  0
 16 33  1  0
 16 34  1  0
 17 35  1  0
 17 36  1  0
 18 37  1  0
 18 38  1  0
 20 39  1  0
 20 40  1  0
 20 41  1  0
 21 42  1  0
 21 43  1  0
 21 44  1  0
M  END
>  <UniqueID>  (37) 
35

>  <SMILES>  (37) 
Cc1ccccc1Sc1ccc2nnc(CCCN(C)C)n2n1

>  <Energy>  (37) 
79.2909394587484

>  <Genealogy>  (37) 
Cc1ccccc1Sc1ccc2nnc(CCCN(C)C)n2n1 (3D coordinates assigned)
Cc1ccccc1Sc1ccc2nnc(CCCN(C)C)n2n1 (optimized conformer: 79.2909394587484 kcal/mol)

>  <smiles>  (37) 
Cc1ccccc1Sc1ccc2nnc(CCCN(C)C)n2n1

>  <score_type>  (37) 
oracle

>  <origin>  (37) 
adg

>  <m_score__min__energy>  (37) 
-7.8899999999999997

>  <m_primary>  (37) 
energy

$$$$
37:0
     RDKit          3D

 47 49  0  0  0  0  0  0  0  0999 V2000
   57.4890   34.5800   44.8630 C   0  0  0  0  0  0  0  0  0  0  0  0
   57.0560   33.5100   45.8620 C   0  0  0  0  0  0  0  0  0  0  0  0
   57.9820   32.3570   45.8240 N   0  0  0  0  0  0  0  0  0  0  0  0
   59.2290   32.4010   46.4210 C   0  0  0  0  0  0  0  0  0  0  0  0
   59.7900   33.6340   47.1130 C   0  0  0  0  0  0  0  0  0  0  0  0
   61.1330   33.4300   47.7040 N   0  0  0  0  0  0  0  0  0  0  0  0
   61.3430   34.1780   48.9620 C   0  0  0  0  0  0  0  0  0  0  0  0
   62.8170   34.1090   49.4240 C   0  0  0  0  0  0  0  0  0  0  0  0
   63.5110   32.9590   48.8050 N   0  0  0  0  0  0  0  0  0  0  0  0
   64.8560   32.7100   49.3850 C   0  0  0  0  0  0  0  0  0  0  0  0
   65.0900   33.3320   50.7710 C   0  0  0  0  0  0  0  0  0  0  0  0
   63.5500   33.0780   47.3250 C   0  0  0  0  0  0  0  0  0  0  0  0
   62.2360   33.6530   46.7530 C   0  0  0  0  0  0  0  0  0  0  0  0
   60.0190   31.2950   46.4180 N   0  0  0  0  0  0  0  0  0  0  0  0
   59.6370   30.1360   45.8370 C   0  0  0  0  0  0  0  0  0  0  0  0
   60.4940   29.0290   45.8530 C   0  0  0  0  0  0  0  0  0  0  0  0
   60.0970   27.8300   45.2530 C   0  0  0  0  0  0  0  0  0  0  0  0
   58.8450   27.7350   44.6400 C   0  0  0  0  0  0  0  0  0  0  0  0
   57.9850   28.8380   44.6220 C   0  0  0  0  0  0  0  0  0  0  0  0
   58.3790   30.0500   45.2220 C   0  0  0  0  0  0  0  0  0  0  0  0
   57.5520   31.1860   45.2380 C   0  0  0  0  0  0  0  0  0  0  0  0
   56.4050   31.1200   44.7140 O   0  0  0  0  0  0  0  0  0  0  0  0
   57.8476   35.4661   45.4072 H   0  0  0  0  0  0  0  0  0  0  0  0
   58.2983   34.1855   44.2310 H   0  0  0  0  0  0  0  0  0  0  0  0
   56.6331   34.8594   44.2310 H   0  0  0  0  0  0  0  0  0  0  0  0
   57.0553   33.9399   46.8745 H   0  0  0  0  0  0  0  0  0  0  0  0
   56.0468   33.1633   45.5951 H   0  0  0  0  0  0  0  0  0  0  0  0
   59.8562   34.4462   46.3741 H   0  0  0  0  0  0  0  0  0  0  0  0
   59.1084   33.8733   47.9425 H   0  0  0  0  0  0  0  0  0  0  0  0
   61.0677   35.2309   48.8018 H   0  0  0  0  0  0  0  0  0  0  0  0
   60.7154   33.7231   49.7425 H   0  0  0  0  0  0  0  0  0  0  0  0
   63.3294   35.0379   49.1331 H   0  0  0  0  0  0  0  0  0  0  0  0
   62.8373   33.9849   50.5168 H   0  0  0  0  0  0  0  0  0  0  0  0
   62.9470   32.1030   49.0270 H   0  0  0  0  0  0  0  0  0  0  0  0
   64.9946   31.6222   49.4712 H   0  0  0  0  0  0  0  0  0  0  0  0
   65.5773   33.1893   48.7067 H   0  0  0  0  0  0  0  0  0  0  0  0
   64.8165   32.6051   51.5500 H   0  0  0  0  0  0  0  0  0  0  0  0
   66.1511   33.6018   50.8774 H   0  0  0  0  0  0  0  0  0  0  0  0
   64.4698   34.2343   50.8774 H   0  0  0  0  0  0  0  0  0  0  0  0
   64.3799   33.7433   47.0445 H   0  0  0  0  0  0  0  0  0  0  0  0
   63.6880   32.0695   46.9079 H   0  0  0  0  0  0  0  0  0  0  0  0
   62.3555   34.7328   46.5802 H   0  0  0  0  0  0  0  0  0  0  0  0
   62.0030   33.1473   45.8043 H   0  0  0  0  0  0  0  0  0  0  0  0
   61.4789   29.1024   46.3372 H   0  0  0  0  0  0  0  0  0  0  0  0
   60.7710   26.9607   45.2636 H   0  0  0  0  0  0  0  0  0  0  0  0
   58.5347   26.7900   44.1702 H   0  0  0  0  0  0  0  0  0  0  0  0
   57.0000   28.7589   44.1388 H   0  0  0  0  0  0  0  0  0  0  0  0
  1  2  1  0
  2  3  1  0
  3  4  1  0
  4  5  1  0
  5  6  1  0
  6  7  1  0
  7  8  1  0
  8  9  1  0
  9 10  1  0
 10 11  1  0
  9 12  1  0
 12 13  1  0
  4 14  2  0
 14 15  1  0
 15 16  2  0
 16 17  1  0
 17 18  2  0
 18 19  1  0
 19 20  2  0
 20 21  1  0
 21 22  2  0
 21  3  1  0
 13  6  1  0
 20 15  1  0
  1 23  1  0
  1 24  1  0
  1 25  1  0
  2 26  1  0
  2 27  1  0
  5 28  1  0
  5 29  1  0
  7 30  1  0
  7 31  1  0
  8 32  1  0
  8 33  1  0
  9 34  1  0
 10 35  1  0
 10 36  1  0
 11 37  1  0
 11 38  1  0
 11 39  1  0
 12 40  1  0
 12 41  1  0
 13 42  1  0
 13 43  1  0
 16 44  1  0
 17 45  1  0
 18 46  1  0
 19 47  1  0
M  CHG  1   9   1
M  END
>  <UniqueID>  (38) 
36

>  <SMILES>  (38) 
CCn1c(CN2CC[NH+](CC)CC2)nc2ccccc2c1=O

>  <Energy>  (38) 
68.95586697856756

>  <Genealogy>  (38) 
CCn1c(CN2CC[NH+](CC)CC2)nc2ccccc2c1=O (protonated)
CCn1c(CN2CC[NH+](CC)CC2)nc2ccccc2c1=O (3D coordinates assigned)
CCn1c(CN2CC[NH+](CC)CC2)nc2ccccc2c1=O (nonaromatic ring conformer: 68.95586697856756 kcal/mol)

>  <smiles>  (38) 
CCN1CCN(Cc2nc3ccccc3c(=O)n2CC)CC1

>  <score_type>  (38) 
oracle

>  <origin>  (38) 
adg

>  <m_score__min__energy>  (38) 
-5.8499999999999996

>  <m_primary>  (38) 
energy

$$$$
38:0
     RDKit          3D

 30 31  0  0  0  0  0  0  0  0999 V2000
   53.7980   26.3210   45.9450 H   0  0  0  0  0  0  0  0  0  0  0  0
   54.7570   25.9540   45.7510 N   0  0  0  0  0  0  0  0  0  0  0  0
   55.8130   26.6560   46.0010 C   0  0  0  0  0  0  0  0  0  0  0  0
   56.8130   26.1420   46.7680 N   0  0  0  0  0  0  0  0  0  0  0  0
   57.9330   26.8620   47.0430 C   0  0  0  0  0  0  0  0  0  0  0  0
   58.8340   26.3500   47.7600 O   0  0  0  0  0  0  0  0  0  0  0  0
   58.0660   28.1620   46.5280 C   0  0  0  0  0  0  0  0  0  0  0  0
   59.1890   28.9680   46.7710 C   0  0  0  0  0  0  0  0  0  0  0  0
   60.0147   28.5835   47.3877 H   0  0  0  0  0  0  0  0  0  0  0  0
   59.2650   30.2660   46.2300 C   0  0  0  0  0  0  0  0  0  0  0  0
   60.4650   31.1130   46.5080 C   0  0  0  0  0  0  0  0  0  0  0  0
   61.5710   30.5400   46.7220 O   0  0  0  0  0  0  0  0  0  0  0  0
   60.3870   32.5630   46.5710 N   0  0  2  0  0  0  0  0  0  0  0  0
   60.2420   32.9260   45.6020 H   0  0  0  0  0  0  0  0  0  0  0  0
   61.6660   33.1600   47.0040 C   0  0  0  0  0  0  0  0  0  0  0  0
   61.7080   33.1796   48.1030 H   0  0  0  0  0  0  0  0  0  0  0  0
   62.5013   32.5587   46.6158 H   0  0  0  0  0  0  0  0  0  0  0  0
   61.7416   34.1864   46.6158 H   0  0  0  0  0  0  0  0  0  0  0  0
   59.2390   33.0290   47.3900 C   0  0  0  0  0  0  0  0  0  0  0  0
   58.6721   32.1445   47.7162 H   0  0  0  0  0  0  0  0  0  0  0  0
   59.6706   33.6048   48.2219 H   0  0  0  0  0  0  0  0  0  0  0  0
   58.2660   33.9800   46.6710 C   0  0  0  0  0  0  0  0  0  0  0  0
   57.2803   33.4974   46.5974 H   0  0  0  0  0  0  0  0  0  0  0  0
   58.1970   34.9129   47.2497 H   0  0  0  0  0  0  0  0  0  0  0  0
   58.7170   34.2840   45.3980 F   0  0  0  0  0  0  0  0  0  0  0  0
   58.1860   30.7210   45.4470 C   0  0  0  0  0  0  0  0  0  0  0  0
   58.2179   31.7297   45.0094 H   0  0  0  0  0  0  0  0  0  0  0  0
   57.1060   29.9260   45.2270 N   0  0  0  0  0  0  0  0  0  0  0  0
   57.0200   28.6720   45.7410 C   0  0  0  0  0  0  0  0  0  0  0  0
   55.9220   27.9120   45.4950 N   0  0  0  0  0  0  0  0  0  0  0  0
  1  2  1  0
  2  3  2  0
  3  4  1  0
  4  5  1  0
  5  6  2  0
  5  7  1  0
  7  8  2  0
  8  9  1  0
  8 10  1  0
 10 11  1  0
 11 12  2  0
 11 13  1  0
 13 14  1  6
 13 15  1  0
 15 16  1  0
 15 17  1  0
 15 18  1  0
 13 19  1  0
 19 20  1  0
 19 21  1  0
 19 22  1  0
 22 23  1  0
 22 24  1  0
 22 25  1  0
 10 26  2  0
 26 27  1  0
 26 28  1  0
 28 29  2  0
 29 30  1  0
 30  3  1  0
 29  7  1  0
M  CHG  3   4  -1  13   1  30  -1
M  END
>  <UniqueID>  (39) 
37

>  <SMILES>  (39) 
[H]/N=c1\[n-]c(=O)c2cc(C(=O)[N@H+](C)CCF)cnc2[n-]1

>  <Energy>  (39) 
42.56390250060705

>  <Genealogy>  (39) 
C[NH+](CCF)C(=O)c1cnc2[n-]c(=N)[n-]c(=O)c2c1 (protonated)
C[N@H+](CCF)C(=O)c1cnc2[n-]c(=N)[n-]c(=O)c2c1 (chirality)
[H]/N=c1\[n-]c(=O)c2cc(C(=O)[N@H+](C)CCF)cnc2[n-]1 (cis-trans isomerization)
[H]/N=c1\[n-]c(=O)c2cc(C(=O)[N@H+](C)CCF)cnc2[n-]1 (3D coordinates assigned)
[H]/N=c1\[n-]c(=O)c2cc(C(=O)[N@H+](C)CCF)cnc2[n-]1 (optimized conformer: 42.56390250060705 kcal/mol)

>  <smiles>  (39) 
CN(CCF)C(=O)c1cnc2[nH]c(=N)[nH]c(=O)c2c1

>  <score_type>  (39) 
oracle

>  <origin>  (39) 
adg

>  <m_score__min__energy>  (39) 
-8.5600000000000005

>  <m_primary>  (39) 
energy

$$$$
39:0
     RDKit          3D

 52 54  0  0  0  0  0  0  0  0999 V2000
   60.7180   29.6890   48.0310 C   0  0  0  0  0  0  0  0  0  0  0  0
   61.3960   30.6830   47.0920 C   0  0  0  0  0  0  0  0  0  0  0  0
   62.5270   31.4710   47.7660 C   0  0  0  0  0  0  0  0  0  0  0  0
   62.0690   32.8300   48.1430 N   0  0  0  0  0  0  0  0  0  0  0  0
   62.1880   33.8100   47.0310 C   0  0  0  0  0  0  0  0  0  0  0  0
   60.8280   34.1460   46.4010 C   0  0  0  0  0  0  0  0  0  0  0  0
   59.8980   34.7370   47.3950 N   0  0  0  0  0  0  0  0  0  0  0  0
   58.4930   34.6200   46.9520 C   0  0  0  0  0  0  0  0  0  0  0  0
   58.3430   33.5400   45.9100 C   0  0  0  0  0  0  0  0  0  0  0  0
   58.0630   33.8720   44.5750 C   0  0  0  0  0  0  0  0  0  0  0  0
   57.8790   32.8660   43.6250 C   0  0  0  0  0  0  0  0  0  0  0  0
   57.9780   31.5230   43.9970 C   0  0  0  0  0  0  0  0  0  0  0  0
   58.2760   31.1720   45.3210 C   0  0  0  0  0  0  0  0  0  0  0  0
   58.3420   29.7830   45.6840 N   0  0  0  0  0  0  0  0  0  0  0  0
   57.2300   28.8730   45.5750 C   0  0  0  0  0  0  0  0  0  0  0  0
   56.0930   29.3060   45.2400 O   0  0  0  0  0  0  0  0  0  0  0  0
   57.3890   27.4250   45.8560 C   0  0  0  0  0  0  0  0  0  0  0  0
   56.2490   26.6080   45.9690 C   0  0  0  0  0  0  0  0  0  0  0  0
   56.3780   25.2420   46.2370 C   0  0  0  0  0  0  0  0  0  0  0  0
   57.6440   24.6770   46.4030 C   0  0  0  0  0  0  0  0  0  0  0  0
   58.7830   25.4790   46.3090 C   0  0  0  0  0  0  0  0  0  0  0  0
   58.6610   26.8460   46.0390 C   0  0  0  0  0  0  0  0  0  0  0  0
   58.4360   32.1900   46.2800 C   0  0  0  0  0  0  0  0  0  0  0  0
   60.0830   34.1930   48.7650 C   0  0  0  0  0  0  0  0  0  0  0  0
   60.7210   32.7980   48.7550 C   0  0  0  0  0  0  0  0  0  0  0  0
   60.9147   29.9773   49.0742 H   0  0  0  0  0  0  0  0  0  0  0  0
   59.6334   29.6927   47.8478 H   0  0  0  0  0  0  0  0  0  0  0  0
   61.1173   28.6805   47.8478 H   0  0  0  0  0  0  0  0  0  0  0  0
   61.8150   30.1292   46.2390 H   0  0  0  0  0  0  0  0  0  0  0  0
   60.6327   31.4093   46.7760 H   0  0  0  0  0  0  0  0  0  0  0  0
   62.8504   30.9354   48.6707 H   0  0  0  0  0  0  0  0  0  0  0  0
   63.3630   31.5644   47.0572 H   0  0  0  0  0  0  0  0  0  0  0  0
   62.6350   34.7359   47.4220 H   0  0  0  0  0  0  0  0  0  0  0  0
   62.8176   33.3579   46.2504 H   0  0  0  0  0  0  0  0  0  0  0  0
   60.9812   34.8655   45.5832 H   0  0  0  0  0  0  0  0  0  0  0  0
   60.3827   33.2133   46.0245 H   0  0  0  0  0  0  0  0  0  0  0  0
   57.8619   34.3738   47.8187 H   0  0  0  0  0  0  0  0  0  0  0  0
   58.1839   35.5787   46.5101 H   0  0  0  0  0  0  0  0  0  0  0  0
   57.9884   34.9281   44.2767 H   0  0  0  0  0  0  0  0  0  0  0  0
   57.6556   33.1312   42.5811 H   0  0  0  0  0  0  0  0  0  0  0  0
   57.8210   30.7353   43.2455 H   0  0  0  0  0  0  0  0  0  0  0  0
   59.2400   29.4450   46.0940 H   0  0  0  0  0  0  0  0  0  0  0  0
   55.2483   27.0476   45.8455 H   0  0  0  0  0  0  0  0  0  0  0  0
   55.4805   24.6111   46.3172 H   0  0  0  0  0  0  0  0  0  0  0  0
   57.7439   23.6008   46.6077 H   0  0  0  0  0  0  0  0  0  0  0  0
   59.7795   25.0344   46.4477 H   0  0  0  0  0  0  0  0  0  0  0  0
   59.5625   27.4725   45.9691 H   0  0  0  0  0  0  0  0  0  0  0  0
   58.6357   31.9246   47.3287 H   0  0  0  0  0  0  0  0  0  0  0  0
   60.7331   34.8755   49.3320 H   0  0  0  0  0  0  0  0  0  0  0  0
   59.0899   34.1061   49.2300 H   0  0  0  0  0  0  0  0  0  0  0  0
   60.8053   32.4346   49.7898 H   0  0  0  0  0  0  0  0  0  0  0  0
   60.0838   32.1279   48.1592 H   0  0  0  0  0  0  0  0  0  0  0  0
  1  2  1  0
  2  3  1  0
  3  4  1  0
  4  5  1  0
  5  6  1  0
  6  7  1  0
  7  8  1  0
  8  9  1  0
  9 10  2  0
 10 11  1  0
 11 12  2  0
 12 13  1  0
 13 14  1  0
 14 15  1  0
 15 16  2  0
 15 17  1  0
 17 18  2  0
 18 19  1  0
 19 20  2  0
 20 21  1  0
 21 22  2  0
 13 23  2  0
  7 24  1  0
 24 25  1  0
 25  4  1  0
 23  9  1  0
 22 17  1  0
  1 26  1  0
  1 27  1  0
  1 28  1  0
  2 29  1  0
  2 30  1  0
  3 31  1  0
  3 32  1  0
  5 33  1  0
  5 34  1  0
  6 35  1  0
  6 36  1  0
  8 37  1  0
  8 38  1  0
 10 39  1  0
 11 40  1  0
 12 41  1  0
 14 42  1  0
 18 43  1  0
 19 44  1  0
 20 45  1  0
 21 46  1  0
 22 47  1  0
 23 48  1  0
 24 49  1  0
 24 50  1  0
 25 51  1  0
 25 52  1  0
M  END
>  <UniqueID>  (40) 
38

>  <SMILES>  (40) 
CCCN1CCN(Cc2cccc(NC(=O)c3ccccc3)c2)CC1

>  <Energy>  (40) 
70.77789532014614

>  <Genealogy>  (40) 
CCCN1CCN(Cc2cccc(NC(=O)c3ccccc3)c2)CC1 (3D coordinates assigned)
CCCN1CCN(Cc2cccc(NC(=O)c3ccccc3)c2)CC1 (nonaromatic ring conformer: 70.77789532014614 kcal/mol)

>  <smiles>  (40) 
CCCN1CCN(Cc2cccc(NC(=O)c3ccccc3)c2)CC1

>  <score_type>  (40) 
oracle

>  <origin>  (40) 
adg

>  <m_score__min__energy>  (40) 
-7.75

>  <m_primary>  (40) 
energy

$$$$
40:0
     RDKit          3D

 41 43  0  0  0  0  0  0  0  0999 V2000
   60.4060   34.5770   48.6390 C   0  0  0  0  0  0  0  0  0  0  0  0
   60.3730   34.3190   47.2390 O   0  0  0  0  0  0  0  0  0  0  0  0
   59.3660   33.5880   46.5890 C   0  0  0  0  0  0  0  0  0  0  0  0
   58.3100   34.2180   45.9020 C   0  0  0  0  0  0  0  0  0  0  0  0
   57.3400   33.4540   45.2460 C   0  0  0  0  0  0  0  0  0  0  0  0
   57.4110   32.0550   45.2680 C   0  0  0  0  0  0  0  0  0  0  0  0
   56.4310   31.2570   44.5950 N   0  0  0  0  0  0  0  0  0  0  0  0
   56.4680   29.8270   44.4860 C   0  0  0  0  0  0  0  0  0  0  0  0
   55.4760   29.1610   44.8830 O   0  0  0  0  0  0  0  0  0  0  0  0
   57.6780   29.0950   43.9620 C   0  0  0  0  0  0  0  0  0  0  0  0
   58.0030   27.8920   44.8130 C   0  0  0  0  0  0  0  0  0  0  0  0
   58.5820   28.0630   46.0800 C   0  0  0  0  0  0  0  0  0  0  0  0
   58.9200   26.9540   46.8540 C   0  0  0  0  0  0  0  0  0  0  0  0
   58.6860   25.6640   46.3740 C   0  0  0  0  0  0  0  0  0  0  0  0
   58.1020   25.4630   45.1090 C   0  0  0  0  0  0  0  0  0  0  0  0
   57.8610   24.0760   44.6210 C   0  0  0  0  0  0  0  0  0  0  0  0
   56.8180   23.7670   43.7270 C   0  0  0  0  0  0  0  0  0  0  0  0
   56.6520   22.4510   43.2880 C   0  0  0  0  0  0  0  0  0  0  0  0
   57.5180   21.4530   43.7350 C   0  0  0  0  0  0  0  0  0  0  0  0
   58.5440   21.7880   44.6160 C   0  0  0  0  0  0  0  0  0  0  0  0
   58.6930   23.0740   45.0320 N   0  0  0  0  0  0  0  0  0  0  0  0
   57.7450   26.5930   44.3430 C   0  0  0  0  0  0  0  0  0  0  0  0
   58.4380   31.4260   45.9790 C   0  0  0  0  0  0  0  0  0  0  0  0
   59.4200   32.1860   46.6220 C   0  0  0  0  0  0  0  0  0  0  0  0
   60.7270   31.3650   47.4610 Cl  0  0  0  0  0  0  0  0  0  0  0  0
   60.2851   33.6320   49.1889 H   0  0  0  0  0  0  0  0  0  0  0  0
   61.3701   35.0352   48.9048 H   0  0  0  0  0  0  0  0  0  0  0  0
   59.5883   35.2631   48.9048 H   0  0  0  0  0  0  0  0  0  0  0  0
   58.2482   35.3161   45.8815 H   0  0  0  0  0  0  0  0  0  0  0  0
   56.5186   33.9529   44.7110 H   0  0  0  0  0  0  0  0  0  0  0  0
   57.4774   28.7622   42.9329 H   0  0  0  0  0  0  0  0  0  0  0  0
   58.5372   29.7813   43.9889 H   0  0  0  0  0  0  0  0  0  0  0  0
   58.7699   29.0766   46.4639 H   0  0  0  0  0  0  0  0  0  0  0  0
   59.3727   27.0957   47.8465 H   0  0  0  0  0  0  0  0  0  0  0  0
   58.9609   24.7956   46.9907 H   0  0  0  0  0  0  0  0  0  0  0  0
   56.1378   24.5571   43.3762 H   0  0  0  0  0  0  0  0  0  0  0  0
   55.8389   22.2021   42.5903 H   0  0  0  0  0  0  0  0  0  0  0  0
   57.3924   20.4141   43.3960 H   0  0  0  0  0  0  0  0  0  0  0  0
   59.2346   21.0110   44.9756 H   0  0  0  0  0  0  0  0  0  0  0  0
   57.2588   26.4554   43.3659 H   0  0  0  0  0  0  0  0  0  0  0  0
   58.4735   30.3279   46.0327 H   0  0  0  0  0  0  0  0  0  0  0  0
  1  2  1  0
  2  3  1  0
  3  4  2  0
  4  5  1  0
  5  6  2  0
  6  7  1  0
  7  8  1  0
  8  9  2  0
  8 10  1  0
 10 11  1  0
 11 12  2  0
 12 13  1  0
 13 14  2  0
 14 15  1  0
 15 16  1  0
 16 17  2  0
 17 18  1  0
 18 19  2  0
 19 20  1  0
 20 21  2  0
 15 22  2  0
  6 23  1  0
 23 24  2  0
 24 25  1  0
 24  3  1  0
 22 11  1  0
 21 16  1  0
  1 26  1  0
  1 27  1  0
  1 28  1  0
  4 29  1  0
  5 30  1  0
 10 31  1  0
 10 32  1  0
 12 33  1  0
 13 34  1  0
 14 35  1  0
 17 36  1  0
 18 37  1  0
 19 38  1  0
 20 39  1  0
 22 40  1  0
 23 41  1  0
M  CHG  1   7  -1
M  END
>  <UniqueID>  (41) 
39

>  <SMILES>  (41) 
COc1ccc([N-]C(=O)Cc2cccc(-c3ccccn3)c2)cc1Cl

>  <Energy>  (41) 
48.289820251979684

>  <Genealogy>  (41) 
COc1ccc([N-]C(=O)Cc2cccc(-c3ccccn3)c2)cc1Cl (protonated)
COc1ccc([N-]C(=O)Cc2cccc(-c3ccccn3)c2)cc1Cl (3D coordinates assigned)
COc1ccc([N-]C(=O)Cc2cccc(-c3ccccn3)c2)cc1Cl (optimized conformer: 48.289820251979684 kcal/mol)

>  <smiles>  (41) 
COc1ccc(NC(=O)Cc2cccc(-c3ccccn3)c2)cc1Cl

>  <score_type>  (41) 
oracle

>  <origin>  (41) 
adg

>  <m_score__min__energy>  (41) 
-10.140000000000001

>  <m_primary>  (41) 
energy

$$$$
41:0
     RDKit          3D

 62 65  0  0  0  0  0  0  0  0999 V2000
   63.4230   34.3310   46.2890 C   0  0  0  0  0  0  0  0  0  0  0  0
   62.8230   33.2020   47.0730 C   0  0  0  0  0  0  0  0  0  0  0  0
   63.5130   32.6550   48.1660 C   0  0  0  0  0  0  0  0  0  0  0  0
   62.9410   31.6260   48.9190 C   0  0  0  0  0  0  0  0  0  0  0  0
   61.6630   31.1390   48.5970 C   0  0  0  0  0  0  0  0  0  0  0  0
   61.0480   30.0120   49.3940 C   0  0  0  0  0  0  0  0  0  0  0  0
   60.3810   29.0150   48.5220 N   0  0  0  0  0  0  0  0  0  0  0  0
   60.4700   27.6530   49.0950 C   0  0  0  0  0  0  0  0  0  0  0  0
   59.8100   26.6050   48.1720 C   0  0  0  0  0  0  0  0  0  0  0  0
   59.0310   27.2420   47.0860 N   0  0  0  0  0  0  0  0  0  0  0  0
   58.2490   26.2370   46.3370 C   0  0  0  0  0  0  0  0  0  0  0  0
   57.0960   26.8870   45.6200 C   0  0  0  0  0  0  0  0  0  0  0  0
   55.9600   26.3410   45.6670 O   0  0  0  0  0  0  0  0  0  0  0  0
   57.2590   28.1210   44.8980 N   0  0  0  0  0  0  0  0  0  0  0  0
   56.1630   29.1020   44.9160 C   0  0  0  0  0  0  0  0  0  0  0  0
   56.5680   30.4070   44.2210 C   0  0  0  0  0  0  0  0  0  0  0  0
   57.9350   30.7770   44.6180 N   0  0  0  0  0  0  0  0  0  0  0  0
   58.2090   32.0700   45.1900 C   0  0  0  0  0  0  0  0  0  0  0  0
   58.6370   33.1340   44.3740 C   0  0  0  0  0  0  0  0  0  0  0  0
   58.8900   34.3910   44.9280 C   0  0  0  0  0  0  0  0  0  0  0  0
   58.7150   34.6020   46.2980 C   0  0  0  0  0  0  0  0  0  0  0  0
   58.2830   33.5540   47.1160 C   0  0  0  0  0  0  0  0  0  0  0  0
   58.0280   32.2940   46.5650 C   0  0  0  0  0  0  0  0  0  0  0  0
   59.0190   29.7880   44.5050 C   0  0  0  0  0  0  0  0  0  0  0  0
   58.4770   28.4060   44.1240 C   0  0  0  0  0  0  0  0  0  0  0  0
   58.1420   28.2730   47.6470 C   0  0  0  0  0  0  0  0  0  0  0  0
   58.9610   29.3930   48.3240 C   0  0  0  0  0  0  0  0  0  0  0  0
   60.9660   31.6980   47.5130 C   0  0  0  0  0  0  0  0  0  0  0  0
   61.5400   32.7280   46.7610 C   0  0  0  0  0  0  0  0  0  0  0  0
   63.8241   35.0858   46.9814 H   0  0  0  0  0  0  0  0  0  0  0  0
   64.2356   33.9462   45.6553 H   0  0  0  0  0  0  0  0  0  0  0  0
   62.6494   34.7891   45.6553 H   0  0  0  0  0  0  0  0  0  0  0  0
   64.5093   33.0383   48.4313 H   0  0  0  0  0  0  0  0  0  0  0  0
   63.4935   31.1956   49.7672 H   0  0  0  0  0  0  0  0  0  0  0  0
   61.8405   29.5087   49.9674 H   0  0  0  0  0  0  0  0  0  0  0  0
   60.2871   30.4432   50.0612 H   0  0  0  0  0  0  0  0  0  0  0  0
   60.8550   29.0220   47.5870 H   0  0  0  0  0  0  0  0  0  0  0  0
   61.5297   27.3916   49.2319 H   0  0  0  0  0  0  0  0  0  0  0  0
   59.9375   27.6486   50.0575 H   0  0  0  0  0  0  0  0  0  0  0  0
   60.5961   25.9780   47.7259 H   0  0  0  0  0  0  0  0  0  0  0  0
   59.1197   26.0010   48.7791 H   0  0  0  0  0  0  0  0  0  0  0  0
   58.9024   25.7468   45.6002 H   0  0  0  0  0  0  0  0  0  0  0  0
   57.8520   25.4966   47.0471 H   0  0  0  0  0  0  0  0  0  0  0  0
   55.2923   28.6753   44.3965 H   0  0  0  0  0  0  0  0  0  0  0  0
   55.9196   29.3295   45.9643 H   0  0  0  0  0  0  0  0  0  0  0  0
   56.5290   30.2678   43.1305 H   0  0  0  0  0  0  0  0  0  0  0  0
   55.8738   31.2075   44.5164 H   0  0  0  0  0  0  0  0  0  0  0  0
   58.7730   32.9747   43.2941 H   0  0  0  0  0  0  0  0  0  0  0  0
   59.2277   35.2166   44.2843 H   0  0  0  0  0  0  0  0  0  0  0  0
   58.9170   35.5921   46.7326 H   0  0  0  0  0  0  0  0  0  0  0  0
   58.1434   33.7205   48.1943 H   0  0  0  0  0  0  0  0  0  0  0  0
   57.6837   31.4737   47.2120 H   0  0  0  0  0  0  0  0  0  0  0  0
   59.7275   30.1202   43.7319 H   0  0  0  0  0  0  0  0  0  0  0  0
   59.5174   29.7072   45.4823 H   0  0  0  0  0  0  0  0  0  0  0  0
   58.2401   28.3894   43.0500 H   0  0  0  0  0  0  0  0  0  0  0  0
   59.2370   27.6425   44.3462 H   0  0  0  0  0  0  0  0  0  0  0  0
   57.5373   28.7074   46.8373 H   0  0  0  0  0  0  0  0  0  0  0  0
   57.4920   27.8059   48.4015 H   0  0  0  0  0  0  0  0  0  0  0  0
   58.9198   30.2921   47.6917 H   0  0  0  0  0  0  0  0  0  0  0  0
   58.5217   29.5767   49.3156 H   0  0  0  0  0  0  0  0  0  0  0  0
   59.9644   31.3240   47.2545 H   0  0  0  0  0  0  0  0  0  0  0  0
   60.9829   33.1685   45.9210 H   0  0  0  0  0  0  0  0  0  0  0  0
  1  2  1  0
  2  3  2  0
  3  4  1  0
  4  5  2  0
  5  6  1  0
  6  7  1  0
  7  8  1  0
  8  9  1  0
  9 10  1  0
 10 11  1  0
 11 12  1  0
 12 13  2  0
 12 14  1  0
 14 15  1  0
 15 16  1  0
 16 17  1  0
 17 18  1  0
 18 19  2  0
 19 20  1  0
 20 21  2  0
 21 22  1  0
 22 23  2  0
 17 24  1  0
 24 25  1  0
 10 26  1  0
 26 27  1  0
  5 28  1  0
 28 29  2  0
 29  2  1  0
 27  7  1  0
 25 14  1  0
 23 18  1  0
  1 30  1  0
  1 31  1  0
  1 32  1  0
  3 33  1  0
  4 34  1  0
  6 35  1  0
  6 36  1  0
  7 37  1  0
  8 38  1  0
  8 39  1  0
  9 40  1  0
  9 41  1  0
 11 42  1  0
 11 43  1  0
 15 44  1  0
 15 45  1  0
 16 46  1  0
 16 47  1  0
 19 48  1  0
 20 49  1  0
 21 50  1  0
 22 51  1  0
 23 52  1  0
 24 53  1  0
 24 54  1  0
 25 55  1  0
 25 56  1  0
 26 57  1  0
 26 58  1  0
 27 59  1  0
 27 60  1  0
 28 61  1  0
 29 62  1  0
M  CHG  1   7   1
M  END
>  <UniqueID>  (42) 
40

>  <SMILES>  (42) 
Cc1ccc(C[NH+]2CCN(CC(=O)N3CCN(c4ccccc4)CC3)CC2)cc1

>  <Energy>  (42) 
79.23718292474186

>  <Genealogy>  (42) 
Cc1ccc(C[NH+]2CCN(CC(=O)N3CCN(c4ccccc4)CC3)CC2)cc1 (protonated)
Cc1ccc(C[NH+]2CCN(CC(=O)N3CCN(c4ccccc4)CC3)CC2)cc1 (3D coordinates assigned)
Cc1ccc(C[NH+]2CCN(CC(=O)N3CCN(c4ccccc4)CC3)CC2)cc1 (nonaromatic ring conformer: 79.23718292474186 kcal/mol)

>  <smiles>  (42) 
Cc1ccc(CN2CCN(CC(=O)N3CCN(c4ccccc4)CC3)CC2)cc1

>  <score_type>  (42) 
oracle

>  <origin>  (42) 
adg

>  <m_score__min__energy>  (42) 
-7.1200000000000001

>  <m_primary>  (42) 
energy

$$$$
42:0
     RDKit          3D

 56 58  0  0  0  0  0  0  0  0999 V2000
   61.6660   32.3060   47.4730 C   0  0  0  0  0  0  0  0  0  0  0  0
   60.3850   31.8920   46.7330 C   0  0  0  0  0  0  0  0  0  0  0  0
   59.1960   32.7530   46.9730 N   0  0  0  0  0  0  0  0  0  0  0  0
   59.5530   34.1280   47.3510 C   0  0  0  0  0  0  0  0  0  0  0  0
   59.3410   35.0220   46.1290 C   0  0  0  0  0  0  0  0  0  0  0  0
   58.5760   34.1770   45.1200 C   0  0  0  0  0  0  0  0  0  0  0  0
   58.2170   32.9040   45.8760 C   0  0  1  0  0  0  0  0  0  0  0  0
   58.0160   31.6750   44.9630 C   0  0  0  0  0  0  0  0  0  0  0  0
   56.7280   31.0390   45.2210 N   0  0  0  0  0  0  0  0  0  0  0  0
   56.2640   29.8700   44.5390 C   0  0  0  0  0  0  0  0  0  0  0  0
   55.1750   29.3260   44.8680 O   0  0  0  0  0  0  0  0  0  0  0  0
   57.0720   29.3040   43.4130 C   0  0  0  0  0  0  0  0  0  0  0  0
   58.0180   28.2880   43.9170 N   0  0  0  0  0  0  0  0  0  0  0  0
   57.3930   27.3890   44.9230 C   0  0  0  0  0  0  0  0  0  0  0  0
   57.5680   27.8850   46.3690 C   0  0  0  0  0  0  0  0  0  0  0  0
   58.9720   28.2120   46.6490 N   0  0  0  0  0  0  0  0  0  0  0  0
   59.3520   28.6730   47.9590 C   0  0  0  0  0  0  0  0  0  0  0  0
   60.3350   27.9910   48.6950 C   0  0  0  0  0  0  0  0  0  0  0  0
   60.7170   28.4500   49.9570 C   0  0  0  0  0  0  0  0  0  0  0  0
   60.1240   29.5940   50.4980 C   0  0  0  0  0  0  0  0  0  0  0  0
   59.1340   30.2800   49.7810 C   0  0  0  0  0  0  0  0  0  0  0  0
   58.5300   31.5340   50.3430 C   0  0  0  0  0  0  0  0  0  0  0  0
   58.7620   29.8260   48.5060 C   0  0  0  0  0  0  0  0  0  0  0  0
   59.9350   28.2020   45.5440 C   0  0  0  0  0  0  0  0  0  0  0  0
   59.3010   28.9090   44.3440 C   0  0  0  0  0  0  0  0  0  0  0  0
   61.4964   32.2512   48.5585 H   0  0  0  0  0  0  0  0  0  0  0  0
   62.4856   31.6270   47.1952 H   0  0  0  0  0  0  0  0  0  0  0  0
   61.9332   33.3363   47.1952 H   0  0  0  0  0  0  0  0  0  0  0  0
   60.5989   31.9038   45.6541 H   0  0  0  0  0  0  0  0  0  0  0  0
   60.1202   30.8984   47.1237 H   0  0  0  0  0  0  0  0  0  0  0  0
   58.9113   34.4668   48.1777 H   0  0  0  0  0  0  0  0  0  0  0  0
   60.6010   34.1743   47.6821 H   0  0  0  0  0  0  0  0  0  0  0  0
   58.7564   35.9125   46.4034 H   0  0  0  0  0  0  0  0  0  0  0  0
   60.2977   35.3750   45.7166 H   0  0  0  0  0  0  0  0  0  0  0  0
   57.6673   34.6993   44.7861 H   0  0  0  0  0  0  0  0  0  0  0  0
   59.1672   33.9715   44.2154 H   0  0  0  0  0  0  0  0  0  0  0  0
   57.2165   32.9854   46.3259 H   0  0  0  0  0  0  0  0  0  0  0  0
   58.0544   31.9972   43.9119 H   0  0  0  0  0  0  0  0  0  0  0  0
   58.8147   30.9480   45.1717 H   0  0  0  0  0  0  0  0  0  0  0  0
   56.3963   28.8382   42.6806 H   0  0  0  0  0  0  0  0  0  0  0  0
   57.6413   30.1171   42.9389 H   0  0  0  0  0  0  0  0  0  0  0  0
   56.3171   27.3157   44.7061 H   0  0  0  0  0  0  0  0  0  0  0  0
   57.8963   26.4138   44.8482 H   0  0  0  0  0  0  0  0  0  0  0  0
   56.9530   28.7849   46.5171 H   0  0  0  0  0  0  0  0  0  0  0  0
   57.2523   27.0842   47.0539 H   0  0  0  0  0  0  0  0  0  0  0  0
   60.8064   27.0903   48.2748 H   0  0  0  0  0  0  0  0  0  0  0  0
   61.4870   27.9096   50.5272 H   0  0  0  0  0  0  0  0  0  0  0  0
   60.4349   29.9569   51.4888 H   0  0  0  0  0  0  0  0  0  0  0  0
   58.5510   31.4905   51.4419 H   0  0  0  0  0  0  0  0  0  0  0  0
   59.1074   32.4050   49.9995 H   0  0  0  0  0  0  0  0  0  0  0  0
   57.4890   31.6255   49.9995 H   0  0  0  0  0  0  0  0  0  0  0  0
   58.0032   30.3764   47.9305 H   0  0  0  0  0  0  0  0  0  0  0  0
   60.8514   28.7308   45.8451 H   0  0  0  0  0  0  0  0  0  0  0  0
   60.1948   27.1666   45.2786 H   0  0  0  0  0  0  0  0  0  0  0  0
   59.1100   29.9578   44.6153 H   0  0  0  0  0  0  0  0  0  0  0  0
   60.0043   28.8252   43.5024 H   0  0  0  0  0  0  0  0  0  0  0  0
  1  2  1  0
  2  3  1  0
  3  4  1  0
  4  5  1  0
  5  6  1  0
  6  7  1  0
  7  8  1  0
  8  9  1  0
  9 10  1  0
 10 11  2  0
 10 12  1  0
 12 13  1  0
 13 14  1  0
 14 15  1  0
 15 16  1  0
 16 17  1  0
 17 18  2  0
 18 19  1  0
 19 20  2  0
 20 21  1  0
 21 22  1  0
 21 23  2  0
 16 24  1  0
 24 25  1  0
  7  3  1  0
 25 13  1  0
 23 17  1  0
  1 26  1  0
  1 27  1  0
  1 28  1  0
  2 29  1  0
  2 30  1  0
  4 31  1  0
  4 32  1  0
  5 33  1  0
  5 34  1  0
  6 35  1  0
  6 36  1  0
  7 37  1  1
  8 38  1  0
  8 39  1  0
 12 40  1  0
 12 41  1  0
 14 42  1  0
 14 43  1  0
 15 44  1  0
 15 45  1  0
 18 46  1  0
 19 47  1  0
 20 48  1  0
 22 49  1  0
 22 50  1  0
 22 51  1  0
 23 52  1  0
 24 53  1  0
 24 54  1  0
 25 55  1  0
 25 56  1  0
M  CHG  1   9  -1
M  END
>  <UniqueID>  (43) 
41

>  <SMILES>  (43) 
CCN1CCC[C@H]1C[N-]C(=O)CN1CCN(c2cccc(C)c2)CC1

>  <Energy>  (43) 
74.59612382031595

>  <Genealogy>  (43) 
CCN1CCCC1C[N-]C(=O)CN1CCN(c2cccc(C)c2)CC1 (protonated)
CCN1CCC[C@H]1C[N-]C(=O)CN1CCN(c2cccc(C)c2)CC1 (chirality)
CCN1CCC[C@H]1C[N-]C(=O)CN1CCN(c2cccc(C)c2)CC1 (3D coordinates assigned)
CCN1CCC[C@H]1C[N-]C(=O)CN1CCN(c2cccc(C)c2)CC1 (nonaromatic ring conformer: 74.59612382031595 kcal/mol)

>  <smiles>  (43) 
CCN1CCCC1CNC(=O)CN1CCN(c2cccc(C)c2)CC1

>  <score_type>  (43) 
oracle

>  <origin>  (43) 
adg

>  <m_score__min__energy>  (43) 
-10.039999999999999

>  <m_primary>  (43) 
energy

$$$$
43:0
     RDKit          3D

 42 43  0  0  0  0  0  0  0  0999 V2000
   56.2200   26.0170   46.3900 C   0  0  0  0  0  0  0  0  0  0  0  0
   56.6840   27.1390   45.5240 C   0  0  0  0  0  0  0  0  0  0  0  0
   57.8770   27.1800   44.8290 C   0  0  0  0  0  0  0  0  0  0  0  0
   57.8590   28.3690   44.1300 C   0  0  0  0  0  0  0  0  0  0  0  0
   56.6520   28.9670   44.4390 C   0  0  0  0  0  0  0  0  0  0  0  0
   56.1430   30.2540   43.8710 C   0  0  0  0  0  0  0  0  0  0  0  0
   56.6380   31.3910   44.6630 N   0  0  0  0  0  0  0  0  0  0  0  0
   58.1070   31.4920   44.6610 C   0  0  0  0  0  0  0  0  0  0  0  0
   58.6290   31.8900   46.0130 C   0  0  0  0  0  0  0  0  0  0  0  0
   59.1070   31.0660   47.0240 C   0  0  0  0  0  0  0  0  0  0  0  0
   59.2280   29.5750   46.9800 C   0  0  0  0  0  0  0  0  0  0  0  0
   59.4970   31.8260   48.0670 N   0  0  0  0  0  0  0  0  0  0  0  0
   59.2780   33.0970   47.7690 N   0  0  0  0  0  0  0  0  0  0  0  0
   59.6540   34.2180   48.6260 C   0  0  0  0  0  0  0  0  0  0  0  0
   58.7580   33.1670   46.5280 C   0  0  0  0  0  0  0  0  0  0  0  0
   58.5140   34.3890   45.8200 N   0  0  0  0  0  0  0  0  0  0  0  0
   59.6200   35.3190   45.6020 C   0  0  0  0  0  0  0  0  0  0  0  0
   57.2620   34.5560   45.0870 C   0  0  0  0  0  0  0  0  0  0  0  0
   55.9760   28.2140   45.2760 O   0  0  0  0  0  0  0  0  0  0  0  0
   56.3361   26.2977   47.4472 H   0  0  0  0  0  0  0  0  0  0  0  0
   55.1609   25.8061   46.1808 H   0  0  0  0  0  0  0  0  0  0  0  0
   56.8208   25.1197   46.1808 H   0  0  0  0  0  0  0  0  0  0  0  0
   58.6748   26.4227   44.8323 H   0  0  0  0  0  0  0  0  0  0  0  0
   58.6428   28.7601   43.4646 H   0  0  0  0  0  0  0  0  0  0  0  0
   56.4914   30.3557   42.8326 H   0  0  0  0  0  0  0  0  0  0  0  0
   55.0434   30.2486   43.8999 H   0  0  0  0  0  0  0  0  0  0  0  0
   56.2720   32.2660   44.2190 H   0  0  0  0  0  0  0  0  0  0  0  0
   58.5329   30.5159   44.3856 H   0  0  0  0  0  0  0  0  0  0  0  0
   58.4009   32.2638   43.9344 H   0  0  0  0  0  0  0  0  0  0  0  0
   59.2601   29.1793   48.0059 H   0  0  0  0  0  0  0  0  0  0  0  0
   58.3612   29.1522   46.4509 H   0  0  0  0  0  0  0  0  0  0  0  0
   60.1516   29.2975   46.4509 H   0  0  0  0  0  0  0  0  0  0  0  0
   59.9200   31.4850   48.9600 H   0  0  0  0  0  0  0  0  0  0  0  0
   59.5549   33.9224   49.6809 H   0  0  0  0  0  0  0  0  0  0  0  0
   60.6967   34.5024   48.4213 H   0  0  0  0  0  0  0  0  0  0  0  0
   58.9937   35.0736   48.4213 H   0  0  0  0  0  0  0  0  0  0  0  0
   60.0159   35.6519   46.5728 H   0  0  0  0  0  0  0  0  0  0  0  0
   60.4163   34.8151   45.0346 H   0  0  0  0  0  0  0  0  0  0  0  0
   59.2603   36.1900   45.0346 H   0  0  0  0  0  0  0  0  0  0  0  0
   56.4317   34.6668   45.8000 H   0  0  0  0  0  0  0  0  0  0  0  0
   57.3244   35.4538   44.4545 H   0  0  0  0  0  0  0  0  0  0  0  0
   57.0869   33.6733   44.4545 H   0  0  0  0  0  0  0  0  0  0  0  0
  1  2  1  0
  2  3  2  0
  3  4  1  0
  4  5  2  0
  5  6  1  0
  6  7  1  0
  7  8  1  0
  8  9  1  0
  9 10  1  0
 10 11  1  0
 10 12  2  0
 12 13  1  0
 13 14  1  0
 13 15  1  0
 15 16  1  0
 16 17  1  0
 16 18  1  0
  5 19  1  0
 19  2  1  0
 15  9  2  0
  1 20  1  0
  1 21  1  0
  1 22  1  0
  3 23  1  0
  4 24  1  0
  6 25  1  0
  6 26  1  0
  7 27  1  0
  8 28  1  0
  8 29  1  0
 11 30  1  0
 11 31  1  0
 11 32  1  0
 12 33  1  0
 14 34  1  0
 14 35  1  0
 14 36  1  0
 17 37  1  0
 17 38  1  0
 17 39  1  0
 18 40  1  0
 18 41  1  0
 18 42  1  0
M  CHG  1  12   1
M  END
>  <UniqueID>  (44) 
42

>  <SMILES>  (44) 
Cc1ccc(CNCc2c(C)[nH+]n(C)c2N(C)C)o1

>  <Energy>  (44) 
93.30263882643946

>  <Genealogy>  (44) 
Cc1ccc(CNCc2c(C)[nH+]n(C)c2N(C)C)o1 (protonated)
Cc1ccc(CNCc2c(C)[nH+]n(C)c2N(C)C)o1 (3D coordinates assigned)
Cc1ccc(CNCc2c(C)[nH+]n(C)c2N(C)C)o1 (optimized conformer: 93.30263882643946 kcal/mol)

>  <smiles>  (44) 
Cc1ccc(CNCc2c(C)nn(C)c2N(C)C)o1

>  <score_type>  (44) 
oracle

>  <origin>  (44) 
adg

>  <m_score__min__energy>  (44) 
-4.8899999999999997

>  <m_primary>  (44) 
energy

$$$$
44:0
     RDKit          3D

 39 40  0  0  0  0  0  0  0  0999 V2000
   56.6510   33.7060   45.6200 C   0  0  0  0  0  0  0  0  0  0  0  0
   57.8460   33.4380   44.8120 N   0  0  0  0  0  0  0  0  0  0  0  0
   57.7570   32.4660   43.7150 C   0  0  0  0  0  0  0  0  0  0  0  0
   57.4700   31.1010   44.2620 C   0  0  0  0  0  0  0  0  0  0  0  0
   56.3740   30.8920   44.8520 O   0  0  0  0  0  0  0  0  0  0  0  0
   58.4330   30.0470   44.1180 N   0  0  0  0  0  0  0  0  0  0  0  0
   58.4080   28.8230   44.8710 C   0  0  0  0  0  0  0  0  0  0  0  0
   59.6170   28.2500   45.2960 C   0  0  0  0  0  0  0  0  0  0  0  0
   59.6170   27.0730   46.0520 C   0  0  0  0  0  0  0  0  0  0  0  0
   58.4080   26.4680   46.4050 C   0  0  0  0  0  0  0  0  0  0  0  0
   58.4080   25.3290   47.1410 F   0  0  0  0  0  0  0  0  0  0  0  0
   57.1970   27.0440   46.0080 C   0  0  0  0  0  0  0  0  0  0  0  0
   57.1930   28.2200   45.2510 C   0  0  0  0  0  0  0  0  0  0  0  0
   59.1210   34.0440   45.1310 C   0  0  0  0  0  0  0  0  0  0  0  0
   59.8310   34.5190   44.2020 O   0  0  0  0  0  0  0  0  0  0  0  0
   59.6550   34.1230   46.5410 C   0  0  0  0  0  0  0  0  0  0  0  0
   60.1900   32.7930   47.0290 C   0  0  0  0  0  0  0  0  0  0  0  0
   59.2970   31.7390   47.3200 C   0  0  0  0  0  0  0  0  0  0  0  0
   57.9570   31.8980   47.1730 F   0  0  0  0  0  0  0  0  0  0  0  0
   59.7780   30.5060   47.7690 C   0  0  0  0  0  0  0  0  0  0  0  0
   61.1480   30.2980   47.9170 C   0  0  0  0  0  0  0  0  0  0  0  0
   62.0460   31.3200   47.6070 C   0  0  0  0  0  0  0  0  0  0  0  0
   61.5810   32.5610   47.1570 C   0  0  0  0  0  0  0  0  0  0  0  0
   62.7770   33.7810   46.7320 Cl  0  0  0  0  0  0  0  0  0  0  0  0
   56.9097   33.6480   46.6876 H   0  0  0  0  0  0  0  0  0  0  0  0
   56.2703   34.7118   45.3891 H   0  0  0  0  0  0  0  0  0  0  0  0
   55.8772   32.9591   45.3891 H   0  0  0  0  0  0  0  0  0  0  0  0
   56.9480   32.7618   43.0309 H   0  0  0  0  0  0  0  0  0  0  0  0
   58.7142   32.4441   43.1734 H   0  0  0  0  0  0  0  0  0  0  0  0
   59.1590   30.1490   43.3720 H   0  0  0  0  0  0  0  0  0  0  0  0
   60.5711   28.7299   45.0327 H   0  0  0  0  0  0  0  0  0  0  0  0
   60.5696   26.6234   46.3688 H   0  0  0  0  0  0  0  0  0  0  0  0
   56.2453   26.5710   46.2918 H   0  0  0  0  0  0  0  0  0  0  0  0
   56.2377   28.6756   44.9513 H   0  0  0  0  0  0  0  0  0  0  0  0
   60.4680   34.8634   46.5703 H   0  0  0  0  0  0  0  0  0  0  0  0
   58.8232   34.4130   47.1998 H   0  0  0  0  0  0  0  0  0  0  0  0
   59.0723   29.6964   48.0066 H   0  0  0  0  0  0  0  0  0  0  0  0
   61.5214   29.3284   48.2781 H   0  0  0  0  0  0  0  0  0  0  0  0
   63.1271   31.1491   47.7171 H   0  0  0  0  0  0  0  0  0  0  0  0
  1  2  1  0
  2  3  1  0
  3  4  1  0
  4  5  2  0
  4  6  1  0
  6  7  1  0
  7  8  2  0
  8  9  1  0
  9 10  2  0
 10 11  1  0
 10 12  1  0
 12 13  2  0
  2 14  1  0
 14 15  2  0
 14 16  1  0
 16 17  1  0
 17 18  2  0
 18 19  1  0
 18 20  1  0
 20 21  2  0
 21 22  1  0
 22 23  2  0
 23 24  1  0
 13  7  1  0
 23 17  1  0
  1 25  1  0
  1 26  1  0
  1 27  1  0
  3 28  1  0
  3 29  1  0
  6 30  1  0
  8 31  1  0
  9 32  1  0
 12 33  1  0
 13 34  1  0
 16 35  1  0
 16 36  1  0
 20 37  1  0
 21 38  1  0
 22 39  1  0
M  END
>  <UniqueID>  (45) 
43

>  <SMILES>  (45) 
CN(CC(=O)Nc1ccc(F)cc1)C(=O)Cc1c(F)cccc1Cl

>  <Energy>  (45) 
41.59110409426771

>  <Genealogy>  (45) 
CN(CC(=O)Nc1ccc(F)cc1)C(=O)Cc1c(F)cccc1Cl (3D coordinates assigned)
CN(CC(=O)Nc1ccc(F)cc1)C(=O)Cc1c(F)cccc1Cl (optimized conformer: 41.59110409426771 kcal/mol)

>  <smiles>  (45) 
CN(CC(=O)Nc1ccc(F)cc1)C(=O)Cc1c(F)cccc1Cl

>  <score_type>  (45) 
oracle

>  <origin>  (45) 
adg

>  <m_score__min__energy>  (45) 
-7.7599999999999998

>  <m_primary>  (45) 
energy

$$$$
45:0
     RDKit          3D

 41 43  0  0  0  0  0  0  0  0999 V2000
   58.5330   32.5700   51.1920 C   0  0  0  0  0  0  0  0  0  0  0  0
   59.2430   33.8910   50.9200 C   0  0  0  0  0  0  0  0  0  0  0  0
   60.3510   33.6980   49.9240 C   0  0  0  0  0  0  0  0  0  0  0  0
   61.5620   33.2040   50.2900 N   0  0  0  0  0  0  0  0  0  0  0  0
   62.2720   33.2580   49.1500 C   0  0  0  0  0  0  0  0  0  0  0  0
   63.6000   32.8800   48.9630 C   0  0  0  0  0  0  0  0  0  0  0  0
   64.1540   33.0460   47.6810 C   0  0  0  0  0  0  0  0  0  0  0  0
   63.3770   33.5840   46.6300 C   0  0  0  0  0  0  0  0  0  0  0  0
   62.0390   33.9580   46.8530 C   0  0  0  0  0  0  0  0  0  0  0  0
   61.5170   33.7750   48.1370 C   0  0  0  0  0  0  0  0  0  0  0  0
   60.2890   34.0580   48.6100 N   0  0  0  0  0  0  0  0  0  0  0  0
   59.1630   34.6570   47.8860 C   0  0  0  0  0  0  0  0  0  0  0  0
   58.4130   33.6140   47.1150 C   0  0  0  0  0  0  0  0  0  0  0  0
   57.3480   33.1400   47.5950 O   0  0  0  0  0  0  0  0  0  0  0  0
   58.9500   33.1070   45.8810 N   0  0  0  0  0  0  0  0  0  0  0  0
   58.2640   32.1980   45.0020 C   0  0  0  0  0  0  0  0  0  0  0  0
   57.9170   32.5590   43.6890 C   0  0  0  0  0  0  0  0  0  0  0  0
   57.2730   31.6440   42.8500 C   0  0  0  0  0  0  0  0  0  0  0  0
   56.9740   30.3500   43.3030 C   0  0  0  0  0  0  0  0  0  0  0  0
   56.2850   29.3760   42.3880 C   0  0  0  0  0  0  0  0  0  0  0  0
   57.3410   29.9760   44.6110 C   0  0  0  0  0  0  0  0  0  0  0  0
   57.0110   28.3630   45.2330 Cl  0  0  0  0  0  0  0  0  0  0  0  0
   57.9860   30.8970   45.4450 C   0  0  0  0  0  0  0  0  0  0  0  0
   58.4498   32.4152   52.2779 H   0  0  0  0  0  0  0  0  0  0  0  0
   57.5273   32.5959   50.7472 H   0  0  0  0  0  0  0  0  0  0  0  0
   59.1095   31.7455   50.7472 H   0  0  0  0  0  0  0  0  0  0  0  0
   58.5186   34.6155   50.5196 H   0  0  0  0  0  0  0  0  0  0  0  0
   59.6722   34.2644   51.8615 H   0  0  0  0  0  0  0  0  0  0  0  0
   64.1951   32.4657   49.7902 H   0  0  0  0  0  0  0  0  0  0  0  0
   65.1985   32.7553   47.4951 H   0  0  0  0  0  0  0  0  0  0  0  0
   63.8210   33.7111   45.6316 H   0  0  0  0  0  0  0  0  0  0  0  0
   61.4244   34.3802   46.0443 H   0  0  0  0  0  0  0  0  0  0  0  0
   58.4818   35.1321   48.6073 H   0  0  0  0  0  0  0  0  0  0  0  0
   59.5543   35.4047   47.1804 H   0  0  0  0  0  0  0  0  0  0  0  0
   59.9440   33.3380   45.6590 H   0  0  0  0  0  0  0  0  0  0  0  0
   58.1534   33.5675   43.3188 H   0  0  0  0  0  0  0  0  0  0  0  0
   56.9987   31.9410   41.8270 H   0  0  0  0  0  0  0  0  0  0  0  0
   55.7525   28.6232   42.9878 H   0  0  0  0  0  0  0  0  0  0  0  0
   55.5660   29.9148   41.7534 H   0  0  0  0  0  0  0  0  0  0  0  0
   57.0324   28.8774   41.7534 H   0  0  0  0  0  0  0  0  0  0  0  0
   58.2787   30.5960   46.4617 H   0  0  0  0  0  0  0  0  0  0  0  0
  1  2  1  0
  2  3  1  0
  3  4  2  0
  4  5  1  0
  5  6  2  0
  6  7  1  0
  7  8  2  0
  8  9  1  0
  9 10  2  0
 10 11  1  0
 11 12  1  0
 12 13  1  0
 13 14  2  0
 13 15  1  0
 15 16  1  0
 16 17  2  0
 17 18  1  0
 18 19  2  0
 19 20  1  0
 19 21  1  0
 21 22  1  0
 21 23  2  0
 11  3  1  0
 23 16  1  0
 10  5  1  0
  1 24  1  0
  1 25  1  0
  1 26  1  0
  2 27  1  0
  2 28  1  0
  6 29  1  0
  7 30  1  0
  8 31  1  0
  9 32  1  0
 12 33  1  0
 12 34  1  0
 15 35  1  0
 17 36  1  0
 18 37  1  0
 20 38  1  0
 20 39  1  0
 20 40  1  0
 23 41  1  0
M  END
>  <UniqueID>  (46) 
44

>  <SMILES>  (46) 
CCc1nc2ccccc2n1CC(=O)Nc1ccc(C)c(Cl)c1

>  <Energy>  (46) 
78.35896319491873

>  <Genealogy>  (46) 
CCc1nc2ccccc2n1CC(=O)Nc1ccc(C)c(Cl)c1 (3D coordinates assigned)
CCc1nc2ccccc2n1CC(=O)Nc1ccc(C)c(Cl)c1 (optimized conformer: 78.35896319491873 kcal/mol)

>  <smiles>  (46) 
CCc1nc2ccccc2n1CC(=O)Nc1ccc(C)c(Cl)c1

>  <score_type>  (46) 
oracle

>  <origin>  (46) 
adg

>  <m_score__min__energy>  (46) 
-7.3899999999999997

>  <m_primary>  (46) 
energy

$$$$
