0:0
     RDKit          3D

 32 35  0  0  0  0  0  0  0  0999 V2000
   65.8060   33.0520   50.1130 C   0  0  0  0  0  0  0  0  0  0  0  0
   64.6250   33.8090   49.8640 O   0  0  0  0  0  0  0  0  0  0  0  0
   63.5440   33.3610   49.0900 C   0  0  0  0  0  0  0  0  0  0  0  0
   63.5180   32.0190   48.7030 C   0  0  0  0  0  0  0  0  0  0  0  0
   62.4670   31.5160   47.9320 C   0  0  0  0  0  0  0  0  0  0  0  0
   61.4130   32.3570   47.5310 C   0  0  0  0  0  0  0  0  0  0  0  0
   61.4330   33.7210   47.9190 C   0  0  0  0  0  0  0  0  0  0  0  0
   60.3910   34.5750   47.5300 C   0  0  0  0  0  0  0  0  0  0  0  0
   59.3320   34.0930   46.7600 C   0  0  0  0  0  0  0  0  0  0  0  0
   59.2980   32.7480   46.3670 C   0  0  0  0  0  0  0  0  0  0  0  0
   58.2380   32.2540   45.5940 C   0  0  0  0  0  0  0  0  0  0  0  0
   58.2140   30.9040   45.2060 C   0  0  0  0  0  0  0  0  0  0  0  0
   57.1090   30.3500   44.3870 C   0  0  0  0  0  0  0  0  0  0  0  0
   55.8120   30.3710   44.7530 N   0  0  0  0  0  0  0  0  0  0  0  0
   55.1610   29.7860   43.7570 N   0  0  0  0  0  0  0  0  0  0  0  0
   56.0160   29.4190   42.8150 N   0  0  0  0  0  0  0  0  0  0  0  0
   57.2360   29.7600   43.1850 N   0  0  0  0  0  0  0  0  0  0  0  0
   59.2720   30.0740   45.6120 C   0  0  0  0  0  0  0  0  0  0  0  0
   60.2900   30.5710   46.3610 N   0  0  0  0  0  0  0  0  0  0  0  0
   60.3390   31.8740   46.7510 C   0  0  0  0  0  0  0  0  0  0  0  0
   62.4950   34.2120   48.6950 C   0  0  0  0  0  0  0  0  0  0  0  0
   65.9573   32.9550   51.1982 H   0  0  0  0  0  0  0  0  0  0  0  0
   65.7016   32.0521   49.6665 H   0  0  0  0  0  0  0  0  0  0  0  0
   66.6709   33.5644   49.6665 H   0  0  0  0  0  0  0  0  0  0  0  0
   64.3355   31.3497   49.0092 H   0  0  0  0  0  0  0  0  0  0  0  0
   62.4637   30.4563   47.6369 H   0  0  0  0  0  0  0  0  0  0  0  0
   60.4086   35.6320   47.8340 H   0  0  0  0  0  0  0  0  0  0  0  0
   58.5200   34.7717   46.4600 H   0  0  0  0  0  0  0  0  0  0  0  0
   57.4219   32.9260   45.2901 H   0  0  0  0  0  0  0  0  0  0  0  0
   58.0980   29.5860   42.6240 H   0  0  0  0  0  0  0  0  0  0  0  0
   59.2760   29.0132   45.3210 H   0  0  0  0  0  0  0  0  0  0  0  0
   62.5073   35.2698   48.9965 H   0  0  0  0  0  0  0  0  0  0  0  0
  1  2  1  0
  2  3  1  0
  3  4  2  0
  4  5  1  0
  5  6  2  0
  6  7  1  0
  7  8  1  0
  8  9  2  0
  9 10  1  0
 10 11  2  0
 11 12  1  0
 12 13  1  0
 13 14  2  0
 14 15  1  0
 15 16  1  0
 16 17  2  0
 12 18  2  0
 18 19  1  0
 19 20  2  0
  7 21  2  0
 21  3  1  0
 20  6  1  0
 20 10  1  0
 17 13  1  0
  1 22  1  0
  1 23  1  0
  1 24  1  0
  4 25  1  0
  5 26  1  0
  8 27  1  0
  9 28  1  0
 11 29  1  0
 17 30  1  0
 18 31  1  0
 21 32  1  0
M  CHG  2  15  -1  17   1
M  END
>  <UniqueID>  (1) 
1

>  <SMILES>  (1) 
COc1ccc2c(ccc3cc(-c4n[n-]n[nH+]4)cnc32)c1

>  <Energy>  (1) 
84.34422391367586

>  <Genealogy>  (1) 
COc1ccc2c(ccc3cc(-c4n[n-]n[nH+]4)cnc32)c1 (protonated)
COc1ccc2c(ccc3cc(-c4n[n-]n[nH+]4)cnc32)c1 (3D coordinates assigned)
COc1ccc2c(ccc3cc(-c4n[n-]n[nH+]4)cnc32)c1 (optimized conformer: 84.34422391367586 kcal/mol)

>  <smiles>  (1) 
COc1ccc2c(ccc3cc(-c4nn[nH]n4)cnc32)c1

>  <score_type>  (1) 
oracle

>  <origin>  (1) 
adg

>  <m_score__min__energy>  (1) 
-8.1899999999999995

>  <m_primary>  (1) 
energy

$$$$
1:0
     RDKit          3D

 50 54  0  0  0  0  0  0  0  0999 V2000
   58.5470   33.1910   44.8940 C   0  0  0  0  0  0  0  0  0  0  0  0
   57.0930   32.7470   44.8720 C   0  0  0  0  0  0  0  0  0  0  0  0
   57.0390   31.3350   44.8440 O   0  0  0  0  0  0  0  0  0  0  0  0
   58.2430   30.8050   44.3240 C   0  0  0  0  0  0  0  0  0  0  0  0
   58.5110   29.4200   44.9190 C   0  0  0  0  0  0  0  0  0  0  0  0
   58.7920   29.5290   46.3490 N   0  0  0  0  0  0  0  0  0  0  0  0
   58.4720   30.5800   47.1410 C   0  0  0  0  0  0  0  0  0  0  0  0
   58.9440   30.3710   48.4340 C   0  0  0  0  0  0  0  0  0  0  0  0
   58.8160   31.3030   49.5710 C   0  0  0  0  0  0  0  0  0  0  0  0
   59.3550   32.5250   49.6610 C   0  0  0  0  0  0  0  0  0  0  0  0
   60.0580   33.2560   48.5890 C   0  0  0  0  0  0  0  0  0  0  0  0
   59.5760   34.3530   47.8910 C   0  0  0  0  0  0  0  0  0  0  0  0
   60.5040   34.7760   47.0000 N   0  0  0  0  0  0  0  0  0  0  0  0
   61.5290   33.9180   47.1800 C   0  0  0  0  0  0  0  0  0  0  0  0
   62.7280   33.9280   46.4700 C   0  0  0  0  0  0  0  0  0  0  0  0
   63.6710   32.9320   46.7690 C   0  0  0  0  0  0  0  0  0  0  0  0
   63.3930   31.9610   47.7480 C   0  0  0  0  0  0  0  0  0  0  0  0
   62.1690   31.9980   48.4310 C   0  0  0  0  0  0  0  0  0  0  0  0
   61.2920   32.9930   48.1260 N   0  0  0  0  0  0  0  0  0  0  0  0
   59.0180   33.0610   50.9820 C   0  0  0  0  0  0  0  0  0  0  0  0
   59.2890   34.2190   51.3950 O   0  0  0  0  0  0  0  0  0  0  0  0
   58.2760   32.1160   51.7360 N   0  0  0  0  0  0  0  0  0  0  0  0
   58.1600   31.0140   50.8490 C   0  0  0  0  0  0  0  0  0  0  0  0
   57.6150   29.9240   51.1640 O   0  0  0  0  0  0  0  0  0  0  0  0
   59.5840   29.1440   48.4080 C   0  0  0  0  0  0  0  0  0  0  0  0
   60.2130   28.4100   49.4160 C   0  0  0  0  0  0  0  0  0  0  0  0
   60.7720   27.1670   49.0740 C   0  0  0  0  0  0  0  0  0  0  0  0
   60.6850   26.6810   47.7510 C   0  0  0  0  0  0  0  0  0  0  0  0
   60.0290   27.4300   46.7600 C   0  0  0  0  0  0  0  0  0  0  0  0
   59.4780   28.6630   47.1250 C   0  0  0  0  0  0  0  0  0  0  0  0
   58.8833   33.2937   45.9363 H   0  0  0  0  0  0  0  0  0  0  0  0
   59.1671   32.4413   44.3808 H   0  0  0  0  0  0  0  0  0  0  0  0
   58.6425   34.1593   44.3808 H   0  0  0  0  0  0  0  0  0  0  0  0
   56.5816   33.1170   45.7729 H   0  0  0  0  0  0  0  0  0  0  0  0
   56.5957   33.1538   43.9791 H   0  0  0  0  0  0  0  0  0  0  0  0
   58.1606   30.7210   43.2303 H   0  0  0  0  0  0  0  0  0  0  0  0
   59.0740   31.4759   44.5874 H   0  0  0  0  0  0  0  0  0  0  0  0
   57.6262   28.7836   44.7704 H   0  0  0  0  0  0  0  0  0  0  0  0
   59.3826   28.9764   44.4155 H   0  0  0  0  0  0  0  0  0  0  0  0
   57.9185   31.4711   46.8101 H   0  0  0  0  0  0  0  0  0  0  0  0
   58.5871   34.8114   48.0390 H   0  0  0  0  0  0  0  0  0  0  0  0
   62.9285   34.6897   45.7021 H   0  0  0  0  0  0  0  0  0  0  0  0
   64.6324   32.9108   46.2349 H   0  0  0  0  0  0  0  0  0  0  0  0
   64.1309   31.1778   47.9763 H   0  0  0  0  0  0  0  0  0  0  0  0
   61.9242   31.2432   49.1928 H   0  0  0  0  0  0  0  0  0  0  0  0
   57.9060   32.2080   52.7080 H   0  0  0  0  0  0  0  0  0  0  0  0
   60.2691   28.7930   50.4456 H   0  0  0  0  0  0  0  0  0  0  0  0
   61.2814   26.5677   49.8430 H   0  0  0  0  0  0  0  0  0  0  0  0
   61.1337   25.7099   47.4948 H   0  0  0  0  0  0  0  0  0  0  0  0
   59.9509   27.0581   45.7277 H   0  0  0  0  0  0  0  0  0  0  0  0
  1  2  1  0
  2  3  1  0
  3  4  1  0
  4  5  1  0
  5  6  1  0
  6  7  1  0
  7  8  2  0
  8  9  1  0
  9 10  2  0
 10 11  1  0
 11 12  2  0
 12 13  1  0
 13 14  2  0
 14 15  1  0
 15 16  2  0
 16 17  1  0
 17 18  2  0
 18 19  1  0
 10 20  1  0
 20 21  2  0
 20 22  1  0
 22 23  1  0
 23 24  2  0
  8 25  1  0
 25 26  2  0
 26 27  1  0
 27 28  2  0
 28 29  1  0
 29 30  2  0
 30  6  1  0
 23  9  1  0
 30 25  1  0
 19 11  1  0
 19 14  1  0
  1 31  1  0
  1 32  1  0
  1 33  1  0
  2 34  1  0
  2 35  1  0
  4 36  1  0
  4 37  1  0
  5 38  1  0
  5 39  1  0
  7 40  1  0
 12 41  1  0
 15 42  1  0
 16 43  1  0
 17 44  1  0
 18 45  1  0
 22 46  1  0
 26 47  1  0
 27 48  1  0
 28 49  1  0
 29 50  1  0
M  END
>  <UniqueID>  (2) 
2

>  <SMILES>  (2) 
CCOCCn1cc(C2=C(c3cnc4ccccn34)C(=O)NC2=O)c2ccccc21

>  <Energy>  (2) 
155.70007683270995

>  <Genealogy>  (2) 
CCOCCn1cc(C2=C(c3cnc4ccccn34)C(=O)NC2=O)c2ccccc21 (3D coordinates assigned)
CCOCCn1cc(C2=C(c3cnc4ccccn34)C(=O)NC2=O)c2ccccc21 (nonaromatic ring conformer: 155.70007683270995 kcal/mol)

>  <smiles>  (2) 
CCOCCn1cc(C2=C(c3cnc4ccccn34)C(=O)NC2=O)c2ccccc21

>  <score_type>  (2) 
oracle

>  <origin>  (2) 
adg

>  <m_score__min__energy>  (2) 
-8.6899999999999995

>  <m_primary>  (2) 
energy

$$$$
2:0
     RDKit          3D

 36 36  0  0  0  0  0  0  0  0999 V2000
   57.7970   33.8300   46.8500 C   0  0  0  0  0  0  0  0  0  0  0  0
   57.5740   34.1380   45.5690 C   0  0  0  0  0  0  0  0  0  0  0  0
   58.0820   33.2670   44.4540 C   0  0  0  0  0  0  0  0  0  0  0  0
   58.8590   32.1420   44.9810 N   0  0  0  0  0  0  0  0  0  0  0  0
   58.2960   30.8290   45.1740 C   0  0  0  0  0  0  0  0  0  0  0  0
   56.9900   30.5360   44.7340 C   0  0  0  0  0  0  0  0  0  0  0  0
   56.4450   29.2620   44.9190 C   0  0  0  0  0  0  0  0  0  0  0  0
   55.1870   28.9940   44.4910 F   0  0  0  0  0  0  0  0  0  0  0  0
   57.1930   28.2660   45.5460 C   0  0  0  0  0  0  0  0  0  0  0  0
   58.4870   28.5390   45.9890 C   0  0  0  0  0  0  0  0  0  0  0  0
   59.0500   29.8080   45.8000 C   0  0  0  0  0  0  0  0  0  0  0  0
   60.7430   30.0760   46.3530 S   0  0  0  0  0  0  0  0  0  0  0  0
   60.2960   31.0620   47.8320 C   0  0  0  0  0  0  0  0  0  0  0  0
   61.4530   31.9630   48.3180 C   0  0  0  0  0  0  0  0  0  0  0  0
   62.2690   32.4850   47.1960 N   0  0  2  0  0  0  0  0  0  0  0  0
   63.6870   32.5740   47.5800 C   0  0  0  0  0  0  0  0  0  0  0  0
   61.7950   33.7820   46.7650 C   0  0  0  0  0  0  0  0  0  0  0  0
   60.8410   33.8870   46.0100 O   0  0  0  0  0  0  0  0  0  0  0  0
   57.4146   34.4840   47.6475 H   0  0  0  0  0  0  0  0  0  0  0  0
   58.3630   32.9225   47.1070 H   0  0  0  0  0  0  0  0  0  0  0  0
   57.0066   35.0483   45.3251 H   0  0  0  0  0  0  0  0  0  0  0  0
   57.2263   32.8774   43.8830 H   0  0  0  0  0  0  0  0  0  0  0  0
   58.7339   33.8710   43.8057 H   0  0  0  0  0  0  0  0  0  0  0  0
   59.8700   32.2980   45.1960 H   0  0  0  0  0  0  0  0  0  0  0  0
   56.3935   31.3172   44.2402 H   0  0  0  0  0  0  0  0  0  0  0  0
   56.7622   27.2644   45.6913 H   0  0  0  0  0  0  0  0  0  0  0  0
   59.0698   27.7523   46.4904 H   0  0  0  0  0  0  0  0  0  0  0  0
   59.4342   31.6988   47.5834 H   0  0  0  0  0  0  0  0  0  0  0  0
   60.0596   30.3573   48.6429 H   0  0  0  0  0  0  0  0  0  0  0  0
   61.0300   32.8132   48.8732 H   0  0  0  0  0  0  0  0  0  0  0  0
   62.1093   31.3530   48.9561 H   0  0  0  0  0  0  0  0  0  0  0  0
   62.2050   31.8310   46.3830 H   0  0  0  0  0  0  0  0  0  0  0  0
   63.7702   32.5792   48.6768 H   0  0  0  0  0  0  0  0  0  0  0  0
   64.2316   31.7083   47.1751 H   0  0  0  0  0  0  0  0  0  0  0  0
   64.1190   33.5010   47.1751 H   0  0  0  0  0  0  0  0  0  0  0  0
   62.3028   34.6895   47.1236 H   0  0  0  0  0  0  0  0  0  0  0  0
  1  2  2  0
  2  3  1  0
  3  4  1  0
  4  5  1  0
  5  6  2  0
  6  7  1  0
  7  8  1  0
  7  9  2  0
  9 10  1  0
 10 11  2  0
 11 12  1  0
 12 13  1  0
 13 14  1  0
 14 15  1  0
 15 16  1  0
 15 17  1  0
 17 18  2  0
 11  5  1  0
  1 19  1  0
  1 20  1  0
  2 21  1  0
  3 22  1  0
  3 23  1  0
  4 24  1  0
  6 25  1  0
  9 26  1  0
 10 27  1  0
 13 28  1  0
 13 29  1  0
 14 30  1  0
 14 31  1  0
 15 32  1  6
 16 33  1  0
 16 34  1  0
 16 35  1  0
 17 36  1  0
M  CHG  1  15   1
M  END
>  <UniqueID>  (3) 
3

>  <SMILES>  (3) 
C=CCNc1cc(F)ccc1SCC[N@H+](C)C=O

>  <Energy>  (3) 
29.80049385658746

>  <Genealogy>  (3) 
C=CCNc1cc(F)ccc1SCC[NH+](C)C=O (protonated)
C=CCNc1cc(F)ccc1SCC[N@H+](C)C=O (chirality)
C=CCNc1cc(F)ccc1SCC[N@H+](C)C=O (3D coordinates assigned)
C=CCNc1cc(F)ccc1SCC[N@H+](C)C=O (optimized conformer: 29.80049385658746 kcal/mol)

>  <smiles>  (3) 
C=CCNc1cc(F)ccc1SCCN(C)C=O

>  <score_type>  (3) 
oracle

>  <origin>  (3) 
adg

>  <m_score__min__energy>  (3) 
-4.25

>  <m_primary>  (3) 
energy

$$$$
3:0
     RDKit          3D

 53 55  0  0  0  0  0  0  0  0999 V2000
   55.8940   29.7980   44.0530 C   0  0  0  0  0  0  0  0  0  0  0  0
   57.1670   29.0180   43.7450 C   0  0  0  0  0  0  0  0  0  0  0  0
   57.5970   28.2670   44.8800 O   0  0  0  0  0  0  0  0  0  0  0  0
   58.4870   28.7230   45.8670 C   0  0  0  0  0  0  0  0  0  0  0  0
   59.6570   29.4410   45.5620 C   0  0  0  0  0  0  0  0  0  0  0  0
   60.5260   29.8400   46.5820 C   0  0  0  0  0  0  0  0  0  0  0  0
   60.2510   29.5190   47.9220 C   0  0  0  0  0  0  0  0  0  0  0  0
   61.2310   29.9210   49.0090 C   0  0  0  0  0  0  0  0  0  0  0  0
   61.2430   31.3740   49.3280 N   0  0  0  0  0  0  0  0  0  0  0  0
   60.0110   31.8310   50.0350 C   0  0  0  0  0  0  0  0  0  0  0  0
   59.1710   32.7960   49.1910 C   0  0  0  0  0  0  0  0  0  0  0  0
   59.9690   33.9850   48.8190 N   0  0  0  0  0  0  0  0  0  0  0  0
   59.2690   34.9030   47.8910 C   0  0  0  0  0  0  0  0  0  0  0  0
   58.8550   34.2520   46.5880 C   0  0  0  0  0  0  0  0  0  0  0  0
   59.5890   34.5000   45.4140 C   0  0  0  0  0  0  0  0  0  0  0  0
   59.2180   33.9020   44.2070 C   0  0  0  0  0  0  0  0  0  0  0  0
   58.1100   33.0430   44.1540 C   0  0  0  0  0  0  0  0  0  0  0  0
   57.7630   32.3470   42.8730 C   0  0  0  0  0  0  0  0  0  0  0  0
   57.3880   32.7750   45.3280 C   0  0  0  0  0  0  0  0  0  0  0  0
   57.7560   33.3760   46.5350 C   0  0  0  0  0  0  0  0  0  0  0  0
   61.3790   33.7020   48.4560 C   0  0  0  0  0  0  0  0  0  0  0  0
   61.6140   32.2150   48.1590 C   0  0  0  0  0  0  0  0  0  0  0  0
   59.0820   28.8040   48.2230 C   0  0  0  0  0  0  0  0  0  0  0  0
   58.2020   28.4260   47.2040 C   0  0  0  0  0  0  0  0  0  0  0  0
   55.7665   29.8761   45.1428 H   0  0  0  0  0  0  0  0  0  0  0  0
   55.9677   30.8062   43.6192 H   0  0  0  0  0  0  0  0  0  0  0  0
   55.0292   29.2745   43.6192 H   0  0  0  0  0  0  0  0  0  0  0  0
   56.9726   28.3282   42.9105 H   0  0  0  0  0  0  0  0  0  0  0  0
   57.9592   29.7333   43.4789 H   0  0  0  0  0  0  0  0  0  0  0  0
   59.8896   29.6899   44.5161 H   0  0  0  0  0  0  0  0  0  0  0  0
   61.4331   30.4103   46.3332 H   0  0  0  0  0  0  0  0  0  0  0  0
   60.9709   29.3710   49.9254 H   0  0  0  0  0  0  0  0  0  0  0  0
   62.2341   29.6779   48.6287 H   0  0  0  0  0  0  0  0  0  0  0  0
   62.0260   31.4920   50.0170 H   0  0  0  0  0  0  0  0  0  0  0  0
   59.3978   30.9510   50.2789 H   0  0  0  0  0  0  0  0  0  0  0  0
   60.3269   32.3690   50.9410 H   0  0  0  0  0  0  0  0  0  0  0  0
   58.8382   32.2824   48.2769 H   0  0  0  0  0  0  0  0  0  0  0  0
   58.3009   33.1206   49.7805 H   0  0  0  0  0  0  0  0  0  0  0  0
   58.3661   35.2817   48.3923 H   0  0  0  0  0  0  0  0  0  0  0  0
   59.9768   35.7062   47.6385 H   0  0  0  0  0  0  0  0  0  0  0  0
   60.4612   35.1695   45.4464 H   0  0  0  0  0  0  0  0  0  0  0  0
   59.7972   34.1056   43.2943 H   0  0  0  0  0  0  0  0  0  0  0  0
   57.2826   31.3833   43.0978 H   0  0  0  0  0  0  0  0  0  0  0  0
   57.0721   32.9741   42.2905 H   0  0  0  0  0  0  0  0  0  0  0  0
   58.6797   32.1727   42.2905 H   0  0  0  0  0  0  0  0  0  0  0  0
   56.5288   32.0889   45.2977 H   0  0  0  0  0  0  0  0  0  0  0  0
   57.1825   33.1625   47.4491 H   0  0  0  0  0  0  0  0  0  0  0  0
   61.6388   34.2872   47.5616 H   0  0  0  0  0  0  0  0  0  0  0  0
   62.0104   33.9790   49.3131 H   0  0  0  0  0  0  0  0  0  0  0  0
   61.0017   31.9195   47.2943 H   0  0  0  0  0  0  0  0  0  0  0  0
   62.6822   32.0647   47.9435 H   0  0  0  0  0  0  0  0  0  0  0  0
   58.8564   28.5392   49.2665 H   0  0  0  0  0  0  0  0  0  0  0  0
   57.2756   27.8893   47.4565 H   0  0  0  0  0  0  0  0  0  0  0  0
  1  2  1  0
  2  3  1  0
  3  4  1  0
  4  5  2  0
  5  6  1  0
  6  7  2  0
  7  8  1  0
  8  9  1  0
  9 10  1  0
 10 11  1  0
 11 12  1  0
 12 13  1  0
 13 14  1  0
 14 15  2  0
 15 16  1  0
 16 17  2  0
 17 18  1  0
 17 19  1  0
 19 20  2  0
 12 21  1  0
 21 22  1  0
  7 23  1  0
 23 24  2  0
 24  4  1  0
 22  9  1  0
 20 14  1  0
  1 25  1  0
  1 26  1  0
  1 27  1  0
  2 28  1  0
  2 29  1  0
  5 30  1  0
  6 31  1  0
  8 32  1  0
  8 33  1  0
  9 34  1  0
 10 35  1  0
 10 36  1  0
 11 37  1  0
 11 38  1  0
 13 39  1  0
 13 40  1  0
 15 41  1  0
 16 42  1  0
 18 43  1  0
 18 44  1  0
 18 45  1  0
 19 46  1  0
 20 47  1  0
 21 48  1  0
 21 49  1  0
 22 50  1  0
 22 51  1  0
 23 52  1  0
 24 53  1  0
M  CHG  1   9   1
M  END
>  <UniqueID>  (4) 
4

>  <SMILES>  (4) 
CCOc1ccc(C[NH+]2CCN(Cc3ccc(C)cc3)CC2)cc1

>  <Energy>  (4) 
68.04216350599313

>  <Genealogy>  (4) 
CCOc1ccc(C[NH+]2CCN(Cc3ccc(C)cc3)CC2)cc1 (protonated)
CCOc1ccc(C[NH+]2CCN(Cc3ccc(C)cc3)CC2)cc1 (3D coordinates assigned)
CCOc1ccc(C[NH+]2CCN(Cc3ccc(C)cc3)CC2)cc1 (nonaromatic ring conformer: 68.04216350599313 kcal/mol)

>  <smiles>  (4) 
CCOc1ccc(CN2CCN(Cc3ccc(C)cc3)CC2)cc1

>  <score_type>  (4) 
oracle

>  <origin>  (4) 
adg

>  <m_score__min__energy>  (4) 
-5.8600000000000003

>  <m_primary>  (4) 
energy

$$$$
4:0
     RDKit          3D

 78 81  0  0  0  0  0  0  0  0999 V2000
   59.6710   35.4980   46.0370 C   0  0  0  0  0  0  0  0  0  0  0  0
   60.3650   34.1420   45.9760 C   0  0  0  0  0  0  0  0  0  0  0  0
   60.5740   33.6180   47.3540 N   0  0  0  0  0  0  0  0  0  0  0  0
   59.5670   34.1450   48.3060 C   0  0  0  0  0  0  0  0  0  0  0  0
   59.6940   33.4900   49.6810 C   0  0  0  0  0  0  0  0  0  0  0  0
   61.9450   33.9080   47.8390 C   0  0  0  0  0  0  0  0  0  0  0  0
   62.9880   33.3380   46.8690 C   0  0  0  0  0  0  0  0  0  0  0  0
   63.7230   32.2260   47.4790 N   0  0  0  0  0  0  0  0  0  0  0  0
   63.3940   31.7880   48.8090 C   0  0  0  0  0  0  0  0  0  0  0  0
   64.2080   32.1460   49.8980 C   0  0  0  0  0  0  0  0  0  0  0  0
   65.2440   33.0910   49.7430 C   0  0  0  0  0  0  0  0  0  0  0  0
   66.1010   33.3830   50.8030 C   0  0  0  0  0  0  0  0  0  0  0  0
   65.9490   32.7360   52.0240 C   0  0  0  0  0  0  0  0  0  0  0  0
   64.8980   31.8370   52.2140 C   0  0  0  0  0  0  0  0  0  0  0  0
   63.9680   31.5690   51.1760 C   0  0  0  0  0  0  0  0  0  0  0  0
   62.8560   30.7700   51.3810 N   0  0  0  0  0  0  0  0  0  0  0  0
   62.4530   30.4050   52.7570 C   0  0  0  0  0  0  0  0  0  0  0  0
   62.0900   30.3570   50.3050 C   0  0  0  0  0  0  0  0  0  0  0  0
   61.0770   29.3720   50.4460 C   0  0  0  0  0  0  0  0  0  0  0  0
   60.2460   29.0320   49.3810 C   0  0  0  0  0  0  0  0  0  0  0  0
   60.4030   29.6500   48.1350 C   0  0  0  0  0  0  0  0  0  0  0  0
   59.5400   29.4110   47.0510 O   0  0  0  0  0  0  0  0  0  0  0  0
   58.2250   28.8540   47.1380 C   0  0  0  0  0  0  0  0  0  0  0  0
   57.4190   29.1670   45.8430 C   0  0  0  0  0  0  0  0  0  0  0  0
   57.9070   30.2930   44.9590 N   0  0  2  0  0  0  0  0  0  0  0  0
   59.2730   29.9870   44.4440 C   0  0  0  0  0  0  0  0  0  0  0  0
   58.0100   31.5130   45.8500 C   0  0  0  0  0  0  0  0  0  0  0  0
   57.6410   32.8700   45.2010 C   0  0  0  0  0  0  0  0  0  0  0  0
   58.0030   32.9380   43.7260 C   0  0  0  0  0  0  0  0  0  0  0  0
   57.4120   31.7600   42.9390 C   0  0  0  0  0  0  0  0  0  0  0  0
   56.9340   30.5890   43.8390 C   0  0  1  0  0  0  0  0  0  0  0  0
   56.5480   29.3970   42.9370 C   0  0  0  0  0  0  0  0  0  0  0  0
   61.4620   30.5390   47.9480 C   0  0  0  0  0  0  0  0  0  0  0  0
   62.3160   30.9010   49.0130 C   0  0  0  0  0  0  0  0  0  0  0  0
   59.5230   35.7872   47.0879 H   0  0  0  0  0  0  0  0  0  0  0  0
   60.2941   36.2518   45.5335 H   0  0  0  0  0  0  0  0  0  0  0  0
   58.6951   35.4334   45.5335 H   0  0  0  0  0  0  0  0  0  0  0  0
   59.7395   33.4372   45.4086 H   0  0  0  0  0  0  0  0  0  0  0  0
   61.3401   34.2559   45.4798 H   0  0  0  0  0  0  0  0  0  0  0  0
   59.7110   35.2303   48.4131 H   0  0  0  0  0  0  0  0  0  0  0  0
   58.5667   33.9182   47.9085 H   0  0  0  0  0  0  0  0  0  0  0  0
   59.5469   34.2488   50.4636 H   0  0  0  0  0  0  0  0  0  0  0  0
   58.9315   32.7039   49.7845 H   0  0  0  0  0  0  0  0  0  0  0  0
   60.6950   33.0458   49.7845 H   0  0  0  0  0  0  0  0  0  0  0  0
   62.0792   34.9970   47.9163 H   0  0  0  0  0  0  0  0  0  0  0  0
   62.0811   33.4391   48.8247 H   0  0  0  0  0  0  0  0  0  0  0  0
   62.4777   32.9777   45.9636 H   0  0  0  0  0  0  0  0  0  0  0  0
   63.7040   34.1344   46.6179 H   0  0  0  0  0  0  0  0  0  0  0  0
   64.6780   31.9900   47.1090 H   0  0  0  0  0  0  0  0  0  0  0  0
   65.3766   33.6016   48.7778 H   0  0  0  0  0  0  0  0  0  0  0  0
   66.9000   34.1277   50.6729 H   0  0  0  0  0  0  0  0  0  0  0  0
   66.6580   32.9327   52.8417 H   0  0  0  0  0  0  0  0  0  0  0  0
   64.7890   31.3285   53.1833 H   0  0  0  0  0  0  0  0  0  0  0  0
   63.0680   30.9620   53.4791 H   0  0  0  0  0  0  0  0  0  0  0  0
   61.3928   30.6565   52.9074 H   0  0  0  0  0  0  0  0  0  0  0  0
   62.5986   29.3251   52.9074 H   0  0  0  0  0  0  0  0  0  0  0  0
   60.9460   28.8678   51.4148 H   0  0  0  0  0  0  0  0  0  0  0  0
   59.4617   28.2733   49.5201 H   0  0  0  0  0  0  0  0  0  0  0  0
   58.3002   27.7638   47.2640 H   0  0  0  0  0  0  0  0  0  0  0  0
   57.7046   29.2978   47.9995 H   0  0  0  0  0  0  0  0  0  0  0  0
   57.4114   28.2517   45.2329 H   0  0  0  0  0  0  0  0  0  0  0  0
   56.4375   29.5069   46.2051 H   0  0  0  0  0  0  0  0  0  0  0  0
   59.9582   29.8335   45.2907 H   0  0  0  0  0  0  0  0  0  0  0  0
   59.2378   29.0745   43.8307 H   0  0  0  0  0  0  0  0  0  0  0  0
   59.6304   30.8273   43.8307 H   0  0  0  0  0  0  0  0  0  0  0  0
   57.3395   31.3587   46.7083 H   0  0  0  0  0  0  0  0  0  0  0  0
   59.0747   31.5942   46.1141 H   0  0  0  0  0  0  0  0  0  0  0  0
   56.5568   33.0250   45.3039 H   0  0  0  0  0  0  0  0  0  0  0  0
   58.2171   33.6511   45.7187 H   0  0  0  0  0  0  0  0  0  0  0  0
   57.6135   33.8774   43.3068 H   0  0  0  0  0  0  0  0  0  0  0  0
   59.0987   32.8910   43.6404 H   0  0  0  0  0  0  0  0  0  0  0  0
   56.5522   32.1259   42.3586 H   0  0  0  0  0  0  0  0  0  0  0  0
   58.2135   31.3667   42.2964 H   0  0  0  0  0  0  0  0  0  0  0  0
   56.0230   30.8663   44.3896 H   0  0  0  0  0  0  0  0  0  0  0  0
   56.2697   28.5374   43.5644 H   0  0  0  0  0  0  0  0  0  0  0  0
   55.6952   29.6788   42.3019 H   0  0  0  0  0  0  0  0  0  0  0  0
   57.4041   29.1254   42.3019 H   0  0  0  0  0  0  0  0  0  0  0  0
   61.6355   30.9671   46.9497 H   0  0  0  0  0  0  0  0  0  0  0  0
  1  2  1  0
  2  3  1  0
  3  4  1  0
  4  5  1  0
  3  6  1  0
  6  7  1  0
  7  8  1  0
  8  9  1  0
  9 10  2  0
 10 11  1  0
 11 12  2  0
 12 13  1  0
 13 14  2  0
 14 15  1  0
 15 16  2  0
 16 17  1  0
 16 18  1  0
 18 19  2  0
 19 20  1  0
 20 21  2  0
 21 22  1  0
 22 23  1  0
 23 24  1  0
 25 24  1  1
 25 26  1  0
 25 27  1  0
 27 28  1  0
 28 29  1  0
 29 30  1  0
 30 31  1  0
 31 32  1  0
 21 33  1  0
 33 34  2  0
 34  9  1  0
 15 10  1  0
 34 18  1  0
 31 25  1  0
  1 35  1  0
  1 36  1  0
  1 37  1  0
  2 38  1  0
  2 39  1  0
  4 40  1  0
  4 41  1  0
  5 42  1  0
  5 43  1  0
  5 44  1  0
  6 45  1  0
  6 46  1  0
  7 47  1  0
  7 48  1  0
  8 49  1  0
 11 50  1  0
 12 51  1  0
 13 52  1  0
 14 53  1  0
 17 54  1  0
 17 55  1  0
 17 56  1  0
 19 57  1  0
 20 58  1  0
 23 59  1  0
 23 60  1  0
 24 61  1  0
 24 62  1  0
 26 63  1  0
 26 64  1  0
 26 65  1  0
 27 66  1  0
 27 67  1  0
 28 68  1  0
 28 69  1  0
 29 70  1  0
 29 71  1  0
 30 72  1  0
 30 73  1  0
 31 74  1  1
 32 75  1  0
 32 76  1  0
 32 77  1  0
 33 78  1  0
M  CHG  2  16   1  25   1
M  END
>  <UniqueID>  (5) 
5

>  <SMILES>  (5) 
CCN(CC)CCNc1c2ccccc2[n+](C)c2ccc(OCC[N@+]3(C)CCCC[C@H]3C)cc12

>  <Energy>  (5) 
135.9974279402238

>  <Genealogy>  (5) 
CCN(CC)CCNc1c2ccccc2[n+](C)c2ccc(OCC[N@+]3(C)CCCC[C@H]3C)cc12 (chirality)
CCN(CC)CCNc1c2ccccc2[n+](C)c2ccc(OCC[N@+]3(C)CCCC[C@H]3C)cc12 (3D coordinates assigned)
CCN(CC)CCNc1c2ccccc2[n+](C)c2ccc(OCC[N@+]3(C)CCCC[C@H]3C)cc12 (nonaromatic ring conformer: 135.9974279402238 kcal/mol)

>  <smiles>  (5) 
CCN(CC)CCNc1c2ccccc2[n+](C)c2ccc(OCC[N+]3(C)CCCCC3C)cc12

>  <score_type>  (5) 
oracle

>  <origin>  (5) 
adg

>  <m_score__min__energy>  (5) 
-5.4100000000000001

>  <m_primary>  (5) 
energy

$$$$
5:0
     RDKit          3D

 55 57  0  0  0  0  0  0  0  0999 V2000
   62.0830   33.8720   49.9690 C   0  0  0  0  0  0  0  0  0  0  0  0
   62.7520   32.5180   49.7520 C   0  0  0  0  0  0  0  0  0  0  0  0
   63.2790   32.4220   48.3700 N   0  0  0  0  0  0  0  0  0  0  0  0
   63.6160   33.7600   47.8320 C   0  0  0  0  0  0  0  0  0  0  0  0
   63.2050   33.8580   46.3650 C   0  0  0  0  0  0  0  0  0  0  0  0
   62.3260   31.7120   47.4850 C   0  0  0  0  0  0  0  0  0  0  0  0
   61.4420   30.7740   48.3110 C   0  0  0  0  0  0  0  0  0  0  0  0
   60.0520   31.2340   48.3090 N   0  0  0  0  0  0  0  0  0  0  0  0
   59.3580   31.4070   47.0670 C   0  0  0  0  0  0  0  0  0  0  0  0
   59.2920   32.6950   46.5080 C   0  0  0  0  0  0  0  0  0  0  0  0
   59.7620   33.8180   47.2260 C   0  0  0  0  0  0  0  0  0  0  0  0
   59.7430   35.0880   46.6570 C   0  0  0  0  0  0  0  0  0  0  0  0
   59.2710   35.2620   45.3620 C   0  0  0  0  0  0  0  0  0  0  0  0
   58.7940   34.1710   44.6370 C   0  0  0  0  0  0  0  0  0  0  0  0
   58.7640   32.8700   45.2040 C   0  0  0  0  0  0  0  0  0  0  0  0
   58.2720   31.7860   44.5060 N   0  0  0  0  0  0  0  0  0  0  0  0
   57.4910   32.0010   43.2670 C   0  0  0  0  0  0  0  0  0  0  0  0
   58.4720   30.5020   44.9830 C   0  0  0  0  0  0  0  0  0  0  0  0
   58.2760   29.3770   44.1470 C   0  0  0  0  0  0  0  0  0  0  0  0
   58.3970   28.0770   44.6360 C   0  0  0  0  0  0  0  0  0  0  0  0
   58.1530   26.9040   43.7310 C   0  0  0  0  0  0  0  0  0  0  0  0
   58.6430   27.8750   45.9900 C   0  0  0  0  0  0  0  0  0  0  0  0
   58.8690   28.9570   46.8530 C   0  0  0  0  0  0  0  0  0  0  0  0
   58.9940   28.6330   48.3240 C   0  0  0  0  0  0  0  0  0  0  0  0
   58.9050   30.2880   46.3240 C   0  0  0  0  0  0  0  0  0  0  0  0
   61.9876   34.0651   51.0477 H   0  0  0  0  0  0  0  0  0  0  0  0
   62.6948   34.6614   49.5079 H   0  0  0  0  0  0  0  0  0  0  0  0
   61.0843   33.8657   49.5079 H   0  0  0  0  0  0  0  0  0  0  0  0
   63.5813   32.4041   50.4656 H   0  0  0  0  0  0  0  0  0  0  0  0
   62.0092   31.7219   49.9085 H   0  0  0  0  0  0  0  0  0  0  0  0
   63.0831   34.5289   48.4106 H   0  0  0  0  0  0  0  0  0  0  0  0
   64.7021   33.9153   47.9113 H   0  0  0  0  0  0  0  0  0  0  0  0
   62.1369   34.1127   46.2997 H   0  0  0  0  0  0  0  0  0  0  0  0
   63.7993   34.6396   45.8691 H   0  0  0  0  0  0  0  0  0  0  0  0
   63.3827   32.8923   45.8691 H   0  0  0  0  0  0  0  0  0  0  0  0
   61.6925   32.4475   46.9675 H   0  0  0  0  0  0  0  0  0  0  0  0
   62.8898   31.1206   46.7485 H   0  0  0  0  0  0  0  0  0  0  0  0
   61.4879   29.7629   47.8803 H   0  0  0  0  0  0  0  0  0  0  0  0
   61.8092   30.7655   49.3479 H   0  0  0  0  0  0  0  0  0  0  0  0
   59.6250   31.6300   49.1770 H   0  0  0  0  0  0  0  0  0  0  0  0
   60.1478   33.6866   48.2477 H   0  0  0  0  0  0  0  0  0  0  0  0
   60.1017   35.9540   47.2326 H   0  0  0  0  0  0  0  0  0  0  0  0
   59.2737   36.2636   44.9073 H   0  0  0  0  0  0  0  0  0  0  0  0
   58.4348   34.3208   43.6082 H   0  0  0  0  0  0  0  0  0  0  0  0
   56.4607   32.2846   43.5276 H   0  0  0  0  0  0  0  0  0  0  0  0
   57.9544   32.8050   42.6763 H   0  0  0  0  0  0  0  0  0  0  0  0
   57.4776   31.0731   42.6763 H   0  0  0  0  0  0  0  0  0  0  0  0
   58.0226   29.5317   43.0878 H   0  0  0  0  0  0  0  0  0  0  0  0
   57.9661   26.0056   44.3375 H   0  0  0  0  0  0  0  0  0  0  0  0
   57.2777   27.1065   43.0962 H   0  0  0  0  0  0  0  0  0  0  0  0
   59.0364   26.7406   43.0962 H   0  0  0  0  0  0  0  0  0  0  0  0
   58.6606   26.8505   46.3901 H   0  0  0  0  0  0  0  0  0  0  0  0
   58.6610   29.4961   48.9191 H   0  0  0  0  0  0  0  0  0  0  0  0
   58.3680   27.7603   48.5617 H   0  0  0  0  0  0  0  0  0  0  0  0
   60.0439   28.4068   48.5617 H   0  0  0  0  0  0  0  0  0  0  0  0
  1  2  1  0
  2  3  1  0
  3  4  1  0
  4  5  1  0
  3  6  1  0
  6  7  1  0
  7  8  1  0
  8  9  1  0
  9 10  2  0
 10 11  1  0
 11 12  2  0
 12 13  1  0
 13 14  2  0
 14 15  1  0
 15 16  2  0
 16 17  1  0
 16 18  1  0
 18 19  2  0
 19 20  1  0
 20 21  1  0
 20 22  2  0
 22 23  1  0
 23 24  1  0
 23 25  2  0
 25  9  1  0
 15 10  1  0
 25 18  1  0
  1 26  1  0
  1 27  1  0
  1 28  1  0
  2 29  1  0
  2 30  1  0
  4 31  1  0
  4 32  1  0
  5 33  1  0
  5 34  1  0
  5 35  1  0
  6 36  1  0
  6 37  1  0
  7 38  1  0
  7 39  1  0
  8 40  1  0
 11 41  1  0
 12 42  1  0
 13 43  1  0
 14 44  1  0
 17 45  1  0
 17 46  1  0
 17 47  1  0
 19 48  1  0
 21 49  1  0
 21 50  1  0
 21 51  1  0
 22 52  1  0
 24 53  1  0
 24 54  1  0
 24 55  1  0
M  CHG  1  16   1
M  END
>  <UniqueID>  (6) 
6

>  <SMILES>  (6) 
CCN(CC)CCNc1c2ccccc2[n+](C)c2cc(C)cc(C)c12

>  <Energy>  (6) 
86.30508498752317

>  <Genealogy>  (6) 
CCN(CC)CCNc1c2ccccc2[n+](C)c2cc(C)cc(C)c12 (3D coordinates assigned)
CCN(CC)CCNc1c2ccccc2[n+](C)c2cc(C)cc(C)c12 (optimized conformer: 86.30508498752317 kcal/mol)

>  <smiles>  (6) 
CCN(CC)CCNc1c2ccccc2[n+](C)c2cc(C)cc(C)c12

>  <score_type>  (6) 
oracle

>  <origin>  (6) 
adg

>  <m_score__min__energy>  (6) 
-5.9800000000000004

>  <m_primary>  (6) 
energy

$$$$
6:0
     RDKit          3D

 51 52  0  0  0  0  0  0  0  0999 V2000
   63.3250   33.8500   46.4720 C   0  0  0  0  0  0  0  0  0  0  0  0
   63.2400   32.5220   47.2250 C   0  0  0  0  0  0  0  0  0  0  0  0
   62.1060   32.4820   48.1810 N   0  0  0  0  0  0  0  0  0  0  0  0
   62.0140   33.6820   49.0520 C   0  0  0  0  0  0  0  0  0  0  0  0
   60.6720   33.8210   49.7840 C   0  0  0  0  0  0  0  0  0  0  0  0
   62.1010   31.2270   48.9730 C   0  0  0  0  0  0  0  0  0  0  0  0
   60.8290   30.4060   48.7060 C   0  0  0  0  0  0  0  0  0  0  0  0
   60.2380   30.7110   47.3960 N   0  0  0  0  0  0  0  0  0  0  0  0
   58.8660   31.2450   47.4900 C   0  0  0  0  0  0  0  0  0  0  0  0
   58.7150   32.4020   46.5360 C   0  0  0  0  0  0  0  0  0  0  0  0
   59.4700   33.5720   46.7230 C   0  0  0  0  0  0  0  0  0  0  0  0
   59.2760   34.6800   45.8960 C   0  0  0  0  0  0  0  0  0  0  0  0
   58.3300   34.6300   44.8730 C   0  0  0  0  0  0  0  0  0  0  0  0
   57.5790   33.4700   44.6680 C   0  0  0  0  0  0  0  0  0  0  0  0
   57.7650   32.3450   45.4950 C   0  0  0  0  0  0  0  0  0  0  0  0
   57.0310   31.1590   45.3160 O   0  0  0  0  0  0  0  0  0  0  0  0
   57.3400   30.1250   44.3830 C   0  0  0  0  0  0  0  0  0  0  0  0
   58.2890   29.1330   45.0000 C   0  0  0  0  0  0  0  0  0  0  0  0
   59.6610   29.1690   44.7030 C   0  0  0  0  0  0  0  0  0  0  0  0
   60.5300   28.2400   45.2840 C   0  0  0  0  0  0  0  0  0  0  0  0
   60.0380   27.2760   46.1670 C   0  0  0  0  0  0  0  0  0  0  0  0
   60.8820   26.3760   46.7290 F   0  0  0  0  0  0  0  0  0  0  0  0
   58.6730   27.2360   46.4690 C   0  0  0  0  0  0  0  0  0  0  0  0
   57.8000   28.1580   45.8850 C   0  0  0  0  0  0  0  0  0  0  0  0
   63.3780   34.6782   47.1940 H   0  0  0  0  0  0  0  0  0  0  0  0
   64.2254   33.8562   45.8401 H   0  0  0  0  0  0  0  0  0  0  0  0
   62.4328   33.9710   45.8401 H   0  0  0  0  0  0  0  0  0  0  0  0
   63.1140   31.7096   46.4942 H   0  0  0  0  0  0  0  0  0  0  0  0
   64.1686   32.4058   47.8031 H   0  0  0  0  0  0  0  0  0  0  0  0
   62.8142   33.6253   49.8046 H   0  0  0  0  0  0  0  0  0  0  0  0
   62.1109   34.5596   48.3959 H   0  0  0  0  0  0  0  0  0  0  0  0
   60.8434   33.8032   50.8704 H   0  0  0  0  0  0  0  0  0  0  0  0
   60.1980   34.7730   49.5031 H   0  0  0  0  0  0  0  0  0  0  0  0
   60.0129   32.9863   49.5031 H   0  0  0  0  0  0  0  0  0  0  0  0
   62.9803   30.6259   48.6982 H   0  0  0  0  0  0  0  0  0  0  0  0
   62.1286   31.4891   50.0410 H   0  0  0  0  0  0  0  0  0  0  0  0
   61.0838   29.3365   48.7396 H   0  0  0  0  0  0  0  0  0  0  0  0
   60.0905   30.6653   49.4789 H   0  0  0  0  0  0  0  0  0  0  0  0
   60.8420   31.4330   46.9370 H   0  0  0  0  0  0  0  0  0  0  0  0
   58.1459   30.4560   47.2275 H   0  0  0  0  0  0  0  0  0  0  0  0
   58.6736   31.5873   48.5175 H   0  0  0  0  0  0  0  0  0  0  0  0
   60.2195   33.6154   47.5269 H   0  0  0  0  0  0  0  0  0  0  0  0
   59.8698   35.5928   46.0516 H   0  0  0  0  0  0  0  0  0  0  0  0
   58.1746   35.5059   44.2259 H   0  0  0  0  0  0  0  0  0  0  0  0
   56.8379   33.4349   43.8559 H   0  0  0  0  0  0  0  0  0  0  0  0
   56.4130   29.6087   44.0929 H   0  0  0  0  0  0  0  0  0  0  0  0
   57.8147   30.5719   43.4970 H   0  0  0  0  0  0  0  0  0  0  0  0
   60.0531   29.9296   44.0118 H   0  0  0  0  0  0  0  0  0  0  0  0
   61.6034   28.2685   45.0451 H   0  0  0  0  0  0  0  0  0  0  0  0
   58.2863   26.4785   47.1666 H   0  0  0  0  0  0  0  0  0  0  0  0
   56.7259   28.1200   46.1193 H   0  0  0  0  0  0  0  0  0  0  0  0
  1  2  1  0
  2  3  1  0
  3  4  1  0
  4  5  1  0
  3  6  1  0
  6  7  1  0
  7  8  1  0
  8  9  1  0
  9 10  1  0
 10 11  2  0
 11 12  1  0
 12 13  2  0
 13 14  1  0
 14 15  2  0
 15 16  1  0
 16 17  1  0
 17 18  1  0
 18 19  2  0
 19 20  1  0
 20 21  2  0
 21 22  1  0
 21 23  1  0
 23 24  2  0
 15 10  1  0
 24 18  1  0
  1 25  1  0
  1 26  1  0
  1 27  1  0
  2 28  1  0
  2 29  1  0
  4 30  1  0
  4 31  1  0
  5 32  1  0
  5 33  1  0
  5 34  1  0
  6 35  1  0
  6 36  1  0
  7 37  1  0
  7 38  1  0
  8 39  1  0
  9 40  1  0
  9 41  1  0
 11 42  1  0
 12 43  1  0
 13 44  1  0
 14 45  1  0
 17 46  1  0
 17 47  1  0
 19 48  1  0
 20 49  1  0
 23 50  1  0
 24 51  1  0
M  END
>  <UniqueID>  (7) 
7

>  <SMILES>  (7) 
CCN(CC)CCNCc1ccccc1OCc1ccc(F)cc1

>  <Energy>  (7) 
48.57120424702211

>  <Genealogy>  (7) 
CCN(CC)CCNCc1ccccc1OCc1ccc(F)cc1 (3D coordinates assigned)
CCN(CC)CCNCc1ccccc1OCc1ccc(F)cc1 (optimized conformer: 48.57120424702211 kcal/mol)

>  <smiles>  (7) 
CCN(CC)CCNCc1ccccc1OCc1ccc(F)cc1

>  <score_type>  (7) 
oracle

>  <origin>  (7) 
adg

>  <m_score__min__energy>  (7) 
-6.2599999999999998

>  <m_primary>  (7) 
energy

$$$$
7:0
     RDKit          3D

 61 64  0  0  0  0  0  0  0  0999 V2000
   57.0130   34.4980   44.8640 C   0  0  0  0  0  0  0  0  0  0  0  0
   58.4990   34.4970   45.1930 C   0  0  0  0  0  0  0  0  0  0  0  0
   58.7180   33.9970   46.5700 N   0  0  0  0  0  0  0  0  0  0  0  0
   57.4690   33.4340   47.1200 C   0  0  0  0  0  0  0  0  0  0  0  0
   59.2370   35.0580   47.4590 C   0  0  0  0  0  0  0  0  0  0  0  0
   60.5440   34.5930   48.1220 C   0  0  0  0  0  0  0  0  0  0  0  0
   61.2530   33.5620   47.3350 N   0  0  0  0  0  0  0  0  0  0  0  0
   61.5450   32.3640   48.1120 C   0  0  0  0  0  0  0  0  0  0  0  0
   62.6800   32.2990   48.9740 C   0  0  0  0  0  0  0  0  0  0  0  0
   63.6330   33.3470   49.0540 C   0  0  0  0  0  0  0  0  0  0  0  0
   64.7640   33.2360   49.8580 C   0  0  0  0  0  0  0  0  0  0  0  0
   64.9830   32.0860   50.5970 C   0  0  0  0  0  0  0  0  0  0  0  0
   64.0590   31.0490   50.5610 C   0  0  0  0  0  0  0  0  0  0  0  0
   62.8750   31.1430   49.7850 C   0  0  0  0  0  0  0  0  0  0  0  0
   61.9380   30.1330   49.7960 N   0  0  0  0  0  0  0  0  0  0  0  0
   61.9590   29.1140   50.8710 C   0  0  0  0  0  0  0  0  0  0  0  0
   60.9620   30.0830   48.8250 C   0  0  0  0  0  0  0  0  0  0  0  0
   60.2000   28.9070   48.6180 C   0  0  0  0  0  0  0  0  0  0  0  0
   59.1630   28.8600   47.6810 C   0  0  0  0  0  0  0  0  0  0  0  0
   58.4280   27.6830   47.5070 C   0  0  0  0  0  0  0  0  0  0  0  0
   57.3940   27.6280   46.5760 C   0  0  0  0  0  0  0  0  0  0  0  0
   57.0670   28.7520   45.7950 C   0  0  0  0  0  0  0  0  0  0  0  0
   56.0460   28.6820   44.8330 O   0  0  0  0  0  0  0  0  0  0  0  0
   56.0480   29.3640   43.5850 C   0  0  0  0  0  0  0  0  0  0  0  0
   57.7950   29.9580   45.9750 C   0  0  0  0  0  0  0  0  0  0  0  0
   57.5100   31.1370   45.2550 O   0  0  0  0  0  0  0  0  0  0  0  0
   58.1100   31.5530   44.0370 C   0  0  0  0  0  0  0  0  0  0  0  0
   58.8570   29.9980   46.9140 C   0  0  0  0  0  0  0  0  0  0  0  0
   59.6300   31.1600   47.0860 C   0  0  0  0  0  0  0  0  0  0  0  0
   60.7100   31.2130   48.0020 C   0  0  0  0  0  0  0  0  0  0  0  0
   56.4308   34.4984   45.7973 H   0  0  0  0  0  0  0  0  0  0  0  0
   56.7677   35.3963   44.2785 H   0  0  0  0  0  0  0  0  0  0  0  0
   56.7665   33.6000   44.2785 H   0  0  0  0  0  0  0  0  0  0  0  0
   59.0282   33.8459   44.4816 H   0  0  0  0  0  0  0  0  0  0  0  0
   58.8835   35.5249   45.1191 H   0  0  0  0  0  0  0  0  0  0  0  0
   57.5110   33.4529   48.2190 H   0  0  0  0  0  0  0  0  0  0  0  0
   56.6136   34.0336   46.7754 H   0  0  0  0  0  0  0  0  0  0  0  0
   57.3518   32.3960   46.7754 H   0  0  0  0  0  0  0  0  0  0  0  0
   59.4304   35.9659   46.8689 H   0  0  0  0  0  0  0  0  0  0  0  0
   58.4920   35.2730   48.2392 H   0  0  0  0  0  0  0  0  0  0  0  0
   61.2070   35.4629   48.2390 H   0  0  0  0  0  0  0  0  0  0  0  0
   60.2811   34.1453   49.0918 H   0  0  0  0  0  0  0  0  0  0  0  0
   62.1480   33.9630   46.9730 H   0  0  0  0  0  0  0  0  0  0  0  0
   60.7390   33.3620   46.4510 H   0  0  0  0  0  0  0  0  0  0  0  0
   63.4751   34.2652   48.4693 H   0  0  0  0  0  0  0  0  0  0  0  0
   65.4859   34.0646   49.9063 H   0  0  0  0  0  0  0  0  0  0  0  0
   65.8894   31.9932   51.2133 H   0  0  0  0  0  0  0  0  0  0  0  0
   64.2492   30.1370   51.1458 H   0  0  0  0  0  0  0  0  0  0  0  0
   61.9487   29.6142   51.8506 H   0  0  0  0  0  0  0  0  0  0  0  0
   61.0740   28.4670   50.7803 H   0  0  0  0  0  0  0  0  0  0  0  0
   62.8699   28.5041   50.7803 H   0  0  0  0  0  0  0  0  0  0  0  0
   60.4297   28.0082   49.2091 H   0  0  0  0  0  0  0  0  0  0  0  0
   58.6683   26.7947   48.1096 H   0  0  0  0  0  0  0  0  0  0  0  0
   56.8259   26.6946   46.4495 H   0  0  0  0  0  0  0  0  0  0  0  0
   56.0512   30.4499   43.7606 H   0  0  0  0  0  0  0  0  0  0  0  0
   56.9453   29.0822   43.0146 H   0  0  0  0  0  0  0  0  0  0  0  0
   55.1490   29.0874   43.0146 H   0  0  0  0  0  0  0  0  0  0  0  0
   58.9959   32.1672   44.2557 H   0  0  0  0  0  0  0  0  0  0  0  0
   58.4112   30.6689   43.4559 H   0  0  0  0  0  0  0  0  0  0  0  0
   57.3877   32.1451   43.4559 H   0  0  0  0  0  0  0  0  0  0  0  0
   59.3893   32.0541   46.4921 H   0  0  0  0  0  0  0  0  0  0  0  0
  1  2  1  0
  2  3  1  0
  3  4  1  0
  3  5  1  0
  5  6  1  0
  6  7  1  0
  7  8  1  0
  8  9  2  0
  9 10  1  0
 10 11  2  0
 11 12  1  0
 12 13  2  0
 13 14  1  0
 14 15  2  0
 15 16  1  0
 15 17  1  0
 17 18  2  0
 18 19  1  0
 19 20  2  0
 20 21  1  0
 21 22  2  0
 22 23  1  0
 23 24  1  0
 22 25  1  0
 25 26  1  0
 26 27  1  0
 25 28  2  0
 28 29  1  0
 29 30  2  0
 30  8  1  0
 14  9  1  0
 30 17  1  0
 28 19  1  0
  1 31  1  0
  1 32  1  0
  1 33  1  0
  2 34  1  0
  2 35  1  0
  4 36  1  0
  4 37  1  0
  4 38  1  0
  5 39  1  0
  5 40  1  0
  6 41  1  0
  6 42  1  0
  7 43  1  0
  7 44  1  0
 10 45  1  0
 11 46  1  0
 12 47  1  0
 13 48  1  0
 16 49  1  0
 16 50  1  0
 16 51  1  0
 18 52  1  0
 20 53  1  0
 21 54  1  0
 24 55  1  0
 24 56  1  0
 24 57  1  0
 27 58  1  0
 27 59  1  0
 27 60  1  0
 29 61  1  0
M  CHG  2   7   1  15   1
M  END
>  <UniqueID>  (8) 
8

>  <SMILES>  (8) 
CCN(C)CC[NH2+]c1c2ccccc2[n+](C)c2cc3ccc(OC)c(OC)c3cc12

>  <Energy>  (8) 
99.63463102794468

>  <Genealogy>  (8) 
CCN(C)CC[NH2+]c1c2ccccc2[n+](C)c2cc3ccc(OC)c(OC)c3cc12 (protonated)
CCN(C)CC[NH2+]c1c2ccccc2[n+](C)c2cc3ccc(OC)c(OC)c3cc12 (3D coordinates assigned)
CCN(C)CC[NH2+]c1c2ccccc2[n+](C)c2cc3ccc(OC)c(OC)c3cc12 (optimized conformer: 99.63463102794468 kcal/mol)

>  <smiles>  (8) 
CCN(C)CCNc1c2ccccc2[n+](C)c2cc3ccc(OC)c(OC)c3cc12

>  <score_type>  (8) 
oracle

>  <origin>  (8) 
adg

>  <m_score__min__energy>  (8) 
-4.8899999999999997

>  <m_primary>  (8) 
energy

$$$$
8:0
     RDKit          3D

 64 65  0  0  0  0  0  0  0  0999 V2000
   58.9850   34.0490   53.9480 C   0  0  0  0  0  0  0  0  0  0  0  0
   58.5910   34.0910   52.4560 C   0  0  0  0  0  0  0  0  0  0  0  0
   59.2290   33.0540   51.5710 N   0  0  0  0  0  0  0  0  0  0  0  0
   60.1800   32.2610   52.4010 C   0  0  0  0  0  0  0  0  0  0  0  0
   58.2050   32.1020   51.0160 C   0  0  0  0  0  0  0  0  0  0  0  0
   57.0860   31.6790   51.9910 C   0  0  0  0  0  0  0  0  0  0  0  0
   59.9360   33.7830   50.4350 C   0  0  0  0  0  0  0  0  0  0  0  0
   61.2510   33.1830   49.8550 C   0  0  0  0  0  0  0  0  0  0  0  0
   61.9250   34.0390   48.7410 C   0  0  0  0  0  0  0  0  0  0  0  0
   62.1970   33.3330   47.4430 N   0  0  0  0  0  0  0  0  0  0  0  0
   62.2250   31.8660   47.6810 C   0  0  0  0  0  0  0  0  0  0  0  0
   63.5520   33.7610   47.0040 C   0  0  0  0  0  0  0  0  0  0  0  0
   61.1480   33.7060   46.4270 C   0  0  0  0  0  0  0  0  0  0  0  0
   60.2440   34.9320   46.7290 C   0  0  0  0  0  0  0  0  0  0  0  0
   58.9300   34.5940   47.4480 C   0  0  0  0  0  0  0  0  0  0  0  0
   58.3120   33.4150   46.8450 N   0  0  0  0  0  0  0  0  0  0  0  0
   58.5780   32.0520   47.1880 C   0  0  0  0  0  0  0  0  0  0  0  0
   59.1760   31.6880   48.2350 O   0  0  0  0  0  0  0  0  0  0  0  0
   58.0860   31.1670   46.1380 C   0  0  0  0  0  0  0  0  0  0  0  0
   58.1090   29.7780   46.0320 C   0  0  0  0  0  0  0  0  0  0  0  0
   57.5660   29.1940   44.8740 C   0  0  0  0  0  0  0  0  0  0  0  0
   57.0280   30.0020   43.8400 C   0  0  0  0  0  0  0  0  0  0  0  0
   56.4310   29.3710   42.6180 C   0  0  0  0  0  0  0  0  0  0  0  0
   57.0100   31.4060   43.9840 C   0  0  0  0  0  0  0  0  0  0  0  0
   57.5500   31.9570   45.1440 C   0  0  0  0  0  0  0  0  0  0  0  0
   57.6950   33.3480   45.5570 C   0  0  0  0  0  0  0  0  0  0  0  0
   57.3550   34.3530   44.8770 O   0  0  0  0  0  0  0  0  0  0  0  0
   58.0819   34.1453   54.5686 H   0  0  0  0  0  0  0  0  0  0  0  0
   59.4817   33.0928   54.1693 H   0  0  0  0  0  0  0  0  0  0  0  0
   59.6721   34.8790   54.1693 H   0  0  0  0  0  0  0  0  0  0  0  0
   57.5005   33.9610   52.3930 H   0  0  0  0  0  0  0  0  0  0  0  0
   58.9537   35.0601   52.0828 H   0  0  0  0  0  0  0  0  0  0  0  0
   59.9704   32.4358   53.4666 H   0  0  0  0  0  0  0  0  0  0  0  0
   60.0605   31.1912   52.1744 H   0  0  0  0  0  0  0  0  0  0  0  0
   61.2109   32.5708   52.1744 H   0  0  0  0  0  0  0  0  0  0  0  0
   57.7321   32.5833   50.1472 H   0  0  0  0  0  0  0  0  0  0  0  0
   58.7539   31.1805   50.7719 H   0  0  0  0  0  0  0  0  0  0  0  0
   57.4330   31.8102   53.0266 H   0  0  0  0  0  0  0  0  0  0  0  0
   56.1961   32.3028   51.8207 H   0  0  0  0  0  0  0  0  0  0  0  0
   56.8313   30.6225   51.8207 H   0  0  0  0  0  0  0  0  0  0  0  0
   59.2200   33.8545   49.6030 H   0  0  0  0  0  0  0  0  0  0  0  0
   60.2573   34.7315   50.8901 H   0  0  0  0  0  0  0  0  0  0  0  0
   61.9688   33.0699   50.6808 H   0  0  0  0  0  0  0  0  0  0  0  0
   60.9744   32.2273   49.3859 H   0  0  0  0  0  0  0  0  0  0  0  0
   61.2659   34.8935   48.5278 H   0  0  0  0  0  0  0  0  0  0  0  0
   62.9114   34.3201   49.1385 H   0  0  0  0  0  0  0  0  0  0  0  0
   62.2287   31.6702   48.7634 H   0  0  0  0  0  0  0  0  0  0  0  0
   61.3355   31.4040   47.2279 H   0  0  0  0  0  0  0  0  0  0  0  0
   63.1315   31.4383   47.2279 H   0  0  0  0  0  0  0  0  0  0  0  0
   64.1780   33.9587   47.8867 H   0  0  0  0  0  0  0  0  0  0  0  0
   64.0106   32.9640   46.4003 H   0  0  0  0  0  0  0  0  0  0  0  0
   63.4696   34.6769   46.4003 H   0  0  0  0  0  0  0  0  0  0  0  0
   61.6681   33.9087   45.4791 H   0  0  0  0  0  0  0  0  0  0  0  0
   60.4568   32.8503   46.4189 H   0  0  0  0  0  0  0  0  0  0  0  0
   60.8120   35.6298   47.3618 H   0  0  0  0  0  0  0  0  0  0  0  0
   59.9657   35.3622   45.7556 H   0  0  0  0  0  0  0  0  0  0  0  0
   59.1382   34.3922   48.5091 H   0  0  0  0  0  0  0  0  0  0  0  0
   58.2412   35.4466   47.3553 H   0  0  0  0  0  0  0  0  0  0  0  0
   58.5394   29.1564   46.8310 H   0  0  0  0  0  0  0  0  0  0  0  0
   57.5584   28.0991   44.7689 H   0  0  0  0  0  0  0  0  0  0  0  0
   55.7041   28.6027   42.9200 H   0  0  0  0  0  0  0  0  0  0  0  0
   55.9230   30.1410   42.0187 H   0  0  0  0  0  0  0  0  0  0  0  0
   57.2279   28.9064   42.0187 H   0  0  0  0  0  0  0  0  0  0  0  0
   56.5808   32.0483   43.2008 H   0  0  0  0  0  0  0  0  0  0  0  0
  1  2  1  0
  2  3  1  0
  3  4  1  0
  3  5  1  0
  5  6  1  0
  3  7  1  0
  7  8  1  0
  8  9  1  0
  9 10  1  0
 10 11  1  0
 10 12  1  0
 10 13  1  0
 13 14  1  0
 14 15  1  0
 15 16  1  0
 16 17  1  0
 17 18  2  0
 17 19  1  0
 19 20  2  0
 20 21  1  0
 21 22  2  0
 22 23  1  0
 22 24  1  0
 24 25  2  0
 25 26  1  0
 26 27  2  0
 26 16  1  0
 25 19  1  0
  1 28  1  0
  1 29  1  0
  1 30  1  0
  2 31  1  0
  2 32  1  0
  4 33  1  0
  4 34  1  0
  4 35  1  0
  5 36  1  0
  5 37  1  0
  6 38  1  0
  6 39  1  0
  6 40  1  0
  7 41  1  0
  7 42  1  0
  8 43  1  0
  8 44  1  0
  9 45  1  0
  9 46  1  0
 11 47  1  0
 11 48  1  0
 11 49  1  0
 12 50  1  0
 12 51  1  0
 12 52  1  0
 13 53  1  0
 13 54  1  0
 14 55  1  0
 14 56  1  0
 15 57  1  0
 15 58  1  0
 20 59  1  0
 21 60  1  0
 23 61  1  0
 23 62  1  0
 23 63  1  0
 24 64  1  0
M  CHG  2   3   1  10   1
M  END
>  <UniqueID>  (9) 
9

>  <SMILES>  (9) 
CC[N+](C)(CC)CCC[N+](C)(C)CCCN1C(=O)c2ccc(C)cc2C1=O

>  <Energy>  (9) 
131.2918954618541

>  <Genealogy>  (9) 
CC[N+](C)(CC)CCC[N+](C)(C)CCCN1C(=O)c2ccc(C)cc2C1=O (3D coordinates assigned)
CC[N+](C)(CC)CCC[N+](C)(C)CCCN1C(=O)c2ccc(C)cc2C1=O (nonaromatic ring conformer: 131.2918954618541 kcal/mol)

>  <smiles>  (9) 
CC[N+](C)(CC)CCC[N+](C)(C)CCCN1C(=O)c2ccc(C)cc2C1=O

>  <score_type>  (9) 
oracle

>  <origin>  (9) 
adg

>  <m_score__min__energy>  (9) 
-4.5800000000000001

>  <m_primary>  (9) 
energy

$$$$
9:0
     RDKit          3D

 50 52  0  0  0  0  0  0  0  0999 V2000
   63.3640   33.8810   46.3560 C   0  0  0  0  0  0  0  0  0  0  0  0
   62.9380   33.8770   47.8310 C   0  0  0  0  0  0  0  0  0  0  0  0
   62.8070   32.5230   48.4230 N   0  0  0  0  0  0  0  0  0  0  0  0
   63.6270   32.3140   49.6380 C   0  0  0  0  0  0  0  0  0  0  0  0
   64.9740   33.0260   49.5330 C   0  0  0  0  0  0  0  0  0  0  0  0
   63.0070   31.4480   47.4240 C   0  0  0  0  0  0  0  0  0  0  0  0
   61.7460   30.5790   47.3040 C   0  0  0  0  0  0  0  0  0  0  0  0
   60.5830   31.2260   47.9460 N   0  0  0  0  0  0  0  0  0  0  0  0
   59.5400   31.5180   46.9730 C   0  0  0  0  0  0  0  0  0  0  0  0
   58.7630   30.4760   46.4170 C   0  0  0  0  0  0  0  0  0  0  0  0
   58.5680   29.2570   47.1030 C   0  0  0  0  0  0  0  0  0  0  0  0
   57.7930   28.2430   46.5450 C   0  0  0  0  0  0  0  0  0  0  0  0
   57.1880   28.4280   45.3080 C   0  0  0  0  0  0  0  0  0  0  0  0
   57.3690   29.6220   44.6110 C   0  0  0  0  0  0  0  0  0  0  0  0
   58.1750   30.6610   45.1400 C   0  0  0  0  0  0  0  0  0  0  0  0
   58.4070   31.8280   44.4420 N   0  0  0  0  0  0  0  0  0  0  0  0
   58.1370   31.8880   42.9890 C   0  0  0  0  0  0  0  0  0  0  0  0
   58.8630   32.9450   45.1160 C   0  0  0  0  0  0  0  0  0  0  0  0
   58.8040   34.2340   44.5300 C   0  0  0  0  0  0  0  0  0  0  0  0
   59.1990   35.3640   45.2390 C   0  0  0  0  0  0  0  0  0  0  0  0
   59.5830   35.2530   46.5670 C   0  0  0  0  0  0  0  0  0  0  0  0
   59.6300   34.0060   47.1910 C   0  0  0  0  0  0  0  0  0  0  0  0
   59.7170   34.0390   48.9560 Cl  0  0  0  0  0  0  0  0  0  0  0  0
   59.3670   32.8230   46.4430 C   0  0  0  0  0  0  0  0  0  0  0  0
   64.4621   33.8913   46.2915 H   0  0  0  0  0  0  0  0  0  0  0  0
   62.9760   32.9792   45.8598 H   0  0  0  0  0  0  0  0  0  0  0  0
   62.9591   34.7754   45.8598 H   0  0  0  0  0  0  0  0  0  0  0  0
   63.6899   34.4347   48.4086 H   0  0  0  0  0  0  0  0  0  0  0  0
   61.9401   34.3379   47.8728 H   0  0  0  0  0  0  0  0  0  0  0  0
   63.0820   32.7067   50.5091 H   0  0  0  0  0  0  0  0  0  0  0  0
   63.8141   31.2355   49.7470 H   0  0  0  0  0  0  0  0  0  0  0  0
   65.3604   33.2303   50.5424 H   0  0  0  0  0  0  0  0  0  0  0  0
   65.6856   32.3862   48.9905 H   0  0  0  0  0  0  0  0  0  0  0  0
   64.8462   33.9743   48.9905 H   0  0  0  0  0  0  0  0  0  0  0  0
   63.2287   31.9002   46.4460 H   0  0  0  0  0  0  0  0  0  0  0  0
   63.8448   30.8137   47.7490 H   0  0  0  0  0  0  0  0  0  0  0  0
   61.5229   30.4170   46.2391 H   0  0  0  0  0  0  0  0  0  0  0  0
   61.9348   29.6223   47.8129 H   0  0  0  0  0  0  0  0  0  0  0  0
   60.1920   30.6420   48.7200 H   0  0  0  0  0  0  0  0  0  0  0  0
   60.9670   32.0990   48.3640 H   0  0  0  0  0  0  0  0  0  0  0  0
   59.0331   29.1067   48.0884 H   0  0  0  0  0  0  0  0  0  0  0  0
   57.6597   27.2939   47.0848 H   0  0  0  0  0  0  0  0  0  0  0  0
   56.5646   27.6305   44.8774 H   0  0  0  0  0  0  0  0  0  0  0  0
   56.8789   29.7597   43.6359 H   0  0  0  0  0  0  0  0  0  0  0  0
   57.0755   32.1239   42.8227 H   0  0  0  0  0  0  0  0  0  0  0  0
   58.7622   32.6691   42.5318 H   0  0  0  0  0  0  0  0  0  0  0  0
   58.3725   30.9156   42.5318 H   0  0  0  0  0  0  0  0  0  0  0  0
   58.4400   34.3429   43.4977 H   0  0  0  0  0  0  0  0  0  0  0  0
   59.2067   36.3470   44.7455 H   0  0  0  0  0  0  0  0  0  0  0  0
   59.8530   36.1564   47.1335 H   0  0  0  0  0  0  0  0  0  0  0  0
  1  2  1  0
  2  3  1  0
  3  4  1  0
  4  5  1  0
  3  6  1  0
  6  7  1  0
  7  8  1  0
  8  9  1  0
  9 10  2  0
 10 11  1  0
 11 12  2  0
 12 13  1  0
 13 14  2  0
 14 15  1  0
 15 16  2  0
 16 17  1  0
 16 18  1  0
 18 19  2  0
 19 20  1  0
 20 21  2  0
 21 22  1  0
 22 23  1  0
 22 24  2  0
 24  9  1  0
 15 10  1  0
 24 18  1  0
  1 25  1  0
  1 26  1  0
  1 27  1  0
  2 28  1  0
  2 29  1  0
  4 30  1  0
  4 31  1  0
  5 32  1  0
  5 33  1  0
  5 34  1  0
  6 35  1  0
  6 36  1  0
  7 37  1  0
  7 38  1  0
  8 39  1  0
  8 40  1  0
 11 41  1  0
 12 42  1  0
 13 43  1  0
 14 44  1  0
 17 45  1  0
 17 46  1  0
 17 47  1  0
 19 48  1  0
 20 49  1  0
 21 50  1  0
M  CHG  2   8   1  16   1
M  END
>  <UniqueID>  (10) 
10

>  <SMILES>  (10) 
CCN(CC)CC[NH2+]c1c2ccccc2[n+](C)c2cccc(Cl)c12

>  <Energy>  (10) 
92.13633117167072

>  <Genealogy>  (10) 
CCN(CC)CC[NH2+]c1c2ccccc2[n+](C)c2cccc(Cl)c12 (protonated)
CCN(CC)CC[NH2+]c1c2ccccc2[n+](C)c2cccc(Cl)c12 (3D coordinates assigned)
CCN(CC)CC[NH2+]c1c2ccccc2[n+](C)c2cccc(Cl)c12 (optimized conformer: 92.13633117167072 kcal/mol)

>  <smiles>  (10) 
CCN(CC)CCNc1c2ccccc2[n+](C)c2cccc(Cl)c12

>  <score_type>  (10) 
oracle

>  <origin>  (10) 
adg

>  <m_score__min__energy>  (10) 
-4.2800000000000002

>  <m_primary>  (10) 
energy

$$$$
10:0
     RDKit          3D

 43 44  0  0  0  0  0  0  0  0999 V2000
   56.3990   24.4370   44.8110 C   0  0  0  0  0  0  0  0  0  0  0  0
   55.4900   25.3190   45.6590 C   0  0  0  0  0  0  0  0  0  0  0  0
   56.0580   26.6170   45.8220 O   0  0  0  0  0  0  0  0  0  0  0  0
   57.3990   26.8460   46.1580 C   0  0  0  0  0  0  0  0  0  0  0  0
   57.8150   26.6740   47.4460 N   0  0  0  0  0  0  0  0  0  0  0  0
   59.1020   26.8810   47.8250 C   0  0  0  0  0  0  0  0  0  0  0  0
   60.0480   27.2850   46.8880 C   0  0  0  0  0  0  0  0  0  0  0  0
   59.6590   27.4730   45.5620 C   0  0  0  0  0  0  0  0  0  0  0  0
   58.3230   27.2580   45.1720 C   0  0  0  0  0  0  0  0  0  0  0  0
   57.9260   27.4570   43.7550 C   0  0  0  0  0  0  0  0  0  0  0  0
   57.7580   26.4580   43.0020 O   0  0  0  0  0  0  0  0  0  0  0  0
   57.7400   28.7490   43.2460 O   0  0  0  0  0  0  0  0  0  0  0  0
   56.4600   29.3590   43.1010 C   0  0  0  0  0  0  0  0  0  0  0  0
   56.0280   29.9670   44.3960 C   0  0  0  0  0  0  0  0  0  0  0  0
   55.1720   29.3730   45.1060 O   0  0  0  0  0  0  0  0  0  0  0  0
   56.6040   31.2060   44.8230 N   0  0  0  0  0  0  0  0  0  0  0  0
   57.7730   31.3630   45.6450 C   0  0  0  0  0  0  0  0  0  0  0  0
   58.2330   30.3130   46.4620 C   0  0  0  0  0  0  0  0  0  0  0  0
   59.3630   30.4820   47.2630 C   0  0  0  0  0  0  0  0  0  0  0  0
   60.0440   31.7000   47.2650 C   0  0  0  0  0  0  0  0  0  0  0  0
   59.5850   32.7590   46.4790 C   0  0  0  0  0  0  0  0  0  0  0  0
   58.4390   32.6090   45.6800 C   0  0  0  0  0  0  0  0  0  0  0  0
   57.9800   33.7650   44.8220 C   0  0  0  0  0  0  0  0  0  0  0  0
   58.9600   34.9300   44.9160 C   0  0  0  0  0  0  0  0  0  0  0  0
   57.0317   23.8230   45.4688 H   0  0  0  0  0  0  0  0  0  0  0  0
   55.7852   23.7811   44.1761 H   0  0  0  0  0  0  0  0  0  0  0  0
   57.0361   25.0703   44.1761 H   0  0  0  0  0  0  0  0  0  0  0  0
   54.5123   25.4121   45.1636 H   0  0  0  0  0  0  0  0  0  0  0  0
   55.3725   24.8568   46.6503 H   0  0  0  0  0  0  0  0  0  0  0  0
   59.3972   26.7292   48.8737 H   0  0  0  0  0  0  0  0  0  0  0  0
   61.0921   27.4544   47.1901 H   0  0  0  0  0  0  0  0  0  0  0  0
   60.4012   27.7916   44.8152 H   0  0  0  0  0  0  0  0  0  0  0  0
   56.5165   30.1437   42.3322 H   0  0  0  0  0  0  0  0  0  0  0  0
   55.7291   28.5929   42.8029 H   0  0  0  0  0  0  0  0  0  0  0  0
   57.6976   29.3521   46.4690 H   0  0  0  0  0  0  0  0  0  0  0  0
   59.7176   29.6537   47.8940 H   0  0  0  0  0  0  0  0  0  0  0  0
   60.9430   31.8260   47.8862 H   0  0  0  0  0  0  0  0  0  0  0  0
   60.1245   33.7176   46.4854 H   0  0  0  0  0  0  0  0  0  0  0  0
   57.9130   33.4333   43.7753 H   0  0  0  0  0  0  0  0  0  0  0  0
   56.9958   34.1016   45.1800 H   0  0  0  0  0  0  0  0  0  0  0  0
   59.1544   35.1611   45.9737 H   0  0  0  0  0  0  0  0  0  0  0  0
   59.9035   34.6564   44.4210 H   0  0  0  0  0  0  0  0  0  0  0  0
   58.5289   35.8127   44.4210 H   0  0  0  0  0  0  0  0  0  0  0  0
  1  2  1  0
  2  3  1  0
  3  4  1  0
  4  5  2  0
  5  6  1  0
  6  7  2  0
  7  8  1  0
  8  9  2  0
  9 10  1  0
 10 11  2  0
 10 12  1  0
 12 13  1  0
 13 14  1  0
 14 15  2  0
 14 16  1  0
 16 17  1  0
 17 18  2  0
 18 19  1  0
 19 20  2  0
 20 21  1  0
 21 22  2  0
 22 23  1  0
 23 24  1  0
  9  4  1  0
 22 17  1  0
  1 25  1  0
  1 26  1  0
  1 27  1  0
  2 28  1  0
  2 29  1  0
  6 30  1  0
  7 31  1  0
  8 32  1  0
 13 33  1  0
 13 34  1  0
 18 35  1  0
 19 36  1  0
 20 37  1  0
 21 38  1  0
 23 39  1  0
 23 40  1  0
 24 41  1  0
 24 42  1  0
 24 43  1  0
M  CHG  1  16  -1
M  END
>  <UniqueID>  (11) 
11

>  <SMILES>  (11) 
CCOc1ncccc1C(=O)OCC(=O)[N-]c1ccccc1CC

>  <Energy>  (11) 
39.77624409153522

>  <Genealogy>  (11) 
CCOc1ncccc1C(=O)OCC(=O)[N-]c1ccccc1CC (protonated)
CCOc1ncccc1C(=O)OCC(=O)[N-]c1ccccc1CC (3D coordinates assigned)
CCOc1ncccc1C(=O)OCC(=O)[N-]c1ccccc1CC (optimized conformer: 39.77624409153522 kcal/mol)

>  <smiles>  (11) 
CCOc1ncccc1C(=O)OCC(=O)Nc1ccccc1CC

>  <score_type>  (11) 
oracle

>  <origin>  (11) 
adg

>  <m_score__min__energy>  (11) 
-8.3900000000000006

>  <m_primary>  (11) 
energy

$$$$
11:0
     RDKit          3D

 54 56  0  0  0  0  0  0  0  0999 V2000
   65.2570   33.0630   50.0300 C   0  0  0  0  0  0  0  0  0  0  0  0
   63.7680   33.0850   49.6630 C   0  0  0  0  0  0  0  0  0  0  0  0
   63.2720   31.9020   48.9050 N   0  0  0  0  0  0  0  0  0  0  0  0
   63.3760   31.9980   47.4210 C   0  0  0  0  0  0  0  0  0  0  0  0
   63.5360   33.4160   46.8540 C   0  0  0  0  0  0  0  0  0  0  0  0
   62.0320   31.2630   49.4350 C   0  0  0  0  0  0  0  0  0  0  0  0
   60.8760   32.2220   49.7900 C   0  0  0  0  0  0  0  0  0  0  0  0
   60.2160   32.7510   48.5400 C   0  0  0  0  0  0  0  0  0  0  0  0
   60.5150   33.9920   47.9900 C   0  0  0  0  0  0  0  0  0  0  0  0
   59.7300   34.0920   46.8660 C   0  0  0  0  0  0  0  0  0  0  0  0
   59.6350   35.1270   45.9410 C   0  0  0  0  0  0  0  0  0  0  0  0
   58.7500   34.9670   44.8660 C   0  0  0  0  0  0  0  0  0  0  0  0
   57.9840   33.7910   44.7380 C   0  0  0  0  0  0  0  0  0  0  0  0
   58.0930   32.7480   45.6920 C   0  0  0  0  0  0  0  0  0  0  0  0
   57.3400   31.5700   45.5990 O   0  0  0  0  0  0  0  0  0  0  0  0
   56.9720   30.9410   44.3760 C   0  0  0  0  0  0  0  0  0  0  0  0
   58.9950   32.9360   46.7570 C   0  0  0  0  0  0  0  0  0  0  0  0
   59.2950   32.0940   47.7780 N   0  0  0  0  0  0  0  0  0  0  0  0
   58.7660   30.7400   47.9950 C   0  0  0  0  0  0  0  0  0  0  0  0
   59.1790   29.7820   46.9000 C   0  0  0  0  0  0  0  0  0  0  0  0
   58.3310   28.7480   46.4590 C   0  0  0  0  0  0  0  0  0  0  0  0
   58.7330   27.8960   45.4250 C   0  0  0  0  0  0  0  0  0  0  0  0
   59.9760   28.0750   44.8140 C   0  0  0  0  0  0  0  0  0  0  0  0
   60.8180   29.1080   45.2310 C   0  0  0  0  0  0  0  0  0  0  0  0
   60.4200   29.9630   46.2630 C   0  0  0  0  0  0  0  0  0  0  0  0
   65.3648   33.0614   51.1247 H   0  0  0  0  0  0  0  0  0  0  0  0
   65.7238   32.1579   49.6143 H   0  0  0  0  0  0  0  0  0  0  0  0
   65.7503   33.9540   49.6143 H   0  0  0  0  0  0  0  0  0  0  0  0
   63.1907   33.1544   50.5968 H   0  0  0  0  0  0  0  0  0  0  0  0
   63.6371   33.9472   48.9926 H   0  0  0  0  0  0  0  0  0  0  0  0
   64.0010   31.1800   49.1280 H   0  0  0  0  0  0  0  0  0  0  0  0
   64.2484   31.4073   47.1046 H   0  0  0  0  0  0  0  0  0  0  0  0
   62.4182   31.6252   47.0291 H   0  0  0  0  0  0  0  0  0  0  0  0
   63.6171   34.1351   47.6824 H   0  0  0  0  0  0  0  0  0  0  0  0
   64.4452   33.4636   46.2367 H   0  0  0  0  0  0  0  0  0  0  0  0
   62.6603   33.6650   46.2367 H   0  0  0  0  0  0  0  0  0  0  0  0
   61.6640   30.5594   48.6737 H   0  0  0  0  0  0  0  0  0  0  0  0
   62.3249   30.7876   50.3827 H   0  0  0  0  0  0  0  0  0  0  0  0
   60.1299   31.6809   50.3905 H   0  0  0  0  0  0  0  0  0  0  0  0
   61.2836   33.0701   50.3597 H   0  0  0  0  0  0  0  0  0  0  0  0
   61.2286   34.7364   48.3730 H   0  0  0  0  0  0  0  0  0  0  0  0
   60.2356   36.0421   46.0500 H   0  0  0  0  0  0  0  0  0  0  0  0
   58.6525   35.7658   44.1161 H   0  0  0  0  0  0  0  0  0  0  0  0
   57.2939   33.6812   43.8885 H   0  0  0  0  0  0  0  0  0  0  0  0
   56.4273   30.0100   44.5919 H   0  0  0  0  0  0  0  0  0  0  0  0
   56.3270   31.6170   43.7956 H   0  0  0  0  0  0  0  0  0  0  0  0
   57.8774   30.7099   43.7956 H   0  0  0  0  0  0  0  0  0  0  0  0
   59.1434   30.3624   48.9568 H   0  0  0  0  0  0  0  0  0  0  0  0
   57.6678   30.8025   47.9920 H   0  0  0  0  0  0  0  0  0  0  0  0
   57.3468   28.6094   46.9303 H   0  0  0  0  0  0  0  0  0  0  0  0
   58.0693   27.0841   45.0928 H   0  0  0  0  0  0  0  0  0  0  0  0
   60.2920   27.4017   44.0036 H   0  0  0  0  0  0  0  0  0  0  0  0
   61.7956   29.2492   44.7469 H   0  0  0  0  0  0  0  0  0  0  0  0
   61.0818   30.7828   46.5790 H   0  0  0  0  0  0  0  0  0  0  0  0
  1  2  1  0
  2  3  1  0
  3  4  1  0
  4  5  1  0
  3  6  1  0
  6  7  1  0
  7  8  1  0
  8  9  2  0
  9 10  1  0
 10 11  2  0
 11 12  1  0
 12 13  2  0
 13 14  1  0
 14 15  1  0
 15 16  1  0
 14 17  2  0
 17 18  1  0
 18 19  1  0
 19 20  1  0
 20 21  2  0
 21 22  1  0
 22 23  2  0
 23 24  1  0
 24 25  2  0
 18  8  1  0
 25 20  1  0
 17 10  1  0
  1 26  1  0
  1 27  1  0
  1 28  1  0
  2 29  1  0
  2 30  1  0
  3 31  1  0
  4 32  1  0
  4 33  1  0
  5 34  1  0
  5 35  1  0
  5 36  1  0
  6 37  1  0
  6 38  1  0
  7 39  1  0
  7 40  1  0
  9 41  1  0
 11 42  1  0
 12 43  1  0
 13 44  1  0
 16 45  1  0
 16 46  1  0
 16 47  1  0
 19 48  1  0
 19 49  1  0
 21 50  1  0
 22 51  1  0
 23 52  1  0
 24 53  1  0
 25 54  1  0
M  CHG  1   3   1
M  END
>  <UniqueID>  (12) 
12

>  <SMILES>  (12) 
CC[NH+](CC)CCc1cc2cccc(OC)c2n1Cc1ccccc1

>  <Energy>  (12) 
100.86832788024381

>  <Genealogy>  (12) 
CC[NH+](CC)CCc1cc2cccc(OC)c2n1Cc1ccccc1 (protonated)
CC[NH+](CC)CCc1cc2cccc(OC)c2n1Cc1ccccc1 (3D coordinates assigned)
CC[NH+](CC)CCc1cc2cccc(OC)c2n1Cc1ccccc1 (optimized conformer: 100.86832788024381 kcal/mol)

>  <smiles>  (12) 
CCN(CC)CCc1cc2cccc(OC)c2n1Cc1ccccc1

>  <score_type>  (12) 
oracle

>  <origin>  (12) 
adg

>  <m_score__min__energy>  (12) 
-5.8399999999999999

>  <m_primary>  (12) 
energy

$$$$
12:0
     RDKit          3D

 47 48  0  0  0  0  0  0  0  0999 V2000
   63.0700   33.8440   46.3950 C   0  0  0  0  0  0  0  0  0  0  0  0
   62.0480   32.9330   46.7350 O   0  0  0  0  0  0  0  0  0  0  0  0
   62.4680   32.1450   47.8290 C   0  0  0  0  0  0  0  0  0  0  0  0
   61.7670   30.7770   47.7890 C   0  0  0  0  0  0  0  0  0  0  0  0
   60.7430   30.6640   46.7180 N   0  0  1  0  0  0  0  0  0  0  0  0
   61.0130   29.5090   45.8370 C   0  0  0  0  0  0  0  0  0  0  0  0
   59.3890   30.5200   47.3070 C   0  0  0  0  0  0  0  0  0  0  0  0
   58.3370   30.7280   46.2940 N   0  0  0  0  0  0  0  0  0  0  0  0
   58.0000   31.9020   45.7050 C   0  0  0  0  0  0  0  0  0  0  0  0
   58.5560   33.2270   46.0430 C   0  0  0  0  0  0  0  0  0  0  0  0
   58.9470   34.1160   45.0300 C   0  0  0  0  0  0  0  0  0  0  0  0
   59.4880   35.3630   45.3580 C   0  0  0  0  0  0  0  0  0  0  0  0
   59.6540   35.7230   46.6990 C   0  0  0  0  0  0  0  0  0  0  0  0
   59.2850   34.8340   47.7130 C   0  0  0  0  0  0  0  0  0  0  0  0
   58.7440   33.5860   47.3870 C   0  0  0  0  0  0  0  0  0  0  0  0
   57.0780   31.6910   44.6980 C   0  0  0  0  0  0  0  0  0  0  0  0
   56.8210   30.3340   44.6770 C   0  0  0  0  0  0  0  0  0  0  0  0
   55.9060   29.6490   43.7340 C   0  0  0  0  0  0  0  0  0  0  0  0
   56.3240   29.3780   42.3230 C   0  0  0  0  0  0  0  0  0  0  0  0
   54.7650   29.2720   44.1160 O   0  0  0  0  0  0  0  0  0  0  0  0
   57.6030   29.7650   45.6790 C   0  0  0  0  0  0  0  0  0  0  0  0
   57.6620   28.2960   46.0000 C   0  0  0  0  0  0  0  0  0  0  0  0
   63.5222   34.2471   47.3131 H   0  0  0  0  0  0  0  0  0  0  0  0
   63.8400   33.3272   45.8034 H   0  0  0  0  0  0  0  0  0  0  0  0
   62.6447   34.6681   45.8034 H   0  0  0  0  0  0  0  0  0  0  0  0
   63.5569   31.9984   47.7761 H   0  0  0  0  0  0  0  0  0  0  0  0
   62.2068   32.6583   48.7662 H   0  0  0  0  0  0  0  0  0  0  0  0
   62.5288   30.0006   47.6250 H   0  0  0  0  0  0  0  0  0  0  0  0
   61.2443   30.6543   48.7491 H   0  0  0  0  0  0  0  0  0  0  0  0
   60.7620   31.5280   46.1280 H   0  0  0  0  0  0  0  0  0  0  0  0
   61.2208   28.6202   46.4509 H   0  0  0  0  0  0  0  0  0  0  0  0
   60.1351   29.3190   45.2021 H   0  0  0  0  0  0  0  0  0  0  0  0
   61.8842   29.7279   45.2021 H   0  0  0  0  0  0  0  0  0  0  0  0
   59.2869   29.5083   47.7266 H   0  0  0  0  0  0  0  0  0  0  0  0
   59.2698   31.2816   48.0917 H   0  0  0  0  0  0  0  0  0  0  0  0
   58.8275   33.8309   43.9743 H   0  0  0  0  0  0  0  0  0  0  0  0
   59.7831   36.0611   44.5608 H   0  0  0  0  0  0  0  0  0  0  0  0
   60.0751   36.7061   46.9562 H   0  0  0  0  0  0  0  0  0  0  0  0
   59.4202   35.1161   48.7676 H   0  0  0  0  0  0  0  0  0  0  0  0
   58.4650   32.8837   48.1863 H   0  0  0  0  0  0  0  0  0  0  0  0
   56.6352   32.4544   44.0414 H   0  0  0  0  0  0  0  0  0  0  0  0
   57.2470   28.7796   42.3225 H   0  0  0  0  0  0  0  0  0  0  0  0
   55.5276   28.8240   41.8046 H   0  0  0  0  0  0  0  0  0  0  0  0
   56.5047   30.3312   41.8046 H   0  0  0  0  0  0  0  0  0  0  0  0
   57.6675   28.1591   47.0914 H   0  0  0  0  0  0  0  0  0  0  0  0
   56.7834   27.7915   45.5716 H   0  0  0  0  0  0  0  0  0  0  0  0
   58.5782   27.8636   45.5716 H   0  0  0  0  0  0  0  0  0  0  0  0
  1  2  1  0
  2  3  1  0
  3  4  1  0
  4  5  1  0
  5  6  1  0
  5  7  1  0
  7  8  1  0
  8  9  1  0
  9 10  1  0
 10 11  2  0
 11 12  1  0
 12 13  2  0
 13 14  1  0
 14 15  2  0
  9 16  2  0
 16 17  1  0
 17 18  1  0
 18 19  1  0
 18 20  2  0
 17 21  2  0
 21 22  1  0
 21  8  1  0
 15 10  1  0
  1 23  1  0
  1 24  1  0
  1 25  1  0
  3 26  1  0
  3 27  1  0
  4 28  1  0
  4 29  1  0
  5 30  1  6
  6 31  1  0
  6 32  1  0
  6 33  1  0
  7 34  1  0
  7 35  1  0
 11 36  1  0
 12 37  1  0
 13 38  1  0
 14 39  1  0
 15 40  1  0
 16 41  1  0
 19 42  1  0
 19 43  1  0
 19 44  1  0
 22 45  1  0
 22 46  1  0
 22 47  1  0
M  CHG  1   5   1
M  END
>  <UniqueID>  (13) 
13

>  <SMILES>  (13) 
COCC[N@@H+](C)Cn1c(-c2ccccc2)cc(C(C)=O)c1C

>  <Energy>  (13) 
78.9666450006476

>  <Genealogy>  (13) 
COCC[NH+](C)Cn1c(-c2ccccc2)cc(C(C)=O)c1C (protonated)
COCC[N@@H+](C)Cn1c(-c2ccccc2)cc(C(C)=O)c1C (chirality)
COCC[N@@H+](C)Cn1c(-c2ccccc2)cc(C(C)=O)c1C (3D coordinates assigned)
COCC[N@@H+](C)Cn1c(-c2ccccc2)cc(C(C)=O)c1C (optimized conformer: 78.9666450006476 kcal/mol)

>  <smiles>  (13) 
COCCN(C)Cn1c(-c2ccccc2)cc(C(C)=O)c1C

>  <score_type>  (13) 
oracle

>  <origin>  (13) 
adg

>  <m_score__min__energy>  (13) 
-4.8799999999999999

>  <m_primary>  (13) 
energy

$$$$
13:0
     RDKit          3D

 77 80  0  0  0  0  0  0  0  0999 V2000
   57.0950   27.2050   45.8300 C   0  0  0  0  0  0  0  0  0  0  0  0
   57.5020   28.3070   44.8520 C   0  0  0  0  0  0  0  0  0  0  0  0
   57.3100   29.7290   45.4250 C   0  0  0  0  0  0  0  0  0  0  0  0
   56.3070   30.5350   44.7100 N   0  0  0  0  0  0  0  0  0  0  0  0
   56.6880   30.8000   43.3150 C   0  0  0  0  0  0  0  0  0  0  0  0
   57.9670   31.6460   43.2500 C   0  0  0  0  0  0  0  0  0  0  0  0
   57.7790   33.0840   43.7610 C   0  0  0  0  0  0  0  0  0  0  0  0
   57.3680   33.1140   45.1290 O   0  0  0  0  0  0  0  0  0  0  0  0
   58.2160   33.3190   46.2300 C   0  0  0  0  0  0  0  0  0  0  0  0
   59.3500   34.1390   46.1740 C   0  0  0  0  0  0  0  0  0  0  0  0
   60.1830   34.2710   47.2870 C   0  0  0  0  0  0  0  0  0  0  0  0
   59.9510   33.5420   48.4740 C   0  0  0  0  0  0  0  0  0  0  0  0
   58.7150   32.8440   48.5620 C   0  0  0  0  0  0  0  0  0  0  0  0
   58.2870   32.3390   49.7840 C   0  0  0  0  0  0  0  0  0  0  0  0
   59.0040   32.6110   50.9360 C   0  0  0  0  0  0  0  0  0  0  0  0
   60.2480   33.2770   50.8870 C   0  0  0  0  0  0  0  0  0  0  0  0
   60.8280   33.5710   49.6180 C   0  0  0  0  0  0  0  0  0  0  0  0
   62.2530   33.7740   49.5700 C   0  0  0  0  0  0  0  0  0  0  0  0
   62.9850   33.7450   48.3110 N   0  0  0  0  0  0  0  0  0  0  0  0
   63.5620   32.4070   48.0480 C   0  0  0  0  0  0  0  0  0  0  0  0
   62.5540   31.5040   47.3150 C   0  0  0  0  0  0  0  0  0  0  0  0
   61.5220   30.9680   48.2340 N   0  0  0  0  0  0  0  0  0  0  0  0
   62.0880   30.5610   49.5410 C   0  0  0  0  0  0  0  0  0  0  0  0
   61.0500   29.7700   50.3250 C   0  0  0  0  0  0  0  0  0  0  0  0
   60.6430   29.9210   47.6500 C   0  0  0  0  0  0  0  0  0  0  0  0
   60.4440   30.0380   46.1330 C   0  0  0  0  0  0  0  0  0  0  0  0
   62.9790   33.8200   50.8020 C   0  0  0  0  0  0  0  0  0  0  0  0
   64.3960   33.8890   50.8390 C   0  0  0  0  0  0  0  0  0  0  0  0
   65.0880   33.9750   52.0440 C   0  0  0  0  0  0  0  0  0  0  0  0
   64.3980   33.9610   53.2450 C   0  0  0  0  0  0  0  0  0  0  0  0
   63.0130   33.8440   53.2480 C   0  0  0  0  0  0  0  0  0  0  0  0
   62.2750   33.7730   52.0380 C   0  0  0  0  0  0  0  0  0  0  0  0
   60.9110   33.5960   52.0490 N   0  0  0  0  0  0  0  0  0  0  0  0
   60.1510   33.7440   53.3110 C   0  0  0  0  0  0  0  0  0  0  0  0
   57.8900   32.7000   47.4350 C   0  0  0  0  0  0  0  0  0  0  0  0
   57.2273   27.5631   46.8616 H   0  0  0  0  0  0  0  0  0  0  0  0
   56.0399   26.9406   45.6661 H   0  0  0  0  0  0  0  0  0  0  0  0
   57.7249   26.3183   45.6661 H   0  0  0  0  0  0  0  0  0  0  0  0
   58.5635   28.1733   44.5963 H   0  0  0  0  0  0  0  0  0  0  0  0
   56.8508   28.2188   43.9699 H   0  0  0  0  0  0  0  0  0  0  0  0
   56.9956   29.6386   46.4752 H   0  0  0  0  0  0  0  0  0  0  0  0
   58.2730   30.2487   45.3128 H   0  0  0  0  0  0  0  0  0  0  0  0
   56.1660   31.4380   45.2150 H   0  0  0  0  0  0  0  0  0  0  0  0
   56.8621   29.8433   42.8008 H   0  0  0  0  0  0  0  0  0  0  0  0
   55.8734   31.3548   42.8266 H   0  0  0  0  0  0  0  0  0  0  0  0
   58.7390   31.1572   43.8624 H   0  0  0  0  0  0  0  0  0  0  0  0
   58.2555   31.7146   42.1907 H   0  0  0  0  0  0  0  0  0  0  0  0
   58.7329   33.6233   43.6644 H   0  0  0  0  0  0  0  0  0  0  0  0
   56.9915   33.5598   43.1580 H   0  0  0  0  0  0  0  0  0  0  0  0
   59.5860   34.6826   45.2473 H   0  0  0  0  0  0  0  0  0  0  0  0
   61.0399   34.9589   47.2380 H   0  0  0  0  0  0  0  0  0  0  0  0
   57.3775   31.7225   49.8356 H   0  0  0  0  0  0  0  0  0  0  0  0
   58.5964   32.3020   51.9098 H   0  0  0  0  0  0  0  0  0  0  0  0
   62.3540   34.0120   47.5240 H   0  0  0  0  0  0  0  0  0  0  0  0
   63.7060   34.4940   48.2720 H   0  0  0  0  0  0  0  0  0  0  0  0
   64.4621   32.5198   47.4259 H   0  0  0  0  0  0  0  0  0  0  0  0
   63.8143   31.9395   49.0112 H   0  0  0  0  0  0  0  0  0  0  0  0
   62.0586   32.0904   46.5271 H   0  0  0  0  0  0  0  0  0  0  0  0
   63.1057   30.6533   46.8885 H   0  0  0  0  0  0  0  0  0  0  0  0
   62.9769   29.9345   49.3755 H   0  0  0  0  0  0  0  0  0  0  0  0
   62.3699   31.4583   50.1115 H   0  0  0  0  0  0  0  0  0  0  0  0
   61.2248   29.9032   51.4028 H   0  0  0  0  0  0  0  0  0  0  0  0
   60.0432   30.1320   50.0693 H   0  0  0  0  0  0  0  0  0  0  0  0
   61.1320   28.7033   50.0693 H   0  0  0  0  0  0  0  0  0  0  0  0
   61.0884   28.9383   47.8643 H   0  0  0  0  0  0  0  0  0  0  0  0
   59.6516   30.0500   48.1087 H   0  0  0  0  0  0  0  0  0  0  0  0
   59.5126   30.5856   45.9265 H   0  0  0  0  0  0  0  0  0  0  0  0
   61.2936   30.5804   45.6925 H   0  0  0  0  0  0  0  0  0  0  0  0
   60.3832   29.0319   45.6925 H   0  0  0  0  0  0  0  0  0  0  0  0
   64.9600   33.8742   49.8947 H   0  0  0  0  0  0  0  0  0  0  0  0
   66.1851   34.0542   52.0423 H   0  0  0  0  0  0  0  0  0  0  0  0
   64.9457   34.0424   54.1955 H   0  0  0  0  0  0  0  0  0  0  0  0
   62.4778   33.8057   54.2083 H   0  0  0  0  0  0  0  0  0  0  0  0
   60.8305   33.6117   54.1659 H   0  0  0  0  0  0  0  0  0  0  0  0
   59.7006   34.7467   53.3524 H   0  0  0  0  0  0  0  0  0  0  0  0
   59.3573   32.9836   53.3524 H   0  0  0  0  0  0  0  0  0  0  0  0
   56.9761   32.0917   47.5042 H   0  0  0  0  0  0  0  0  0  0  0  0
  1  2  1  0
  2  3  1  0
  3  4  1  0
  4  5  1  0
  5  6  1  0
  6  7  1  0
  7  8  1  0
  8  9  1  0
  9 10  2  0
 10 11  1  0
 11 12  2  0
 12 13  1  0
 13 14  1  0
 14 15  2  0
 15 16  1  0
 16 17  2  0
 17 18  1  0
 18 19  1  0
 19 20  1  0
 20 21  1  0
 21 22  1  0
 22 23  1  0
 23 24  1  0
 22 25  1  0
 25 26  1  0
 18 27  2  0
 27 28  1  0
 28 29  2  0
 29 30  1  0
 30 31  2  0
 31 32  1  0
 32 33  2  0
 33 34  1  0
 13 35  2  0
 35  9  1  0
 17 12  1  0
 32 27  1  0
 33 16  1  0
  1 36  1  0
  1 37  1  0
  1 38  1  0
  2 39  1  0
  2 40  1  0
  3 41  1  0
  3 42  1  0
  4 43  1  0
  5 44  1  0
  5 45  1  0
  6 46  1  0
  6 47  1  0
  7 48  1  0
  7 49  1  0
 10 50  1  0
 11 51  1  0
 14 52  1  0
 15 53  1  0
 19 54  1  0
 19 55  1  0
 20 56  1  0
 20 57  1  0
 21 58  1  0
 21 59  1  0
 23 60  1  0
 23 61  1  0
 24 62  1  0
 24 63  1  0
 24 64  1  0
 25 65  1  0
 25 66  1  0
 26 67  1  0
 26 68  1  0
 26 69  1  0
 28 70  1  0
 29 71  1  0
 30 72  1  0
 31 73  1  0
 34 74  1  0
 34 75  1  0
 34 76  1  0
 35 77  1  0
M  CHG  2  19   1  33   1
M  END
>  <UniqueID>  (14) 
14

>  <SMILES>  (14) 
CCCNCCCOc1ccc2c(ccc3c2c([NH2+]CCN(CC)CC)c2ccccc2[n+]3C)c1

>  <Energy>  (14) 
125.55109324564384

>  <Genealogy>  (14) 
CCCNCCCOc1ccc2c(ccc3c2c([NH2+]CCN(CC)CC)c2ccccc2[n+]3C)c1 (protonated)
CCCNCCCOc1ccc2c(ccc3c2c([NH2+]CCN(CC)CC)c2ccccc2[n+]3C)c1 (3D coordinates assigned)
CCCNCCCOc1ccc2c(ccc3c2c([NH2+]CCN(CC)CC)c2ccccc2[n+]3C)c1 (optimized conformer: 125.55109324564384 kcal/mol)

>  <smiles>  (14) 
CCCNCCCOc1ccc2c(ccc3c2c(NCCN(CC)CC)c2ccccc2[n+]3C)c1

>  <score_type>  (14) 
oracle

>  <origin>  (14) 
adg

>  <m_score__min__energy>  (14) 
-6.25

>  <m_primary>  (14) 
energy

$$$$
14:0
     RDKit          3D

 59 61  0  0  0  0  0  0  0  0999 V2000
   56.1400   23.6190   43.7800 C   0  0  0  0  0  0  0  0  0  0  0  0
   55.6650   24.3990   45.0020 C   0  0  0  0  0  0  0  0  0  0  0  0
   56.5630   25.5540   45.2570 N   0  0  0  0  0  0  0  0  0  0  0  0
   56.8050   25.7010   46.7140 C   0  0  0  0  0  0  0  0  0  0  0  0
   56.6800   24.3560   47.4240 C   0  0  0  0  0  0  0  0  0  0  0  0
   57.8540   25.3960   44.5410 C   0  0  0  0  0  0  0  0  0  0  0  0
   58.1930   26.6080   43.6460 C   0  0  0  0  0  0  0  0  0  0  0  0
   57.3870   27.8080   43.9480 N   0  0  0  0  0  0  0  0  0  0  0  0
   58.0910   28.7450   44.8010 C   0  0  0  0  0  0  0  0  0  0  0  0
   58.8140   28.2490   45.8960 C   0  0  0  0  0  0  0  0  0  0  0  0
   59.4660   29.1040   46.7780 C   0  0  0  0  0  0  0  0  0  0  0  0
   59.4240   30.4910   46.5890 C   0  0  0  0  0  0  0  0  0  0  0  0
   58.7410   31.0250   45.4740 C   0  0  0  0  0  0  0  0  0  0  0  0
   58.7120   32.4240   45.2590 C   0  0  0  0  0  0  0  0  0  0  0  0
   58.0570   32.9390   44.1310 C   0  0  0  0  0  0  0  0  0  0  0  0
   57.4370   32.0850   43.2250 C   0  0  0  0  0  0  0  0  0  0  0  0
   57.4470   30.7080   43.4300 C   0  0  0  0  0  0  0  0  0  0  0  0
   58.0860   30.1500   44.5590 C   0  0  0  0  0  0  0  0  0  0  0  0
   59.3480   33.3420   46.2310 C   0  0  0  0  0  0  0  0  0  0  0  0
   59.3790   34.5820   45.9990 O   0  0  0  0  0  0  0  0  0  0  0  0
   59.9200   32.8160   47.4430 N   0  0  0  0  0  0  0  0  0  0  0  0
   60.3520   33.7070   48.5320 C   0  0  0  0  0  0  0  0  0  0  0  0
   61.8500   34.0900   48.4290 C   0  0  0  0  0  0  0  0  0  0  0  0
   62.6940   33.1880   47.6120 N   0  0  0  0  0  0  0  0  0  0  0  0
   63.2670   33.8290   46.4190 C   0  0  0  0  0  0  0  0  0  0  0  0
   63.7120   32.4590   48.3840 C   0  0  0  0  0  0  0  0  0  0  0  0
   60.0870   31.3930   47.5600 C   0  0  0  0  0  0  0  0  0  0  0  0
   60.8010   30.9130   48.4860 O   0  0  0  0  0  0  0  0  0  0  0  0
   56.6862   22.7220   44.1071 H   0  0  0  0  0  0  0  0  0  0  0  0
   55.2710   23.3191   43.1759 H   0  0  0  0  0  0  0  0  0  0  0  0
   56.8052   24.2534   43.1759 H   0  0  0  0  0  0  0  0  0  0  0  0
   54.6435   24.7660   44.8237 H   0  0  0  0  0  0  0  0  0  0  0  0
   55.6790   23.7344   45.8784 H   0  0  0  0  0  0  0  0  0  0  0  0
   57.8179   26.0995   46.8727 H   0  0  0  0  0  0  0  0  0  0  0  0
   56.0530   26.3888   47.1281 H   0  0  0  0  0  0  0  0  0  0  0  0
   56.6946   24.5133   48.5126 H   0  0  0  0  0  0  0  0  0  0  0  0
   55.7333   23.8757   47.1356 H   0  0  0  0  0  0  0  0  0  0  0  0
   57.5219   23.7095   47.1356 H   0  0  0  0  0  0  0  0  0  0  0  0
   58.6555   25.2726   45.2842 H   0  0  0  0  0  0  0  0  0  0  0  0
   57.7652   24.5157   43.8874 H   0  0  0  0  0  0  0  0  0  0  0  0
   59.2551   26.8578   43.7861 H   0  0  0  0  0  0  0  0  0  0  0  0
   57.9653   26.3182   42.6096 H   0  0  0  0  0  0  0  0  0  0  0  0
   56.4950   27.5230   44.4180 H   0  0  0  0  0  0  0  0  0  0  0  0
   57.0900   28.2660   43.0550 H   0  0  0  0  0  0  0  0  0  0  0  0
   58.8663   27.1626   46.0602 H   0  0  0  0  0  0  0  0  0  0  0  0
   60.0198   28.6870   47.6320 H   0  0  0  0  0  0  0  0  0  0  0  0
   58.0334   34.0256   43.9616 H   0  0  0  0  0  0  0  0  0  0  0  0
   56.9346   32.5010   42.3392 H   0  0  0  0  0  0  0  0  0  0  0  0
   56.9513   30.0468   42.7040 H   0  0  0  0  0  0  0  0  0  0  0  0
   59.7497   34.6267   48.4947 H   0  0  0  0  0  0  0  0  0  0  0  0
   60.2102   33.1677   49.4802 H   0  0  0  0  0  0  0  0  0  0  0  0
   61.9109   35.0971   47.9908 H   0  0  0  0  0  0  0  0  0  0  0  0
   62.2457   34.0212   49.4530 H   0  0  0  0  0  0  0  0  0  0  0  0
   63.9706   34.6161   46.7279 H   0  0  0  0  0  0  0  0  0  0  0  0
   63.7991   33.0766   45.8184 H   0  0  0  0  0  0  0  0  0  0  0  0
   62.4599   34.2738   45.8184 H   0  0  0  0  0  0  0  0  0  0  0  0
   63.5232   32.5942   49.4592 H   0  0  0  0  0  0  0  0  0  0  0  0
   63.6641   31.3886   48.1350 H   0  0  0  0  0  0  0  0  0  0  0  0
   64.7099   32.8491   48.1350 H   0  0  0  0  0  0  0  0  0  0  0  0
  1  2  1  0
  2  3  1  0
  3  4  1  0
  4  5  1  0
  3  6  1  0
  6  7  1  0
  7  8  1  0
  8  9  1  0
  9 10  2  0
 10 11  1  0
 11 12  2  0
 12 13  1  0
 13 14  2  0
 14 15  1  0
 15 16  2  0
 16 17  1  0
 17 18  2  0
 14 19  1  0
 19 20  2  0
 19 21  1  0
 21 22  1  0
 22 23  1  0
 23 24  1  0
 24 25  1  0
 24 26  1  0
 21 27  1  0
 27 28  2  0
 18  9  1  0
 27 12  1  0
 18 13  1  0
  1 29  1  0
  1 30  1  0
  1 31  1  0
  2 32  1  0
  2 33  1  0
  4 34  1  0
  4 35  1  0
  5 36  1  0
  5 37  1  0
  5 38  1  0
  6 39  1  0
  6 40  1  0
  7 41  1  0
  7 42  1  0
  8 43  1  0
  8 44  1  0
 10 45  1  0
 11 46  1  0
 15 47  1  0
 16 48  1  0
 17 49  1  0
 22 50  1  0
 22 51  1  0
 23 52  1  0
 23 53  1  0
 25 54  1  0
 25 55  1  0
 25 56  1  0
 26 57  1  0
 26 58  1  0
 26 59  1  0
M  CHG  1   8   1
M  END
>  <UniqueID>  (15) 
15

>  <SMILES>  (15) 
CCN(CC)CC[NH2+]c1ccc2c3c(cccc13)C(=O)N(CCN(C)C)C2=O

>  <Energy>  (15) 
69.87227277018428

>  <Genealogy>  (15) 
CCN(CC)CC[NH2+]c1ccc2c3c(cccc13)C(=O)N(CCN(C)C)C2=O (protonated)
CCN(CC)CC[NH2+]c1ccc2c3c(cccc13)C(=O)N(CCN(C)C)C2=O (3D coordinates assigned)
CCN(CC)CC[NH2+]c1ccc2c3c(cccc13)C(=O)N(CCN(C)C)C2=O (nonaromatic ring conformer: 69.87227277018428 kcal/mol)

>  <smiles>  (15) 
CCN(CC)CCNc1ccc2c3c(cccc13)C(=O)N(CCN(C)C)C2=O

>  <score_type>  (15) 
oracle

>  <origin>  (15) 
adg

>  <m_score__min__energy>  (15) 
-5.9199999999999999

>  <m_primary>  (15) 
energy

$$$$
15:0
     RDKit          3D

 64 67  0  0  0  0  0  0  0  0999 V2000
   59.6410   33.7850   50.2360 C   0  0  0  0  0  0  0  0  0  0  0  0
   59.0070   32.3950   50.3980 C   0  0  0  0  0  0  0  0  0  0  0  0
   59.8130   31.2810   49.8360 N   0  0  0  0  0  0  0  0  0  0  0  0
   60.6020   30.5800   50.8750 C   0  0  0  0  0  0  0  0  0  0  0  0
   61.9680   31.2380   51.0160 C   0  0  0  0  0  0  0  0  0  0  0  0
   59.0630   30.3420   48.9700 C   0  0  0  0  0  0  0  0  0  0  0  0
   59.9720   29.2390   48.4010 C   0  0  0  0  0  0  0  0  0  0  0  0
   60.4760   29.6140   47.0680 N   0  0  0  0  0  0  0  0  0  0  0  0
   60.3870   31.0520   46.8670 C   0  0  0  0  0  0  0  0  0  0  0  0
   61.4540   31.9060   47.2550 C   0  0  0  0  0  0  0  0  0  0  0  0
   62.7020   31.3910   47.6850 C   0  0  0  0  0  0  0  0  0  0  0  0
   63.7510   32.2410   48.0270 C   0  0  0  0  0  0  0  0  0  0  0  0
   63.5910   33.6160   47.9370 C   0  0  0  0  0  0  0  0  0  0  0  0
   62.3760   34.1510   47.5210 C   0  0  0  0  0  0  0  0  0  0  0  0
   61.2760   33.3160   47.1980 C   0  0  0  0  0  0  0  0  0  0  0  0
   60.0610   33.8470   46.8180 N   0  0  0  0  0  0  0  0  0  0  0  0
   59.7650   35.2750   47.0750 C   0  0  0  0  0  0  0  0  0  0  0  0
   59.1200   33.0460   46.2040 C   0  0  0  0  0  0  0  0  0  0  0  0
   58.0160   33.6040   45.5150 C   0  0  0  0  0  0  0  0  0  0  0  0
   57.0500   32.7980   44.9210 C   0  0  0  0  0  0  0  0  0  0  0  0
   57.1620   31.4050   44.9730 C   0  0  0  0  0  0  0  0  0  0  0  0
   56.2200   30.5470   44.3830 O   0  0  0  0  0  0  0  0  0  0  0  0
   56.5280   29.3680   43.6400 C   0  0  0  0  0  0  0  0  0  0  0  0
   57.2570   28.3680   44.4980 C   0  0  0  0  0  0  0  0  0  0  0  0
   58.5880   28.0270   44.2060 C   0  0  0  0  0  0  0  0  0  0  0  0
   59.2700   27.1050   45.0050 C   0  0  0  0  0  0  0  0  0  0  0  0
   58.6320   26.5240   46.1050 C   0  0  0  0  0  0  0  0  0  0  0  0
   57.3120   26.8680   46.4080 C   0  0  0  0  0  0  0  0  0  0  0  0
   56.6280   27.7910   45.6130 C   0  0  0  0  0  0  0  0  0  0  0  0
   58.2530   30.8350   45.6270 C   0  0  0  0  0  0  0  0  0  0  0  0
   59.2530   31.6310   46.2380 C   0  0  0  0  0  0  0  0  0  0  0  0
   59.8377   34.2162   51.2286 H   0  0  0  0  0  0  0  0  0  0  0  0
   60.5868   33.6943   49.6817 H   0  0  0  0  0  0  0  0  0  0  0  0
   58.9525   34.4397   49.6817 H   0  0  0  0  0  0  0  0  0  0  0  0
   58.8622   32.2065   51.4720 H   0  0  0  0  0  0  0  0  0  0  0  0
   58.0631   32.4140   49.8335 H   0  0  0  0  0  0  0  0  0  0  0  0
   60.0697   30.6337   51.8361 H   0  0  0  0  0  0  0  0  0  0  0  0
   60.7339   29.5277   50.5830 H   0  0  0  0  0  0  0  0  0  0  0  0
   62.2104   31.3548   52.0826 H   0  0  0  0  0  0  0  0  0  0  0  0
   62.7300   30.6081   50.5336 H   0  0  0  0  0  0  0  0  0  0  0  0
   61.9504   32.2264   50.5336 H   0  0  0  0  0  0  0  0  0  0  0  0
   58.2628   29.8737   49.5619 H   0  0  0  0  0  0  0  0  0  0  0  0
   58.6484   30.9125   48.1258 H   0  0  0  0  0  0  0  0  0  0  0  0
   60.8244   29.0880   49.0797 H   0  0  0  0  0  0  0  0  0  0  0  0
   59.3873   28.3118   48.3095 H   0  0  0  0  0  0  0  0  0  0  0  0
   59.9480   29.1050   46.3240 H   0  0  0  0  0  0  0  0  0  0  0  0
   61.4570   29.2830   46.9410 H   0  0  0  0  0  0  0  0  0  0  0  0
   62.8447   30.3022   47.7498 H   0  0  0  0  0  0  0  0  0  0  0  0
   64.7084   31.8211   48.3692 H   0  0  0  0  0  0  0  0  0  0  0  0
   64.4259   34.2842   48.1949 H   0  0  0  0  0  0  0  0  0  0  0  0
   62.2664   35.2426   47.4411 H   0  0  0  0  0  0  0  0  0  0  0  0
   59.7282   35.4523   48.1600 H   0  0  0  0  0  0  0  0  0  0  0  0
   60.5529   35.8990   46.6280 H   0  0  0  0  0  0  0  0  0  0  0  0
   58.7940   35.5344   46.6280 H   0  0  0  0  0  0  0  0  0  0  0  0
   57.9201   34.6978   45.4480 H   0  0  0  0  0  0  0  0  0  0  0  0
   56.1933   33.2590   44.4076 H   0  0  0  0  0  0  0  0  0  0  0  0
   55.5930   28.9168   43.2763 H   0  0  0  0  0  0  0  0  0  0  0  0
   57.1753   29.6441   42.7946 H   0  0  0  0  0  0  0  0  0  0  0  0
   59.0954   28.4873   43.3454 H   0  0  0  0  0  0  0  0  0  0  0  0
   60.3100   26.8362   44.7680 H   0  0  0  0  0  0  0  0  0  0  0  0
   59.1688   25.7965   46.7316 H   0  0  0  0  0  0  0  0  0  0  0  0
   56.8106   26.4113   47.2740 H   0  0  0  0  0  0  0  0  0  0  0  0
   55.5925   28.0668   45.8615 H   0  0  0  0  0  0  0  0  0  0  0  0
   58.3397   29.7393   45.6698 H   0  0  0  0  0  0  0  0  0  0  0  0
  1  2  1  0
  2  3  1  0
  3  4  1  0
  4  5  1  0
  3  6  1  0
  6  7  1  0
  7  8  1  0
  8  9  1  0
  9 10  2  0
 10 11  1  0
 11 12  2  0
 12 13  1  0
 13 14  2  0
 14 15  1  0
 15 16  2  0
 16 17  1  0
 16 18  1  0
 18 19  2  0
 19 20  1  0
 20 21  2  0
 21 22  1  0
 22 23  1  0
 23 24  1  0
 24 25  2  0
 25 26  1  0
 26 27  2  0
 27 28  1  0
 28 29  2  0
 21 30  1  0
 30 31  2  0
 31  9  1  0
 15 10  1  0
 31 18  1  0
 29 24  1  0
  1 32  1  0
  1 33  1  0
  1 34  1  0
  2 35  1  0
  2 36  1  0
  4 37  1  0
  4 38  1  0
  5 39  1  0
  5 40  1  0
  5 41  1  0
  6 42  1  0
  6 43  1  0
  7 44  1  0
  7 45  1  0
  8 46  1  0
  8 47  1  0
 11 48  1  0
 12 49  1  0
 13 50  1  0
 14 51  1  0
 17 52  1  0
 17 53  1  0
 17 54  1  0
 19 55  1  0
 20 56  1  0
 23 57  1  0
 23 58  1  0
 25 59  1  0
 26 60  1  0
 27 61  1  0
 28 62  1  0
 29 63  1  0
 30 64  1  0
M  CHG  2   8   1  16   1
M  END
>  <UniqueID>  (16) 
16

>  <SMILES>  (16) 
CCN(CC)CC[NH2+]c1c2ccccc2[n+](C)c2ccc(OCc3ccccc3)cc12

>  <Energy>  (16) 
95.54542113743581

>  <Genealogy>  (16) 
CCN(CC)CC[NH2+]c1c2ccccc2[n+](C)c2ccc(OCc3ccccc3)cc12 (protonated)
CCN(CC)CC[NH2+]c1c2ccccc2[n+](C)c2ccc(OCc3ccccc3)cc12 (3D coordinates assigned)
CCN(CC)CC[NH2+]c1c2ccccc2[n+](C)c2ccc(OCc3ccccc3)cc12 (optimized conformer: 95.54542113743581 kcal/mol)

>  <smiles>  (16) 
CCN(CC)CCNc1c2ccccc2[n+](C)c2ccc(OCc3ccccc3)cc12

>  <score_type>  (16) 
oracle

>  <origin>  (16) 
adg

>  <m_score__min__energy>  (16) 
-5.5999999999999996

>  <m_primary>  (16) 
energy

$$$$
17:0
     RDKit          3D

 63 66  0  0  0  0  0  0  0  0999 V2000
   63.5130   33.2640   49.2980 C   0  0  0  0  0  0  0  0  0  0  0  0
   62.2110   34.0000   49.5840 C   0  0  0  0  0  0  0  0  0  0  0  0
   61.3740   34.0510   48.3750 N   0  0  0  0  0  0  0  0  0  0  0  0
   61.9510   33.7930   47.1600 C   0  0  0  0  0  0  0  0  0  0  0  0
   61.1900   33.8020   45.9920 C   0  0  0  0  0  0  0  0  0  0  0  0
   59.8160   34.0610   46.0590 C   0  0  0  0  0  0  0  0  0  0  0  0
   58.9720   34.0680   44.8010 C   0  0  0  0  0  0  0  0  0  0  0  0
   58.4500   32.7370   44.4200 N   0  0  0  0  0  0  0  0  0  0  0  0
   57.6240   32.1060   45.4730 C   0  0  0  0  0  0  0  0  0  0  0  0
   57.0630   30.7430   45.0050 C   0  0  0  0  0  0  0  0  0  0  0  0
   57.7220   30.2970   43.7580 N   0  0  0  0  0  0  0  0  0  0  0  0
   57.4090   28.8920   43.3910 C   0  0  0  0  0  0  0  0  0  0  0  0
   58.3340   27.8000   43.9800 C   0  0  0  0  0  0  0  0  0  0  0  0
   59.5210   28.3410   44.5620 O   0  0  0  0  0  0  0  0  0  0  0  0
   59.5990   29.0150   45.7910 C   0  0  0  0  0  0  0  0  0  0  0  0
   60.4610   30.1060   46.0120 C   0  0  0  0  0  0  0  0  0  0  0  0
   60.4990   30.7360   47.2600 C   0  0  0  0  0  0  0  0  0  0  0  0
   59.6820   30.2880   48.3140 C   0  0  0  0  0  0  0  0  0  0  0  0
   59.7260   30.9500   49.6440 C   0  0  0  0  0  0  0  0  0  0  0  0
   58.5900   31.6080   50.1560 C   0  0  0  0  0  0  0  0  0  0  0  0
   58.6310   32.2210   51.4120 C   0  0  0  0  0  0  0  0  0  0  0  0
   59.8030   32.1850   52.1700 C   0  0  0  0  0  0  0  0  0  0  0  0
   60.9380   31.5400   51.6730 C   0  0  0  0  0  0  0  0  0  0  0  0
   60.9030   30.9260   50.4180 C   0  0  0  0  0  0  0  0  0  0  0  0
   58.8250   29.1940   48.0880 C   0  0  0  0  0  0  0  0  0  0  0  0
   58.7860   28.5680   46.8380 C   0  0  0  0  0  0  0  0  0  0  0  0
   57.4850   31.2680   42.6630 C   0  0  0  0  0  0  0  0  0  0  0  0
   57.7700   32.7210   43.1120 C   0  0  0  0  0  0  0  0  0  0  0  0
   59.2370   34.3210   47.3060 C   0  0  0  0  0  0  0  0  0  0  0  0
   60.0280   34.3050   48.4600 C   0  0  0  0  0  0  0  0  0  0  0  0
   59.4830   34.5230   49.5760 O   0  0  0  0  0  0  0  0  0  0  0  0
   63.9961   32.9909   50.2478 H   0  0  0  0  0  0  0  0  0  0  0  0
   63.2998   32.3528   48.7198 H   0  0  0  0  0  0  0  0  0  0  0  0
   64.1837   33.9166   48.7198 H   0  0  0  0  0  0  0  0  0  0  0  0
   61.6649   33.4740   50.3809 H   0  0  0  0  0  0  0  0  0  0  0  0
   62.4441   35.0275   49.9000 H   0  0  0  0  0  0  0  0  0  0  0  0
   63.0280   33.5760   47.1051 H   0  0  0  0  0  0  0  0  0  0  0  0
   61.6678   33.6062   45.0207 H   0  0  0  0  0  0  0  0  0  0  0  0
   58.1175   34.7419   44.9613 H   0  0  0  0  0  0  0  0  0  0  0  0
   59.6253   34.4007   43.9809 H   0  0  0  0  0  0  0  0  0  0  0  0
   58.2430   31.9503   46.3689 H   0  0  0  0  0  0  0  0  0  0  0  0
   56.7774   32.7720   45.6962 H   0  0  0  0  0  0  0  0  0  0  0  0
   57.2368   29.9936   45.7913 H   0  0  0  0  0  0  0  0  0  0  0  0
   55.9862   30.8560   44.8106 H   0  0  0  0  0  0  0  0  0  0  0  0
   58.7560   30.2940   43.9440 H   0  0  0  0  0  0  0  0  0  0  0  0
   56.3840   28.6791   43.7289 H   0  0  0  0  0  0  0  0  0  0  0  0
   57.5527   28.8376   42.3018 H   0  0  0  0  0  0  0  0  0  0  0  0
   57.7805   27.2501   44.7554 H   0  0  0  0  0  0  0  0  0  0  0  0
   58.6386   27.1404   43.1541 H   0  0  0  0  0  0  0  0  0  0  0  0
   61.1084   30.4650   45.1983 H   0  0  0  0  0  0  0  0  0  0  0  0
   61.1741   31.5898   47.4190 H   0  0  0  0  0  0  0  0  0  0  0  0
   57.6640   31.6396   49.5631 H   0  0  0  0  0  0  0  0  0  0  0  0
   57.7390   32.7321   51.8033 H   0  0  0  0  0  0  0  0  0  0  0  0
   59.8326   32.6649   53.1593 H   0  0  0  0  0  0  0  0  0  0  0  0
   61.8612   31.5153   52.2706 H   0  0  0  0  0  0  0  0  0  0  0  0
   61.8005   30.4206   50.0319 H   0  0  0  0  0  0  0  0  0  0  0  0
   58.1808   28.8286   48.9013 H   0  0  0  0  0  0  0  0  0  0  0  0
   58.1094   27.7158   46.6765 H   0  0  0  0  0  0  0  0  0  0  0  0
   58.1449   31.0204   41.8185 H   0  0  0  0  0  0  0  0  0  0  0  0
   56.4267   31.2018   42.3704 H   0  0  0  0  0  0  0  0  0  0  0  0
   58.4120   33.2107   42.3650 H   0  0  0  0  0  0  0  0  0  0  0  0
   56.8141   33.2575   43.2032 H   0  0  0  0  0  0  0  0  0  0  0  0
   58.1610   34.5378   47.3790 H   0  0  0  0  0  0  0  0  0  0  0  0
  1  2  1  0
  2  3  1  0
  3  4  1  0
  4  5  2  0
  5  6  1  0
  6  7  1  0
  7  8  1  0
  8  9  1  0
  9 10  1  0
 10 11  1  0
 11 12  1  0
 12 13  1  0
 13 14  1  0
 14 15  1  0
 15 16  2  0
 16 17  1  0
 17 18  2  0
 18 19  1  0
 19 20  2  0
 20 21  1  0
 21 22  2  0
 22 23  1  0
 23 24  2  0
 18 25  1  0
 25 26  2  0
 11 27  1  0
 27 28  1  0
  6 29  2  0
 29 30  1  0
 30 31  2  0
 30  3  1  0
 28  8  1  0
 26 15  1  0
 24 19  1  0
  1 32  1  0
  1 33  1  0
  1 34  1  0
  2 35  1  0
  2 36  1  0
  4 37  1  0
  5 38  1  0
  7 39  1  0
  7 40  1  0
  9 41  1  0
  9 42  1  0
 10 43  1  0
 10 44  1  0
 11 45  1  0
 12 46  1  0
 12 47  1  0
 13 48  1  0
 13 49  1  0
 16 50  1  0
 17 51  1  0
 20 52  1  0
 21 53  1  0
 22 54  1  0
 23 55  1  0
 24 56  1  0
 25 57  1  0
 26 58  1  0
 27 59  1  0
 27 60  1  0
 28 61  1  0
 28 62  1  0
 29 63  1  0
M  CHG  1  11   1
M  END
>  <UniqueID>  (17) 
17

>  <SMILES>  (17) 
CCn1ccc(CN2CC[NH+](CCOc3ccc(-c4ccccc4)cc3)CC2)cc1=O

>  <Energy>  (17) 
87.04034397796886

>  <Genealogy>  (17) 
CCn1ccc(CN2CC[NH+](CCOc3ccc(-c4ccccc4)cc3)CC2)cc1=O (protonated)
CCn1ccc(CN2CC[NH+](CCOc3ccc(-c4ccccc4)cc3)CC2)cc1=O (3D coordinates assigned)
CCn1ccc(CN2CC[NH+](CCOc3ccc(-c4ccccc4)cc3)CC2)cc1=O (nonaromatic ring conformer: 87.04034397796886 kcal/mol)

>  <smiles>  (17) 
CCn1ccc(CN2CCN(CCOc3ccc(-c4ccccc4)cc3)CC2)cc1=O

>  <score_type>  (17) 
oracle

>  <origin>  (17) 
adg

>  <m_score__min__energy>  (17) 
-7.3499999999999996

>  <m_primary>  (17) 
energy

$$$$
18:0
     RDKit          3D

 37 38  0  0  0  0  0  0  0  0999 V2000
   59.9740   28.7590   44.8590 C   0  0  0  0  0  0  0  0  0  0  0  0
   59.2690   27.4690   44.9030 N   0  0  0  0  0  0  0  0  0  0  0  0
   59.5620   26.7430   46.1500 C   0  0  0  0  0  0  0  0  0  0  0  0
   57.8190   27.5920   44.6310 C   0  0  0  0  0  0  0  0  0  0  0  0
   57.0300   28.3580   45.7100 C   0  0  0  0  0  0  0  0  0  0  0  0
   55.8160   28.9290   45.1110 N   0  0  0  0  0  0  0  0  0  0  0  0
   56.0940   29.7440   43.9160 C   0  0  0  0  0  0  0  0  0  0  0  0
   57.2880   30.7120   44.0690 C   0  0  1  0  0  0  0  0  0  0  0  0
   57.3850   31.7290   42.9110 C   0  0  0  0  0  0  0  0  0  0  0  0
   58.3520   32.7380   43.2140 O   0  0  0  0  0  0  0  0  0  0  0  0
   58.4830   33.2510   44.5060 C   0  0  0  0  0  0  0  0  0  0  0  0
   59.2290   34.4100   44.7440 C   0  0  0  0  0  0  0  0  0  0  0  0
   59.3200   34.9230   46.0430 C   0  0  0  0  0  0  0  0  0  0  0  0
   58.6690   34.2760   47.1010 C   0  0  0  0  0  0  0  0  0  0  0  0
   57.9350   33.1090   46.8640 C   0  0  0  0  0  0  0  0  0  0  0  0
   57.8550   32.5890   45.5690 C   0  0  0  0  0  0  0  0  0  0  0  0
   57.1540   31.4080   45.3120 O   0  0  0  0  0  0  0  0  0  0  0  0
   60.1646   29.1078   45.8847 H   0  0  0  0  0  0  0  0  0  0  0  0
   60.9305   28.6363   44.3297 H   0  0  0  0  0  0  0  0  0  0  0  0
   59.3542   29.4977   44.3297 H   0  0  0  0  0  0  0  0  0  0  0  0
   59.3062   27.3767   47.0120 H   0  0  0  0  0  0  0  0  0  0  0  0
   58.9665   25.8188   46.1848 H   0  0  0  0  0  0  0  0  0  0  0  0
   60.6322   26.4911   46.1848 H   0  0  0  0  0  0  0  0  0  0  0  0
   57.6924   28.1188   43.6737 H   0  0  0  0  0  0  0  0  0  0  0  0
   57.4155   26.5688   44.6152 H   0  0  0  0  0  0  0  0  0  0  0  0
   56.7505   27.6681   46.5199 H   0  0  0  0  0  0  0  0  0  0  0  0
   57.6543   29.1663   46.1185 H   0  0  0  0  0  0  0  0  0  0  0  0
   55.1440   28.1630   44.8760 H   0  0  0  0  0  0  0  0  0  0  0  0
   56.3070   29.0644   43.0777 H   0  0  0  0  0  0  0  0  0  0  0  0
   55.2036   30.3672   43.7463 H   0  0  0  0  0  0  0  0  0  0  0  0
   58.2123   30.1160   44.0463 H   0  0  0  0  0  0  0  0  0  0  0  0
   57.6844   31.2043   41.9918 H   0  0  0  0  0  0  0  0  0  0  0  0
   56.4035   32.2056   42.7712 H   0  0  0  0  0  0  0  0  0  0  0  0
   59.7423   34.9164   43.9133 H   0  0  0  0  0  0  0  0  0  0  0  0
   59.9037   35.8357   46.2333 H   0  0  0  0  0  0  0  0  0  0  0  0
   58.7350   34.6861   48.1196 H   0  0  0  0  0  0  0  0  0  0  0  0
   57.4221   32.6019   47.6945 H   0  0  0  0  0  0  0  0  0  0  0  0
  1  2  1  0
  2  3  1  0
  2  4  1  0
  4  5  1  0
  5  6  1  0
  6  7  1  0
  7  8  1  0
  8  9  1  0
  9 10  1  0
 10 11  1  0
 11 12  2  0
 12 13  1  0
 13 14  2  0
 14 15  1  0
 15 16  2  0
 16 17  1  0
 17  8  1  0
 16 11  1  0
  1 18  1  0
  1 19  1  0
  1 20  1  0
  3 21  1  0
  3 22  1  0
  3 23  1  0
  4 24  1  0
  4 25  1  0
  5 26  1  0
  5 27  1  0
  6 28  1  0
  7 29  1  0
  7 30  1  0
  8 31  1  1
  9 32  1  0
  9 33  1  0
 12 34  1  0
 13 35  1  0
 14 36  1  0
 15 37  1  0
M  END
>  <UniqueID>  (18) 
18

>  <SMILES>  (18) 
CN(C)CCNC[C@H]1COc2ccccc2O1

>  <Energy>  (18) 
38.59787898903391

>  <Genealogy>  (18) 
CN(C)CCNC[C@H]1COc2ccccc2O1 (chirality)
CN(C)CCNC[C@H]1COc2ccccc2O1 (3D coordinates assigned)
CN(C)CCNC[C@H]1COc2ccccc2O1 (nonaromatic ring conformer: 38.59787898903391 kcal/mol)

>  <smiles>  (18) 
CN(C)CCNCC1COc2ccccc2O1

>  <score_type>  (18) 
oracle

>  <origin>  (18) 
adg

>  <m_score__min__energy>  (18) 
-6.4500000000000002

>  <m_primary>  (18) 
energy

$$$$
19:0
     RDKit          3D

 74 76  0  0  0  0  0  0  0  0999 V2000
   55.1350   29.6410   43.7350 C   0  0  0  0  0  0  0  0  0  0  0  0
   56.5560   30.1580   43.4510 C   0  0  0  0  0  0  0  0  0  0  0  0
   57.2780   30.6840   44.6400 N   0  0  0  0  0  0  0  0  0  0  0  0
   58.4750   31.4750   44.2660 C   0  0  0  0  0  0  0  0  0  0  0  0
   58.2640   32.1690   42.9250 C   0  0  0  0  0  0  0  0  0  0  0  0
   57.6000   29.6630   45.6630 C   0  0  0  0  0  0  0  0  0  0  0  0
   59.1160   29.4370   45.8050 C   0  0  0  0  0  0  0  0  0  0  0  0
   59.5470   29.6800   47.1890 N   0  0  0  0  0  0  0  0  0  0  0  0
   58.6430   29.3520   48.3010 C   0  0  0  0  0  0  0  0  0  0  0  0
   58.6300   30.4760   49.3470 C   0  0  0  0  0  0  0  0  0  0  0  0
   59.8100   30.3910   50.2640 N   0  0  0  0  0  0  0  0  0  0  0  0
   59.6340   29.3120   51.2690 C   0  0  0  0  0  0  0  0  0  0  0  0
   60.7550   28.2650   51.2010 C   0  0  0  0  0  0  0  0  0  0  0  0
   60.0450   31.6830   50.9600 C   0  0  0  0  0  0  0  0  0  0  0  0
   58.8970   32.6760   50.7410 C   0  0  0  0  0  0  0  0  0  0  0  0
   60.8560   30.2060   47.4840 C   0  0  0  0  0  0  0  0  0  0  0  0
   61.5390   29.6820   48.4050 O   0  0  0  0  0  0  0  0  0  0  0  0
   61.3920   31.4230   46.7780 C   0  0  0  0  0  0  0  0  0  0  0  0
   61.4830   32.5890   47.6710 N   0  0  0  0  0  0  0  0  0  0  0  0
   60.6350   33.6550   47.7290 C   0  0  0  0  0  0  0  0  0  0  0  0
   59.4460   33.8450   46.8810 C   0  0  0  0  0  0  0  0  0  0  0  0
   58.2110   33.2910   47.2490 C   0  0  0  0  0  0  0  0  0  0  0  0
   57.0880   33.4710   46.4330 C   0  0  0  0  0  0  0  0  0  0  0  0
   57.1960   34.1990   45.2450 C   0  0  0  0  0  0  0  0  0  0  0  0
   58.4270   34.7400   44.8660 C   0  0  0  0  0  0  0  0  0  0  0  0
   59.5520   34.5600   45.6770 C   0  0  0  0  0  0  0  0  0  0  0  0
   61.0300   34.5560   48.7110 C   0  0  0  0  0  0  0  0  0  0  0  0
   62.1840   34.0280   49.2400 C   0  0  0  0  0  0  0  0  0  0  0  0
   63.0220   34.5300   50.2330 C   0  0  0  0  0  0  0  0  0  0  0  0
   64.1540   33.7760   50.5810 C   0  0  0  0  0  0  0  0  0  0  0  0
   64.4260   32.5560   49.9290 C   0  0  0  0  0  0  0  0  0  0  0  0
   63.5690   32.0770   48.9230 C   0  0  0  0  0  0  0  0  0  0  0  0
   62.4390   32.8410   48.5970 C   0  0  0  0  0  0  0  0  0  0  0  0
   54.9763   29.5832   44.8220 H   0  0  0  0  0  0  0  0  0  0  0  0
   54.3993   30.3291   43.2930 H   0  0  0  0  0  0  0  0  0  0  0  0
   55.0135   28.6410   43.2930 H   0  0  0  0  0  0  0  0  0  0  0  0
   57.1447   29.3283   43.0327 H   0  0  0  0  0  0  0  0  0  0  0  0
   56.4445   31.0043   42.7573 H   0  0  0  0  0  0  0  0  0  0  0  0
   58.6628   32.2339   45.0399 H   0  0  0  0  0  0  0  0  0  0  0  0
   59.3360   30.7956   44.1814 H   0  0  0  0  0  0  0  0  0  0  0  0
   57.9479   33.2087   43.0959 H   0  0  0  0  0  0  0  0  0  0  0  0
   59.2052   32.1608   42.3558 H   0  0  0  0  0  0  0  0  0  0  0  0
   57.4866   31.6383   42.3558 H   0  0  0  0  0  0  0  0  0  0  0  0
   57.1994   29.9946   46.6323 H   0  0  0  0  0  0  0  0  0  0  0  0
   57.1462   28.7128   45.3450 H   0  0  0  0  0  0  0  0  0  0  0  0
   59.3544   28.3992   45.5289 H   0  0  0  0  0  0  0  0  0  0  0  0
   59.6431   30.1377   45.1408 H   0  0  0  0  0  0  0  0  0  0  0  0
   57.6248   29.2137   47.9085 H   0  0  0  0  0  0  0  0  0  0  0  0
   58.9984   28.4287   48.7819 H   0  0  0  0  0  0  0  0  0  0  0  0
   58.6503   31.4460   48.8286 H   0  0  0  0  0  0  0  0  0  0  0  0
   57.7170   30.3719   49.9516 H   0  0  0  0  0  0  0  0  0  0  0  0
   60.6830   30.1700   49.7280 H   0  0  0  0  0  0  0  0  0  0  0  0
   59.6295   29.7610   52.2732 H   0  0  0  0  0  0  0  0  0  0  0  0
   58.6834   28.8023   51.0531 H   0  0  0  0  0  0  0  0  0  0  0  0
   61.0563   27.9836   52.2208 H   0  0  0  0  0  0  0  0  0  0  0  0
   60.3929   27.3743   50.6667 H   0  0  0  0  0  0  0  0  0  0  0  0
   61.6190   28.6870   50.6667 H   0  0  0  0  0  0  0  0  0  0  0  0
   60.1466   31.4911   52.0384 H   0  0  0  0  0  0  0  0  0  0  0  0
   60.9609   32.1287   50.5447 H   0  0  0  0  0  0  0  0  0  0  0  0
   58.5105   33.0103   51.7151 H   0  0  0  0  0  0  0  0  0  0  0  0
   59.2661   33.5443   50.1754 H   0  0  0  0  0  0  0  0  0  0  0  0
   58.0910   32.1857   50.1754 H   0  0  0  0  0  0  0  0  0  0  0  0
   62.3958   31.1943   46.3906 H   0  0  0  0  0  0  0  0  0  0  0  0
   60.6963   31.6748   45.9640 H   0  0  0  0  0  0  0  0  0  0  0  0
   58.1248   32.7136   48.1813 H   0  0  0  0  0  0  0  0  0  0  0  0
   56.1200   33.0392   46.7270 H   0  0  0  0  0  0  0  0  0  0  0  0
   56.3113   34.3461   44.6080 H   0  0  0  0  0  0  0  0  0  0  0  0
   58.5115   35.3085   43.9281 H   0  0  0  0  0  0  0  0  0  0  0  0
   60.5219   34.9793   45.3712 H   0  0  0  0  0  0  0  0  0  0  0  0
   60.5275   35.4902   49.0022 H   0  0  0  0  0  0  0  0  0  0  0  0
   62.8037   35.4872   50.7290 H   0  0  0  0  0  0  0  0  0  0  0  0
   64.8326   34.1392   51.3669 H   0  0  0  0  0  0  0  0  0  0  0  0
   65.3162   31.9741   50.2098 H   0  0  0  0  0  0  0  0  0  0  0  0
   63.7789   31.1291   48.4058 H   0  0  0  0  0  0  0  0  0  0  0  0
  1  2  1  0
  2  3  1  0
  3  4  1  0
  4  5  1  0
  3  6  1  0
  6  7  1  0
  7  8  1  0
  8  9  1  0
  9 10  1  0
 10 11  1  0
 11 12  1  0
 12 13  1  0
 11 14  1  0
 14 15  1  0
  8 16  1  0
 16 17  2  0
 16 18  1  0
 18 19  1  0
 19 20  1  0
 20 21  1  0
 21 22  2  0
 22 23  1  0
 23 24  2  0
 24 25  1  0
 25 26  2  0
 20 27  2  0
 27 28  1  0
 28 29  2  0
 29 30  1  0
 30 31  2  0
 31 32  1  0
 32 33  2  0
 33 19  1  0
 26 21  1  0
 33 28  1  0
  1 34  1  0
  1 35  1  0
  1 36  1  0
  2 37  1  0
  2 38  1  0
  4 39  1  0
  4 40  1  0
  5 41  1  0
  5 42  1  0
  5 43  1  0
  6 44  1  0
  6 45  1  0
  7 46  1  0
  7 47  1  0
  9 48  1  0
  9 49  1  0
 10 50  1  0
 10 51  1  0
 11 52  1  0
 12 53  1  0
 12 54  1  0
 13 55  1  0
 13 56  1  0
 13 57  1  0
 14 58  1  0
 14 59  1  0
 15 60  1  0
 15 61  1  0
 15 62  1  0
 18 63  1  0
 18 64  1  0
 22 65  1  0
 23 66  1  0
 24 67  1  0
 25 68  1  0
 26 69  1  0
 27 70  1  0
 29 71  1  0
 30 72  1  0
 31 73  1  0
 32 74  1  0
M  CHG  1  11   1
M  END
>  <UniqueID>  (19) 
19

>  <SMILES>  (19) 
CCN(CC)CCN(CC[NH+](CC)CC)C(=O)Cn1c(-c2ccccc2)cc2ccccc21

>  <Energy>  (19) 
111.69133489778835

>  <Genealogy>  (19) 
CCN(CC)CCN(CC[NH+](CC)CC)C(=O)Cn1c(-c2ccccc2)cc2ccccc21 (protonated)
CCN(CC)CCN(CC[NH+](CC)CC)C(=O)Cn1c(-c2ccccc2)cc2ccccc21 (3D coordinates assigned)
CCN(CC)CCN(CC[NH+](CC)CC)C(=O)Cn1c(-c2ccccc2)cc2ccccc21 (optimized conformer: 111.69133489778835 kcal/mol)

>  <smiles>  (19) 
CCN(CC)CCN(CCN(CC)CC)C(=O)Cn1c(-c2ccccc2)cc2ccccc21

>  <score_type>  (19) 
oracle

>  <origin>  (19) 
adg

>  <m_score__min__energy>  (19) 
-6.04

>  <m_primary>  (19) 
energy

$$$$
20:0
     RDKit          3D

 47 49  0  0  0  0  0  0  0  0999 V2000
   62.1680   33.8310   50.7970 C   0  0  0  0  0  0  0  0  0  0  0  0
   63.3150   33.4060   49.8610 C   0  0  0  0  0  0  0  0  0  0  0  0
   62.9040   32.6640   48.6330 N   0  0  0  0  0  0  0  0  0  0  0  0
   63.7600   32.9690   47.4550 C   0  0  0  0  0  0  0  0  0  0  0  0
   63.0900   33.8110   46.3640 C   0  0  0  0  0  0  0  0  0  0  0  0
   62.6660   31.2140   48.8680 C   0  0  0  0  0  0  0  0  0  0  0  0
   61.1790   30.8080   48.7630 C   0  0  0  0  0  0  0  0  0  0  0  0
   60.7890   30.5710   47.3730 N   0  0  0  0  0  0  0  0  0  0  0  0
   59.8370   31.4260   46.7260 C   0  0  0  0  0  0  0  0  0  0  0  0
   58.9510   30.9470   45.7350 C   0  0  0  0  0  0  0  0  0  0  0  0
   58.9720   29.5950   45.3430 C   0  0  0  0  0  0  0  0  0  0  0  0
   58.0970   29.1250   44.3660 C   0  0  0  0  0  0  0  0  0  0  0  0
   57.1870   29.9900   43.7660 C   0  0  0  0  0  0  0  0  0  0  0  0
   57.1400   31.3350   44.1360 C   0  0  0  0  0  0  0  0  0  0  0  0
   58.0150   31.8500   45.1210 C   0  0  0  0  0  0  0  0  0  0  0  0
   57.9800   33.1860   45.4990 N   0  0  0  0  0  0  0  0  0  0  0  0
   57.0390   34.1320   44.8730 C   0  0  0  0  0  0  0  0  0  0  0  0
   58.8430   33.5990   46.4800 C   0  0  0  0  0  0  0  0  0  0  0  0
   59.0080   34.8410   47.0700 C   0  0  0  0  0  0  0  0  0  0  0  0
   60.0160   34.6540   48.0060 C   0  0  0  0  0  0  0  0  0  0  0  0
   60.4310   33.4030   47.9890 O   0  0  0  0  0  0  0  0  0  0  0  0
   59.7390   32.7620   47.0800 C   0  0  0  0  0  0  0  0  0  0  0  0
   62.4859   33.7132   51.8434 H   0  0  0  0  0  0  0  0  0  0  0  0
   61.9115   34.8839   50.6080 H   0  0  0  0  0  0  0  0  0  0  0  0
   61.2874   33.1995   50.6080 H   0  0  0  0  0  0  0  0  0  0  0  0
   63.8481   34.3147   49.5448 H   0  0  0  0  0  0  0  0  0  0  0  0
   63.9341   32.7066   50.4421 H   0  0  0  0  0  0  0  0  0  0  0  0
   61.9680   33.0680   48.3870 H   0  0  0  0  0  0  0  0  0  0  0  0
   64.6464   33.5149   47.8103 H   0  0  0  0  0  0  0  0  0  0  0  0
   63.9982   32.0005   46.9910 H   0  0  0  0  0  0  0  0  0  0  0  0
   62.4699   34.5903   46.8312 H   0  0  0  0  0  0  0  0  0  0  0  0
   63.8624   34.2828   45.7388 H   0  0  0  0  0  0  0  0  0  0  0  0
   62.4568   33.1644   45.7388 H   0  0  0  0  0  0  0  0  0  0  0  0
   63.2365   30.6421   48.1213 H   0  0  0  0  0  0  0  0  0  0  0  0
   62.9888   30.9959   49.8967 H   0  0  0  0  0  0  0  0  0  0  0  0
   61.0173   29.8871   49.3424 H   0  0  0  0  0  0  0  0  0  0  0  0
   60.5659   31.6305   49.1599 H   0  0  0  0  0  0  0  0  0  0  0  0
   61.4500   30.0450   46.7600 H   0  0  0  0  0  0  0  0  0  0  0  0
   59.6863   28.9029   45.8127 H   0  0  0  0  0  0  0  0  0  0  0  0
   58.1256   28.0665   44.0679 H   0  0  0  0  0  0  0  0  0  0  0  0
   56.5000   29.6112   42.9949 H   0  0  0  0  0  0  0  0  0  0  0  0
   56.4119   32.0044   43.6546 H   0  0  0  0  0  0  0  0  0  0  0  0
   56.4943   34.6796   45.6562 H   0  0  0  0  0  0  0  0  0  0  0  0
   57.5970   34.8446   44.2478 H   0  0  0  0  0  0  0  0  0  0  0  0
   56.3235   33.5778   44.2478 H   0  0  0  0  0  0  0  0  0  0  0  0
   58.4618   35.7693   46.8466 H   0  0  0  0  0  0  0  0  0  0  0  0
   60.4121   35.4383   48.6678 H   0  0  0  0  0  0  0  0  0  0  0  0
  1  2  1  0
  2  3  1  0
  3  4  1  0
  4  5  1  0
  3  6  1  0
  6  7  1  0
  7  8  1  0
  8  9  1  0
  9 10  2  0
 10 11  1  0
 11 12  2  0
 12 13  1  0
 13 14  2  0
 14 15  1  0
 15 16  2  0
 16 17  1  0
 16 18  1  0
 18 19  1  0
 19 20  2  0
 20 21  1  0
 21 22  1  0
 22  9  1  0
 15 10  1  0
 22 18  2  0
  1 23  1  0
  1 24  1  0
  1 25  1  0
  2 26  1  0
  2 27  1  0
  3 28  1  0
  4 29  1  0
  4 30  1  0
  5 31  1  0
  5 32  1  0
  5 33  1  0
  6 34  1  0
  6 35  1  0
  7 36  1  0
  7 37  1  0
  8 38  1  0
 11 39  1  0
 12 40  1  0
 13 41  1  0
 14 42  1  0
 17 43  1  0
 17 44  1  0
 17 45  1  0
 19 46  1  0
 20 47  1  0
M  CHG  2   3   1  16   1
M  END
>  <UniqueID>  (20) 
20

>  <SMILES>  (20) 
CC[NH+](CC)CCNc1c2ccccc2[n+](C)c2ccoc12

>  <Energy>  (20) 
106.45933242023347

>  <Genealogy>  (20) 
CC[NH+](CC)CCNc1c2ccccc2[n+](C)c2ccoc12 (protonated)
CC[NH+](CC)CCNc1c2ccccc2[n+](C)c2ccoc12 (3D coordinates assigned)
CC[NH+](CC)CCNc1c2ccccc2[n+](C)c2ccoc12 (optimized conformer: 106.45933242023347 kcal/mol)

>  <smiles>  (20) 
CCN(CC)CCNc1c2ccccc2[n+](C)c2ccoc12

>  <score_type>  (20) 
oracle

>  <origin>  (20) 
adg

>  <m_score__min__energy>  (20) 
-2.96

>  <m_primary>  (20) 
energy

$$$$
21:0
     RDKit          3D

 63 66  0  0  0  0  0  0  0  0999 V2000
   58.1380   26.7220   42.5040 C   0  0  0  0  0  0  0  0  0  0  0  0
   58.4430   27.6170   43.7090 C   0  0  0  0  0  0  0  0  0  0  0  0
   57.2380   28.3840   44.1570 N   0  0  0  0  0  0  0  0  0  0  0  0
   57.1590   29.6740   43.4200 C   0  0  0  0  0  0  0  0  0  0  0  0
   56.2470   30.7080   44.0980 C   0  0  0  0  0  0  0  0  0  0  0  0
   57.2670   28.6200   45.6250 C   0  0  0  0  0  0  0  0  0  0  0  0
   58.2150   27.6540   46.3600 C   0  0  0  0  0  0  0  0  0  0  0  0
   59.5230   28.2730   46.5700 N   0  0  0  0  0  0  0  0  0  0  0  0
   59.7210   29.3430   47.5050 C   0  0  0  0  0  0  0  0  0  0  0  0
   59.4820   30.6630   47.1290 C   0  0  0  0  0  0  0  0  0  0  0  0
   59.7210   31.7010   48.0090 C   0  0  0  0  0  0  0  0  0  0  0  0
   60.0660   31.4790   49.3180 N   0  0  0  0  0  0  0  0  0  0  0  0
   59.9770   32.5730   50.3000 C   0  0  0  0  0  0  0  0  0  0  0  0
   60.4240   30.1950   49.7000 C   0  0  0  0  0  0  0  0  0  0  0  0
   60.9950   29.9280   50.9640 C   0  0  0  0  0  0  0  0  0  0  0  0
   61.3140   28.6170   51.3620 C   0  0  0  0  0  0  0  0  0  0  0  0
   61.8660   28.3330   52.6230 O   0  0  0  0  0  0  0  0  0  0  0  0
   63.2330   28.0080   52.8560 C   0  0  0  0  0  0  0  0  0  0  0  0
   61.0820   27.5500   50.4910 C   0  0  0  0  0  0  0  0  0  0  0  0
   61.3900   26.2520   50.9310 O   0  0  0  0  0  0  0  0  0  0  0  0
   60.7540   25.5930   52.0210 C   0  0  0  0  0  0  0  0  0  0  0  0
   60.5600   27.7960   49.2110 C   0  0  0  0  0  0  0  0  0  0  0  0
   60.2390   29.1020   48.7980 C   0  0  0  0  0  0  0  0  0  0  0  0
   59.5410   32.9610   47.2760 C   0  0  0  0  0  0  0  0  0  0  0  0
   59.8580   34.2870   47.6120 C   0  0  0  0  0  0  0  0  0  0  0  0
   59.6560   35.2920   46.6530 C   0  0  0  0  0  0  0  0  0  0  0  0
   59.1880   34.9660   45.3680 C   0  0  0  0  0  0  0  0  0  0  0  0
   58.9420   33.6300   45.0230 C   0  0  0  0  0  0  0  0  0  0  0  0
   59.1370   32.6420   45.9900 C   0  0  0  0  0  0  0  0  0  0  0  0
   59.0390   31.1650   45.7860 C   0  0  0  0  0  0  0  0  0  0  0  0
   57.8018   25.7355   42.8558 H   0  0  0  0  0  0  0  0  0  0  0  0
   57.3464   27.1836   41.8954 H   0  0  0  0  0  0  0  0  0  0  0  0
   59.0467   26.6042   41.8954 H   0  0  0  0  0  0  0  0  0  0  0  0
   58.7921   26.9867   44.5402 H   0  0  0  0  0  0  0  0  0  0  0  0
   59.2142   28.3413   43.4078 H   0  0  0  0  0  0  0  0  0  0  0  0
   56.3680   27.8460   43.9310 H   0  0  0  0  0  0  0  0  0  0  0  0
   58.1719   30.0968   43.3471 H   0  0  0  0  0  0  0  0  0  0  0  0
   56.7271   29.4580   42.4317 H   0  0  0  0  0  0  0  0  0  0  0  0
   56.3321   30.6115   45.1905 H   0  0  0  0  0  0  0  0  0  0  0  0
   56.5516   31.7205   43.7945 H   0  0  0  0  0  0  0  0  0  0  0  0
   55.2044   30.5323   43.7945 H   0  0  0  0  0  0  0  0  0  0  0  0
   57.6019   29.6514   45.8098 H   0  0  0  0  0  0  0  0  0  0  0  0
   56.2512   28.4489   46.0108 H   0  0  0  0  0  0  0  0  0  0  0  0
   57.7787   27.3922   47.3352 H   0  0  0  0  0  0  0  0  0  0  0  0
   58.3457   26.7511   45.7455 H   0  0  0  0  0  0  0  0  0  0  0  0
   60.3610   27.8360   46.1240 H   0  0  0  0  0  0  0  0  0  0  0  0
   60.0109   32.1561   51.3174 H   0  0  0  0  0  0  0  0  0  0  0  0
   60.8220   33.2628   50.1580 H   0  0  0  0  0  0  0  0  0  0  0  0
   59.0316   33.1172   50.1580 H   0  0  0  0  0  0  0  0  0  0  0  0
   61.1945   30.7630   51.6518 H   0  0  0  0  0  0  0  0  0  0  0  0
   63.4199   27.9636   53.9391 H   0  0  0  0  0  0  0  0  0  0  0  0
   63.4597   27.0309   52.4044 H   0  0  0  0  0  0  0  0  0  0  0  0
   63.8752   28.7785   52.4044 H   0  0  0  0  0  0  0  0  0  0  0  0
   61.1416   25.9946   52.9689 H   0  0  0  0  0  0  0  0  0  0  0  0
   59.6682   25.7613   51.9682 H   0  0  0  0  0  0  0  0  0  0  0  0
   60.9608   24.5139   51.9682 H   0  0  0  0  0  0  0  0  0  0  0  0
   60.3996   26.9548   48.5206 H   0  0  0  0  0  0  0  0  0  0  0  0
   60.2568   34.5334   48.6071 H   0  0  0  0  0  0  0  0  0  0  0  0
   59.8652   36.3413   46.9085 H   0  0  0  0  0  0  0  0  0  0  0  0
   59.0141   35.7630   44.6301 H   0  0  0  0  0  0  0  0  0  0  0  0
   58.6022   33.3653   44.0109 H   0  0  0  0  0  0  0  0  0  0  0  0
   58.0082   30.8557   45.5586 H   0  0  0  0  0  0  0  0  0  0  0  0
   59.6298   30.7829   44.9405 H   0  0  0  0  0  0  0  0  0  0  0  0
  1  2  1  0
  2  3  1  0
  3  4  1  0
  4  5  1  0
  3  6  1  0
  6  7  1  0
  7  8  1  0
  8  9  1  0
  9 10  2  0
 10 11  1  0
 11 12  2  0
 12 13  1  0
 12 14  1  0
 14 15  2  0
 15 16  1  0
 16 17  1  0
 17 18  1  0
 16 19  2  0
 19 20  1  0
 20 21  1  0
 19 22  1  0
 22 23  2  0
 11 24  1  0
 24 25  2  0
 25 26  1  0
 26 27  2  0
 27 28  1  0
 28 29  2  0
 29 30  1  0
 23  9  1  0
 29 24  1  0
 30 10  1  0
 23 14  1  0
  1 31  1  0
  1 32  1  0
  1 33  1  0
  2 34  1  0
  2 35  1  0
  3 36  1  0
  4 37  1  0
  4 38  1  0
  5 39  1  0
  5 40  1  0
  5 41  1  0
  6 42  1  0
  6 43  1  0
  7 44  1  0
  7 45  1  0
  8 46  1  0
 13 47  1  0
 13 48  1  0
 13 49  1  0
 15 50  1  0
 18 51  1  0
 18 52  1  0
 18 53  1  0
 21 54  1  0
 21 55  1  0
 21 56  1  0
 22 57  1  0
 25 58  1  0
 26 59  1  0
 27 60  1  0
 28 61  1  0
 30 62  1  0
 30 63  1  0
M  CHG  2   3   1  12   1
M  END
>  <UniqueID>  (21) 
21

>  <SMILES>  (21) 
CC[NH+](CC)CCNc1c2c([n+](C)c3cc(OC)c(OC)cc13)-c1ccccc1C2

>  <Energy>  (21) 
109.23670546802143

>  <Genealogy>  (21) 
CC[NH+](CC)CCNc1c2c([n+](C)c3cc(OC)c(OC)cc13)-c1ccccc1C2 (protonated)
CC[NH+](CC)CCNc1c2c([n+](C)c3cc(OC)c(OC)cc13)-c1ccccc1C2 (3D coordinates assigned)
CC[NH+](CC)CCNc1c2c([n+](C)c3cc(OC)c(OC)cc13)-c1ccccc1C2 (nonaromatic ring conformer: 109.23670546802143 kcal/mol)

>  <smiles>  (21) 
CCN(CC)CCNc1c2c([n+](C)c3cc(OC)c(OC)cc13)-c1ccccc1C2

>  <score_type>  (21) 
oracle

>  <origin>  (21) 
adg

>  <m_score__min__energy>  (21) 
-4.2000000000000002

>  <m_primary>  (21) 
energy

$$$$
22:0
     RDKit          3D

 71 74  0  0  0  0  0  0  0  0999 V2000
   55.1927   25.9971   45.9497 H   0  0  0  0  0  0  0  0  0  0  0  0
   56.0230   26.7180   45.9800 C   0  0  0  0  0  0  0  0  0  0  0  0
   55.9090   27.8980   45.3260 N   0  0  0  0  0  0  0  0  0  0  0  0
   56.8980   28.8250   45.3380 C   0  0  0  0  0  0  0  0  0  0  0  0
   56.7170   30.0320   44.6540 C   0  0  0  0  0  0  0  0  0  0  0  0
   55.7740   30.2182   44.1192 H   0  0  0  0  0  0  0  0  0  0  0  0
   57.7220   31.0040   44.6430 C   0  0  0  0  0  0  0  0  0  0  0  0
   57.4860   32.1890   43.9270 O   0  0  0  0  0  0  0  0  0  0  0  0
   57.4140   33.5000   44.4910 C   0  0  0  0  0  0  0  0  0  0  0  0
   56.8211   33.4612   45.4167 H   0  0  0  0  0  0  0  0  0  0  0  0
   56.9417   34.1711   43.7585 H   0  0  0  0  0  0  0  0  0  0  0  0
   58.8130   34.0370   44.8140 C   0  0  0  0  0  0  0  0  0  0  0  0
   58.8428   35.1174   44.6092 H   0  0  0  0  0  0  0  0  0  0  0  0
   59.5499   33.5132   44.1874 H   0  0  0  0  0  0  0  0  0  0  0  0
   59.1400   33.8010   46.2400 N   0  0  0  0  0  0  0  0  0  0  0  0
   59.8780   34.9480   46.8000 C   0  0  0  0  0  0  0  0  0  0  0  0
   59.8484   34.9020   47.8986 H   0  0  0  0  0  0  0  0  0  0  0  0
   60.9234   34.9129   46.4596 H   0  0  0  0  0  0  0  0  0  0  0  0
   59.4128   35.8849   46.4596 H   0  0  0  0  0  0  0  0  0  0  0  0
   57.9270   33.5300   47.0410 C   0  0  0  0  0  0  0  0  0  0  0  0
   57.1959   32.9907   46.4208 H   0  0  0  0  0  0  0  0  0  0  0  0
   57.5020   34.4862   47.3802 H   0  0  0  0  0  0  0  0  0  0  0  0
   58.2750   32.6810   48.2620 C   0  0  0  0  0  0  0  0  0  0  0  0
   58.0441   33.2443   49.1782 H   0  0  0  0  0  0  0  0  0  0  0  0
   57.6847   31.7530   48.2436 H   0  0  0  0  0  0  0  0  0  0  0  0
   59.3468   32.4343   48.2436 H   0  0  0  0  0  0  0  0  0  0  0  0
   58.9160   30.7650   45.3440 C   0  0  0  0  0  0  0  0  0  0  0  0
   59.7053   31.5310   45.3565 H   0  0  0  0  0  0  0  0  0  0  0  0
   59.1070   29.5590   46.0260 C   0  0  0  0  0  0  0  0  0  0  0  0
   60.0509   29.3805   46.5619 H   0  0  0  0  0  0  0  0  0  0  0  0
   58.1020   28.5690   46.0340 C   0  0  0  0  0  0  0  0  0  0  0  0
   58.2720   27.3290   46.6990 C   0  0  0  0  0  0  0  0  0  0  0  0
   59.4160   27.1040   47.2970 N   0  0  0  0  0  0  0  0  0  0  0  0
   59.9110   27.6140   48.5420 C   0  0  0  0  0  0  0  0  0  0  0  0
   60.7780   26.8480   49.3320 C   0  0  0  0  0  0  0  0  0  0  0  0
   61.0497   25.8292   49.0186 H   0  0  0  0  0  0  0  0  0  0  0  0
   61.2990   27.3750   50.5180 C   0  0  0  0  0  0  0  0  0  0  0  0
   61.9626   26.7596   51.1433 H   0  0  0  0  0  0  0  0  0  0  0  0
   60.9820   28.6830   50.9170 C   0  0  0  0  0  0  0  0  0  0  0  0
   61.5220   29.1930   52.1500 N   0  0  0  0  0  0  0  0  0  0  0  0
   60.9640   29.0540   53.0260 H   0  0  0  0  0  0  0  0  0  0  0  0
   62.7920   29.9180   52.2320 C   0  0  0  0  0  0  0  0  0  0  0  0
   63.0899   30.0037   53.2874 H   0  0  0  0  0  0  0  0  0  0  0  0
   63.5506   29.3620   51.6615 H   0  0  0  0  0  0  0  0  0  0  0  0
   62.6620   31.3230   51.6320 C   0  0  0  0  0  0  0  0  0  0  0  0
   61.6143   31.6497   51.7065 H   0  0  0  0  0  0  0  0  0  0  0  0
   63.3206   32.0036   52.1916 H   0  0  0  0  0  0  0  0  0  0  0  0
   63.0870   31.3370   50.1590 C   0  0  0  0  0  0  0  0  0  0  0  0
   64.1792   31.4519   50.0958 H   0  0  0  0  0  0  0  0  0  0  0  0
   62.7841   30.3911   49.6862 H   0  0  0  0  0  0  0  0  0  0  0  0
   62.4330   32.4650   49.4550 N   0  0  0  0  0  0  0  0  0  0  0  0
   61.4130   32.0010   48.4940 C   0  0  0  0  0  0  0  0  0  0  0  0
   60.7456   31.2872   48.9990 H   0  0  0  0  0  0  0  0  0  0  0  0
   60.8533   32.8780   48.1369 H   0  0  0  0  0  0  0  0  0  0  0  0
   62.0560   31.3070   47.2700 C   0  0  0  0  0  0  0  0  0  0  0  0
   61.9535   30.2186   47.3918 H   0  0  0  0  0  0  0  0  0  0  0  0
   61.5332   31.6744   46.3747 H   0  0  0  0  0  0  0  0  0  0  0  0
   63.4320   31.6150   47.1100 O   0  0  0  0  0  0  0  0  0  0  0  0
   63.6490   32.9940   47.3160 C   0  0  0  0  0  0  0  0  0  0  0  0
   64.6858   33.2416   47.0446 H   0  0  0  0  0  0  0  0  0  0  0  0
   62.9463   33.5619   46.6885 H   0  0  0  0  0  0  0  0  0  0  0  0
   63.4090   33.3650   48.7940 C   0  0  0  0  0  0  0  0  0  0  0  0
   64.3661   33.3039   49.3328 H   0  0  0  0  0  0  0  0  0  0  0  0
   62.9944   34.3836   48.8195 H   0  0  0  0  0  0  0  0  0  0  0  0
   60.1450   29.4620   50.0940 C   0  0  0  0  0  0  0  0  0  0  0  0
   59.8992   30.4938   50.3856 H   0  0  0  0  0  0  0  0  0  0  0  0
   59.6250   28.9330   48.9100 C   0  0  0  0  0  0  0  0  0  0  0  0
   58.9883   29.5561   48.2647 H   0  0  0  0  0  0  0  0  0  0  0  0
   57.1850   26.4050   46.6940 C   0  0  0  0  0  0  0  0  0  0  0  0
   57.1520   25.1950   47.4830 C   0  0  0  0  0  0  0  0  0  0  0  0
   57.1330   24.2220   48.1110 N   0  0  0  0  0  0  0  0  0  0  0  0
  1  2  1  0
  2  3  1  0
  3  4  1  0
  4  5  2  0
  5  6  1  0
  5  7  1  0
  7  8  1  0
  8  9  1  0
  9 10  1  0
  9 11  1  0
  9 12  1  0
 12 13  1  0
 12 14  1  0
 12 15  1  0
 15 16  1  0
 16 17  1  0
 16 18  1  0
 16 19  1  0
 15 20  1  0
 20 21  1  0
 20 22  1  0
 20 23  1  0
 23 24  1  0
 23 25  1  0
 23 26  1  0
  7 27  2  0
 27 28  1  0
 27 29  1  0
 29 30  1  0
 29 31  2  0
 31 32  1  0
 32 33  2  0
 33 34  1  0
 34 35  2  0
 35 36  1  0
 35 37  1  0
 37 38  1  0
 37 39  2  0
 39 40  1  0
 40 41  1  0
 40 42  1  0
 42 43  1  0
 42 44  1  0
 42 45  1  0
 45 46  1  0
 45 47  1  0
 45 48  1  0
 48 49  1  0
 48 50  1  0
 48 51  1  0
 51 52  1  0
 52 53  1  0
 52 54  1  0
 52 55  1  0
 55 56  1  0
 55 57  1  0
 55 58  1  0
 58 59  1  0
 59 60  1  0
 59 61  1  0
 59 62  1  0
 62 63  1  0
 62 64  1  0
 39 65  1  0
 65 66  1  0
 65 67  2  0
 67 68  1  0
 32 69  1  0
 69 70  1  0
 70 71  3  0
 69  2  2  0
 31  4  1  0
 67 34  1  0
 62 51  1  0
M  CHG  1   3  -1
M  END
>  <UniqueID>  (22) 
22

>  <SMILES>  (22) 
CCN(C)CCOc1ccc2/c(=N/c3ccc(NCCCN4CCOCC4)cc3)c(C#N)c[n-]c2c1

>  <Energy>  (22) 
99.53622528160888

>  <Genealogy>  (22) 
CCN(C)CCOc1ccc2c(=Nc3ccc(NCCCN4CCOCC4)cc3)c(C#N)c[n-]c2c1 (protonated)
CCN(C)CCOc1ccc2/c(=N/c3ccc(NCCCN4CCOCC4)cc3)c(C#N)c[n-]c2c1 (cis-trans isomerization)
CCN(C)CCOc1ccc2/c(=N/c3ccc(NCCCN4CCOCC4)cc3)c(C#N)c[n-]c2c1 (3D coordinates assigned)
CCN(C)CCOc1ccc2/c(=N/c3ccc(NCCCN4CCOCC4)cc3)c(C#N)c[n-]c2c1 (nonaromatic ring conformer: 99.53622528160888 kcal/mol)

>  <smiles>  (22) 
CCN(C)CCOc1ccc2c(=Nc3ccc(NCCCN4CCOCC4)cc3)c(C#N)c[nH]c2c1

>  <score_type>  (22) 
oracle

>  <origin>  (22) 
adg

>  <m_score__min__energy>  (22) 
-9.2899999999999991

>  <m_primary>  (22) 
energy

$$$$
23:0
     RDKit          3D

 60 63  0  0  0  0  0  0  0  0999 V2000
   58.1851   27.4285   47.8802 H   0  0  0  0  0  0  0  0  0  0  0  0
   58.2370   28.2160   47.1140 C   0  0  0  0  0  0  0  0  0  0  0  0
   57.4560   28.1380   46.0100 N   0  0  0  0  0  0  0  0  0  0  0  0
   57.4530   29.1000   45.0530 C   0  0  0  0  0  0  0  0  0  0  0  0
   56.6870   28.9150   43.9510 N   0  0  0  0  0  0  0  0  0  0  0  0
   56.6490   29.8120   42.9420 C   0  0  0  0  0  0  0  0  0  0  0  0
   56.0421   29.6052   42.0482 H   0  0  0  0  0  0  0  0  0  0  0  0
   57.3750   30.9980   43.0280 C   0  0  0  0  0  0  0  0  0  0  0  0
   57.2670   31.9470   41.9410 C   0  0  0  0  0  0  0  0  0  0  0  0
   57.1810   32.7060   41.0720 N   0  0  0  0  0  0  0  0  0  0  0  0
   58.1540   31.2800   44.1750 C   0  0  0  0  0  0  0  0  0  0  0  0
   58.6550   32.4910   44.2410 N   0  0  0  0  0  0  0  0  0  0  0  0
   58.1440   33.7950   44.6710 C   0  0  0  0  0  0  0  0  0  0  0  0
   57.4615   34.1950   43.9067 H   0  0  0  0  0  0  0  0  0  0  0  0
   57.3600   33.6570   45.9980 C   0  0  0  0  0  0  0  0  0  0  0  0
   56.5731   34.4251   46.0262 H   0  0  0  0  0  0  0  0  0  0  0  0
   56.9320   32.6443   46.0340 H   0  0  0  0  0  0  0  0  0  0  0  0
   58.2670   33.8310   47.2290 C   0  0  0  0  0  0  0  0  0  0  0  0
   58.2925   34.8935   47.5126 H   0  0  0  0  0  0  0  0  0  0  0  0
   57.8643   33.2275   48.0558 H   0  0  0  0  0  0  0  0  0  0  0  0
   59.5790   33.3950   46.9420 O   0  0  0  0  0  0  0  0  0  0  0  0
   60.2190   34.3070   46.0640 C   0  0  0  0  0  0  0  0  0  0  0  0
   60.4955   35.2046   46.6366 H   0  0  0  0  0  0  0  0  0  0  0  0
   61.0953   33.7900   45.6458 H   0  0  0  0  0  0  0  0  0  0  0  0
   59.3370   34.7420   44.8690 C   0  0  0  0  0  0  0  0  0  0  0  0
   58.9589   35.7579   45.0559 H   0  0  0  0  0  0  0  0  0  0  0  0
   59.9535   34.7129   43.9585 H   0  0  0  0  0  0  0  0  0  0  0  0
   58.2540   30.2670   45.1910 C   0  0  0  0  0  0  0  0  0  0  0  0
   59.1250   30.3030   46.3030 C   0  0  0  0  0  0  0  0  0  0  0  0
   59.8320   31.1395   46.4047 H   0  0  0  0  0  0  0  0  0  0  0  0
   59.1090   29.2960   47.2810 C   0  0  0  0  0  0  0  0  0  0  0  0
   60.0110   29.3660   48.4590 C   0  0  0  0  0  0  0  0  0  0  0  0
   60.0300   28.3250   49.4050 C   0  0  0  0  0  0  0  0  0  0  0  0
   59.3724   27.4533   49.2716 H   0  0  0  0  0  0  0  0  0  0  0  0
   60.8780   28.3910   50.5120 C   0  0  0  0  0  0  0  0  0  0  0  0
   60.8833   27.5742   51.2487 H   0  0  0  0  0  0  0  0  0  0  0  0
   61.7190   29.4910   50.6860 C   0  0  0  0  0  0  0  0  0  0  0  0
   62.3821   29.5371   51.5624 H   0  0  0  0  0  0  0  0  0  0  0  0
   61.7260   30.5350   49.7560 C   0  0  0  0  0  0  0  0  0  0  0  0
   62.6030   31.6100   49.9770 O   0  0  0  0  0  0  0  0  0  0  0  0
   63.7230   31.9510   49.1580 C   0  0  0  0  0  0  0  0  0  0  0  0
   64.4938   31.1734   49.2635 H   0  0  0  0  0  0  0  0  0  0  0  0
   64.1079   32.9279   49.4858 H   0  0  0  0  0  0  0  0  0  0  0  0
   63.3210   32.0600   47.6780 C   0  0  0  0  0  0  0  0  0  0  0  0
   62.6000   31.2632   47.4431 H   0  0  0  0  0  0  0  0  0  0  0  0
   64.2279   31.9582   47.0638 H   0  0  0  0  0  0  0  0  0  0  0  0
   62.7020   33.3730   47.3830 N   0  0  0  0  0  0  0  0  0  0  0  0
   63.4250   34.0470   46.2870 C   0  0  0  0  0  0  0  0  0  0  0  0
   64.1680   34.7396   46.7093 H   0  0  0  0  0  0  0  0  0  0  0  0
   63.9354   33.2949   45.6674 H   0  0  0  0  0  0  0  0  0  0  0  0
   62.7105   34.6088   45.6674 H   0  0  0  0  0  0  0  0  0  0  0  0
   62.6770   34.2260   48.5930 C   0  0  0  0  0  0  0  0  0  0  0  0
   62.9509   35.2541   48.3137 H   0  0  0  0  0  0  0  0  0  0  0  0
   63.3936   33.8198   49.3220 H   0  0  0  0  0  0  0  0  0  0  0  0
   61.2890   34.2350   49.2300 C   0  0  0  0  0  0  0  0  0  0  0  0
   61.3883   34.2344   50.3255 H   0  0  0  0  0  0  0  0  0  0  0  0
   60.7453   35.1367   48.9117 H   0  0  0  0  0  0  0  0  0  0  0  0
   60.7337   33.3404   48.9117 H   0  0  0  0  0  0  0  0  0  0  0  0
   60.8580   30.4750   48.6480 C   0  0  0  0  0  0  0  0  0  0  0  0
   60.8417   31.3025   47.9234 H   0  0  0  0  0  0  0  0  0  0  0  0
  1  2  1  0
  2  3  2  0
  3  4  1  0
  4  5  1  0
  5  6  1  0
  6  7  1  0
  6  8  2  0
  8  9  1  0
  9 10  3  0
  8 11  1  0
 11 12  2  0
 12 13  1  0
 13 14  1  0
 13 15  1  0
 15 16  1  0
 15 17  1  0
 15 18  1  0
 18 19  1  0
 18 20  1  0
 18 21  1  0
 21 22  1  0
 22 23  1  0
 22 24  1  0
 22 25  1  0
 25 26  1  0
 25 27  1  0
 11 28  1  0
 28 29  1  0
 29 30  1  0
 29 31  2  0
 31 32  1  0
 32 33  2  0
 33 34  1  0
 33 35  1  0
 35 36  1  0
 35 37  2  0
 37 38  1  0
 37 39  1  0
 39 40  1  0
 40 41  1  0
 41 42  1  0
 41 43  1  0
 41 44  1  0
 44 45  1  0
 44 46  1  0
 44 47  1  0
 47 48  1  0
 48 49  1  0
 48 50  1  0
 48 51  1  0
 47 52  1  0
 52 53  1  0
 52 54  1  0
 52 55  1  0
 55 56  1  0
 55 57  1  0
 55 58  1  0
 39 59  2  0
 59 60  1  0
 31  2  1  0
 59 32  1  0
 28  4  2  0
 25 13  1  0
M  CHG  1   5  -1
M  END
>  <UniqueID>  (23) 
23

>  <SMILES>  (23) 
CCN(C)CCOc1cccc(-c2cnc3[n-]cc(C#N)/c(=N/C4CCOCC4)c3c2)c1

>  <Energy>  (23) 
95.31347710248899

>  <Genealogy>  (23) 
CCN(C)CCOc1cccc(-c2cnc3[n-]cc(C#N)c(=NC4CCOCC4)c3c2)c1 (protonated)
CCN(C)CCOc1cccc(-c2cnc3[n-]cc(C#N)/c(=N/C4CCOCC4)c3c2)c1 (cis-trans isomerization)
CCN(C)CCOc1cccc(-c2cnc3[n-]cc(C#N)/c(=N/C4CCOCC4)c3c2)c1 (3D coordinates assigned)
CCN(C)CCOc1cccc(-c2cnc3[n-]cc(C#N)/c(=N/C4CCOCC4)c3c2)c1 (nonaromatic ring conformer: 95.31347710248899 kcal/mol)

>  <smiles>  (23) 
CCN(C)CCOc1cccc(-c2cnc3[nH]cc(C#N)c(=NC4CCOCC4)c3c2)c1

>  <score_type>  (23) 
oracle

>  <origin>  (23) 
adg

>  <m_score__min__energy>  (23) 
-9.8300000000000001

>  <m_primary>  (23) 
energy

$$$$
24:0
     RDKit          3D

 56 59  0  0  0  0  0  0  0  0999 V2000
   57.0020   29.3810   43.9800 C   0  0  0  0  0  0  0  0  0  0  0  0
   56.7430   30.8580   43.7000 C   0  0  0  0  0  0  0  0  0  0  0  0
   56.7910   31.6190   44.9070 O   0  0  0  0  0  0  0  0  0  0  0  0
   57.8240   32.4940   45.2930 C   0  0  0  0  0  0  0  0  0  0  0  0
   57.8780   33.8220   44.8370 C   0  0  0  0  0  0  0  0  0  0  0  0
   58.8760   34.6810   45.2840 C   0  0  0  0  0  0  0  0  0  0  0  0
   59.8720   34.2180   46.1420 C   0  0  0  0  0  0  0  0  0  0  0  0
   59.9170   32.8650   46.5390 C   0  0  0  0  0  0  0  0  0  0  0  0
   58.8210   32.0310   46.1840 C   0  0  0  0  0  0  0  0  0  0  0  0
   58.7080   30.7610   46.7620 C   0  0  0  0  0  0  0  0  0  0  0  0
   59.6080   30.3450   47.7340 C   0  0  0  0  0  0  0  0  0  0  0  0
   60.7170   31.1370   48.0750 C   0  0  0  0  0  0  0  0  0  0  0  0
   61.6170   30.7220   49.0750 C   0  0  0  0  0  0  0  0  0  0  0  0
   61.4320   29.4560   49.7320 N   0  0  0  0  0  0  0  0  0  0  0  0
   60.2470   29.1660   50.5440 C   0  0  0  0  0  0  0  0  0  0  0  0
   60.5250   28.0680   51.5830 C   0  0  0  0  0  0  0  0  0  0  0  0
   61.8690   27.4720   51.4130 N   0  0  0  0  0  0  0  0  0  0  0  0
   62.8510   28.0860   52.3220 C   0  0  0  0  0  0  0  0  0  0  0  0
   61.8160   26.0200   51.6530 C   0  0  0  0  0  0  0  0  0  0  0  0
   62.6990   31.5510   49.4140 C   0  0  0  0  0  0  0  0  0  0  0  0
   63.5030   31.2820   50.5410 C   0  0  0  0  0  0  0  0  0  0  0  0
   64.6040   32.0840   50.8350 C   0  0  0  0  0  0  0  0  0  0  0  0
   64.9140   33.1690   50.0220 C   0  0  0  0  0  0  0  0  0  0  0  0
   64.1200   33.4640   48.9140 C   0  0  0  0  0  0  0  0  0  0  0  0
   62.9940   32.6680   48.5920 C   0  0  0  0  0  0  0  0  0  0  0  0
   62.2010   32.9500   47.5000 N   0  0  0  0  0  0  0  0  0  0  0  0
   62.7990   33.6970   46.3720 C   0  0  0  0  0  0  0  0  0  0  0  0
   60.9610   32.3470   47.3740 C   0  0  0  0  0  0  0  0  0  0  0  0
   57.0314   29.2135   45.0668 H   0  0  0  0  0  0  0  0  0  0  0  0
   56.1960   28.7771   43.5376 H   0  0  0  0  0  0  0  0  0  0  0  0
   57.9653   29.0874   43.5376 H   0  0  0  0  0  0  0  0  0  0  0  0
   57.5097   31.2334   43.0063 H   0  0  0  0  0  0  0  0  0  0  0  0
   55.7416   30.9625   43.2570 H   0  0  0  0  0  0  0  0  0  0  0  0
   57.1255   34.1847   44.1214 H   0  0  0  0  0  0  0  0  0  0  0  0
   58.8794   35.7318   44.9586 H   0  0  0  0  0  0  0  0  0  0  0  0
   60.6342   34.9179   46.5151 H   0  0  0  0  0  0  0  0  0  0  0  0
   57.8993   30.0869   46.4434 H   0  0  0  0  0  0  0  0  0  0  0  0
   59.4506   29.3829   48.2436 H   0  0  0  0  0  0  0  0  0  0  0  0
   62.2080   28.7570   49.7050 H   0  0  0  0  0  0  0  0  0  0  0  0
   59.9406   30.0834   51.0680 H   0  0  0  0  0  0  0  0  0  0  0  0
   59.4506   28.8103   49.8738 H   0  0  0  0  0  0  0  0  0  0  0  0
   60.4553   28.5057   52.5897 H   0  0  0  0  0  0  0  0  0  0  0  0
   59.7796   27.2712   51.4434 H   0  0  0  0  0  0  0  0  0  0  0  0
   62.5526   27.8995   53.3642 H   0  0  0  0  0  0  0  0  0  0  0  0
   63.8432   27.6471   52.1405 H   0  0  0  0  0  0  0  0  0  0  0  0
   62.8909   29.1702   52.1405 H   0  0  0  0  0  0  0  0  0  0  0  0
   61.8090   25.8274   52.7360 H   0  0  0  0  0  0  0  0  0  0  0  0
   60.9022   25.6068   51.2011 H   0  0  0  0  0  0  0  0  0  0  0  0
   62.6973   25.5413   51.2011 H   0  0  0  0  0  0  0  0  0  0  0  0
   63.2587   30.4312   51.1940 H   0  0  0  0  0  0  0  0  0  0  0  0
   65.2290   31.8585   51.7116 H   0  0  0  0  0  0  0  0  0  0  0  0
   65.7876   33.7961   50.2535 H   0  0  0  0  0  0  0  0  0  0  0  0
   64.3721   34.3276   48.2810 H   0  0  0  0  0  0  0  0  0  0  0  0
   63.4415   34.4996   46.7633 H   0  0  0  0  0  0  0  0  0  0  0  0
   63.4013   33.0122   45.7569 H   0  0  0  0  0  0  0  0  0  0  0  0
   61.9990   34.1348   45.7569 H   0  0  0  0  0  0  0  0  0  0  0  0
  1  2  1  0
  2  3  1  0
  3  4  1  0
  4  5  2  0
  5  6  1  0
  6  7  2  0
  7  8  1  0
  8  9  2  0
  9 10  1  0
 10 11  2  0
 11 12  1  0
 12 13  2  0
 13 14  1  0
 14 15  1  0
 15 16  1  0
 16 17  1  0
 17 18  1  0
 17 19  1  0
 13 20  1  0
 20 21  2  0
 21 22  1  0
 22 23  2  0
 23 24  1  0
 24 25  2  0
 25 26  1  0
 26 27  1  0
 26 28  2  0
  9  4  1  0
 28 12  1  0
 28  8  1  0
 25 20  1  0
  1 29  1  0
  1 30  1  0
  1 31  1  0
  2 32  1  0
  2 33  1  0
  5 34  1  0
  6 35  1  0
  7 36  1  0
 10 37  1  0
 11 38  1  0
 14 39  1  0
 15 40  1  0
 15 41  1  0
 16 42  1  0
 16 43  1  0
 18 44  1  0
 18 45  1  0
 18 46  1  0
 19 47  1  0
 19 48  1  0
 19 49  1  0
 21 50  1  0
 22 51  1  0
 23 52  1  0
 24 53  1  0
 27 54  1  0
 27 55  1  0
 27 56  1  0
M  CHG  1  26   1
M  END
>  <UniqueID>  (24) 
24

>  <SMILES>  (24) 
CCOc1cccc2c1ccc1c(NCCN(C)C)c3ccccc3[n+](C)c12

>  <Energy>  (24) 
96.472165576365

>  <Genealogy>  (24) 
CCOc1cccc2c1ccc1c(NCCN(C)C)c3ccccc3[n+](C)c12 (3D coordinates assigned)
CCOc1cccc2c1ccc1c(NCCN(C)C)c3ccccc3[n+](C)c12 (optimized conformer: 96.472165576365 kcal/mol)

>  <smiles>  (24) 
CCOc1cccc2c1ccc1c(NCCN(C)C)c3ccccc3[n+](C)c12

>  <score_type>  (24) 
oracle

>  <origin>  (24) 
adg

>  <m_score__min__energy>  (24) 
-6.3499999999999996

>  <m_primary>  (24) 
energy

$$$$
25:0
     RDKit          3D

 88 92  0  0  0  0  0  0  0  0999 V2000
   52.0770   29.6930   49.1020 C   0  0  0  0  0  0  0  0  0  0  0  0
   51.7700   29.3860   50.5690 C   0  0  0  0  0  0  0  0  0  0  0  0
   52.4840   30.3160   51.4730 N   0  0  0  0  0  0  0  0  0  0  0  0
   52.3600   31.7090   51.0010 C   0  0  0  0  0  0  0  0  0  0  0  0
   51.9920   30.1990   52.8670 C   0  0  0  0  0  0  0  0  0  0  0  0
   52.8770   29.2180   53.6520 C   0  0  0  0  0  0  0  0  0  0  0  0
   53.5870   28.2960   52.7480 N   0  0  0  0  0  0  0  0  0  0  0  0
   54.7270   27.7080   53.4350 C   0  0  0  0  0  0  0  0  0  0  0  0
   54.5860   26.6600   54.3760 C   0  0  0  0  0  0  0  0  0  0  0  0
   53.3230   26.1130   54.7060 C   0  0  0  0  0  0  0  0  0  0  0  0
   53.2180   25.0210   55.5640 C   0  0  0  0  0  0  0  0  0  0  0  0
   54.3590   24.4510   56.1110 C   0  0  0  0  0  0  0  0  0  0  0  0
   55.6100   25.0020   55.8450 C   0  0  0  0  0  0  0  0  0  0  0  0
   55.7480   26.1480   55.0210 C   0  0  0  0  0  0  0  0  0  0  0  0
   56.9730   26.7680   54.8520 N   0  0  0  0  0  0  0  0  0  0  0  0
   58.0540   26.5120   55.8300 C   0  0  0  0  0  0  0  0  0  0  0  0
   57.1400   27.7120   53.8510 C   0  0  0  0  0  0  0  0  0  0  0  0
   58.4120   28.2230   53.4490 C   0  0  0  0  0  0  0  0  0  0  0  0
   59.4660   27.6420   53.8290 O   0  0  0  0  0  0  0  0  0  0  0  0
   58.5000   29.3100   52.6010 N   0  0  0  0  0  0  0  0  0  0  0  0
   59.6990   29.9500   52.3350 C   0  0  0  0  0  0  0  0  0  0  0  0
   60.7740   29.5610   52.8720 O   0  0  0  0  0  0  0  0  0  0  0  0
   59.7330   31.0720   51.4820 C   0  0  0  0  0  0  0  0  0  0  0  0
   60.9080   31.8050   51.2410 C   0  0  0  0  0  0  0  0  0  0  0  0
   60.8700   32.9530   50.4420 C   0  0  0  0  0  0  0  0  0  0  0  0
   59.6700   33.3740   49.8470 C   0  0  0  0  0  0  0  0  0  0  0  0
   59.6510   34.6010   49.0890 N   0  0  0  0  0  0  0  0  0  0  0  0
   59.5160   34.6840   47.6310 C   0  0  0  0  0  0  0  0  0  0  0  0
   58.3280   33.8230   47.1320 C   0  0  0  0  0  0  0  0  0  0  0  0
   58.3110   33.5490   45.6580 N   0  0  0  0  0  0  0  0  0  0  0  0
   56.9840   33.8800   45.0810 C   0  0  0  0  0  0  0  0  0  0  0  0
   59.3550   34.3260   44.9430 C   0  0  0  0  0  0  0  0  0  0  0  0
   58.5930   32.1020   45.4340 C   0  0  0  0  0  0  0  0  0  0  0  0
   57.7760   31.2910   46.2670 O   0  0  0  0  0  0  0  0  0  0  0  0
   58.1210   29.9210   46.1610 C   0  0  0  0  0  0  0  0  0  0  0  0
   57.1000   29.1360   45.3310 C   0  0  0  0  0  0  0  0  0  0  0  0
   56.1180   30.0280   44.8480 O   0  0  0  0  0  0  0  0  0  0  0  0
   56.1880   30.0820   43.4410 C   0  0  0  0  0  0  0  0  0  0  0  0
   58.5130   32.5950   50.0310 C   0  0  0  0  0  0  0  0  0  0  0  0
   58.5360   31.4840   50.8780 C   0  0  0  0  0  0  0  0  0  0  0  0
   57.3870   30.8320   51.1550 N   0  0  0  0  0  0  0  0  0  0  0  0
   57.3520   29.7840   52.0120 C   0  0  0  0  0  0  0  0  0  0  0  0
   56.1580   29.2240   52.2890 N   0  0  0  0  0  0  0  0  0  0  0  0
   56.0120   28.2160   53.1780 C   0  0  0  0  0  0  0  0  0  0  0  0
   52.8538   30.4698   49.0447 H   0  0  0  0  0  0  0  0  0  0  0  0
   52.4341   28.7799   48.6033 H   0  0  0  0  0  0  0  0  0  0  0  0
   51.1639   30.0501   48.6033 H   0  0  0  0  0  0  0  0  0  0  0  0
   50.6872   29.4835   50.7367 H   0  0  0  0  0  0  0  0  0  0  0  0
   52.1064   28.3618   50.7876 H   0  0  0  0  0  0  0  0  0  0  0  0
   52.2998   32.3854   51.8664 H   0  0  0  0  0  0  0  0  0  0  0  0
   53.2385   31.9695   50.3924 H   0  0  0  0  0  0  0  0  0  0  0  0
   51.4493   31.8102   50.3924 H   0  0  0  0  0  0  0  0  0  0  0  0
   52.0250   31.1868   53.3498 H   0  0  0  0  0  0  0  0  0  0  0  0
   50.9574   29.8254   52.8564 H   0  0  0  0  0  0  0  0  0  0  0  0
   53.6156   29.7888   54.2340 H   0  0  0  0  0  0  0  0  0  0  0  0
   52.2322   28.6244   54.3167 H   0  0  0  0  0  0  0  0  0  0  0  0
   52.9350   27.5740   52.3720 H   0  0  0  0  0  0  0  0  0  0  0  0
   53.9190   28.8120   51.9010 H   0  0  0  0  0  0  0  0  0  0  0  0
   52.4116   26.5566   54.2788 H   0  0  0  0  0  0  0  0  0  0  0  0
   52.2278   24.6091   55.8088 H   0  0  0  0  0  0  0  0  0  0  0  0
   54.2752   23.5633   56.7552 H   0  0  0  0  0  0  0  0  0  0  0  0
   56.5075   24.5399   56.2820 H   0  0  0  0  0  0  0  0  0  0  0  0
   57.6550   26.6065   56.8507 H   0  0  0  0  0  0  0  0  0  0  0  0
   58.4483   25.4956   55.6831 H   0  0  0  0  0  0  0  0  0  0  0  0
   58.8622   27.2436   55.6831 H   0  0  0  0  0  0  0  0  0  0  0  0
   61.8602   31.4751   51.6819 H   0  0  0  0  0  0  0  0  0  0  0  0
   61.7907   33.5322   50.2782 H   0  0  0  0  0  0  0  0  0  0  0  0
   59.7600   35.5020   49.6070 H   0  0  0  0  0  0  0  0  0  0  0  0
   59.3453   35.7323   47.3449 H   0  0  0  0  0  0  0  0  0  0  0  0
   60.4406   34.3041   47.1718 H   0  0  0  0  0  0  0  0  0  0  0  0
   58.3640   32.8570   47.6570 H   0  0  0  0  0  0  0  0  0  0  0  0
   57.4194   34.4057   47.3440 H   0  0  0  0  0  0  0  0  0  0  0  0
   56.2651   34.0593   45.8940 H   0  0  0  0  0  0  0  0  0  0  0  0
   57.0692   34.7844   44.4607 H   0  0  0  0  0  0  0  0  0  0  0  0
   56.6344   33.0415   44.4607 H   0  0  0  0  0  0  0  0  0  0  0  0
   60.0134   34.8160   45.6754 H   0  0  0  0  0  0  0  0  0  0  0  0
   59.9487   33.6483   44.3120 H   0  0  0  0  0  0  0  0  0  0  0  0
   58.8763   35.0893   44.3120 H   0  0  0  0  0  0  0  0  0  0  0  0
   58.3915   31.8546   44.3813 H   0  0  0  0  0  0  0  0  0  0  0  0
   59.6475   31.9075   45.6795 H   0  0  0  0  0  0  0  0  0  0  0  0
   59.1074   29.8390   45.6812 H   0  0  0  0  0  0  0  0  0  0  0  0
   58.1357   29.4943   47.1748 H   0  0  0  0  0  0  0  0  0  0  0  0
   57.6075   28.6519   44.4836 H   0  0  0  0  0  0  0  0  0  0  0  0
   56.6266   28.3647   45.9563 H   0  0  0  0  0  0  0  0  0  0  0  0
   57.0257   30.7283   43.1401 H   0  0  0  0  0  0  0  0  0  0  0  0
   56.3450   29.0688   43.0425 H   0  0  0  0  0  0  0  0  0  0  0  0
   55.2478   30.4911   43.0425 H   0  0  0  0  0  0  0  0  0  0  0  0
   57.5847   32.8622   49.5049 H   0  0  0  0  0  0  0  0  0  0  0  0
  1  2  1  0
  2  3  1  0
  3  4  1  0
  3  5  1  0
  5  6  1  0
  6  7  1  0
  7  8  1  0
  8  9  2  0
  9 10  1  0
 10 11  2  0
 11 12  1  0
 12 13  2  0
 13 14  1  0
 14 15  2  0
 15 16  1  0
 15 17  1  0
 17 18  1  0
 18 19  2  0
 18 20  1  0
 20 21  1  0
 21 22  2  0
 21 23  1  0
 23 24  2  0
 24 25  1  0
 25 26  2  0
 26 27  1  0
 27 28  1  0
 28 29  1  0
 29 30  1  0
 30 31  1  0
 30 32  1  0
 30 33  1  0
 33 34  1  0
 34 35  1  0
 35 36  1  0
 36 37  1  0
 37 38  1  0
 26 39  1  0
 39 40  2  0
 40 41  1  0
 41 42  1  0
 42 43  2  0
 43 44  1  0
 44  8  1  0
 14  9  1  0
 44 17  2  0
 42 20  1  0
 40 23  1  0
  1 45  1  0
  1 46  1  0
  1 47  1  0
  2 48  1  0
  2 49  1  0
  4 50  1  0
  4 51  1  0
  4 52  1  0
  5 53  1  0
  5 54  1  0
  6 55  1  0
  6 56  1  0
  7 57  1  0
  7 58  1  0
 10 59  1  0
 11 60  1  0
 12 61  1  0
 13 62  1  0
 16 63  1  0
 16 64  1  0
 16 65  1  0
 24 66  1  0
 25 67  1  0
 27 68  1  0
 28 69  1  0
 28 70  1  0
 29 71  1  0
 29 72  1  0
 31 73  1  0
 31 74  1  0
 31 75  1  0
 32 76  1  0
 32 77  1  0
 32 78  1  0
 33 79  1  0
 33 80  1  0
 35 81  1  0
 35 82  1  0
 36 83  1  0
 36 84  1  0
 38 85  1  0
 38 86  1  0
 38 87  1  0
 39 88  1  0
M  CHG  4   7   1  15   1  30   1  41  -1
M  END
>  <UniqueID>  (25) 
25

>  <SMILES>  (25) 
CCN(C)CC[NH2+]c1c2ccccc2[n+](C)c2c(=O)n3c(=O)c4ccc(NCC[N+](C)(C)COCCOC)cc4[n-]c3nc12

>  <Energy>  (25) 
143.66805719449007

>  <Genealogy>  (25) 
CCN(C)CC[NH2+]c1c2ccccc2[n+](C)c2c(=O)n3c(=O)c4ccc(NCC[N+](C)(C)COCCOC)cc4[n-]c3nc12 (protonated)
CCN(C)CC[NH2+]c1c2ccccc2[n+](C)c2c(=O)n3c(=O)c4ccc(NCC[N+](C)(C)COCCOC)cc4[n-]c3nc12 (3D coordinates assigned)
CCN(C)CC[NH2+]c1c2ccccc2[n+](C)c2c(=O)n3c(=O)c4ccc(NCC[N+](C)(C)COCCOC)cc4[n-]c3nc12 (optimized conformer: 143.66805719449007 kcal/mol)

>  <smiles>  (25) 
CCN(C)CCNc1c2ccccc2[n+](C)c2c(=O)n3c(=O)c4ccc(NCC[N+](C)(C)COCCOC)cc4[nH]c3nc12

>  <score_type>  (25) 
oracle

>  <origin>  (25) 
adg

>  <m_score__min__energy>  (25) 
-5.3499999999999996

>  <m_primary>  (25) 
energy

$$$$
26:0
     RDKit          3D

 38 40  0  0  0  0  0  0  0  0999 V2000
   56.5080   24.8380   45.1650 C   0  0  0  0  0  0  0  0  0  0  0  0
   55.8920   25.9640   45.9850 C   0  0  0  0  0  0  0  0  0  0  0  0
   56.5130   27.2450   45.6260 N   0  0  0  0  0  0  0  0  0  0  0  0
   57.9800   27.1710   45.6970 C   0  0  0  0  0  0  0  0  0  0  0  0
   58.5650   28.5270   46.0980 C   0  0  0  0  0  0  0  0  0  0  0  0
   57.5290   29.5600   46.0980 N   0  0  0  0  0  0  0  0  0  0  0  0
   57.8550   30.9090   45.7460 C   0  0  0  0  0  0  0  0  0  0  0  0
   57.5100   31.4070   44.4580 C   0  0  0  0  0  0  0  0  0  0  0  0
   56.6110   30.2960   43.1850 Br  0  0  0  0  0  0  0  0  0  0  0  0
   57.8450   32.7280   44.0870 C   0  0  0  0  0  0  0  0  0  0  0  0
   58.5150   33.5340   45.0090 C   0  0  0  0  0  0  0  0  0  0  0  0
   58.8250   33.0490   46.2380 C   0  0  0  0  0  0  0  0  0  0  0  0
   59.4510   33.9720   47.0140 C   0  0  0  0  0  0  0  0  0  0  0  0
   59.8190   33.6530   48.3230 C   0  0  0  0  0  0  0  0  0  0  0  0
   59.5200   32.3620   48.8090 C   0  0  0  0  0  0  0  0  0  0  0  0
   58.8660   31.4160   47.9850 C   0  0  0  0  0  0  0  0  0  0  0  0
   58.5170   31.7600   46.6630 C   0  0  0  0  0  0  0  0  0  0  0  0
   59.6170   35.2560   46.2630 C   0  0  0  0  0  0  0  0  0  0  0  0
   58.9700   34.9540   44.8800 C   0  0  0  0  0  0  0  0  0  0  0  0
   56.9243   24.0771   45.8415 H   0  0  0  0  0  0  0  0  0  0  0  0
   55.7344   24.3808   44.5306 H   0  0  0  0  0  0  0  0  0  0  0  0
   57.3102   25.2429   44.5306 H   0  0  0  0  0  0  0  0  0  0  0  0
   54.8120   26.0134   45.7823 H   0  0  0  0  0  0  0  0  0  0  0  0
   56.0626   25.7672   47.0537 H   0  0  0  0  0  0  0  0  0  0  0  0
   56.2550   27.4530   44.6310 H   0  0  0  0  0  0  0  0  0  0  0  0
   58.2689   26.4168   46.4438 H   0  0  0  0  0  0  0  0  0  0  0  0
   58.3710   26.8929   44.7072 H   0  0  0  0  0  0  0  0  0  0  0  0
   58.9969   28.4494   47.1067 H   0  0  0  0  0  0  0  0  0  0  0  0
   59.3409   28.8056   45.3697 H   0  0  0  0  0  0  0  0  0  0  0  0
   56.5200   29.2900   46.1260 H   0  0  0  0  0  0  0  0  0  0  0  0
   57.5830   33.1142   43.0909 H   0  0  0  0  0  0  0  0  0  0  0  0
   60.3296   34.3902   48.9600 H   0  0  0  0  0  0  0  0  0  0  0  0
   59.7980   32.0890   49.8377 H   0  0  0  0  0  0  0  0  0  0  0  0
   58.6304   30.4147   48.3747 H   0  0  0  0  0  0  0  0  0  0  0  0
   59.0931   36.0792   46.7709 H   0  0  0  0  0  0  0  0  0  0  0  0
   60.6671   35.5739   46.1846 H   0  0  0  0  0  0  0  0  0  0  0  0
   58.1185   35.6239   44.6897 H   0  0  0  0  0  0  0  0  0  0  0  0
   59.6638   35.1067   44.0402 H   0  0  0  0  0  0  0  0  0  0  0  0
  1  2  1  0
  2  3  1  0
  3  4  1  0
  4  5  1  0
  5  6  1  0
  6  7  1  0
  7  8  2  0
  8  9  1  0
  8 10  1  0
 10 11  2  0
 11 12  1  0
 12 13  2  0
 13 14  1  0
 14 15  2  0
 15 16  1  0
 16 17  2  0
 13 18  1  0
 18 19  1  0
 17  7  1  0
 19 11  1  0
 17 12  1  0
  1 20  1  0
  1 21  1  0
  1 22  1  0
  2 23  1  0
  2 24  1  0
  3 25  1  0
  4 26  1  0
  4 27  1  0
  5 28  1  0
  5 29  1  0
  6 30  1  0
 10 31  1  0
 14 32  1  0
 15 33  1  0
 16 34  1  0
 18 35  1  0
 18 36  1  0
 19 37  1  0
 19 38  1  0
M  END
>  <UniqueID>  (26) 
26

>  <SMILES>  (26) 
CCNCCNc1c(Br)cc2c3c(cccc13)CC2

>  <Energy>  (26) 
60.27513679958827

>  <Genealogy>  (26) 
CCNCCNc1c(Br)cc2c3c(cccc13)CC2 (3D coordinates assigned)
CCNCCNc1c(Br)cc2c3c(cccc13)CC2 (nonaromatic ring conformer: 60.27513679958827 kcal/mol)

>  <smiles>  (26) 
CCNCCNc1c(Br)cc2c3c(cccc13)CC2

>  <score_type>  (26) 
oracle

>  <origin>  (26) 
adg

>  <m_score__min__energy>  (26) 
-7.2300000000000004

>  <m_primary>  (26) 
energy

$$$$
27:0
     RDKit          3D

 40 40  0  0  0  0  0  0  0  0999 V2000
   60.2240   27.9300   45.7780 C   0  0  0  0  0  0  0  0  0  0  0  0
   59.6450   28.5450   44.5040 C   0  0  0  0  0  0  0  0  0  0  0  0
   58.5330   27.6620   43.8600 C   0  0  0  0  0  0  0  0  0  0  0  0
   57.9960   26.5780   44.8320 C   0  0  0  0  0  0  0  0  0  0  0  0
   57.4390   25.3500   44.1160 C   0  0  0  0  0  0  0  0  0  0  0  0
   57.4330   28.4860   43.3000 N   0  0  0  0  0  0  0  0  0  0  0  0
   56.9290   29.5570   44.1920 C   0  0  0  0  0  0  0  0  0  0  0  0
   57.4010   30.9260   43.7600 C   0  0  0  0  0  0  0  0  0  0  0  0
   57.4220   31.1950   42.5270 O   0  0  0  0  0  0  0  0  0  0  0  0
   57.8240   31.9240   44.7110 N   0  0  0  0  0  0  0  0  0  0  0  0
   57.7690   33.3460   44.3410 C   0  0  0  0  0  0  0  0  0  0  0  0
   57.4030   34.1930   45.5630 C   0  0  0  0  0  0  0  0  0  0  0  0
   58.3420   33.9520   46.7640 C   0  0  0  0  0  0  0  0  0  0  0  0
   59.1970   32.6810   46.6360 C   0  0  0  0  0  0  0  0  0  0  0  0
   58.4110   31.5280   46.0030 C   0  0  0  0  0  0  0  0  0  0  0  0
   59.7704   28.4118   46.6567 H   0  0  0  0  0  0  0  0  0  0  0  0
   60.0052   26.8521   45.7971 H   0  0  0  0  0  0  0  0  0  0  0  0
   61.3131   28.0835   45.7971 H   0  0  0  0  0  0  0  0  0  0  0  0
   59.2152   29.5269   44.7513 H   0  0  0  0  0  0  0  0  0  0  0  0
   60.4643   28.6309   43.7750 H   0  0  0  0  0  0  0  0  0  0  0  0
   59.0058   27.1272   43.0231 H   0  0  0  0  0  0  0  0  0  0  0  0
   58.8194   26.2571   45.4870 H   0  0  0  0  0  0  0  0  0  0  0  0
   57.1682   27.0289   45.3990 H   0  0  0  0  0  0  0  0  0  0  0  0
   57.1043   24.6121   44.8600 H   0  0  0  0  0  0  0  0  0  0  0  0
   56.5877   25.6475   43.4861 H   0  0  0  0  0  0  0  0  0  0  0  0
   58.2236   24.9055   43.4861 H   0  0  0  0  0  0  0  0  0  0  0  0
   56.6510   27.8570   43.0020 H   0  0  0  0  0  0  0  0  0  0  0  0
   57.7830   28.9340   42.4190 H   0  0  0  0  0  0  0  0  0  0  0  0
   55.8292   29.5407   44.1794 H   0  0  0  0  0  0  0  0  0  0  0  0
   57.3195   29.3675   45.2027 H   0  0  0  0  0  0  0  0  0  0  0  0
   58.7518   33.6614   43.9607 H   0  0  0  0  0  0  0  0  0  0  0  0
   57.0043   33.4866   43.5629 H   0  0  0  0  0  0  0  0  0  0  0  0
   57.4573   35.2553   45.2827 H   0  0  0  0  0  0  0  0  0  0  0  0
   56.3885   33.9029   45.8738 H   0  0  0  0  0  0  0  0  0  0  0  0
   59.0164   34.8161   46.8562 H   0  0  0  0  0  0  0  0  0  0  0  0
   57.7031   33.8212   47.6498 H   0  0  0  0  0  0  0  0  0  0  0  0
   60.0723   32.9025   46.0077 H   0  0  0  0  0  0  0  0  0  0  0  0
   59.5036   32.3719   47.6462 H   0  0  0  0  0  0  0  0  0  0  0  0
   59.0900   30.6776   45.8421 H   0  0  0  0  0  0  0  0  0  0  0  0
   57.5934   31.2507   46.6846 H   0  0  0  0  0  0  0  0  0  0  0  0
  1  2  1  0
  2  3  1  0
  3  4  1  0
  4  5  1  0
  3  6  1  0
  6  7  1  0
  7  8  1  0
  8  9  2  0
  8 10  1  0
 10 11  1  0
 11 12  1  0
 12 13  1  0
 13 14  1  0
 14 15  1  0
 15 10  1  0
  1 16  1  0
  1 17  1  0
  1 18  1  0
  2 19  1  0
  2 20  1  0
  3 21  1  0
  4 22  1  0
  4 23  1  0
  5 24  1  0
  5 25  1  0
  5 26  1  0
  6 27  1  0
  6 28  1  0
  7 29  1  0
  7 30  1  0
 11 31  1  0
 11 32  1  0
 12 33  1  0
 12 34  1  0
 13 35  1  0
 13 36  1  0
 14 37  1  0
 14 38  1  0
 15 39  1  0
 15 40  1  0
M  CHG  1   6   1
M  END
>  <UniqueID>  (27) 
27

>  <SMILES>  (27) 
CCC(CC)[NH2+]CC(=O)N1CCCCC1

>  <Energy>  (27) 
37.339888402324945

>  <Genealogy>  (27) 
CCC(CC)[NH2+]CC(=O)N1CCCCC1 (protonated)
CCC(CC)[NH2+]CC(=O)N1CCCCC1 (3D coordinates assigned)
CCC(CC)[NH2+]CC(=O)N1CCCCC1 (nonaromatic ring conformer: 37.339888402324945 kcal/mol)

>  <smiles>  (27) 
CCC(CC)NCC(=O)N1CCCCC1

>  <score_type>  (27) 
oracle

>  <origin>  (27) 
adg

>  <m_score__min__energy>  (27) 
-4.3600000000000003

>  <m_primary>  (27) 
energy

$$$$
28:0
     RDKit          3D

 48 51  0  0  0  0  0  0  0  0999 V2000
   63.3490   33.8930   46.3630 C   0  0  0  0  0  0  0  0  0  0  0  0
   63.7660   33.3400   47.7230 C   0  0  0  0  0  0  0  0  0  0  0  0
   63.7190   31.8710   47.7190 N   0  0  0  0  0  0  0  0  0  0  0  0
   62.3940   31.3790   47.3160 C   0  0  0  0  0  0  0  0  0  0  0  0
   61.6300   30.8820   48.5440 C   0  0  0  0  0  0  0  0  0  0  0  0
   60.2040   31.1800   48.4240 N   0  0  0  0  0  0  0  0  0  0  0  0
   59.5920   31.2790   47.1310 C   0  0  0  0  0  0  0  0  0  0  0  0
   59.1360   30.1230   46.4720 C   0  0  0  0  0  0  0  0  0  0  0  0
   59.2600   28.8590   47.0820 C   0  0  0  0  0  0  0  0  0  0  0  0
   58.8130   27.7030   46.4350 C   0  0  0  0  0  0  0  0  0  0  0  0
   58.9420   26.4460   47.0480 C   0  0  0  0  0  0  0  0  0  0  0  0
   58.4920   25.2960   46.3940 C   0  0  0  0  0  0  0  0  0  0  0  0
   57.9100   25.3920   45.1270 C   0  0  0  0  0  0  0  0  0  0  0  0
   57.7770   26.6380   44.5090 C   0  0  0  0  0  0  0  0  0  0  0  0
   58.2270   27.8000   45.1570 C   0  0  0  0  0  0  0  0  0  0  0  0
   58.0990   29.0540   44.5430 C   0  0  0  0  0  0  0  0  0  0  0  0
   58.5480   30.2370   45.1820 C   0  0  0  0  0  0  0  0  0  0  0  0
   58.4270   31.4780   44.5800 N   0  0  0  0  0  0  0  0  0  0  0  0
   57.8320   31.5910   43.2300 C   0  0  0  0  0  0  0  0  0  0  0  0
   58.8520   32.6140   45.2350 C   0  0  0  0  0  0  0  0  0  0  0  0
   58.7130   33.8420   44.6550 N   0  0  0  0  0  0  0  0  0  0  0  0
   59.1090   34.9910   45.2590 C   0  0  0  0  0  0  0  0  0  0  0  0
   59.6830   34.9470   46.5260 C   0  0  0  0  0  0  0  0  0  0  0  0
   59.8450   33.7170   47.1590 C   0  0  0  0  0  0  0  0  0  0  0  0
   59.4370   32.5310   46.5190 C   0  0  0  0  0  0  0  0  0  0  0  0
   62.6924   34.7637   46.5069 H   0  0  0  0  0  0  0  0  0  0  0  0
   64.2441   34.1977   45.8009 H   0  0  0  0  0  0  0  0  0  0  0  0
   62.8099   33.1162   45.8009 H   0  0  0  0  0  0  0  0  0  0  0  0
   64.7913   33.6685   47.9482 H   0  0  0  0  0  0  0  0  0  0  0  0
   63.0702   33.7156   48.4877 H   0  0  0  0  0  0  0  0  0  0  0  0
   64.4090   31.5340   47.0060 H   0  0  0  0  0  0  0  0  0  0  0  0
   61.8303   32.1955   46.8411 H   0  0  0  0  0  0  0  0  0  0  0  0
   62.5159   30.5494   46.6040 H   0  0  0  0  0  0  0  0  0  0  0  0
   61.7645   29.7942   48.6365 H   0  0  0  0  0  0  0  0  0  0  0  0
   62.0233   31.3936   49.4348 H   0  0  0  0  0  0  0  0  0  0  0  0
   59.5940   31.2460   49.2700 H   0  0  0  0  0  0  0  0  0  0  0  0
   59.7146   28.7806   48.0806 H   0  0  0  0  0  0  0  0  0  0  0  0
   59.3985   26.3665   48.0456 H   0  0  0  0  0  0  0  0  0  0  0  0
   58.5960   24.3134   46.8773 H   0  0  0  0  0  0  0  0  0  0  0  0
   57.5560   24.4849   44.6154 H   0  0  0  0  0  0  0  0  0  0  0  0
   57.3184   26.7091   43.5117 H   0  0  0  0  0  0  0  0  0  0  0  0
   57.6409   29.1212   43.5452 H   0  0  0  0  0  0  0  0  0  0  0  0
   56.7549   31.7956   43.3200 H   0  0  0  0  0  0  0  0  0  0  0  0
   58.3169   32.4131   42.6832 H   0  0  0  0  0  0  0  0  0  0  0  0
   57.9818   30.6484   42.6832 H   0  0  0  0  0  0  0  0  0  0  0  0
   58.9764   35.9559   44.7477 H   0  0  0  0  0  0  0  0  0  0  0  0
   60.0054   35.8741   47.0224 H   0  0  0  0  0  0  0  0  0  0  0  0
   60.2933   33.6719   48.1625 H   0  0  0  0  0  0  0  0  0  0  0  0
  1  2  1  0
  2  3  1  0
  3  4  1  0
  4  5  1  0
  5  6  1  0
  6  7  1  0
  7  8  2  0
  8  9  1  0
  9 10  2  0
 10 11  1  0
 11 12  2  0
 12 13  1  0
 13 14  2  0
 14 15  1  0
 15 16  2  0
 16 17  1  0
 17 18  2  0
 18 19  1  0
 18 20  1  0
 20 21  2  0
 21 22  1  0
 22 23  2  0
 23 24  1  0
 24 25  2  0
 25  7  1  0
 17  8  1  0
 25 20  1  0
 15 10  1  0
  1 26  1  0
  1 27  1  0
  1 28  1  0
  2 29  1  0
  2 30  1  0
  3 31  1  0
  4 32  1  0
  4 33  1  0
  5 34  1  0
  5 35  1  0
  6 36  1  0
  9 37  1  0
 11 38  1  0
 12 39  1  0
 13 40  1  0
 14 41  1  0
 16 42  1  0
 19 43  1  0
 19 44  1  0
 19 45  1  0
 22 46  1  0
 23 47  1  0
 24 48  1  0
M  CHG  1  18   1
M  END
>  <UniqueID>  (28) 
28

>  <SMILES>  (28) 
CCNCCNc1c2cc3ccccc3cc2[n+](C)c2ncccc12

>  <Energy>  (28) 
71.13686596332394

>  <Genealogy>  (28) 
CCNCCNc1c2cc3ccccc3cc2[n+](C)c2ncccc12 (3D coordinates assigned)
CCNCCNc1c2cc3ccccc3cc2[n+](C)c2ncccc12 (optimized conformer: 71.13686596332394 kcal/mol)

>  <smiles>  (28) 
CCNCCNc1c2cc3ccccc3cc2[n+](C)c2ncccc12

>  <score_type>  (28) 
oracle

>  <origin>  (28) 
adg

>  <m_score__min__energy>  (28) 
-6.4900000000000002

>  <m_primary>  (28) 
energy

$$$$
