0:0
     RDKit          3D

 50 52  0  0  0  0  0  0  0  0999 V2000
   58.6690   31.8810   50.8140 C   0  0  0  0  0  0  0  0  0  0  0  0
   59.4670   31.8060   49.6370 O   0  0  0  0  0  0  0  0  0  0  0  0
   59.3380   30.8220   48.6420 C   0  0  0  0  0  0  0  0  0  0  0  0
   59.8760   29.5320   48.8120 C   0  0  0  0  0  0  0  0  0  0  0  0
   59.7670   28.5810   47.8020 C   0  0  0  0  0  0  0  0  0  0  0  0
   59.1160   28.8940   46.6120 C   0  0  0  0  0  0  0  0  0  0  0  0
   58.5480   30.1610   46.4220 C   0  0  0  0  0  0  0  0  0  0  0  0
   57.8900   30.4270   45.1770 N   0  0  0  0  0  0  0  0  0  0  0  0
   58.3840   31.1550   44.1560 C   0  0  0  0  0  0  0  0  0  0  0  0
   57.4040   31.2450   43.1920 C   0  0  0  0  0  0  0  0  0  0  0  0
   57.5150   31.8850   41.8490 C   0  0  0  0  0  0  0  0  0  0  0  0
   56.3240   30.5460   43.6980 C   0  0  0  0  0  0  0  0  0  0  0  0
   56.6390   30.0740   44.9200 N   0  0  0  0  0  0  0  0  0  0  0  0
   58.6590   31.1440   47.4430 C   0  0  0  0  0  0  0  0  0  0  0  0
   58.1690   32.5620   47.2320 C   0  0  0  0  0  0  0  0  0  0  0  0
   59.3020   33.4460   46.7780 C   0  0  0  0  0  0  0  0  0  0  0  0
   59.1250   34.1910   45.8220 O   0  0  0  0  0  0  0  0  0  0  0  0
   60.5780   33.4400   47.4720 N   0  0  0  0  0  0  0  0  0  0  0  0
   60.5720   34.5050   48.5020 C   0  0  0  0  0  0  0  0  0  0  0  0
   61.2750   34.0990   49.8110 C   0  0  0  0  0  0  0  0  0  0  0  0
   62.6550   33.4260   49.6490 C   0  0  0  0  0  0  0  0  0  0  0  0
   63.4510   33.8900   48.4140 C   0  0  0  0  0  0  0  0  0  0  0  0
   63.0970   33.1770   47.0810 C   0  0  0  0  0  0  0  0  0  0  0  0
   61.7010   33.4890   46.4940 C   0  0  0  0  0  0  0  0  0  0  0  0
   59.3170   31.8201   51.7008 H   0  0  0  0  0  0  0  0  0  0  0  0
   58.1208   32.8346   50.8252 H   0  0  0  0  0  0  0  0  0  0  0  0
   57.9528   31.0462   50.8252 H   0  0  0  0  0  0  0  0  0  0  0  0
   60.3869   29.2737   49.7513 H   0  0  0  0  0  0  0  0  0  0  0  0
   60.1967   27.5785   47.9444 H   0  0  0  0  0  0  0  0  0  0  0  0
   59.0468   28.1403   45.8138 H   0  0  0  0  0  0  0  0  0  0  0  0
   59.3894   31.5979   44.1021 H   0  0  0  0  0  0  0  0  0  0  0  0
   57.7018   32.9622   41.9705 H   0  0  0  0  0  0  0  0  0  0  0  0
   58.3474   31.4289   41.2931 H   0  0  0  0  0  0  0  0  0  0  0  0
   56.5776   31.7358   41.2931 H   0  0  0  0  0  0  0  0  0  0  0  0
   55.3620   30.3988   43.1853 H   0  0  0  0  0  0  0  0  0  0  0  0
   57.3793   32.5626   46.4663 H   0  0  0  0  0  0  0  0  0  0  0  0
   57.7731   32.9485   48.1828 H   0  0  0  0  0  0  0  0  0  0  0  0
   60.6630   32.5270   47.9800 H   0  0  0  0  0  0  0  0  0  0  0  0
   61.0832   35.3885   48.0920 H   0  0  0  0  0  0  0  0  0  0  0  0
   59.5199   34.7088   48.7500 H   0  0  0  0  0  0  0  0  0  0  0  0
   61.4108   35.0067   50.4173 H   0  0  0  0  0  0  0  0  0  0  0  0
   60.6260   33.3435   50.2780 H   0  0  0  0  0  0  0  0  0  0  0  0
   63.2524   33.6470   50.5458 H   0  0  0  0  0  0  0  0  0  0  0  0
   62.4649   32.3511   49.5130 H   0  0  0  0  0  0  0  0  0  0  0  0
   63.2707   34.9668   48.2801 H   0  0  0  0  0  0  0  0  0  0  0  0
   64.5014   33.6373   48.6207 H   0  0  0  0  0  0  0  0  0  0  0  0
   63.8491   33.4690   46.3333 H   0  0  0  0  0  0  0  0  0  0  0  0
   63.0867   32.1020   47.3140 H   0  0  0  0  0  0  0  0  0  0  0  0
   61.7317   34.4997   46.0610 H   0  0  0  0  0  0  0  0  0  0  0  0
   61.4971   32.7010   45.7541 H   0  0  0  0  0  0  0  0  0  0  0  0
  1  2  1  0
  2  3  1  0
  3  4  2  0
  4  5  1  0
  5  6  2  0
  6  7  1  0
  7  8  1  0
  8  9  1  0
  9 10  2  0
 10 11  1  0
 10 12  1  0
 12 13  2  0
  7 14  2  0
 14 15  1  0
 15 16  1  0
 16 17  2  0
 16 18  1  0
 18 19  1  0
 19 20  1  0
 20 21  1  0
 21 22  1  0
 22 23  1  0
 23 24  1  0
 14  3  1  0
 24 18  1  0
 13  8  1  0
  1 25  1  0
  1 26  1  0
  1 27  1  0
  4 28  1  0
  5 29  1  0
  6 30  1  0
  9 31  1  0
 11 32  1  0
 11 33  1  0
 11 34  1  0
 12 35  1  0
 15 36  1  0
 15 37  1  0
 18 38  1  0
 19 39  1  0
 19 40  1  0
 20 41  1  0
 20 42  1  0
 21 43  1  0
 21 44  1  0
 22 45  1  0
 22 46  1  0
 23 47  1  0
 23 48  1  0
 24 49  1  0
 24 50  1  0
M  CHG  1  18   1
M  END
>  <UniqueID>  (1) 
1

>  <SMILES>  (1) 
COc1cccc(-n2cc(C)cn2)c1CC(=O)[NH+]1CCCCCC1

>  <Energy>  (1) 
97.83161581601743

>  <Genealogy>  (1) 
COc1cccc(-n2cc(C)cn2)c1CC(=O)[NH+]1CCCCCC1 (protonated)
COc1cccc(-n2cc(C)cn2)c1CC(=O)[NH+]1CCCCCC1 (3D coordinates assigned)
COc1cccc(-n2cc(C)cn2)c1CC(=O)[NH+]1CCCCCC1 (nonaromatic ring conformer: 97.83161581601743 kcal/mol)

>  <smiles>  (1) 
COc1cccc(-n2cc(C)cn2)c1CC(=O)N1CCCCCC1

>  <score_type>  (1) 
oracle

>  <origin>  (1) 
adg

>  <m_score__min__energy>  (1) 
-4.5700000000000003

>  <m_primary>  (1) 
energy

$$$$
1:0
     RDKit          3D

 35 37  0  0  0  0  0  0  0  0999 V2000
   57.7640   33.4000   44.3510 C   0  0  0  0  0  0  0  0  0  0  0  0
   58.4730   33.8930   45.5690 C   0  0  0  0  0  0  0  0  0  0  0  0
   58.8850   35.1330   45.6960 O   0  0  0  0  0  0  0  0  0  0  0  0
   59.5480   35.2860   46.8030 N   0  0  0  0  0  0  0  0  0  0  0  0
   59.5850   34.1030   47.4420 C   0  0  0  0  0  0  0  0  0  0  0  0
   60.3350   33.8740   48.6980 C   0  0  0  0  0  0  0  0  0  0  0  0
   59.6540   33.8750   49.9280 C   0  0  0  0  0  0  0  0  0  0  0  0
   60.3470   33.6830   51.1250 C   0  0  0  0  0  0  0  0  0  0  0  0
   61.7270   33.4850   51.1090 C   0  0  0  0  0  0  0  0  0  0  0  0
   62.4170   33.4710   49.8950 C   0  0  0  0  0  0  0  0  0  0  0  0
   61.7320   33.6620   48.6880 C   0  0  0  0  0  0  0  0  0  0  0  0
   62.7400   33.5440   47.0600 Br  0  0  0  0  0  0  0  0  0  0  0  0
   58.8570   33.1750   46.7010 C   0  0  0  0  0  0  0  0  0  0  0  0
   58.6980   31.7300   46.9950 C   0  0  0  0  0  0  0  0  0  0  0  0
   59.4080   31.2150   47.8980 O   0  0  0  0  0  0  0  0  0  0  0  0
   57.8060   30.8710   46.2670 N   0  0  0  0  0  0  0  0  0  0  0  0
   58.1250   29.7250   45.4640 C   0  0  0  0  0  0  0  0  0  0  0  0
   59.2480   28.9670   45.8230 C   0  0  0  0  0  0  0  0  0  0  0  0
   59.6230   27.8510   45.0720 C   0  0  0  0  0  0  0  0  0  0  0  0
   58.8610   27.4650   43.9670 C   0  0  0  0  0  0  0  0  0  0  0  0
   57.7140   28.1840   43.6260 C   0  0  0  0  0  0  0  0  0  0  0  0
   57.3290   29.3040   44.3730 C   0  0  0  0  0  0  0  0  0  0  0  0
   55.8000   30.0640   43.9740 Cl  0  0  0  0  0  0  0  0  0  0  0  0
   56.8953   32.7959   44.6517 H   0  0  0  0  0  0  0  0  0  0  0  0
   57.4244   34.2578   43.7520 H   0  0  0  0  0  0  0  0  0  0  0  0
   58.4499   32.7830   43.7520 H   0  0  0  0  0  0  0  0  0  0  0  0
   59.9800   36.1840   47.1160 H   0  0  0  0  0  0  0  0  0  0  0  0
   58.5649   34.0285   49.9476 H   0  0  0  0  0  0  0  0  0  0  0  0
   59.8036   33.6880   52.0814 H   0  0  0  0  0  0  0  0  0  0  0  0
   62.2725   33.3397   52.0531 H   0  0  0  0  0  0  0  0  0  0  0  0
   63.5050   33.3090   49.8864 H   0  0  0  0  0  0  0  0  0  0  0  0
   59.8396   29.2540   46.7048 H   0  0  0  0  0  0  0  0  0  0  0  0
   60.5184   27.2760   45.3507 H   0  0  0  0  0  0  0  0  0  0  0  0
   59.1644   26.5952   43.3659 H   0  0  0  0  0  0  0  0  0  0  0  0
   57.1081   27.8683   42.7639 H   0  0  0  0  0  0  0  0  0  0  0  0
  1  2  1  0
  2  3  1  0
  3  4  1  0
  4  5  2  0
  5  6  1  0
  6  7  2  0
  7  8  1  0
  8  9  2  0
  9 10  1  0
 10 11  2  0
 11 12  1  0
  5 13  1  0
 13 14  1  0
 14 15  2  0
 14 16  1  0
 16 17  1  0
 17 18  2  0
 18 19  1  0
 19 20  2  0
 20 21  1  0
 21 22  2  0
 22 23  1  0
 13  2  2  0
 22 17  1  0
 11  6  1  0
  1 24  1  0
  1 25  1  0
  1 26  1  0
  4 27  1  0
  7 28  1  0
  8 29  1  0
  9 30  1  0
 10 31  1  0
 18 32  1  0
 19 33  1  0
 20 34  1  0
 21 35  1  0
M  CHG  2   4   1  16  -1
M  END
>  <UniqueID>  (2) 
2

>  <SMILES>  (2) 
Cc1o[nH+]c(-c2ccccc2Br)c1C(=O)[N-]c1ccccc1Cl

>  <Energy>  (2) 
85.94753077545805

>  <Genealogy>  (2) 
Cc1o[nH+]c(-c2ccccc2Br)c1C(=O)[N-]c1ccccc1Cl (protonated)
Cc1o[nH+]c(-c2ccccc2Br)c1C(=O)[N-]c1ccccc1Cl (3D coordinates assigned)
Cc1o[nH+]c(-c2ccccc2Br)c1C(=O)[N-]c1ccccc1Cl (optimized conformer: 85.94753077545805 kcal/mol)

>  <smiles>  (2) 
Cc1onc(-c2ccccc2Br)c1C(=O)Nc1ccccc1Cl

>  <score_type>  (2) 
oracle

>  <origin>  (2) 
adg

>  <m_score__min__energy>  (2) 
-8.4100000000000001

>  <m_primary>  (2) 
energy

$$$$
2:0
     RDKit          3D

 34 35  0  0  0  0  0  0  0  0999 V2000
   57.0450   34.3160   44.8680 C   0  0  0  0  0  0  0  0  0  0  0  0
   57.5670   32.9250   45.1450 C   0  0  0  0  0  0  0  0  0  0  0  0
   57.4230   31.9860   44.1130 C   0  0  0  0  0  0  0  0  0  0  0  0
   57.8830   30.6870   44.2630 C   0  0  0  0  0  0  0  0  0  0  0  0
   58.5230   30.3020   45.4340 C   0  0  0  0  0  0  0  0  0  0  0  0
   58.6910   31.2040   46.5030 C   0  0  0  0  0  0  0  0  0  0  0  0
   59.4920   30.7480   47.7130 C   0  0  0  0  0  0  0  0  0  0  0  0
   59.4480   29.3680   47.8100 F   0  0  0  0  0  0  0  0  0  0  0  0
   60.8030   31.1620   47.6050 F   0  0  0  0  0  0  0  0  0  0  0  0
   58.9860   31.2630   48.8950 F   0  0  0  0  0  0  0  0  0  0  0  0
   58.1420   32.5260   46.3920 C   0  0  0  0  0  0  0  0  0  0  0  0
   58.1620   33.4450   47.5240 N   0  0  0  0  0  0  0  0  0  0  0  0
   59.1200   34.5530   47.3410 C   0  0  0  0  0  0  0  0  0  0  0  0
   60.5310   34.1570   47.7110 C   0  0  0  0  0  0  0  0  0  0  0  0
   61.4950   33.9770   46.7020 C   0  0  0  0  0  0  0  0  0  0  0  0
   62.8090   33.6380   47.0350 C   0  0  0  0  0  0  0  0  0  0  0  0
   63.7340   33.4690   46.0580 F   0  0  0  0  0  0  0  0  0  0  0  0
   63.1710   33.4730   48.3750 C   0  0  0  0  0  0  0  0  0  0  0  0
   62.2210   33.6510   49.3830 C   0  0  0  0  0  0  0  0  0  0  0  0
   60.9050   33.9940   49.0570 C   0  0  0  0  0  0  0  0  0  0  0  0
   60.0020   34.1810   50.0540 F   0  0  0  0  0  0  0  0  0  0  0  0
   56.8516   34.8314   45.8203 H   0  0  0  0  0  0  0  0  0  0  0  0
   57.7926   34.8801   44.2910 H   0  0  0  0  0  0  0  0  0  0  0  0
   56.1109   34.2489   44.2910 H   0  0  0  0  0  0  0  0  0  0  0  0
   56.9384   32.2845   43.1717 H   0  0  0  0  0  0  0  0  0  0  0  0
   57.7406   29.9582   43.4514 H   0  0  0  0  0  0  0  0  0  0  0  0
   58.9053   29.2749   45.5283 H   0  0  0  0  0  0  0  0  0  0  0  0
   58.4020   32.9190   48.3930 H   0  0  0  0  0  0  0  0  0  0  0  0
   57.2270   33.8590   47.7230 H   0  0  0  0  0  0  0  0  0  0  0  0
   59.1047   34.8635   46.2858 H   0  0  0  0  0  0  0  0  0  0  0  0
   58.8155   35.3750   48.0055 H   0  0  0  0  0  0  0  0  0  0  0  0
   61.2130   34.1037   45.6464 H   0  0  0  0  0  0  0  0  0  0  0  0
   64.2049   33.2027   48.6357 H   0  0  0  0  0  0  0  0  0  0  0  0
   62.5087   33.5210   50.4367 H   0  0  0  0  0  0  0  0  0  0  0  0
  1  2  1  0
  2  3  2  0
  3  4  1  0
  4  5  2  0
  5  6  1  0
  6  7  1  0
  7  8  1  0
  7  9  1  0
  7 10  1  0
  6 11  2  0
 11 12  1  0
 12 13  1  0
 13 14  1  0
 14 15  2  0
 15 16  1  0
 16 17  1  0
 16 18  2  0
 18 19  1  0
 19 20  2  0
 20 21  1  0
 11  2  1  0
 20 14  1  0
  1 22  1  0
  1 23  1  0
  1 24  1  0
  3 25  1  0
  4 26  1  0
  5 27  1  0
 12 28  1  0
 12 29  1  0
 13 30  1  0
 13 31  1  0
 15 32  1  0
 18 33  1  0
 19 34  1  0
M  CHG  1  12   1
M  END
>  <UniqueID>  (3) 
3

>  <SMILES>  (3) 
Cc1cccc(C(F)(F)F)c1[NH2+]Cc1cc(F)ccc1F

>  <Energy>  (3) 
44.07400306341768

>  <Genealogy>  (3) 
Cc1cccc(C(F)(F)F)c1[NH2+]Cc1cc(F)ccc1F (protonated)
Cc1cccc(C(F)(F)F)c1[NH2+]Cc1cc(F)ccc1F (3D coordinates assigned)
Cc1cccc(C(F)(F)F)c1[NH2+]Cc1cc(F)ccc1F (optimized conformer: 44.07400306341768 kcal/mol)

>  <smiles>  (3) 
Cc1cccc(C(F)(F)F)c1NCc1cc(F)ccc1F

>  <score_type>  (3) 
oracle

>  <origin>  (3) 
adg

>  <m_score__min__energy>  (3) 
-4.4800000000000004

>  <m_primary>  (3) 
energy

$$$$
3:0
     RDKit          3D

 44 47  0  0  0  0  0  0  0  0999 V2000
   60.8710   29.2960   45.5820 C   0  0  0  0  0  0  0  0  0  0  0  0
   59.4150   29.0920   45.2860 C   0  0  0  0  0  0  0  0  0  0  0  0
   58.8490   27.8000   45.1870 C   0  0  0  0  0  0  0  0  0  0  0  0
   57.4710   27.6370   44.8980 C   0  0  0  0  0  0  0  0  0  0  0  0
   56.6420   28.7580   44.7030 C   0  0  0  0  0  0  0  0  0  0  0  0
   57.2290   30.0140   44.8100 C   0  0  0  0  0  0  0  0  0  0  0  0
   56.6610   31.2250   44.6560 N   0  0  0  0  0  0  0  0  0  0  0  0
   57.6510   32.0920   44.8550 N   0  0  0  0  0  0  0  0  0  0  0  0
   57.4970   33.5370   44.7270 C   0  0  0  0  0  0  0  0  0  0  0  0
   57.7720   34.2100   46.0740 C   0  0  0  0  0  0  0  0  0  0  0  0
   59.2670   34.5390   46.3300 C   0  0  0  0  0  0  0  0  0  0  0  0
   60.1850   33.3850   46.4930 N   0  0  0  0  0  0  0  0  0  0  0  0
   59.9810   32.5820   47.7090 C   0  0  0  0  0  0  0  0  0  0  0  0
   61.1440   32.8610   48.6470 C   0  0  0  0  0  0  0  0  0  0  0  0
   62.2690   33.2490   47.6980 C   0  0  0  0  0  0  0  0  0  0  0  0
   63.4000   32.2420   47.5670 C   0  0  0  0  0  0  0  0  0  0  0  0
   64.3420   33.1320   48.1200 O   0  0  0  0  0  0  0  0  0  0  0  0
   63.3610   34.1310   48.2740 C   0  0  0  0  0  0  0  0  0  0  0  0
   61.6170   33.7060   46.3870 C   0  0  0  0  0  0  0  0  0  0  0  0
   58.8100   31.4910   45.1090 N   0  0  0  0  0  0  0  0  0  0  0  0
   58.5550   30.1750   45.0870 C   0  0  0  0  0  0  0  0  0  0  0  0
   61.0243   29.3175   46.6711 H   0  0  0  0  0  0  0  0  0  0  0  0
   61.4530   28.4706   45.1460 H   0  0  0  0  0  0  0  0  0  0  0  0
   61.2037   30.2495   45.1460 H   0  0  0  0  0  0  0  0  0  0  0  0
   59.4835   26.9138   45.3355 H   0  0  0  0  0  0  0  0  0  0  0  0
   57.0454   26.6253   44.8254 H   0  0  0  0  0  0  0  0  0  0  0  0
   55.5719   28.6448   44.4749 H   0  0  0  0  0  0  0  0  0  0  0  0
   58.2085   33.9150   43.9781 H   0  0  0  0  0  0  0  0  0  0  0  0
   56.4686   33.7656   44.4104 H   0  0  0  0  0  0  0  0  0  0  0  0
   57.2010   35.1494   46.1127 H   0  0  0  0  0  0  0  0  0  0  0  0
   57.4694   33.4935   46.8518 H   0  0  0  0  0  0  0  0  0  0  0  0
   59.6279   35.1342   45.4782 H   0  0  0  0  0  0  0  0  0  0  0  0
   59.2862   35.0624   47.2973 H   0  0  0  0  0  0  0  0  0  0  0  0
   59.0341   32.8663   48.1913 H   0  0  0  0  0  0  0  0  0  0  0  0
   59.9344   31.5114   47.4606 H   0  0  0  0  0  0  0  0  0  0  0  0
   60.9067   33.6853   49.3357 H   0  0  0  0  0  0  0  0  0  0  0  0
   61.3965   32.0040   49.2887 H   0  0  0  0  0  0  0  0  0  0  0  0
   63.2499   31.3329   48.1678 H   0  0  0  0  0  0  0  0  0  0  0  0
   63.6034   31.7932   46.5835 H   0  0  0  0  0  0  0  0  0  0  0  0
   63.1868   34.4163   49.3220 H   0  0  0  0  0  0  0  0  0  0  0  0
   63.5355   35.1215   47.8285 H   0  0  0  0  0  0  0  0  0  0  0  0
   61.7538   34.7892   46.2529 H   0  0  0  0  0  0  0  0  0  0  0  0
   62.0726   33.2022   45.5217 H   0  0  0  0  0  0  0  0  0  0  0  0
   59.7240   31.9690   45.2760 H   0  0  0  0  0  0  0  0  0  0  0  0
  1  2  1  0
  2  3  2  0
  3  4  1  0
  4  5  2  0
  5  6  1  0
  6  7  2  0
  7  8  1  0
  8  9  1  0
  9 10  1  0
 10 11  1  0
 11 12  1  0
 12 13  1  0
 13 14  1  0
 14 15  1  0
 15 16  1  0
 16 17  1  0
 17 18  1  0
 15 19  1  0
  8 20  1  0
 20 21  2  0
 21  2  1  0
 21  6  1  0
 19 12  1  0
 18 15  1  0
  1 22  1  0
  1 23  1  0
  1 24  1  0
  3 25  1  0
  4 26  1  0
  5 27  1  0
  9 28  1  0
  9 29  1  0
 10 30  1  0
 10 31  1  0
 11 32  1  0
 11 33  1  0
 13 34  1  0
 13 35  1  0
 14 36  1  0
 14 37  1  0
 16 38  1  0
 16 39  1  0
 18 40  1  0
 18 41  1  0
 19 42  1  0
 19 43  1  0
 20 44  1  0
M  CHG  1  20   1
M  END
>  <UniqueID>  (4) 
4

>  <SMILES>  (4) 
Cc1cccc2nn(CCCN3CCC4(COC4)C3)[nH+]c12

>  <Energy>  (4) 
162.4429242424155

>  <Genealogy>  (4) 
Cc1cccc2nn(CCCN3CCC4(COC4)C3)[nH+]c12 (protonated)
Cc1cccc2nn(CCCN3CCC4(COC4)C3)[nH+]c12 (3D coordinates assigned)
Cc1cccc2nn(CCCN3CCC4(COC4)C3)[nH+]c12 (nonaromatic ring conformer: 162.4429242424155 kcal/mol)

>  <smiles>  (4) 
Cc1cccc2nn(CCCN3CCC4(COC4)C3)nc12

>  <score_type>  (4) 
oracle

>  <origin>  (4) 
adg

>  <m_score__min__energy>  (4) 
-6.5499999999999998

>  <m_primary>  (4) 
energy

$$$$
4:0
     RDKit          3D

 47 51  0  0  0  0  0  0  0  0999 V2000
   66.4520   34.3430   53.8600 C   0  0  0  0  0  0  0  0  0  0  0  0
   66.8720   34.0220   52.4900 N   0  0  0  0  0  0  0  0  0  0  0  0
   68.2860   34.1730   52.1270 C   0  0  0  0  0  0  0  0  0  0  0  0
   65.9030   33.5620   51.5110 C   0  0  0  0  0  0  0  0  0  0  0  0
   66.1810   32.4520   50.6880 C   0  0  0  0  0  0  0  0  0  0  0  0
   65.2510   32.0060   49.7460 C   0  0  0  0  0  0  0  0  0  0  0  0
   64.0200   32.6580   49.6020 C   0  0  0  0  0  0  0  0  0  0  0  0
   63.1070   32.2200   48.6840 N   0  0  0  0  0  0  0  0  0  0  0  0
   61.9020   32.8420   48.5240 C   0  0  0  0  0  0  0  0  0  0  0  0
   61.5750   33.9640   49.3120 C   0  0  0  0  0  0  0  0  0  0  0  0
   62.4910   34.4140   50.2690 C   0  0  0  0  0  0  0  0  0  0  0  0
   63.7260   33.7710   50.4160 C   0  0  0  0  0  0  0  0  0  0  0  0
   64.6610   34.2150   51.3630 C   0  0  0  0  0  0  0  0  0  0  0  0
   60.2060   34.5960   49.2080 C   0  0  0  0  0  0  0  0  0  0  0  0
   59.6500   34.5210   47.7770 C   0  0  0  0  0  0  0  0  0  0  0  0
   59.8110   33.1450   47.1940 C   0  0  0  0  0  0  0  0  0  0  0  0
   58.9310   32.6890   46.2670 N   0  0  0  0  0  0  0  0  0  0  0  0
   59.1010   31.4770   45.6730 C   0  0  0  0  0  0  0  0  0  0  0  0
   58.1280   30.9780   44.6650 C   0  0  0  0  0  0  0  0  0  0  0  0
   57.9360   31.6890   43.4610 C   0  0  0  0  0  0  0  0  0  0  0  0
   57.0270   31.2360   42.5030 C   0  0  0  0  0  0  0  0  0  0  0  0
   56.2950   30.0690   42.7270 C   0  0  0  0  0  0  0  0  0  0  0  0
   56.4720   29.3530   43.9100 C   0  0  0  0  0  0  0  0  0  0  0  0
   57.3800   29.7970   44.8770 C   0  0  0  0  0  0  0  0  0  0  0  0
   57.5180   29.0670   46.0130 F   0  0  0  0  0  0  0  0  0  0  0  0
   60.1890   30.7280   46.0100 N   0  0  0  0  0  0  0  0  0  0  0  0
   61.0750   31.1610   46.9060 N   0  0  0  0  0  0  0  0  0  0  0  0
   60.9250   32.3630   47.5190 C   0  0  0  0  0  0  0  0  0  0  0  0
   67.1159   33.8356   54.5754 H   0  0  0  0  0  0  0  0  0  0  0  0
   66.5081   35.4305   54.0154 H   0  0  0  0  0  0  0  0  0  0  0  0
   65.4174   34.0033   54.0154 H   0  0  0  0  0  0  0  0  0  0  0  0
   68.8943   34.2380   53.0412 H   0  0  0  0  0  0  0  0  0  0  0  0
   68.6071   33.3040   51.5339 H   0  0  0  0  0  0  0  0  0  0  0  0
   68.4164   35.0902   51.5339 H   0  0  0  0  0  0  0  0  0  0  0  0
   67.1438   31.9297   50.7889 H   0  0  0  0  0  0  0  0  0  0  0  0
   65.4870   31.1375   49.1135 H   0  0  0  0  0  0  0  0  0  0  0  0
   63.3420   31.3950   48.0880 H   0  0  0  0  0  0  0  0  0  0  0  0
   62.2405   35.2744   50.9070 H   0  0  0  0  0  0  0  0  0  0  0  0
   64.4232   35.0818   51.9971 H   0  0  0  0  0  0  0  0  0  0  0  0
   59.5181   34.0688   49.8854 H   0  0  0  0  0  0  0  0  0  0  0  0
   60.2972   35.6568   49.4843 H   0  0  0  0  0  0  0  0  0  0  0  0
   58.5807   34.7784   47.7952 H   0  0  0  0  0  0  0  0  0  0  0  0
   60.2130   35.2288   47.1508 H   0  0  0  0  0  0  0  0  0  0  0  0
   58.5086   32.6097   43.2755 H   0  0  0  0  0  0  0  0  0  0  0  0
   56.8874   31.8004   41.5692 H   0  0  0  0  0  0  0  0  0  0  0  0
   55.5791   29.7145   41.9708 H   0  0  0  0  0  0  0  0  0  0  0  0
   55.8941   28.4333   44.0841 H   0  0  0  0  0  0  0  0  0  0  0  0
  1  2  1  0
  2  3  1  0
  2  4  1  0
  4  5  2  0
  5  6  1  0
  6  7  2  0
  7  8  1  0
  8  9  2  0
  9 10  1  0
 10 11  2  0
 11 12  1  0
 12 13  2  0
 10 14  1  0
 14 15  1  0
 15 16  1  0
 16 17  2  0
 17 18  1  0
 18 19  1  0
 19 20  2  0
 20 21  1  0
 21 22  2  0
 22 23  1  0
 23 24  2  0
 24 25  1  0
 18 26  2  0
 26 27  1  0
 27 28  2  0
 13  4  1  0
 28 16  1  0
 12  7  1  0
 24 19  1  0
 28  9  1  0
  1 29  1  0
  1 30  1  0
  1 31  1  0
  3 32  1  0
  3 33  1  0
  3 34  1  0
  5 35  1  0
  6 36  1  0
  8 37  1  0
 11 38  1  0
 13 39  1  0
 14 40  1  0
 14 41  1  0
 15 42  1  0
 15 43  1  0
 20 44  1  0
 21 45  1  0
 22 46  1  0
 23 47  1  0
M  CHG  1   8   1
M  END
>  <UniqueID>  (5) 
5

>  <SMILES>  (5) 
CN(C)c1ccc2[nH+]c3c(cc2c1)CCc1nc(-c2ccccc2F)nnc1-3

>  <Energy>  (5) 
65.36367324999496

>  <Genealogy>  (5) 
CN(C)c1ccc2[nH+]c3c(cc2c1)CCc1nc(-c2ccccc2F)nnc1-3 (protonated)
CN(C)c1ccc2[nH+]c3c(cc2c1)CCc1nc(-c2ccccc2F)nnc1-3 (3D coordinates assigned)
CN(C)c1ccc2[nH+]c3c(cc2c1)CCc1nc(-c2ccccc2F)nnc1-3 (nonaromatic ring conformer: 65.36367324999496 kcal/mol)

>  <smiles>  (5) 
CN(C)c1ccc2nc3c(cc2c1)CCc1nc(-c2ccccc2F)nnc1-3

>  <score_type>  (5) 
oracle

>  <origin>  (5) 
adg

>  <m_score__min__energy>  (5) 
-6.4199999999999999

>  <m_primary>  (5) 
energy

$$$$
5:0
     RDKit          3D

 43 46  0  0  1  0  0  0  0  0999 V2000
   58.7800   34.4290   45.7750 C   0  0  0  0  0  0  0  0  0  0  0  0
   59.1580   34.0510   44.5040 C   0  0  0  0  0  0  0  0  0  0  0  0
   58.4990   33.0220   43.8640 C   0  0  0  0  0  0  0  0  0  0  0  0
   57.4460   32.3290   44.4510 C   0  0  0  0  0  0  0  0  0  0  0  0
   56.7420   31.2140   43.7400 C   0  0  0  0  0  0  0  0  0  0  0  0
   56.1470   30.3340   44.6840 N   0  0  0  0  0  0  0  0  0  0  0  0
   56.7140   29.3830   45.3030 C   0  0  0  0  0  0  0  0  0  0  0  0
   57.8920   29.5890   45.8900 N   0  0  0  0  0  0  0  0  0  0  0  0
   58.4600   28.5600   46.5350 C   0  0  0  0  0  0  0  0  0  0  0  0
   59.6000   28.6860   47.1260 N   0  0  0  0  0  0  0  0  0  0  0  0
   60.0290   29.9930   47.4850 C   0  0  0  0  0  0  0  0  0  0  0  0
   61.1180   30.5530   46.8270 C   0  0  0  0  0  0  0  0  0  0  0  0
   61.5490   31.8130   47.1560 C   0  0  0  0  0  0  0  0  0  0  0  0
   60.8880   32.5280   48.1550 C   0  0  0  0  0  0  0  0  0  0  0  0
   59.8050   31.9490   48.7980 C   0  0  0  0  0  0  0  0  0  0  0  0
   59.3510   30.6870   48.4860 C   0  0  0  0  0  0  0  0  0  0  0  0
   57.8500   27.3180   46.5950 C   0  0  0  0  0  0  0  0  0  0  0  0
   58.4450   26.2660   47.2620 C   0  0  0  0  0  0  0  0  0  0  0  0
   57.7780   25.0590   47.2790 C   0  0  0  0  0  0  0  0  0  0  0  0
   56.5690   24.8660   46.6710 C   0  0  0  0  0  0  0  0  0  0  0  0
   55.9670   25.9090   46.0020 C   0  0  0  0  0  0  0  0  0  0  0  0
   56.6140   27.1260   45.9720 C   0  0  0  0  0  0  0  0  0  0  0  0
   56.0820   28.1880   45.3350 N   0  0  0  0  0  0  0  0  0  0  0  0
   57.0950   32.7320   45.7240 C   0  0  0  0  0  0  0  0  0  0  0  0
   57.7390   33.7610   46.3860 C   0  0  0  0  0  0  0  0  0  0  0  0
   59.2994   35.2489   46.2927 H   0  0  0  0  0  0  0  0  0  0  0  0
   59.9861   34.5707   43.9998 H   0  0  0  0  0  0  0  0  0  0  0  0
   58.8187   32.7387   42.8503 H   0  0  0  0  0  0  0  0  0  0  0  0
   55.9601   31.6331   43.0896 H   0  0  0  0  0  0  0  0  0  0  0  0
   57.4708   30.6548   43.1349 H   0  0  0  0  0  0  0  0  0  0  0  0
   58.3230   30.5150   45.8320 H   0  0  0  0  0  0  0  0  0  0  0  0
   61.6355   29.9842   46.0404 H   0  0  0  0  0  0  0  0  0  0  0  0
   62.4104   32.2568   46.6354 H   0  0  0  0  0  0  0  0  0  0  0  0
   61.2223   33.5394   48.4293 H   0  0  0  0  0  0  0  0  0  0  0  0
   59.2898   32.5181   49.5858 H   0  0  0  0  0  0  0  0  0  0  0  0
   58.4883   30.2444   49.0056 H   0  0  0  0  0  0  0  0  0  0  0  0
   59.4172   26.3862   47.7625 H   0  0  0  0  0  0  0  0  0  0  0  0
   58.2406   24.2118   47.8066 H   0  0  0  0  0  0  0  0  0  0  0  0
   56.0790   23.8822   46.7157 H   0  0  0  0  0  0  0  0  0  0  0  0
   54.9952   25.7743   45.5046 H   0  0  0  0  0  0  0  0  0  0  0  0
   55.1610   28.0390   44.8730 H   0  0  0  0  0  0  0  0  0  0  0  0
   56.2691   32.2131   46.2325 H   0  0  0  0  0  0  0  0  0  0  0  0
   57.4214   34.0469   47.3996 H   0  0  0  0  0  0  0  0  0  0  0  0
  1  2  2  0
  2  3  1  0
  3  4  2  0
  4  5  1  0
  5  6  1  0
  6  7  2  0
  7  8  1  0
  8  9  1  0
  9 10  2  0
 10 11  1  0
 11 12  2  0
 12 13  1  0
 13 14  2  0
 14 15  1  0
 15 16  2  0
  9 17  1  0
 17 18  2  0
 18 19  1  0
 19 20  2  0
 20 21  1  0
 21 22  2  0
 22 23  1  0
  4 24  1  0
 24 25  2  0
 25  1  1  0
 23  7  1  0
 16 11  1  0
 22 17  1  0
  1 26  1  0
  2 27  1  0
  3 28  1  0
  5 29  1  0
  5 30  1  0
  8 31  1  0
 12 32  1  0
 13 33  1  0
 14 34  1  0
 15 35  1  0
 16 36  1  0
 18 37  1  0
 19 38  1  0
 20 39  1  0
 21 40  1  0
 23 41  1  0
 24 42  1  0
 25 43  1  0
M  END
>  <smiles>  (6) 
c1ccc(CN=c2[nH]c(=Nc3ccccc3)c3ccccc3[nH]2)cc1

>  <score_type>  (6) 
oracle

>  <origin>  (6) 
adg

>  <m_score__min__energy>  (6) 
-8.9399999999999995

>  <m_primary>  (6) 
energy

$$$$
6:0
     RDKit          3D

 22 23  0  0  0  0  0  0  0  0999 V2000
   56.2720   29.4790   42.5720 C   0  0  0  0  0  0  0  0  0  0  0  0
   56.8920   30.7480   42.9240 N   0  0  0  0  0  0  0  0  0  0  0  0
   57.4200   31.6050   42.0630 N   0  0  0  0  0  0  0  0  0  0  0  0
   57.9810   32.5940   42.7470 N   0  0  0  0  0  0  0  0  0  0  0  0
   57.8370   32.3910   44.0500 N   0  0  0  0  0  0  0  0  0  0  0  0
   58.3380   33.2480   45.0950 C   0  0  0  0  0  0  0  0  0  0  0  0
   59.1540   34.3530   44.7900 C   0  0  0  0  0  0  0  0  0  0  0  0
   59.6400   35.1750   45.8110 C   0  0  0  0  0  0  0  0  0  0  0  0
   59.3190   34.9040   47.1440 C   0  0  0  0  0  0  0  0  0  0  0  0
   58.5130   33.8070   47.4570 C   0  0  0  0  0  0  0  0  0  0  0  0
   58.0260   32.9810   46.4400 C   0  0  0  0  0  0  0  0  0  0  0  0
   57.1660   31.2270   44.1510 C   0  0  0  0  0  0  0  0  0  0  0  0
   56.8760   30.6440   45.2300 O   0  0  0  0  0  0  0  0  0  0  0  0
   56.0057   28.9340   43.4896 H   0  0  0  0  0  0  0  0  0  0  0  0
   55.3639   29.6663   41.9802 H   0  0  0  0  0  0  0  0  0  0  0  0
   56.9778   28.8777   41.9802 H   0  0  0  0  0  0  0  0  0  0  0  0
   58.4560   33.4150   42.3090 H   0  0  0  0  0  0  0  0  0  0  0  0
   59.4108   34.5712   43.7429 H   0  0  0  0  0  0  0  0  0  0  0  0
   60.2768   36.0374   45.5646 H   0  0  0  0  0  0  0  0  0  0  0  0
   59.7005   35.5537   47.9455 H   0  0  0  0  0  0  0  0  0  0  0  0
   58.2610   33.5927   48.5061 H   0  0  0  0  0  0  0  0  0  0  0  0
   57.3947   32.1166   46.6933 H   0  0  0  0  0  0  0  0  0  0  0  0
  1  2  1  0
  2  3  1  0
  3  4  2  0
  4  5  1  0
  5  6  1  0
  6  7  2  0
  7  8  1  0
  8  9  2  0
  9 10  1  0
 10 11  2  0
  5 12  1  0
 12 13  2  0
 12  2  1  0
 11  6  1  0
  1 14  1  0
  1 15  1  0
  1 16  1  0
  4 17  1  0
  7 18  1  0
  8 19  1  0
  9 20  1  0
 10 21  1  0
 11 22  1  0
M  CHG  1   4   1
M  END
>  <UniqueID>  (7) 
6

>  <SMILES>  (7) 
Cn1n[nH+]n(-c2ccccc2)c1=O

>  <Energy>  (7) 
70.16633617751698

>  <Genealogy>  (7) 
Cn1n[nH+]n(-c2ccccc2)c1=O (protonated)
Cn1n[nH+]n(-c2ccccc2)c1=O (3D coordinates assigned)
Cn1n[nH+]n(-c2ccccc2)c1=O (optimized conformer: 70.16633617751698 kcal/mol)

>  <smiles>  (7) 
Cn1nnn(-c2ccccc2)c1=O

>  <score_type>  (7) 
oracle

>  <origin>  (7) 
adg

>  <m_score__min__energy>  (7) 
-4.9800000000000004

>  <m_primary>  (7) 
energy

$$$$
7:0
     RDKit          3D

 29 30  0  0  0  0  0  0  0  0999 V2000
   57.3820   24.7990   44.3380 C   0  0  0  0  0  0  0  0  0  0  0  0
   56.9160   24.9370   45.7830 C   0  0  0  0  0  0  0  0  0  0  0  0
   56.3880   26.3130   46.0340 C   0  0  0  0  0  0  0  0  0  0  0  0
   55.1440   26.5180   46.0090 O   0  0  0  0  0  0  0  0  0  0  0  0
   57.3050   27.3850   46.2880 N   0  0  0  0  0  0  0  0  0  0  0  0
   57.4610   28.5800   45.5070 C   0  0  0  0  0  0  0  0  0  0  0  0
   57.2490   28.5940   44.1180 C   0  0  0  0  0  0  0  0  0  0  0  0
   57.3870   29.7810   43.3930 C   0  0  0  0  0  0  0  0  0  0  0  0
   57.7260   30.9810   44.0470 C   0  0  0  0  0  0  0  0  0  0  0  0
   57.8790   32.2080   43.3640 C   0  0  0  0  0  0  0  0  0  0  0  0
   57.6990   32.3210   41.8720 C   0  0  0  0  0  0  0  0  0  0  0  0
   58.2090   33.3530   44.1040 C   0  0  0  0  0  0  0  0  0  0  0  0
   58.3750   33.2520   45.4870 C   0  0  0  0  0  0  0  0  0  0  0  0
   58.6690   34.2740   46.1600 O   0  0  0  0  0  0  0  0  0  0  0  0
   58.2230   32.0850   46.1000 O   0  0  0  0  0  0  0  0  0  0  0  0
   57.9130   30.9670   45.4500 C   0  0  0  0  0  0  0  0  0  0  0  0
   57.7710   29.7740   46.1660 C   0  0  0  0  0  0  0  0  0  0  0  0
   58.4366   24.4867   44.3211 H   0  0  0  0  0  0  0  0  0  0  0  0
   56.7678   24.0442   43.8252 H   0  0  0  0  0  0  0  0  0  0  0  0
   57.2778   25.7665   43.8252 H   0  0  0  0  0  0  0  0  0  0  0  0
   56.1205   24.2028   45.9784 H   0  0  0  0  0  0  0  0  0  0  0  0
   57.7710   24.7568   46.4512 H   0  0  0  0  0  0  0  0  0  0  0  0
   56.9727   27.6649   43.5979 H   0  0  0  0  0  0  0  0  0  0  0  0
   57.2297   29.7777   42.3043 H   0  0  0  0  0  0  0  0  0  0  0  0
   56.7856   32.8944   41.6553 H   0  0  0  0  0  0  0  0  0  0  0  0
   58.5675   32.8362   41.4359 H   0  0  0  0  0  0  0  0  0  0  0  0
   57.6125   31.3149   41.4359 H   0  0  0  0  0  0  0  0  0  0  0  0
   58.3359   34.3221   43.5994 H   0  0  0  0  0  0  0  0  0  0  0  0
   57.9044   29.7748   47.2579 H   0  0  0  0  0  0  0  0  0  0  0  0
  1  2  1  0
  2  3  1  0
  3  4  2  0
  3  5  1  0
  5  6  1  0
  6  7  2  0
  7  8  1  0
  8  9  2  0
  9 10  1  0
 10 11  1  0
 10 12  2  0
 12 13  1  0
 13 14  2  0
 13 15  1  0
 15 16  1  0
 16 17  2  0
 17  6  1  0
 16  9  1  0
  1 18  1  0
  1 19  1  0
  1 20  1  0
  2 21  1  0
  2 22  1  0
  7 23  1  0
  8 24  1  0
 11 25  1  0
 11 26  1  0
 11 27  1  0
 12 28  1  0
 17 29  1  0
M  CHG  1   5  -1
M  END
>  <UniqueID>  (8) 
7

>  <SMILES>  (8) 
CCC(=O)[N-]c1ccc2c(C)cc(=O)oc2c1

>  <Energy>  (8) 
33.85633304285389

>  <Genealogy>  (8) 
CCC(=O)[N-]c1ccc2c(C)cc(=O)oc2c1 (protonated)
CCC(=O)[N-]c1ccc2c(C)cc(=O)oc2c1 (3D coordinates assigned)
CCC(=O)[N-]c1ccc2c(C)cc(=O)oc2c1 (optimized conformer: 33.85633304285389 kcal/mol)

>  <smiles>  (8) 
CCC(=O)Nc1ccc2c(C)cc(=O)oc2c1

>  <score_type>  (8) 
oracle

>  <origin>  (8) 
adg

>  <m_score__min__energy>  (8) 
-7.8899999999999997

>  <m_primary>  (8) 
energy

$$$$
8:0
     RDKit          3D

 39 41  0  0  0  0  0  0  0  0999 V2000
   59.5319   32.2615   49.6983 H   0  0  0  0  0  0  0  0  0  0  0  0
   59.7600   32.7510   48.7400 C   0  0  0  0  0  0  0  0  0  0  0  0
   58.7690   33.3710   48.0820 C   0  0  0  0  0  0  0  0  0  0  0  0
   58.1405   34.0872   48.6316 H   0  0  0  0  0  0  0  0  0  0  0  0
   58.4830   33.1330   46.6440 C   0  0  0  0  0  0  0  0  0  0  0  0
   57.7930   31.9690   46.2570 C   0  0  0  0  0  0  0  0  0  0  0  0
   57.4458   31.2575   47.0207 H   0  0  0  0  0  0  0  0  0  0  0  0
   57.5480   31.7150   44.9060 C   0  0  0  0  0  0  0  0  0  0  0  0
   56.8590   30.5600   44.5030 C   0  0  0  0  0  0  0  0  0  0  0  0
   56.5003   29.8435   45.2566 H   0  0  0  0  0  0  0  0  0  0  0  0
   56.6280   30.3190   43.1450 C   0  0  0  0  0  0  0  0  0  0  0  0
   56.0864   29.4140   42.8324 H   0  0  0  0  0  0  0  0  0  0  0  0
   57.0840   31.2260   42.1840 C   0  0  0  0  0  0  0  0  0  0  0  0
   56.9010   31.0327   41.1167 H   0  0  0  0  0  0  0  0  0  0  0  0
   57.7720   32.3780   42.5760 C   0  0  0  0  0  0  0  0  0  0  0  0
   58.1287   33.0900   41.8172 H   0  0  0  0  0  0  0  0  0  0  0  0
   58.0080   32.6270   43.9370 C   0  0  0  0  0  0  0  0  0  0  0  0
   58.7010   33.7710   44.3520 C   0  0  0  0  0  0  0  0  0  0  0  0
   59.0731   34.4821   43.5997 H   0  0  0  0  0  0  0  0  0  0  0  0
   58.9220   34.0170   45.6800 N   0  0  0  0  0  0  0  0  0  0  0  0
   59.6490   35.2420   46.0520 C   0  0  0  0  0  0  0  0  0  0  0  0
   59.6963   35.3217   47.1481 H   0  0  0  0  0  0  0  0  0  0  0  0
   60.6693   35.2014   45.6429 H   0  0  0  0  0  0  0  0  0  0  0  0
   59.1246   36.1181   45.6429 H   0  0  0  0  0  0  0  0  0  0  0  0
   61.1470   32.6990   48.2290 C   0  0  0  0  0  0  0  0  0  0  0  0
   61.9380   33.8540   48.3410 C   0  0  0  0  0  0  0  0  0  0  0  0
   61.5150   34.7619   48.7958 H   0  0  0  0  0  0  0  0  0  0  0  0
   63.2550   33.8610   47.8810 C   0  0  0  0  0  0  0  0  0  0  0  0
   63.8686   34.7681   47.9846 H   0  0  0  0  0  0  0  0  0  0  0  0
   63.7940   32.7190   47.2900 C   0  0  0  0  0  0  0  0  0  0  0  0
   64.8361   32.7235   46.9378 H   0  0  0  0  0  0  0  0  0  0  0  0
   63.0150   31.5700   47.1440 C   0  0  0  0  0  0  0  0  0  0  0  0
   63.4462   30.6739   46.6739 H   0  0  0  0  0  0  0  0  0  0  0  0
   61.6790   31.5500   47.5950 C   0  0  0  0  0  0  0  0  0  0  0  0
   60.8570   30.4270   47.4030 O   0  0  0  0  0  0  0  0  0  0  0  0
   60.6380   29.7850   46.1520 C   0  0  0  0  0  0  0  0  0  0  0  0
   60.2872   28.7567   46.3240 H   0  0  0  0  0  0  0  0  0  0  0  0
   59.8787   30.3410   45.5825 H   0  0  0  0  0  0  0  0  0  0  0  0
   61.5788   29.7610   45.5825 H   0  0  0  0  0  0  0  0  0  0  0  0
  1  2  1  0
  2  3  2  0
  3  4  1  0
  3  5  1  0
  5  6  2  0
  6  7  1  0
  6  8  1  0
  8  9  2  0
  9 10  1  0
  9 11  1  0
 11 12  1  0
 11 13  2  0
 13 14  1  0
 13 15  1  0
 15 16  1  0
 15 17  2  0
 17 18  1  0
 18 19  1  0
 18 20  2  0
 20 21  1  0
 21 22  1  0
 21 23  1  0
 21 24  1  0
  2 25  1  0
 25 26  2  0
 26 27  1  0
 26 28  1  0
 28 29  1  0
 28 30  2  0
 30 31  1  0
 30 32  1  0
 32 33  1  0
 32 34  2  0
 34 35  1  0
 35 36  1  0
 36 37  1  0
 36 38  1  0
 36 39  1  0
 20  5  1  0
 34 25  1  0
 17  8  1  0
M  CHG  1  20   1
M  END
>  <UniqueID>  (9) 
8

>  <SMILES>  (9) 
COc1ccccc1/C=C/c1cc2ccccc2c[n+]1C

>  <Energy>  (9) 
54.47852216419306

>  <Genealogy>  (9) 
COc1ccccc1/C=C/c1cc2ccccc2c[n+]1C (cis-trans isomerization)
COc1ccccc1/C=C/c1cc2ccccc2c[n+]1C (3D coordinates assigned)
COc1ccccc1/C=C/c1cc2ccccc2c[n+]1C (optimized conformer: 54.47852216419306 kcal/mol)

>  <smiles>  (9) 
COc1ccccc1C=Cc1cc2ccccc2c[n+]1C

>  <score_type>  (9) 
oracle

>  <origin>  (9) 
adg

>  <m_score__min__energy>  (9) 
-6.9000000000000004

>  <m_primary>  (9) 
energy

$$$$
9:0
     RDKit          3D

 39 41  0  0  0  0  0  0  0  0999 V2000
   57.2930   32.3440   40.6140 C   0  0  0  0  0  0  0  0  0  0  0  0
   57.1200   31.6090   41.9380 C   0  0  0  0  0  0  0  0  0  0  0  0
   57.8470   32.2940   43.0060 N   0  0  0  0  0  0  0  0  0  0  0  0
   57.5630   32.0690   44.3980 C   0  0  0  0  0  0  0  0  0  0  0  0
   56.5910   31.3340   44.7240 O   0  0  0  0  0  0  0  0  0  0  0  0
   58.3830   32.6990   45.4610 C   0  0  0  0  0  0  0  0  0  0  0  0
   58.9220   31.9150   46.4930 C   0  0  0  0  0  0  0  0  0  0  0  0
   59.6970   32.5020   47.4940 C   0  0  0  0  0  0  0  0  0  0  0  0
   59.9340   33.8850   47.4610 C   0  0  0  0  0  0  0  0  0  0  0  0
   60.7190   34.5250   48.4310 O   0  0  0  0  0  0  0  0  0  0  0  0
   61.9770   34.0910   48.8770 C   0  0  0  0  0  0  0  0  0  0  0  0
   62.9130   33.5050   48.0080 C   0  0  0  0  0  0  0  0  0  0  0  0
   64.1490   33.0710   48.4920 C   0  0  0  0  0  0  0  0  0  0  0  0
   64.4700   33.2020   49.8570 C   0  0  0  0  0  0  0  0  0  0  0  0
   65.7470   32.7550   50.3560 N   0  0  0  0  0  0  0  0  0  0  0  0
   66.8710   33.4820   50.4910 C   0  0  0  0  0  0  0  0  0  0  0  0
   67.8520   32.6650   51.0050 C   0  0  0  0  0  0  0  0  0  0  0  0
   67.3560   31.4270   51.1930 N   0  0  0  0  0  0  0  0  0  0  0  0
   66.0710   31.5170   50.7890 C   0  0  0  0  0  0  0  0  0  0  0  0
   63.5190   33.7720   50.7230 C   0  0  0  0  0  0  0  0  0  0  0  0
   62.2830   34.2050   50.2360 C   0  0  0  0  0  0  0  0  0  0  0  0
   59.4310   34.6220   46.4360 N   0  0  0  0  0  0  0  0  0  0  0  0
   58.6710   34.0740   45.4520 C   0  0  0  0  0  0  0  0  0  0  0  0
   57.5410   33.3977   40.8093 H   0  0  0  0  0  0  0  0  0  0  0  0
   58.1057   31.8766   40.0386 H   0  0  0  0  0  0  0  0  0  0  0  0
   56.3572   32.2881   40.0386 H   0  0  0  0  0  0  0  0  0  0  0  0
   56.0509   31.5726   42.1942 H   0  0  0  0  0  0  0  0  0  0  0  0
   57.5212   30.5902   41.8330 H   0  0  0  0  0  0  0  0  0  0  0  0
   58.5860   32.9760   42.7260 H   0  0  0  0  0  0  0  0  0  0  0  0
   58.7324   30.8316   46.5128 H   0  0  0  0  0  0  0  0  0  0  0  0
   60.1186   31.8861   48.3020 H   0  0  0  0  0  0  0  0  0  0  0  0
   62.6710   33.3876   46.9414 H   0  0  0  0  0  0  0  0  0  0  0  0
   64.8782   32.6229   47.8010 H   0  0  0  0  0  0  0  0  0  0  0  0
   66.9860   34.5456   50.2348 H   0  0  0  0  0  0  0  0  0  0  0  0
   68.8834   32.9756   51.2281 H   0  0  0  0  0  0  0  0  0  0  0  0
   65.3646   30.6740   50.8101 H   0  0  0  0  0  0  0  0  0  0  0  0
   63.7506   33.8777   51.7931 H   0  0  0  0  0  0  0  0  0  0  0  0
   61.5454   34.6388   50.9272 H   0  0  0  0  0  0  0  0  0  0  0  0
   58.2794   34.7100   44.6445 H   0  0  0  0  0  0  0  0  0  0  0  0
  1  2  1  0
  2  3  1  0
  3  4  1  0
  4  5  2  0
  4  6  1  0
  6  7  2  0
  7  8  1  0
  8  9  2  0
  9 10  1  0
 10 11  1  0
 11 12  2  0
 12 13  1  0
 13 14  2  0
 14 15  1  0
 15 16  1  0
 16 17  2  0
 17 18  1  0
 18 19  2  0
 14 20  1  0
 20 21  2  0
  9 22  1  0
 22 23  2  0
 23  6  1  0
 21 11  1  0
 19 15  1  0
  1 24  1  0
  1 25  1  0
  1 26  1  0
  2 27  1  0
  2 28  1  0
  3 29  1  0
  7 30  1  0
  8 31  1  0
 12 32  1  0
 13 33  1  0
 16 34  1  0
 17 35  1  0
 19 36  1  0
 20 37  1  0
 21 38  1  0
 23 39  1  0
M  END
>  <UniqueID>  (10) 
9

>  <SMILES>  (10) 
CCNC(=O)c1ccc(Oc2ccc(-n3ccnc3)cc2)nc1

>  <Energy>  (10) 
79.2471625846995

>  <Genealogy>  (10) 
CCNC(=O)c1ccc(Oc2ccc(-n3ccnc3)cc2)nc1 (3D coordinates assigned)
CCNC(=O)c1ccc(Oc2ccc(-n3ccnc3)cc2)nc1 (optimized conformer: 79.2471625846995 kcal/mol)

>  <smiles>  (10) 
CCNC(=O)c1ccc(Oc2ccc(-n3ccnc3)cc2)nc1

>  <score_type>  (10) 
oracle

>  <origin>  (10) 
adg

>  <m_score__min__energy>  (10) 
-6.7999999999999998

>  <m_primary>  (10) 
energy

$$$$
10:0
     RDKit          3D

 39 41  0  0  0  0  0  0  0  0999 V2000
   59.7186   25.6122   46.5253 H   0  0  0  0  0  0  0  0  0  0  0  0
   59.0420   26.3950   46.1520 C   0  0  0  0  0  0  0  0  0  0  0  0
   59.5640   27.5300   45.5280 C   0  0  0  0  0  0  0  0  0  0  0  0
   60.6523   27.6419   45.4140 H   0  0  0  0  0  0  0  0  0  0  0  0
   58.7070   28.5240   45.0480 C   0  0  0  0  0  0  0  0  0  0  0  0
   59.1247   29.4196   44.5649 H   0  0  0  0  0  0  0  0  0  0  0  0
   57.3140   28.3860   45.1790 C   0  0  0  0  0  0  0  0  0  0  0  0
   56.4090   29.4490   44.6810 C   0  0  0  0  0  0  0  0  0  0  0  0
   55.1670   29.3380   44.8720 O   0  0  0  0  0  0  0  0  0  0  0  0
   56.9160   30.6060   43.9890 N   0  0  0  0  0  0  0  0  0  0  0  0
   56.8250   30.7750   42.6380 C   0  0  0  0  0  0  0  0  0  0  0  0
   56.3291   30.0459   41.9804 H   0  0  0  0  0  0  0  0  0  0  0  0
   57.4090   31.9420   42.1590 C   0  0  0  0  0  0  0  0  0  0  0  0
   57.3810   32.4140   40.7440 C   0  0  0  0  0  0  0  0  0  0  0  0
   57.3159   33.5119   40.7249 H   0  0  0  0  0  0  0  0  0  0  0  0
   58.2998   32.0922   40.2319 H   0  0  0  0  0  0  0  0  0  0  0  0
   56.5067   31.9859   40.2319 H   0  0  0  0  0  0  0  0  0  0  0  0
   58.0380   32.8040   43.4590 S   0  0  0  0  0  0  0  0  0  0  0  0
   57.5810   31.6300   44.5870 C   0  0  0  0  0  0  0  0  0  0  0  0
   57.7430   31.7110   45.8770 N   0  0  0  0  0  0  0  0  0  0  0  0
   58.9440   32.0920   46.5670 C   0  0  0  0  0  0  0  0  0  0  0  0
   59.1730   33.4470   46.8280 C   0  0  0  0  0  0  0  0  0  0  0  0
   58.4529   34.2005   46.4762 H   0  0  0  0  0  0  0  0  0  0  0  0
   60.3110   33.8500   47.5330 C   0  0  0  0  0  0  0  0  0  0  0  0
   60.4891   34.9201   47.7153 H   0  0  0  0  0  0  0  0  0  0  0  0
   61.2260   32.9030   48.0090 C   0  0  0  0  0  0  0  0  0  0  0  0
   62.3530   33.3640   48.7070 O   0  0  0  0  0  0  0  0  0  0  0  0
   63.7040   33.2290   48.2700 C   0  0  0  0  0  0  0  0  0  0  0  0
   63.9560   34.1760   47.2950 F   0  0  0  0  0  0  0  0  0  0  0  0
   63.9090   31.9710   47.7340 F   0  0  0  0  0  0  0  0  0  0  0  0
   64.5710   33.4390   49.3280 F   0  0  0  0  0  0  0  0  0  0  0  0
   60.9790   31.5350   47.7770 C   0  0  0  0  0  0  0  0  0  0  0  0
   61.6842   30.7792   48.1531 H   0  0  0  0  0  0  0  0  0  0  0  0
   59.8400   31.1350   47.0700 C   0  0  0  0  0  0  0  0  0  0  0  0
   59.6452   30.0647   46.9072 H   0  0  0  0  0  0  0  0  0  0  0  0
   56.7990   27.2450   45.8230 C   0  0  0  0  0  0  0  0  0  0  0  0
   55.7121   27.1328   45.9499 H   0  0  0  0  0  0  0  0  0  0  0  0
   57.6600   26.2540   46.3020 C   0  0  0  0  0  0  0  0  0  0  0  0
   57.2493   25.3620   46.7976 H   0  0  0  0  0  0  0  0  0  0  0  0
  1  2  1  0
  2  3  2  0
  3  4  1  0
  3  5  1  0
  5  6  1  0
  5  7  2  0
  7  8  1  0
  8  9  2  0
  8 10  1  0
 10 11  1  0
 11 12  1  0
 11 13  2  0
 13 14  1  0
 14 15  1  0
 14 16  1  0
 14 17  1  0
 13 18  1  0
 18 19  1  0
 19 20  2  0
 20 21  1  0
 21 22  2  0
 22 23  1  0
 22 24  1  0
 24 25  1  0
 24 26  2  0
 26 27  1  0
 27 28  1  0
 28 29  1  0
 28 30  1  0
 28 31  1  0
 26 32  1  0
 32 33  1  0
 32 34  2  0
 34 35  1  0
  7 36  1  0
 36 37  1  0
 36 38  2  0
 38 39  1  0
 38  2  1  0
 19 10  1  0
 34 21  1  0
M  END
>  <UniqueID>  (11) 
10

>  <SMILES>  (11) 
Cc1cn(C(=O)c2ccccc2)/c(=N/c2ccc(OC(F)(F)F)cc2)s1

>  <Energy>  (11) 
84.44438075379131

>  <Genealogy>  (11) 
Cc1cn(C(=O)c2ccccc2)/c(=N/c2ccc(OC(F)(F)F)cc2)s1 (cis-trans isomerization)
Cc1cn(C(=O)c2ccccc2)/c(=N/c2ccc(OC(F)(F)F)cc2)s1 (3D coordinates assigned)
Cc1cn(C(=O)c2ccccc2)/c(=N/c2ccc(OC(F)(F)F)cc2)s1 (optimized conformer: 84.44438075379131 kcal/mol)

>  <smiles>  (11) 
Cc1cn(C(=O)c2ccccc2)c(=Nc2ccc(OC(F)(F)F)cc2)s1

>  <score_type>  (11) 
oracle

>  <origin>  (11) 
adg

>  <m_score__min__energy>  (11) 
-8.1999999999999993

>  <m_primary>  (11) 
energy

$$$$
11:0
     RDKit          3D

 40 43  0  0  0  0  0  0  0  0999 V2000
   56.6690   20.5510   42.9510 C   0  0  0  0  0  0  0  0  0  0  0  0
   56.3560   21.7990   43.7240 C   0  0  0  0  0  0  0  0  0  0  0  0
   56.5620   23.0580   43.1450 C   0  0  0  0  0  0  0  0  0  0  0  0
   56.2350   24.2220   43.8490 C   0  0  0  0  0  0  0  0  0  0  0  0
   55.6850   24.1440   45.1410 C   0  0  0  0  0  0  0  0  0  0  0  0
   55.3370   25.3770   45.8870 C   0  0  0  0  0  0  0  0  0  0  0  0
   54.2470   25.9650   45.6550 O   0  0  0  0  0  0  0  0  0  0  0  0
   56.2660   25.9290   46.8310 N   0  0  0  0  0  0  0  0  0  0  0  0
   57.4820   26.6270   46.5270 C   0  0  0  0  0  0  0  0  0  0  0  0
   58.6970   25.9530   46.3140 C   0  0  0  0  0  0  0  0  0  0  0  0
   59.8530   26.6700   45.9980 C   0  0  0  0  0  0  0  0  0  0  0  0
   59.8060   28.0610   45.8760 C   0  0  0  0  0  0  0  0  0  0  0  0
   58.5960   28.7480   46.0610 C   0  0  0  0  0  0  0  0  0  0  0  0
   58.5360   30.2170   45.9210 C   0  0  0  0  0  0  0  0  0  0  0  0
   59.5610   31.0470   46.2580 N   0  0  0  0  0  0  0  0  0  0  0  0
   59.0540   32.2560   45.9640 C   0  0  0  0  0  0  0  0  0  0  0  0
   59.6660   33.4980   46.1060 C   0  0  0  0  0  0  0  0  0  0  0  0
   58.9270   34.6360   45.7260 C   0  0  0  0  0  0  0  0  0  0  0  0
   57.6120   34.5010   45.2230 C   0  0  0  0  0  0  0  0  0  0  0  0
   57.0260   33.2260   45.0940 C   0  0  0  0  0  0  0  0  0  0  0  0
   57.7890   32.1270   45.4780 C   0  0  0  0  0  0  0  0  0  0  0  0
   57.4760   30.8620   45.4550 O   0  0  0  0  0  0  0  0  0  0  0  0
   57.4360   28.0200   46.3780 C   0  0  0  0  0  0  0  0  0  0  0  0
   55.4620   22.8760   45.7090 C   0  0  0  0  0  0  0  0  0  0  0  0
   55.7890   21.7150   45.0030 C   0  0  0  0  0  0  0  0  0  0  0  0
   56.8754   19.7281   43.6512 H   0  0  0  0  0  0  0  0  0  0  0  0
   55.8093   20.2867   42.3177 H   0  0  0  0  0  0  0  0  0  0  0  0
   57.5517   20.7236   42.3177 H   0  0  0  0  0  0  0  0  0  0  0  0
   56.9831   23.1317   42.1315 H   0  0  0  0  0  0  0  0  0  0  0  0
   56.4094   25.2056   43.3885 H   0  0  0  0  0  0  0  0  0  0  0  0
   58.7374   24.8568   46.3965 H   0  0  0  0  0  0  0  0  0  0  0  0
   60.8035   26.1379   45.8447 H   0  0  0  0  0  0  0  0  0  0  0  0
   60.7216   28.6205   45.6338 H   0  0  0  0  0  0  0  0  0  0  0  0
   60.6889   33.5879   46.5004 H   0  0  0  0  0  0  0  0  0  0  0  0
   59.3757   35.6358   45.8212 H   0  0  0  0  0  0  0  0  0  0  0  0
   57.0436   35.3963   44.9309 H   0  0  0  0  0  0  0  0  0  0  0  0
   56.0045   33.1039   44.7047 H   0  0  0  0  0  0  0  0  0  0  0  0
   56.4811   28.5497   46.5107 H   0  0  0  0  0  0  0  0  0  0  0  0
   55.0270   22.7980   46.7163 H   0  0  0  0  0  0  0  0  0  0  0  0
   55.6003   20.7295   45.4538 H   0  0  0  0  0  0  0  0  0  0  0  0
  1  2  1  0
  2  3  2  0
  3  4  1  0
  4  5  2  0
  5  6  1  0
  6  7  2  0
  6  8  1  0
  8  9  1  0
  9 10  2  0
 10 11  1  0
 11 12  2  0
 12 13  1  0
 13 14  1  0
 14 15  2  0
 15 16  1  0
 16 17  2  0
 17 18  1  0
 18 19  2  0
 19 20  1  0
 20 21  2  0
 21 22  1  0
 13 23  2  0
  5 24  1  0
 24 25  2  0
 25  2  1  0
 23  9  1  0
 22 14  1  0
 21 16  1  0
  1 26  1  0
  1 27  1  0
  1 28  1  0
  3 29  1  0
  4 30  1  0
 10 31  1  0
 11 32  1  0
 12 33  1  0
 17 34  1  0
 18 35  1  0
 19 36  1  0
 20 37  1  0
 23 38  1  0
 24 39  1  0
 25 40  1  0
M  CHG  1   8  -1
M  END
>  <UniqueID>  (12) 
11

>  <SMILES>  (12) 
Cc1ccc(C(=O)[N-]c2cccc(-c3nc4ccccc4o3)c2)cc1

>  <Energy>  (12) 
86.08879427202451

>  <Genealogy>  (12) 
Cc1ccc(C(=O)[N-]c2cccc(-c3nc4ccccc4o3)c2)cc1 (protonated)
Cc1ccc(C(=O)[N-]c2cccc(-c3nc4ccccc4o3)c2)cc1 (3D coordinates assigned)
Cc1ccc(C(=O)[N-]c2cccc(-c3nc4ccccc4o3)c2)cc1 (optimized conformer: 86.08879427202451 kcal/mol)

>  <smiles>  (12) 
Cc1ccc(C(=O)Nc2cccc(-c3nc4ccccc4o3)c2)cc1

>  <score_type>  (12) 
oracle

>  <origin>  (12) 
adg

>  <m_score__min__energy>  (12) 
-10.220000000000001

>  <m_primary>  (12) 
energy

$$$$
12:0
     RDKit          3D

 56 59  0  0  0  0  0  0  0  0999 V2000
   55.9840   26.0170   45.9240 C   0  0  0  0  0  0  0  0  0  0  0  0
   55.6980   27.3760   45.6210 O   0  0  0  0  0  0  0  0  0  0  0  0
   56.6610   28.3250   45.2460 C   0  0  0  0  0  0  0  0  0  0  0  0
   56.3640   29.4060   44.3950 C   0  0  0  0  0  0  0  0  0  0  0  0
   57.3610   30.3230   44.0480 C   0  0  0  0  0  0  0  0  0  0  0  0
   58.6560   30.1750   44.5480 C   0  0  0  0  0  0  0  0  0  0  0  0
   58.9650   29.1080   45.4040 C   0  0  0  0  0  0  0  0  0  0  0  0
   60.3710   28.9220   45.9090 C   0  0  0  0  0  0  0  0  0  0  0  0
   60.4440   29.0620   47.4330 C   0  0  0  0  0  0  0  0  0  0  0  0
   61.2090   30.2550   47.8320 N   0  0  0  0  0  0  0  0  0  0  0  0
   60.3650   31.3280   48.3810 C   0  0  0  0  0  0  0  0  0  0  0  0
   60.3650   32.5570   47.5000 C   0  0  0  0  0  0  0  0  0  0  0  0
   61.4650   33.3220   47.1000 C   0  0  0  0  0  0  0  0  0  0  0  0
   62.8630   33.2010   47.5520 C   0  0  0  0  0  0  0  0  0  0  0  0
   63.7760   33.1400   46.6870 O   0  0  0  0  0  0  0  0  0  0  0  0
   63.2050   33.1910   48.9490 N   0  0  0  0  0  0  0  0  0  0  0  0
   64.4450   32.5340   49.3750 C   0  0  0  0  0  0  0  0  0  0  0  0
   64.3780   32.2010   50.8710 C   0  0  0  0  0  0  0  0  0  0  0  0
   64.0200   33.3440   51.6260 O   0  0  0  0  0  0  0  0  0  0  0  0
   62.7050   33.7440   51.2920 C   0  0  0  0  0  0  0  0  0  0  0  0
   62.6340   34.2120   49.8360 C   0  0  0  0  0  0  0  0  0  0  0  0
   61.0670   34.2130   46.1640 N   0  0  0  0  0  0  0  0  0  0  0  0
   59.7460   33.9980   46.0220 C   0  0  0  0  0  0  0  0  0  0  0  0
   58.8880   34.6860   45.1650 C   0  0  0  0  0  0  0  0  0  0  0  0
   57.5370   34.3080   45.1580 C   0  0  0  0  0  0  0  0  0  0  0  0
   57.0850   33.2670   45.9910 C   0  0  0  0  0  0  0  0  0  0  0  0
   57.9960   32.6080   46.8300 C   0  0  0  0  0  0  0  0  0  0  0  0
   59.2950   33.0090   46.8130 N   0  0  0  0  0  0  0  0  0  0  0  0
   57.9630   28.1840   45.7420 C   0  0  0  0  0  0  0  0  0  0  0  0
   56.0122   25.8828   47.0154 H   0  0  0  0  0  0  0  0  0  0  0  0
   55.2016   25.3733   45.4955 H   0  0  0  0  0  0  0  0  0  0  0  0
   56.9594   25.7432   45.4955 H   0  0  0  0  0  0  0  0  0  0  0  0
   55.3443   29.5299   44.0016 H   0  0  0  0  0  0  0  0  0  0  0  0
   57.1242   31.1635   43.3791 H   0  0  0  0  0  0  0  0  0  0  0  0
   59.4369   30.8980   44.2695 H   0  0  0  0  0  0  0  0  0  0  0  0
   60.7230   27.9193   45.6250 H   0  0  0  0  0  0  0  0  0  0  0  0
   61.0045   29.7013   45.4603 H   0  0  0  0  0  0  0  0  0  0  0  0
   59.4226   29.1426   47.8333 H   0  0  0  0  0  0  0  0  0  0  0  0
   60.9552   28.1751   47.8357 H   0  0  0  0  0  0  0  0  0  0  0  0
   61.9190   29.9730   48.5480 H   0  0  0  0  0  0  0  0  0  0  0  0
   59.3336   30.9567   48.4723 H   0  0  0  0  0  0  0  0  0  0  0  0
   60.7740   31.6134   49.3615 H   0  0  0  0  0  0  0  0  0  0  0  0
   64.5804   31.6053   48.8012 H   0  0  0  0  0  0  0  0  0  0  0  0
   65.2921   33.2122   49.1947 H   0  0  0  0  0  0  0  0  0  0  0  0
   63.6272   31.4133   51.0316 H   0  0  0  0  0  0  0  0  0  0  0  0
   65.3700   31.8581   51.2002 H   0  0  0  0  0  0  0  0  0  0  0  0
   62.0225   32.8926   51.4311 H   0  0  0  0  0  0  0  0  0  0  0  0
   62.4129   34.5788   51.9460 H   0  0  0  0  0  0  0  0  0  0  0  0
   61.5834   34.3865   49.5608 H   0  0  0  0  0  0  0  0  0  0  0  0
   63.2088   35.1437   49.7291 H   0  0  0  0  0  0  0  0  0  0  0  0
   61.6540   34.9200   45.6650 H   0  0  0  0  0  0  0  0  0  0  0  0
   59.2569   35.4956   44.5180 H   0  0  0  0  0  0  0  0  0  0  0  0
   56.8270   34.8279   44.4980 H   0  0  0  0  0  0  0  0  0  0  0  0
   56.0252   32.9724   45.9841 H   0  0  0  0  0  0  0  0  0  0  0  0
   57.6676   31.7876   47.4851 H   0  0  0  0  0  0  0  0  0  0  0  0
   58.2037   27.3394   46.4043 H   0  0  0  0  0  0  0  0  0  0  0  0
  1  2  1  0
  2  3  1  0
  3  4  2  0
  4  5  1  0
  5  6  2  0
  6  7  1  0
  7  8  1  0
  8  9  1  0
  9 10  1  0
 10 11  1  0
 11 12  1  0
 12 13  2  0
 13 14  1  0
 14 15  2  0
 14 16  1  0
 16 17  1  0
 17 18  1  0
 18 19  1  0
 19 20  1  0
 20 21  1  0
 13 22  1  0
 22 23  2  0
 23 24  1  0
 24 25  2  0
 25 26  1  0
 26 27  2  0
 27 28  1  0
  7 29  2  0
 29  3  1  0
 28 12  1  0
 21 16  1  0
 28 23  1  0
  1 30  1  0
  1 31  1  0
  1 32  1  0
  4 33  1  0
  5 34  1  0
  6 35  1  0
  8 36  1  0
  8 37  1  0
  9 38  1  0
  9 39  1  0
 10 40  1  0
 11 41  1  0
 11 42  1  0
 17 43  1  0
 17 44  1  0
 18 45  1  0
 18 46  1  0
 20 47  1  0
 20 48  1  0
 21 49  1  0
 21 50  1  0
 22 51  1  0
 24 52  1  0
 25 53  1  0
 26 54  1  0
 27 55  1  0
 29 56  1  0
M  CHG  1  22   1
M  END
>  <UniqueID>  (13) 
12

>  <SMILES>  (13) 
COc1cccc(CCNCc2c(C(=O)N3CCOCC3)[nH+]c3ccccn23)c1

>  <Energy>  (13) 
96.28443981931122

>  <Genealogy>  (13) 
COc1cccc(CCNCc2c(C(=O)N3CCOCC3)[nH+]c3ccccn23)c1 (protonated)
COc1cccc(CCNCc2c(C(=O)N3CCOCC3)[nH+]c3ccccn23)c1 (3D coordinates assigned)
COc1cccc(CCNCc2c(C(=O)N3CCOCC3)[nH+]c3ccccn23)c1 (nonaromatic ring conformer: 96.28443981931122 kcal/mol)

>  <smiles>  (13) 
COc1cccc(CCNCc2c(C(=O)N3CCOCC3)nc3ccccn23)c1

>  <score_type>  (13) 
oracle

>  <origin>  (13) 
adg

>  <m_score__min__energy>  (13) 
-6.7699999999999996

>  <m_primary>  (13) 
energy

$$$$
13:0
     RDKit          3D

 40 42  0  0  0  0  0  0  0  0999 V2000
   61.4950   30.7530   48.3550 C   0  0  0  0  0  0  0  0  0  0  0  0
   60.5780   29.9110   47.5190 C   0  0  0  0  0  0  0  0  0  0  0  0
   59.5230   29.2000   48.1120 C   0  0  0  0  0  0  0  0  0  0  0  0
   58.6980   28.3850   47.3320 C   0  0  0  0  0  0  0  0  0  0  0  0
   58.9290   28.2620   45.9580 C   0  0  0  0  0  0  0  0  0  0  0  0
   57.8780   27.2030   44.9580 S   0  0  0  0  0  0  0  0  0  0  0  0
   57.3930   28.5150   43.7800 C   0  0  0  0  0  0  0  0  0  0  0  0
   56.6840   29.6390   44.4850 C   0  0  0  0  0  0  0  0  0  0  0  0
   55.5020   29.4480   44.8810 O   0  0  0  0  0  0  0  0  0  0  0  0
   57.3070   30.9280   44.6730 N   0  0  0  0  0  0  0  0  0  0  0  0
   57.2350   31.9170   43.5860 C   0  0  0  0  0  0  0  0  0  0  0  0
   58.4930   32.7810   43.5650 C   0  0  0  0  0  0  0  0  0  0  0  0
   58.6970   33.4170   44.9070 C   0  0  0  0  0  0  0  0  0  0  0  0
   59.2630   34.6980   45.0060 C   0  0  0  0  0  0  0  0  0  0  0  0
   59.4730   35.2790   46.2590 C   0  0  0  0  0  0  0  0  0  0  0  0
   59.1340   34.5800   47.4190 C   0  0  0  0  0  0  0  0  0  0  0  0
   58.5880   33.2960   47.3310 C   0  0  0  0  0  0  0  0  0  0  0  0
   58.3610   32.7070   46.0760 C   0  0  0  0  0  0  0  0  0  0  0  0
   57.8160   31.3000   46.0080 C   0  0  0  0  0  0  0  0  0  0  0  0
   59.9800   28.9690   45.3620 C   0  0  0  0  0  0  0  0  0  0  0  0
   60.8070   29.7820   46.1400 C   0  0  0  0  0  0  0  0  0  0  0  0
   61.2933   30.5678   49.4204 H   0  0  0  0  0  0  0  0  0  0  0  0
   62.5396   30.4928   48.1289 H   0  0  0  0  0  0  0  0  0  0  0  0
   61.3247   31.8160   48.1289 H   0  0  0  0  0  0  0  0  0  0  0  0
   59.3450   29.2845   49.1942 H   0  0  0  0  0  0  0  0  0  0  0  0
   57.8653   27.8392   47.7996 H   0  0  0  0  0  0  0  0  0  0  0  0
   58.2954   28.9101   43.2905 H   0  0  0  0  0  0  0  0  0  0  0  0
   56.7085   28.0816   43.0359 H   0  0  0  0  0  0  0  0  0  0  0  0
   57.1407   31.3916   42.6242 H   0  0  0  0  0  0  0  0  0  0  0  0
   56.3614   32.5646   43.7517 H   0  0  0  0  0  0  0  0  0  0  0  0
   59.3630   32.1529   43.3229 H   0  0  0  0  0  0  0  0  0  0  0  0
   58.3796   33.5677   42.8046 H   0  0  0  0  0  0  0  0  0  0  0  0
   59.5420   35.2460   44.0939 H   0  0  0  0  0  0  0  0  0  0  0  0
   59.9057   36.2877   46.3317 H   0  0  0  0  0  0  0  0  0  0  0  0
   59.2969   35.0406   48.4045 H   0  0  0  0  0  0  0  0  0  0  0  0
   58.3350   32.7445   48.2485 H   0  0  0  0  0  0  0  0  0  0  0  0
   58.6210   30.6016   46.2805 H   0  0  0  0  0  0  0  0  0  0  0  0
   56.9654   31.2492   46.7036 H   0  0  0  0  0  0  0  0  0  0  0  0
   60.1547   28.8840   44.2793 H   0  0  0  0  0  0  0  0  0  0  0  0
   61.6413   30.3236   45.6703 H   0  0  0  0  0  0  0  0  0  0  0  0
  1  2  1  0
  2  3  2  0
  3  4  1  0
  4  5  2  0
  5  6  1  0
  6  7  1  0
  7  8  1  0
  8  9  2  0
  8 10  1  0
 10 11  1  0
 11 12  1  0
 12 13  1  0
 13 14  2  0
 14 15  1  0
 15 16  2  0
 16 17  1  0
 17 18  2  0
 18 19  1  0
  5 20  1  0
 20 21  2  0
 21  2  1  0
 19 10  1  0
 18 13  1  0
  1 22  1  0
  1 23  1  0
  1 24  1  0
  3 25  1  0
  4 26  1  0
  7 27  1  0
  7 28  1  0
 11 29  1  0
 11 30  1  0
 12 31  1  0
 12 32  1  0
 14 33  1  0
 15 34  1  0
 16 35  1  0
 17 36  1  0
 19 37  1  0
 19 38  1  0
 20 39  1  0
 21 40  1  0
M  END
>  <UniqueID>  (14) 
13

>  <SMILES>  (14) 
Cc1ccc(SCC(=O)N2CCc3ccccc3C2)cc1

>  <Energy>  (14) 
37.99603475207278

>  <Genealogy>  (14) 
Cc1ccc(SCC(=O)N2CCc3ccccc3C2)cc1 (3D coordinates assigned)
Cc1ccc(SCC(=O)N2CCc3ccccc3C2)cc1 (nonaromatic ring conformer: 37.99603475207278 kcal/mol)

>  <smiles>  (14) 
Cc1ccc(SCC(=O)N2CCc3ccccc3C2)cc1

>  <score_type>  (14) 
oracle

>  <origin>  (14) 
adg

>  <m_score__min__energy>  (14) 
-7.7800000000000002

>  <m_primary>  (14) 
energy

$$$$
14:0
     RDKit          3D

 46 49  0  0  0  0  0  0  0  0999 V2000
   57.7690   32.3510   42.9460 C   0  0  0  0  0  0  0  0  0  0  0  0
   57.4230   32.2460   44.3810 C   0  0  0  0  0  0  0  0  0  0  0  0
   56.7340   31.2210   44.7130 O   0  0  0  0  0  0  0  0  0  0  0  0
   57.8250   33.2130   45.3420 N   0  0  0  0  0  0  0  0  0  0  0  0
   58.5970   34.3330   44.8800 C   0  0  0  0  0  0  0  0  0  0  0  0
   59.3110   34.9500   46.0410 C   0  0  0  0  0  0  0  0  0  0  0  0
   59.7020   33.9030   46.9740 N   0  0  0  0  0  0  0  0  0  0  0  0
   60.5500   32.9190   46.3750 C   0  0  0  0  0  0  0  0  0  0  0  0
   60.1700   31.5320   46.7880 C   0  0  0  0  0  0  0  0  0  0  0  0
   60.5960   31.1360   47.9980 N   0  0  0  0  0  0  0  0  0  0  0  0
   60.2540   29.8810   48.3770 C   0  0  0  0  0  0  0  0  0  0  0  0
   60.6030   29.4210   49.4840 O   0  0  0  0  0  0  0  0  0  0  0  0
   59.5130   29.1050   47.5280 C   0  0  0  0  0  0  0  0  0  0  0  0
   58.8810   27.4040   47.6960 S   0  0  0  0  0  0  0  0  0  0  0  0
   58.1050   27.3990   46.1140 C   0  0  0  0  0  0  0  0  0  0  0  0
   57.3550   26.2850   45.5400 C   0  0  0  0  0  0  0  0  0  0  0  0
   57.7610   25.6670   44.3790 C   0  0  0  0  0  0  0  0  0  0  0  0
   57.0500   24.6040   43.8300 C   0  0  0  0  0  0  0  0  0  0  0  0
   55.9110   24.1750   44.4810 C   0  0  0  0  0  0  0  0  0  0  0  0
   55.1930   23.1300   43.9590 F   0  0  0  0  0  0  0  0  0  0  0  0
   55.5110   24.7990   45.6440 C   0  0  0  0  0  0  0  0  0  0  0  0
   56.2190   25.8520   46.1870 C   0  0  0  0  0  0  0  0  0  0  0  0
   58.3520   28.6130   45.5760 C   0  0  0  0  0  0  0  0  0  0  0  0
   59.0660   29.5070   46.2710 C   0  0  0  0  0  0  0  0  0  0  0  0
   59.4460   30.7860   45.9470 N   0  0  0  0  0  0  0  0  0  0  0  0
   58.5430   33.3690   47.6510 C   0  0  0  0  0  0  0  0  0  0  0  0
   57.4300   33.0120   46.7230 C   0  0  0  0  0  0  0  0  0  0  0  0
   58.8170   32.6691   42.8438 H   0  0  0  0  0  0  0  0  0  0  0  0
   57.6344   31.3716   42.4637 H   0  0  0  0  0  0  0  0  0  0  0  0
   57.1128   33.0904   42.4637 H   0  0  0  0  0  0  0  0  0  0  0  0
   59.3313   33.9918   44.1355 H   0  0  0  0  0  0  0  0  0  0  0  0
   57.9305   35.0763   44.4183 H   0  0  0  0  0  0  0  0  0  0  0  0
   60.2075   35.4776   45.6833 H   0  0  0  0  0  0  0  0  0  0  0  0
   58.6455   35.6655   46.5462 H   0  0  0  0  0  0  0  0  0  0  0  0
   60.4705   32.9990   45.2808 H   0  0  0  0  0  0  0  0  0  0  0  0
   61.5806   33.1055   46.7113 H   0  0  0  0  0  0  0  0  0  0  0  0
   58.6704   26.0223   43.8723 H   0  0  0  0  0  0  0  0  0  0  0  0
   57.3868   24.1187   42.9021 H   0  0  0  0  0  0  0  0  0  0  0  0
   54.6017   24.4474   46.1534 H   0  0  0  0  0  0  0  0  0  0  0  0
   55.8832   26.3350   47.1165 H   0  0  0  0  0  0  0  0  0  0  0  0
   57.9699   28.8649   44.5757 H   0  0  0  0  0  0  0  0  0  0  0  0
   59.1820   31.2200   45.0370 H   0  0  0  0  0  0  0  0  0  0  0  0
   58.8447   32.4641   48.1989 H   0  0  0  0  0  0  0  0  0  0  0  0
   58.1675   34.1545   48.3233 H   0  0  0  0  0  0  0  0  0  0  0  0
   57.1621   31.9555   46.8711 H   0  0  0  0  0  0  0  0  0  0  0  0
   56.5684   33.6602   46.9407 H   0  0  0  0  0  0  0  0  0  0  0  0
  1  2  1  0
  2  3  2  0
  2  4  1  0
  4  5  1  0
  5  6  1  0
  6  7  1  0
  7  8  1  0
  8  9  1  0
  9 10  2  0
 10 11  1  0
 11 12  2  0
 11 13  1  0
 13 14  1  0
 14 15  1  0
 15 16  1  0
 16 17  2  0
 17 18  1  0
 18 19  2  0
 19 20  1  0
 19 21  1  0
 21 22  2  0
 15 23  2  0
 23 24  1  0
 24 25  1  0
  7 26  1  0
 26 27  1  0
 27  4  1  0
 25  9  1  0
 24 13  2  0
 22 16  1  0
  1 28  1  0
  1 29  1  0
  1 30  1  0
  5 31  1  0
  5 32  1  0
  6 33  1  0
  6 34  1  0
  8 35  1  0
  8 36  1  0
 17 37  1  0
 18 38  1  0
 21 39  1  0
 22 40  1  0
 23 41  1  0
 25 42  1  0
 26 43  1  0
 26 44  1  0
 27 45  1  0
 27 46  1  0
M  END
>  <smiles>  (15) 
CC(=O)N1CCN(Cc2nc(=O)c3sc(-c4ccc(F)cc4)cc3[nH]2)CC1

>  <score_type>  (15) 
oracle

>  <origin>  (15) 
adg

>  <m_score__min__energy>  (15) 
-7.9400000000000004

>  <m_primary>  (15) 
energy

$$$$
15:0
     RDKit          3D

 48 50  0  0  0  0  0  0  0  0999 V2000
   59.6480   33.8210   49.5720 C   0  0  0  0  0  0  0  0  0  0  0  0
   59.9930   34.5550   48.2790 C   0  0  0  0  0  0  0  0  0  0  0  0
   60.8270   33.6930   47.4110 N   0  0  0  0  0  0  0  0  0  0  0  0
   62.2660   33.8500   47.7240 C   0  0  0  0  0  0  0  0  0  0  0  0
   63.0700   32.6980   47.1250 C   0  0  0  0  0  0  0  0  0  0  0  0
   60.5570   33.9530   45.9770 C   0  0  0  0  0  0  0  0  0  0  0  0
   59.4110   34.9640   45.8090 C   0  0  0  0  0  0  0  0  0  0  0  0
   58.1080   34.2970   45.8240 N   0  0  0  0  0  0  0  0  0  0  0  0
   57.9200   32.8920   45.5840 C   0  0  0  0  0  0  0  0  0  0  0  0
   58.2850   31.9650   46.5960 C   0  0  0  0  0  0  0  0  0  0  0  0
   58.1660   30.5800   46.3850 C   0  0  0  0  0  0  0  0  0  0  0  0
   57.6790   30.1520   45.1520 C   0  0  0  0  0  0  0  0  0  0  0  0
   57.2880   31.0400   44.1870 C   0  0  0  0  0  0  0  0  0  0  0  0
   56.8150   30.2770   43.1390 C   0  0  0  0  0  0  0  0  0  0  0  0
   56.9320   28.9760   43.4940 N   0  0  0  0  0  0  0  0  0  0  0  0
   57.4670   28.8970   44.7070 N   0  0  0  0  0  0  0  0  0  0  0  0
   57.7220   27.6680   45.4000 C   0  0  0  0  0  0  0  0  0  0  0  0
   56.6480   26.8250   45.7220 C   0  0  0  0  0  0  0  0  0  0  0  0
   56.8730   25.6240   46.4000 C   0  0  0  0  0  0  0  0  0  0  0  0
   58.1710   25.2510   46.7510 C   0  0  0  0  0  0  0  0  0  0  0  0
   59.2500   26.0740   46.4160 C   0  0  0  0  0  0  0  0  0  0  0  0
   59.0350   27.2790   45.7380 C   0  0  0  0  0  0  0  0  0  0  0  0
   60.4270   28.2450   45.2640 Cl  0  0  0  0  0  0  0  0  0  0  0  0
   57.3890   32.4160   44.3600 C   0  0  0  0  0  0  0  0  0  0  0  0
   59.9388   34.4398   50.4337 H   0  0  0  0  0  0  0  0  0  0  0  0
   58.5654   33.6292   49.6071 H   0  0  0  0  0  0  0  0  0  0  0  0
   60.1911   32.8651   49.6071 H   0  0  0  0  0  0  0  0  0  0  0  0
   59.0646   34.8148   47.7494 H   0  0  0  0  0  0  0  0  0  0  0  0
   60.5534   35.4695   48.5230 H   0  0  0  0  0  0  0  0  0  0  0  0
   62.6266   34.8005   47.3040 H   0  0  0  0  0  0  0  0  0  0  0  0
   62.3961   33.8458   48.8163 H   0  0  0  0  0  0  0  0  0  0  0  0
   63.4958   32.0879   47.9352 H   0  0  0  0  0  0  0  0  0  0  0  0
   62.4101   32.0742   46.5042 H   0  0  0  0  0  0  0  0  0  0  0  0
   63.8831   33.1022   46.5042 H   0  0  0  0  0  0  0  0  0  0  0  0
   61.4657   34.3572   45.5070 H   0  0  0  0  0  0  0  0  0  0  0  0
   60.2645   33.0073   45.4974 H   0  0  0  0  0  0  0  0  0  0  0  0
   59.4509   35.6914   46.6332 H   0  0  0  0  0  0  0  0  0  0  0  0
   59.5320   35.4686   44.8391 H   0  0  0  0  0  0  0  0  0  0  0  0
   57.2860   34.8610   46.1400 H   0  0  0  0  0  0  0  0  0  0  0  0
   58.6663   32.3359   47.5588 H   0  0  0  0  0  0  0  0  0  0  0  0
   58.4478   29.8592   47.1667 H   0  0  0  0  0  0  0  0  0  0  0  0
   56.4152   30.6572   42.1874 H   0  0  0  0  0  0  0  0  0  0  0  0
   56.6560   28.1550   42.9100 H   0  0  0  0  0  0  0  0  0  0  0  0
   55.6240   27.1107   45.4395 H   0  0  0  0  0  0  0  0  0  0  0  0
   56.0256   24.9716   46.6574 H   0  0  0  0  0  0  0  0  0  0  0  0
   58.3452   24.3089   47.2915 H   0  0  0  0  0  0  0  0  0  0  0  0
   60.2728   25.7730   46.6866 H   0  0  0  0  0  0  0  0  0  0  0  0
   57.0670   33.1125   43.5718 H   0  0  0  0  0  0  0  0  0  0  0  0
  1  2  1  0
  2  3  1  0
  3  4  1  0
  4  5  1  0
  3  6  1  0
  6  7  1  0
  7  8  1  0
  8  9  1  0
  9 10  2  0
 10 11  1  0
 11 12  2  0
 12 13  1  0
 13 14  1  0
 14 15  2  0
 15 16  1  0
 16 17  1  0
 17 18  2  0
 18 19  1  0
 19 20  2  0
 20 21  1  0
 21 22  2  0
 22 23  1  0
 13 24  2  0
 24  9  1  0
 16 12  1  0
 22 17  1  0
  1 25  1  0
  1 26  1  0
  1 27  1  0
  2 28  1  0
  2 29  1  0
  4 30  1  0
  4 31  1  0
  5 32  1  0
  5 33  1  0
  5 34  1  0
  6 35  1  0
  6 36  1  0
  7 37  1  0
  7 38  1  0
  8 39  1  0
 10 40  1  0
 11 41  1  0
 14 42  1  0
 15 43  1  0
 18 44  1  0
 19 45  1  0
 20 46  1  0
 21 47  1  0
 24 48  1  0
M  CHG  1  15   1
M  END
>  <UniqueID>  (16) 
14

>  <SMILES>  (16) 
CCN(CC)CCNc1ccc2c(c[nH+]n2-c2ccccc2Cl)c1

>  <Energy>  (16) 
90.88357333413896

>  <Genealogy>  (16) 
CCN(CC)CCNc1ccc2c(c[nH+]n2-c2ccccc2Cl)c1 (protonated)
CCN(CC)CCNc1ccc2c(c[nH+]n2-c2ccccc2Cl)c1 (3D coordinates assigned)
CCN(CC)CCNc1ccc2c(c[nH+]n2-c2ccccc2Cl)c1 (optimized conformer: 90.88357333413896 kcal/mol)

>  <smiles>  (16) 
CCN(CC)CCNc1ccc2c(cnn2-c2ccccc2Cl)c1

>  <score_type>  (16) 
oracle

>  <origin>  (16) 
adg

>  <m_score__min__energy>  (16) 
-6.46

>  <m_primary>  (16) 
energy

$$$$
16:0
     RDKit          3D

 52 55  0  0  0  0  0  0  0  0999 V2000
   60.0400   26.2980   47.0360 C   0  0  0  0  0  0  0  0  0  0  0  0
   59.4160   27.4300   46.2730 C   0  0  0  0  0  0  0  0  0  0  0  0
   60.1200   28.0490   45.2310 C   0  0  0  0  0  0  0  0  0  0  0  0
   59.5550   29.1260   44.5410 C   0  0  0  0  0  0  0  0  0  0  0  0
   58.2760   29.5980   44.8810 C   0  0  0  0  0  0  0  0  0  0  0  0
   57.6650   30.7640   44.1270 C   0  0  0  0  0  0  0  0  0  0  0  0
   58.1190   32.0900   44.6040 N   0  0  0  0  0  0  0  0  0  0  0  0
   59.2420   32.0530   45.5710 C   0  0  0  0  0  0  0  0  0  0  0  0
   58.7880   32.4300   46.9920 C   0  0  0  0  0  0  0  0  0  0  0  0
   58.1650   33.7850   47.0530 N   0  0  0  0  0  0  0  0  0  0  0  0
   59.1380   34.7920   47.5440 C   0  0  0  0  0  0  0  0  0  0  0  0
   60.1210   34.2000   48.5470 C   0  0  0  0  0  0  0  0  0  0  0  0
   59.6650   34.0530   49.8700 C   0  0  0  0  0  0  0  0  0  0  0  0
   60.4960   33.5470   50.8660 C   0  0  0  0  0  0  0  0  0  0  0  0
   61.8030   33.1780   50.5700 C   0  0  0  0  0  0  0  0  0  0  0  0
   62.2960   33.3100   49.2650 C   0  0  0  0  0  0  0  0  0  0  0  0
   63.6180   32.9320   48.9840 C   0  0  0  0  0  0  0  0  0  0  0  0
   64.1280   33.0560   47.6930 C   0  0  0  0  0  0  0  0  0  0  0  0
   63.3240   33.5550   46.6720 C   0  0  0  0  0  0  0  0  0  0  0  0
   62.0050   33.9360   46.9310 C   0  0  0  0  0  0  0  0  0  0  0  0
   61.4600   33.8240   48.2320 C   0  0  0  0  0  0  0  0  0  0  0  0
   57.5550   34.2020   45.7610 C   0  0  0  0  0  0  0  0  0  0  0  0
   57.0150   32.9980   44.9830 C   0  0  0  0  0  0  0  0  0  0  0  0
   57.5930   29.0030   45.9560 C   0  0  0  0  0  0  0  0  0  0  0  0
   58.1600   27.9270   46.6450 C   0  0  0  0  0  0  0  0  0  0  0  0
   59.9379   26.4832   48.1155 H   0  0  0  0  0  0  0  0  0  0  0  0
   59.5331   25.3570   46.7758 H   0  0  0  0  0  0  0  0  0  0  0  0
   61.1062   26.2242   46.7758 H   0  0  0  0  0  0  0  0  0  0  0  0
   61.1210   27.6861   44.9549 H   0  0  0  0  0  0  0  0  0  0  0  0
   60.1159   29.6072   43.7262 H   0  0  0  0  0  0  0  0  0  0  0  0
   57.9325   30.6678   43.0644 H   0  0  0  0  0  0  0  0  0  0  0  0
   56.5788   30.7189   44.2944 H   0  0  0  0  0  0  0  0  0  0  0  0
   59.6619   31.0365   45.5897 H   0  0  0  0  0  0  0  0  0  0  0  0
   59.9948   32.7870   45.2476 H   0  0  0  0  0  0  0  0  0  0  0  0
   58.0524   31.6879   47.3357 H   0  0  0  0  0  0  0  0  0  0  0  0
   59.6803   32.4434   47.6352 H   0  0  0  0  0  0  0  0  0  0  0  0
   57.3920   33.7250   47.7580 H   0  0  0  0  0  0  0  0  0  0  0  0
   59.7018   35.1876   46.6864 H   0  0  0  0  0  0  0  0  0  0  0  0
   58.5737   35.5874   48.0528 H   0  0  0  0  0  0  0  0  0  0  0  0
   58.6342   34.3429   50.1217 H   0  0  0  0  0  0  0  0  0  0  0  0
   60.1161   33.4387   51.8926 H   0  0  0  0  0  0  0  0  0  0  0  0
   62.4530   32.7807   51.3635 H   0  0  0  0  0  0  0  0  0  0  0  0
   64.2556   32.5354   49.7878 H   0  0  0  0  0  0  0  0  0  0  0  0
   65.1658   32.7596   47.4808 H   0  0  0  0  0  0  0  0  0  0  0  0
   63.7300   33.6500   45.6541 H   0  0  0  0  0  0  0  0  0  0  0  0
   61.3824   34.3280   46.1133 H   0  0  0  0  0  0  0  0  0  0  0  0
   56.7272   34.8973   45.9641 H   0  0  0  0  0  0  0  0  0  0  0  0
   58.3321   34.6872   45.1521 H   0  0  0  0  0  0  0  0  0  0  0  0
   56.2972   32.4521   45.6129 H   0  0  0  0  0  0  0  0  0  0  0  0
   56.5199   33.3576   44.0689 H   0  0  0  0  0  0  0  0  0  0  0  0
   56.6068   29.3863   46.2567 H   0  0  0  0  0  0  0  0  0  0  0  0
   57.6169   27.4678   47.4842 H   0  0  0  0  0  0  0  0  0  0  0  0
  1  2  1  0
  2  3  2  0
  3  4  1  0
  4  5  2  0
  5  6  1  0
  6  7  1  0
  7  8  1  0
  8  9  1  0
  9 10  1  0
 10 11  1  0
 11 12  1  0
 12 13  2  0
 13 14  1  0
 14 15  2  0
 15 16  1  0
 16 17  2  0
 17 18  1  0
 18 19  2  0
 19 20  1  0
 20 21  2  0
 10 22  1  0
 22 23  1  0
  5 24  1  0
 24 25  2  0
 25  2  1  0
 23  7  1  0
 21 12  1  0
 21 16  1  0
  1 26  1  0
  1 27  1  0
  1 28  1  0
  3 29  1  0
  4 30  1  0
  6 31  1  0
  6 32  1  0
  8 33  1  0
  8 34  1  0
  9 35  1  0
  9 36  1  0
 10 37  1  0
 11 38  1  0
 11 39  1  0
 13 40  1  0
 14 41  1  0
 15 42  1  0
 17 43  1  0
 18 44  1  0
 19 45  1  0
 20 46  1  0
 22 47  1  0
 22 48  1  0
 23 49  1  0
 23 50  1  0
 24 51  1  0
 25 52  1  0
M  CHG  1  10   1
M  END
>  <UniqueID>  (17) 
15

>  <SMILES>  (17) 
Cc1ccc(CN2CC[NH+](Cc3cccc4ccccc34)CC2)cc1

>  <Energy>  (17) 
78.14998610400214

>  <Genealogy>  (17) 
Cc1ccc(CN2CC[NH+](Cc3cccc4ccccc34)CC2)cc1 (protonated)
Cc1ccc(CN2CC[NH+](Cc3cccc4ccccc34)CC2)cc1 (3D coordinates assigned)
Cc1ccc(CN2CC[NH+](Cc3cccc4ccccc34)CC2)cc1 (nonaromatic ring conformer: 78.14998610400214 kcal/mol)

>  <smiles>  (17) 
Cc1ccc(CN2CCN(Cc3cccc4ccccc34)CC2)cc1

>  <score_type>  (17) 
oracle

>  <origin>  (17) 
adg

>  <m_score__min__energy>  (17) 
-7.1900000000000004

>  <m_primary>  (17) 
energy

$$$$
17:0
     RDKit          3D

 34 35  0  0  0  0  0  0  0  0999 V2000
   57.7800   32.3410   43.1160 C   0  0  0  0  0  0  0  0  0  0  0  0
   57.4530   33.2930   44.1230 O   0  0  0  0  0  0  0  0  0  0  0  0
   58.2330   33.5400   45.2620 C   0  0  0  0  0  0  0  0  0  0  0  0
   57.8000   33.0250   46.4890 C   0  0  0  0  0  0  0  0  0  0  0  0
   58.5420   33.2440   47.6540 C   0  0  0  0  0  0  0  0  0  0  0  0
   59.7350   33.9820   47.6060 C   0  0  0  0  0  0  0  0  0  0  0  0
   60.5460   34.2180   48.8610 C   0  0  0  0  0  0  0  0  0  0  0  0
   61.7820   33.3950   48.8930 N   0  0  0  0  0  0  0  0  0  0  0  0
   62.9840   34.1810   48.4920 C   0  0  0  0  0  0  0  0  0  0  0  0
   63.3910   33.9280   47.0310 C   0  0  0  0  0  0  0  0  0  0  0  0
   63.6960   32.5070   46.7790 N   0  0  0  0  0  0  0  0  0  0  0  0
   62.9350   31.5760   47.6330 C   0  0  0  0  0  0  0  0  0  0  0  0
   61.5900   32.1740   48.0690 C   0  0  0  0  0  0  0  0  0  0  0  0
   60.1690   34.5040   46.3770 C   0  0  0  0  0  0  0  0  0  0  0  0
   59.4270   34.2850   45.2130 C   0  0  0  0  0  0  0  0  0  0  0  0
   58.1025   31.4021   43.5899 H   0  0  0  0  0  0  0  0  0  0  0  0
   56.8956   32.1509   42.4901 H   0  0  0  0  0  0  0  0  0  0  0  0
   58.5945   32.7345   42.4901 H   0  0  0  0  0  0  0  0  0  0  0  0
   56.8679   32.4429   46.5376 H   0  0  0  0  0  0  0  0  0  0  0  0
   58.1890   32.8359   48.6126 H   0  0  0  0  0  0  0  0  0  0  0  0
   60.8266   35.2806   48.9069 H   0  0  0  0  0  0  0  0  0  0  0  0
   59.9261   33.9302   49.7229 H   0  0  0  0  0  0  0  0  0  0  0  0
   61.9320   33.0710   49.8780 H   0  0  0  0  0  0  0  0  0  0  0  0
   62.7635   35.2514   48.6167 H   0  0  0  0  0  0  0  0  0  0  0  0
   63.8203   33.8637   49.1322 H   0  0  0  0  0  0  0  0  0  0  0  0
   62.5641   34.2354   46.3739 H   0  0  0  0  0  0  0  0  0  0  0  0
   64.3007   34.5116   46.8265 H   0  0  0  0  0  0  0  0  0  0  0  0
   64.7160   32.3490   46.9560 H   0  0  0  0  0  0  0  0  0  0  0  0
   62.7474   30.6493   47.0708 H   0  0  0  0  0  0  0  0  0  0  0  0
   63.5298   31.3761   48.5365 H   0  0  0  0  0  0  0  0  0  0  0  0
   61.0069   32.4345   47.1734 H   0  0  0  0  0  0  0  0  0  0  0  0
   61.0589   31.4262   48.6763 H   0  0  0  0  0  0  0  0  0  0  0  0
   61.0992   35.0892   46.3299 H   0  0  0  0  0  0  0  0  0  0  0  0
   59.7771   34.6963   44.2547 H   0  0  0  0  0  0  0  0  0  0  0  0
  1  2  1  0
  2  3  1  0
  3  4  2  0
  4  5  1  0
  5  6  2  0
  6  7  1  0
  7  8  1  0
  8  9  1  0
  9 10  1  0
 10 11  1  0
 11 12  1  0
 12 13  1  0
  6 14  1  0
 14 15  2  0
 15  3  1  0
 13  8  1  0
  1 16  1  0
  1 17  1  0
  1 18  1  0
  4 19  1  0
  5 20  1  0
  7 21  1  0
  7 22  1  0
  8 23  1  0
  9 24  1  0
  9 25  1  0
 10 26  1  0
 10 27  1  0
 11 28  1  0
 12 29  1  0
 12 30  1  0
 13 31  1  0
 13 32  1  0
 14 33  1  0
 15 34  1  0
M  CHG  1   8   1
M  END
>  <UniqueID>  (18) 
16

>  <SMILES>  (18) 
COc1ccc(C[NH+]2CCNCC2)cc1

>  <Energy>  (18) 
43.846619853875936

>  <Genealogy>  (18) 
COc1ccc(C[NH+]2CCNCC2)cc1 (protonated)
COc1ccc(C[NH+]2CCNCC2)cc1 (3D coordinates assigned)
COc1ccc(C[NH+]2CCNCC2)cc1 (nonaromatic ring conformer: 43.846619853875936 kcal/mol)

>  <smiles>  (18) 
COc1ccc(CN2CCNCC2)cc1

>  <score_type>  (18) 
oracle

>  <origin>  (18) 
adg

>  <m_score__min__energy>  (18) 
-4.6699999999999999

>  <m_primary>  (18) 
energy

$$$$
18:0
     RDKit          3D

 39 40  0  0  0  0  0  0  0  0999 V2000
   60.3800   27.1100   48.2070 C   0  0  0  0  0  0  0  0  0  0  0  0
   60.4040   27.1400   46.6830 C   0  0  0  0  0  0  0  0  0  0  0  0
   59.0990   27.6320   46.1460 C   0  0  0  0  0  0  0  0  0  0  0  0
   57.9380   26.9490   46.2670 N   0  0  0  0  0  0  0  0  0  0  0  0
   56.9120   27.5850   45.6390 C   0  0  0  0  0  0  0  0  0  0  0  0
   55.6080   27.0840   45.6360 O   0  0  0  0  0  0  0  0  0  0  0  0
   55.3250   25.6910   45.6490 C   0  0  0  0  0  0  0  0  0  0  0  0
   57.2620   28.7700   45.0020 C   0  0  0  0  0  0  0  0  0  0  0  0
   56.1890   29.8470   44.1230 S   0  0  0  0  0  0  0  0  0  0  0  0
   56.6230   29.8990   42.6860 O   0  0  0  0  0  0  0  0  0  0  0  0
   54.7740   29.3440   44.1790 O   0  0  0  0  0  0  0  0  0  0  0  0
   56.2690   31.4360   44.8020 N   0  0  0  0  0  0  0  0  0  0  0  0
   57.4960   32.1580   44.9290 C   0  0  0  0  0  0  0  0  0  0  0  0
   58.1160   32.5510   43.9030 O   0  0  0  0  0  0  0  0  0  0  0  0
   58.0790   32.3940   46.2880 C   0  0  0  0  0  0  0  0  0  0  0  0
   59.1390   33.5020   46.2600 C   0  0  0  0  0  0  0  0  0  0  0  0
   60.4850   33.0010   46.7210 C   0  0  0  0  0  0  0  0  0  0  0  0
   61.6010   33.8500   46.7120 C   0  0  0  0  0  0  0  0  0  0  0  0
   62.8450   33.3550   47.1100 C   0  0  0  0  0  0  0  0  0  0  0  0
   62.9710   32.0580   47.4970 N   0  0  0  0  0  0  0  0  0  0  0  0
   61.9080   31.2110   47.5060 C   0  0  0  0  0  0  0  0  0  0  0  0
   60.6460   31.6650   47.1150 C   0  0  0  0  0  0  0  0  0  0  0  0
   58.9040   29.0370   45.2360 S   0  0  0  0  0  0  0  0  0  0  0  0
   61.0219   27.9124   48.5997 H   0  0  0  0  0  0  0  0  0  0  0  0
   59.3491   27.2590   48.5605 H   0  0  0  0  0  0  0  0  0  0  0  0
   60.7517   26.1369   48.5605 H   0  0  0  0  0  0  0  0  0  0  0  0
   61.2089   27.8104   46.3472 H   0  0  0  0  0  0  0  0  0  0  0  0
   60.5786   26.1197   46.3109 H   0  0  0  0  0  0  0  0  0  0  0  0
   55.2539   25.3410   46.6894 H   0  0  0  0  0  0  0  0  0  0  0  0
   54.3709   25.5059   45.1338 H   0  0  0  0  0  0  0  0  0  0  0  0
   56.1312   25.1482   45.1338 H   0  0  0  0  0  0  0  0  0  0  0  0
   57.2731   32.6876   46.9766 H   0  0  0  0  0  0  0  0  0  0  0  0
   58.5608   31.4637   46.6232 H   0  0  0  0  0  0  0  0  0  0  0  0
   59.2328   33.8792   45.2309 H   0  0  0  0  0  0  0  0  0  0  0  0
   58.8179   34.2999   46.9457 H   0  0  0  0  0  0  0  0  0  0  0  0
   61.4975   34.8979   46.3939 H   0  0  0  0  0  0  0  0  0  0  0  0
   63.7243   34.0159   47.1103 H   0  0  0  0  0  0  0  0  0  0  0  0
   62.0417   30.1658   47.8218 H   0  0  0  0  0  0  0  0  0  0  0  0
   59.7855   30.9798   47.1162 H   0  0  0  0  0  0  0  0  0  0  0  0
  1  2  1  0
  2  3  1  0
  3  4  2  0
  4  5  1  0
  5  6  1  0
  6  7  1  0
  5  8  2  0
  8  9  1  0
  9 10  2  0
  9 11  2  0
  9 12  1  0
 12 13  1  0
 13 14  2  0
 13 15  1  0
 15 16  1  0
 16 17  1  0
 17 18  2  0
 18 19  1  0
 19 20  2  0
 20 21  1  0
 21 22  2  0
  8 23  1  0
 23  3  1  0
 22 17  1  0
  1 24  1  0
  1 25  1  0
  1 26  1  0
  2 27  1  0
  2 28  1  0
  7 29  1  0
  7 30  1  0
  7 31  1  0
 15 32  1  0
 15 33  1  0
 16 34  1  0
 16 35  1  0
 18 36  1  0
 19 37  1  0
 21 38  1  0
 22 39  1  0
M  CHG  1  12  -1
M  END
>  <UniqueID>  (19) 
17

>  <SMILES>  (19) 
CCc1nc(OC)c(S(=O)(=O)[N-]C(=O)CCc2ccncc2)s1

>  <Energy>  (19) 
60.59089250920562

>  <Genealogy>  (19) 
CCc1nc(OC)c(S(=O)(=O)[N-]C(=O)CCc2ccncc2)s1 (protonated)
CCc1nc(OC)c(S(=O)(=O)[N-]C(=O)CCc2ccncc2)s1 (3D coordinates assigned)
CCc1nc(OC)c(S(=O)(=O)[N-]C(=O)CCc2ccncc2)s1 (optimized conformer: 60.59089250920562 kcal/mol)

>  <smiles>  (19) 
CCc1nc(OC)c(S(=O)(=O)NC(=O)CCc2ccncc2)s1

>  <score_type>  (19) 
oracle

>  <origin>  (19) 
adg

>  <m_score__min__energy>  (19) 
-9.8699999999999992

>  <m_primary>  (19) 
energy

$$$$
19:0
     RDKit          3D

 35 35  0  0  0  0  0  0  0  0999 V2000
   63.1980   33.4770   46.7820 C   0  0  0  0  0  0  0  0  0  0  0  0
   62.3980   32.4150   47.4230 N   0  0  0  0  0  0  0  0  0  0  0  0
   63.0770   31.9520   48.6450 C   0  0  0  0  0  0  0  0  0  0  0  0
   61.0340   32.8890   47.7530 C   0  0  0  0  0  0  0  0  0  0  0  0
   60.0040   32.0080   47.1820 C   0  0  0  0  0  0  0  0  0  0  0  0
   59.1460   31.2970   46.7250 C   0  0  0  0  0  0  0  0  0  0  0  0
   58.1020   30.4040   46.1870 C   0  0  0  0  0  0  0  0  0  0  0  0
   57.2110   31.0820   45.2200 N   0  0  0  0  0  0  0  0  0  0  0  0
   57.5100   32.5140   45.0520 C   0  0  0  0  0  0  0  0  0  0  0  0
   57.9890   32.7190   43.6270 C   0  0  0  0  0  0  0  0  0  0  0  0
   57.3550   31.5870   42.8560 C   0  0  0  0  0  0  0  0  0  0  0  0
   57.2170   30.4590   43.8800 C   0  0  2  0  0  0  0  0  0  0  0  0
   55.9280   29.6500   43.6790 C   0  0  0  0  0  0  0  0  0  0  0  0
   55.2100   29.5530   44.8800 O   0  0  0  0  0  0  0  0  0  0  0  0
   63.6677   34.1005   47.5570 H   0  0  0  0  0  0  0  0  0  0  0  0
   63.9786   33.0206   46.1557 H   0  0  0  0  0  0  0  0  0  0  0  0
   62.5439   34.1014   46.1557 H   0  0  0  0  0  0  0  0  0  0  0  0
   62.3320   31.6010   46.7640 H   0  0  0  0  0  0  0  0  0  0  0  0
   62.5351   32.3215   49.5280 H   0  0  0  0  0  0  0  0  0  0  0  0
   63.0956   30.8523   48.6599 H   0  0  0  0  0  0  0  0  0  0  0  0
   64.1076   32.3364   48.6599 H   0  0  0  0  0  0  0  0  0  0  0  0
   60.9185   32.9118   48.8467 H   0  0  0  0  0  0  0  0  0  0  0  0
   60.9048   33.8938   47.3243 H   0  0  0  0  0  0  0  0  0  0  0  0
   58.5897   29.5573   45.6818 H   0  0  0  0  0  0  0  0  0  0  0  0
   57.4819   30.0719   47.0327 H   0  0  0  0  0  0  0  0  0  0  0  0
   56.6033   33.1101   45.2322 H   0  0  0  0  0  0  0  0  0  0  0  0
   58.2810   32.8341   45.7683 H   0  0  0  0  0  0  0  0  0  0  0  0
   57.6528   33.6917   43.2387 H   0  0  0  0  0  0  0  0  0  0  0  0
   59.0861   32.7199   43.5476 H   0  0  0  0  0  0  0  0  0  0  0  0
   56.3691   31.8840   42.4689 H   0  0  0  0  0  0  0  0  0  0  0  0
   57.9526   31.2888   41.9820 H   0  0  0  0  0  0  0  0  0  0  0  0
   58.0549   29.7563   43.7617 H   0  0  0  0  0  0  0  0  0  0  0  0
   55.3027   30.1490   42.9240 H   0  0  0  0  0  0  0  0  0  0  0  0
   56.1955   28.6368   43.3446 H   0  0  0  0  0  0  0  0  0  0  0  0
   55.1430   30.4730   45.2470 H   0  0  0  0  0  0  0  0  0  0  0  0
  1  2  1  0
  2  3  1  0
  2  4  1  0
  4  5  1  0
  5  6  3  0
  6  7  1  0
  7  8  1  0
  8  9  1  0
  9 10  1  0
 10 11  1  0
 11 12  1  0
 12 13  1  0
 13 14  1  0
 12  8  1  0
  1 15  1  0
  1 16  1  0
  1 17  1  0
  2 18  1  0
  3 19  1  0
  3 20  1  0
  3 21  1  0
  4 22  1  0
  4 23  1  0
  7 24  1  0
  7 25  1  0
  9 26  1  0
  9 27  1  0
 10 28  1  0
 10 29  1  0
 11 30  1  0
 11 31  1  0
 12 32  1  1
 13 33  1  0
 13 34  1  0
 14 35  1  0
M  CHG  1   2   1
M  END
>  <UniqueID>  (20) 
18

>  <SMILES>  (20) 
C[NH+](C)CC#CCN1CCC[C@@H]1CO

>  <Energy>  (20) 
29.101261956529843

>  <Genealogy>  (20) 
C[NH+](C)CC#CCN1CCCC1CO (protonated)
C[NH+](C)CC#CCN1CCC[C@@H]1CO (chirality)
C[NH+](C)CC#CCN1CCC[C@@H]1CO (3D coordinates assigned)
C[NH+](C)CC#CCN1CCC[C@@H]1CO (nonaromatic ring conformer: 29.101261956529843 kcal/mol)

>  <smiles>  (20) 
CN(C)CC#CCN1CCCC1CO

>  <score_type>  (20) 
oracle

>  <origin>  (20) 
adg

>  <m_score__min__energy>  (20) 
-4.4900000000000002

>  <m_primary>  (20) 
energy

$$$$
20:0
     RDKit          3D

 47 50  0  0  0  0  0  0  0  0999 V2000
   57.4180   33.2760   46.9590 C   0  0  0  0  0  0  0  0  0  0  0  0
   57.5700   32.6080   45.6290 C   0  0  0  0  0  0  0  0  0  0  0  0
   57.0620   31.3670   45.3930 N   0  0  0  0  0  0  0  0  0  0  0  0
   57.2950   30.9550   44.1260 C   0  0  0  0  0  0  0  0  0  0  0  0
   56.8280   29.6330   43.5830 C   0  0  0  0  0  0  0  0  0  0  0  0
   57.4380   28.4690   44.2630 N   0  0  0  0  0  0  0  0  0  0  0  0
   57.0210   28.3440   45.6770 C   0  0  0  0  0  0  0  0  0  0  0  0
   57.9350   27.3720   46.4330 C   0  0  0  0  0  0  0  0  0  0  0  0
   59.3470   27.8360   46.4580 N   0  0  0  0  0  0  0  0  0  0  0  0
   59.6660   28.5010   47.7390 C   0  0  0  0  0  0  0  0  0  0  0  0
   60.2090   29.8790   47.5110 C   0  0  0  0  0  0  0  0  0  0  0  0
   61.5200   30.1920   47.5820 N   0  0  0  0  0  0  0  0  0  0  0  0
   61.5000   31.5020   47.2550 C   0  0  0  0  0  0  0  0  0  0  0  0
   62.7180   32.3680   47.2060 C   0  0  0  0  0  0  0  0  0  0  0  0
   62.7130   33.5250   48.1940 C   0  0  0  0  0  0  0  0  0  0  0  0
   62.4610   33.7850   46.7180 C   0  0  0  0  0  0  0  0  0  0  0  0
   60.2820   31.9280   47.0140 O   0  0  0  0  0  0  0  0  0  0  0  0
   59.4600   30.9370   47.1580 N   0  0  0  0  0  0  0  0  0  0  0  0
   59.7070   28.6940   45.3000 C   0  0  0  0  0  0  0  0  0  0  0  0
   58.8990   28.3340   44.0430 C   0  0  0  0  0  0  0  0  0  0  0  0
   58.1530   32.1110   43.2500 S   0  0  0  0  0  0  0  0  0  0  0  0
   58.2220   33.1870   44.5410 C   0  0  0  0  0  0  0  0  0  0  0  0
   58.8690   34.5340   44.5040 C   0  0  0  0  0  0  0  0  0  0  0  0
   57.5853   32.5407   47.7599 H   0  0  0  0  0  0  0  0  0  0  0  0
   58.1542   34.0885   47.0475 H   0  0  0  0  0  0  0  0  0  0  0  0
   56.4027   33.6899   47.0475 H   0  0  0  0  0  0  0  0  0  0  0  0
   55.7361   29.5734   43.7021 H   0  0  0  0  0  0  0  0  0  0  0  0
   57.1345   29.5893   42.5275 H   0  0  0  0  0  0  0  0  0  0  0  0
   57.0718   29.3328   46.1563 H   0  0  0  0  0  0  0  0  0  0  0  0
   55.9925   27.9549   45.7071 H   0  0  0  0  0  0  0  0  0  0  0  0
   57.5742   27.2782   47.4679 H   0  0  0  0  0  0  0  0  0  0  0  0
   57.9059   26.4044   45.9106 H   0  0  0  0  0  0  0  0  0  0  0  0
   58.7507   28.5713   48.3450 H   0  0  0  0  0  0  0  0  0  0  0  0
   60.4303   27.9062   48.2606 H   0  0  0  0  0  0  0  0  0  0  0  0
   63.4271   31.5681   46.9465 H   0  0  0  0  0  0  0  0  0  0  0  0
   61.8914   33.6261   48.9184 H   0  0  0  0  0  0  0  0  0  0  0  0
   63.4204   33.9119   48.9423 H   0  0  0  0  0  0  0  0  0  0  0  0
   61.4570   34.0746   46.3743 H   0  0  0  0  0  0  0  0  0  0  0  0
   62.9106   34.4384   45.9558 H   0  0  0  0  0  0  0  0  0  0  0  0
   58.4250   30.9770   47.0190 H   0  0  0  0  0  0  0  0  0  0  0  0
   59.5087   29.7441   45.5609 H   0  0  0  0  0  0  0  0  0  0  0  0
   60.7721   28.5336   45.0766 H   0  0  0  0  0  0  0  0  0  0  0  0
   59.1982   29.0051   43.2244 H   0  0  0  0  0  0  0  0  0  0  0  0
   59.1091   27.2834   43.7938 H   0  0  0  0  0  0  0  0  0  0  0  0
   59.0388   34.8876   45.5317 H   0  0  0  0  0  0  0  0  0  0  0  0
   59.8317   34.4640   43.9765 H   0  0  0  0  0  0  0  0  0  0  0  0
   58.2126   35.2417   43.9765 H   0  0  0  0  0  0  0  0  0  0  0  0
  1  2  1  0
  2  3  1  0
  3  4  2  0
  4  5  1  0
  5  6  1  0
  6  7  1  0
  7  8  1  0
  8  9  1  0
  9 10  1  0
 10 11  1  0
 11 12  1  0
 12 13  2  0
 13 14  1  0
 14 15  1  0
 15 16  1  0
 13 17  1  0
 17 18  1  0
  9 19  1  0
 19 20  1  0
  4 21  1  0
 21 22  1  0
 22 23  1  0
 22  2  2  0
 20  6  1  0
 18 11  2  0
 16 14  1  0
  1 24  1  0
  1 25  1  0
  1 26  1  0
  5 27  1  0
  5 28  1  0
  7 29  1  0
  7 30  1  0
  8 31  1  0
  8 32  1  0
 10 33  1  0
 10 34  1  0
 14 35  1  0
 15 36  1  0
 15 37  1  0
 16 38  1  0
 16 39  1  0
 18 40  1  0
 19 41  1  0
 19 42  1  0
 20 43  1  0
 20 44  1  0
 23 45  1  0
 23 46  1  0
 23 47  1  0
M  CHG  1  18   1
M  END
>  <UniqueID>  (21) 
19

>  <SMILES>  (21) 
Cc1nc(CN2CCN(Cc3nc(C4CC4)o[nH+]3)CC2)sc1C

>  <Energy>  (21) 
384.8539694410587

>  <Genealogy>  (21) 
Cc1nc(CN2CCN(Cc3nc(C4CC4)o[nH+]3)CC2)sc1C (protonated)
Cc1nc(CN2CCN(Cc3nc(C4CC4)o[nH+]3)CC2)sc1C (3D coordinates assigned)
Cc1nc(CN2CCN(Cc3nc(C4CC4)o[nH+]3)CC2)sc1C (nonaromatic ring conformer: 384.8539694410587 kcal/mol)

>  <smiles>  (21) 
Cc1nc(CN2CCN(Cc3noc(C4CC4)n3)CC2)sc1C

>  <score_type>  (21) 
oracle

>  <origin>  (21) 
adg

>  <m_score__min__energy>  (21) 
-6.4900000000000002

>  <m_primary>  (21) 
energy

$$$$
21:0
     RDKit          3D

 44 47  0  0  0  0  0  0  0  0999 V2000
   57.3030   21.3170   43.3220 C   0  0  0  0  0  0  0  0  0  0  0  0
   57.6750   21.5620   44.7800 C   0  0  0  0  0  0  0  0  0  0  0  0
   57.6300   23.0320   45.1030 C   0  0  0  0  0  0  0  0  0  0  0  0
   58.7950   23.7080   45.4910 C   0  0  0  0  0  0  0  0  0  0  0  0
   58.7600   25.0800   45.7610 C   0  0  0  0  0  0  0  0  0  0  0  0
   57.5610   25.8030   45.6330 C   0  0  0  0  0  0  0  0  0  0  0  0
   57.5120   27.2570   45.9230 C   0  0  0  0  0  0  0  0  0  0  0  0
   57.7370   27.6630   47.0960 O   0  0  0  0  0  0  0  0  0  0  0  0
   57.1630   28.2020   44.8970 N   0  0  0  0  0  0  0  0  0  0  0  0
   57.4790   29.6030   44.9630 C   0  0  0  0  0  0  0  0  0  0  0  0
   56.7200   30.5150   44.2170 C   0  0  0  0  0  0  0  0  0  0  0  0
   57.0200   31.8770   44.2510 C   0  0  0  0  0  0  0  0  0  0  0  0
   58.0900   32.3430   45.0180 C   0  0  0  0  0  0  0  0  0  0  0  0
   58.8810   31.4460   45.7570 C   0  0  0  0  0  0  0  0  0  0  0  0
   60.0330   31.9180   46.5660 C   0  0  0  0  0  0  0  0  0  0  0  0
   60.1300   33.1300   47.2490 C   0  0  0  0  0  0  0  0  0  0  0  0
   61.3290   33.1460   47.8430 N   0  0  0  0  0  0  0  0  0  0  0  0
   61.9190   34.0850   48.6230 C   0  0  0  0  0  0  0  0  0  0  0  0
   63.2050   33.8140   49.1080 C   0  0  0  0  0  0  0  0  0  0  0  0
   63.8170   32.5910   48.7670 C   0  0  0  0  0  0  0  0  0  0  0  0
   63.1650   31.6890   47.9750 N   0  0  0  0  0  0  0  0  0  0  0  0
   61.9220   31.9880   47.5260 C   0  0  0  0  0  0  0  0  0  0  0  0
   61.1700   31.1940   46.7430 N   0  0  0  0  0  0  0  0  0  0  0  0
   58.5700   30.0730   45.7180 C   0  0  0  0  0  0  0  0  0  0  0  0
   56.3960   25.1200   45.2400 C   0  0  0  0  0  0  0  0  0  0  0  0
   56.4320   23.7490   44.9700 C   0  0  0  0  0  0  0  0  0  0  0  0
   56.3852   20.7125   43.2743 H   0  0  0  0  0  0  0  0  0  0  0  0
   57.1337   22.2809   42.8198 H   0  0  0  0  0  0  0  0  0  0  0  0
   58.1217   20.7808   42.8198 H   0  0  0  0  0  0  0  0  0  0  0  0
   56.9643   21.0283   45.4282 H   0  0  0  0  0  0  0  0  0  0  0  0
   58.6979   21.1946   44.9497 H   0  0  0  0  0  0  0  0  0  0  0  0
   59.7422   23.1564   45.5837 H   0  0  0  0  0  0  0  0  0  0  0  0
   59.6781   25.5975   46.0761 H   0  0  0  0  0  0  0  0  0  0  0  0
   56.5450   27.8770   44.1190 H   0  0  0  0  0  0  0  0  0  0  0  0
   55.8828   30.1547   43.6011 H   0  0  0  0  0  0  0  0  0  0  0  0
   56.4114   32.5867   43.6714 H   0  0  0  0  0  0  0  0  0  0  0  0
   58.3154   33.4193   45.0441 H   0  0  0  0  0  0  0  0  0  0  0  0
   59.3671   33.9213   47.2913 H   0  0  0  0  0  0  0  0  0  0  0  0
   61.4057   35.0269   48.8665 H   0  0  0  0  0  0  0  0  0  0  0  0
   63.7282   34.5432   49.7441 H   0  0  0  0  0  0  0  0  0  0  0  0
   64.8257   32.3615   49.1409 H   0  0  0  0  0  0  0  0  0  0  0  0
   59.1869   29.3596   46.2841 H   0  0  0  0  0  0  0  0  0  0  0  0
   55.4480   25.6697   45.1443 H   0  0  0  0  0  0  0  0  0  0  0  0
   55.5160   23.2298   44.6516 H   0  0  0  0  0  0  0  0  0  0  0  0
  1  2  1  0
  2  3  1  0
  3  4  2  0
  4  5  1  0
  5  6  2  0
  6  7  1  0
  7  8  2  0
  7  9  1  0
  9 10  1  0
 10 11  2  0
 11 12  1  0
 12 13  2  0
 13 14  1  0
 14 15  1  0
 15 16  2  0
 16 17  1  0
 17 18  1  0
 18 19  2  0
 19 20  1  0
 20 21  2  0
 21 22  1  0
 22 23  2  0
 14 24  2  0
  6 25  1  0
 25 26  2  0
 26  3  1  0
 24 10  1  0
 23 15  1  0
 22 17  1  0
  1 27  1  0
  1 28  1  0
  1 29  1  0
  2 30  1  0
  2 31  1  0
  4 32  1  0
  5 33  1  0
  9 34  1  0
 11 35  1  0
 12 36  1  0
 13 37  1  0
 16 38  1  0
 18 39  1  0
 19 40  1  0
 20 41  1  0
 24 42  1  0
 25 43  1  0
 26 44  1  0
M  END
>  <UniqueID>  (22) 
20

>  <SMILES>  (22) 
CCc1ccc(C(=O)Nc2cccc(-c3cn4cccnc4n3)c2)cc1

>  <Energy>  (22) 
88.30153192267656

>  <Genealogy>  (22) 
CCc1ccc(C(=O)Nc2cccc(-c3cn4cccnc4n3)c2)cc1 (3D coordinates assigned)
CCc1ccc(C(=O)Nc2cccc(-c3cn4cccnc4n3)c2)cc1 (optimized conformer: 88.30153192267656 kcal/mol)

>  <smiles>  (22) 
CCc1ccc(C(=O)Nc2cccc(-c3cn4cccnc4n3)c2)cc1

>  <score_type>  (22) 
oracle

>  <origin>  (22) 
adg

>  <m_score__min__energy>  (22) 
-8.0899999999999999

>  <m_primary>  (22) 
energy

$$$$
22:0
     RDKit          3D

 47 49  0  0  0  0  0  0  0  0999 V2000
   60.7430   27.6730   49.2190 C   0  0  0  0  0  0  0  0  0  0  0  0
   60.6940   27.5880   47.7990 O   0  0  0  0  0  0  0  0  0  0  0  0
   60.0190   28.5010   46.9730 C   0  0  0  0  0  0  0  0  0  0  0  0
   60.3470   28.6760   45.6160 C   0  0  0  0  0  0  0  0  0  0  0  0
   59.6440   29.6000   44.8350 C   0  0  0  0  0  0  0  0  0  0  0  0
   58.6120   30.3600   45.3990 C   0  0  0  0  0  0  0  0  0  0  0  0
   57.7020   31.5060   44.4160 S   0  0  0  0  0  0  0  0  0  0  0  0
   58.1230   31.3530   42.9820 O   0  0  0  0  0  0  0  0  0  0  0  0
   56.2300   31.2100   44.5180 O   0  0  0  0  0  0  0  0  0  0  0  0
   58.0230   33.1370   44.9540 N   0  0  0  0  0  0  0  0  0  0  0  0
   59.4450   33.2730   45.3320 C   0  0  0  0  0  0  0  0  0  0  0  0
   59.6570   34.4800   46.2550 C   0  0  0  0  0  0  0  0  0  0  0  0
   58.9120   34.3440   47.5390 N   0  0  0  0  0  0  0  0  0  0  0  0
   59.8150   33.8830   48.6220 C   0  0  0  0  0  0  0  0  0  0  0  0
   61.0610   33.2190   48.0790 C   0  0  0  0  0  0  0  0  0  0  0  0
   61.0580   31.8520   47.7540 C   0  0  0  0  0  0  0  0  0  0  0  0
   62.2200   31.2400   47.2760 C   0  0  0  0  0  0  0  0  0  0  0  0
   63.3930   31.9830   47.1230 C   0  0  0  0  0  0  0  0  0  0  0  0
   63.4060   33.3420   47.4490 C   0  0  0  0  0  0  0  0  0  0  0  0
   62.2460   33.9600   47.9270 C   0  0  0  0  0  0  0  0  0  0  0  0
   57.7210   33.4580   47.4240 C   0  0  0  0  0  0  0  0  0  0  0  0
   57.0820   33.5380   46.0280 C   0  0  0  0  0  0  0  0  0  0  0  0
   58.2810   30.1820   46.7480 C   0  0  0  0  0  0  0  0  0  0  0  0
   58.9820   29.2600   47.5290 C   0  0  0  0  0  0  0  0  0  0  0  0
   60.2389   26.7985   49.6563 H   0  0  0  0  0  0  0  0  0  0  0  0
   61.7921   27.6945   49.5491 H   0  0  0  0  0  0  0  0  0  0  0  0
   60.2359   28.5916   49.5491 H   0  0  0  0  0  0  0  0  0  0  0  0
   61.1588   28.0845   45.1676 H   0  0  0  0  0  0  0  0  0  0  0  0
   59.9031   29.7299   43.7739 H   0  0  0  0  0  0  0  0  0  0  0  0
   59.7670   32.3601   45.8544 H   0  0  0  0  0  0  0  0  0  0  0  0
   60.0373   33.4237   44.4174 H   0  0  0  0  0  0  0  0  0  0  0  0
   60.7305   34.5726   46.4763 H   0  0  0  0  0  0  0  0  0  0  0  0
   59.2769   35.3727   45.7367 H   0  0  0  0  0  0  0  0  0  0  0  0
   58.5720   35.3010   47.7970 H   0  0  0  0  0  0  0  0  0  0  0  0
   60.1115   34.7504   49.2301 H   0  0  0  0  0  0  0  0  0  0  0  0
   59.2706   33.1410   49.2245 H   0  0  0  0  0  0  0  0  0  0  0  0
   60.1380   31.2615   47.8762 H   0  0  0  0  0  0  0  0  0  0  0  0
   62.2109   30.1703   47.0196 H   0  0  0  0  0  0  0  0  0  0  0  0
   64.3059   31.4987   46.7461 H   0  0  0  0  0  0  0  0  0  0  0  0
   64.3301   33.9265   47.3294 H   0  0  0  0  0  0  0  0  0  0  0  0
   62.2609   35.0293   48.1848 H   0  0  0  0  0  0  0  0  0  0  0  0
   58.0299   32.4197   47.6151 H   0  0  0  0  0  0  0  0  0  0  0  0
   56.9751   33.7908   48.1608 H   0  0  0  0  0  0  0  0  0  0  0  0
   56.2083   32.8703   46.0002 H   0  0  0  0  0  0  0  0  0  0  0  0
   56.7940   34.5845   45.8494 H   0  0  0  0  0  0  0  0  0  0  0  0
   57.4659   30.7705   47.1944 H   0  0  0  0  0  0  0  0  0  0  0  0
   58.7174   29.1293   48.5887 H   0  0  0  0  0  0  0  0  0  0  0  0
  1  2  1  0
  2  3  1  0
  3  4  2  0
  4  5  1  0
  5  6  2  0
  6  7  1  0
  7  8  2  0
  7  9  2  0
  7 10  1  0
 10 11  1  0
 11 12  1  0
 12 13  1  0
 13 14  1  0
 14 15  1  0
 15 16  2  0
 16 17  1  0
 17 18  2  0
 18 19  1  0
 19 20  2  0
 13 21  1  0
 21 22  1  0
  6 23  1  0
 23 24  2  0
 24  3  1  0
 22 10  1  0
 20 15  1  0
  1 25  1  0
  1 26  1  0
  1 27  1  0
  4 28  1  0
  5 29  1  0
 11 30  1  0
 11 31  1  0
 12 32  1  0
 12 33  1  0
 13 34  1  0
 14 35  1  0
 14 36  1  0
 16 37  1  0
 17 38  1  0
 18 39  1  0
 19 40  1  0
 20 41  1  0
 21 42  1  0
 21 43  1  0
 22 44  1  0
 22 45  1  0
 23 46  1  0
 24 47  1  0
M  CHG  1  13   1
M  END
>  <UniqueID>  (23) 
21

>  <SMILES>  (23) 
COc1ccc(S(=O)(=O)N2CC[NH+](Cc3ccccc3)CC2)cc1

>  <Energy>  (23) 
59.22759899881897

>  <Genealogy>  (23) 
COc1ccc(S(=O)(=O)N2CC[NH+](Cc3ccccc3)CC2)cc1 (protonated)
COc1ccc(S(=O)(=O)N2CC[NH+](Cc3ccccc3)CC2)cc1 (3D coordinates assigned)
COc1ccc(S(=O)(=O)N2CC[NH+](Cc3ccccc3)CC2)cc1 (nonaromatic ring conformer: 59.22759899881897 kcal/mol)

>  <smiles>  (23) 
COc1ccc(S(=O)(=O)N2CCN(Cc3ccccc3)CC2)cc1

>  <score_type>  (23) 
oracle

>  <origin>  (23) 
adg

>  <m_score__min__energy>  (23) 
-6.6900000000000004

>  <m_primary>  (23) 
energy

$$$$
23:0
     RDKit          3D

 37 39  0  0  0  0  0  0  0  0999 V2000
   57.0800   29.8540   43.4340 C   0  0  0  0  0  0  0  0  0  0  0  0
   57.5630   30.8290   44.4800 C   0  0  0  0  0  0  0  0  0  0  0  0
   57.0170   32.1200   44.4990 C   0  0  0  0  0  0  0  0  0  0  0  0
   57.4260   33.0620   45.4470 C   0  0  0  0  0  0  0  0  0  0  0  0
   56.8800   34.3450   45.4300 O   0  0  0  0  0  0  0  0  0  0  0  0
   58.3910   32.7260   46.4050 C   0  0  0  0  0  0  0  0  0  0  0  0
   58.7810   33.7030   47.3820 N   0  0  0  0  0  0  0  0  0  0  0  0
   59.8000   34.7080   47.0870 C   0  0  0  0  0  0  0  0  0  0  0  0
   61.1640   34.1770   47.4450 C   0  0  0  0  0  0  0  0  0  0  0  0
   62.0710   33.8390   46.4270 C   0  0  0  0  0  0  0  0  0  0  0  0
   63.3120   33.2810   46.7430 C   0  0  0  0  0  0  0  0  0  0  0  0
   63.6540   33.0460   48.0780 C   0  0  0  0  0  0  0  0  0  0  0  0
   62.7540   33.3660   49.0970 C   0  0  0  0  0  0  0  0  0  0  0  0
   61.5100   33.9260   48.7860 C   0  0  0  0  0  0  0  0  0  0  0  0
   60.6440   34.2110   49.7910 F   0  0  0  0  0  0  0  0  0  0  0  0
   58.9610   31.4320   46.4060 C   0  0  0  0  0  0  0  0  0  0  0  0
   59.9230   31.0650   47.3710 C   0  0  0  0  0  0  0  0  0  0  0  0
   60.4680   29.7820   47.3780 C   0  0  0  0  0  0  0  0  0  0  0  0
   60.0680   28.8450   46.4290 C   0  0  0  0  0  0  0  0  0  0  0  0
   59.1150   29.1820   45.4680 C   0  0  0  0  0  0  0  0  0  0  0  0
   58.5440   30.4730   45.4400 C   0  0  0  0  0  0  0  0  0  0  0  0
   56.6436   28.9731   43.9275 H   0  0  0  0  0  0  0  0  0  0  0  0
   56.3174   30.3378   42.8061 H   0  0  0  0  0  0  0  0  0  0  0  0
   57.9270   29.5405   42.8061 H   0  0  0  0  0  0  0  0  0  0  0  0
   56.2544   32.3961   43.7559 H   0  0  0  0  0  0  0  0  0  0  0  0
   56.0710   34.5880   45.9900 H   0  0  0  0  0  0  0  0  0  0  0  0
   58.1820   33.8370   48.2280 H   0  0  0  0  0  0  0  0  0  0  0  0
   59.7732   34.9505   46.0144 H   0  0  0  0  0  0  0  0  0  0  0  0
   59.5974   35.6131   47.6784 H   0  0  0  0  0  0  0  0  0  0  0  0
   61.8024   34.0148   45.3749 H   0  0  0  0  0  0  0  0  0  0  0  0
   64.0205   33.0264   45.9410 H   0  0  0  0  0  0  0  0  0  0  0  0
   64.6325   32.6088   48.3260 H   0  0  0  0  0  0  0  0  0  0  0  0
   63.0238   33.1773   50.1466 H   0  0  0  0  0  0  0  0  0  0  0  0
   60.2458   31.7982   48.1248 H   0  0  0  0  0  0  0  0  0  0  0  0
   61.2168   29.5088   48.1361 H   0  0  0  0  0  0  0  0  0  0  0  0
   60.5050   27.8356   46.4372 H   0  0  0  0  0  0  0  0  0  0  0  0
   58.8048   28.4338   44.7237 H   0  0  0  0  0  0  0  0  0  0  0  0
  1  2  1  0
  2  3  2  0
  3  4  1  0
  4  5  1  0
  4  6  2  0
  6  7  1  0
  7  8  1  0
  8  9  1  0
  9 10  2  0
 10 11  1  0
 11 12  2  0
 12 13  1  0
 13 14  2  0
 14 15  1  0
  6 16  1  0
 16 17  2  0
 17 18  1  0
 18 19  2  0
 19 20  1  0
 20 21  2  0
 21  2  1  0
 14  9  1  0
 21 16  1  0
  1 22  1  0
  1 23  1  0
  1 24  1  0
  3 25  1  0
  5 26  1  0
  7 27  1  0
  8 28  1  0
  8 29  1  0
 10 30  1  0
 11 31  1  0
 12 32  1  0
 13 33  1  0
 17 34  1  0
 18 35  1  0
 19 36  1  0
 20 37  1  0
M  END
>  <UniqueID>  (24) 
22

>  <SMILES>  (24) 
Cc1cc(O)c(NCc2ccccc2F)c2ccccc12

>  <Energy>  (24) 
48.1501730132133

>  <Genealogy>  (24) 
Cc1cc(O)c(NCc2ccccc2F)c2ccccc12 (3D coordinates assigned)
Cc1cc(O)c(NCc2ccccc2F)c2ccccc12 (optimized conformer: 48.1501730132133 kcal/mol)

>  <smiles>  (24) 
Cc1cc(O)c(NCc2ccccc2F)c2ccccc12

>  <score_type>  (24) 
oracle

>  <origin>  (24) 
adg

>  <m_score__min__energy>  (24) 
-7.3300000000000001

>  <m_primary>  (24) 
energy

$$$$
24:0
     RDKit          3D

 36 37  0  0  0  0  0  0  0  0999 V2000
   57.5730   27.9380   45.1110 C   0  0  0  0  0  0  0  0  0  0  0  0
   57.4290   28.6300   43.7560 C   0  0  0  0  0  0  0  0  0  0  0  0
   56.2040   29.5470   43.7030 C   0  0  0  0  0  0  0  0  0  0  0  0
   56.1880   30.4450   44.8700 N   0  0  0  0  0  0  0  0  0  0  0  0
   56.6490   31.7940   44.5220 C   0  0  0  0  0  0  0  0  0  0  0  0
   57.8570   32.1440   45.3460 C   0  0  0  0  0  0  0  0  0  0  0  0
   58.7070   31.1350   45.8220 C   0  0  0  0  0  0  0  0  0  0  0  0
   59.8500   31.4640   46.5580 C   0  0  0  0  0  0  0  0  0  0  0  0
   60.1690   32.8080   46.8190 C   0  0  0  0  0  0  0  0  0  0  0  0
   61.3840   33.1570   47.5990 C   0  0  0  0  0  0  0  0  0  0  0  0
   62.6600   32.7700   47.1480 C   0  0  0  0  0  0  0  0  0  0  0  0
   63.8030   33.0990   47.8850 C   0  0  0  0  0  0  0  0  0  0  0  0
   63.6850   33.8210   49.0750 C   0  0  0  0  0  0  0  0  0  0  0  0
   62.4250   34.2120   49.5330 C   0  0  0  0  0  0  0  0  0  0  0  0
   61.2790   33.8840   48.8010 C   0  0  0  0  0  0  0  0  0  0  0  0
   59.3220   33.8170   46.3250 C   0  0  0  0  0  0  0  0  0  0  0  0
   58.1790   33.4860   45.5900 C   0  0  0  0  0  0  0  0  0  0  0  0
   57.4202   28.6722   45.9157 H   0  0  0  0  0  0  0  0  0  0  0  0
   56.8219   27.1389   45.1963 H   0  0  0  0  0  0  0  0  0  0  0  0
   58.5805   27.5048   45.1963 H   0  0  0  0  0  0  0  0  0  0  0  0
   58.3304   29.2316   43.5678 H   0  0  0  0  0  0  0  0  0  0  0  0
   57.3012   27.8506   42.9903 H   0  0  0  0  0  0  0  0  0  0  0  0
   56.2402   30.1484   42.7826 H   0  0  0  0  0  0  0  0  0  0  0  0
   55.2937   28.9296   43.7136 H   0  0  0  0  0  0  0  0  0  0  0  0
   55.2040   30.5200   45.2200 H   0  0  0  0  0  0  0  0  0  0  0  0
   56.9124   31.8265   43.4545 H   0  0  0  0  0  0  0  0  0  0  0  0
   55.8462   32.5177   44.7261 H   0  0  0  0  0  0  0  0  0  0  0  0
   58.4737   30.0800   45.6155 H   0  0  0  0  0  0  0  0  0  0  0  0
   60.5046   30.6647   46.9356 H   0  0  0  0  0  0  0  0  0  0  0  0
   62.7593   32.2049   46.2095 H   0  0  0  0  0  0  0  0  0  0  0  0
   64.7957   32.7887   47.5269 H   0  0  0  0  0  0  0  0  0  0  0  0
   64.5848   34.0816   49.6515 H   0  0  0  0  0  0  0  0  0  0  0  0
   62.3335   34.7790   50.4712 H   0  0  0  0  0  0  0  0  0  0  0  0
   60.2894   34.1958   49.1664 H   0  0  0  0  0  0  0  0  0  0  0  0
   59.5603   34.8734   46.5181 H   0  0  0  0  0  0  0  0  0  0  0  0
   57.5290   34.2837   45.2012 H   0  0  0  0  0  0  0  0  0  0  0  0
  1  2  1  0
  2  3  1  0
  3  4  1  0
  4  5  1  0
  5  6  1  0
  6  7  2  0
  7  8  1  0
  8  9  2  0
  9 10  1  0
 10 11  2  0
 11 12  1  0
 12 13  2  0
 13 14  1  0
 14 15  2  0
  9 16  1  0
 16 17  2  0
 17  6  1  0
 15 10  1  0
  1 18  1  0
  1 19  1  0
  1 20  1  0
  2 21  1  0
  2 22  1  0
  3 23  1  0
  3 24  1  0
  4 25  1  0
  5 26  1  0
  5 27  1  0
  7 28  1  0
  8 29  1  0
 11 30  1  0
 12 31  1  0
 13 32  1  0
 14 33  1  0
 15 34  1  0
 16 35  1  0
 17 36  1  0
M  END
>  <UniqueID>  (25) 
23

>  <SMILES>  (25) 
CCCNCc1ccc(-c2ccccc2)cc1

>  <Energy>  (25) 
36.627680528899674

>  <Genealogy>  (25) 
CCCNCc1ccc(-c2ccccc2)cc1 (3D coordinates assigned)
CCCNCc1ccc(-c2ccccc2)cc1 (optimized conformer: 36.627680528899674 kcal/mol)

>  <smiles>  (25) 
CCCNCc1ccc(-c2ccccc2)cc1

>  <score_type>  (25) 
oracle

>  <origin>  (25) 
adg

>  <m_score__min__energy>  (25) 
-6.5300000000000002

>  <m_primary>  (25) 
energy

$$$$
25:0
     RDKit          3D

 38 39  0  0  0  0  0  0  0  0999 V2000
   59.4520   29.8390   46.7300 C   0  0  0  0  0  0  0  0  0  0  0  0
   58.7020   29.6320   45.4210 C   0  0  0  0  0  0  0  0  0  0  0  0
   57.3640   30.1140   45.5290 O   0  0  0  0  0  0  0  0  0  0  0  0
   56.7040   30.8150   44.5120 C   0  0  0  0  0  0  0  0  0  0  0  0
   55.5340   30.4900   44.1750 O   0  0  0  0  0  0  0  0  0  0  0  0
   57.3410   31.9720   43.8520 C   0  0  0  0  0  0  0  0  0  0  0  0
   57.5500   33.1710   44.4210 C   0  0  0  0  0  0  0  0  0  0  0  0
   58.4710   33.4160   45.5470 C   0  0  0  0  0  0  0  0  0  0  0  0
   59.6990   34.0980   45.3450 C   0  0  0  0  0  0  0  0  0  0  0  0
   60.5890   34.3010   46.4140 C   0  0  0  0  0  0  0  0  0  0  0  0
   60.2140   33.8340   47.6750 C   0  0  0  0  0  0  0  0  0  0  0  0
   59.0110   33.2080   47.8770 C   0  0  0  0  0  0  0  0  0  0  0  0
   58.9520   32.8380   49.2050 C   0  0  0  0  0  0  0  0  0  0  0  0
   60.1570   33.2610   49.7580 C   0  0  0  0  0  0  0  0  0  0  0  0
   60.9210   33.8730   48.8220 N   0  0  0  0  0  0  0  0  0  0  0  0
   62.2860   34.3660   49.0100 C   0  0  0  0  0  0  0  0  0  0  0  0
   63.2700   33.4920   48.2900 C   0  0  0  0  0  0  0  0  0  0  0  0
   63.6720   33.8280   47.1430 O   0  0  0  0  0  0  0  0  0  0  0  0
   63.7630   32.3350   48.9060 O   0  0  0  0  0  0  0  0  0  0  0  0
   64.9050   32.3450   49.7540 C   0  0  0  0  0  0  0  0  0  0  0  0
   58.1080   32.9900   46.8410 C   0  0  0  0  0  0  0  0  0  0  0  0
   58.7732   29.6517   47.5751 H   0  0  0  0  0  0  0  0  0  0  0  0
   60.3012   29.1417   46.7802 H   0  0  0  0  0  0  0  0  0  0  0  0
   59.8233   30.8732   46.7802 H   0  0  0  0  0  0  0  0  0  0  0  0
   59.2192   30.1771   44.6176 H   0  0  0  0  0  0  0  0  0  0  0  0
   58.6747   28.5561   45.1935 H   0  0  0  0  0  0  0  0  0  0  0  0
   57.6710   31.8418   42.8108 H   0  0  0  0  0  0  0  0  0  0  0  0
   56.9949   34.0312   44.0186 H   0  0  0  0  0  0  0  0  0  0  0  0
   59.9568   34.4712   44.3428 H   0  0  0  0  0  0  0  0  0  0  0  0
   61.5511   34.8120   46.2616 H   0  0  0  0  0  0  0  0  0  0  0  0
   58.1283   32.3193   49.7173 H   0  0  0  0  0  0  0  0  0  0  0  0
   60.4484   33.1182   50.8090 H   0  0  0  0  0  0  0  0  0  0  0  0
   62.3573   35.3905   48.6159 H   0  0  0  0  0  0  0  0  0  0  0  0
   62.5217   34.3528   50.0844 H   0  0  0  0  0  0  0  0  0  0  0  0
   64.5811   32.3422   50.8052 H   0  0  0  0  0  0  0  0  0  0  0  0
   65.5164   31.4522   49.5563 H   0  0  0  0  0  0  0  0  0  0  0  0
   65.5006   33.2484   49.5563 H   0  0  0  0  0  0  0  0  0  0  0  0
   57.1406   32.5003   47.0260 H   0  0  0  0  0  0  0  0  0  0  0  0
  1  2  1  0
  2  3  1  0
  3  4  1  0
  4  5  2  0
  4  6  1  0
  6  7  2  3
  7  8  1  0
  8  9  2  0
  9 10  1  0
 10 11  2  0
 11 12  1  0
 12 13  1  0
 13 14  2  0
 14 15  1  0
 15 16  1  0
 16 17  1  0
 17 18  2  0
 17 19  1  0
 19 20  1  0
 12 21  2  0
 21  8  1  0
 15 11  1  0
  1 22  1  0
  1 23  1  0
  1 24  1  0
  2 25  1  0
  2 26  1  0
  6 27  1  0
  7 28  1  0
  9 29  1  0
 10 30  1  0
 13 31  1  0
 14 32  1  0
 16 33  1  0
 16 34  1  0
 20 35  1  0
 20 36  1  0
 20 37  1  0
 21 38  1  0
M  END
>  <UniqueID>  (26) 
24

>  <SMILES>  (26) 
CCOC(=O)C=Cc1ccc2c(ccn2CC(=O)OC)c1

>  <Energy>  (26) 
69.1875897055674

>  <Genealogy>  (26) 
CCOC(=O)C=Cc1ccc2c(ccn2CC(=O)OC)c1 (3D coordinates assigned)
CCOC(=O)C=Cc1ccc2c(ccn2CC(=O)OC)c1 (optimized conformer: 69.1875897055674 kcal/mol)

>  <smiles>  (26) 
CCOC(=O)C=Cc1ccc2c(ccn2CC(=O)OC)c1

>  <score_type>  (26) 
oracle

>  <origin>  (26) 
adg

>  <m_score__min__energy>  (26) 
-6.6200000000000001

>  <m_primary>  (26) 
energy

$$$$
26:0
     RDKit          3D

 36 38  0  0  0  0  0  0  0  0999 V2000
   57.8243   32.6153   42.9947 H   0  0  0  0  0  0  0  0  0  0  0  0
   57.4040   31.7210   43.4780 C   0  0  0  0  0  0  0  0  0  0  0  0
   56.7040   30.8130   42.7470 N   0  0  0  0  0  0  0  0  0  0  0  0
   56.1770   29.7000   43.3160 C   0  0  0  0  0  0  0  0  0  0  0  0
   55.6078   28.9823   42.7070 H   0  0  0  0  0  0  0  0  0  0  0  0
   56.3630   29.4730   44.6810 C   0  0  0  0  0  0  0  0  0  0  0  0
   55.8690   28.4030   45.2340 N   0  0  0  0  0  0  0  0  0  0  0  0
   56.6460   27.2240   45.6200 C   0  0  0  0  0  0  0  0  0  0  0  0
   56.1313   26.3227   45.2557 H   0  0  0  0  0  0  0  0  0  0  0  0
   56.7310   27.2127   46.7167 H   0  0  0  0  0  0  0  0  0  0  0  0
   58.0650   27.2610   45.0290 C   0  0  0  0  0  0  0  0  0  0  0  0
   58.0317   27.8198   44.0821 H   0  0  0  0  0  0  0  0  0  0  0  0
   58.3816   26.2166   44.8911 H   0  0  0  0  0  0  0  0  0  0  0  0
   59.1040   27.9260   45.9480 C   0  0  0  0  0  0  0  0  0  0  0  0
   59.6744   27.1382   46.4617 H   0  0  0  0  0  0  0  0  0  0  0  0
   58.5580   28.5634   46.6590 H   0  0  0  0  0  0  0  0  0  0  0  0
   60.0830   28.8200   45.1850 C   0  0  0  0  0  0  0  0  0  0  0  0
   60.6997   29.3831   45.9010 H   0  0  0  0  0  0  0  0  0  0  0  0
   60.7323   28.1967   44.5527 H   0  0  0  0  0  0  0  0  0  0  0  0
   59.5210   29.5231   44.5527 H   0  0  0  0  0  0  0  0  0  0  0  0
   57.0620   30.3840   45.4130 N   0  0  0  0  0  0  0  0  0  0  0  0
   57.5870   31.5090   44.8560 C   0  0  0  0  0  0  0  0  0  0  0  0
   58.3470   32.4590   45.7090 C   0  0  0  0  0  0  0  0  0  0  0  0
   58.5530   33.7940   45.2650 C   0  0  0  0  0  0  0  0  0  0  0  0
   58.1417   34.1140   44.2963 H   0  0  0  0  0  0  0  0  0  0  0  0
   59.2760   34.7100   46.0490 C   0  0  0  0  0  0  0  0  0  0  0  0
   59.4321   35.7454   45.7121 H   0  0  0  0  0  0  0  0  0  0  0  0
   59.7870   34.2670   47.2620 C   0  0  0  0  0  0  0  0  0  0  0  0
   59.6080   32.9940   47.6940 C   0  0  0  0  0  0  0  0  0  0  0  0
   58.8990   32.0540   46.9510 C   0  0  0  0  0  0  0  0  0  0  0  0
   58.7704   31.0248   47.3174 H   0  0  0  0  0  0  0  0  0  0  0  0
   60.2280   32.8310   48.9170 O   0  0  0  0  0  0  0  0  0  0  0  0
   60.8320   34.0820   49.2780 C   0  0  0  0  0  0  0  0  0  0  0  0
   60.4051   34.4599   50.2187 H   0  0  0  0  0  0  0  0  0  0  0  0
   61.9158   33.9853   49.4395 H   0  0  0  0  0  0  0  0  0  0  0  0
   60.5270   34.9700   48.1940 O   0  0  0  0  0  0  0  0  0  0  0  0
  1  2  1  0
  2  3  1  0
  3  4  2  0
  4  5  1  0
  4  6  1  0
  6  7  2  0
  7  8  1  0
  8  9  1  0
  8 10  1  0
  8 11  1  0
 11 12  1  0
 11 13  1  0
 11 14  1  0
 14 15  1  0
 14 16  1  0
 14 17  1  0
 17 18  1  0
 17 19  1  0
 17 20  1  0
  6 21  1  0
 21 22  1  0
 22 23  1  0
 23 24  2  0
 24 25  1  0
 24 26  1  0
 26 27  1  0
 26 28  2  0
 28 29  1  0
 29 30  2  0
 30 31  1  0
 29 32  1  0
 32 33  1  0
 33 34  1  0
 33 35  1  0
 33 36  1  0
 22  2  2  0
 30 23  1  0
 36 28  1  0
M  CHG  1  21  -1
M  END
>  <UniqueID>  (27) 
25

>  <SMILES>  (27) 
CCCC/N=c1/cncc(-c2ccc3c(c2)OCO3)[n-]1

>  <Energy>  (27) 
65.0223960270567

>  <Genealogy>  (27) 
CCCCN=c1cncc(-c2ccc3c(c2)OCO3)[n-]1 (protonated)
CCCC/N=c1/cncc(-c2ccc3c(c2)OCO3)[n-]1 (cis-trans isomerization)
CCCC/N=c1/cncc(-c2ccc3c(c2)OCO3)[n-]1 (3D coordinates assigned)
CCCC/N=c1/cncc(-c2ccc3c(c2)OCO3)[n-]1 (nonaromatic ring conformer: 65.0223960270567 kcal/mol)

>  <smiles>  (27) 
CCCCN=c1cncc(-c2ccc3c(c2)OCO3)[nH]1

>  <score_type>  (27) 
oracle

>  <origin>  (27) 
adg

>  <m_score__min__energy>  (27) 
-8.1600000000000001

>  <m_primary>  (27) 
energy

$$$$
27:0
     RDKit          3D

 38 40  0  0  0  0  0  0  0  0999 V2000
   60.1495   34.8117   49.8043 H   0  0  0  0  0  0  0  0  0  0  0  0
   60.6440   34.2360   49.0080 C   0  0  0  0  0  0  0  0  0  0  0  0
   59.9180   33.9120   47.9300 C   0  0  0  0  0  0  0  0  0  0  0  0
   59.5290   32.6000   47.6460 O   0  0  0  0  0  0  0  0  0  0  0  0
   58.8050   32.6290   46.4570 C   0  0  0  0  0  0  0  0  0  0  0  0
   58.2180   31.5450   45.8080 C   0  0  0  0  0  0  0  0  0  0  0  0
   58.2883   30.5324   46.2319 H   0  0  0  0  0  0  0  0  0  0  0  0
   57.5330   31.7710   44.5990 C   0  0  0  0  0  0  0  0  0  0  0  0
   56.9370   30.6750   43.9580 O   0  0  0  0  0  0  0  0  0  0  0  0
   56.5080   29.4990   44.5890 C   0  0  0  0  0  0  0  0  0  0  0  0
   55.2890   29.3360   44.8740 O   0  0  0  0  0  0  0  0  0  0  0  0
   57.4540   28.4520   44.8620 N   0  0  0  0  0  0  0  0  0  0  0  0
   58.8610   28.6460   44.5030 C   0  0  0  0  0  0  0  0  0  0  0  0
   59.4649   28.7293   45.4186 H   0  0  0  0  0  0  0  0  0  0  0  0
   59.2100   27.7875   43.9104 H   0  0  0  0  0  0  0  0  0  0  0  0
   58.9646   29.5669   43.9104 H   0  0  0  0  0  0  0  0  0  0  0  0
   57.0060   27.2110   45.4990 C   0  0  0  0  0  0  0  0  0  0  0  0
   57.0470   27.3245   46.5924 H   0  0  0  0  0  0  0  0  0  0  0  0
   55.9725   26.9933   45.1915 H   0  0  0  0  0  0  0  0  0  0  0  0
   57.6621   26.3834   45.1915 H   0  0  0  0  0  0  0  0  0  0  0  0
   57.4320   33.0930   44.0860 C   0  0  0  0  0  0  0  0  0  0  0  0
   56.8789   33.2744   43.1526 H   0  0  0  0  0  0  0  0  0  0  0  0
   58.0320   34.1700   44.7600 C   0  0  0  0  0  0  0  0  0  0  0  0
   57.9660   35.1939   44.3633 H   0  0  0  0  0  0  0  0  0  0  0  0
   58.7120   33.9030   45.9440 C   0  0  0  0  0  0  0  0  0  0  0  0
   59.4250   34.7810   46.8510 C   0  0  0  0  0  0  0  0  0  0  0  0
   59.6440   36.0090   46.6820 O   0  0  0  0  0  0  0  0  0  0  0  0
   62.0610   33.8740   49.2010 C   0  0  0  0  0  0  0  0  0  0  0  0
   62.8050   33.4060   48.1070 C   0  0  0  0  0  0  0  0  0  0  0  0
   62.3387   33.3472   47.1125 H   0  0  0  0  0  0  0  0  0  0  0  0
   64.1370   33.0140   48.2760 C   0  0  0  0  0  0  0  0  0  0  0  0
   64.7205   32.6630   47.4121 H   0  0  0  0  0  0  0  0  0  0  0  0
   64.7270   33.0680   49.5420 C   0  0  0  0  0  0  0  0  0  0  0  0
   65.7772   32.7680   49.6724 H   0  0  0  0  0  0  0  0  0  0  0  0
   63.9830   33.5030   50.6420 C   0  0  0  0  0  0  0  0  0  0  0  0
   64.4456   33.5371   51.6394 H   0  0  0  0  0  0  0  0  0  0  0  0
   62.6510   33.8950   50.4760 C   0  0  0  0  0  0  0  0  0  0  0  0
   62.0630   34.2209   51.3467 H   0  0  0  0  0  0  0  0  0  0  0  0
  1  2  1  0
  2  3  2  0
  3  4  1  0
  4  5  1  0
  5  6  2  0
  6  7  1  0
  6  8  1  0
  8  9  1  0
  9 10  1  0
 10 11  2  0
 10 12  1  0
 12 13  1  0
 13 14  1  0
 13 15  1  0
 13 16  1  0
 12 17  1  0
 17 18  1  0
 17 19  1  0
 17 20  1  0
  8 21  2  0
 21 22  1  0
 21 23  1  0
 23 24  1  0
 23 25  2  0
 25 26  1  0
 26 27  2  0
  2 28  1  0
 28 29  2  0
 29 30  1  0
 29 31  1  0
 31 32  1  0
 31 33  2  0
 33 34  1  0
 33 35  1  0
 35 36  1  0
 35 37  2  0
 37 38  1  0
 26  3  1  0
 37 28  1  0
 25  5  1  0
M  END
>  <UniqueID>  (28) 
26

>  <SMILES>  (28) 
CN(C)C(=O)Oc1ccc2c(c1)O/C(=C/c1ccccc1)C2=O

>  <Energy>  (28) 
79.3893671866937

>  <Genealogy>  (28) 
CN(C)C(=O)Oc1ccc2c(c1)O/C(=C/c1ccccc1)C2=O (cis-trans isomerization)
CN(C)C(=O)Oc1ccc2c(c1)O/C(=C/c1ccccc1)C2=O (3D coordinates assigned)
CN(C)C(=O)Oc1ccc2c(c1)O/C(=C/c1ccccc1)C2=O (nonaromatic ring conformer: 79.3893671866937 kcal/mol)

>  <smiles>  (28) 
CN(C)C(=O)Oc1ccc2c(c1)OC(=Cc1ccccc1)C2=O

>  <score_type>  (28) 
oracle

>  <origin>  (28) 
adg

>  <m_score__min__energy>  (28) 
-7.7300000000000004

>  <m_primary>  (28) 
energy

$$$$
28:0
     RDKit          3D

 48 51  0  0  0  0  0  0  0  0999 V2000
   58.0760   27.3040   43.0970 C   0  0  0  0  0  0  0  0  0  0  0  0
   57.6350   28.6200   43.5510 N   0  0  0  0  0  0  0  0  0  0  0  0
   56.6410   29.3400   42.9940 C   0  0  0  0  0  0  0  0  0  0  0  0
   56.5680   30.5820   43.5880 C   0  0  0  0  0  0  0  0  0  0  0  0
   57.5690   30.6270   44.5370 C   0  0  0  0  0  0  0  0  0  0  0  0
   58.2030   29.3970   44.5020 C   0  0  0  0  0  0  0  0  0  0  0  0
   59.4010   29.0150   45.3400 C   0  0  0  0  0  0  0  0  0  0  0  0
   59.0660   28.3030   46.5940 N   0  0  0  0  0  0  0  0  0  0  0  0
   60.0580   27.3260   47.0770 C   0  0  0  0  0  0  0  0  0  0  0  0
   59.9540   25.9670   46.3700 C   0  0  0  0  0  0  0  0  0  0  0  0
   58.5390   25.5410   46.1110 C   0  0  0  0  0  0  0  0  0  0  0  0
   58.3140   24.2770   45.6700 N   0  0  0  0  0  0  0  0  0  0  0  0
   57.0640   23.8390   45.3670 C   0  0  0  0  0  0  0  0  0  0  0  0
   56.8370   22.4210   44.8990 C   0  0  0  0  0  0  0  0  0  0  0  0
   55.5330   21.8500   45.4870 C   0  0  0  0  0  0  0  0  0  0  0  0
   55.6440   21.5250   46.9940 C   0  0  0  0  0  0  0  0  0  0  0  0
   57.0330   21.3200   47.4440 N   0  0  0  0  0  0  0  0  0  0  0  0
   57.8280   20.6100   46.4380 C   0  0  0  0  0  0  0  0  0  0  0  0
   58.0480   21.5020   45.2040 C   0  0  0  0  0  0  0  0  0  0  0  0
   56.0050   24.6760   45.5200 N   0  0  0  0  0  0  0  0  0  0  0  0
   56.1730   25.9540   45.9450 C   0  0  0  0  0  0  0  0  0  0  0  0
   55.1640   26.6980   46.0750 O   0  0  0  0  0  0  0  0  0  0  0  0
   57.4610   26.4350   46.2330 C   0  0  0  0  0  0  0  0  0  0  0  0
   57.6690   27.8480   46.7280 C   0  0  0  0  0  0  0  0  0  0  0  0
   58.2892   26.6679   43.9687 H   0  0  0  0  0  0  0  0  0  0  0  0
   57.2839   26.8410   42.4902 H   0  0  0  0  0  0  0  0  0  0  0  0
   58.9871   27.4118   42.4902 H   0  0  0  0  0  0  0  0  0  0  0  0
   55.9845   28.9883   42.1845 H   0  0  0  0  0  0  0  0  0  0  0  0
   55.8510   31.3819   43.3514 H   0  0  0  0  0  0  0  0  0  0  0  0
   57.8150   31.4749   45.1932 H   0  0  0  0  0  0  0  0  0  0  0  0
   60.0496   28.3630   44.7365 H   0  0  0  0  0  0  0  0  0  0  0  0
   59.8925   29.9544   45.6331 H   0  0  0  0  0  0  0  0  0  0  0  0
   61.0648   27.7345   46.9053 H   0  0  0  0  0  0  0  0  0  0  0  0
   59.8605   27.1571   48.1459 H   0  0  0  0  0  0  0  0  0  0  0  0
   60.4809   26.0331   45.4066 H   0  0  0  0  0  0  0  0  0  0  0  0
   60.4038   25.2168   47.0370 H   0  0  0  0  0  0  0  0  0  0  0  0
   56.7327   22.4513   43.8044 H   0  0  0  0  0  0  0  0  0  0  0  0
   54.7310   22.5894   45.3456 H   0  0  0  0  0  0  0  0  0  0  0  0
   55.3188   20.9079   44.9612 H   0  0  0  0  0  0  0  0  0  0  0  0
   55.2115   22.3602   47.5644 H   0  0  0  0  0  0  0  0  0  0  0  0
   55.1028   20.5829   47.1656 H   0  0  0  0  0  0  0  0  0  0  0  0
   57.0120   20.7380   48.3140 H   0  0  0  0  0  0  0  0  0  0  0  0
   58.8033   20.3412   46.8699 H   0  0  0  0  0  0  0  0  0  0  0  0
   57.2883   19.7019   46.1313 H   0  0  0  0  0  0  0  0  0  0  0  0
   58.9316   22.1330   45.3803 H   0  0  0  0  0  0  0  0  0  0  0  0
   58.1846   20.8382   44.3375 H   0  0  0  0  0  0  0  0  0  0  0  0
   57.0229   28.5223   46.1467 H   0  0  0  0  0  0  0  0  0  0  0  0
   57.4180   27.8631   47.7989 H   0  0  0  0  0  0  0  0  0  0  0  0
  1  2  1  0
  2  3  1  0
  3  4  2  0
  4  5  1  0
  5  6  2  0
  6  7  1  0
  7  8  1  0
  8  9  1  0
  9 10  1  0
 10 11  1  0
 11 12  1  0
 12 13  1  0
 13 14  1  0
 14 15  1  0
 15 16  1  0
 16 17  1  0
 17 18  1  0
 18 19  1  0
 13 20  2  0
 20 21  1  0
 21 22  2  0
 21 23  1  0
 23 24  1  0
  6  2  1  0
 24  8  1  0
 23 11  2  0
 19 14  1  0
  1 25  1  0
  1 26  1  0
  1 27  1  0
  3 28  1  0
  4 29  1  0
  5 30  1  0
  7 31  1  0
  7 32  1  0
  9 33  1  0
  9 34  1  0
 10 35  1  0
 10 36  1  0
 14 37  1  0
 15 38  1  0
 15 39  1  0
 16 40  1  0
 16 41  1  0
 17 42  1  0
 18 43  1  0
 18 44  1  0
 19 45  1  0
 19 46  1  0
 24 47  1  0
 24 48  1  0
M  CHG  1  12  -1
M  END
>  <UniqueID>  (29) 
27

>  <SMILES>  (29) 
Cn1cccc1CN1CCc2[n-]c(C3CCNCC3)nc(=O)c2C1

>  <Energy>  (29) 
89.7864123099316

>  <Genealogy>  (29) 
Cn1cccc1CN1CCc2[n-]c(C3CCNCC3)nc(=O)c2C1 (protonated)
Cn1cccc1CN1CCc2[n-]c(C3CCNCC3)nc(=O)c2C1 (3D coordinates assigned)
Cn1cccc1CN1CCc2[n-]c(C3CCNCC3)nc(=O)c2C1 (nonaromatic ring conformer: 89.7864123099316 kcal/mol)

>  <smiles>  (29) 
Cn1cccc1CN1CCc2[nH]c(C3CCNCC3)nc(=O)c2C1

>  <score_type>  (29) 
oracle

>  <origin>  (29) 
adg

>  <m_score__min__energy>  (29) 
-9.1999999999999993

>  <m_primary>  (29) 
energy

$$$$
29:0
     RDKit          3D

 25 26  0  0  0  0  0  0  0  0999 V2000
   54.4620   23.6230   45.4370 C   0  0  0  0  0  0  0  0  0  0  0  0
   55.2450   23.7540   46.7390 C   0  0  0  0  0  0  0  0  0  0  0  0
   56.2610   24.8490   46.6360 C   0  0  0  0  0  0  0  0  0  0  0  0
   57.5900   24.6630   46.7880 N   0  0  0  0  0  0  0  0  0  0  0  0
   58.1140   25.8850   46.5420 C   0  0  0  0  0  0  0  0  0  0  0  0
   59.3490   26.1190   46.6160 O   0  0  0  0  0  0  0  0  0  0  0  0
   57.1890   26.8230   46.2350 N   0  0  0  0  0  0  0  0  0  0  0  0
   57.4010   28.2090   45.9090 C   0  0  0  0  0  0  0  0  0  0  0  0
   58.3290   28.9770   46.6340 C   0  0  0  0  0  0  0  0  0  0  0  0
   58.5350   30.3240   46.3180 C   0  0  0  0  0  0  0  0  0  0  0  0
   57.8160   30.9160   45.2760 C   0  0  0  0  0  0  0  0  0  0  0  0
   58.0160   32.2220   44.9700 F   0  0  0  0  0  0  0  0  0  0  0  0
   56.8910   30.1630   44.5490 C   0  0  0  0  0  0  0  0  0  0  0  0
   56.6830   28.8150   44.8620 C   0  0  0  0  0  0  0  0  0  0  0  0
   56.0200   26.1600   46.2880 C   0  0  0  0  0  0  0  0  0  0  0  0
   54.7770   26.7120   45.9970 O   0  0  0  0  0  0  0  0  0  0  0  0
   53.4004   23.4454   45.6638 H   0  0  0  0  0  0  0  0  0  0  0  0
   54.5622   24.5504   44.8540 H   0  0  0  0  0  0  0  0  0  0  0  0
   54.8586   22.7787   44.8540 H   0  0  0  0  0  0  0  0  0  0  0  0
   54.5479   23.9837   47.5583 H   0  0  0  0  0  0  0  0  0  0  0  0
   55.7654   22.8052   46.9364 H   0  0  0  0  0  0  0  0  0  0  0  0
   58.8969   28.5155   47.4553 H   0  0  0  0  0  0  0  0  0  0  0  0
   59.2633   30.9176   46.8900 H   0  0  0  0  0  0  0  0  0  0  0  0
   56.3253   30.6302   43.7294 H   0  0  0  0  0  0  0  0  0  0  0  0
   55.9540   28.2260   44.2861 H   0  0  0  0  0  0  0  0  0  0  0  0
  1  2  1  0
  2  3  1  0
  3  4  1  0
  4  5  1  0
  5  6  2  0
  5  7  1  0
  7  8  1  0
  8  9  2  0
  9 10  1  0
 10 11  2  0
 11 12  1  0
 11 13  1  0
 13 14  2  0
  7 15  1  0
 15 16  1  0
 15  3  2  0
 14  8  1  0
  1 17  1  0
  1 18  1  0
  1 19  1  0
  2 20  1  0
  2 21  1  0
  9 22  1  0
 10 23  1  0
 13 24  1  0
 14 25  1  0
M  CHG  2   4  -1  16  -1
M  END
>  <UniqueID>  (30) 
28

>  <SMILES>  (30) 
CCc1[n-]c(=O)n(-c2ccc(F)cc2)c1[O-]

>  <Energy>  (30) 
59.3077084897546

>  <Genealogy>  (30) 
CCc1[n-]c(=O)n(-c2ccc(F)cc2)c1[O-] (protonated)
CCc1[n-]c(=O)n(-c2ccc(F)cc2)c1[O-] (3D coordinates assigned)
CCc1[n-]c(=O)n(-c2ccc(F)cc2)c1[O-] (optimized conformer: 59.3077084897546 kcal/mol)

>  <smiles>  (30) 
CCc1[nH]c(=O)n(-c2ccc(F)cc2)c1O

>  <score_type>  (30) 
oracle

>  <origin>  (30) 
adg

>  <m_score__min__energy>  (30) 
-10.35

>  <m_primary>  (30) 
energy

$$$$
30:0
     RDKit          3D

 39 41  0  0  0  0  0  0  0  0999 V2000
   58.8920   34.4680   47.5510 C   0  0  0  0  0  0  0  0  0  0  0  0
   58.6890   34.5110   46.0930 N   0  0  0  0  0  0  0  0  0  0  0  0
   59.8820   34.0080   45.3800 C   0  0  0  0  0  0  0  0  0  0  0  0
   60.7900   33.2530   46.3160 C   0  0  0  0  0  0  0  0  0  0  0  0
   60.4530   31.9620   46.7560 C   0  0  0  0  0  0  0  0  0  0  0  0
   61.3100   31.2640   47.6120 C   0  0  0  0  0  0  0  0  0  0  0  0
   62.5070   31.8480   48.0340 C   0  0  0  0  0  0  0  0  0  0  0  0
   62.8500   33.1320   47.6010 C   0  0  0  0  0  0  0  0  0  0  0  0
   61.9960   33.8340   46.7450 C   0  0  0  0  0  0  0  0  0  0  0  0
   57.4330   33.8320   45.6890 C   0  0  0  0  0  0  0  0  0  0  0  0
   57.6590   32.5200   44.9920 C   0  0  0  0  0  0  0  0  0  0  0  0
   57.9000   32.3960   43.6720 N   0  0  0  0  0  0  0  0  0  0  0  0
   58.0540   31.1010   43.4630 N   0  0  0  0  0  0  0  0  0  0  0  0
   57.9050   30.4750   44.6480 C   0  0  0  0  0  0  0  0  0  0  0  0
   58.0040   29.0160   44.8780 C   0  0  0  0  0  0  0  0  0  0  0  0
   57.9980   28.0980   43.8090 C   0  0  0  0  0  0  0  0  0  0  0  0
   58.0930   26.7260   44.0560 C   0  0  0  0  0  0  0  0  0  0  0  0
   58.1940   26.2530   45.3670 C   0  0  0  0  0  0  0  0  0  0  0  0
   58.2000   27.1540   46.4340 C   0  0  0  0  0  0  0  0  0  0  0  0
   58.1050   28.5270   46.1930 C   0  0  0  0  0  0  0  0  0  0  0  0
   57.6600   31.3520   45.5940 O   0  0  0  0  0  0  0  0  0  0  0  0
   57.9381   34.6701   48.0601 H   0  0  0  0  0  0  0  0  0  0  0  0
   59.2586   33.4723   47.8409 H   0  0  0  0  0  0  0  0  0  0  0  0
   59.6309   35.2295   47.8409 H   0  0  0  0  0  0  0  0  0  0  0  0
   59.5609   33.3364   44.5702 H   0  0  0  0  0  0  0  0  0  0  0  0
   60.4347   34.8666   44.9711 H   0  0  0  0  0  0  0  0  0  0  0  0
   59.5115   31.4988   46.4258 H   0  0  0  0  0  0  0  0  0  0  0  0
   61.0415   30.2535   47.9538 H   0  0  0  0  0  0  0  0  0  0  0  0
   63.1799   31.2970   48.7074 H   0  0  0  0  0  0  0  0  0  0  0  0
   63.7927   33.5906   47.9340 H   0  0  0  0  0  0  0  0  0  0  0  0
   62.2687   34.8443   46.4061 H   0  0  0  0  0  0  0  0  0  0  0  0
   56.8309   33.6480   46.5910 H   0  0  0  0  0  0  0  0  0  0  0  0
   56.9221   34.4944   44.9747 H   0  0  0  0  0  0  0  0  0  0  0  0
   58.2580   30.6800   42.5300 H   0  0  0  0  0  0  0  0  0  0  0  0
   57.9181   28.4634   42.7745 H   0  0  0  0  0  0  0  0  0  0  0  0
   58.0883   26.0160   43.2158 H   0  0  0  0  0  0  0  0  0  0  0  0
   58.2687   25.1723   45.5583 H   0  0  0  0  0  0  0  0  0  0  0  0
   58.2797   26.7820   47.4661 H   0  0  0  0  0  0  0  0  0  0  0  0
   58.1092   29.2310   47.0382 H   0  0  0  0  0  0  0  0  0  0  0  0
  1  2  1  0
  2  3  1  0
  3  4  1  0
  4  5  2  0
  5  6  1  0
  6  7  2  0
  7  8  1  0
  8  9  2  0
  2 10  1  0
 10 11  1  0
 11 12  2  0
 12 13  1  0
 13 14  2  0
 14 15  1  0
 15 16  2  0
 16 17  1  0
 17 18  2  0
 18 19  1  0
 19 20  2  0
 14 21  1  0
  9  4  1  0
 21 11  1  0
 20 15  1  0
  1 22  1  0
  1 23  1  0
  1 24  1  0
  3 25  1  0
  3 26  1  0
  5 27  1  0
  6 28  1  0
  7 29  1  0
  8 30  1  0
  9 31  1  0
 10 32  1  0
 10 33  1  0
 13 34  1  0
 16 35  1  0
 17 36  1  0
 18 37  1  0
 19 38  1  0
 20 39  1  0
M  CHG  1  13   1
M  END
>  <UniqueID>  (31) 
29

>  <SMILES>  (31) 
CN(Cc1ccccc1)Cc1n[nH+]c(-c2ccccc2)o1

>  <Energy>  (31) 
79.13233355581028

>  <Genealogy>  (31) 
CN(Cc1ccccc1)Cc1n[nH+]c(-c2ccccc2)o1 (protonated)
CN(Cc1ccccc1)Cc1n[nH+]c(-c2ccccc2)o1 (3D coordinates assigned)
CN(Cc1ccccc1)Cc1n[nH+]c(-c2ccccc2)o1 (optimized conformer: 79.13233355581028 kcal/mol)

>  <smiles>  (31) 
CN(Cc1ccccc1)Cc1nnc(-c2ccccc2)o1

>  <score_type>  (31) 
oracle

>  <origin>  (31) 
adg

>  <m_score__min__energy>  (31) 
-6.4400000000000004

>  <m_primary>  (31) 
energy

$$$$
31:0
     RDKit          3D

 40 40  0  0  0  0  0  0  0  0999 V2000
   55.5270   28.8240   42.0760 H   0  0  0  0  0  0  0  0  0  0  0  0
   56.2220   29.5860   42.2490 N   0  0  0  0  0  0  0  0  0  0  0  0
   56.7310   29.7800   43.4220 C   0  0  0  0  0  0  0  0  0  0  0  0
   57.1630   30.9900   43.9250 C   0  0  0  0  0  0  0  0  0  0  0  0
   57.1484   31.9733   43.4320 H   0  0  0  0  0  0  0  0  0  0  0  0
   57.6200   30.6780   45.1970 C   0  0  0  0  0  0  0  0  0  0  0  0
   58.1620   31.6900   46.1760 C   0  0  0  0  0  0  0  0  0  0  0  0
   57.9918   31.3261   47.2000 H   0  0  0  0  0  0  0  0  0  0  0  0
   59.2376   31.8192   45.9854 H   0  0  0  0  0  0  0  0  0  0  0  0
   57.4680   33.0530   46.0050 C   0  0  0  0  0  0  0  0  0  0  0  0
   57.0244   33.0887   44.9991 H   0  0  0  0  0  0  0  0  0  0  0  0
   56.7200   33.1258   46.8082 H   0  0  0  0  0  0  0  0  0  0  0  0
   58.4050   34.2760   46.1640 C   0  0  0  0  0  0  0  0  0  0  0  0
   57.7399   35.1413   46.3018 H   0  0  0  0  0  0  0  0  0  0  0  0
   59.2470   34.5450   44.9110 C   0  0  0  0  0  0  0  0  0  0  0  0
   60.2556   34.8672   45.2092 H   0  0  0  0  0  0  0  0  0  0  0  0
   59.3180   33.6248   44.3125 H   0  0  0  0  0  0  0  0  0  0  0  0
   58.7714   35.3359   44.3125 H   0  0  0  0  0  0  0  0  0  0  0  0
   59.2970   34.1700   47.4090 C   0  0  0  0  0  0  0  0  0  0  0  0
   58.6749   34.2439   48.3132 H   0  0  0  0  0  0  0  0  0  0  0  0
   59.8216   33.2032   47.4029 H   0  0  0  0  0  0  0  0  0  0  0  0
   60.0336   34.9869   47.4029 H   0  0  0  0  0  0  0  0  0  0  0  0
   57.4390   29.3480   45.4170 N   0  0  0  0  0  0  0  0  0  0  0  0
   57.7730   28.5630   46.6100 C   0  0  0  0  0  0  0  0  0  0  0  0
   58.8386   28.7029   46.8443 H   0  0  0  0  0  0  0  0  0  0  0  0
   57.1429   28.9104   47.4420 H   0  0  0  0  0  0  0  0  0  0  0  0
   57.5020   27.0700   46.3880 C   0  0  0  0  0  0  0  0  0  0  0  0
   57.7993   26.4957   47.2778 H   0  0  0  0  0  0  0  0  0  0  0  0
   58.2450   26.6170   45.2670 O   0  0  0  0  0  0  0  0  0  0  0  0
   59.5590   27.1310   45.2990 C   0  0  0  0  0  0  0  0  0  0  0  0
   59.8785   27.2560   46.3441 H   0  0  0  0  0  0  0  0  0  0  0  0
   60.2385   26.4324   44.7889 H   0  0  0  0  0  0  0  0  0  0  0  0
   59.5841   28.1053   44.7889 H   0  0  0  0  0  0  0  0  0  0  0  0
   56.1210   26.8980   46.1330 O   0  0  0  0  0  0  0  0  0  0  0  0
   55.8360   25.5340   45.9120 C   0  0  0  0  0  0  0  0  0  0  0  0
   55.7287   25.0205   46.8789 H   0  0  0  0  0  0  0  0  0  0  0  0
   54.8994   25.4427   45.3424 H   0  0  0  0  0  0  0  0  0  0  0  0
   56.6577   25.0753   45.3424 H   0  0  0  0  0  0  0  0  0  0  0  0
   56.9070   28.8090   44.3290 N   0  0  0  0  0  0  0  0  0  0  0  0
   56.6650   27.7970   44.2160 H   0  0  0  0  0  0  0  0  0  0  0  0
  1  2  1  0
  2  3  2  0
  3  4  1  0
  4  5  1  0
  4  6  2  0
  6  7  1  0
  7  8  1  0
  7  9  1  0
  7 10  1  0
 10 11  1  0
 10 12  1  0
 10 13  1  0
 13 14  1  0
 13 15  1  0
 15 16  1  0
 15 17  1  0
 15 18  1  0
 13 19  1  0
 19 20  1  0
 19 21  1  0
 19 22  1  0
  6 23  1  0
 23 24  1  0
 24 25  1  0
 24 26  1  0
 24 27  1  0
 27 28  1  0
 27 29  1  0
 29 30  1  0
 30 31  1  0
 30 32  1  0
 30 33  1  0
 27 34  1  0
 34 35  1  0
 35 36  1  0
 35 37  1  0
 35 38  1  0
 23 39  1  0
 39 40  1  0
 39  3  1  0
M  END
>  <UniqueID>  (32) 
30

>  <SMILES>  (32) 
[H]/N=c1\cc(CCC(C)C)n(CC(OC)OC)[nH]1

>  <Energy>  (32) 
63.66022693335394

>  <Genealogy>  (32) 
[H]/N=c1\cc(CCC(C)C)n(CC(OC)OC)[nH]1 (cis-trans isomerization)
[H]/N=c1\cc(CCC(C)C)n(CC(OC)OC)[nH]1 (3D coordinates assigned)
[H]/N=c1\cc(CCC(C)C)n(CC(OC)OC)[nH]1 (optimized conformer: 63.66022693335394 kcal/mol)

>  <smiles>  (32) 
COC(Cn1[nH]c(=N)cc1CCC(C)C)OC

>  <score_type>  (32) 
oracle

>  <origin>  (32) 
adg

>  <m_score__min__energy>  (32) 
-5.4699999999999998

>  <m_primary>  (32) 
energy

$$$$
32:0
     RDKit          3D

 47 50  0  0  0  0  0  0  0  0999 V2000
   56.7320   25.7850   45.6430 C   0  0  0  0  0  0  0  0  0  0  0  0
   56.5320   27.1950   45.6280 O   0  0  0  0  0  0  0  0  0  0  0  0
   57.5030   28.1350   46.0010 C   0  0  0  0  0  0  0  0  0  0  0  0
   58.1340   27.9830   47.2410 C   0  0  0  0  0  0  0  0  0  0  0  0
   59.1120   28.8910   47.6570 C   0  0  0  0  0  0  0  0  0  0  0  0
   59.4840   29.9600   46.8280 C   0  0  0  0  0  0  0  0  0  0  0  0
   60.5130   30.9120   47.2810 C   0  0  0  0  0  0  0  0  0  0  0  0
   61.8230   30.7910   46.9470 N   0  0  0  0  0  0  0  0  0  0  0  0
   62.3870   31.8760   47.5130 C   0  0  0  0  0  0  0  0  0  0  0  0
   63.7000   32.2040   47.4270 N   0  0  0  0  0  0  0  0  0  0  0  0
   64.1350   33.3600   48.0110 C   0  0  0  0  0  0  0  0  0  0  0  0
   63.2300   34.2030   48.6830 C   0  0  0  0  0  0  0  0  0  0  0  0
   61.8820   33.8320   48.7460 C   0  0  0  0  0  0  0  0  0  0  0  0
   61.5150   32.6650   48.1590 N   0  0  0  0  0  0  0  0  0  0  0  0
   60.3140   32.0730   48.0340 C   0  0  0  0  0  0  0  0  0  0  0  0
   59.0060   32.7060   48.4340 C   0  0  0  0  0  0  0  0  0  0  0  0
   58.6210   33.7630   47.4750 N   0  0  0  0  0  0  0  0  0  0  0  0
   57.2810   33.4990   46.8850 C   0  0  0  0  0  0  0  0  0  0  0  0
   57.3620   32.8500   45.4980 C   0  0  0  0  0  0  0  0  0  0  0  0
   58.1120   33.7560   44.5040 C   0  0  0  0  0  0  0  0  0  0  0  0
   59.1520   34.6550   45.1950 C   0  0  0  0  0  0  0  0  0  0  0  0
   59.6910   33.9910   46.4650 C   0  0  0  0  0  0  0  0  0  0  0  0
   58.8370   30.1290   45.5940 C   0  0  0  0  0  0  0  0  0  0  0  0
   57.8590   29.2210   45.1780 C   0  0  0  0  0  0  0  0  0  0  0  0
   56.7820   25.4328   46.6839 H   0  0  0  0  0  0  0  0  0  0  0  0
   55.8950   25.2904   45.1283 H   0  0  0  0  0  0  0  0  0  0  0  0
   57.6735   25.5427   45.1283 H   0  0  0  0  0  0  0  0  0  0  0  0
   57.8580   27.1418   47.8938 H   0  0  0  0  0  0  0  0  0  0  0  0
   59.5922   28.7668   48.6389 H   0  0  0  0  0  0  0  0  0  0  0  0
   64.3700   31.5860   46.9160 H   0  0  0  0  0  0  0  0  0  0  0  0
   65.1990   33.6336   47.9557 H   0  0  0  0  0  0  0  0  0  0  0  0
   63.5761   35.1367   49.1503 H   0  0  0  0  0  0  0  0  0  0  0  0
   61.1426   34.4671   49.2558 H   0  0  0  0  0  0  0  0  0  0  0  0
   58.2226   31.9340   48.4539 H   0  0  0  0  0  0  0  0  0  0  0  0
   59.1224   33.1581   49.4300 H   0  0  0  0  0  0  0  0  0  0  0  0
   56.7273   32.8263   47.5564 H   0  0  0  0  0  0  0  0  0  0  0  0
   56.7725   34.4675   46.7692 H   0  0  0  0  0  0  0  0  0  0  0  0
   57.8936   31.8906   45.5810 H   0  0  0  0  0  0  0  0  0  0  0  0
   56.3389   32.6946   45.1251 H   0  0  0  0  0  0  0  0  0  0  0  0
   58.6276   33.1214   43.7682 H   0  0  0  0  0  0  0  0  0  0  0  0
   57.3703   34.4112   44.0239 H   0  0  0  0  0  0  0  0  0  0  0  0
   59.9867   34.8380   44.5023 H   0  0  0  0  0  0  0  0  0  0  0  0
   58.6679   35.6029   45.4726 H   0  0  0  0  0  0  0  0  0  0  0  0
   60.1377   33.0223   46.1966 H   0  0  0  0  0  0  0  0  0  0  0  0
   60.4379   34.6655   46.9091 H   0  0  0  0  0  0  0  0  0  0  0  0
   59.1011   30.9811   44.9504 H   0  0  0  0  0  0  0  0  0  0  0  0
   57.3656   29.3552   44.2041 H   0  0  0  0  0  0  0  0  0  0  0  0
  1  2  1  0
  2  3  1  0
  3  4  2  0
  4  5  1  0
  5  6  2  0
  6  7  1  0
  7  8  1  0
  8  9  2  0
  9 10  1  0
 10 11  2  0
 11 12  1  0
 12 13  2  0
 13 14  1  0
 14 15  1  0
 15 16  1  0
 16 17  1  0
 17 18  1  0
 18 19  1  0
 19 20  1  0
 20 21  1  0
 21 22  1  0
  6 23  1  0
 23 24  2  0
 24  3  1  0
 15  7  2  0
 22 17  1  0
 14  9  1  0
  1 25  1  0
  1 26  1  0
  1 27  1  0
  4 28  1  0
  5 29  1  0
 10 30  1  0
 11 31  1  0
 12 32  1  0
 13 33  1  0
 16 34  1  0
 16 35  1  0
 18 36  1  0
 18 37  1  0
 19 38  1  0
 19 39  1  0
 20 40  1  0
 20 41  1  0
 21 42  1  0
 21 43  1  0
 22 44  1  0
 22 45  1  0
 23 46  1  0
 24 47  1  0
M  CHG  1  10   1
M  END
>  <UniqueID>  (33) 
31

>  <SMILES>  (33) 
COc1ccc(-c2nc3[nH+]cccn3c2CN2CCCCC2)cc1

>  <Energy>  (33) 
95.96301873623308

>  <Genealogy>  (33) 
COc1ccc(-c2nc3[nH+]cccn3c2CN2CCCCC2)cc1 (protonated)
COc1ccc(-c2nc3[nH+]cccn3c2CN2CCCCC2)cc1 (3D coordinates assigned)
COc1ccc(-c2nc3[nH+]cccn3c2CN2CCCCC2)cc1 (nonaromatic ring conformer: 95.96301873623308 kcal/mol)

>  <smiles>  (33) 
COc1ccc(-c2nc3ncccn3c2CN2CCCCC2)cc1

>  <score_type>  (33) 
oracle

>  <origin>  (33) 
adg

>  <m_score__min__energy>  (33) 
-6.6699999999999999

>  <m_primary>  (33) 
energy

$$$$
33:0
     RDKit          3D

 41 44  0  0  0  0  0  0  0  0999 V2000
   56.8870   25.5610   45.0800 O   0  0  0  0  0  0  0  0  0  0  0  0
   56.4930   26.6110   45.6530 C   0  0  0  0  0  0  0  0  0  0  0  0
   55.1500   26.7200   45.9950 O   0  0  0  0  0  0  0  0  0  0  0  0
   57.4390   27.7190   45.9620 C   0  0  0  0  0  0  0  0  0  0  0  0
   57.5100   28.8190   45.0980 C   0  0  0  0  0  0  0  0  0  0  0  0
   58.3360   29.8810   45.3500 N   0  0  0  0  0  0  0  0  0  0  0  0
   58.3220   31.0060   44.3950 C   0  0  0  0  0  0  0  0  0  0  0  0
   57.3290   32.1090   44.7460 C   0  0  0  0  0  0  0  0  0  0  0  0
   57.0290   31.1690   43.5970 C   0  0  0  0  0  0  0  0  0  0  0  0
   59.2120   29.8450   46.4140 C   0  0  0  0  0  0  0  0  0  0  0  0
   60.1710   30.8630   46.6230 C   0  0  0  0  0  0  0  0  0  0  0  0
   61.0370   30.8330   47.7250 C   0  0  0  0  0  0  0  0  0  0  0  0
   61.9900   31.8940   47.9160 N   0  0  0  0  0  0  0  0  0  0  0  0
   62.5400   32.1670   49.2480 C   0  0  0  0  0  0  0  0  0  0  0  0
   64.0340   32.5490   49.1680 C   0  0  0  0  0  0  0  0  0  0  0  0
   64.4300   33.2110   47.9090 N   0  0  0  0  0  0  0  0  0  0  0  0
   63.3070   33.8650   47.2260 C   0  0  0  0  0  0  0  0  0  0  0  0
   62.2610   32.8230   46.8130 C   0  0  0  0  0  0  0  0  0  0  0  0
   60.9590   29.7680   48.6330 C   0  0  0  0  0  0  0  0  0  0  0  0
   61.7610   29.7320   49.7250 F   0  0  0  0  0  0  0  0  0  0  0  0
   60.0410   28.7390   48.4300 C   0  0  0  0  0  0  0  0  0  0  0  0
   59.1720   28.7570   47.3230 C   0  0  0  0  0  0  0  0  0  0  0  0
   58.2700   27.7010   47.0980 C   0  0  0  0  0  0  0  0  0  0  0  0
   58.2180   26.7340   47.9070 O   0  0  0  0  0  0  0  0  0  0  0  0
   56.8853   28.8298   44.1927 H   0  0  0  0  0  0  0  0  0  0  0  0
   59.3909   30.9574   44.1399 H   0  0  0  0  0  0  0  0  0  0  0  0
   56.7432   32.0451   45.6749 H   0  0  0  0  0  0  0  0  0  0  0  0
   57.3910   33.2015   44.8585 H   0  0  0  0  0  0  0  0  0  0  0  0
   56.2264   30.4228   43.6926 H   0  0  0  0  0  0  0  0  0  0  0  0
   56.7841   31.2969   42.5323 H   0  0  0  0  0  0  0  0  0  0  0  0
   60.2388   31.6950   45.9066 H   0  0  0  0  0  0  0  0  0  0  0  0
   61.9812   32.9978   49.7035 H   0  0  0  0  0  0  0  0  0  0  0  0
   62.4457   31.2559   49.8571 H   0  0  0  0  0  0  0  0  0  0  0  0
   64.2592   33.2316   50.0007 H   0  0  0  0  0  0  0  0  0  0  0  0
   64.6008   31.6076   49.2183 H   0  0  0  0  0  0  0  0  0  0  0  0
   64.8370   32.4950   47.2620 H   0  0  0  0  0  0  0  0  0  0  0  0
   62.8438   34.5956   47.9055 H   0  0  0  0  0  0  0  0  0  0  0  0
   63.6813   34.3749   46.3261 H   0  0  0  0  0  0  0  0  0  0  0  0
   61.3287   33.3373   46.5368 H   0  0  0  0  0  0  0  0  0  0  0  0
   62.6500   32.2517   45.9572 H   0  0  0  0  0  0  0  0  0  0  0  0
   59.9952   27.9030   49.1434 H   0  0  0  0  0  0  0  0  0  0  0  0
  1  2  2  0
  2  3  1  0
  2  4  1  0
  4  5  2  0
  5  6  1  0
  6  7  1  0
  7  8  1  0
  8  9  1  0
  6 10  1  0
 10 11  2  0
 11 12  1  0
 12 13  1  0
 13 14  1  0
 14 15  1  0
 15 16  1  0
 16 17  1  0
 17 18  1  0
 12 19  2  0
 19 20  1  0
 19 21  1  0
 21 22  2  0
 22 23  1  0
 23 24  2  0
 23  4  1  0
  9  7  1  0
 22 10  1  0
 18 13  1  0
  5 25  1  0
  7 26  1  0
  8 27  1  0
  8 28  1  0
  9 29  1  0
  9 30  1  0
 11 31  1  0
 14 32  1  0
 14 33  1  0
 15 34  1  0
 15 35  1  0
 16 36  1  0
 17 37  1  0
 17 38  1  0
 18 39  1  0
 18 40  1  0
 21 41  1  0
M  CHG  1   3  -1
M  END
>  <UniqueID>  (34) 
32

>  <SMILES>  (34) 
O=C([O-])c1cn(C2CC2)c2cc(N3CCNCC3)c(F)cc2c1=O

>  <Energy>  (34) 
329.06415550978636

>  <Genealogy>  (34) 
O=C([O-])c1cn(C2CC2)c2cc(N3CCNCC3)c(F)cc2c1=O (protonated)
O=C([O-])c1cn(C2CC2)c2cc(N3CCNCC3)c(F)cc2c1=O (3D coordinates assigned)
O=C([O-])c1cn(C2CC2)c2cc(N3CCNCC3)c(F)cc2c1=O (nonaromatic ring conformer: 329.06415550978636 kcal/mol)

>  <smiles>  (34) 
O=C(O)c1cn(C2CC2)c2cc(N3CCNCC3)c(F)cc2c1=O

>  <score_type>  (34) 
oracle

>  <origin>  (34) 
adg

>  <m_score__min__energy>  (34) 
-9.7599999999999998

>  <m_primary>  (34) 
energy

$$$$
34:0
     RDKit          3D

 50 53  0  0  0  0  0  0  0  0999 V2000
   58.6610   32.8630   52.1280 C   0  0  0  0  0  0  0  0  0  0  0  0
   59.5580   33.9380   51.8840 O   0  0  0  0  0  0  0  0  0  0  0  0
   60.9460   33.8070   51.9960 C   0  0  0  0  0  0  0  0  0  0  0  0
   61.4870   33.8310   53.1360 O   0  0  0  0  0  0  0  0  0  0  0  0
   61.7600   33.6040   50.7650 C   0  0  0  0  0  0  0  0  0  0  0  0
   61.2490   33.7360   49.5180 C   0  0  0  0  0  0  0  0  0  0  0  0
   59.6360   34.0520   49.1240 S   0  0  0  0  0  0  0  0  0  0  0  0
   59.8770   33.9650   47.4590 C   0  0  0  0  0  0  0  0  0  0  0  0
   58.9530   34.1580   46.5030 C   0  0  0  0  0  0  0  0  0  0  0  0
   58.6550   33.1680   45.4420 C   0  0  0  0  0  0  0  0  0  0  0  0
   58.4630   33.6140   44.1210 C   0  0  0  0  0  0  0  0  0  0  0  0
   58.1320   32.7160   43.1080 C   0  0  0  0  0  0  0  0  0  0  0  0
   57.9720   31.3630   43.4010 C   0  0  0  0  0  0  0  0  0  0  0  0
   58.1410   30.9030   44.7080 C   0  0  0  0  0  0  0  0  0  0  0  0
   58.4910   31.7910   45.7450 C   0  0  0  0  0  0  0  0  0  0  0  0
   58.6640   31.2700   47.1590 C   0  0  0  0  0  0  0  0  0  0  0  0
   58.1410   29.9920   47.2610 F   0  0  0  0  0  0  0  0  0  0  0  0
   58.0120   32.0700   48.0830 F   0  0  0  0  0  0  0  0  0  0  0  0
   60.0080   31.2400   47.4780 F   0  0  0  0  0  0  0  0  0  0  0  0
   61.2300   33.7000   47.2470 C   0  0  0  0  0  0  0  0  0  0  0  0
   61.7220   33.5940   46.0900 O   0  0  0  0  0  0  0  0  0  0  0  0
   61.9860   33.5730   48.3850 N   0  0  0  0  0  0  0  0  0  0  0  0
   63.4090   33.3420   48.4230 C   0  0  0  0  0  0  0  0  0  0  0  0
   64.0700   33.1580   47.3180 N   0  0  0  0  0  0  0  0  0  0  0  0
   64.1190   33.5140   49.7480 C   0  0  2  0  0  0  0  0  0  0  0  0
   65.4090   32.7930   49.8110 C   0  0  0  0  0  0  0  0  0  0  0  0
   66.4160   32.2280   49.8600 N   0  0  0  0  0  0  0  0  0  0  0  0
   63.1970   33.1350   50.9440 C   0  0  2  0  0  0  0  0  0  0  0  0
   63.2450   31.6520   51.3210 C   0  0  0  0  0  0  0  0  0  0  0  0
   64.1360   31.2350   52.3300 C   0  0  0  0  0  0  0  0  0  0  0  0
   64.2200   29.8890   52.6980 C   0  0  0  0  0  0  0  0  0  0  0  0
   63.4220   28.9390   52.0610 C   0  0  0  0  0  0  0  0  0  0  0  0
   62.5390   29.3320   51.0550 C   0  0  0  0  0  0  0  0  0  0  0  0
   62.4470   30.6770   50.6800 C   0  0  0  0  0  0  0  0  0  0  0  0
   61.5750   31.0070   49.7000 F   0  0  0  0  0  0  0  0  0  0  0  0
   58.5437   32.7224   53.2126 H   0  0  0  0  0  0  0  0  0  0  0  0
   57.6829   33.0927   51.6801 H   0  0  0  0  0  0  0  0  0  0  0  0
   59.0621   31.9419   51.6801 H   0  0  0  0  0  0  0  0  0  0  0  0
   58.3875   35.1015   46.5084 H   0  0  0  0  0  0  0  0  0  0  0  0
   58.5754   34.6826   43.8856 H   0  0  0  0  0  0  0  0  0  0  0  0
   57.9970   33.0752   42.0771 H   0  0  0  0  0  0  0  0  0  0  0  0
   57.7118   30.6555   42.6000 H   0  0  0  0  0  0  0  0  0  0  0  0
   57.9994   29.8352   44.9312 H   0  0  0  0  0  0  0  0  0  0  0  0
   64.8460   32.4680   47.2170 H   0  0  0  0  0  0  0  0  0  0  0  0
   64.3589   34.5844   49.8303 H   0  0  0  0  0  0  0  0  0  0  0  0
   63.6228   33.6891   51.7935 H   0  0  0  0  0  0  0  0  0  0  0  0
   64.7727   31.9771   52.8338 H   0  0  0  0  0  0  0  0  0  0  0  0
   64.9164   29.5788   53.4910 H   0  0  0  0  0  0  0  0  0  0  0  0
   63.4888   27.8802   52.3517 H   0  0  0  0  0  0  0  0  0  0  0  0
   61.9115   28.5803   50.5537 H   0  0  0  0  0  0  0  0  0  0  0  0
  1  2  1  0
  2  3  1  0
  3  4  2  0
  3  5  1  0
  5  6  2  0
  6  7  1  0
  7  8  1  0
  8  9  2  3
  9 10  1  0
 10 11  2  0
 11 12  1  0
 12 13  2  0
 13 14  1  0
 14 15  2  0
 15 16  1  0
 16 17  1  0
 16 18  1  0
 16 19  1  0
  8 20  1  0
 20 21  2  0
 20 22  1  0
 22 23  1  0
 23 24  2  3
 23 25  1  0
 25 26  1  0
 26 27  3  0
 25 28  1  0
 28 29  1  0
 29 30  2  0
 30 31  1  0
 31 32  2  0
 32 33  1  0
 33 34  2  0
 34 35  1  0
 28  5  1  0
 34 29  1  0
 22  6  1  0
 15 10  1  0
  1 36  1  0
  1 37  1  0
  1 38  1  0
  9 39  1  0
 11 40  1  0
 12 41  1  0
 13 42  1  0
 14 43  1  0
 24 44  1  0
 25 45  1  1
 28 46  1  1
 30 47  1  0
 31 48  1  0
 32 49  1  0
 33 50  1  0
M  END
>  <UniqueID>  (35) 
33

>  <SMILES>  (35) 
COC(=O)C1=c2sc(=Cc3ccccc3C(F)(F)F)c(=O)n2C(=N)[C@H](C#N)[C@@H]1c1ccccc1F

>  <Energy>  (35) 
106.0550772200819

>  <Genealogy>  (35) 
COC(=O)C1=c2sc(=Cc3ccccc3C(F)(F)F)c(=O)n2C(=N)[C@H](C#N)[C@@H]1c1ccccc1F (chirality)
COC(=O)C1=c2sc(=Cc3ccccc3C(F)(F)F)c(=O)n2C(=N)[C@H](C#N)[C@@H]1c1ccccc1F (3D coordinates assigned)
COC(=O)C1=c2sc(=Cc3ccccc3C(F)(F)F)c(=O)n2C(=N)[C@H](C#N)[C@@H]1c1ccccc1F (nonaromatic ring conformer: 106.0550772200819 kcal/mol)

>  <smiles>  (35) 
COC(=O)C1=c2sc(=Cc3ccccc3C(F)(F)F)c(=O)n2C(=N)C(C#N)C1c1ccccc1F

>  <score_type>  (35) 
oracle

>  <origin>  (35) 
adg

>  <m_score__min__energy>  (35) 
-7.46

>  <m_primary>  (35) 
energy

$$$$
35:0
     RDKit          3D

 40 42  0  0  0  0  0  0  0  0999 V2000
   58.3346   32.4089   42.9606 H   0  0  0  0  0  0  0  0  0  0  0  0
   57.8440   31.5490   43.4400 C   0  0  0  0  0  0  0  0  0  0  0  0
   58.1760   31.1980   44.7520 C   0  0  0  0  0  0  0  0  0  0  0  0
   58.9362   31.7745   45.2996 H   0  0  0  0  0  0  0  0  0  0  0  0
   57.5420   30.1140   45.3690 C   0  0  0  0  0  0  0  0  0  0  0  0
   57.8125   29.8328   46.3975 H   0  0  0  0  0  0  0  0  0  0  0  0
   56.5580   29.3820   44.6760 C   0  0  0  0  0  0  0  0  0  0  0  0
   55.9110   28.2380   45.2600 N   0  0  0  0  0  0  0  0  0  0  0  0
   56.4790   27.2820   45.9330 C   0  0  0  0  0  0  0  0  0  0  0  0
   55.8530   26.0820   46.0340 N   0  0  0  0  0  0  0  0  0  0  0  0
   56.3870   25.0590   46.7520 C   0  0  0  0  0  0  0  0  0  0  0  0
   55.6350   23.7710   46.8630 C   0  0  0  0  0  0  0  0  0  0  0  0
   54.9067   23.8390   47.6846 H   0  0  0  0  0  0  0  0  0  0  0  0
   56.3358   22.9484   47.0684 H   0  0  0  0  0  0  0  0  0  0  0  0
   54.7580   23.4560   45.2920 S   0  0  0  0  0  0  0  0  0  0  0  0
   56.0200   22.3690   44.6260 C   0  0  0  0  0  0  0  0  0  0  0  0
   55.8770   21.0360   44.5000 N   0  0  0  0  0  0  0  0  0  0  0  0
   57.0290   20.6320   43.9820 N   0  0  0  0  0  0  0  0  0  0  0  0
   57.2620   19.6390   43.7630 H   0  0  0  0  0  0  0  0  0  0  0  0
   57.8490   21.6520   43.7890 N   0  0  0  0  0  0  0  0  0  0  0  0
   57.2320   22.7530   44.1780 N   0  0  0  0  0  0  0  0  0  0  0  0
   57.8270   24.0880   44.1740 C   0  0  0  0  0  0  0  0  0  0  0  0
   58.9028   24.0057   43.9599 H   0  0  0  0  0  0  0  0  0  0  0  0
   57.6747   24.5518   45.1597 H   0  0  0  0  0  0  0  0  0  0  0  0
   57.1630   24.9600   43.1030 C   0  0  0  0  0  0  0  0  0  0  0  0
   56.1044   25.1044   43.3648 H   0  0  0  0  0  0  0  0  0  0  0  0
   57.2592   24.4503   42.1330 H   0  0  0  0  0  0  0  0  0  0  0  0
   57.8390   26.3240   42.9980 C   0  0  0  0  0  0  0  0  0  0  0  0
   58.0331   26.7157   44.0074 H   0  0  0  0  0  0  0  0  0  0  0  0
   58.7903   26.2210   42.4555 H   0  0  0  0  0  0  0  0  0  0  0  0
   57.1809   27.0186   42.4555 H   0  0  0  0  0  0  0  0  0  0  0  0
   57.5990   25.2510   47.4280 C   0  0  0  0  0  0  0  0  0  0  0  0
   58.0436   24.4428   48.0273 H   0  0  0  0  0  0  0  0  0  0  0  0
   58.2290   26.4920   47.3230 C   0  0  0  0  0  0  0  0  0  0  0  0
   59.3190   26.7040   47.9180 O   0  0  0  0  0  0  0  0  0  0  0  0
   57.6600   27.4800   46.5850 N   0  0  0  0  0  0  0  0  0  0  0  0
   56.2570   29.7210   43.3490 C   0  0  0  0  0  0  0  0  0  0  0  0
   55.5200   29.1291   42.7864 H   0  0  0  0  0  0  0  0  0  0  0  0
   56.8900   30.8090   42.7370 C   0  0  0  0  0  0  0  0  0  0  0  0
   56.6362   31.0816   41.7020 H   0  0  0  0  0  0  0  0  0  0  0  0
  1  2  1  0
  2  3  2  0
  3  4  1  0
  3  5  1  0
  5  6  1  0
  5  7  2  0
  7  8  1  0
  8  9  2  0
  9 10  1  0
 10 11  1  0
 11 12  1  0
 12 13  1  0
 12 14  1  0
 12 15  1  0
 15 16  1  0
 16 17  2  0
 17 18  1  0
 18 19  1  0
 18 20  2  0
 20 21  1  0
 21 22  1  0
 22 23  1  0
 22 24  1  0
 22 25  1  0
 25 26  1  0
 25 27  1  0
 25 28  1  0
 28 29  1  0
 28 30  1  0
 28 31  1  0
 11 32  2  0
 32 33  1  0
 32 34  1  0
 34 35  2  0
 34 36  1  0
  7 37  1  0
 37 38  1  0
 37 39  2  0
 39 40  1  0
 39  2  1  0
 36  9  1  0
 21 16  1  0
M  CHG  3  10  -1  18   1  36  -1
M  END
>  <UniqueID>  (36) 
34

>  <SMILES>  (36) 
CCCn1n[nH+]nc1SCc1cc(=O)[n-]/c(=N\c2ccccc2)[n-]1

>  <Energy>  (36) 
79.29593789686675

>  <Genealogy>  (36) 
CCCn1n[nH+]nc1SCc1cc(=O)[n-]c(=Nc2ccccc2)[n-]1 (protonated)
CCCn1n[nH+]nc1SCc1cc(=O)[n-]/c(=N\c2ccccc2)[n-]1 (cis-trans isomerization)
CCCn1n[nH+]nc1SCc1cc(=O)[n-]/c(=N\c2ccccc2)[n-]1 (3D coordinates assigned)
CCCn1n[nH+]nc1SCc1cc(=O)[n-]/c(=N\c2ccccc2)[n-]1 (optimized conformer: 79.29593789686675 kcal/mol)

>  <smiles>  (36) 
CCCn1nnnc1SCc1cc(=O)[nH]c(=Nc2ccccc2)[nH]1

>  <score_type>  (36) 
oracle

>  <origin>  (36) 
adg

>  <m_score__min__energy>  (36) 
-10.1

>  <m_primary>  (36) 
energy

$$$$
36:0
     RDKit          3D

 52 54  0  0  0  0  0  0  0  0999 V2000
   63.3200   33.8470   46.6340 C   0  0  0  0  0  0  0  0  0  0  0  0
   62.8660   32.5680   47.3310 C   0  0  0  0  0  0  0  0  0  0  0  0
   61.6530   32.0840   46.7580 O   0  0  0  0  0  0  0  0  0  0  0  0
   60.8940   30.9990   47.2340 C   0  0  0  0  0  0  0  0  0  0  0  0
   60.8330   29.7660   46.5560 C   0  0  0  0  0  0  0  0  0  0  0  0
   60.0660   28.7080   47.0660 C   0  0  0  0  0  0  0  0  0  0  0  0
   59.9660   27.4080   46.3100 C   0  0  0  0  0  0  0  0  0  0  0  0
   59.2670   27.6130   45.0300 N   0  0  0  0  0  0  0  0  0  0  0  0
   57.8320   27.8820   45.2240 C   0  0  0  0  0  0  0  0  0  0  0  0
   57.4020   29.1370   44.5190 C   0  0  0  0  0  0  0  0  0  0  0  0
   56.1160   29.6420   44.4700 C   0  0  0  0  0  0  0  0  0  0  0  0
   56.2340   30.8110   43.7480 C   0  0  0  0  0  0  0  0  0  0  0  0
   57.5290   30.9740   43.4160 N   0  0  0  0  0  0  0  0  0  0  0  0
   58.0690   32.0550   42.6020 C   0  0  0  0  0  0  0  0  0  0  0  0
   58.2480   29.9620   43.8690 N   0  0  0  0  0  0  0  0  0  0  0  0
   59.3430   28.8900   48.2510 C   0  0  0  0  0  0  0  0  0  0  0  0
   59.4050   30.1060   48.9340 C   0  0  0  0  0  0  0  0  0  0  0  0
   60.1790   31.1690   48.4300 C   0  0  0  0  0  0  0  0  0  0  0  0
   60.2640   32.4110   49.0830 O   0  0  0  0  0  0  0  0  0  0  0  0
   59.2730   33.4390   49.0360 C   0  0  0  0  0  0  0  0  0  0  0  0
   58.8910   33.7460   47.6120 C   0  0  0  0  0  0  0  0  0  0  0  0
   57.7670   33.1310   47.0350 C   0  0  0  0  0  0  0  0  0  0  0  0
   57.4140   33.4080   45.7110 C   0  0  0  0  0  0  0  0  0  0  0  0
   58.1820   34.2930   44.9520 C   0  0  0  0  0  0  0  0  0  0  0  0
   59.3090   34.9010   45.5140 C   0  0  0  0  0  0  0  0  0  0  0  0
   59.6660   34.6270   46.8380 C   0  0  0  0  0  0  0  0  0  0  0  0
   63.5876   34.6009   47.3890 H   0  0  0  0  0  0  0  0  0  0  0  0
   64.1963   33.6307   46.0052 H   0  0  0  0  0  0  0  0  0  0  0  0
   62.5035   34.2316   46.0052 H   0  0  0  0  0  0  0  0  0  0  0  0
   63.6473   31.8013   47.2230 H   0  0  0  0  0  0  0  0  0  0  0  0
   62.6911   32.7882   48.3945 H   0  0  0  0  0  0  0  0  0  0  0  0
   61.3918   29.6315   45.6181 H   0  0  0  0  0  0  0  0  0  0  0  0
   60.9778   27.0239   46.1133 H   0  0  0  0  0  0  0  0  0  0  0  0
   59.3993   26.6851   46.9152 H   0  0  0  0  0  0  0  0  0  0  0  0
   59.7070   28.4050   44.5040 H   0  0  0  0  0  0  0  0  0  0  0  0
   59.3580   26.7440   44.4530 H   0  0  0  0  0  0  0  0  0  0  0  0
   57.2536   27.0344   44.8277 H   0  0  0  0  0  0  0  0  0  0  0  0
   57.6502   28.0140   46.3008 H   0  0  0  0  0  0  0  0  0  0  0  0
   55.2045   29.2091   44.9080 H   0  0  0  0  0  0  0  0  0  0  0  0
   55.4114   31.4934   43.4878 H   0  0  0  0  0  0  0  0  0  0  0  0
   58.4638   32.8454   43.2573 H   0  0  0  0  0  0  0  0  0  0  0  0
   58.8789   31.6665   41.9671 H   0  0  0  0  0  0  0  0  0  0  0  0
   57.2720   32.4692   41.9671 H   0  0  0  0  0  0  0  0  0  0  0  0
   58.7234   28.0713   48.6456 H   0  0  0  0  0  0  0  0  0  0  0  0
   58.8454   30.2347   49.8723 H   0  0  0  0  0  0  0  0  0  0  0  0
   58.3803   33.1053   49.5853 H   0  0  0  0  0  0  0  0  0  0  0  0
   59.6859   34.3493   49.4953 H   0  0  0  0  0  0  0  0  0  0  0  0
   57.1623   32.4287   47.6276 H   0  0  0  0  0  0  0  0  0  0  0  0
   56.5297   32.9279   45.2665 H   0  0  0  0  0  0  0  0  0  0  0  0
   57.9005   34.5121   43.9115 H   0  0  0  0  0  0  0  0  0  0  0  0
   59.9153   35.5955   44.9140 H   0  0  0  0  0  0  0  0  0  0  0  0
   60.5563   35.1025   47.2753 H   0  0  0  0  0  0  0  0  0  0  0  0
  1  2  1  0
  2  3  1  0
  3  4  1  0
  4  5  2  0
  5  6  1  0
  6  7  1  0
  7  8  1  0
  8  9  1  0
  9 10  1  0
 10 11  1  0
 11 12  2  0
 12 13  1  0
 13 14  1  0
 13 15  1  0
  6 16  2  0
 16 17  1  0
 17 18  2  0
 18 19  1  0
 19 20  1  0
 20 21  1  0
 21 22  2  0
 22 23  1  0
 23 24  2  0
 24 25  1  0
 25 26  2  0
 18  4  1  0
 26 21  1  0
 15 10  2  0
  1 27  1  0
  1 28  1  0
  1 29  1  0
  2 30  1  0
  2 31  1  0
  5 32  1  0
  7 33  1  0
  7 34  1  0
  8 35  1  0
  8 36  1  0
  9 37  1  0
  9 38  1  0
 11 39  1  0
 12 40  1  0
 14 41  1  0
 14 42  1  0
 14 43  1  0
 16 44  1  0
 17 45  1  0
 20 46  1  0
 20 47  1  0
 22 48  1  0
 23 49  1  0
 24 50  1  0
 25 51  1  0
 26 52  1  0
M  CHG  1   8   1
M  END
>  <UniqueID>  (37) 
35

>  <SMILES>  (37) 
CCOc1cc(C[NH2+]Cc2ccn(C)n2)ccc1OCc1ccccc1

>  <Energy>  (37) 
78.0234527441616

>  <Genealogy>  (37) 
CCOc1cc(C[NH2+]Cc2ccn(C)n2)ccc1OCc1ccccc1 (protonated)
CCOc1cc(C[NH2+]Cc2ccn(C)n2)ccc1OCc1ccccc1 (3D coordinates assigned)
CCOc1cc(C[NH2+]Cc2ccn(C)n2)ccc1OCc1ccccc1 (optimized conformer: 78.0234527441616 kcal/mol)

>  <smiles>  (37) 
CCOc1cc(CNCc2ccn(C)n2)ccc1OCc1ccccc1

>  <score_type>  (37) 
oracle

>  <origin>  (37) 
adg

>  <m_score__min__energy>  (37) 
-6.0800000000000001

>  <m_primary>  (37) 
energy

$$$$
37:0
     RDKit          3D

 47 50  0  0  0  0  0  0  0  0999 V2000
   57.1170   24.6140   44.3450 C   0  0  0  0  0  0  0  0  0  0  0  0
   55.8450   24.4790   44.9050 C   0  0  0  0  0  0  0  0  0  0  0  0
   55.4930   25.2250   45.9860 N   0  0  0  0  0  0  0  0  0  0  0  0
   56.3520   26.1190   46.5470 C   0  0  0  0  0  0  0  0  0  0  0  0
   57.6320   26.3010   46.0060 C   0  0  0  0  0  0  0  0  0  0  0  0
   58.5720   27.2540   46.6240 C   0  0  0  0  0  0  0  0  0  0  0  0
   59.2230   26.8680   47.7560 N   0  0  0  0  0  0  0  0  0  0  0  0
   60.1230   27.6730   48.3750 C   0  0  0  0  0  0  0  0  0  0  0  0
   60.3920   28.9310   47.8430 C   0  0  0  0  0  0  0  0  0  0  0  0
   59.7360   29.3380   46.7280 N   0  0  0  0  0  0  0  0  0  0  0  0
   58.8210   28.5470   46.0970 C   0  0  0  0  0  0  0  0  0  0  0  0
   58.0870   29.1080   44.8920 C   0  0  1  0  0  0  0  0  0  0  0  0
   56.5760   29.1870   45.1640 C   0  0  0  0  0  0  0  0  0  0  0  0
   55.8080   29.6920   43.9310 C   0  0  0  0  0  0  0  0  0  0  0  0
   56.6840   30.5330   42.9830 C   0  0  0  0  0  0  0  0  0  0  0  0
   57.6910   31.3300   43.7110 N   0  0  0  0  0  0  0  0  0  0  0  0
   57.0860   32.4260   44.5030 C   0  0  0  0  0  0  0  0  0  0  0  0
   58.0260   33.6360   44.5500 C   0  0  0  0  0  0  0  0  0  0  0  0
   58.6030   33.8170   45.9200 C   0  0  0  0  0  0  0  0  0  0  0  0
   59.6710   34.6420   46.2500 C   0  0  0  0  0  0  0  0  0  0  0  0
   60.0480   34.5410   47.5940 C   0  0  0  0  0  0  0  0  0  0  0  0
   59.2880   33.6330   48.3200 C   0  0  0  0  0  0  0  0  0  0  0  0
   58.1490   32.9500   47.2870 S   0  0  0  0  0  0  0  0  0  0  0  0
   58.6470   30.4990   44.4900 C   0  0  0  0  0  0  0  0  0  0  0  0
   58.0160   25.5250   44.9030 C   0  0  0  0  0  0  0  0  0  0  0  0
   57.4077   24.0091   43.4735 H   0  0  0  0  0  0  0  0  0  0  0  0
   55.1266   23.7680   44.4710 H   0  0  0  0  0  0  0  0  0  0  0  0
   56.0409   26.7004   47.4275 H   0  0  0  0  0  0  0  0  0  0  0  0
   60.6349   27.3349   49.2880 H   0  0  0  0  0  0  0  0  0  0  0  0
   61.1307   29.5896   48.3231 H   0  0  0  0  0  0  0  0  0  0  0  0
   58.2516   28.4223   44.0477 H   0  0  0  0  0  0  0  0  0  0  0  0
   56.2075   28.1851   45.4292 H   0  0  0  0  0  0  0  0  0  0  0  0
   56.4100   29.8957   45.9887 H   0  0  0  0  0  0  0  0  0  0  0  0
   55.4243   28.8231   43.3762 H   0  0  0  0  0  0  0  0  0  0  0  0
   54.9946   30.3394   44.2906 H   0  0  0  0  0  0  0  0  0  0  0  0
   57.2031   29.8568   42.2878 H   0  0  0  0  0  0  0  0  0  0  0  0
   56.0251   31.2317   42.4467 H   0  0  0  0  0  0  0  0  0  0  0  0
   56.1341   32.7248   44.0397 H   0  0  0  0  0  0  0  0  0  0  0  0
   56.9127   32.0698   45.5292 H   0  0  0  0  0  0  0  0  0  0  0  0
   58.8454   33.4825   43.8324 H   0  0  0  0  0  0  0  0  0  0  0  0
   57.4497   34.5366   44.2916 H   0  0  0  0  0  0  0  0  0  0  0  0
   60.1693   35.3065   45.5288 H   0  0  0  0  0  0  0  0  0  0  0  0
   60.8691   35.1258   48.0341 H   0  0  0  0  0  0  0  0  0  0  0  0
   59.4099   33.4001   49.3881 H   0  0  0  0  0  0  0  0  0  0  0  0
   59.5499   30.3462   43.8805 H   0  0  0  0  0  0  0  0  0  0  0  0
   58.8554   31.0418   45.4237 H   0  0  0  0  0  0  0  0  0  0  0  0
   59.0246   25.6339   44.4777 H   0  0  0  0  0  0  0  0  0  0  0  0
  1  2  2  0
  2  3  1  0
  3  4  2  0
  4  5  1  0
  5  6  1  0
  6  7  2  0
  7  8  1  0
  8  9  2  0
  9 10  1  0
 10 11  2  0
 11 12  1  0
 12 13  1  0
 13 14  1  0
 14 15  1  0
 15 16  1  0
 16 17  1  0
 17 18  1  0
 18 19  1  0
 19 20  2  0
 20 21  1  0
 21 22  2  0
 22 23  1  0
 16 24  1  0
  5 25  2  0
 25  1  1  0
 11  6  1  0
 24 12  1  0
 23 19  1  0
  1 26  1  0
  2 27  1  0
  4 28  1  0
  8 29  1  0
  9 30  1  0
 12 31  1  6
 13 32  1  0
 13 33  1  0
 14 34  1  0
 14 35  1  0
 15 36  1  0
 15 37  1  0
 17 38  1  0
 17 39  1  0
 18 40  1  0
 18 41  1  0
 20 42  1  0
 21 43  1  0
 22 44  1  0
 24 45  1  0
 24 46  1  0
 25 47  1  0
M  END
>  <UniqueID>  (38) 
36

>  <SMILES>  (38) 
c1cncc(-c2nccnc2[C@H]2CCCN(CCc3cccs3)C2)c1

>  <Energy>  (38) 
92.75503824821983

>  <Genealogy>  (38) 
c1cncc(-c2nccnc2[C@H]2CCCN(CCc3cccs3)C2)c1 (chirality)
c1cncc(-c2nccnc2[C@H]2CCCN(CCc3cccs3)C2)c1 (3D coordinates assigned)
c1cncc(-c2nccnc2[C@H]2CCCN(CCc3cccs3)C2)c1 (nonaromatic ring conformer: 92.75503824821983 kcal/mol)

>  <smiles>  (38) 
c1cncc(-c2nccnc2C2CCCN(CCc3cccs3)C2)c1

>  <score_type>  (38) 
oracle

>  <origin>  (38) 
adg

>  <m_score__min__energy>  (38) 
-8.4100000000000001

>  <m_primary>  (38) 
energy

$$$$
38:0
     RDKit          3D

 48 50  0  0  0  0  0  0  0  0999 V2000
   56.1480   29.9610   43.2340 C   0  0  0  0  0  0  0  0  0  0  0  0
   56.2160   30.5930   44.5080 O   0  0  0  0  0  0  0  0  0  0  0  0
   57.4020   31.0290   45.1200 C   0  0  0  0  0  0  0  0  0  0  0  0
   57.7140   32.3940   45.2520 C   0  0  0  0  0  0  0  0  0  0  0  0
   58.8990   32.7930   45.8880 C   0  0  0  0  0  0  0  0  0  0  0  0
   59.7870   31.8280   46.3840 C   0  0  0  0  0  0  0  0  0  0  0  0
   59.4890   30.4670   46.2310 C   0  0  0  0  0  0  0  0  0  0  0  0
   58.2940   30.0610   45.6090 C   0  0  0  0  0  0  0  0  0  0  0  0
   57.9580   28.7070   45.4550 O   0  0  0  0  0  0  0  0  0  0  0  0
   58.5690   27.8240   44.5170 C   0  0  0  0  0  0  0  0  0  0  0  0
   61.0980   32.2430   47.0150 C   0  0  0  0  0  0  0  0  0  0  0  0
   61.0730   33.6150   47.5620 N   0  0  0  0  0  0  0  0  0  0  0  0
   62.1250   34.0450   48.4540 C   0  0  0  0  0  0  0  0  0  0  0  0
   61.8220   34.5600   49.5660 O   0  0  0  0  0  0  0  0  0  0  0  0
   63.5860   33.8360   48.1060 C   0  0  0  0  0  0  0  0  0  0  0  0
   64.1330   32.5650   48.6490 N   0  0  0  0  0  0  0  0  0  0  0  0
   65.2770   32.8240   49.5530 C   0  0  0  0  0  0  0  0  0  0  0  0
   64.8260   33.4590   50.8940 C   0  0  0  0  0  0  0  0  0  0  0  0
   63.4450   33.2810   51.1660 O   0  0  0  0  0  0  0  0  0  0  0  0
   63.0550   31.9640   50.8520 C   0  0  0  0  0  0  0  0  0  0  0  0
   63.0950   31.7400   49.3270 C   0  0  0  0  0  0  0  0  0  0  0  0
   59.9200   34.5070   47.3540 C   0  0  0  0  0  0  0  0  0  0  0  0
   59.2490   34.2450   46.0070 C   0  0  0  0  0  0  0  0  0  0  0  0
   56.0312   28.8756   43.3689 H   0  0  0  0  0  0  0  0  0  0  0  0
   55.2871   30.3557   42.6744 H   0  0  0  0  0  0  0  0  0  0  0  0
   57.0731   30.1635   42.6744 H   0  0  0  0  0  0  0  0  0  0  0  0
   57.0247   33.1533   44.8541 H   0  0  0  0  0  0  0  0  0  0  0  0
   60.1958   29.7094   46.6005 H   0  0  0  0  0  0  0  0  0  0  0  0
   59.1144   27.0359   45.0568 H   0  0  0  0  0  0  0  0  0  0  0  0
   57.7934   27.3664   43.8852 H   0  0  0  0  0  0  0  0  0  0  0  0
   59.2706   28.3885   43.8852 H   0  0  0  0  0  0  0  0  0  0  0  0
   61.3285   31.5448   47.8331 H   0  0  0  0  0  0  0  0  0  0  0  0
   61.8624   32.2206   46.2243 H   0  0  0  0  0  0  0  0  0  0  0  0
   63.6876   33.8225   47.0108 H   0  0  0  0  0  0  0  0  0  0  0  0
   64.1550   34.6610   48.5594 H   0  0  0  0  0  0  0  0  0  0  0  0
   64.5180   32.0090   47.8480 H   0  0  0  0  0  0  0  0  0  0  0  0
   65.7853   31.8716   49.7643 H   0  0  0  0  0  0  0  0  0  0  0  0
   65.9523   33.5330   49.0517 H   0  0  0  0  0  0  0  0  0  0  0  0
   65.4039   32.9992   51.7092 H   0  0  0  0  0  0  0  0  0  0  0  0
   65.0046   34.5416   50.8166 H   0  0  0  0  0  0  0  0  0  0  0  0
   63.7415   31.2567   51.3402 H   0  0  0  0  0  0  0  0  0  0  0  0
   62.0274   31.8017   51.2094 H   0  0  0  0  0  0  0  0  0  0  0  0
   63.3082   30.6784   49.1333 H   0  0  0  0  0  0  0  0  0  0  0  0
   62.1172   32.0406   48.9226 H   0  0  0  0  0  0  0  0  0  0  0  0
   59.1877   34.3388   48.1574 H   0  0  0  0  0  0  0  0  0  0  0  0
   60.2798   35.5464   47.3654 H   0  0  0  0  0  0  0  0  0  0  0  0
   58.3326   34.8488   45.9320 H   0  0  0  0  0  0  0  0  0  0  0  0
   59.9411   34.5192   45.1972 H   0  0  0  0  0  0  0  0  0  0  0  0
  1  2  1  0
  2  3  1  0
  3  4  2  0
  4  5  1  0
  5  6  2  0
  6  7  1  0
  7  8  2  0
  8  9  1  0
  9 10  1  0
  6 11  1  0
 11 12  1  0
 12 13  1  0
 13 14  2  0
 13 15  1  0
 15 16  1  0
 16 17  1  0
 17 18  1  0
 18 19  1  0
 19 20  1  0
 20 21  1  0
 12 22  1  0
 22 23  1  0
  8  3  1  0
 21 16  1  0
 23  5  1  0
  1 24  1  0
  1 25  1  0
  1 26  1  0
  4 27  1  0
  7 28  1  0
 10 29  1  0
 10 30  1  0
 10 31  1  0
 11 32  1  0
 11 33  1  0
 15 34  1  0
 15 35  1  0
 16 36  1  0
 17 37  1  0
 17 38  1  0
 18 39  1  0
 18 40  1  0
 20 41  1  0
 20 42  1  0
 21 43  1  0
 21 44  1  0
 22 45  1  0
 22 46  1  0
 23 47  1  0
 23 48  1  0
M  CHG  1  16   1
M  END
>  <UniqueID>  (39) 
37

>  <SMILES>  (39) 
COc1cc2c(cc1OC)CN(C(=O)C[NH+]1CCOCC1)CC2

>  <Energy>  (39) 
63.50298395988981

>  <Genealogy>  (39) 
COc1cc2c(cc1OC)CN(C(=O)C[NH+]1CCOCC1)CC2 (protonated)
COc1cc2c(cc1OC)CN(C(=O)C[NH+]1CCOCC1)CC2 (3D coordinates assigned)
COc1cc2c(cc1OC)CN(C(=O)C[NH+]1CCOCC1)CC2 (nonaromatic ring conformer: 63.50298395988981 kcal/mol)

>  <smiles>  (39) 
COc1cc2c(cc1OC)CN(C(=O)CN1CCOCC1)CC2

>  <score_type>  (39) 
oracle

>  <origin>  (39) 
adg

>  <m_score__min__energy>  (39) 
-5.3799999999999999

>  <m_primary>  (39) 
energy

$$$$
39:0
     RDKit          3D

 27 28  0  0  0  0  0  0  0  0999 V2000
   61.6710   33.8340   46.7480 C   0  0  0  0  0  0  0  0  0  0  0  0
   60.2540   34.1940   47.1950 C   0  0  0  0  0  0  0  0  0  0  0  0
   59.6410   35.3410   46.3710 C   0  0  0  0  0  0  0  0  0  0  0  0
   59.2300   34.9400   44.9460 C   0  0  0  0  0  0  0  0  0  0  0  0
   58.5960   33.6150   44.9180 C   0  0  0  0  0  0  0  0  0  0  0  0
   58.0780   32.5280   44.8930 C   0  0  0  0  0  0  0  0  0  0  0  0
   57.4600   31.2300   44.8630 C   0  0  0  0  0  0  0  0  0  0  0  0
   56.1230   31.0260   44.8140 N   0  0  0  0  0  0  0  0  0  0  0  0
   55.9200   29.7100   44.8000 N   0  0  0  0  0  0  0  0  0  0  0  0
   57.1430   29.1510   44.8420 C   0  0  0  0  0  0  0  0  0  0  0  0
   57.4110   27.8230   44.8450 N   0  0  0  0  0  0  0  0  0  0  0  0
   58.7170   27.4210   44.8920 C   0  0  0  0  0  0  0  0  0  0  0  0
   59.7600   28.3720   44.9340 C   0  0  0  0  0  0  0  0  0  0  0  0
   59.4330   29.7350   44.9290 C   0  0  0  0  0  0  0  0  0  0  0  0
   58.1180   30.0610   44.8830 N   0  0  0  0  0  0  0  0  0  0  0  0
   62.3047   33.6730   47.6326 H   0  0  0  0  0  0  0  0  0  0  0  0
   61.6428   32.9145   46.1449 H   0  0  0  0  0  0  0  0  0  0  0  0
   62.0851   34.6555   46.1449 H   0  0  0  0  0  0  0  0  0  0  0  0
   59.6154   33.3047   47.0885 H   0  0  0  0  0  0  0  0  0  0  0  0
   60.3126   34.5320   48.2401 H   0  0  0  0  0  0  0  0  0  0  0  0
   58.7473   35.7059   46.8984 H   0  0  0  0  0  0  0  0  0  0  0  0
   60.4199   36.1113   46.2714 H   0  0  0  0  0  0  0  0  0  0  0  0
   58.5193   35.6840   44.5569 H   0  0  0  0  0  0  0  0  0  0  0  0
   60.1370   34.9003   44.3249 H   0  0  0  0  0  0  0  0  0  0  0  0
   58.9573   26.3476   44.8971 H   0  0  0  0  0  0  0  0  0  0  0  0
   60.8108   28.0488   44.9700 H   0  0  0  0  0  0  0  0  0  0  0  0
   60.2130   30.5099   44.9612 H   0  0  0  0  0  0  0  0  0  0  0  0
  1  2  1  0
  2  3  1  0
  3  4  1  0
  4  5  1  0
  5  6  3  0
  6  7  1  0
  7  8  2  0
  8  9  1  0
  9 10  2  0
 10 11  1  0
 11 12  2  0
 12 13  1  0
 13 14  2  0
 14 15  1  0
 15  7  1  0
 15 10  1  0
  1 16  1  0
  1 17  1  0
  1 18  1  0
  2 19  1  0
  2 20  1  0
  3 21  1  0
  3 22  1  0
  4 23  1  0
  4 24  1  0
 12 25  1  0
 13 26  1  0
 14 27  1  0
M  END
>  <UniqueID>  (40) 
38

>  <SMILES>  (40) 
CCCCC#Cc1nnc2ncccn12

>  <Energy>  (40) 
60.513221394704445

>  <Genealogy>  (40) 
CCCCC#Cc1nnc2ncccn12 (3D coordinates assigned)
CCCCC#Cc1nnc2ncccn12 (optimized conformer: 60.513221394704445 kcal/mol)

>  <smiles>  (40) 
CCCCC#Cc1nnc2ncccn12

>  <score_type>  (40) 
oracle

>  <origin>  (40) 
adg

>  <m_score__min__energy>  (40) 
-5.7800000000000002

>  <m_primary>  (40) 
energy

$$$$
40:0
     RDKit          3D

 44 46  0  0  0  0  0  0  0  0999 V2000
   56.2870   22.1720   41.6160 H   0  0  0  0  0  0  0  0  0  0  0  0
   56.2660   21.8570   42.5570 O   0  0  0  0  0  0  0  0  0  0  0  0
   56.9160   22.8360   43.3230 C   0  0  0  0  0  0  0  0  0  0  0  0
   56.1748   23.3542   43.9492 H   0  0  0  0  0  0  0  0  0  0  0  0
   57.4073   23.5464   42.6419 H   0  0  0  0  0  0  0  0  0  0  0  0
   57.9830   22.2050   44.2260 C   0  0  0  0  0  0  0  0  0  0  0  0
   58.0398   22.7742   45.1655 H   0  0  0  0  0  0  0  0  0  0  0  0
   58.9468   22.2319   43.6964 H   0  0  0  0  0  0  0  0  0  0  0  0
   57.6600   20.8010   44.5340 N   0  0  0  0  0  0  0  0  0  0  0  0
   58.4990   20.3190   44.9320 H   0  0  0  0  0  0  0  0  0  0  0  0
   57.4010   20.3110   43.6460 H   0  0  0  0  0  0  0  0  0  0  0  0
   56.5160   20.6720   45.4570 C   0  0  0  0  0  0  0  0  0  0  0  0
   56.1621   19.6309   45.4283 H   0  0  0  0  0  0  0  0  0  0  0  0
   55.7489   21.3849   45.1205 H   0  0  0  0  0  0  0  0  0  0  0  0
   56.8550   21.0300   46.9140 C   0  0  0  0  0  0  0  0  0  0  0  0
   57.8128   20.5649   47.1903 H   0  0  0  0  0  0  0  0  0  0  0  0
   56.0566   20.6581   47.5729 H   0  0  0  0  0  0  0  0  0  0  0  0
   56.9610   22.4770   47.0590 N   0  0  0  0  0  0  0  0  0  0  0  0
   56.1930   23.4790   46.7040 C   0  0  0  0  0  0  0  0  0  0  0  0
   54.8180   23.3630   46.2960 C   0  0  0  0  0  0  0  0  0  0  0  0
   54.0110   22.2130   46.4760 C   0  0  0  0  0  0  0  0  0  0  0  0
   54.4269   21.3389   46.9984 H   0  0  0  0  0  0  0  0  0  0  0  0
   52.6970   22.1670   46.0030 C   0  0  0  0  0  0  0  0  0  0  0  0
   52.1017   21.2511   46.1325 H   0  0  0  0  0  0  0  0  0  0  0  0
   52.1360   23.2720   45.3690 C   0  0  0  0  0  0  0  0  0  0  0  0
   50.4840   23.2070   44.7830 Cl  0  0  0  0  0  0  0  0  0  0  0  0
   52.8790   24.4420   45.2380 C   0  0  0  0  0  0  0  0  0  0  0  0
   52.4295   25.3241   44.7585 H   0  0  0  0  0  0  0  0  0  0  0  0
   54.1930   24.5030   45.7120 C   0  0  0  0  0  0  0  0  0  0  0  0
   54.8510   25.6840   45.6290 N   0  0  0  0  0  0  0  0  0  0  0  0
   56.1120   25.8480   46.0870 C   0  0  0  0  0  0  0  0  0  0  0  0
   56.7170   27.1040   45.9870 C   0  0  0  0  0  0  0  0  0  0  0  0
   56.1594   27.9469   45.5527 H   0  0  0  0  0  0  0  0  0  0  0  0
   58.0240   27.2940   46.4350 C   0  0  0  0  0  0  0  0  0  0  0  0
   58.4890   28.2878   46.3562 H   0  0  0  0  0  0  0  0  0  0  0  0
   58.7470   26.2320   46.9830 C   0  0  0  0  0  0  0  0  0  0  0  0
   60.0600   26.4760   47.4110 O   0  0  0  0  0  0  0  0  0  0  0  0
   60.4330   27.5020   48.3270 C   0  0  0  0  0  0  0  0  0  0  0  0
   60.3012   27.1395   49.3572 H   0  0  0  0  0  0  0  0  0  0  0  0
   61.4869   27.7724   48.1654 H   0  0  0  0  0  0  0  0  0  0  0  0
   59.7988   28.3861   48.1654 H   0  0  0  0  0  0  0  0  0  0  0  0
   58.1420   24.9650   47.0860 C   0  0  0  0  0  0  0  0  0  0  0  0
   58.7086   24.1263   47.5169 H   0  0  0  0  0  0  0  0  0  0  0  0
   56.8130   24.7560   46.6420 C   0  0  0  0  0  0  0  0  0  0  0  0
  1  2  1  0
  2  3  1  0
  3  4  1  0
  3  5  1  0
  3  6  1  0
  6  7  1  0
  6  8  1  0
  6  9  1  0
  9 10  1  0
  9 11  1  0
  9 12  1  0
 12 13  1  0
 12 14  1  0
 12 15  1  0
 15 16  1  0
 15 17  1  0
 15 18  1  0
 18 19  2  0
 19 20  1  0
 20 21  2  0
 21 22  1  0
 21 23  1  0
 23 24  1  0
 23 25  2  0
 25 26  1  0
 25 27  1  0
 27 28  1  0
 27 29  2  0
 29 30  1  0
 30 31  1  0
 31 32  2  0
 32 33  1  0
 32 34  1  0
 34 35  1  0
 34 36  2  0
 36 37  1  0
 37 38  1  0
 38 39  1  0
 38 40  1  0
 38 41  1  0
 36 42  1  0
 42 43  1  0
 42 44  2  0
 44 19  1  0
 29 20  1  0
 44 31  1  0
M  CHG  2   9   1  30  -1
M  END
>  <UniqueID>  (41) 
39

>  <SMILES>  (41) 
COc1ccc2[n-]c3cc(Cl)ccc3/c(=N\CC[NH2+]CCO)c2c1

>  <Energy>  (41) 
64.88675358436008

>  <Genealogy>  (41) 
COc1ccc2[n-]c3cc(Cl)ccc3c(=NCC[NH2+]CCO)c2c1 (protonated)
COc1ccc2[n-]c3cc(Cl)ccc3/c(=N\CC[NH2+]CCO)c2c1 (cis-trans isomerization)
COc1ccc2[n-]c3cc(Cl)ccc3/c(=N\CC[NH2+]CCO)c2c1 (3D coordinates assigned)
COc1ccc2[n-]c3cc(Cl)ccc3/c(=N\CC[NH2+]CCO)c2c1 (optimized conformer: 64.88675358436008 kcal/mol)

>  <smiles>  (41) 
COc1ccc2[nH]c3cc(Cl)ccc3c(=NCCNCCO)c2c1

>  <score_type>  (41) 
oracle

>  <origin>  (41) 
adg

>  <m_score__min__energy>  (41) 
-7.5999999999999996

>  <m_primary>  (41) 
energy

$$$$
41:0
     RDKit          3D

 45 47  0  0  0  0  0  0  0  0999 V2000
   55.8450   26.5810   46.0250 O   0  0  0  0  0  0  0  0  0  0  0  0
   56.7680   27.3670   45.6800 C   0  0  0  0  0  0  0  0  0  0  0  0
   58.1020   27.0080   45.8770 C   0  0  0  0  0  0  0  0  0  0  0  0
   59.1070   27.9000   45.4850 C   0  0  0  0  0  0  0  0  0  0  0  0
   60.5530   27.5460   45.6530 C   0  0  0  0  0  0  0  0  0  0  0  0
   61.3520   28.4190   44.9030 O   0  0  0  0  0  0  0  0  0  0  0  0
   58.7840   29.0640   44.9260 O   0  0  0  0  0  0  0  0  0  0  0  0
   57.5230   29.4450   44.7210 C   0  0  0  0  0  0  0  0  0  0  0  0
   57.2640   30.7690   44.0580 C   0  0  0  0  0  0  0  0  0  0  0  0
   57.1000   31.8460   45.0600 N   0  0  0  0  0  0  0  0  0  0  0  0
   57.7690   31.4930   46.3380 C   0  0  0  0  0  0  0  0  0  0  0  0
   59.1740   32.1030   46.4390 C   0  0  0  0  0  0  0  0  0  0  0  0
   59.1190   33.5820   46.3910 N   0  0  0  0  0  0  0  0  0  0  0  0
   60.4230   34.2170   46.0940 C   0  0  0  0  0  0  0  0  0  0  0  0
   61.5300   33.8380   47.0610 C   0  0  0  0  0  0  0  0  0  0  0  0
   62.8080   33.4920   46.5870 C   0  0  0  0  0  0  0  0  0  0  0  0
   63.8180   33.1240   47.4810 C   0  0  0  0  0  0  0  0  0  0  0  0
   63.5700   33.1190   48.8550 C   0  0  0  0  0  0  0  0  0  0  0  0
   62.3140   33.4940   49.3390 C   0  0  0  0  0  0  0  0  0  0  0  0
   61.3010   33.8610   48.4480 C   0  0  0  0  0  0  0  0  0  0  0  0
   57.9760   34.1270   45.6220 C   0  0  0  0  0  0  0  0  0  0  0  0
   57.5250   33.1630   44.5160 C   0  0  0  0  0  0  0  0  0  0  0  0
   56.4660   28.5980   45.0940 C   0  0  0  0  0  0  0  0  0  0  0  0
   55.1430   28.9710   44.8800 O   0  0  0  0  0  0  0  0  0  0  0  0
   58.3594   26.0405   46.3326 H   0  0  0  0  0  0  0  0  0  0  0  0
   60.8260   27.6250   46.7157 H   0  0  0  0  0  0  0  0  0  0  0  0
   60.7152   26.5166   45.3008 H   0  0  0  0  0  0  0  0  0  0  0  0
   60.7370   28.9290   44.3120 H   0  0  0  0  0  0  0  0  0  0  0  0
   58.1129   31.0145   43.4030 H   0  0  0  0  0  0  0  0  0  0  0  0
   56.3344   30.6909   43.4751 H   0  0  0  0  0  0  0  0  0  0  0  0
   57.1587   31.8666   47.1734 H   0  0  0  0  0  0  0  0  0  0  0  0
   57.8701   30.3984   46.3776 H   0  0  0  0  0  0  0  0  0  0  0  0
   59.6333   31.7914   47.3887 H   0  0  0  0  0  0  0  0  0  0  0  0
   59.7706   31.7482   45.5856 H   0  0  0  0  0  0  0  0  0  0  0  0
   60.7309   33.9172   45.0814 H   0  0  0  0  0  0  0  0  0  0  0  0
   60.2764   35.3031   46.1886 H   0  0  0  0  0  0  0  0  0  0  0  0
   63.0142   33.5110   45.5067 H   0  0  0  0  0  0  0  0  0  0  0  0
   64.8099   32.8379   47.1012 H   0  0  0  0  0  0  0  0  0  0  0  0
   64.3630   32.8200   49.5562 H   0  0  0  0  0  0  0  0  0  0  0  0
   62.1220   33.5005   50.4221 H   0  0  0  0  0  0  0  0  0  0  0  0
   60.3185   34.1697   48.8346 H   0  0  0  0  0  0  0  0  0  0  0  0
   57.1345   34.3004   46.3088 H   0  0  0  0  0  0  0  0  0  0  0  0
   58.2979   35.0661   45.1482 H   0  0  0  0  0  0  0  0  0  0  0  0
   56.6789   33.6134   43.9763 H   0  0  0  0  0  0  0  0  0  0  0  0
   58.3807   32.9923   43.8462 H   0  0  0  0  0  0  0  0  0  0  0  0
  1  2  2  0
  2  3  1  0
  3  4  2  0
  4  5  1  0
  5  6  1  0
  4  7  1  0
  7  8  1  0
  8  9  1  0
  9 10  1  0
 10 11  1  0
 11 12  1  0
 12 13  1  0
 13 14  1  0
 14 15  1  0
 15 16  2  0
 16 17  1  0
 17 18  2  0
 18 19  1  0
 19 20  2  0
 13 21  1  0
 21 22  1  0
  8 23  2  0
 23 24  1  0
 23  2  1  0
 22 10  1  0
 20 15  1  0
  3 25  1  0
  5 26  1  0
  5 27  1  0
  6 28  1  0
  9 29  1  0
  9 30  1  0
 11 31  1  0
 11 32  1  0
 12 33  1  0
 12 34  1  0
 14 35  1  0
 14 36  1  0
 16 37  1  0
 17 38  1  0
 18 39  1  0
 19 40  1  0
 20 41  1  0
 21 42  1  0
 21 43  1  0
 22 44  1  0
 22 45  1  0
M  CHG  1  24  -1
M  END
>  <UniqueID>  (42) 
40

>  <SMILES>  (42) 
O=c1cc(CO)oc(CN2CCN(Cc3ccccc3)CC2)c1[O-]

>  <Energy>  (42) 
61.98684092923053

>  <Genealogy>  (42) 
O=c1cc(CO)oc(CN2CCN(Cc3ccccc3)CC2)c1[O-] (protonated)
O=c1cc(CO)oc(CN2CCN(Cc3ccccc3)CC2)c1[O-] (3D coordinates assigned)
O=c1cc(CO)oc(CN2CCN(Cc3ccccc3)CC2)c1[O-] (nonaromatic ring conformer: 61.98684092923053 kcal/mol)

>  <smiles>  (42) 
O=c1cc(CO)oc(CN2CCN(Cc3ccccc3)CC2)c1O

>  <score_type>  (42) 
oracle

>  <origin>  (42) 
adg

>  <m_score__min__energy>  (42) 
-11.5

>  <m_primary>  (42) 
energy

$$$$
42:0
     RDKit          3D

 56 59  0  0  0  0  0  0  0  0999 V2000
   59.3240   29.3450   51.3030 C   0  0  0  0  0  0  0  0  0  0  0  0
   60.5850   28.9600   50.6450 N   0  0  0  0  0  0  0  0  0  0  0  0
   60.3790   27.9670   49.5760 C   0  0  0  0  0  0  0  0  0  0  0  0
   59.7690   28.5690   48.3320 C   0  0  0  0  0  0  0  0  0  0  0  0
   59.0890   27.7370   47.4290 C   0  0  0  0  0  0  0  0  0  0  0  0
   58.5170   28.2540   46.2570 C   0  0  0  0  0  0  0  0  0  0  0  0
   57.8240   27.3600   45.3650 N   0  0  0  0  0  0  0  0  0  0  0  0
   56.8180   26.0390   45.8740 S   0  0  0  0  0  0  0  0  0  0  0  0
   56.9400   24.6910   44.7190 C   0  0  0  0  0  0  0  0  0  0  0  0
   57.2890   25.5630   47.2180 O   0  0  0  0  0  0  0  0  0  0  0  0
   55.3900   26.4960   46.0000 O   0  0  0  0  0  0  0  0  0  0  0  0
   58.6380   29.6290   45.9950 C   0  0  0  0  0  0  0  0  0  0  0  0
   59.3270   30.4610   46.8790 C   0  0  0  0  0  0  0  0  0  0  0  0
   59.9280   29.9380   48.0370 C   0  0  0  0  0  0  0  0  0  0  0  0
   60.6310   30.8730   49.0080 C   0  0  2  0  0  0  0  0  0  0  0  0
   61.6260   31.7840   48.3000 C   0  0  0  0  0  0  0  0  0  0  0  0
   62.5990   31.2260   47.4460 C   0  0  0  0  0  0  0  0  0  0  0  0
   63.5330   32.0390   46.8050 C   0  0  0  0  0  0  0  0  0  0  0  0
   63.5190   33.4170   47.0130 C   0  0  0  0  0  0  0  0  0  0  0  0
   62.5740   33.9880   47.8680 C   0  0  0  0  0  0  0  0  0  0  0  0
   61.6230   33.1810   48.5230 C   0  0  0  0  0  0  0  0  0  0  0  0
   60.6690   33.7290   49.3960 O   0  0  0  0  0  0  0  0  0  0  0  0
   59.6340   34.6300   49.0110 C   0  0  0  0  0  0  0  0  0  0  0  0
   59.1880   34.2960   47.6180 C   0  0  0  0  0  0  0  0  0  0  0  0
   58.1400   33.3820   47.4190 C   0  0  0  0  0  0  0  0  0  0  0  0
   57.6970   33.0880   46.1250 C   0  0  0  0  0  0  0  0  0  0  0  0
   58.2910   33.7090   45.0240 C   0  0  0  0  0  0  0  0  0  0  0  0
   59.3260   34.6310   45.2140 C   0  0  0  0  0  0  0  0  0  0  0  0
   59.7710   34.9290   46.5070 C   0  0  0  0  0  0  0  0  0  0  0  0
   61.3490   30.1210   50.1530 C   0  0  0  0  0  0  0  0  0  0  0  0
   59.4531   29.3056   52.3947 H   0  0  0  0  0  0  0  0  0  0  0  0
   59.0510   30.3674   51.0028 H   0  0  0  0  0  0  0  0  0  0  0  0
   58.5265   28.6494   51.0028 H   0  0  0  0  0  0  0  0  0  0  0  0
   61.3517   27.5258   49.3131 H   0  0  0  0  0  0  0  0  0  0  0  0
   59.6786   27.2090   49.9566 H   0  0  0  0  0  0  0  0  0  0  0  0
   59.0032   26.6616   47.6439 H   0  0  0  0  0  0  0  0  0  0  0  0
   57.9230   27.4990   44.3350 H   0  0  0  0  0  0  0  0  0  0  0  0
   57.0258   23.7428   45.2699 H   0  0  0  0  0  0  0  0  0  0  0  0
   56.0403   24.6675   44.0865 H   0  0  0  0  0  0  0  0  0  0  0  0
   57.8293   24.8294   44.0865 H   0  0  0  0  0  0  0  0  0  0  0  0
   58.1863   30.0532   45.0862 H   0  0  0  0  0  0  0  0  0  0  0  0
   59.4004   31.5379   46.6671 H   0  0  0  0  0  0  0  0  0  0  0  0
   59.8325   31.4866   49.4507 H   0  0  0  0  0  0  0  0  0  0  0  0
   62.6216   30.1383   47.2837 H   0  0  0  0  0  0  0  0  0  0  0  0
   64.2818   31.5922   46.1344 H   0  0  0  0  0  0  0  0  0  0  0  0
   64.2542   34.0564   46.5024 H   0  0  0  0  0  0  0  0  0  0  0  0
   62.5722   35.0758   48.0312 H   0  0  0  0  0  0  0  0  0  0  0  0
   58.7846   34.5333   49.7032 H   0  0  0  0  0  0  0  0  0  0  0  0
   60.0102   35.6632   49.0428 H   0  0  0  0  0  0  0  0  0  0  0  0
   57.6658   32.8955   48.2841 H   0  0  0  0  0  0  0  0  0  0  0  0
   56.8800   32.3670   45.9745 H   0  0  0  0  0  0  0  0  0  0  0  0
   57.9449   33.4730   44.0069 H   0  0  0  0  0  0  0  0  0  0  0  0
   59.7905   35.1222   44.3462 H   0  0  0  0  0  0  0  0  0  0  0  0
   60.5792   35.6606   46.6540 H   0  0  0  0  0  0  0  0  0  0  0  0
   62.3238   29.7690   49.7845 H   0  0  0  0  0  0  0  0  0  0  0  0
   61.4579   30.8239   50.9921 H   0  0  0  0  0  0  0  0  0  0  0  0
  1  2  1  0
  2  3  1  0
  3  4  1  0
  4  5  2  0
  5  6  1  0
  6  7  1  0
  7  8  1  0
  8  9  1  0
  8 10  2  0
  8 11  2  0
  6 12  2  0
 12 13  1  0
 13 14  2  0
 14 15  1  0
 15 16  1  0
 16 17  2  0
 17 18  1  0
 18 19  2  0
 19 20  1  0
 20 21  2  0
 21 22  1  0
 22 23  1  0
 23 24  1  0
 24 25  2  0
 25 26  1  0
 26 27  2  0
 27 28  1  0
 28 29  2  0
 15 30  1  0
 30  2  1  0
 14  4  1  0
 21 16  1  0
 29 24  1  0
  1 31  1  0
  1 32  1  0
  1 33  1  0
  3 34  1  0
  3 35  1  0
  5 36  1  0
  7 37  1  0
  9 38  1  0
  9 39  1  0
  9 40  1  0
 12 41  1  0
 13 42  1  0
 15 43  1  1
 17 44  1  0
 18 45  1  0
 19 46  1  0
 20 47  1  0
 23 48  1  0
 23 49  1  0
 25 50  1  0
 26 51  1  0
 27 52  1  0
 28 53  1  0
 29 54  1  0
 30 55  1  0
 30 56  1  0
M  END
>  <UniqueID>  (43) 
41

>  <SMILES>  (43) 
CN1Cc2cc(NS(C)(=O)=O)ccc2[C@H](c2ccccc2OCc2ccccc2)C1

>  <Energy>  (43) 
64.86659200753232

>  <Genealogy>  (43) 
CN1Cc2cc(NS(C)(=O)=O)ccc2[C@H](c2ccccc2OCc2ccccc2)C1 (chirality)
CN1Cc2cc(NS(C)(=O)=O)ccc2[C@H](c2ccccc2OCc2ccccc2)C1 (3D coordinates assigned)
CN1Cc2cc(NS(C)(=O)=O)ccc2[C@H](c2ccccc2OCc2ccccc2)C1 (nonaromatic ring conformer: 64.86659200753232 kcal/mol)

>  <smiles>  (43) 
CN1Cc2cc(NS(C)(=O)=O)ccc2C(c2ccccc2OCc2ccccc2)C1

>  <score_type>  (43) 
oracle

>  <origin>  (43) 
adg

>  <m_score__min__energy>  (43) 
-9.4199999999999999

>  <m_primary>  (43) 
energy

$$$$
43:0
     RDKit          3D

 63 66  0  0  0  0  0  0  0  0999 V2000
   60.3730   26.3110   46.7350 C   0  0  0  0  0  0  0  0  0  0  0  0
   59.4260   25.3410   46.0130 C   0  0  0  0  0  0  0  0  0  0  0  0
   58.0390   25.8450   45.8920 N   0  0  0  0  0  0  0  0  0  0  0  0
   57.0290   24.8190   46.2260 C   0  0  0  0  0  0  0  0  0  0  0  0
   56.9830   23.7640   45.1500 C   0  0  0  0  0  0  0  0  0  0  0  0
   57.8990   22.7000   45.1490 C   0  0  0  0  0  0  0  0  0  0  0  0
   57.9080   21.7780   44.0980 C   0  0  0  0  0  0  0  0  0  0  0  0
   57.0000   21.9130   43.0420 C   0  0  0  0  0  0  0  0  0  0  0  0
   56.0770   22.9610   43.0450 C   0  0  0  0  0  0  0  0  0  0  0  0
   56.0660   23.8840   44.0930 C   0  0  0  0  0  0  0  0  0  0  0  0
   57.7870   26.5210   44.5970 C   0  0  0  0  0  0  0  0  0  0  0  0
   57.8480   28.0140   44.7910 C   0  0  0  0  0  0  0  0  0  0  0  0
   57.4650   28.8770   43.7530 C   0  0  0  0  0  0  0  0  0  0  0  0
   57.5700   30.2590   43.9140 C   0  0  0  0  0  0  0  0  0  0  0  0
   58.0680   30.8050   45.1080 C   0  0  0  0  0  0  0  0  0  0  0  0
   58.1430   32.2730   45.2670 C   0  0  0  0  0  0  0  0  0  0  0  0
   57.6680   33.2340   44.3880 C   0  0  0  0  0  0  0  0  0  0  0  0
   57.9920   34.4530   44.9480 C   0  0  0  0  0  0  0  0  0  0  0  0
   58.6480   34.1580   46.1270 C   0  0  0  0  0  0  0  0  0  0  0  0
   59.2860   35.1480   47.0560 C   0  0  0  0  0  0  0  0  0  0  0  0
   60.5010   34.5930   47.6910 N   0  0  0  0  0  0  0  0  0  0  0  0
   60.1550   33.8060   48.9040 C   0  0  0  0  0  0  0  0  0  0  0  0
   60.2050   32.2880   48.6510 C   0  0  0  0  0  0  0  0  0  0  0  0
   61.5610   31.8570   48.2450 N   0  0  0  0  0  0  0  0  0  0  0  0
   61.5060   30.5510   47.5670 C   0  0  0  0  0  0  0  0  0  0  0  0
   62.2880   32.8600   47.4320 C   0  0  0  0  0  0  0  0  0  0  0  0
   61.3330   33.8350   46.7220 C   0  0  0  0  0  0  0  0  0  0  0  0
   58.7170   32.8570   46.2950 O   0  0  0  0  0  0  0  0  0  0  0  0
   58.4640   29.9390   46.1420 C   0  0  0  0  0  0  0  0  0  0  0  0
   58.3420   28.5560   45.9860 C   0  0  0  0  0  0  0  0  0  0  0  0
   60.2585   26.1937   47.8227 H   0  0  0  0  0  0  0  0  0  0  0  0
   61.4120   26.0896   46.4497 H   0  0  0  0  0  0  0  0  0  0  0  0
   60.1267   27.3444   46.4497 H   0  0  0  0  0  0  0  0  0  0  0  0
   59.8192   25.1594   45.0019 H   0  0  0  0  0  0  0  0  0  0  0  0
   59.3835   24.4228   46.6172 H   0  0  0  0  0  0  0  0  0  0  0  0
   57.2922   24.3487   47.1850 H   0  0  0  0  0  0  0  0  0  0  0  0
   56.0418   25.2983   46.3012 H   0  0  0  0  0  0  0  0  0  0  0  0
   58.6128   22.5913   45.9788 H   0  0  0  0  0  0  0  0  0  0  0  0
   58.6286   20.9469   44.1013 H   0  0  0  0  0  0  0  0  0  0  0  0
   57.0132   21.1939   42.2097 H   0  0  0  0  0  0  0  0  0  0  0  0
   55.3566   23.0598   42.2196 H   0  0  0  0  0  0  0  0  0  0  0  0
   55.3368   24.7076   44.0906 H   0  0  0  0  0  0  0  0  0  0  0  0
   58.5515   26.2142   43.8681 H   0  0  0  0  0  0  0  0  0  0  0  0
   56.7913   26.2396   44.2235 H   0  0  0  0  0  0  0  0  0  0  0  0
   57.0807   28.4627   42.8093 H   0  0  0  0  0  0  0  0  0  0  0  0
   57.2596   30.9275   43.0974 H   0  0  0  0  0  0  0  0  0  0  0  0
   57.1407   33.0604   43.4384 H   0  0  0  0  0  0  0  0  0  0  0  0
   57.7734   35.4511   44.5405 H   0  0  0  0  0  0  0  0  0  0  0  0
   59.5604   36.0476   46.4855 H   0  0  0  0  0  0  0  0  0  0  0  0
   58.5635   35.3913   47.8490 H   0  0  0  0  0  0  0  0  0  0  0  0
   60.8693   34.0550   49.7026 H   0  0  0  0  0  0  0  0  0  0  0  0
   59.1250   34.0652   49.1902 H   0  0  0  0  0  0  0  0  0  0  0  0
   59.9225   31.7610   49.5743 H   0  0  0  0  0  0  0  0  0  0  0  0
   59.5051   32.0475   47.8372 H   0  0  0  0  0  0  0  0  0  0  0  0
   61.4722   29.7487   48.3188 H   0  0  0  0  0  0  0  0  0  0  0  0
   60.6050   30.5021   46.9379 H   0  0  0  0  0  0  0  0  0  0  0  0
   62.3997   30.4266   46.9379 H   0  0  0  0  0  0  0  0  0  0  0  0
   62.9549   33.4346   48.0916 H   0  0  0  0  0  0  0  0  0  0  0  0
   62.8561   32.3210   46.6595 H   0  0  0  0  0  0  0  0  0  0  0  0
   61.9262   34.5463   46.1286 H   0  0  0  0  0  0  0  0  0  0  0  0
   60.6609   33.2487   46.0782 H   0  0  0  0  0  0  0  0  0  0  0  0
   58.8712   30.3515   47.0769 H   0  0  0  0  0  0  0  0  0  0  0  0
   58.6360   27.8866   46.8078 H   0  0  0  0  0  0  0  0  0  0  0  0
  1  2  1  0
  2  3  1  0
  3  4  1  0
  4  5  1  0
  5  6  2  0
  6  7  1  0
  7  8  2  0
  8  9  1  0
  9 10  2  0
  3 11  1  0
 11 12  1  0
 12 13  2  0
 13 14  1  0
 14 15  2  0
 15 16  1  0
 16 17  2  0
 17 18  1  0
 18 19  2  0
 19 20  1  0
 20 21  1  0
 21 22  1  0
 22 23  1  0
 23 24  1  0
 24 25  1  0
 24 26  1  0
 26 27  1  0
 19 28  1  0
 15 29  1  0
 29 30  2  0
 10  5  1  0
 30 12  1  0
 28 16  1  0
 27 21  1  0
  1 31  1  0
  1 32  1  0
  1 33  1  0
  2 34  1  0
  2 35  1  0
  4 36  1  0
  4 37  1  0
  6 38  1  0
  7 39  1  0
  8 40  1  0
  9 41  1  0
 10 42  1  0
 11 43  1  0
 11 44  1  0
 13 45  1  0
 14 46  1  0
 17 47  1  0
 18 48  1  0
 20 49  1  0
 20 50  1  0
 22 51  1  0
 22 52  1  0
 23 53  1  0
 23 54  1  0
 25 55  1  0
 25 56  1  0
 25 57  1  0
 26 58  1  0
 26 59  1  0
 27 60  1  0
 27 61  1  0
 29 62  1  0
 30 63  1  0
M  END
>  <UniqueID>  (44) 
42

>  <SMILES>  (44) 
CCN(Cc1ccccc1)Cc1ccc(-c2ccc(CN3CCN(C)CC3)o2)cc1

>  <Energy>  (44) 
107.98888493895714

>  <Genealogy>  (44) 
CCN(Cc1ccccc1)Cc1ccc(-c2ccc(CN3CCN(C)CC3)o2)cc1 (3D coordinates assigned)
CCN(Cc1ccccc1)Cc1ccc(-c2ccc(CN3CCN(C)CC3)o2)cc1 (nonaromatic ring conformer: 107.98888493895714 kcal/mol)

>  <smiles>  (44) 
CCN(Cc1ccccc1)Cc1ccc(-c2ccc(CN3CCN(C)CC3)o2)cc1

>  <score_type>  (44) 
oracle

>  <origin>  (44) 
adg

>  <m_score__min__energy>  (44) 
-8.8900000000000006

>  <m_primary>  (44) 
energy

$$$$
44:0
     RDKit          3D

 60 63  0  0  0  0  0  0  0  0999 V2000
   68.8080   34.1260   50.1880 C   0  0  0  0  0  0  0  0  0  0  0  0
   67.9810   34.3000   51.0480 C   0  0  0  0  0  0  0  0  0  0  0  0
   66.9750   34.5130   52.0940 C   0  0  0  0  0  0  0  0  0  0  0  0
   65.7290   33.7910   51.7430 N   0  0  0  0  0  0  0  0  0  0  0  0
   64.5530   34.6050   52.0980 C   0  0  0  0  0  0  0  0  0  0  0  0
   65.6710   33.4370   50.3050 C   0  0  0  0  0  0  0  0  0  0  0  0
   65.3870   31.9370   50.1040 C   0  0  0  0  0  0  0  0  0  0  0  0
   63.8890   31.6440   49.8460 C   0  0  2  0  0  0  0  0  0  0  0  0
   63.2820   32.5990   48.7790 C   0  0  0  0  0  0  0  0  0  0  0  0
   62.5770   33.8150   49.4010 C   0  0  0  0  0  0  0  0  0  0  0  0
   61.4350   33.4210   50.3880 C   0  0  1  0  0  0  0  0  0  0  0  0
   60.0880   33.6710   49.7970 N   0  0  1  0  0  0  0  0  0  0  0  0
   60.1270   34.5920   48.6830 C   0  0  0  0  0  0  0  0  0  0  0  0
   59.6820   34.0410   47.5760 C   0  0  0  0  0  0  0  0  0  0  0  0
   59.5210   34.6500   46.2550 C   0  0  0  0  0  0  0  0  0  0  0  0
   58.9620   33.9260   45.2710 C   0  0  0  0  0  0  0  0  0  0  0  0
   58.5010   32.5650   45.4870 N   0  0  0  0  0  0  0  0  0  0  0  0
   57.8800   31.8500   44.4040 C   0  0  0  0  0  0  0  0  0  0  0  0
   57.1040   30.7050   44.6570 C   0  0  0  0  0  0  0  0  0  0  0  0
   56.4950   30.0180   43.6020 C   0  0  0  0  0  0  0  0  0  0  0  0
   56.6510   30.4690   42.2890 C   0  0  0  0  0  0  0  0  0  0  0  0
   57.4150   31.6100   42.0290 C   0  0  0  0  0  0  0  0  0  0  0  0
   58.0250   32.3000   43.0810 C   0  0  0  0  0  0  0  0  0  0  0  0
   58.6720   31.9540   46.7860 C   0  0  0  0  0  0  0  0  0  0  0  0
   58.3130   30.7660   47.0070 O   0  0  0  0  0  0  0  0  0  0  0  0
   59.2920   32.7230   47.8120 N   0  0  0  0  0  0  0  0  0  0  0  0
   59.4560   32.4470   49.2270 C   0  0  0  0  0  0  0  0  0  0  0  0
   61.6170   31.9790   50.9510 C   0  0  0  0  0  0  0  0  0  0  0  0
   63.1000   31.6770   51.1800 C   0  0  0  0  0  0  0  0  0  0  0  0
   69.5625   33.9673   49.4034 H   0  0  0  0  0  0  0  0  0  0  0  0
   67.3589   34.1350   53.0530 H   0  0  0  0  0  0  0  0  0  0  0  0
   66.7610   35.5885   52.1801 H   0  0  0  0  0  0  0  0  0  0  0  0
   64.4658   34.6653   53.1929 H   0  0  0  0  0  0  0  0  0  0  0  0
   64.6688   35.6171   51.6831 H   0  0  0  0  0  0  0  0  0  0  0  0
   63.6465   34.1401   51.6831 H   0  0  0  0  0  0  0  0  0  0  0  0
   64.8707   34.0197   49.8255 H   0  0  0  0  0  0  0  0  0  0  0  0
   66.6473   33.6669   49.8534 H   0  0  0  0  0  0  0  0  0  0  0  0
   65.9693   31.5807   49.2415 H   0  0  0  0  0  0  0  0  0  0  0  0
   65.6736   31.4167   51.0298 H   0  0  0  0  0  0  0  0  0  0  0  0
   63.8049   30.6305   49.4267 H   0  0  0  0  0  0  0  0  0  0  0  0
   64.0920   32.9578   48.1269 H   0  0  0  0  0  0  0  0  0  0  0  0
   62.5271   32.0302   48.2163 H   0  0  0  0  0  0  0  0  0  0  0  0
   63.3229   34.4102   49.9482 H   0  0  0  0  0  0  0  0  0  0  0  0
   62.1185   34.3844   48.5791 H   0  0  0  0  0  0  0  0  0  0  0  0
   61.5058   34.0833   51.2634 H   0  0  0  0  0  0  0  0  0  0  0  0
   59.4500   34.0660   50.5270 H   0  0  0  0  0  0  0  0  0  0  0  0
   60.4861   35.6293   48.7536 H   0  0  0  0  0  0  0  0  0  0  0  0
   59.8520   35.6828   46.0710 H   0  0  0  0  0  0  0  0  0  0  0  0
   58.8501   34.3762   44.2736 H   0  0  0  0  0  0  0  0  0  0  0  0
   56.9754   30.3480   45.6895 H   0  0  0  0  0  0  0  0  0  0  0  0
   55.8921   29.1209   43.8064 H   0  0  0  0  0  0  0  0  0  0  0  0
   56.1728   29.9263   41.4603 H   0  0  0  0  0  0  0  0  0  0  0  0
   57.5366   31.9657   40.9952 H   0  0  0  0  0  0  0  0  0  0  0  0
   58.6217   33.2001   42.8717 H   0  0  0  0  0  0  0  0  0  0  0  0
   58.4797   32.2622   49.6990 H   0  0  0  0  0  0  0  0  0  0  0  0
   60.0690   31.5504   49.4011 H   0  0  0  0  0  0  0  0  0  0  0  0
   61.0781   31.8924   51.9060 H   0  0  0  0  0  0  0  0  0  0  0  0
   61.2153   31.2591   50.2228 H   0  0  0  0  0  0  0  0  0  0  0  0
   63.5270   32.4566   51.8280 H   0  0  0  0  0  0  0  0  0  0  0  0
   63.1803   30.6864   51.6515 H   0  0  0  0  0  0  0  0  0  0  0  0
  1  2  3  0
  2  3  1  0
  3  4  1  0
  4  5  1  0
  4  6  1  0
  6  7  1  0
  7  8  1  0
  8  9  1  0
  9 10  1  0
 10 11  1  0
 11 12  1  0
 12 13  1  0
 13 14  2  0
 14 15  1  0
 15 16  2  0
 16 17  1  0
 17 18  1  0
 18 19  2  0
 19 20  1  0
 20 21  2  0
 21 22  1  0
 22 23  2  0
 17 24  1  0
 24 25  2  0
 24 26  1  0
 26 27  1  0
 11 28  1  0
 28 29  1  0
 29  8  1  0
 27 12  1  0
 26 14  1  0
 23 18  1  0
  1 30  1  0
  3 31  1  0
  3 32  1  0
  5 33  1  0
  5 34  1  0
  5 35  1  0
  6 36  1  0
  6 37  1  0
  7 38  1  0
  7 39  1  0
  8 40  1  6
  9 41  1  0
  9 42  1  0
 10 43  1  0
 10 44  1  0
 11 45  1  1
 12 46  1  1
 13 47  1  0
 15 48  1  0
 16 49  1  0
 19 50  1  0
 20 51  1  0
 21 52  1  0
 22 53  1  0
 23 54  1  0
 27 55  1  0
 27 56  1  0
 28 57  1  0
 28 58  1  0
 29 59  1  0
 29 60  1  0
M  CHG  1  12   1
M  END
>  <UniqueID>  (45) 
43

>  <SMILES>  (45) 
C#CCN(C)CCC1CCC([N@H+]2C=C3C=CN(c4ccccc4)C(=O)N3C2)CC1

>  <Energy>  (45) 
91.36430934305406

>  <Genealogy>  (45) 
C#CCN(C)CCC1CCC([NH+]2C=C3C=CN(c4ccccc4)C(=O)N3C2)CC1 (protonated)
C#CCN(C)CCC1CCC([N@H+]2C=C3C=CN(c4ccccc4)C(=O)N3C2)CC1 (chirality)
C#CCN(C)CCC1CCC([N@H+]2C=C3C=CN(c4ccccc4)C(=O)N3C2)CC1 (3D coordinates assigned)
C#CCN(C)CCC1CCC([N@H+]2C=C3C=CN(c4ccccc4)C(=O)N3C2)CC1 (nonaromatic ring conformer: 91.36430934305406 kcal/mol)

>  <smiles>  (45) 
C#CCN(C)CCC1CCC(N2C=C3C=CN(c4ccccc4)C(=O)N3C2)CC1

>  <score_type>  (45) 
oracle

>  <origin>  (45) 
adg

>  <m_score__min__energy>  (45) 
-7.1500000000000004

>  <m_primary>  (45) 
energy

$$$$
45:0
     RDKit          3D

 78 83  0  0  0  0  0  0  0  0999 V2000
   55.0280   25.3810   46.7480 H   0  0  0  0  0  0  0  0  0  0  0  0
   55.8380   25.9840   46.4910 N   0  0  0  0  0  0  0  0  0  0  0  0
   57.0140   25.5200   46.1910 C   0  0  0  0  0  0  0  0  0  0  0  0
   57.4350   24.2040   46.3180 C   0  0  0  0  0  0  0  0  0  0  0  0
   56.6620   23.0130   46.7160 C   0  0  0  0  0  0  0  0  0  0  0  0
   57.2230   21.8840   46.7530 O   0  0  0  0  0  0  0  0  0  0  0  0
   55.2670   23.1280   47.0090 N   0  0  0  0  0  0  0  0  0  0  0  0
   54.6020   22.5070   48.1140 C   0  0  0  0  0  0  0  0  0  0  0  0
   55.2700   22.2190   49.3160 C   0  0  0  0  0  0  0  0  0  0  0  0
   56.3587   22.3597   49.3862 H   0  0  0  0  0  0  0  0  0  0  0  0
   54.5740   21.7670   50.3920 N   0  0  0  0  0  0  0  0  0  0  0  0
   53.2280   21.5600   50.3420 C   0  0  0  0  0  0  0  0  0  0  0  0
   52.5230   21.1940   51.5380 N   0  0  0  0  0  0  0  0  0  0  0  0
   52.3860   19.7750   51.8720 C   0  0  0  0  0  0  0  0  0  0  0  0
   53.0949   19.1876   51.2700 H   0  0  0  0  0  0  0  0  0  0  0  0
   52.6006   19.6300   52.9411 H   0  0  0  0  0  0  0  0  0  0  0  0
   50.9540   19.3090   51.5730 C   0  0  0  0  0  0  0  0  0  0  0  0
   50.7949   19.3168   50.4846 H   0  0  0  0  0  0  0  0  0  0  0  0
   50.8282   18.2942   51.9784 H   0  0  0  0  0  0  0  0  0  0  0  0
   49.9140   20.2290   52.2380 C   0  0  0  0  0  0  0  0  0  0  0  0
   48.9086   19.9294   51.9072 H   0  0  0  0  0  0  0  0  0  0  0  0
   50.0135   20.1298   53.3290 H   0  0  0  0  0  0  0  0  0  0  0  0
   50.1440   21.7030   51.8650 C   0  0  0  0  0  0  0  0  0  0  0  0
   49.9724   21.8352   50.7866 H   0  0  0  0  0  0  0  0  0  0  0  0
   49.4450   22.3299   52.4381 H   0  0  0  0  0  0  0  0  0  0  0  0
   51.5870   22.1230   52.2050 C   0  0  2  0  0  0  0  0  0  0  0  0
   51.7474   22.0557   53.2912 H   0  0  0  0  0  0  0  0  0  0  0  0
   51.8480   23.5990   51.8440 C   0  0  0  0  0  0  0  0  0  0  0  0
   51.6796   23.7454   50.7669 H   0  0  0  0  0  0  0  0  0  0  0  0
   51.1621   24.2374   52.4201 H   0  0  0  0  0  0  0  0  0  0  0  0
   53.1700   23.9450   52.1580 O   0  0  0  0  0  0  0  0  0  0  0  0
   53.7450   23.2600   51.7280 H   0  0  0  0  0  0  0  0  0  0  0  0
   52.5250   21.8330   49.1630 C   0  0  0  0  0  0  0  0  0  0  0  0
   51.4375   21.6750   49.1148 H   0  0  0  0  0  0  0  0  0  0  0  0
   53.2190   22.3080   48.0490 C   0  0  0  0  0  0  0  0  0  0  0  0
   52.6767   22.5265   47.1172 H   0  0  0  0  0  0  0  0  0  0  0  0
   58.7880   24.2550   46.0450 C   0  0  0  0  0  0  0  0  0  0  0  0
   59.4700   23.3920   46.0552 H   0  0  0  0  0  0  0  0  0  0  0  0
   59.1450   25.5250   45.7640 N   0  0  0  0  0  0  0  0  0  0  0  0
   58.0650   26.2920   45.8400 N   0  0  0  0  0  0  0  0  0  0  0  0
   58.0910   27.7220   45.6430 C   0  0  0  0  0  0  0  0  0  0  0  0
   57.2950   28.3100   44.6450 C   0  0  0  0  0  0  0  0  0  0  0  0
   56.6364   27.6792   44.0299 H   0  0  0  0  0  0  0  0  0  0  0  0
   57.3340   29.6920   44.4280 C   0  0  0  0  0  0  0  0  0  0  0  0
   56.6938   30.1446   43.6564 H   0  0  0  0  0  0  0  0  0  0  0  0
   58.1840   30.4980   45.1890 C   0  0  0  0  0  0  0  0  0  0  0  0
   58.2232   31.5815   45.0031 H   0  0  0  0  0  0  0  0  0  0  0  0
   58.9900   29.9300   46.1920 C   0  0  0  0  0  0  0  0  0  0  0  0
   59.9330   30.7690   46.9750 C   0  0  0  0  0  0  0  0  0  0  0  0
   59.5980   32.0870   47.3440 C   0  0  0  0  0  0  0  0  0  0  0  0
   58.3270   32.5900   47.0180 O   0  0  0  0  0  0  0  0  0  0  0  0
   58.0840   33.8150   46.3310 C   0  0  0  0  0  0  0  0  0  0  0  0
   57.9242   34.6204   47.0630 H   0  0  0  0  0  0  0  0  0  0  0  0
   58.9511   34.0597   45.6999 H   0  0  0  0  0  0  0  0  0  0  0  0
   57.1891   33.7102   45.6999 H   0  0  0  0  0  0  0  0  0  0  0  0
   60.5360   32.8610   48.0460 C   0  0  0  0  0  0  0  0  0  0  0  0
   60.3002   33.9016   48.3136 H   0  0  0  0  0  0  0  0  0  0  0  0
   61.7730   32.3080   48.4060 C   0  0  0  0  0  0  0  0  0  0  0  0
   62.7370   33.1040   49.1250 N   0  0  0  0  0  0  0  0  0  0  0  0
   64.1560   33.0950   48.7640 C   0  0  0  0  0  0  0  0  0  0  0  0
   64.3806   32.1985   48.1674 H   0  0  0  0  0  0  0  0  0  0  0  0
   64.3975   33.9889   48.1703 H   0  0  0  0  0  0  0  0  0  0  0  0
   64.9890   33.0810   50.0490 C   0  0  0  0  0  0  0  0  0  0  0  0
   64.7998   32.1443   50.5939 H   0  0  0  0  0  0  0  0  0  0  0  0
   66.0544   33.1552   49.7856 H   0  0  0  0  0  0  0  0  0  0  0  0
   64.6400   34.1810   50.8740 O   0  0  0  0  0  0  0  0  0  0  0  0
   63.2900   34.0610   51.3010 C   0  0  0  0  0  0  0  0  0  0  0  0
   63.1668   33.1054   51.8317 H   0  0  0  0  0  0  0  0  0  0  0  0
   63.0611   34.9094   51.9627 H   0  0  0  0  0  0  0  0  0  0  0  0
   62.3170   34.1010   50.1130 C   0  0  0  0  0  0  0  0  0  0  0  0
   61.2992   33.8708   50.4608 H   0  0  0  0  0  0  0  0  0  0  0  0
   62.3227   35.1028   49.6588 H   0  0  0  0  0  0  0  0  0  0  0  0
   62.0670   31.0270   48.0440 N   0  0  0  0  0  0  0  0  0  0  0  0
   62.9870   30.6060   48.3040 H   0  0  0  0  0  0  0  0  0  0  0  0
   61.1860   30.2590   47.3500 C   0  0  0  0  0  0  0  0  0  0  0  0
   61.4575   29.2279   47.0796 H   0  0  0  0  0  0  0  0  0  0  0  0
   58.8990   28.5490   46.4390 C   0  0  0  0  0  0  0  0  0  0  0  0
   59.4704   28.1093   47.2697 H   0  0  0  0  0  0  0  0  0  0  0  0
  1  2  1  0
  2  3  2  0
  3  4  1  0
  4  5  1  0
  5  6  2  0
  5  7  1  0
  7  8  1  0
  8  9  2  0
  9 10  1  0
  9 11  1  0
 11 12  2  0
 12 13  1  0
 13 14  1  0
 14 15  1  0
 14 16  1  0
 14 17  1  0
 17 18  1  0
 17 19  1  0
 17 20  1  0
 20 21  1  0
 20 22  1  0
 20 23  1  0
 23 24  1  0
 23 25  1  0
 23 26  1  0
 26 27  1  1
 26 28  1  0
 28 29  1  0
 28 30  1  0
 28 31  1  0
 31 32  1  0
 12 33  1  0
 33 34  1  0
 33 35  2  0
 35 36  1  0
  4 37  2  0
 37 38  1  0
 37 39  1  0
 39 40  1  0
 40 41  1  0
 41 42  2  0
 42 43  1  0
 42 44  1  0
 44 45  1  0
 44 46  2  0
 46 47  1  0
 46 48  1  0
 48 49  1  0
 49 50  2  0
 50 51  1  0
 51 52  1  0
 52 53  1  0
 52 54  1  0
 52 55  1  0
 50 56  1  0
 56 57  1  0
 56 58  2  0
 58 59  1  0
 59 60  1  0
 60 61  1  0
 60 62  1  0
 60 63  1  0
 63 64  1  0
 63 65  1  0
 63 66  1  0
 66 67  1  0
 67 68  1  0
 67 69  1  0
 67 70  1  0
 70 71  1  0
 70 72  1  0
 58 73  1  0
 73 74  1  0
 73 75  2  0
 75 76  1  0
 48 77  2  0
 77 78  1  0
 40  3  1  0
 77 41  1  0
 35  8  1  0
 75 49  1  0
 26 13  1  0
 70 59  1  0
M  CHG  3   7  -1  39  -1  73   1
M  END
>  <UniqueID>  (46) 
44

>  <SMILES>  (46) 
[H]/N=c1\c(C(=O)[N-]c2ccc(N3CCCC[C@@H]3CO)nc2)c[n-]n1-c1cccc(-c2c[nH+]c(N3CCOCC3)cc2OC)c1

>  <Energy>  (46) 
143.28103683532362

>  <Genealogy>  (46) 
COc1cc(N2CCOCC2)[nH+]cc1-c1cccc(-n2[n-]cc(C(=O)[N-]c3ccc(N4CCCCC4CO)nc3)c2=N)c1 (protonated)
COc1cc(N2CCOCC2)[nH+]cc1-c1cccc(-n2[n-]cc(C(=O)[N-]c3ccc(N4CCCC[C@@H]4CO)nc3)c2=N)c1 (chirality)
[H]/N=c1\c(C(=O)[N-]c2ccc(N3CCCC[C@@H]3CO)nc2)c[n-]n1-c1cccc(-c2c[nH+]c(N3CCOCC3)cc2OC)c1 (cis-trans isomerization)
[H]/N=c1\c(C(=O)[N-]c2ccc(N3CCCC[C@@H]3CO)nc2)c[n-]n1-c1cccc(-c2c[nH+]c(N3CCOCC3)cc2OC)c1 (3D coordinates assigned)
[H]/N=c1\c(C(=O)[N-]c2ccc(N3CCCC[C@@H]3CO)nc2)c[n-]n1-c1cccc(-c2c[nH+]c(N3CCOCC3)cc2OC)c1 (nonaromatic ring conformer: 143.28103683532362 kcal/mol)

>  <smiles>  (46) 
COc1cc(N2CCOCC2)ncc1-c1cccc(-n2[nH]cc(C(=O)Nc3ccc(N4CCCCC4CO)nc3)c2=N)c1

>  <score_type>  (46) 
oracle

>  <origin>  (46) 
adg

>  <m_score__min__energy>  (46) 
-12.44

>  <m_primary>  (46) 
energy

$$$$
46:0
     RDKit          3D

 56 58  0  0  0  0  0  0  0  0999 V2000
   59.8930   29.0720   48.6720 C   0  0  0  0  0  0  0  0  0  0  0  0
   60.9090   30.0840   49.1990 C   0  0  0  0  0  0  0  0  0  0  0  0
   60.6880   31.4110   48.5830 N   0  0  0  0  0  0  0  0  0  0  0  0
   61.6180   31.6480   47.4480 C   0  0  0  0  0  0  0  0  0  0  0  0
   62.6430   32.7090   47.8280 C   0  0  0  0  0  0  0  0  0  0  0  0
   59.2740   31.5700   48.1740 C   0  0  0  0  0  0  0  0  0  0  0  0
   59.1360   32.6630   47.1330 C   0  0  0  0  0  0  0  0  0  0  0  0
   59.2930   34.0020   47.5460 C   0  0  0  0  0  0  0  0  0  0  0  0
   59.5100   34.2990   48.8530 F   0  0  0  0  0  0  0  0  0  0  0  0
   59.2470   35.0430   46.6170 C   0  0  0  0  0  0  0  0  0  0  0  0
   59.0500   34.7680   45.2650 C   0  0  0  0  0  0  0  0  0  0  0  0
   58.8880   33.4500   44.8370 C   0  0  0  0  0  0  0  0  0  0  0  0
   58.9190   32.3900   45.7560 C   0  0  0  0  0  0  0  0  0  0  0  0
   58.7230   31.0180   45.2430 C   0  0  0  0  0  0  0  0  0  0  0  0
   57.5350   30.6690   44.5850 C   0  0  0  0  0  0  0  0  0  0  0  0
   57.3500   29.3680   44.1100 C   0  0  0  0  0  0  0  0  0  0  0  0
   58.3510   28.3990   44.2860 C   0  0  0  0  0  0  0  0  0  0  0  0
   58.1420   26.9820   43.7890 C   0  0  0  0  0  0  0  0  0  0  0  0
   57.1860   26.1820   44.5970 N   0  0  0  0  0  0  0  0  0  0  0  0
   57.5330   26.1490   46.0330 C   0  0  0  0  0  0  0  0  0  0  0  0
   56.4800   25.3460   46.8320 C   0  0  0  0  0  0  0  0  0  0  0  0
   55.4730   24.8040   45.9970 O   0  0  0  0  0  0  0  0  0  0  0  0
   56.0610   23.9940   44.9980 C   0  0  0  0  0  0  0  0  0  0  0  0
   57.0050   24.8080   44.0830 C   0  0  0  0  0  0  0  0  0  0  0  0
   59.5570   28.7640   44.9050 C   0  0  0  0  0  0  0  0  0  0  0  0
   59.7430   30.0650   45.3780 C   0  0  0  0  0  0  0  0  0  0  0  0
   59.3957   28.5767   49.5190 H   0  0  0  0  0  0  0  0  0  0  0  0
   59.1421   29.5917   48.0588 H   0  0  0  0  0  0  0  0  0  0  0  0
   60.4097   28.3190   48.0588 H   0  0  0  0  0  0  0  0  0  0  0  0
   60.8017   30.1694   50.2904 H   0  0  0  0  0  0  0  0  0  0  0  0
   61.9211   29.7376   48.9427 H   0  0  0  0  0  0  0  0  0  0  0  0
   62.1381   30.7107   47.2013 H   0  0  0  0  0  0  0  0  0  0  0  0
   61.0436   31.9960   46.5768 H   0  0  0  0  0  0  0  0  0  0  0  0
   62.7100   32.7783   48.9238 H   0  0  0  0  0  0  0  0  0  0  0  0
   63.6255   32.4334   47.4173 H   0  0  0  0  0  0  0  0  0  0  0  0
   62.3336   33.6814   47.4173 H   0  0  0  0  0  0  0  0  0  0  0  0
   58.9117   30.6213   47.7514 H   0  0  0  0  0  0  0  0  0  0  0  0
   58.6797   31.8465   49.0574 H   0  0  0  0  0  0  0  0  0  0  0  0
   59.3666   36.0835   46.9531 H   0  0  0  0  0  0  0  0  0  0  0  0
   59.0222   35.5904   44.5350 H   0  0  0  0  0  0  0  0  0  0  0  0
   58.7344   33.2396   43.7683 H   0  0  0  0  0  0  0  0  0  0  0  0
   56.7459   31.4220   44.4422 H   0  0  0  0  0  0  0  0  0  0  0  0
   56.4151   29.1014   43.5954 H   0  0  0  0  0  0  0  0  0  0  0  0
   57.7629   27.0318   42.7576 H   0  0  0  0  0  0  0  0  0  0  0  0
   59.1160   26.4764   43.8645 H   0  0  0  0  0  0  0  0  0  0  0  0
   56.2640   26.6740   44.5090 H   0  0  0  0  0  0  0  0  0  0  0  0
   58.5179   25.6748   46.1556 H   0  0  0  0  0  0  0  0  0  0  0  0
   57.5555   27.1803   46.4150 H   0  0  0  0  0  0  0  0  0  0  0  0
   56.9862   24.5223   47.3567 H   0  0  0  0  0  0  0  0  0  0  0  0
   55.9964   26.0350   47.5401 H   0  0  0  0  0  0  0  0  0  0  0  0
   56.6381   23.1928   45.4828 H   0  0  0  0  0  0  0  0  0  0  0  0
   55.2549   23.5784   44.3755 H   0  0  0  0  0  0  0  0  0  0  0  0
   57.9839   24.3081   44.0402 H   0  0  0  0  0  0  0  0  0  0  0  0
   56.5574   24.8652   43.0798 H   0  0  0  0  0  0  0  0  0  0  0  0
   60.3602   28.0210   45.0182 H   0  0  0  0  0  0  0  0  0  0  0  0
   60.6928   30.3431   45.8581 H   0  0  0  0  0  0  0  0  0  0  0  0
  1  2  1  0
  2  3  1  0
  3  4  1  0
  4  5  1  0
  3  6  1  0
  6  7  1  0
  7  8  2  0
  8  9  1  0
  8 10  1  0
 10 11  2  0
 11 12  1  0
 12 13  2  0
 13 14  1  0
 14 15  2  0
 15 16  1  0
 16 17  2  0
 17 18  1  0
 18 19  1  0
 19 20  1  0
 20 21  1  0
 21 22  1  0
 22 23  1  0
 23 24  1  0
 17 25  1  0
 25 26  2  0
 13  7  1  0
 26 14  1  0
 24 19  1  0
  1 27  1  0
  1 28  1  0
  1 29  1  0
  2 30  1  0
  2 31  1  0
  4 32  1  0
  4 33  1  0
  5 34  1  0
  5 35  1  0
  5 36  1  0
  6 37  1  0
  6 38  1  0
 10 39  1  0
 11 40  1  0
 12 41  1  0
 15 42  1  0
 16 43  1  0
 18 44  1  0
 18 45  1  0
 19 46  1  0
 20 47  1  0
 20 48  1  0
 21 49  1  0
 21 50  1  0
 23 51  1  0
 23 52  1  0
 24 53  1  0
 24 54  1  0
 25 55  1  0
 26 56  1  0
M  CHG  1  19   1
M  END
>  <UniqueID>  (47) 
45

>  <SMILES>  (47) 
CCN(CC)Cc1c(F)cccc1-c1ccc(C[NH+]2CCOCC2)cc1

>  <Energy>  (47) 
76.09703162377134

>  <Genealogy>  (47) 
CCN(CC)Cc1c(F)cccc1-c1ccc(C[NH+]2CCOCC2)cc1 (protonated)
CCN(CC)Cc1c(F)cccc1-c1ccc(C[NH+]2CCOCC2)cc1 (3D coordinates assigned)
CCN(CC)Cc1c(F)cccc1-c1ccc(C[NH+]2CCOCC2)cc1 (nonaromatic ring conformer: 76.09703162377134 kcal/mol)

>  <smiles>  (47) 
CCN(CC)Cc1c(F)cccc1-c1ccc(CN2CCOCC2)cc1

>  <score_type>  (47) 
oracle

>  <origin>  (47) 
adg

>  <m_score__min__energy>  (47) 
-5.9699999999999998

>  <m_primary>  (47) 
energy

$$$$
47:0
     RDKit          3D

 52 55  0  0  0  0  0  0  0  0999 V2000
   67.7550   32.6080   51.3220 C   0  0  0  0  0  0  0  0  0  0  0  0
   66.4150   32.6500   51.7950 O   0  0  0  0  0  0  0  0  0  0  0  0
   65.3170   33.0370   51.0160 C   0  0  0  0  0  0  0  0  0  0  0  0
   65.2310   32.5640   49.7030 C   0  0  0  0  0  0  0  0  0  0  0  0
   64.1580   32.9240   48.8820 C   0  0  0  0  0  0  0  0  0  0  0  0
   63.1310   33.7540   49.3730 C   0  0  0  0  0  0  0  0  0  0  0  0
   61.9840   34.2150   48.4910 C   0  0  2  0  0  0  0  0  0  0  0  0
   60.5760   33.8690   49.0630 C   0  0  0  0  0  0  0  0  0  0  0  0
   59.5000   33.7050   47.9800 C   0  0  1  0  0  0  0  0  0  0  0  0
   59.2270   34.9370   47.1200 C   0  0  0  0  0  0  0  0  0  0  0  0
   59.5960   34.1420   45.8710 C   0  0  0  0  0  0  0  0  0  0  0  0
   59.9820   32.9290   46.7400 C   0  0  2  0  0  0  0  0  0  0  0  0
   59.2110   31.6450   46.4590 C   0  0  0  0  0  0  0  0  0  0  0  0
   59.7170   30.4100   46.9000 C   0  0  0  0  0  0  0  0  0  0  0  0
   59.0730   29.2180   46.5720 C   0  0  0  0  0  0  0  0  0  0  0  0
   57.9210   29.2290   45.7710 C   0  0  0  0  0  0  0  0  0  0  0  0
   57.2540   28.0460   45.4100 O   0  0  0  0  0  0  0  0  0  0  0  0
   57.7860   27.0560   44.5350 C   0  0  0  0  0  0  0  0  0  0  0  0
   57.4170   30.4510   45.3000 C   0  0  0  0  0  0  0  0  0  0  0  0
   56.2640   30.4300   44.5030 O   0  0  0  0  0  0  0  0  0  0  0  0
   56.2290   30.0210   43.1400 C   0  0  0  0  0  0  0  0  0  0  0  0
   58.0800   31.6520   45.6260 C   0  0  0  0  0  0  0  0  0  0  0  0
   61.5020   32.6710   46.7630 C   0  0  0  0  0  0  0  0  0  0  0  0
   62.2180   33.8300   47.1410 O   0  0  0  0  0  0  0  0  0  0  0  0
   63.2320   34.2430   50.6880 C   0  0  0  0  0  0  0  0  0  0  0  0
   64.3090   33.8860   51.5030 C   0  0  0  0  0  0  0  0  0  0  0  0
   68.4455   32.5864   52.1780 H   0  0  0  0  0  0  0  0  0  0  0  0
   67.9000   31.7049   50.7110 H   0  0  0  0  0  0  0  0  0  0  0  0
   67.9563   33.5003   50.7110 H   0  0  0  0  0  0  0  0  0  0  0  0
   66.0166   31.9010   49.3114 H   0  0  0  0  0  0  0  0  0  0  0  0
   64.1155   32.5568   47.8460 H   0  0  0  0  0  0  0  0  0  0  0  0
   61.9614   35.3148   48.4921 H   0  0  0  0  0  0  0  0  0  0  0  0
   60.6504   32.9268   49.6258 H   0  0  0  0  0  0  0  0  0  0  0  0
   60.2689   34.7115   49.7002 H   0  0  0  0  0  0  0  0  0  0  0  0
   58.6959   33.3104   48.6185 H   0  0  0  0  0  0  0  0  0  0  0  0
   58.1817   35.2788   47.1430 H   0  0  0  0  0  0  0  0  0  0  0  0
   59.7248   35.8929   47.3404 H   0  0  0  0  0  0  0  0  0  0  0  0
   58.7496   33.9554   45.1936 H   0  0  0  0  0  0  0  0  0  0  0  0
   60.3146   34.5535   45.1469 H   0  0  0  0  0  0  0  0  0  0  0  0
   60.6314   30.3838   47.5108 H   0  0  0  0  0  0  0  0  0  0  0  0
   59.4707   28.2621   46.9437 H   0  0  0  0  0  0  0  0  0  0  0  0
   58.2245   26.2399   45.1281 H   0  0  0  0  0  0  0  0  0  0  0  0
   56.9810   26.6566   43.9006 H   0  0  0  0  0  0  0  0  0  0  0  0
   58.5633   27.5069   43.9006 H   0  0  0  0  0  0  0  0  0  0  0  0
   56.1353   28.9262   43.0880 H   0  0  0  0  0  0  0  0  0  0  0  0
   55.3674   30.4869   42.6394 H   0  0  0  0  0  0  0  0  0  0  0  0
   57.1572   30.3338   42.6394 H   0  0  0  0  0  0  0  0  0  0  0  0
   57.7072   32.6054   45.2234 H   0  0  0  0  0  0  0  0  0  0  0  0
   61.7174   31.8672   47.4824 H   0  0  0  0  0  0  0  0  0  0  0  0
   61.8191   32.3843   45.7494 H   0  0  0  0  0  0  0  0  0  0  0  0
   62.4536   34.9146   51.0793 H   0  0  0  0  0  0  0  0  0  0  0  0
   64.3682   34.2716   52.5315 H   0  0  0  0  0  0  0  0  0  0  0  0
  1  2  1  0
  2  3  1  0
  3  4  2  0
  4  5  1  0
  5  6  2  0
  6  7  1  0
  7  8  1  0
  8  9  1  0
  9 10  1  0
 10 11  1  0
 11 12  1  0
 12 13  1  6
 13 14  2  0
 14 15  1  0
 15 16  2  0
 16 17  1  0
 17 18  1  0
 16 19  1  0
 19 20  1  0
 20 21  1  0
 19 22  2  0
 12 23  1  0
 23 24  1  0
  6 25  1  0
 25 26  2  0
 26  3  1  0
 24  7  1  0
 12  9  1  0
 22 13  1  0
  1 27  1  0
  1 28  1  0
  1 29  1  0
  4 30  1  0
  5 31  1  0
  7 32  1  6
  8 33  1  0
  8 34  1  0
  9 35  1  1
 10 36  1  0
 10 37  1  0
 11 38  1  0
 11 39  1  0
 14 40  1  0
 15 41  1  0
 18 42  1  0
 18 43  1  0
 18 44  1  0
 21 45  1  0
 21 46  1  0
 21 47  1  0
 22 48  1  0
 23 49  1  0
 23 50  1  0
 25 51  1  0
 26 52  1  0
M  END
>  <UniqueID>  (48) 
46

>  <SMILES>  (48) 
COc1ccc([C@@H]2C[C@H]3CCC3(c3ccc(OC)c(OC)c3)CO2)cc1

>  <Energy>  (48) 
128.51120171982612

>  <Genealogy>  (48) 
COc1ccc([C@@H]2C[C@H]3CCC3(c3ccc(OC)c(OC)c3)CO2)cc1 (chirality)
COc1ccc([C@@H]2C[C@H]3CCC3(c3ccc(OC)c(OC)c3)CO2)cc1 (3D coordinates assigned)
COc1ccc([C@@H]2C[C@H]3CCC3(c3ccc(OC)c(OC)c3)CO2)cc1 (nonaromatic ring conformer: 128.51120171982612 kcal/mol)

>  <smiles>  (48) 
COc1ccc(C2CC3CCC3(c3ccc(OC)c(OC)c3)CO2)cc1

>  <score_type>  (48) 
oracle

>  <origin>  (48) 
adg

>  <m_score__min__energy>  (48) 
-7.8099999999999996

>  <m_primary>  (48) 
energy

$$$$
