0:0
     RDKit          3D

 58 61  0  0  0  0  0  0  0  0999 V2000
   64.1610   33.1730   50.1440 C   0  0  0  0  0  0  0  0  0  0  0  0
   63.0000   33.9900   49.5660 C   0  0  0  0  0  0  0  0  0  0  0  0
   62.8680   33.8310   48.1100 N   0  0  0  0  0  0  0  0  0  0  0  0
   63.5630   32.6320   47.6210 C   0  0  0  0  0  0  0  0  0  0  0  0
   62.5580   31.5700   47.1680 C   0  0  0  0  0  0  0  0  0  0  0  0
   61.2090   31.8920   47.6380 N   0  0  0  0  0  0  0  0  0  0  0  0
   60.0470   31.4360   46.9220 C   0  0  0  0  0  0  0  0  0  0  0  0
   59.3080   32.3240   46.1220 C   0  0  0  0  0  0  0  0  0  0  0  0
   59.6420   33.6950   46.0580 C   0  0  0  0  0  0  0  0  0  0  0  0
   58.8870   34.5770   45.2910 C   0  0  0  0  0  0  0  0  0  0  0  0
   57.7800   34.1170   44.5880 C   0  0  0  0  0  0  0  0  0  0  0  0
   57.4380   32.7660   44.6240 C   0  0  0  0  0  0  0  0  0  0  0  0
   58.2130   31.8330   45.3600 C   0  0  0  0  0  0  0  0  0  0  0  0
   57.9210   30.4820   45.3580 N   0  0  0  0  0  0  0  0  0  0  0  0
   56.9950   29.9270   44.3450 C   0  0  0  0  0  0  0  0  0  0  0  0
   58.5100   29.6470   46.2890 C   0  0  0  0  0  0  0  0  0  0  0  0
   58.0350   28.3280   46.5170 C   0  0  0  0  0  0  0  0  0  0  0  0
   58.6530   27.4810   47.4500 C   0  0  0  0  0  0  0  0  0  0  0  0
   58.2090   26.1700   47.6820 O   0  0  0  0  0  0  0  0  0  0  0  0
   57.5180   25.3750   46.7580 C   0  0  0  0  0  0  0  0  0  0  0  0
   56.2670   25.4730   46.6360 O   0  0  0  0  0  0  0  0  0  0  0  0
   58.2410   24.3760   46.0270 N   0  0  0  0  0  0  0  0  0  0  0  0
   57.7020   23.6370   44.9180 C   0  0  0  0  0  0  0  0  0  0  0  0
   56.7630   24.2500   44.0740 C   0  0  0  0  0  0  0  0  0  0  0  0
   56.2050   23.5440   43.0040 C   0  0  0  0  0  0  0  0  0  0  0  0
   56.5670   22.2140   42.7790 C   0  0  0  0  0  0  0  0  0  0  0  0
   57.4860   21.5880   43.6250 C   0  0  0  0  0  0  0  0  0  0  0  0
   58.0470   22.2910   44.6950 C   0  0  0  0  0  0  0  0  0  0  0  0
   59.7670   27.9330   48.1510 C   0  0  0  0  0  0  0  0  0  0  0  0
   60.2310   29.2340   47.9770 C   0  0  0  0  0  0  0  0  0  0  0  0
   59.6090   30.1060   47.0610 C   0  0  0  0  0  0  0  0  0  0  0  0
   64.1189   33.2026   51.2428 H   0  0  0  0  0  0  0  0  0  0  0  0
   64.0818   32.1305   49.8020 H   0  0  0  0  0  0  0  0  0  0  0  0
   65.1155   33.5995   49.8020 H   0  0  0  0  0  0  0  0  0  0  0  0
   62.0652   33.6603   50.0428 H   0  0  0  0  0  0  0  0  0  0  0  0
   63.2055   35.0515   49.7685 H   0  0  0  0  0  0  0  0  0  0  0  0
   63.2450   34.6830   47.6360 H   0  0  0  0  0  0  0  0  0  0  0  0
   64.2043   32.9080   46.7709 H   0  0  0  0  0  0  0  0  0  0  0  0
   64.1704   32.2174   48.4390 H   0  0  0  0  0  0  0  0  0  0  0  0
   62.5547   31.5230   46.0690 H   0  0  0  0  0  0  0  0  0  0  0  0
   62.8560   30.6004   47.5935 H   0  0  0  0  0  0  0  0  0  0  0  0
   61.0950   32.6340   48.3640 H   0  0  0  0  0  0  0  0  0  0  0  0
   60.5093   34.0699   46.6212 H   0  0  0  0  0  0  0  0  0  0  0  0
   59.1667   35.6397   45.2411 H   0  0  0  0  0  0  0  0  0  0  0  0
   57.1717   34.8211   44.0013 H   0  0  0  0  0  0  0  0  0  0  0  0
   56.5523   32.4175   44.0725 H   0  0  0  0  0  0  0  0  0  0  0  0
   56.1570   29.4247   44.8504 H   0  0  0  0  0  0  0  0  0  0  0  0
   56.6083   30.7423   43.7160 H   0  0  0  0  0  0  0  0  0  0  0  0
   57.5317   29.2016   43.7160 H   0  0  0  0  0  0  0  0  0  0  0  0
   57.1653   27.9630   45.9510 H   0  0  0  0  0  0  0  0  0  0  0  0
   59.1950   24.1260   46.3720 H   0  0  0  0  0  0  0  0  0  0  0  0
   56.4641   25.2929   44.2556 H   0  0  0  0  0  0  0  0  0  0  0  0
   55.4803   24.0364   42.3389 H   0  0  0  0  0  0  0  0  0  0  0  0
   56.1288   21.6595   41.9361 H   0  0  0  0  0  0  0  0  0  0  0  0
   57.7686   20.5397   43.4486 H   0  0  0  0  0  0  0  0  0  0  0  0
   58.7610   21.7902   45.3654 H   0  0  0  0  0  0  0  0  0  0  0  0
   60.2847   27.2573   48.8477 H   0  0  0  0  0  0  0  0  0  0  0  0
   61.0938   29.5857   48.5617 H   0  0  0  0  0  0  0  0  0  0  0  0
  1  2  1  0
  2  3  1  0
  3  4  1  0
  4  5  1  0
  5  6  1  0
  6  7  1  0
  7  8  2  0
  8  9  1  0
  9 10  2  0
 10 11  1  0
 11 12  2  0
 12 13  1  0
 13 14  2  0
 14 15  1  0
 14 16  1  0
 16 17  2  0
 17 18  1  0
 18 19  1  0
 19 20  1  0
 20 21  2  0
 20 22  1  0
 22 23  1  0
 23 24  2  0
 24 25  1  0
 25 26  2  0
 26 27  1  0
 27 28  2  0
 18 29  2  0
 29 30  1  0
 30 31  2  0
 31  7  1  0
 13  8  1  0
 31 16  1  0
 28 23  1  0
  1 32  1  0
  1 33  1  0
  1 34  1  0
  2 35  1  0
  2 36  1  0
  3 37  1  0
  4 38  1  0
  4 39  1  0
  5 40  1  0
  5 41  1  0
  6 42  1  0
  9 43  1  0
 10 44  1  0
 11 45  1  0
 12 46  1  0
 15 47  1  0
 15 48  1  0
 15 49  1  0
 17 50  1  0
 22 51  1  0
 24 52  1  0
 25 53  1  0
 26 54  1  0
 27 55  1  0
 28 56  1  0
 29 57  1  0
 30 58  1  0
M  CHG  1  14   1
M  END
>  <UniqueID>  (1) 
1

>  <SMILES>  (1) 
CCNCCNc1c2ccccc2[n+](C)c2cc(OC(=O)Nc3ccccc3)ccc12

>  <Energy>  (1) 
91.17462945781783

>  <Genealogy>  (1) 
CCNCCNc1c2ccccc2[n+](C)c2cc(OC(=O)Nc3ccccc3)ccc12 (3D coordinates assigned)
CCNCCNc1c2ccccc2[n+](C)c2cc(OC(=O)Nc3ccccc3)ccc12 (optimized conformer: 91.17462945781783 kcal/mol)

>  <smiles>  (1) 
CCNCCNc1c2ccccc2[n+](C)c2cc(OC(=O)Nc3ccccc3)ccc12

>  <score_type>  (1) 
oracle

>  <origin>  (1) 
adg

>  <m_score__min__energy>  (1) 
-7.5199999999999996

>  <m_primary>  (1) 
energy

$$$$
1:0
     RDKit          3D

 40 41  0  0  0  0  0  0  0  0999 V2000
   59.6460   35.3010   45.9640 C   0  0  0  0  0  0  0  0  0  0  0  0
   58.9600   34.0600   46.5460 C   0  0  0  0  0  0  0  0  0  0  0  0
   58.7210   32.9980   45.5340 N   0  0  0  0  0  0  0  0  0  0  0  0
   58.2880   33.5170   44.2090 C   0  0  0  0  0  0  0  0  0  0  0  0
   58.0590   32.4350   43.1420 C   0  0  0  0  0  0  0  0  0  0  0  0
   57.7660   31.9840   46.0480 C   0  0  0  0  0  0  0  0  0  0  0  0
   58.1240   30.6390   45.5890 N   0  0  0  0  0  0  0  0  0  0  0  0
   59.3980   30.0280   45.6870 C   0  0  0  0  0  0  0  0  0  0  0  0
   60.4200   30.6340   46.1070 O   0  0  0  0  0  0  0  0  0  0  0  0
   59.4070   28.6050   45.2410 C   0  0  0  0  0  0  0  0  0  0  0  0
   57.9190   28.3310   44.8410 C   0  0  0  0  0  0  0  0  0  0  0  0
   57.7830   27.8570   43.3920 C   0  0  0  0  0  0  0  0  0  0  0  0
   57.9340   26.3420   43.4520 C   0  0  0  0  0  0  0  0  0  0  0  0
   57.6250   25.9220   44.8920 C   0  0  0  0  0  0  0  0  0  0  0  0
   57.2980   27.1980   45.6610 C   0  0  0  0  0  0  0  0  0  0  0  0
   57.2430   29.6510   45.0860 C   0  0  0  0  0  0  0  0  0  0  0  0
   56.0170   29.8680   44.8790 O   0  0  0  0  0  0  0  0  0  0  0  0
   60.0006   35.9425   46.7842 H   0  0  0  0  0  0  0  0  0  0  0  0
   60.5009   34.9910   45.3451 H   0  0  0  0  0  0  0  0  0  0  0  0
   58.9288   35.8601   45.3451 H   0  0  0  0  0  0  0  0  0  0  0  0
   59.5979   33.6481   47.3419 H   0  0  0  0  0  0  0  0  0  0  0  0
   57.9781   34.3764   46.9279 H   0  0  0  0  0  0  0  0  0  0  0  0
   59.6340   32.5110   45.3710 H   0  0  0  0  0  0  0  0  0  0  0  0
   57.3457   34.0674   44.3473 H   0  0  0  0  0  0  0  0  0  0  0  0
   59.1075   34.1509   43.8394 H   0  0  0  0  0  0  0  0  0  0  0  0
   57.8553   31.4724   43.6338 H   0  0  0  0  0  0  0  0  0  0  0  0
   57.2002   32.7150   42.5142 H   0  0  0  0  0  0  0  0  0  0  0  0
   58.9576   32.3431   42.5142 H   0  0  0  0  0  0  0  0  0  0  0  0
   57.7794   32.0033   47.1477 H   0  0  0  0  0  0  0  0  0  0  0  0
   56.7624   32.2263   45.6683 H   0  0  0  0  0  0  0  0  0  0  0  0
   60.0763   28.4686   44.3787 H   0  0  0  0  0  0  0  0  0  0  0  0
   59.7726   27.9175   46.0180 H   0  0  0  0  0  0  0  0  0  0  0  0
   56.7974   28.1308   42.9874 H   0  0  0  0  0  0  0  0  0  0  0  0
   58.5347   28.3196   42.7356 H   0  0  0  0  0  0  0  0  0  0  0  0
   57.2271   25.8634   42.7582 H   0  0  0  0  0  0  0  0  0  0  0  0
   58.9495   26.0352   43.1612 H   0  0  0  0  0  0  0  0  0  0  0  0
   56.7643   25.2372   44.9106 H   0  0  0  0  0  0  0  0  0  0  0  0
   58.4800   25.3969   45.3428 H   0  0  0  0  0  0  0  0  0  0  0  0
   56.2091   27.3318   45.7411 H   0  0  0  0  0  0  0  0  0  0  0  0
   57.6906   27.1710   46.6882 H   0  0  0  0  0  0  0  0  0  0  0  0
  1  2  1  0
  2  3  1  0
  3  4  1  0
  4  5  1  0
  3  6  1  0
  6  7  1  0
  7  8  1  0
  8  9  2  0
  8 10  1  0
 10 11  1  0
 11 12  1  0
 12 13  1  0
 13 14  1  0
 14 15  1  0
 11 16  1  0
 16 17  2  0
 16  7  1  0
 15 11  1  0
  1 18  1  0
  1 19  1  0
  1 20  1  0
  2 21  1  0
  2 22  1  0
  3 23  1  0
  4 24  1  0
  4 25  1  0
  5 26  1  0
  5 27  1  0
  5 28  1  0
  6 29  1  0
  6 30  1  0
 10 31  1  0
 10 32  1  0
 12 33  1  0
 12 34  1  0
 13 35  1  0
 13 36  1  0
 14 37  1  0
 14 38  1  0
 15 39  1  0
 15 40  1  0
M  CHG  1   3   1
M  END
>  <UniqueID>  (2) 
2

>  <SMILES>  (2) 
CC[NH+](CC)CN1C(=O)CC2(CCCC2)C1=O

>  <Energy>  (2) 
54.0328775904755

>  <Genealogy>  (2) 
CC[NH+](CC)CN1C(=O)CC2(CCCC2)C1=O (protonated)
CC[NH+](CC)CN1C(=O)CC2(CCCC2)C1=O (3D coordinates assigned)
CC[NH+](CC)CN1C(=O)CC2(CCCC2)C1=O (nonaromatic ring conformer: 54.0328775904755 kcal/mol)

>  <smiles>  (2) 
CCN(CC)CN1C(=O)CC2(CCCC2)C1=O

>  <score_type>  (2) 
oracle

>  <origin>  (2) 
adg

>  <m_score__min__energy>  (2) 
-4.3799999999999999

>  <m_primary>  (2) 
energy

$$$$
2:0
     RDKit          3D

 50 53  0  0  0  0  0  0  0  0999 V2000
   55.4250   30.8090   52.8010 C   0  0  0  0  0  0  0  0  0  0  0  0
   56.6900   31.0600   52.1260 N   0  0  0  0  0  0  0  0  0  0  0  0
   57.2460   32.2690   51.9220 C   0  0  0  0  0  0  0  0  0  0  0  0
   58.3900   32.0840   51.1770 C   0  0  0  0  0  0  0  0  0  0  0  0
   59.3170   33.1390   50.6550 C   0  0  0  0  0  0  0  0  0  0  0  0
   59.7610   32.7970   49.2900 N   0  0  0  0  0  0  0  0  0  0  0  0
   61.1390   33.2850   49.0540 C   0  0  0  0  0  0  0  0  0  0  0  0
   61.5310   33.2380   47.5610 C   0  0  0  0  0  0  0  0  0  0  0  0
   60.6270   32.2720   46.7890 C   0  0  0  0  0  0  0  0  0  0  0  0
   59.1310   32.6970   46.8800 C   0  0  2  0  0  0  0  0  0  0  0  0
   58.8430   33.3440   48.2690 C   0  0  0  0  0  0  0  0  0  0  0  0
   58.2420   31.4200   46.6730 C   0  0  0  0  0  0  0  0  0  0  0  0
   57.9830   31.2240   45.2440 N   0  0  0  0  0  0  0  0  0  0  0  0
   58.1680   29.9430   44.6100 C   0  0  0  0  0  0  0  0  0  0  0  0
   59.3070   29.1660   44.8760 C   0  0  0  0  0  0  0  0  0  0  0  0
   59.4680   27.9230   44.2620 C   0  0  0  0  0  0  0  0  0  0  0  0
   58.4840   27.4590   43.3890 C   0  0  0  0  0  0  0  0  0  0  0  0
   57.3790   28.2130   43.1440 N   0  0  0  0  0  0  0  0  0  0  0  0
   57.2010   29.4290   43.7280 C   0  0  0  0  0  0  0  0  0  0  0  0
   57.4760   32.3690   44.4820 C   0  0  0  0  0  0  0  0  0  0  0  0
   57.6410   33.6550   45.2970 C   0  0  0  0  0  0  0  0  0  0  0  0
   58.9310   33.6950   45.8730 O   0  0  0  0  0  0  0  0  0  0  0  0
   58.4610   30.7230   50.9430 C   0  0  0  0  0  0  0  0  0  0  0  0
   57.4060   30.1210   51.5270 N   0  0  0  0  0  0  0  0  0  0  0  0
   55.5781   30.8394   53.8899 H   0  0  0  0  0  0  0  0  0  0  0  0
   54.6957   31.5799   52.5116 H   0  0  0  0  0  0  0  0  0  0  0  0
   55.0453   29.8180   52.5116 H   0  0  0  0  0  0  0  0  0  0  0  0
   56.8568   33.2317   52.2850 H   0  0  0  0  0  0  0  0  0  0  0  0
   58.7927   34.1058   50.6350 H   0  0  0  0  0  0  0  0  0  0  0  0
   60.1961   33.2021   51.3132 H   0  0  0  0  0  0  0  0  0  0  0  0
   61.2109   34.3247   49.4058 H   0  0  0  0  0  0  0  0  0  0  0  0
   61.8275   32.6259   49.6031 H   0  0  0  0  0  0  0  0  0  0  0  0
   61.4321   34.2455   47.1307 H   0  0  0  0  0  0  0  0  0  0  0  0
   62.5703   32.8866   47.4813 H   0  0  0  0  0  0  0  0  0  0  0  0
   60.9327   32.2630   45.7324 H   0  0  0  0  0  0  0  0  0  0  0  0
   60.7300   31.2713   47.2340 H   0  0  0  0  0  0  0  0  0  0  0  0
   58.9854   34.4325   48.1988 H   0  0  0  0  0  0  0  0  0  0  0  0
   57.8070   33.1176   48.5613 H   0  0  0  0  0  0  0  0  0  0  0  0
   58.7671   30.5402   47.0733 H   0  0  0  0  0  0  0  0  0  0  0  0
   57.2863   31.5523   47.2013 H   0  0  0  0  0  0  0  0  0  0  0  0
   60.0747   29.5381   45.5704 H   0  0  0  0  0  0  0  0  0  0  0  0
   60.3622   27.3152   44.4646 H   0  0  0  0  0  0  0  0  0  0  0  0
   58.6020   26.4818   42.8980 H   0  0  0  0  0  0  0  0  0  0  0  0
   56.6450   27.8470   42.4950 H   0  0  0  0  0  0  0  0  0  0  0  0
   56.2952   30.0134   43.5088 H   0  0  0  0  0  0  0  0  0  0  0  0
   58.0394   32.4589   43.5415 H   0  0  0  0  0  0  0  0  0  0  0  0
   56.4090   32.2139   44.2643 H   0  0  0  0  0  0  0  0  0  0  0  0
   57.5087   34.5250   44.6370 H   0  0  0  0  0  0  0  0  0  0  0  0
   56.8857   33.6776   46.0963 H   0  0  0  0  0  0  0  0  0  0  0  0
   59.2513   30.2136   50.3721 H   0  0  0  0  0  0  0  0  0  0  0  0
  1  2  1  0
  2  3  1  0
  3  4  2  0
  4  5  1  0
  5  6  1  0
  6  7  1  0
  7  8  1  0
  8  9  1  0
  9 10  1  0
 10 11  1  0
 10 12  1  0
 12 13  1  0
 13 14  1  0
 14 15  2  0
 15 16  1  0
 16 17  2  0
 17 18  1  0
 18 19  2  0
 13 20  1  0
 20 21  1  0
 21 22  1  0
  4 23  1  0
 23 24  2  0
 24  2  1  0
 11  6  1  0
 19 14  1  0
 10 22  1  6
  1 25  1  0
  1 26  1  0
  1 27  1  0
  3 28  1  0
  5 29  1  0
  5 30  1  0
  7 31  1  0
  7 32  1  0
  8 33  1  0
  8 34  1  0
  9 35  1  0
  9 36  1  0
 11 37  1  0
 11 38  1  0
 12 39  1  0
 12 40  1  0
 15 41  1  0
 16 42  1  0
 17 43  1  0
 18 44  1  0
 19 45  1  0
 20 46  1  0
 20 47  1  0
 21 48  1  0
 21 49  1  0
 23 50  1  0
M  CHG  1  18   1
M  END
>  <UniqueID>  (3) 
3

>  <SMILES>  (3) 
Cn1cc(CN2CCC[C@]3(C2)CN(c2ccc[nH+]c2)CCO3)cn1

>  <Energy>  (3) 
100.28397336557164

>  <Genealogy>  (3) 
Cn1cc(CN2CCCC3(C2)CN(c2ccc[nH+]c2)CCO3)cn1 (protonated)
Cn1cc(CN2CCC[C@]3(C2)CN(c2ccc[nH+]c2)CCO3)cn1 (chirality)
Cn1cc(CN2CCC[C@]3(C2)CN(c2ccc[nH+]c2)CCO3)cn1 (3D coordinates assigned)
Cn1cc(CN2CCC[C@]3(C2)CN(c2ccc[nH+]c2)CCO3)cn1 (nonaromatic ring conformer: 100.28397336557164 kcal/mol)

>  <smiles>  (3) 
Cn1cc(CN2CCCC3(C2)CN(c2cccnc2)CCO3)cn1

>  <score_type>  (3) 
oracle

>  <origin>  (3) 
adg

>  <m_score__min__energy>  (3) 
-6.3200000000000003

>  <m_primary>  (3) 
energy

$$$$
3:0
     RDKit          3D

 71 74  0  0  0  0  0  0  0  0999 V2000
   58.6220   32.7770   51.9600 H   0  0  0  0  0  0  0  0  0  0  0  0
   58.8690   33.6780   51.6240 O   0  0  0  0  0  0  0  0  0  0  0  0
   58.6420   34.5620   52.6850 C   0  0  0  0  0  0  0  0  0  0  0  0
   57.5599   34.6532   52.8604 H   0  0  0  0  0  0  0  0  0  0  0  0
   59.0587   35.5486   52.4341 H   0  0  0  0  0  0  0  0  0  0  0  0
   59.3180   34.0320   53.9460 C   0  0  0  0  0  0  0  0  0  0  0  0
   58.5607   33.8916   54.7314 H   0  0  0  0  0  0  0  0  0  0  0  0
   60.0756   34.7579   54.2765 H   0  0  0  0  0  0  0  0  0  0  0  0
   59.9770   32.7460   53.6730 N   0  0  0  0  0  0  0  0  0  0  0  0
   59.9470   32.5880   52.6370 H   0  0  0  0  0  0  0  0  0  0  0  0
   61.3890   32.7750   54.0760 C   0  0  0  0  0  0  0  0  0  0  0  0
   61.6979   31.7680   54.3932 H   0  0  0  0  0  0  0  0  0  0  0  0
   61.5119   33.4831   54.9088 H   0  0  0  0  0  0  0  0  0  0  0  0
   62.2630   33.2270   52.8980 C   0  0  0  0  0  0  0  0  0  0  0  0
   63.0480   32.4747   52.7310 H   0  0  0  0  0  0  0  0  0  0  0  0
   62.6929   34.2064   53.1546 H   0  0  0  0  0  0  0  0  0  0  0  0
   61.4880   33.3870   51.6550 N   0  0  0  0  0  0  0  0  0  0  0  0
   60.9520   34.2840   51.7180 H   0  0  0  0  0  0  0  0  0  0  0  0
   60.7750   32.6300   51.5840 H   0  0  0  0  0  0  0  0  0  0  0  0
   62.3510   33.4540   50.4930 C   0  0  0  0  0  0  0  0  0  0  0  0
   63.7110   33.1060   50.6370 C   0  0  0  0  0  0  0  0  0  0  0  0
   64.1016   32.8482   51.6325 H   0  0  0  0  0  0  0  0  0  0  0  0
   64.5670   33.0840   49.5370 C   0  0  0  0  0  0  0  0  0  0  0  0
   65.6221   32.8017   49.6676 H   0  0  0  0  0  0  0  0  0  0  0  0
   64.0880   33.4190   48.2730 C   0  0  0  0  0  0  0  0  0  0  0  0
   64.7647   33.3987   47.4060 H   0  0  0  0  0  0  0  0  0  0  0  0
   62.7520   33.7800   48.1050 C   0  0  0  0  0  0  0  0  0  0  0  0
   62.3850   34.0506   47.1040 H   0  0  0  0  0  0  0  0  0  0  0  0
   61.8650   33.8030   49.2000 C   0  0  0  0  0  0  0  0  0  0  0  0
   60.4730   34.2700   48.9810 C   0  0  0  0  0  0  0  0  0  0  0  0
   59.8939   34.6380   49.8408 H   0  0  0  0  0  0  0  0  0  0  0  0
   59.9000   34.2580   47.7730 C   0  0  0  0  0  0  0  0  0  0  0  0
   59.8317   35.1945   47.2001 H   0  0  0  0  0  0  0  0  0  0  0  0
   59.3570   33.0140   47.1920 C   0  0  0  0  0  0  0  0  0  0  0  0
   59.4910   31.7890   47.7610 N   0  0  0  0  0  0  0  0  0  0  0  0
   60.1370   31.4550   49.0380 C   0  0  0  0  0  0  0  0  0  0  0  0
   60.7469   32.3096   49.3661 H   0  0  0  0  0  0  0  0  0  0  0  0
   60.7659   30.5650   48.8884 H   0  0  0  0  0  0  0  0  0  0  0  0
   59.0970   31.1390   50.1180 C   0  0  0  0  0  0  0  0  0  0  0  0
   58.6492   30.1556   49.9122 H   0  0  0  0  0  0  0  0  0  0  0  0
   58.3223   31.9198   50.1042 H   0  0  0  0  0  0  0  0  0  0  0  0
   59.7230   31.1160   51.4460 N   0  0  0  0  0  0  0  0  0  0  0  0
   59.0510   31.5580   52.1170 H   0  0  0  0  0  0  0  0  0  0  0  0
   59.9720   29.7420   51.9030 C   0  0  0  0  0  0  0  0  0  0  0  0
   59.1692   29.0863   51.5348 H   0  0  0  0  0  0  0  0  0  0  0  0
   59.9949   29.7300   53.0027 H   0  0  0  0  0  0  0  0  0  0  0  0
   61.3130   29.2410   51.3740 C   0  0  0  0  0  0  0  0  0  0  0  0
   61.9719   28.9948   52.2197 H   0  0  0  0  0  0  0  0  0  0  0  0
   61.1525   28.3422   50.7605 H   0  0  0  0  0  0  0  0  0  0  0  0
   61.7811   30.0249   50.7605 H   0  0  0  0  0  0  0  0  0  0  0  0
   58.9290   30.9410   46.8760 C   0  0  0  0  0  0  0  0  0  0  0  0
   58.8240   29.5550   46.9760 C   0  0  0  0  0  0  0  0  0  0  0  0
   59.2148   29.0227   47.8558 H   0  0  0  0  0  0  0  0  0  0  0  0
   58.2110   28.8580   45.9330 C   0  0  0  0  0  0  0  0  0  0  0  0
   58.1047   27.7651   45.9976 H   0  0  0  0  0  0  0  0  0  0  0  0
   57.7260   29.5410   44.7960 C   0  0  0  0  0  0  0  0  0  0  0  0
   57.1240   28.8090   43.7590 C   0  0  0  0  0  0  0  0  0  0  0  0
   57.0311   27.7162   43.8436 H   0  0  0  0  0  0  0  0  0  0  0  0
   56.6440   29.4590   42.6240 C   0  0  0  0  0  0  0  0  0  0  0  0
   56.1725   28.8787   41.8172 H   0  0  0  0  0  0  0  0  0  0  0  0
   56.7600   30.8420   42.5090 C   0  0  0  0  0  0  0  0  0  0  0  0
   56.3795   31.3484   41.6097 H   0  0  0  0  0  0  0  0  0  0  0  0
   57.3560   31.5920   43.5270 C   0  0  0  0  0  0  0  0  0  0  0  0
   57.4430   32.6833   43.4197 H   0  0  0  0  0  0  0  0  0  0  0  0
   57.8480   30.9620   44.6930 C   0  0  0  0  0  0  0  0  0  0  0  0
   58.4680   31.6400   45.7790 C   0  0  0  0  0  0  0  0  0  0  0  0
   58.7430   32.9600   45.9770 N   0  0  0  0  0  0  0  0  0  0  0  0
   58.4610   34.1080   45.1130 C   0  0  0  0  0  0  0  0  0  0  0  0
   58.2444   34.9898   45.7339 H   0  0  0  0  0  0  0  0  0  0  0  0
   59.3356   34.3126   44.4780 H   0  0  0  0  0  0  0  0  0  0  0  0
   57.5912   33.8841   44.4780 H   0  0  0  0  0  0  0  0  0  0  0  0
  1  2  1  0
  2  3  1  0
  3  4  1  0
  3  5  1  0
  3  6  1  0
  6  7  1  0
  6  8  1  0
  6  9  1  0
  9 10  1  0
  9 11  1  0
 11 12  1  0
 11 13  1  0
 11 14  1  0
 14 15  1  0
 14 16  1  0
 14 17  1  0
 17 18  1  0
 17 19  1  0
 17 20  1  0
 20 21  2  0
 21 22  1  0
 21 23  1  0
 23 24  1  0
 23 25  2  0
 25 26  1  0
 25 27  1  0
 27 28  1  0
 27 29  2  0
 29 30  1  0
 30 31  1  0
 30 32  2  0
 32 33  1  0
 32 34  1  0
 34 35  1  0
 35 36  1  0
 36 37  1  0
 36 38  1  0
 36 39  1  0
 39 40  1  0
 39 41  1  0
 39 42  1  0
 42 43  1  0
 42 44  1  0
 44 45  1  0
 44 46  1  0
 44 47  1  0
 47 48  1  0
 47 49  1  0
 47 50  1  0
 35 51  1  0
 51 52  2  0
 52 53  1  0
 52 54  1  0
 54 55  1  0
 54 56  2  0
 56 57  1  0
 57 58  1  0
 57 59  2  0
 59 60  1  0
 59 61  1  0
 61 62  1  0
 61 63  2  0
 63 64  1  0
 63 65  1  0
 65 66  2  0
 66 67  1  0
 67 68  1  0
 68 69  1  0
 68 70  1  0
 68 71  1  0
 29 20  1  0
 67 34  2  0
 66 51  1  0
 65 56  1  0
M  CHG  2  17   1  67   1
M  END
>  <UniqueID>  (4) 
4

>  <SMILES>  (4) 
CCNCCn1c(/C=C/c2ccccc2[NH2+]CCNCCO)[n+](C)c2c3ccccc3ccc21

>  <Energy>  (4) 
122.45702764128602

>  <Genealogy>  (4) 
CCNCCn1c(C=Cc2ccccc2[NH2+]CCNCCO)[n+](C)c2c3ccccc3ccc21 (protonated)
CCNCCn1c(/C=C/c2ccccc2[NH2+]CCNCCO)[n+](C)c2c3ccccc3ccc21 (cis-trans isomerization)
CCNCCn1c(/C=C/c2ccccc2[NH2+]CCNCCO)[n+](C)c2c3ccccc3ccc21 (3D coordinates assigned)
CCNCCn1c(/C=C/c2ccccc2[NH2+]CCNCCO)[n+](C)c2c3ccccc3ccc21 (optimized conformer: 122.45702764128602 kcal/mol)

>  <smiles>  (4) 
CCNCCn1c(C=Cc2ccccc2NCCNCCO)[n+](C)c2c3ccccc3ccc21

>  <score_type>  (4) 
oracle

>  <origin>  (4) 
adg

>  <m_score__min__energy>  (4) 
-3.8999999999999999

>  <m_primary>  (4) 
energy

$$$$
4:0
     RDKit          3D

 47 49  0  0  0  0  0  0  0  0999 V2000
   57.0200   26.3550   45.8880 C   0  0  0  0  0  0  0  0  0  0  0  0
   57.7650   26.3780   44.5570 C   0  0  0  0  0  0  0  0  0  0  0  0
   58.1690   27.8070   44.1700 C   0  0  0  0  0  0  0  0  0  0  0  0
   57.4060   28.2640   42.9990 N   0  0  0  0  0  0  0  0  0  0  0  0
   56.6250   29.4700   43.3220 C   0  0  0  0  0  0  0  0  0  0  0  0
   56.9870   30.0160   44.7120 C   0  0  0  0  0  0  0  0  0  0  0  0
   58.3300   30.6020   44.7160 N   0  0  0  0  0  0  0  0  0  0  0  0
   58.8990   31.2090   45.8930 C   0  0  0  0  0  0  0  0  0  0  0  0
   59.0840   32.6030   45.9490 C   0  0  0  0  0  0  0  0  0  0  0  0
   58.7100   33.4290   44.8650 C   0  0  0  0  0  0  0  0  0  0  0  0
   58.9790   34.7950   44.8820 C   0  0  0  0  0  0  0  0  0  0  0  0
   59.6300   35.3620   45.9710 C   0  0  0  0  0  0  0  0  0  0  0  0
   59.9910   34.5720   47.0620 C   0  0  0  0  0  0  0  0  0  0  0  0
   59.6940   33.1850   47.0940 C   0  0  0  0  0  0  0  0  0  0  0  0
   60.0040   32.4010   48.1900 N   0  0  0  0  0  0  0  0  0  0  0  0
   60.3740   33.0400   49.4750 C   0  0  0  0  0  0  0  0  0  0  0  0
   59.9300   31.0230   48.1020 C   0  0  0  0  0  0  0  0  0  0  0  0
   60.4570   30.1800   49.1140 C   0  0  0  0  0  0  0  0  0  0  0  0
   60.2930   28.7960   49.0570 C   0  0  0  0  0  0  0  0  0  0  0  0
   59.6090   28.2170   47.9960 C   0  0  0  0  0  0  0  0  0  0  0  0
   59.1250   29.0120   46.9610 C   0  0  0  0  0  0  0  0  0  0  0  0
   59.3190   30.4110   46.9730 C   0  0  0  0  0  0  0  0  0  0  0  0
   57.7454   26.3774   46.7146 H   0  0  0  0  0  0  0  0  0  0  0  0
   56.3610   27.2332   45.9546 H   0  0  0  0  0  0  0  0  0  0  0  0
   56.4164   25.4378   45.9546 H   0  0  0  0  0  0  0  0  0  0  0  0
   58.6710   25.7600   44.6425 H   0  0  0  0  0  0  0  0  0  0  0  0
   57.0969   25.9825   43.7778 H   0  0  0  0  0  0  0  0  0  0  0  0
   57.9691   28.4805   45.0164 H   0  0  0  0  0  0  0  0  0  0  0  0
   59.2401   27.8161   43.9196 H   0  0  0  0  0  0  0  0  0  0  0  0
   56.7700   27.4970   42.6880 H   0  0  0  0  0  0  0  0  0  0  0  0
   58.0690   28.4870   42.2210 H   0  0  0  0  0  0  0  0  0  0  0  0
   56.8329   30.2437   42.5682 H   0  0  0  0  0  0  0  0  0  0  0  0
   55.5581   29.2021   43.3220 H   0  0  0  0  0  0  0  0  0  0  0  0
   56.2572   30.7886   44.9956 H   0  0  0  0  0  0  0  0  0  0  0  0
   56.9675   29.1830   45.4302 H   0  0  0  0  0  0  0  0  0  0  0  0
   58.9640   30.3740   43.9180 H   0  0  0  0  0  0  0  0  0  0  0  0
   58.1997   32.9870   43.9965 H   0  0  0  0  0  0  0  0  0  0  0  0
   58.6761   35.4256   44.0331 H   0  0  0  0  0  0  0  0  0  0  0  0
   59.8613   36.4374   45.9724 H   0  0  0  0  0  0  0  0  0  0  0  0
   60.5151   35.0322   47.9126 H   0  0  0  0  0  0  0  0  0  0  0  0
   60.0150   32.4199   50.3096 H   0  0  0  0  0  0  0  0  0  0  0  0
   61.4681   33.1371   49.5346 H   0  0  0  0  0  0  0  0  0  0  0  0
   59.9136   34.0372   49.5346 H   0  0  0  0  0  0  0  0  0  0  0  0
   61.0042   30.6253   49.9579 H   0  0  0  0  0  0  0  0  0  0  0  0
   60.7066   28.1614   49.8546 H   0  0  0  0  0  0  0  0  0  0  0  0
   59.4495   27.1288   47.9735 H   0  0  0  0  0  0  0  0  0  0  0  0
   58.5851   28.5453   46.1239 H   0  0  0  0  0  0  0  0  0  0  0  0
  1  2  1  0
  2  3  1  0
  3  4  1  0
  4  5  1  0
  5  6  1  0
  6  7  1  0
  7  8  1  0
  8  9  2  0
  9 10  1  0
 10 11  2  0
 11 12  1  0
 12 13  2  0
 13 14  1  0
 14 15  2  0
 15 16  1  0
 15 17  1  0
 17 18  2  0
 18 19  1  0
 19 20  2  0
 20 21  1  0
 21 22  2  0
 22  8  1  0
 14  9  1  0
 22 17  1  0
  1 23  1  0
  1 24  1  0
  1 25  1  0
  2 26  1  0
  2 27  1  0
  3 28  1  0
  3 29  1  0
  4 30  1  0
  4 31  1  0
  5 32  1  0
  5 33  1  0
  6 34  1  0
  6 35  1  0
  7 36  1  0
 10 37  1  0
 11 38  1  0
 12 39  1  0
 13 40  1  0
 16 41  1  0
 16 42  1  0
 16 43  1  0
 18 44  1  0
 19 45  1  0
 20 46  1  0
 21 47  1  0
M  CHG  2   4   1  15   1
M  END
>  <UniqueID>  (5) 
5

>  <SMILES>  (5) 
CCC[NH2+]CCNc1c2ccccc2[n+](C)c2ccccc12

>  <Energy>  (5) 
67.10545907798539

>  <Genealogy>  (5) 
CCC[NH2+]CCNc1c2ccccc2[n+](C)c2ccccc12 (protonated)
CCC[NH2+]CCNc1c2ccccc2[n+](C)c2ccccc12 (3D coordinates assigned)
CCC[NH2+]CCNc1c2ccccc2[n+](C)c2ccccc12 (optimized conformer: 67.10545907798539 kcal/mol)

>  <smiles>  (5) 
CCCNCCNc1c2ccccc2[n+](C)c2ccccc12

>  <score_type>  (5) 
oracle

>  <origin>  (5) 
adg

>  <m_score__min__energy>  (5) 
-4.3399999999999999

>  <m_primary>  (5) 
energy

$$$$
5:0
     RDKit          3D

 30 32  0  0  0  0  0  0  0  0999 V2000
   59.3050   29.4040   49.1660 Br  0  0  0  0  0  0  0  0  0  0  0  0
   59.1090   30.6940   47.7330 C   0  0  0  0  0  0  0  0  0  0  0  0
   58.5990   30.2930   46.4740 C   0  0  0  0  0  0  0  0  0  0  0  0
   58.2670   31.2950   45.5080 C   0  0  0  0  0  0  0  0  0  0  0  0
   58.7440   32.6230   45.7090 C   0  0  0  0  0  0  0  0  0  0  0  0
   58.6730   33.6000   44.6820 C   0  0  0  0  0  0  0  0  0  0  0  0
   59.1100   34.9040   44.8990 C   0  0  0  0  0  0  0  0  0  0  0  0
   59.6370   35.2690   46.1310 C   0  0  0  0  0  0  0  0  0  0  0  0
   59.7470   34.3260   47.1510 C   0  0  0  0  0  0  0  0  0  0  0  0
   59.3190   32.9930   46.9550 C   0  0  0  0  0  0  0  0  0  0  0  0
   59.4520   32.0330   47.9780 C   0  0  0  0  0  0  0  0  0  0  0  0
   60.1450   32.5270   49.7170 Br  0  0  0  0  0  0  0  0  0  0  0  0
   57.4210   30.9970   44.2660 C   0  0  0  0  0  0  0  0  0  0  0  0
   56.2550   30.0220   44.4830 C   0  0  0  0  0  0  0  0  0  0  0  0
   56.6740   28.6150   44.4470 N   0  0  0  0  0  0  0  0  0  0  0  0
   58.0880   28.4120   44.7820 C   0  0  0  0  0  0  0  0  0  0  0  0
   58.4010   28.7980   46.2340 C   0  0  0  0  0  0  0  0  0  0  0  0
   58.2660   33.3224   43.6985 H   0  0  0  0  0  0  0  0  0  0  0  0
   59.0376   35.6478   44.0918 H   0  0  0  0  0  0  0  0  0  0  0  0
   59.9681   36.3040   46.3019 H   0  0  0  0  0  0  0  0  0  0  0  0
   60.1723   34.6226   48.1211 H   0  0  0  0  0  0  0  0  0  0  0  0
   57.0051   31.9482   43.9023 H   0  0  0  0  0  0  0  0  0  0  0  0
   58.0965   30.5075   43.5490 H   0  0  0  0  0  0  0  0  0  0  0  0
   55.8023   30.2287   45.4640 H   0  0  0  0  0  0  0  0  0  0  0  0
   55.5390   30.1749   43.6621 H   0  0  0  0  0  0  0  0  0  0  0  0
   56.5200   28.2480   43.4770 H   0  0  0  0  0  0  0  0  0  0  0  0
   58.3379   27.3508   44.6359 H   0  0  0  0  0  0  0  0  0  0  0  0
   58.6871   29.0587   44.1240 H   0  0  0  0  0  0  0  0  0  0  0  0
   57.5667   28.4583   46.8652 H   0  0  0  0  0  0  0  0  0  0  0  0
   59.3586   28.3166   46.4814 H   0  0  0  0  0  0  0  0  0  0  0  0
  1  2  1  0
  2  3  2  0
  3  4  1  0
  4  5  2  0
  5  6  1  0
  6  7  2  0
  7  8  1  0
  8  9  2  0
  9 10  1  0
 10 11  2  0
 11 12  1  0
  4 13  1  0
 13 14  1  0
 14 15  1  0
 15 16  1  0
 16 17  1  0
 11  2  1  0
 17  3  1  0
 10  5  1  0
  6 18  1  0
  7 19  1  0
  8 20  1  0
  9 21  1  0
 13 22  1  0
 13 23  1  0
 14 24  1  0
 14 25  1  0
 15 26  1  0
 16 27  1  0
 16 28  1  0
 17 29  1  0
 17 30  1  0
M  END
>  <UniqueID>  (6) 
6

>  <SMILES>  (6) 
Brc1c2c(c3ccccc3c1Br)CCNCC2

>  <Energy>  (6) 
59.78227576627371

>  <Genealogy>  (6) 
Brc1c2c(c3ccccc3c1Br)CCNCC2 (3D coordinates assigned)
Brc1c2c(c3ccccc3c1Br)CCNCC2 (nonaromatic ring conformer: 59.78227576627371 kcal/mol)

>  <smiles>  (6) 
Brc1c2c(c3ccccc3c1Br)CCNCC2

>  <score_type>  (6) 
oracle

>  <origin>  (6) 
adg

>  <m_score__min__energy>  (6) 
-6.1699999999999999

>  <m_primary>  (6) 
energy

$$$$
6:0
     RDKit          3D

 74 76  0  0  0  0  0  0  0  0999 V2000
   57.6150   32.2840   41.4710 C   0  0  0  0  0  0  0  0  0  0  0  0
   57.0110   31.2160   42.3840 C   0  0  0  0  0  0  0  0  0  0  0  0
   57.0740   31.6560   43.8590 C   0  0  0  0  0  0  0  0  0  0  0  0
   56.7750   30.5770   44.8350 N   0  0  0  0  0  0  0  0  0  0  0  0
   56.5940   29.2380   44.2220 C   0  0  0  0  0  0  0  0  0  0  0  0
   57.9070   28.4630   44.1340 C   0  0  0  0  0  0  0  0  0  0  0  0
   57.7650   30.5360   45.9320 C   0  0  0  0  0  0  0  0  0  0  0  0
   58.1550   31.8990   46.3110 C   0  0  0  0  0  0  0  0  0  0  0  0
   58.4820   33.0190   46.6130 C   0  0  0  0  0  0  0  0  0  0  0  0
   58.8970   34.3730   47.0080 C   0  0  0  0  0  0  0  0  0  0  0  0
   60.2810   34.7310   46.4480 C   0  0  0  0  0  0  0  0  0  0  0  0
   61.3970   34.1750   47.2990 C   0  0  0  0  0  0  0  0  0  0  0  0
   62.4770   33.5070   46.7000 C   0  0  0  0  0  0  0  0  0  0  0  0
   63.4540   32.8980   47.4900 C   0  0  0  0  0  0  0  0  0  0  0  0
   63.3530   32.9210   48.8900 C   0  0  0  0  0  0  0  0  0  0  0  0
   64.3500   32.1610   49.7310 C   0  0  0  0  0  0  0  0  0  0  0  0
   63.7530   31.6290   51.0640 C   0  0  0  0  0  0  0  0  0  0  0  0
   62.3930   31.0270   50.9970 N   0  0  0  0  0  0  0  0  0  0  0  0
   61.4090   31.6800   51.8970 C   0  0  0  0  0  0  0  0  0  0  0  0
   60.2030   30.7700   52.2310 C   0  0  0  0  0  0  0  0  0  0  0  0
   59.8700   29.8380   51.1320 N   0  0  0  0  0  0  0  0  0  0  0  0
   59.2130   30.5110   49.9870 C   0  0  0  0  0  0  0  0  0  0  0  0
   59.6920   29.9290   48.6820 C   0  0  0  0  0  0  0  0  0  0  0  0
   60.6520   30.6160   47.9160 C   0  0  0  0  0  0  0  0  0  0  0  0
   61.1050   30.0740   46.7080 C   0  0  0  0  0  0  0  0  0  0  0  0
   60.6030   28.8470   46.2570 C   0  0  0  0  0  0  0  0  0  0  0  0
   61.0380   28.3250   45.0850 F   0  0  0  0  0  0  0  0  0  0  0  0
   59.6520   28.1580   47.0170 C   0  0  0  0  0  0  0  0  0  0  0  0
   59.1980   28.6960   48.2240 C   0  0  0  0  0  0  0  0  0  0  0  0
   61.0190   28.9810   50.7330 C   0  0  0  0  0  0  0  0  0  0  0  0
   62.3900   29.5580   51.1460 C   0  0  0  0  0  0  0  0  0  0  0  0
   62.2990   33.6290   49.4920 C   0  0  0  0  0  0  0  0  0  0  0  0
   61.3260   34.2500   48.7010 C   0  0  0  0  0  0  0  0  0  0  0  0
   58.0646   33.0790   42.0841 H   0  0  0  0  0  0  0  0  0  0  0  0
   58.3892   31.8285   40.8361 H   0  0  0  0  0  0  0  0  0  0  0  0
   56.8256   32.7127   40.8361 H   0  0  0  0  0  0  0  0  0  0  0  0
   55.9606   31.0523   42.1013 H   0  0  0  0  0  0  0  0  0  0  0  0
   57.5885   30.2869   42.2688 H   0  0  0  0  0  0  0  0  0  0  0  0
   58.0872   32.0328   44.0625 H   0  0  0  0  0  0  0  0  0  0  0  0
   56.2965   32.4228   43.9911 H   0  0  0  0  0  0  0  0  0  0  0  0
   55.8826   28.6621   44.8321 H   0  0  0  0  0  0  0  0  0  0  0  0
   56.2173   29.3826   43.1987 H   0  0  0  0  0  0  0  0  0  0  0  0
   58.2737   28.2466   45.1482 H   0  0  0  0  0  0  0  0  0  0  0  0
   57.7400   27.5187   43.5952 H   0  0  0  0  0  0  0  0  0  0  0  0
   58.6530   29.0656   43.5952 H   0  0  0  0  0  0  0  0  0  0  0  0
   57.3228   30.0289   46.8022 H   0  0  0  0  0  0  0  0  0  0  0  0
   58.6562   29.9880   45.5922 H   0  0  0  0  0  0  0  0  0  0  0  0
   58.1609   35.0963   46.6274 H   0  0  0  0  0  0  0  0  0  0  0  0
   58.9531   34.4069   48.1060 H   0  0  0  0  0  0  0  0  0  0  0  0
   60.3703   34.3191   45.4320 H   0  0  0  0  0  0  0  0  0  0  0  0
   60.3719   35.8272   46.4426 H   0  0  0  0  0  0  0  0  0  0  0  0
   62.5537   33.4633   45.6036 H   0  0  0  0  0  0  0  0  0  0  0  0
   64.3086   32.3968   47.0121 H   0  0  0  0  0  0  0  0  0  0  0  0
   64.7179   31.3045   49.1471 H   0  0  0  0  0  0  0  0  0  0  0  0
   65.1562   32.8621   49.9926 H   0  0  0  0  0  0  0  0  0  0  0  0
   64.4381   30.8611   51.4525 H   0  0  0  0  0  0  0  0  0  0  0  0
   63.6440   32.5162   51.7051 H   0  0  0  0  0  0  0  0  0  0  0  0
   62.0720   31.2220   50.0170 H   0  0  0  0  0  0  0  0  0  0  0  0
   61.9161   31.9493   52.8353 H   0  0  0  0  0  0  0  0  0  0  0  0
   61.0196   32.5657   51.3737 H   0  0  0  0  0  0  0  0  0  0  0  0
   60.4433   30.1830   53.1297 H   0  0  0  0  0  0  0  0  0  0  0  0
   59.3303   31.4202   52.3913 H   0  0  0  0  0  0  0  0  0  0  0  0
   58.1241   30.3758   50.0648 H   0  0  0  0  0  0  0  0  0  0  0  0
   59.4670   31.5810   50.0119 H   0  0  0  0  0  0  0  0  0  0  0  0
   61.0470   31.5806   48.2674 H   0  0  0  0  0  0  0  0  0  0  0  0
   61.8564   30.6125   46.1119 H   0  0  0  0  0  0  0  0  0  0  0  0
   59.2613   27.1921   46.6642 H   0  0  0  0  0  0  0  0  0  0  0  0
   58.4499   28.1514   48.8187 H   0  0  0  0  0  0  0  0  0  0  0  0
   60.8991   27.9953   51.2064 H   0  0  0  0  0  0  0  0  0  0  0  0
   61.0111   28.9200   49.6347 H   0  0  0  0  0  0  0  0  0  0  0  0
   62.5913   29.2992   52.1960 H   0  0  0  0  0  0  0  0  0  0  0  0
   63.1685   29.1307   50.4970 H   0  0  0  0  0  0  0  0  0  0  0  0
   62.2386   33.6953   50.5883 H   0  0  0  0  0  0  0  0  0  0  0  0
   60.5015   34.7996   49.1786 H   0  0  0  0  0  0  0  0  0  0  0  0
  1  2  1  0
  2  3  1  0
  3  4  1  0
  4  5  1  0
  5  6  1  0
  4  7  1  0
  7  8  1  0
  8  9  3  0
  9 10  1  0
 10 11  1  0
 11 12  1  0
 12 13  2  0
 13 14  1  0
 14 15  2  0
 15 16  1  0
 16 17  1  0
 17 18  1  0
 18 19  1  0
 19 20  1  0
 20 21  1  0
 21 22  1  0
 22 23  1  0
 23 24  2  0
 24 25  1  0
 25 26  2  0
 26 27  1  0
 26 28  1  0
 28 29  2  0
 21 30  1  0
 30 31  1  0
 15 32  1  0
 32 33  2  0
 33 12  1  0
 31 18  1  0
 29 23  1  0
  1 34  1  0
  1 35  1  0
  1 36  1  0
  2 37  1  0
  2 38  1  0
  3 39  1  0
  3 40  1  0
  5 41  1  0
  5 42  1  0
  6 43  1  0
  6 44  1  0
  6 45  1  0
  7 46  1  0
  7 47  1  0
 10 48  1  0
 10 49  1  0
 11 50  1  0
 11 51  1  0
 13 52  1  0
 14 53  1  0
 16 54  1  0
 16 55  1  0
 17 56  1  0
 17 57  1  0
 18 58  1  0
 19 59  1  0
 19 60  1  0
 20 61  1  0
 20 62  1  0
 22 63  1  0
 22 64  1  0
 24 65  1  0
 25 66  1  0
 28 67  1  0
 29 68  1  0
 30 69  1  0
 30 70  1  0
 31 71  1  0
 31 72  1  0
 32 73  1  0
 33 74  1  0
M  CHG  1  18   1
M  END
>  <UniqueID>  (7) 
7

>  <SMILES>  (7) 
CCCN(CC)CC#CCCc1ccc(CC[NH+]2CCN(Cc3ccc(F)cc3)CC2)cc1

>  <Energy>  (7) 
78.92021206123295

>  <Genealogy>  (7) 
CCCN(CC)CC#CCCc1ccc(CC[NH+]2CCN(Cc3ccc(F)cc3)CC2)cc1 (protonated)
CCCN(CC)CC#CCCc1ccc(CC[NH+]2CCN(Cc3ccc(F)cc3)CC2)cc1 (3D coordinates assigned)
CCCN(CC)CC#CCCc1ccc(CC[NH+]2CCN(Cc3ccc(F)cc3)CC2)cc1 (nonaromatic ring conformer: 78.92021206123295 kcal/mol)

>  <smiles>  (7) 
CCCN(CC)CC#CCCc1ccc(CCN2CCN(Cc3ccc(F)cc3)CC2)cc1

>  <score_type>  (7) 
oracle

>  <origin>  (7) 
adg

>  <m_score__min__energy>  (7) 
-6.5599999999999996

>  <m_primary>  (7) 
energy

$$$$
7:0
     RDKit          3D

 54 55  0  0  0  0  0  0  0  0999 V2000
   55.9010   29.8420   43.4430 C   0  0  0  0  0  0  0  0  0  0  0  0
   56.2160   30.7550   44.4880 O   0  0  0  0  0  0  0  0  0  0  0  0
   57.3890   31.5170   44.4970 C   0  0  0  0  0  0  0  0  0  0  0  0
   57.7040   32.2060   43.4870 O   0  0  0  0  0  0  0  0  0  0  0  0
   58.3160   31.4460   45.6590 C   0  0  0  0  0  0  0  0  0  0  0  0
   58.1770   32.2600   46.7450 C   0  0  0  0  0  0  0  0  0  0  0  0
   57.1590   33.3860   46.7190 C   0  0  0  0  0  0  0  0  0  0  0  0
   58.9790   32.0410   47.9400 N   0  0  0  0  0  0  0  0  0  0  0  0
   58.7290   32.7480   49.2140 C   0  0  0  0  0  0  0  0  0  0  0  0
   59.7030   33.9290   49.4340 C   0  0  0  0  0  0  0  0  0  0  0  0
   60.9410   33.8300   48.6470 N   0  0  0  0  0  0  0  0  0  0  0  0
   62.1610   34.1150   49.4190 C   0  0  0  0  0  0  0  0  0  0  0  0
   63.3770   33.4760   48.7410 C   0  0  0  0  0  0  0  0  0  0  0  0
   63.0300   32.9060   47.4180 N   0  0  0  0  0  0  0  0  0  0  0  0
   63.7250   31.6220   47.2280 C   0  0  0  0  0  0  0  0  0  0  0  0
   63.4000   33.8270   46.3280 C   0  0  0  0  0  0  0  0  0  0  0  0
   60.0310   31.0620   47.9050 C   0  0  0  0  0  0  0  0  0  0  0  0
   60.6960   30.7860   48.9390 O   0  0  0  0  0  0  0  0  0  0  0  0
   60.3300   30.3900   46.6920 N   0  0  0  0  0  0  0  0  0  0  0  0
   59.4080   30.3870   45.5620 C   0  0  1  0  0  0  0  0  0  0  0  0
   58.8000   29.0080   45.4220 C   0  0  0  0  0  0  0  0  0  0  0  0
   58.2040   28.3700   46.5250 C   0  0  0  0  0  0  0  0  0  0  0  0
   57.6430   27.0970   46.3870 C   0  0  0  0  0  0  0  0  0  0  0  0
   57.6750   26.4480   45.1500 C   0  0  0  0  0  0  0  0  0  0  0  0
   56.9700   24.8510   44.9790 Cl  0  0  0  0  0  0  0  0  0  0  0  0
   58.2670   27.0730   44.0480 C   0  0  0  0  0  0  0  0  0  0  0  0
   58.8280   28.3470   44.1810 C   0  0  0  0  0  0  0  0  0  0  0  0
   55.5714   28.8868   43.8776 H   0  0  0  0  0  0  0  0  0  0  0  0
   55.0950   30.2597   42.8218 H   0  0  0  0  0  0  0  0  0  0  0  0
   56.7931   29.6738   42.8218 H   0  0  0  0  0  0  0  0  0  0  0  0
   56.9012   33.6711   47.7497 H   0  0  0  0  0  0  0  0  0  0  0  0
   57.5853   34.2537   46.1943 H   0  0  0  0  0  0  0  0  0  0  0  0
   56.2529   33.0490   46.1943 H   0  0  0  0  0  0  0  0  0  0  0  0
   57.6996   33.1357   49.2067 H   0  0  0  0  0  0  0  0  0  0  0  0
   58.8833   32.0292   50.0323 H   0  0  0  0  0  0  0  0  0  0  0  0
   59.1880   34.8602   49.1552 H   0  0  0  0  0  0  0  0  0  0  0  0
   59.9946   33.9113   50.4945 H   0  0  0  0  0  0  0  0  0  0  0  0
   61.0010   32.8970   48.1790 H   0  0  0  0  0  0  0  0  0  0  0  0
   62.3079   35.2036   49.4777 H   0  0  0  0  0  0  0  0  0  0  0  0
   62.0522   33.6959   50.4302 H   0  0  0  0  0  0  0  0  0  0  0  0
   64.1539   34.2429   48.6061 H   0  0  0  0  0  0  0  0  0  0  0  0
   63.7374   32.6586   49.3828 H   0  0  0  0  0  0  0  0  0  0  0  0
   63.9618   31.1845   48.2091 H   0  0  0  0  0  0  0  0  0  0  0  0
   63.0764   30.9335   46.6665 H   0  0  0  0  0  0  0  0  0  0  0  0
   64.6561   31.7886   46.6665 H   0  0  0  0  0  0  0  0  0  0  0  0
   63.7779   34.7676   46.7551 H   0  0  0  0  0  0  0  0  0  0  0  0
   64.1825   33.3655   45.7078 H   0  0  0  0  0  0  0  0  0  0  0  0
   62.5157   34.0351   45.7078 H   0  0  0  0  0  0  0  0  0  0  0  0
   61.1670   29.7640   46.6540 H   0  0  0  0  0  0  0  0  0  0  0  0
   59.9917   30.6444   44.6659 H   0  0  0  0  0  0  0  0  0  0  0  0
   58.1792   28.8756   47.5016 H   0  0  0  0  0  0  0  0  0  0  0  0
   57.1758   26.6057   47.2532 H   0  0  0  0  0  0  0  0  0  0  0  0
   58.2914   26.5614   43.0745 H   0  0  0  0  0  0  0  0  0  0  0  0
   59.2931   28.8342   43.3113 H   0  0  0  0  0  0  0  0  0  0  0  0
  1  2  1  0
  2  3  1  0
  3  4  2  0
  3  5  1  0
  5  6  2  0
  6  7  1  0
  6  8  1  0
  8  9  1  0
  9 10  1  0
 10 11  1  0
 11 12  1  0
 12 13  1  0
 13 14  1  0
 14 15  1  0
 14 16  1  0
  8 17  1  0
 17 18  2  0
 17 19  1  0
 19 20  1  0
 20 21  1  0
 21 22  2  0
 22 23  1  0
 23 24  2  0
 24 25  1  0
 24 26  1  0
 26 27  2  0
 20  5  1  0
 27 21  1  0
  1 28  1  0
  1 29  1  0
  1 30  1  0
  7 31  1  0
  7 32  1  0
  7 33  1  0
  9 34  1  0
  9 35  1  0
 10 36  1  0
 10 37  1  0
 11 38  1  0
 12 39  1  0
 12 40  1  0
 13 41  1  0
 13 42  1  0
 15 43  1  0
 15 44  1  0
 15 45  1  0
 16 46  1  0
 16 47  1  0
 16 48  1  0
 19 49  1  0
 20 50  1  6
 22 51  1  0
 23 52  1  0
 26 53  1  0
 27 54  1  0
M  END
>  <UniqueID>  (8) 
8

>  <SMILES>  (8) 
COC(=O)C1=C(C)N(CCNCCN(C)C)C(=O)N[C@H]1c1ccc(Cl)cc1

>  <Energy>  (8) 
60.52746817634747

>  <Genealogy>  (8) 
COC(=O)C1=C(C)N(CCNCCN(C)C)C(=O)N[C@H]1c1ccc(Cl)cc1 (chirality)
COC(=O)C1=C(C)N(CCNCCN(C)C)C(=O)N[C@H]1c1ccc(Cl)cc1 (3D coordinates assigned)
COC(=O)C1=C(C)N(CCNCCN(C)C)C(=O)N[C@H]1c1ccc(Cl)cc1 (nonaromatic ring conformer: 60.52746817634747 kcal/mol)

>  <smiles>  (8) 
COC(=O)C1=C(C)N(CCNCCN(C)C)C(=O)NC1c1ccc(Cl)cc1

>  <score_type>  (8) 
oracle

>  <origin>  (8) 
adg

>  <m_score__min__energy>  (8) 
-7.4800000000000004

>  <m_primary>  (8) 
energy

$$$$
8:0
     RDKit          3D

 63 64  0  0  0  0  0  0  0  0999 V2000
   59.0061   33.8607   49.3560 H   0  0  0  0  0  0  0  0  0  0  0  0
   59.0870   33.4970   48.3210 C   0  0  0  0  0  0  0  0  0  0  0  0
   59.0450   34.3870   47.2380 C   0  0  0  0  0  0  0  0  0  0  0  0
   58.9010   35.7160   47.4670 F   0  0  0  0  0  0  0  0  0  0  0  0
   59.1460   33.9060   45.9170 C   0  0  0  0  0  0  0  0  0  0  0  0
   59.0960   34.7780   44.8800 F   0  0  0  0  0  0  0  0  0  0  0  0
   59.2900   32.5310   45.6690 C   0  0  0  0  0  0  0  0  0  0  0  0
   59.3710   32.1553   44.6383 H   0  0  0  0  0  0  0  0  0  0  0  0
   59.3290   31.6430   46.7560 C   0  0  0  0  0  0  0  0  0  0  0  0
   59.2340   32.1400   48.0480 C   0  0  0  0  0  0  0  0  0  0  0  0
   59.3010   30.8680   49.1350 S   0  0  0  0  0  0  0  0  0  0  0  0
   59.4620   29.7080   47.9150 C   0  0  0  0  0  0  0  0  0  0  0  0
   59.5240   28.2380   48.1940 C   0  0  0  0  0  0  0  0  0  0  0  0
   59.5561   28.0699   49.2806 H   0  0  0  0  0  0  0  0  0  0  0  0
   60.4280   27.8105   47.7357 H   0  0  0  0  0  0  0  0  0  0  0  0
   58.3490   27.6040   47.6400 N   0  0  0  0  0  0  0  0  0  0  0  0
   58.3050   26.8680   46.5750 C   0  0  0  0  0  0  0  0  0  0  0  0
   59.4920   25.9750   46.3210 C   0  0  0  0  0  0  0  0  0  0  0  0
   59.9205   25.6526   47.2815 H   0  0  0  0  0  0  0  0  0  0  0  0
   59.1710   25.0925   45.7481 H   0  0  0  0  0  0  0  0  0  0  0  0
   60.2509   26.5280   45.7481 H   0  0  0  0  0  0  0  0  0  0  0  0
   57.1020   26.8310   45.6390 C   0  0  2  0  0  0  0  0  0  0  0  0
   57.4137   26.3523   44.6990 H   0  0  0  0  0  0  0  0  0  0  0  0
   56.6430   28.1990   45.3720 C   0  0  0  0  0  0  0  0  0  0  0  0
   56.2890   29.2790   45.1480 N   0  0  0  0  0  0  0  0  0  0  0  0
   55.9720   26.0160   46.2240 C   0  0  0  0  0  0  0  0  0  0  0  0
   54.7770   26.3420   45.9980 O   0  0  0  0  0  0  0  0  0  0  0  0
   56.2170   24.8400   47.0040 N   0  0  0  0  0  0  0  0  0  0  0  0
   55.4640   23.7130   46.8990 O   0  0  0  0  0  0  0  0  0  0  0  0
   55.1970   23.2960   48.2160 C   0  0  0  0  0  0  0  0  0  0  0  0
   54.1315   23.0397   48.3113 H   0  0  0  0  0  0  0  0  0  0  0  0
   55.4407   24.1086   48.9162 H   0  0  0  0  0  0  0  0  0  0  0  0
   56.0460   22.0720   48.5390 C   0  0  0  0  0  0  0  0  0  0  0  0
   55.4152   21.1712   48.5133 H   0  0  0  0  0  0  0  0  0  0  0  0
   56.4845   22.1843   49.5415 H   0  0  0  0  0  0  0  0  0  0  0  0
   57.0820   21.9500   47.5820 O   0  0  0  0  0  0  0  0  0  0  0  0
   56.8910   20.8110   46.7730 C   0  0  0  0  0  0  0  0  0  0  0  0
   55.8868   20.3976   46.9480 H   0  0  0  0  0  0  0  0  0  0  0  0
   57.6421   20.0466   47.0210 H   0  0  0  0  0  0  0  0  0  0  0  0
   57.0310   21.2210   45.2980 C   0  0  0  0  0  0  0  0  0  0  0  0
   56.1583   20.8411   44.7465 H   0  0  0  0  0  0  0  0  0  0  0  0
   57.9751   20.7922   44.9308 H   0  0  0  0  0  0  0  0  0  0  0  0
   57.1110   22.6930   45.0970 N   0  0  0  0  0  0  0  0  0  0  0  0
   56.6300   23.1220   45.9220 H   0  0  0  0  0  0  0  0  0  0  0  0
   58.5020   23.2290   45.1590 C   0  0  0  0  0  0  0  0  0  0  0  0
   58.6702   23.6177   46.1742 H   0  0  0  0  0  0  0  0  0  0  0  0
   58.5646   23.9966   44.3736 H   0  0  0  0  0  0  0  0  0  0  0  0
   59.6200   22.2140   44.8480 C   0  0  0  0  0  0  0  0  0  0  0  0
   60.0408   21.8320   45.7898 H   0  0  0  0  0  0  0  0  0  0  0  0
   59.2047   21.3779   44.2661 H   0  0  0  0  0  0  0  0  0  0  0  0
   60.4122   22.7079   44.2661 H   0  0  0  0  0  0  0  0  0  0  0  0
   56.3470   23.2000   43.9220 C   0  0  0  0  0  0  0  0  0  0  0  0
   56.3066   22.3982   43.1701 H   0  0  0  0  0  0  0  0  0  0  0  0
   55.3578   23.4933   44.3033 H   0  0  0  0  0  0  0  0  0  0  0  0
   56.9350   24.4500   43.2530 C   0  0  0  0  0  0  0  0  0  0  0  0
   57.2679   25.1577   44.0266 H   0  0  0  0  0  0  0  0  0  0  0  0
   57.7920   24.1618   42.6265 H   0  0  0  0  0  0  0  0  0  0  0  0
   56.1665   24.9264   42.6265 H   0  0  0  0  0  0  0  0  0  0  0  0
   59.4490   30.2820   46.6740 N   0  0  0  0  0  0  0  0  0  0  0  0
   59.5420   29.5530   45.4040 C   0  0  0  0  0  0  0  0  0  0  0  0
   59.6788   28.4804   45.6061 H   0  0  0  0  0  0  0  0  0  0  0  0
   58.6175   29.7024   44.8269 H   0  0  0  0  0  0  0  0  0  0  0  0
   60.3994   29.9297   44.8269 H   0  0  0  0  0  0  0  0  0  0  0  0
  1  2  1  0
  2  3  2  0
  3  4  1  0
  3  5  1  0
  5  6  1  0
  5  7  2  0
  7  8  1  0
  7  9  1  0
  9 10  2  0
 10 11  1  0
 11 12  1  0
 12 13  1  0
 13 14  1  0
 13 15  1  0
 13 16  1  0
 16 17  2  0
 17 18  1  0
 18 19  1  0
 18 20  1  0
 18 21  1  0
 17 22  1  0
 22 23  1  6
 22 24  1  0
 24 25  3  0
 22 26  1  0
 26 27  2  0
 26 28  1  0
 28 29  1  0
 29 30  1  0
 30 31  1  0
 30 32  1  0
 30 33  1  0
 33 34  1  0
 33 35  1  0
 33 36  1  0
 36 37  1  0
 37 38  1  0
 37 39  1  0
 37 40  1  0
 40 41  1  0
 40 42  1  0
 40 43  1  0
 43 44  1  0
 43 45  1  0
 45 46  1  0
 45 47  1  0
 45 48  1  0
 48 49  1  0
 48 50  1  0
 48 51  1  0
 43 52  1  0
 52 53  1  0
 52 54  1  0
 52 55  1  0
 55 56  1  0
 55 57  1  0
 55 58  1  0
 12 59  2  0
 59 60  1  0
 60 61  1  0
 60 62  1  0
 60 63  1  0
 10  2  1  0
 59  9  1  0
M  CHG  3  28  -1  43   1  59   1
M  END
>  <UniqueID>  (9) 
9

>  <SMILES>  (9) 
CC[NH+](CC)CCOCCO[N-]C(=O)[C@@H](C#N)/C(C)=N\Cc1sc2cc(F)c(F)cc2[n+]1C

>  <Energy>  (9) 
98.52415369716196

>  <Genealogy>  (9) 
CC[NH+](CC)CCOCCO[N-]C(=O)C(C#N)C(C)=NCc1sc2cc(F)c(F)cc2[n+]1C (protonated)
CC[NH+](CC)CCOCCO[N-]C(=O)[C@@H](C#N)C(C)=NCc1sc2cc(F)c(F)cc2[n+]1C (chirality)
CC[NH+](CC)CCOCCO[N-]C(=O)[C@@H](C#N)/C(C)=N\Cc1sc2cc(F)c(F)cc2[n+]1C (cis-trans isomerization)
CC[NH+](CC)CCOCCO[N-]C(=O)[C@@H](C#N)/C(C)=N\Cc1sc2cc(F)c(F)cc2[n+]1C (3D coordinates assigned)
CC[NH+](CC)CCOCCO[N-]C(=O)[C@@H](C#N)/C(C)=N\Cc1sc2cc(F)c(F)cc2[n+]1C (optimized conformer: 98.52415369716196 kcal/mol)

>  <smiles>  (9) 
CCN(CC)CCOCCONC(=O)C(C#N)C(C)=NCc1sc2cc(F)c(F)cc2[n+]1C

>  <score_type>  (9) 
oracle

>  <origin>  (9) 
adg

>  <m_score__min__energy>  (9) 
-5.4199999999999999

>  <m_primary>  (9) 
energy

$$$$
9:0
     RDKit          3D

 59 62  0  0  0  0  0  0  0  0999 V2000
   58.6630   32.3070   49.8310 C   0  0  0  0  0  0  0  0  0  0  0  0
   59.6790   33.4230   50.0900 C   0  0  0  0  0  0  0  0  0  0  0  0
   61.0350   32.9030   50.3350 N   0  0  0  0  0  0  0  0  0  0  0  0
   62.0050   33.9820   50.5660 C   0  0  0  0  0  0  0  0  0  0  0  0
   63.1590   33.8800   49.5630 C   0  0  0  0  0  0  0  0  0  0  0  0
   62.7640   34.3660   48.2920 O   0  0  0  0  0  0  0  0  0  0  0  0
   63.3760   33.6340   47.2460 C   0  0  0  0  0  0  0  0  0  0  0  0
   63.7740   32.2380   47.7390 C   0  0  0  0  0  0  0  0  0  0  0  0
   62.6440   31.2270   47.5100 C   0  0  0  0  0  0  0  0  0  0  0  0
   61.3580   31.7650   47.9820 N   0  0  0  0  0  0  0  0  0  0  0  0
   60.3520   31.6380   46.9460 C   0  0  0  0  0  0  0  0  0  0  0  0
   59.8880   30.3700   46.5730 C   0  0  0  0  0  0  0  0  0  0  0  0
   58.9070   30.2210   45.6110 C   0  0  0  0  0  0  0  0  0  0  0  0
   58.2550   31.2960   45.0660 N   0  0  0  0  0  0  0  0  0  0  0  0
   57.0010   31.1000   44.3200 C   0  0  0  0  0  0  0  0  0  0  0  0
   58.7550   32.5650   45.3070 C   0  0  0  0  0  0  0  0  0  0  0  0
   58.2730   33.6920   44.5970 C   0  0  0  0  0  0  0  0  0  0  0  0
   58.7340   34.9740   44.8840 C   0  0  0  0  0  0  0  0  0  0  0  0
   59.6860   35.1700   45.8770 C   0  0  0  0  0  0  0  0  0  0  0  0
   60.2130   34.0820   46.5690 C   0  0  0  0  0  0  0  0  0  0  0  0
   59.7870   32.7650   46.2840 C   0  0  0  0  0  0  0  0  0  0  0  0
   58.6950   28.7820   45.4020 C   0  0  0  0  0  0  0  0  0  0  0  0
   57.9940   28.0800   44.4100 C   0  0  0  0  0  0  0  0  0  0  0  0
   58.0360   26.6760   44.4190 C   0  0  0  0  0  0  0  0  0  0  0  0
   58.8080   25.9940   45.3770 C   0  0  0  0  0  0  0  0  0  0  0  0
   59.5610   26.7100   46.3160 C   0  0  0  0  0  0  0  0  0  0  0  0
   59.4980   28.1050   46.3040 C   0  0  0  0  0  0  0  0  0  0  0  0
   60.3210   29.0410   47.1250 C   0  0  0  0  0  0  0  0  0  0  0  0
   58.3016   31.9101   50.7911 H   0  0  0  0  0  0  0  0  0  0  0  0
   57.8146   32.7093   49.2579 H   0  0  0  0  0  0  0  0  0  0  0  0
   59.1429   31.5000   49.2579 H   0  0  0  0  0  0  0  0  0  0  0  0
   59.7080   34.0849   49.2119 H   0  0  0  0  0  0  0  0  0  0  0  0
   59.3595   33.9641   50.9928 H   0  0  0  0  0  0  0  0  0  0  0  0
   61.0210   32.2680   51.1670 H   0  0  0  0  0  0  0  0  0  0  0  0
   61.5034   34.9535   50.4452 H   0  0  0  0  0  0  0  0  0  0  0  0
   62.4069   33.8910   51.5859 H   0  0  0  0  0  0  0  0  0  0  0  0
   64.0087   34.4752   49.9288 H   0  0  0  0  0  0  0  0  0  0  0  0
   63.4474   32.8232   49.4629 H   0  0  0  0  0  0  0  0  0  0  0  0
   62.6688   33.5359   46.4092 H   0  0  0  0  0  0  0  0  0  0  0  0
   64.2785   34.1683   46.9144 H   0  0  0  0  0  0  0  0  0  0  0  0
   64.6690   31.9059   47.1925 H   0  0  0  0  0  0  0  0  0  0  0  0
   63.9780   32.2944   48.8184 H   0  0  0  0  0  0  0  0  0  0  0  0
   62.5699   31.0064   46.4349 H   0  0  0  0  0  0  0  0  0  0  0  0
   62.8712   30.3104   48.0741 H   0  0  0  0  0  0  0  0  0  0  0  0
   61.0500   31.2880   48.8590 H   0  0  0  0  0  0  0  0  0  0  0  0
   61.4890   32.7680   48.2430 H   0  0  0  0  0  0  0  0  0  0  0  0
   56.1695   30.9700   45.0283 H   0  0  0  0  0  0  0  0  0  0  0  0
   56.8096   31.9791   43.6872 H   0  0  0  0  0  0  0  0  0  0  0  0
   57.0870   30.2044   43.6872 H   0  0  0  0  0  0  0  0  0  0  0  0
   57.5219   33.5519   43.8057 H   0  0  0  0  0  0  0  0  0  0  0  0
   58.3430   35.8352   44.3224 H   0  0  0  0  0  0  0  0  0  0  0  0
   60.0249   36.1885   46.1176 H   0  0  0  0  0  0  0  0  0  0  0  0
   60.9712   34.2502   47.3480 H   0  0  0  0  0  0  0  0  0  0  0  0
   57.4224   28.6188   43.6399 H   0  0  0  0  0  0  0  0  0  0  0  0
   57.4621   26.1068   43.6729 H   0  0  0  0  0  0  0  0  0  0  0  0
   58.8203   24.8941   45.3886 H   0  0  0  0  0  0  0  0  0  0  0  0
   60.1900   26.1836   47.0490 H   0  0  0  0  0  0  0  0  0  0  0  0
   60.0846   28.9527   48.1957 H   0  0  0  0  0  0  0  0  0  0  0  0
   61.4044   28.8592   47.0675 H   0  0  0  0  0  0  0  0  0  0  0  0
  1  2  1  0
  2  3  1  0
  3  4  1  0
  4  5  1  0
  5  6  1  0
  6  7  1  0
  7  8  1  0
  8  9  1  0
  9 10  1  0
 10 11  1  0
 11 12  2  0
 12 13  1  0
 13 14  2  0
 14 15  1  0
 14 16  1  0
 16 17  2  0
 17 18  1  0
 18 19  2  0
 19 20  1  0
 20 21  2  0
 13 22  1  0
 22 23  2  0
 23 24  1  0
 24 25  2  0
 25 26  1  0
 26 27  2  0
 27 28  1  0
 21 11  1  0
 27 22  1  0
 28 12  1  0
 21 16  1  0
  1 29  1  0
  1 30  1  0
  1 31  1  0
  2 32  1  0
  2 33  1  0
  3 34  1  0
  4 35  1  0
  4 36  1  0
  5 37  1  0
  5 38  1  0
  7 39  1  0
  7 40  1  0
  8 41  1  0
  8 42  1  0
  9 43  1  0
  9 44  1  0
 10 45  1  0
 10 46  1  0
 15 47  1  0
 15 48  1  0
 15 49  1  0
 17 50  1  0
 18 51  1  0
 19 52  1  0
 20 53  1  0
 23 54  1  0
 24 55  1  0
 25 56  1  0
 26 57  1  0
 28 58  1  0
 28 59  1  0
M  CHG  2  10   1  14   1
M  END
>  <UniqueID>  (10) 
10

>  <SMILES>  (10) 
CCNCCOCCC[NH2+]c1c2c([n+](C)c3ccccc13)-c1ccccc1C2

>  <Energy>  (10) 
98.25795856550403

>  <Genealogy>  (10) 
CCNCCOCCC[NH2+]c1c2c([n+](C)c3ccccc13)-c1ccccc1C2 (protonated)
CCNCCOCCC[NH2+]c1c2c([n+](C)c3ccccc13)-c1ccccc1C2 (3D coordinates assigned)
CCNCCOCCC[NH2+]c1c2c([n+](C)c3ccccc13)-c1ccccc1C2 (nonaromatic ring conformer: 98.25795856550403 kcal/mol)

>  <smiles>  (10) 
CCNCCOCCCNc1c2c([n+](C)c3ccccc13)-c1ccccc1C2

>  <score_type>  (10) 
oracle

>  <origin>  (10) 
adg

>  <m_score__min__energy>  (10) 
-4.8799999999999999

>  <m_primary>  (10) 
energy

$$$$
10:0
     RDKit          3D

 70 73  0  0  0  0  0  0  0  0999 V2000
   59.9940   34.0160   49.8270 C   0  0  0  0  0  0  0  0  0  0  0  0
   60.9600   33.9040   48.6870 C   0  0  0  0  0  0  0  0  0  0  0  0
   62.3250   33.6850   48.7670 C   0  0  0  0  0  0  0  0  0  0  0  0
   63.1170   33.6620   49.9660 N   0  0  0  0  0  0  0  0  0  0  0  0
   64.5380   33.4730   49.6230 C   0  0  0  0  0  0  0  0  0  0  0  0
   65.0830   32.1590   50.1860 C   0  0  0  0  0  0  0  0  0  0  0  0
   64.0650   31.1810   50.1370 O   0  0  0  0  0  0  0  0  0  0  0  0
   64.0800   30.4070   51.3160 C   0  0  0  0  0  0  0  0  0  0  0  0
   63.1780   31.0640   52.3530 C   0  0  0  0  0  0  0  0  0  0  0  0
   62.2020   31.8910   51.7190 O   0  0  0  0  0  0  0  0  0  0  0  0
   60.8380   31.5770   51.7090 C   0  0  0  0  0  0  0  0  0  0  0  0
   59.9820   32.1930   52.6350 C   0  0  0  0  0  0  0  0  0  0  0  0
   60.6320   33.5220   53.8500 Br  0  0  0  0  0  0  0  0  0  0  0  0
   58.6250   31.8630   52.6700 C   0  0  0  0  0  0  0  0  0  0  0  0
   58.0940   30.9240   51.7750 C   0  0  0  0  0  0  0  0  0  0  0  0
   56.6950   30.5840   51.8230 N   0  0  0  0  0  0  0  0  0  0  0  0
   55.8210   31.4530   51.6230 O   0  0  0  0  0  0  0  0  0  0  0  0
   56.2980   29.2920   52.0790 O   0  0  0  0  0  0  0  0  0  0  0  0
   58.9420   30.3410   50.8190 C   0  0  0  0  0  0  0  0  0  0  0  0
   60.3060   30.6760   50.7580 C   0  0  0  0  0  0  0  0  0  0  0  0
   61.1540   30.1010   49.6320 C   0  0  0  0  0  0  0  0  0  0  0  0
   60.4880   30.1130   48.3080 N   0  0  0  0  0  0  0  0  0  0  0  0
   61.3640   30.5930   47.2290 C   0  0  0  0  0  0  0  0  0  0  0  0
   59.8890   28.8150   47.9610 C   0  0  0  0  0  0  0  0  0  0  0  0
   62.8110   33.6750   47.4720 C   0  0  0  0  0  0  0  0  0  0  0  0
   61.8150   33.8660   46.6370 O   0  0  0  0  0  0  0  0  0  0  0  0
   60.7070   34.0290   47.3270 C   0  0  0  0  0  0  0  0  0  0  0  0
   59.4390   34.2990   46.7170 N   0  0  0  0  0  0  0  0  0  0  0  0
   58.7960   33.4110   45.7850 C   0  0  0  0  0  0  0  0  0  0  0  0
   58.4490   33.8410   44.4920 C   0  0  0  0  0  0  0  0  0  0  0  0
   57.8250   32.9690   43.5980 C   0  0  0  0  0  0  0  0  0  0  0  0
   57.5530   31.6480   43.9750 C   0  0  0  0  0  0  0  0  0  0  0  0
   56.9230   30.7640   43.0850 C   0  0  0  0  0  0  0  0  0  0  0  0
   56.6610   29.4480   43.4720 C   0  0  0  0  0  0  0  0  0  0  0  0
   57.0270   29.0020   44.7450 C   0  0  0  0  0  0  0  0  0  0  0  0
   57.6560   29.8730   45.6410 C   0  0  0  0  0  0  0  0  0  0  0  0
   57.9230   31.1980   45.2650 C   0  0  0  0  0  0  0  0  0  0  0  0
   58.5500   32.0820   46.1570 C   0  0  0  0  0  0  0  0  0  0  0  0
   60.5414   33.9525   50.7790 H   0  0  0  0  0  0  0  0  0  0  0  0
   59.4692   34.9810   49.7694 H   0  0  0  0  0  0  0  0  0  0  0  0
   59.2623   33.1967   49.7694 H   0  0  0  0  0  0  0  0  0  0  0  0
   62.7990   32.8740   50.5770 H   0  0  0  0  0  0  0  0  0  0  0  0
   62.9710   34.5570   50.4870 H   0  0  0  0  0  0  0  0  0  0  0  0
   64.6427   33.4630   48.5280 H   0  0  0  0  0  0  0  0  0  0  0  0
   65.1118   34.3010   50.0648 H   0  0  0  0  0  0  0  0  0  0  0  0
   65.9420   31.8278   49.5840 H   0  0  0  0  0  0  0  0  0  0  0  0
   65.4073   32.3064   51.2267 H   0  0  0  0  0  0  0  0  0  0  0  0
   63.7123   29.3938   51.0965 H   0  0  0  0  0  0  0  0  0  0  0  0
   65.1070   30.3424   51.7047 H   0  0  0  0  0  0  0  0  0  0  0  0
   62.6669   30.2825   52.9344 H   0  0  0  0  0  0  0  0  0  0  0  0
   63.7956   31.6886   53.0151 H   0  0  0  0  0  0  0  0  0  0  0  0
   57.9664   32.3450   53.4075 H   0  0  0  0  0  0  0  0  0  0  0  0
   58.5321   29.6102   50.1063 H   0  0  0  0  0  0  0  0  0  0  0  0
   62.0788   30.6922   49.5592 H   0  0  0  0  0  0  0  0  0  0  0  0
   61.3432   29.0469   49.8831 H   0  0  0  0  0  0  0  0  0  0  0  0
   62.2499   31.0784   47.6645 H   0  0  0  0  0  0  0  0  0  0  0  0
   61.6803   29.7422   46.6077 H   0  0  0  0  0  0  0  0  0  0  0  0
   60.8171   31.3175   46.6077 H   0  0  0  0  0  0  0  0  0  0  0  0
   59.6372   28.2694   48.8823 H   0  0  0  0  0  0  0  0  0  0  0  0
   58.9755   28.9789   47.3706 H   0  0  0  0  0  0  0  0  0  0  0  0
   60.6064   28.2262   47.3706 H   0  0  0  0  0  0  0  0  0  0  0  0
   63.8635   33.5302   47.1869 H   0  0  0  0  0  0  0  0  0  0  0  0
   58.9200   35.1490   47.0330 H   0  0  0  0  0  0  0  0  0  0  0  0
   58.6710   34.8729   44.1824 H   0  0  0  0  0  0  0  0  0  0  0  0
   57.5460   33.3208   42.5938 H   0  0  0  0  0  0  0  0  0  0  0  0
   56.6351   31.1085   42.0808 H   0  0  0  0  0  0  0  0  0  0  0  0
   56.1646   28.7597   42.7721 H   0  0  0  0  0  0  0  0  0  0  0  0
   56.8200   27.9636   45.0431 H   0  0  0  0  0  0  0  0  0  0  0  0
   57.9418   29.5183   46.6423 H   0  0  0  0  0  0  0  0  0  0  0  0
   58.8504   31.7295   47.1548 H   0  0  0  0  0  0  0  0  0  0  0  0
  1  2  1  0
  2  3  1  0
  3  4  1  0
  4  5  1  0
  5  6  1  0
  6  7  1  0
  7  8  1  0
  8  9  1  0
  9 10  1  0
 10 11  1  0
 11 12  2  0
 12 13  1  0
 12 14  1  0
 14 15  2  0
 15 16  1  0
 16 17  2  0
 16 18  1  0
 15 19  1  0
 19 20  2  0
 20 21  1  0
 21 22  1  0
 22 23  1  0
 22 24  1  0
  3 25  2  0
 25 26  1  0
 26 27  1  0
 27 28  1  0
 28 29  1  0
 29 30  2  0
 30 31  1  0
 31 32  2  0
 32 33  1  0
 33 34  2  0
 34 35  1  0
 35 36  2  0
 36 37  1  0
 37 38  2  0
 27  2  2  0
 38 29  1  0
 20 11  1  0
 37 32  1  0
  1 39  1  0
  1 40  1  0
  1 41  1  0
  4 42  1  0
  4 43  1  0
  5 44  1  0
  5 45  1  0
  6 46  1  0
  6 47  1  0
  8 48  1  0
  8 49  1  0
  9 50  1  0
  9 51  1  0
 14 52  1  0
 19 53  1  0
 21 54  1  0
 21 55  1  0
 23 56  1  0
 23 57  1  0
 23 58  1  0
 24 59  1  0
 24 60  1  0
 24 61  1  0
 25 62  1  0
 28 63  1  0
 30 64  1  0
 31 65  1  0
 33 66  1  0
 34 67  1  0
 35 68  1  0
 36 69  1  0
 38 70  1  0
M  CHG  3   4   1  16   1  18  -1
M  END
>  <UniqueID>  (11) 
11

>  <SMILES>  (11) 
Cc1c([NH2+]CCOCCOc2c(Br)cc([N+](=O)[O-])cc2CN(C)C)coc1Nc1ccc2ccccc2c1

>  <Energy>  (11) 
116.82745256682236

>  <Genealogy>  (11) 
Cc1c([NH2+]CCOCCOc2c(Br)cc([N+](=O)[O-])cc2CN(C)C)coc1Nc1ccc2ccccc2c1 (protonated)
Cc1c([NH2+]CCOCCOc2c(Br)cc([N+](=O)[O-])cc2CN(C)C)coc1Nc1ccc2ccccc2c1 (3D coordinates assigned)
Cc1c([NH2+]CCOCCOc2c(Br)cc([N+](=O)[O-])cc2CN(C)C)coc1Nc1ccc2ccccc2c1 (optimized conformer: 116.82745256682236 kcal/mol)

>  <smiles>  (11) 
Cc1c(NCCOCCOc2c(Br)cc([N+](=O)[O-])cc2CN(C)C)coc1Nc1ccc2ccccc2c1

>  <score_type>  (11) 
oracle

>  <origin>  (11) 
adg

>  <m_score__min__energy>  (11) 
-7.3600000000000003

>  <m_primary>  (11) 
energy

$$$$
11:0
     RDKit          3D

 79 83  0  0  0  0  0  0  0  0999 V2000
   60.1170   33.7020   50.1600 C   0  0  0  0  0  0  0  0  0  0  0  0
   61.2040   34.0850   49.1530 C   0  0  0  0  0  0  0  0  0  0  0  0
   60.8440   33.8450   47.7300 N   0  0  0  0  0  0  0  0  0  0  0  0
   62.0300   33.8390   46.8190 C   0  0  0  0  0  0  0  0  0  0  0  0
   63.1030   32.7770   47.1200 C   0  0  0  0  0  0  0  0  0  0  0  0
   59.6920   34.6830   47.2940 C   0  0  0  0  0  0  0  0  0  0  0  0
   58.5140   33.8510   46.7380 C   0  0  0  0  0  0  0  0  0  0  0  0
   58.9290   33.0050   45.6160 N   0  0  0  0  0  0  0  0  0  0  0  0
   58.7750   31.5800   45.6410 C   0  0  0  0  0  0  0  0  0  0  0  0
   58.0840   30.8640   44.6360 C   0  0  0  0  0  0  0  0  0  0  0  0
   57.3590   31.5410   43.6370 C   0  0  0  0  0  0  0  0  0  0  0  0
   56.6540   30.8330   42.6670 C   0  0  0  0  0  0  0  0  0  0  0  0
   56.6340   29.4420   42.6920 C   0  0  0  0  0  0  0  0  0  0  0  0
   57.3240   28.7420   43.6820 C   0  0  0  0  0  0  0  0  0  0  0  0
   58.0810   29.4260   44.6650 C   0  0  0  0  0  0  0  0  0  0  0  0
   58.7810   28.7440   45.6520 N   0  0  0  0  0  0  0  0  0  0  0  0
   59.0140   27.2920   45.5820 C   0  0  0  0  0  0  0  0  0  0  0  0
   59.3010   29.4760   46.6890 C   0  0  0  0  0  0  0  0  0  0  0  0
   59.3280   30.8520   46.6800 C   0  0  0  0  0  0  0  0  0  0  0  0
   59.9300   31.3300   47.7470 O   0  0  0  0  0  0  0  0  0  0  0  0
   60.2750   30.2960   48.4830 C   0  0  0  0  0  0  0  0  0  0  0  0
   60.9020   30.3370   49.7240 C   0  0  0  0  0  0  0  0  0  0  0  0
   61.1310   29.1150   50.3990 C   0  0  0  0  0  0  0  0  0  0  0  0
   61.7380   29.0610   51.6630 O   0  0  0  0  0  0  0  0  0  0  0  0
   62.4580   30.1390   52.2580 C   0  0  0  0  0  0  0  0  0  0  0  0
   63.9570   29.9930   51.9260 C   0  0  0  0  0  0  0  0  0  0  0  0
   64.6710   31.2660   51.5760 N   0  0  0  0  0  0  0  0  0  0  0  0
   64.2460   32.2730   52.5910 C   0  0  0  0  0  0  0  0  0  0  0  0
   66.1630   31.0700   51.6730 C   0  0  0  0  0  0  0  0  0  0  0  0
   66.9710   31.7100   50.5250 C   0  0  0  0  0  0  0  0  0  0  0  0
   66.4300   33.0970   50.1750 C   0  0  0  0  0  0  0  0  0  0  0  0
   64.9390   33.0520   49.7920 C   0  0  0  0  0  0  0  0  0  0  0  0
   64.2460   31.7410   50.2210 C   0  0  0  0  0  0  0  0  0  0  0  0
   60.7250   27.9020   49.8020 C   0  0  0  0  0  0  0  0  0  0  0  0
   60.0960   27.8850   48.5450 C   0  0  0  0  0  0  0  0  0  0  0  0
   59.9060   29.1050   47.8880 C   0  0  0  0  0  0  0  0  0  0  0  0
   60.5002   33.8370   51.1822 H   0  0  0  0  0  0  0  0  0  0  0  0
   59.2363   34.3440   50.0108 H   0  0  0  0  0  0  0  0  0  0  0  0
   59.8333   32.6498   50.0108 H   0  0  0  0  0  0  0  0  0  0  0  0
   61.4226   35.1561   49.2754 H   0  0  0  0  0  0  0  0  0  0  0  0
   62.0687   33.4400   49.3682 H   0  0  0  0  0  0  0  0  0  0  0  0
   60.5040   32.8560   47.7340 H   0  0  0  0  0  0  0  0  0  0  0  0
   61.6672   33.6707   45.7943 H   0  0  0  0  0  0  0  0  0  0  0  0
   62.5235   34.8111   46.9660 H   0  0  0  0  0  0  0  0  0  0  0  0
   63.2144   32.6667   48.2088 H   0  0  0  0  0  0  0  0  0  0  0  0
   62.7988   31.8144   46.6832 H   0  0  0  0  0  0  0  0  0  0  0  0
   64.0624   33.0911   46.6832 H   0  0  0  0  0  0  0  0  0  0  0  0
   59.3343   35.2631   48.1574 H   0  0  0  0  0  0  0  0  0  0  0  0
   60.0478   35.3326   46.4807 H   0  0  0  0  0  0  0  0  0  0  0  0
   58.1201   33.2103   47.5407 H   0  0  0  0  0  0  0  0  0  0  0  0
   57.7438   34.5476   46.3752 H   0  0  0  0  0  0  0  0  0  0  0  0
   59.0830   33.4670   44.6920 H   0  0  0  0  0  0  0  0  0  0  0  0
   57.3493   32.6409   43.6225 H   0  0  0  0  0  0  0  0  0  0  0  0
   56.1113   31.3751   41.8786 H   0  0  0  0  0  0  0  0  0  0  0  0
   56.0700   28.8902   41.9256 H   0  0  0  0  0  0  0  0  0  0  0  0
   57.2797   27.6430   43.6996 H   0  0  0  0  0  0  0  0  0  0  0  0
   59.0798   26.8817   46.6005 H   0  0  0  0  0  0  0  0  0  0  0  0
   58.1813   26.8124   45.0466 H   0  0  0  0  0  0  0  0  0  0  0  0
   59.9549   27.0970   45.0466 H   0  0  0  0  0  0  0  0  0  0  0  0
   61.2116   31.2943   50.1688 H   0  0  0  0  0  0  0  0  0  0  0  0
   62.0846   31.0943   51.8606 H   0  0  0  0  0  0  0  0  0  0  0  0
   62.3178   30.1192   53.3488 H   0  0  0  0  0  0  0  0  0  0  0  0
   64.4566   29.5548   52.8026 H   0  0  0  0  0  0  0  0  0  0  0  0
   64.0056   29.3634   51.0253 H   0  0  0  0  0  0  0  0  0  0  0  0
   64.4159   31.8704   53.6005 H   0  0  0  0  0  0  0  0  0  0  0  0
   64.8318   33.1949   52.4605 H   0  0  0  0  0  0  0  0  0  0  0  0
   63.1769   32.4964   52.4605 H   0  0  0  0  0  0  0  0  0  0  0  0
   66.5060   31.5103   52.6209 H   0  0  0  0  0  0  0  0  0  0  0  0
   66.3396   29.9860   51.6118 H   0  0  0  0  0  0  0  0  0  0  0  0
   68.0226   31.8025   50.8343 H   0  0  0  0  0  0  0  0  0  0  0  0
   66.8834   31.0673   49.6366 H   0  0  0  0  0  0  0  0  0  0  0  0
   66.5536   33.7572   51.0461 H   0  0  0  0  0  0  0  0  0  0  0  0
   66.9933   33.4740   49.3086 H   0  0  0  0  0  0  0  0  0  0  0  0
   64.4264   33.8950   50.2784 H   0  0  0  0  0  0  0  0  0  0  0  0
   64.8787   33.1127   48.6953 H   0  0  0  0  0  0  0  0  0  0  0  0
   63.1589   31.9081   50.2341 H   0  0  0  0  0  0  0  0  0  0  0  0
   64.5358   30.9655   49.4967 H   0  0  0  0  0  0  0  0  0  0  0  0
   60.9039   26.9535   50.3296 H   0  0  0  0  0  0  0  0  0  0  0  0
   59.7630   26.9399   48.0914 H   0  0  0  0  0  0  0  0  0  0  0  0
  1  2  1  0
  2  3  1  0
  3  4  1  0
  4  5  1  0
  3  6  1  0
  6  7  1  0
  7  8  1  0
  8  9  1  0
  9 10  2  0
 10 11  1  0
 11 12  2  0
 12 13  1  0
 13 14  2  0
 14 15  1  0
 15 16  2  0
 16 17  1  0
 16 18  1  0
 18 19  2  0
 19 20  1  0
 20 21  1  0
 21 22  2  0
 22 23  1  0
 23 24  1  0
 24 25  1  0
 25 26  1  0
 26 27  1  0
 27 28  1  0
 27 29  1  0
 29 30  1  0
 30 31  1  0
 31 32  1  0
 32 33  1  0
 23 34  2  0
 34 35  1  0
 35 36  2  0
 19  9  1  0
 36 21  1  0
 15 10  1  0
 36 18  1  0
 33 27  1  0
  1 37  1  0
  1 38  1  0
  1 39  1  0
  2 40  1  0
  2 41  1  0
  3 42  1  0
  4 43  1  0
  4 44  1  0
  5 45  1  0
  5 46  1  0
  5 47  1  0
  6 48  1  0
  6 49  1  0
  7 50  1  0
  7 51  1  0
  8 52  1  0
 11 53  1  0
 12 54  1  0
 13 55  1  0
 14 56  1  0
 17 57  1  0
 17 58  1  0
 17 59  1  0
 22 60  1  0
 25 61  1  0
 25 62  1  0
 26 63  1  0
 26 64  1  0
 28 65  1  0
 28 66  1  0
 28 67  1  0
 29 68  1  0
 29 69  1  0
 30 70  1  0
 30 71  1  0
 31 72  1  0
 31 73  1  0
 32 74  1  0
 32 75  1  0
 33 76  1  0
 33 77  1  0
 34 78  1  0
 35 79  1  0
M  CHG  3   3   1  16   1  27   1
M  END
>  <UniqueID>  (12) 
12

>  <SMILES>  (12) 
CC[NH+](CC)CCNc1c2ccccc2[n+](C)c2c1oc1cc(OCC[N+]3(C)CCCCC3)ccc12

>  <Energy>  (12) 
167.19140088146406

>  <Genealogy>  (12) 
CC[NH+](CC)CCNc1c2ccccc2[n+](C)c2c1oc1cc(OCC[N+]3(C)CCCCC3)ccc12 (protonated)
CC[NH+](CC)CCNc1c2ccccc2[n+](C)c2c1oc1cc(OCC[N+]3(C)CCCCC3)ccc12 (3D coordinates assigned)
CC[NH+](CC)CCNc1c2ccccc2[n+](C)c2c1oc1cc(OCC[N+]3(C)CCCCC3)ccc12 (nonaromatic ring conformer: 167.19140088146406 kcal/mol)

>  <smiles>  (12) 
CCN(CC)CCNc1c2ccccc2[n+](C)c2c1oc1cc(OCC[N+]3(C)CCCCC3)ccc12

>  <score_type>  (12) 
oracle

>  <origin>  (12) 
adg

>  <m_score__min__energy>  (12) 
-3.5299999999999998

>  <m_primary>  (12) 
energy

$$$$
12:0
     RDKit          3D

 34 35  0  0  0  0  0  0  0  0999 V2000
   58.6353   30.9081   50.0040 H   0  0  0  0  0  0  0  0  0  0  0  0
   59.2620   30.6390   49.1410 C   0  0  0  0  0  0  0  0  0  0  0  0
   59.9490   30.3440   48.1950 C   0  0  0  0  0  0  0  0  0  0  0  0
   60.7870   29.9850   47.0460 C   0  0  0  0  0  0  0  0  0  0  0  0
   61.1873   30.9021   46.5892 H   0  0  0  0  0  0  0  0  0  0  0  0
   61.6107   29.3436   47.3927 H   0  0  0  0  0  0  0  0  0  0  0  0
   60.0040   29.2530   46.0500 N   0  0  0  0  0  0  0  0  0  0  0  0
   58.7160   29.0600   45.8850 C   0  0  0  0  0  0  0  0  0  0  0  0
   57.8320   29.9970   45.2640 C   0  0  0  0  0  0  0  0  0  0  0  0
   58.1590   31.4720   45.1670 C   0  0  0  0  0  0  0  0  0  0  0  0
   58.2526   31.8941   46.1785 H   0  0  0  0  0  0  0  0  0  0  0  0
   59.1079   31.6024   44.6260 H   0  0  0  0  0  0  0  0  0  0  0  0
   57.3542   31.9912   44.6260 H   0  0  0  0  0  0  0  0  0  0  0  0
   56.5510   29.5460   44.8510 C   0  0  0  0  0  0  0  0  0  0  0  0
   55.6210   30.4210   44.0470 C   0  0  0  0  0  0  0  0  0  0  0  0
   54.9926   31.0123   44.7293 H   0  0  0  0  0  0  0  0  0  0  0  0
   56.2117   31.0984   43.4128 H   0  0  0  0  0  0  0  0  0  0  0  0
   54.9808   29.7902   43.4128 H   0  0  0  0  0  0  0  0  0  0  0  0
   56.1110   28.3090   45.2160 N   0  0  0  0  0  0  0  0  0  0  0  0
   55.1460   28.0250   44.9330 H   0  0  0  0  0  0  0  0  0  0  0  0
   56.8700   27.4520   45.9540 C   0  0  0  0  0  0  0  0  0  0  0  0
   56.3460   26.1980   46.3480 C   0  0  0  0  0  0  0  0  0  0  0  0
   55.0280   25.8650   45.9960 O   0  0  0  0  0  0  0  0  0  0  0  0
   54.5970   24.5680   45.5920 C   0  0  0  0  0  0  0  0  0  0  0  0
   54.3934   23.9553   46.4826 H   0  0  0  0  0  0  0  0  0  0  0  0
   53.6802   24.6570   44.9908 H   0  0  0  0  0  0  0  0  0  0  0  0
   55.3848   24.0906   44.9908 H   0  0  0  0  0  0  0  0  0  0  0  0
   57.1550   25.3110   47.0820 C   0  0  0  0  0  0  0  0  0  0  0  0
   56.7524   24.3362   47.3946 H   0  0  0  0  0  0  0  0  0  0  0  0
   58.4600   25.6580   47.4150 C   0  0  0  0  0  0  0  0  0  0  0  0
   59.0834   24.9558   47.9879 H   0  0  0  0  0  0  0  0  0  0  0  0
   58.9820   26.8900   47.0270 C   0  0  0  0  0  0  0  0  0  0  0  0
   60.0180   27.1495   47.2905 H   0  0  0  0  0  0  0  0  0  0  0  0
   58.1950   27.8090   46.2990 C   0  0  0  0  0  0  0  0  0  0  0  0
  1  2  1  0
  2  3  3  0
  3  4  1  0
  4  5  1  0
  4  6  1  0
  4  7  1  0
  7  8  2  0
  8  9  1  0
  9 10  1  0
 10 11  1  0
 10 12  1  0
 10 13  1  0
  9 14  2  0
 14 15  1  0
 15 16  1  0
 15 17  1  0
 15 18  1  0
 14 19  1  0
 19 20  1  0
 19 21  1  0
 21 22  2  0
 22 23  1  0
 23 24  1  0
 24 25  1  0
 24 26  1  0
 24 27  1  0
 22 28  1  0
 28 29  1  0
 28 30  2  0
 30 31  1  0
 30 32  1  0
 32 33  1  0
 32 34  2  0
 34  8  1  0
 34 21  1  0
M  END
>  <UniqueID>  (13) 
13

>  <SMILES>  (13) 
C#CC/N=c1\c(C)c(C)[nH]c2c(OC)cccc12

>  <Energy>  (13) 
54.11720482868059

>  <Genealogy>  (13) 
C#CC/N=c1\c(C)c(C)[nH]c2c(OC)cccc12 (cis-trans isomerization)
C#CC/N=c1\c(C)c(C)[nH]c2c(OC)cccc12 (3D coordinates assigned)
C#CC/N=c1\c(C)c(C)[nH]c2c(OC)cccc12 (optimized conformer: 54.11720482868059 kcal/mol)

>  <smiles>  (13) 
C#CCN=c1c(C)c(C)[nH]c2c(OC)cccc12

>  <score_type>  (13) 
oracle

>  <origin>  (13) 
adg

>  <m_score__min__energy>  (13) 
-6.4800000000000004

>  <m_primary>  (13) 
energy

$$$$
13:0
     RDKit          3D

 49 50  0  0  0  0  0  0  0  0999 V2000
   54.1570   21.9850   46.7340 C   0  0  0  0  0  0  0  0  0  0  0  0
   54.8280   23.3000   47.1110 C   0  0  0  0  0  0  0  0  0  0  0  0
   54.5960   24.2990   46.0630 N   0  0  0  0  0  0  0  0  0  0  0  0
   54.1370   23.6520   44.8270 C   0  0  0  0  0  0  0  0  0  0  0  0
   55.2470   23.6650   43.7670 C   0  0  0  0  0  0  0  0  0  0  0  0
   56.2940   22.5630   43.9850 C   0  0  0  0  0  0  0  0  0  0  0  0
   57.6620   23.1390   44.0240 N   0  0  0  0  0  0  0  0  0  0  0  0
   58.5620   22.2980   44.8310 C   0  0  0  0  0  0  0  0  0  0  0  0
   57.6870   24.5360   44.5160 C   0  0  0  0  0  0  0  0  0  0  0  0
   58.0910   24.5980   45.9930 C   0  0  0  0  0  0  0  0  0  0  0  0
   57.1490   25.4170   46.7470 N   0  0  0  0  0  0  0  0  0  0  0  0
   56.7150   26.7180   46.3370 C   0  0  0  0  0  0  0  0  0  0  0  0
   55.5150   26.8870   45.9980 O   0  0  0  0  0  0  0  0  0  0  0  0
   57.6570   27.8510   46.2470 C   0  0  0  0  0  0  0  0  0  0  0  0
   58.7860   27.8360   47.0780 C   0  0  0  0  0  0  0  0  0  0  0  0
   59.6900   28.9000   47.0670 C   0  0  0  0  0  0  0  0  0  0  0  0
   59.4810   29.9910   46.2240 C   0  0  0  0  0  0  0  0  0  0  0  0
   58.3670   30.0240   45.3740 C   0  0  0  0  0  0  0  0  0  0  0  0
   58.1650   31.1190   44.5190 C   0  0  0  0  0  0  0  0  0  0  0  0
   57.0640   31.1500   43.6610 C   0  0  0  0  0  0  0  0  0  0  0  0
   56.1580   30.0880   43.6450 C   0  0  0  0  0  0  0  0  0  0  0  0
   56.3430   28.9910   44.4900 C   0  0  0  0  0  0  0  0  0  0  0  0
   57.4420   28.9450   45.3740 C   0  0  0  0  0  0  0  0  0  0  0  0
   53.8789   21.4400   47.6481 H   0  0  0  0  0  0  0  0  0  0  0  0
   53.2538   22.1911   46.1409 H   0  0  0  0  0  0  0  0  0  0  0  0
   54.8539   21.3746   46.1409 H   0  0  0  0  0  0  0  0  0  0  0  0
   54.4087   23.6639   48.0606 H   0  0  0  0  0  0  0  0  0  0  0  0
   55.9101   23.1353   47.2202 H   0  0  0  0  0  0  0  0  0  0  0  0
   55.5090   24.7710   45.8590 H   0  0  0  0  0  0  0  0  0  0  0  0
   53.8582   22.6107   45.0459 H   0  0  0  0  0  0  0  0  0  0  0  0
   53.2687   24.2044   44.4385 H   0  0  0  0  0  0  0  0  0  0  0  0
   54.7888   23.5230   42.7771 H   0  0  0  0  0  0  0  0  0  0  0  0
   55.7650   24.6324   43.8432 H   0  0  0  0  0  0  0  0  0  0  0  0
   56.0893   22.0539   44.9384 H   0  0  0  0  0  0  0  0  0  0  0  0
   56.2347   21.8488   43.1505 H   0  0  0  0  0  0  0  0  0  0  0  0
   58.3708   22.4766   45.8994 H   0  0  0  0  0  0  0  0  0  0  0  0
   58.3805   21.2383   44.5982 H   0  0  0  0  0  0  0  0  0  0  0  0
   59.6069   22.5508   44.5982 H   0  0  0  0  0  0  0  0  0  0  0  0
   58.4112   25.1125   43.9217 H   0  0  0  0  0  0  0  0  0  0  0  0
   56.6766   24.9586   44.4140 H   0  0  0  0  0  0  0  0  0  0  0  0
   58.0989   23.5797   46.4090 H   0  0  0  0  0  0  0  0  0  0  0  0
   59.0924   25.0469   46.0690 H   0  0  0  0  0  0  0  0  0  0  0  0
   58.9611   26.9786   47.7444 H   0  0  0  0  0  0  0  0  0  0  0  0
   60.5705   28.8776   47.7259 H   0  0  0  0  0  0  0  0  0  0  0  0
   60.1934   30.8292   46.2261 H   0  0  0  0  0  0  0  0  0  0  0  0
   58.8778   31.9568   44.5251 H   0  0  0  0  0  0  0  0  0  0  0  0
   56.9101   32.0129   42.9963 H   0  0  0  0  0  0  0  0  0  0  0  0
   55.2946   30.1151   42.9640 H   0  0  0  0  0  0  0  0  0  0  0  0
   55.6265   28.1567   44.4661 H   0  0  0  0  0  0  0  0  0  0  0  0
  1  2  1  0
  2  3  1  0
  3  4  1  0
  4  5  1  0
  5  6  1  0
  6  7  1  0
  7  8  1  0
  7  9  1  0
  9 10  1  0
 10 11  1  0
 11 12  1  0
 12 13  2  0
 12 14  1  0
 14 15  2  0
 15 16  1  0
 16 17  2  0
 17 18  1  0
 18 19  2  0
 19 20  1  0
 20 21  2  0
 21 22  1  0
 22 23  2  0
 23 14  1  0
 23 18  1  0
  1 24  1  0
  1 25  1  0
  1 26  1  0
  2 27  1  0
  2 28  1  0
  3 29  1  0
  4 30  1  0
  4 31  1  0
  5 32  1  0
  5 33  1  0
  6 34  1  0
  6 35  1  0
  8 36  1  0
  8 37  1  0
  8 38  1  0
  9 39  1  0
  9 40  1  0
 10 41  1  0
 10 42  1  0
 15 43  1  0
 16 44  1  0
 17 45  1  0
 19 46  1  0
 20 47  1  0
 21 48  1  0
 22 49  1  0
M  CHG  1  11  -1
M  END
>  <UniqueID>  (14) 
14

>  <SMILES>  (14) 
CCNCCCN(C)CC[N-]C(=O)c1cccc2ccccc12

>  <Energy>  (14) 
51.161180548896645

>  <Genealogy>  (14) 
CCNCCCN(C)CC[N-]C(=O)c1cccc2ccccc12 (protonated)
CCNCCCN(C)CC[N-]C(=O)c1cccc2ccccc12 (3D coordinates assigned)
CCNCCCN(C)CC[N-]C(=O)c1cccc2ccccc12 (optimized conformer: 51.161180548896645 kcal/mol)

>  <smiles>  (14) 
CCNCCCN(C)CCNC(=O)c1cccc2ccccc12

>  <score_type>  (14) 
oracle

>  <origin>  (14) 
adg

>  <m_score__min__energy>  (14) 
-8.4900000000000002

>  <m_primary>  (14) 
energy

$$$$
14:0
     RDKit          3D

 90 95  0  0  0  0  0  0  0  0999 V2000
   60.3780   27.7000   48.1170 C   0  0  0  0  0  0  0  0  0  0  0  0
   60.3880   27.4350   46.6050 C   0  0  0  0  0  0  0  0  0  0  0  0
   59.1890   27.9340   45.8930 N   0  0  0  0  0  0  0  0  0  0  0  0
   58.1950   26.8680   45.6670 C   0  0  0  0  0  0  0  0  0  0  0  0
   59.5240   28.6610   44.6490 C   0  0  0  0  0  0  0  0  0  0  0  0
   58.3310   29.5020   44.1770 C   0  0  0  0  0  0  0  0  0  0  0  0
   57.6460   30.1110   45.3200 N   0  0  0  0  0  0  0  0  0  0  0  0
   58.2910   30.9230   46.3240 C   0  0  0  0  0  0  0  0  0  0  0  0
   58.5180   30.4190   47.6440 C   0  0  0  0  0  0  0  0  0  0  0  0
   59.0730   31.2330   48.6530 C   0  0  0  0  0  0  0  0  0  0  0  0
   59.4060   32.5480   48.3210 C   0  0  0  0  0  0  0  0  0  0  0  0
   59.2020   33.0080   47.0610 C   0  0  0  0  0  0  0  0  0  0  0  0
   59.5820   34.3060   47.0110 C   0  0  0  0  0  0  0  0  0  0  0  0
   60.0310   34.6300   48.2850 C   0  0  0  0  0  0  0  0  0  0  0  0
   59.9180   33.5390   49.0920 N   0  0  0  0  0  0  0  0  0  0  0  0
   60.3220   33.4690   50.5010 C   0  0  0  0  0  0  0  0  0  0  0  0
   59.1230   33.6760   51.4390 C   0  0  0  0  0  0  0  0  0  0  0  0
   58.1680   32.5630   51.3580 N   0  0  0  0  0  0  0  0  0  0  0  0
   57.8630   32.0080   52.6830 C   0  0  0  0  0  0  0  0  0  0  0  0
   57.3440   30.5780   52.5310 C   0  0  0  0  0  0  0  0  0  0  0  0
   57.7860   30.0250   51.2420 N   0  0  0  0  0  0  0  0  0  0  0  0
   59.0620   29.3050   51.3460 C   0  0  0  0  0  0  0  0  0  0  0  0
   60.2110   30.3050   51.5190 C   0  0  0  0  0  0  0  0  0  0  0  0
   61.3640   29.9260   50.6990 N   0  0  0  0  0  0  0  0  0  0  0  0
   62.5200   30.7800   50.6490 C   0  0  0  0  0  0  0  0  0  0  0  0
   63.2640   31.0230   51.8180 C   0  0  0  0  0  0  0  0  0  0  0  0
   62.9080   30.4080   53.0370 C   0  0  0  0  0  0  0  0  0  0  0  0
   63.6120   30.6820   54.2050 C   0  0  0  0  0  0  0  0  0  0  0  0
   64.6650   31.5880   54.1840 C   0  0  0  0  0  0  0  0  0  0  0  0
   65.0350   32.2090   52.9920 C   0  0  0  0  0  0  0  0  0  0  0  0
   64.3680   31.9150   51.7740 C   0  0  0  0  0  0  0  0  0  0  0  0
   64.7530   32.4890   50.5740 N   0  0  0  0  0  0  0  0  0  0  0  0
   66.0390   33.2120   50.4820 C   0  0  0  0  0  0  0  0  0  0  0  0
   63.9510   32.3580   49.4560 C   0  0  0  0  0  0  0  0  0  0  0  0
   64.1800   33.1170   48.2790 C   0  0  0  0  0  0  0  0  0  0  0  0
   63.4250   32.9020   47.1270 C   0  0  0  0  0  0  0  0  0  0  0  0
   62.4210   31.9420   47.1150 C   0  0  0  0  0  0  0  0  0  0  0  0
   62.1280   31.2270   48.2740 C   0  0  0  0  0  0  0  0  0  0  0  0
   62.8570   31.4500   49.4610 C   0  0  0  0  0  0  0  0  0  0  0  0
   59.5260   35.0470   45.7570 C   0  0  0  0  0  0  0  0  0  0  0  0
   59.7560   36.2840   45.7250 O   0  0  0  0  0  0  0  0  0  0  0  0
   59.2820   34.2540   44.4890 C   0  0  0  0  0  0  0  0  0  0  0  0
   58.4130   32.9720   44.7020 C   0  0  0  0  0  0  0  0  0  0  0  0
   58.6720   32.2610   46.0250 C   0  0  0  0  0  0  0  0  0  0  0  0
   60.4141   26.7425   48.6573 H   0  0  0  0  0  0  0  0  0  0  0  0
   61.2539   28.3076   48.3886 H   0  0  0  0  0  0  0  0  0  0  0  0
   59.4588   28.2398   48.3886 H   0  0  0  0  0  0  0  0  0  0  0  0
   61.2737   27.9254   46.1747 H   0  0  0  0  0  0  0  0  0  0  0  0
   60.4005   26.3427   46.4757 H   0  0  0  0  0  0  0  0  0  0  0  0
   57.8395   26.4868   46.6357 H   0  0  0  0  0  0  0  0  0  0  0  0
   57.3452   27.2736   45.0984 H   0  0  0  0  0  0  0  0  0  0  0  0
   58.6590   26.0486   45.0984 H   0  0  0  0  0  0  0  0  0  0  0  0
   60.3815   29.3237   44.8374 H   0  0  0  0  0  0  0  0  0  0  0  0
   59.7734   27.9290   43.8667 H   0  0  0  0  0  0  0  0  0  0  0  0
   58.6911   30.2960   43.5062 H   0  0  0  0  0  0  0  0  0  0  0  0
   57.6234   28.8479   43.6464 H   0  0  0  0  0  0  0  0  0  0  0  0
   56.6290   29.8950   45.4160 H   0  0  0  0  0  0  0  0  0  0  0  0
   58.2545   29.3765   47.8761 H   0  0  0  0  0  0  0  0  0  0  0  0
   59.2383   30.8447   49.6688 H   0  0  0  0  0  0  0  0  0  0  0  0
   60.4169   35.6128   48.5933 H   0  0  0  0  0  0  0  0  0  0  0  0
   60.7640   32.4812   50.6979 H   0  0  0  0  0  0  0  0  0  0  0  0
   61.0528   34.2688   50.6917 H   0  0  0  0  0  0  0  0  0  0  0  0
   59.4896   33.7559   52.4730 H   0  0  0  0  0  0  0  0  0  0  0  0
   58.6032   34.5953   51.1314 H   0  0  0  0  0  0  0  0  0  0  0  0
   58.6180   31.8040   50.7950 H   0  0  0  0  0  0  0  0  0  0  0  0
   58.7756   32.0032   53.2972 H   0  0  0  0  0  0  0  0  0  0  0  0
   57.0950   32.6262   53.1709 H   0  0  0  0  0  0  0  0  0  0  0  0
   57.7374   29.9572   53.3495 H   0  0  0  0  0  0  0  0  0  0  0  0
   56.2446   30.5835   52.5674 H   0  0  0  0  0  0  0  0  0  0  0  0
   57.9100   30.8220   50.5690 H   0  0  0  0  0  0  0  0  0  0  0  0
   59.0310   28.6308   52.2146 H   0  0  0  0  0  0  0  0  0  0  0  0
   59.2247   28.7207   50.4284 H   0  0  0  0  0  0  0  0  0  0  0  0
   59.8667   31.3047   51.2156 H   0  0  0  0  0  0  0  0  0  0  0  0
   60.5176   30.3075   52.5754 H   0  0  0  0  0  0  0  0  0  0  0  0
   61.4770   28.9350   50.3920 H   0  0  0  0  0  0  0  0  0  0  0  0
   62.0637   29.7035   53.0640 H   0  0  0  0  0  0  0  0  0  0  0  0
   63.3351   30.1816   55.1447 H   0  0  0  0  0  0  0  0  0  0  0  0
   65.2093   31.8164   55.1122 H   0  0  0  0  0  0  0  0  0  0  0  0
   65.8577   32.9392   52.9954 H   0  0  0  0  0  0  0  0  0  0  0  0
   66.4143   33.4230   51.4943 H   0  0  0  0  0  0  0  0  0  0  0  0
   66.7700   32.5926   49.9416 H   0  0  0  0  0  0  0  0  0  0  0  0
   65.8897   34.1584   49.9416 H   0  0  0  0  0  0  0  0  0  0  0  0
   64.9655   33.8870   48.2756 H   0  0  0  0  0  0  0  0  0  0  0  0
   63.6253   33.4956   46.2228 H   0  0  0  0  0  0  0  0  0  0  0  0
   61.8576   31.7465   46.1907 H   0  0  0  0  0  0  0  0  0  0  0  0
   61.3199   30.4808   48.2636 H   0  0  0  0  0  0  0  0  0  0  0  0
   58.7678   34.9051   43.7667 H   0  0  0  0  0  0  0  0  0  0  0  0
   60.2652   33.9175   44.1283 H   0  0  0  0  0  0  0  0  0  0  0  0
   57.3528   33.2630   44.6673 H   0  0  0  0  0  0  0  0  0  0  0  0
   58.6847   32.2667   43.9028 H   0  0  0  0  0  0  0  0  0  0  0  0
  1  2  1  0
  2  3  1  0
  3  4  1  0
  3  5  1  0
  5  6  1  0
  6  7  1  0
  7  8  1  0
  8  9  2  0
  9 10  1  0
 10 11  2  0
 11 12  1  0
 12 13  1  0
 13 14  2  0
 14 15  1  0
 15 16  1  0
 16 17  1  0
 17 18  1  0
 18 19  1  0
 19 20  1  0
 20 21  1  0
 21 22  1  0
 22 23  1  0
 23 24  1  0
 24 25  1  0
 25 26  1  0
 26 27  2  0
 27 28  1  0
 28 29  2  0
 29 30  1  0
 30 31  2  0
 31 32  1  0
 32 33  1  0
 32 34  2  0
 34 35  1  0
 35 36  2  0
 36 37  1  0
 37 38  2  0
 38 39  1  0
 13 40  1  0
 40 41  2  0
 40 42  1  0
 42 43  1  0
 43 44  1  0
 44  8  1  0
 15 11  1  0
 39 25  2  0
 44 12  2  0
 31 26  1  0
 39 34  1  0
  1 45  1  0
  1 46  1  0
  1 47  1  0
  2 48  1  0
  2 49  1  0
  4 50  1  0
  4 51  1  0
  4 52  1  0
  5 53  1  0
  5 54  1  0
  6 55  1  0
  6 56  1  0
  7 57  1  0
  9 58  1  0
 10 59  1  0
 14 60  1  0
 16 61  1  0
 16 62  1  0
 17 63  1  0
 17 64  1  0
 18 65  1  0
 19 66  1  0
 19 67  1  0
 20 68  1  0
 20 69  1  0
 21 70  1  0
 22 71  1  0
 22 72  1  0
 23 73  1  0
 23 74  1  0
 24 75  1  0
 27 76  1  0
 28 77  1  0
 29 78  1  0
 30 79  1  0
 33 80  1  0
 33 81  1  0
 33 82  1  0
 35 83  1  0
 36 84  1  0
 37 85  1  0
 38 86  1  0
 42 87  1  0
 42 88  1  0
 43 89  1  0
 43 90  1  0
M  CHG  1  32   1
M  END
>  <UniqueID>  (15) 
15

>  <SMILES>  (15) 
CCN(C)CCNc1ccc2c3c(cn2CCNCCNCCNc2c4ccccc4[n+](C)c4ccccc24)C(=O)CCc13

>  <Energy>  (15) 
158.60043162560353

>  <Genealogy>  (15) 
CCN(C)CCNc1ccc2c3c(cn2CCNCCNCCNc2c4ccccc4[n+](C)c4ccccc24)C(=O)CCc13 (3D coordinates assigned)
CCN(C)CCNc1ccc2c3c(cn2CCNCCNCCNc2c4ccccc4[n+](C)c4ccccc24)C(=O)CCc13 (nonaromatic ring conformer: 158.60043162560353 kcal/mol)

>  <smiles>  (15) 
CCN(C)CCNc1ccc2c3c(cn2CCNCCNCCNc2c4ccccc4[n+](C)c4ccccc24)C(=O)CCc13

>  <score_type>  (15) 
oracle

>  <origin>  (15) 
adg

>  <m_score__min__energy>  (15) 
-8.9800000000000004

>  <m_primary>  (15) 
energy

$$$$
15:0
     RDKit          3D

 60 63  0  0  0  0  0  0  0  0999 V2000
   63.4030   33.8510   46.3890 C   0  0  0  0  0  0  0  0  0  0  0  0
   62.9990   33.8390   47.8650 C   0  0  0  0  0  0  0  0  0  0  0  0
   62.8730   32.4810   48.4380 N   0  0  0  0  0  0  0  0  0  0  0  0
   64.1150   31.9600   49.0690 C   0  0  0  0  0  0  0  0  0  0  0  0
   64.9790   33.0140   49.7800 C   0  0  0  0  0  0  0  0  0  0  0  0
   61.6090   32.2570   49.1710 C   0  0  0  0  0  0  0  0  0  0  0  0
   60.9360   30.9440   48.7230 C   0  0  0  0  0  0  0  0  0  0  0  0
   61.0530   30.7290   47.2660 N   0  0  0  0  0  0  0  0  0  0  0  0
   59.7630   30.8280   46.5930 C   0  0  0  0  0  0  0  0  0  0  0  0
   59.2850   32.0800   46.1430 C   0  0  0  0  0  0  0  0  0  0  0  0
   59.6740   33.2850   46.7710 C   0  0  0  0  0  0  0  0  0  0  0  0
   59.2090   34.5120   46.3070 C   0  0  0  0  0  0  0  0  0  0  0  0
   58.3450   34.5670   45.2200 C   0  0  0  0  0  0  0  0  0  0  0  0
   57.9460   33.3930   44.5830 C   0  0  0  0  0  0  0  0  0  0  0  0
   58.4120   32.1290   45.0220 C   0  0  0  0  0  0  0  0  0  0  0  0
   58.0680   30.9630   44.3690 N   0  0  0  0  0  0  0  0  0  0  0  0
   57.3370   31.0140   43.0860 C   0  0  0  0  0  0  0  0  0  0  0  0
   58.3540   29.7460   44.9420 C   0  0  0  0  0  0  0  0  0  0  0  0
   57.9310   28.5970   44.3540 N   0  0  0  0  0  0  0  0  0  0  0  0
   58.1680   27.3810   44.8930 C   0  0  0  0  0  0  0  0  0  0  0  0
   57.7590   26.2300   44.2090 C   0  0  0  0  0  0  0  0  0  0  0  0
   57.9740   24.9570   44.7630 C   0  0  0  0  0  0  0  0  0  0  0  0
   57.5650   23.7700   44.0590 N   0  0  0  0  0  0  0  0  0  0  0  0
   58.2030   22.7040   44.1830 O   0  0  0  0  0  0  0  0  0  0  0  0
   56.4550   23.7870   43.2450 O   0  0  0  0  0  0  0  0  0  0  0  0
   58.5970   24.8590   46.0160 C   0  0  0  0  0  0  0  0  0  0  0  0
   58.9970   26.0060   46.7060 C   0  0  0  0  0  0  0  0  0  0  0  0
   58.7880   27.2900   46.1550 C   0  0  0  0  0  0  0  0  0  0  0  0
   59.1490   28.4470   46.8130 N   0  0  0  0  0  0  0  0  0  0  0  0
   59.3540   28.3980   48.2760 C   0  0  0  0  0  0  0  0  0  0  0  0
   59.0930   29.6590   46.1440 C   0  0  0  0  0  0  0  0  0  0  0  0
   64.4996   33.8836   46.3093 H   0  0  0  0  0  0  0  0  0  0  0  0
   63.0266   32.9413   45.8984 H   0  0  0  0  0  0  0  0  0  0  0  0
   62.9732   34.7368   45.8984 H   0  0  0  0  0  0  0  0  0  0  0  0
   63.7611   34.3878   48.4377 H   0  0  0  0  0  0  0  0  0  0  0  0
   62.0059   34.3075   47.9294 H   0  0  0  0  0  0  0  0  0  0  0  0
   63.8272   31.1996   49.8099 H   0  0  0  0  0  0  0  0  0  0  0  0
   64.7310   31.5628   48.2487 H   0  0  0  0  0  0  0  0  0  0  0  0
   64.8810   32.8944   50.8691 H   0  0  0  0  0  0  0  0  0  0  0  0
   66.0317   32.8815   49.4899 H   0  0  0  0  0  0  0  0  0  0  0  0
   64.6425   34.0203   49.4899 H   0  0  0  0  0  0  0  0  0  0  0  0
   61.8229   32.2022   50.2486 H   0  0  0  0  0  0  0  0  0  0  0  0
   60.9262   33.0921   48.9558 H   0  0  0  0  0  0  0  0  0  0  0  0
   61.4158   30.1032   49.2453 H   0  0  0  0  0  0  0  0  0  0  0  0
   59.8664   31.0096   48.9711 H   0  0  0  0  0  0  0  0  0  0  0  0
   61.4850   29.7960   47.0770 H   0  0  0  0  0  0  0  0  0  0  0  0
   61.7290   31.4440   46.9300 H   0  0  0  0  0  0  0  0  0  0  0  0
   60.3521   33.2527   47.6365 H   0  0  0  0  0  0  0  0  0  0  0  0
   59.5265   35.4414   46.8024 H   0  0  0  0  0  0  0  0  0  0  0  0
   57.9752   35.5389   44.8615 H   0  0  0  0  0  0  0  0  0  0  0  0
   57.2586   33.4488   43.7261 H   0  0  0  0  0  0  0  0  0  0  0  0
   56.2572   31.0893   43.2820 H   0  0  0  0  0  0  0  0  0  0  0  0
   57.6673   31.8913   42.5104 H   0  0  0  0  0  0  0  0  0  0  0  0
   57.5423   30.0994   42.5104 H   0  0  0  0  0  0  0  0  0  0  0  0
   57.2655   26.3231   43.2303 H   0  0  0  0  0  0  0  0  0  0  0  0
   58.7725   23.8681   46.4602 H   0  0  0  0  0  0  0  0  0  0  0  0
   59.4801   25.9083   47.6894 H   0  0  0  0  0  0  0  0  0  0  0  0
   58.4065   28.6245   48.7868 H   0  0  0  0  0  0  0  0  0  0  0  0
   59.6952   27.3930   48.5650 H   0  0  0  0  0  0  0  0  0  0  0  0
   60.1128   29.1401   48.5650 H   0  0  0  0  0  0  0  0  0  0  0  0
  1  2  1  0
  2  3  1  0
  3  4  1  0
  4  5  1  0
  3  6  1  0
  6  7  1  0
  7  8  1  0
  8  9  1  0
  9 10  2  0
 10 11  1  0
 11 12  2  0
 12 13  1  0
 13 14  2  0
 14 15  1  0
 15 16  2  0
 16 17  1  0
 16 18  1  0
 18 19  2  0
 19 20  1  0
 20 21  2  0
 21 22  1  0
 22 23  1  0
 23 24  2  0
 23 25  1  0
 22 26  2  0
 26 27  1  0
 27 28  2  0
 28 29  1  0
 29 30  1  0
 29 31  2  0
 31  9  1  0
 15 10  1  0
 31 18  1  0
 28 20  1  0
  1 32  1  0
  1 33  1  0
  1 34  1  0
  2 35  1  0
  2 36  1  0
  4 37  1  0
  4 38  1  0
  5 39  1  0
  5 40  1  0
  5 41  1  0
  6 42  1  0
  6 43  1  0
  7 44  1  0
  7 45  1  0
  8 46  1  0
  8 47  1  0
 11 48  1  0
 12 49  1  0
 13 50  1  0
 14 51  1  0
 17 52  1  0
 17 53  1  0
 17 54  1  0
 21 55  1  0
 26 56  1  0
 27 57  1  0
 30 58  1  0
 30 59  1  0
 30 60  1  0
M  CHG  5   8   1  16   1  23   1  25  -1  29   1
M  END
>  <UniqueID>  (16) 
16

>  <SMILES>  (16) 
CCN(CC)CC[NH2+]c1c2ccccc2[n+](C)c2nc3cc([N+](=O)[O-])ccc3[n+](C)c12

>  <Energy>  (16) 
113.39533232685162

>  <Genealogy>  (16) 
CCN(CC)CC[NH2+]c1c2ccccc2[n+](C)c2nc3cc([N+](=O)[O-])ccc3[n+](C)c12 (protonated)
CCN(CC)CC[NH2+]c1c2ccccc2[n+](C)c2nc3cc([N+](=O)[O-])ccc3[n+](C)c12 (3D coordinates assigned)
CCN(CC)CC[NH2+]c1c2ccccc2[n+](C)c2nc3cc([N+](=O)[O-])ccc3[n+](C)c12 (optimized conformer: 113.39533232685162 kcal/mol)

>  <smiles>  (16) 
CCN(CC)CCNc1c2ccccc2[n+](C)c2nc3cc([N+](=O)[O-])ccc3[n+](C)c12

>  <score_type>  (16) 
oracle

>  <origin>  (16) 
adg

>  <m_score__min__energy>  (16) 
-3.8399999999999999

>  <m_primary>  (16) 
energy

$$$$
16:0
     RDKit          3D

 61 63  0  0  0  0  0  0  0  0999 V2000
   57.0680   26.8810   46.0040 C   0  0  0  0  0  0  0  0  0  0  0  0
   58.2220   27.8220   46.3690 C   0  0  0  0  0  0  0  0  0  0  0  0
   58.4010   28.9070   45.3660 N   0  0  0  0  0  0  0  0  0  0  0  0
   59.8150   29.3530   45.2620 C   0  0  0  0  0  0  0  0  0  0  0  0
   60.2900   30.2650   46.3970 C   0  0  0  0  0  0  0  0  0  0  0  0
   57.7430   28.6990   44.0350 C   0  0  0  0  0  0  0  0  0  0  0  0
   56.6200   29.6830   43.6410 C   0  0  0  0  0  0  0  0  0  0  0  0
   56.4760   30.6910   44.6160 O   0  0  0  0  0  0  0  0  0  0  0  0
   57.3090   31.7870   44.3070 C   0  0  0  0  0  0  0  0  0  0  0  0
   57.0080   32.9190   45.2890 C   0  0  0  0  0  0  0  0  0  0  0  0
   57.5250   34.2120   44.8090 N   0  0  0  0  0  0  0  0  0  0  0  0
   58.9960   34.2770   44.7370 C   0  0  0  0  0  0  0  0  0  0  0  0
   59.6490   34.2290   46.0990 C   0  0  0  0  0  0  0  0  0  0  0  0
   58.9280   34.6080   47.2430 C   0  0  0  0  0  0  0  0  0  0  0  0
   59.5350   34.5940   48.5000 C   0  0  0  0  0  0  0  0  0  0  0  0
   60.8740   34.2020   48.6330 C   0  0  0  0  0  0  0  0  0  0  0  0
   61.4900   34.1870   49.8930 C   0  0  0  0  0  0  0  0  0  0  0  0
   62.8320   33.7950   50.0210 C   0  0  0  0  0  0  0  0  0  0  0  0
   63.4510   33.7770   51.2790 C   0  0  0  0  0  0  0  0  0  0  0  0
   64.7860   33.3870   51.3990 C   0  0  0  0  0  0  0  0  0  0  0  0
   65.5250   33.0070   50.2730 C   0  0  0  0  0  0  0  0  0  0  0  0
   66.8620   32.6230   50.4550 O   0  0  0  0  0  0  0  0  0  0  0  0
   67.2870   31.5700   51.3140 C   0  0  0  0  0  0  0  0  0  0  0  0
   64.9090   33.0220   49.0070 C   0  0  0  0  0  0  0  0  0  0  0  0
   63.5670   33.4130   48.8750 C   0  0  0  0  0  0  0  0  0  0  0  0
   62.9500   33.4280   47.6150 C   0  0  0  0  0  0  0  0  0  0  0  0
   61.6090   33.8190   47.4860 C   0  0  0  0  0  0  0  0  0  0  0  0
   60.9900   33.8370   46.2260 C   0  0  0  0  0  0  0  0  0  0  0  0
   56.6007   26.4999   46.9240 H   0  0  0  0  0  0  0  0  0  0  0  0
   56.3201   27.4300   45.4131 H   0  0  0  0  0  0  0  0  0  0  0  0
   57.4553   26.0379   45.4131 H   0  0  0  0  0  0  0  0  0  0  0  0
   58.0125   28.2762   47.3487 H   0  0  0  0  0  0  0  0  0  0  0  0
   59.1476   27.2280   46.3930 H   0  0  0  0  0  0  0  0  0  0  0  0
   57.9230   29.7480   45.7750 H   0  0  0  0  0  0  0  0  0  0  0  0
   60.4553   28.4586   45.2520 H   0  0  0  0  0  0  0  0  0  0  0  0
   59.8830   29.9484   44.3396 H   0  0  0  0  0  0  0  0  0  0  0  0
   60.0487   29.8017   47.3650 H   0  0  0  0  0  0  0  0  0  0  0  0
   61.3778   30.4093   46.3206 H   0  0  0  0  0  0  0  0  0  0  0  0
   59.7847   31.2391   46.3206 H   0  0  0  0  0  0  0  0  0  0  0  0
   58.5258   28.7649   43.2650 H   0  0  0  0  0  0  0  0  0  0  0  0
   57.2473   27.7202   44.1139 H   0  0  0  0  0  0  0  0  0  0  0  0
   56.8692   30.1475   42.6755 H   0  0  0  0  0  0  0  0  0  0  0  0
   55.6737   29.1274   43.5643 H   0  0  0  0  0  0  0  0  0  0  0  0
   58.3638   31.4882   44.3976 H   0  0  0  0  0  0  0  0  0  0  0  0
   57.1217   32.1231   43.2765 H   0  0  0  0  0  0  0  0  0  0  0  0
   55.9185   32.9973   45.4189 H   0  0  0  0  0  0  0  0  0  0  0  0
   57.5042   32.6853   46.2425 H   0  0  0  0  0  0  0  0  0  0  0  0
   57.1920   34.9590   45.4620 H   0  0  0  0  0  0  0  0  0  0  0  0
   59.3573   33.4244   44.1432 H   0  0  0  0  0  0  0  0  0  0  0  0
   59.2639   35.2380   44.2736 H   0  0  0  0  0  0  0  0  0  0  0  0
   57.8770   34.9183   47.1478 H   0  0  0  0  0  0  0  0  0  0  0  0
   58.9603   34.8917   49.3894 H   0  0  0  0  0  0  0  0  0  0  0  0
   60.9189   34.4838   50.7851 H   0  0  0  0  0  0  0  0  0  0  0  0
   62.8830   34.0710   52.1739 H   0  0  0  0  0  0  0  0  0  0  0  0
   65.2627   33.3783   52.3903 H   0  0  0  0  0  0  0  0  0  0  0  0
   67.1623   31.8790   52.3623 H   0  0  0  0  0  0  0  0  0  0  0  0
   66.6807   30.6726   51.1217 H   0  0  0  0  0  0  0  0  0  0  0  0
   68.3464   31.3449   51.1217 H   0  0  0  0  0  0  0  0  0  0  0  0
   65.4824   32.7257   48.1163 H   0  0  0  0  0  0  0  0  0  0  0  0
   63.5212   33.1314   46.7230 H   0  0  0  0  0  0  0  0  0  0  0  0
   61.5601   33.5419   45.3327 H   0  0  0  0  0  0  0  0  0  0  0  0
  1  2  1  0
  2  3  1  0
  3  4  1  0
  4  5  1  0
  3  6  1  0
  6  7  1  0
  7  8  1  0
  8  9  1  0
  9 10  1  0
 10 11  1  0
 11 12  1  0
 12 13  1  0
 13 14  2  0
 14 15  1  0
 15 16  2  0
 16 17  1  0
 17 18  2  0
 18 19  1  0
 19 20  2  0
 20 21  1  0
 21 22  1  0
 22 23  1  0
 21 24  2  0
 24 25  1  0
 25 26  2  0
 26 27  1  0
 27 28  2  0
 28 13  1  0
 27 16  1  0
 25 18  1  0
  1 29  1  0
  1 30  1  0
  1 31  1  0
  2 32  1  0
  2 33  1  0
  3 34  1  0
  4 35  1  0
  4 36  1  0
  5 37  1  0
  5 38  1  0
  5 39  1  0
  6 40  1  0
  6 41  1  0
  7 42  1  0
  7 43  1  0
  9 44  1  0
  9 45  1  0
 10 46  1  0
 10 47  1  0
 11 48  1  0
 12 49  1  0
 12 50  1  0
 14 51  1  0
 15 52  1  0
 17 53  1  0
 19 54  1  0
 20 55  1  0
 23 56  1  0
 23 57  1  0
 23 58  1  0
 24 59  1  0
 26 60  1  0
 28 61  1  0
M  CHG  1   3   1
M  END
>  <UniqueID>  (17) 
17

>  <SMILES>  (17) 
CC[NH+](CC)CCOCCNCc1ccc2cc3ccc(OC)cc3cc2c1

>  <Energy>  (17) 
75.68755288332865

>  <Genealogy>  (17) 
CC[NH+](CC)CCOCCNCc1ccc2cc3ccc(OC)cc3cc2c1 (protonated)
CC[NH+](CC)CCOCCNCc1ccc2cc3ccc(OC)cc3cc2c1 (3D coordinates assigned)
CC[NH+](CC)CCOCCNCc1ccc2cc3ccc(OC)cc3cc2c1 (optimized conformer: 75.68755288332865 kcal/mol)

>  <smiles>  (17) 
CCN(CC)CCOCCNCc1ccc2cc3ccc(OC)cc3cc2c1

>  <score_type>  (17) 
oracle

>  <origin>  (17) 
adg

>  <m_score__min__energy>  (17) 
-6.29

>  <m_primary>  (17) 
energy

$$$$
17:0
     RDKit          3D

 59 62  0  0  0  0  0  0  0  0999 V2000
   60.0150   29.0400   44.5070 C   0  0  0  0  0  0  0  0  0  0  0  0
   60.3870   28.4840   45.8790 C   0  0  0  0  0  0  0  0  0  0  0  0
   59.4180   27.4450   46.3060 N   0  0  0  0  0  0  0  0  0  0  0  0
   58.4970   27.0720   45.2010 C   0  0  0  0  0  0  0  0  0  0  0  0
   57.0300   26.9230   45.6320 C   0  0  0  0  0  0  0  0  0  0  0  0
   58.7370   27.8270   47.5700 C   0  0  0  0  0  0  0  0  0  0  0  0
   59.6690   28.4930   48.6010 C   0  0  0  0  0  0  0  0  0  0  0  0
   59.4300   29.9360   48.7040 N   0  0  0  0  0  0  0  0  0  0  0  0
   60.4790   30.8990   48.5100 C   0  0  0  0  0  0  0  0  0  0  0  0
   61.6240   30.9520   49.3510 C   0  0  0  0  0  0  0  0  0  0  0  0
   61.8230   30.0000   50.3730 C   0  0  0  0  0  0  0  0  0  0  0  0
   62.9060   30.0990   51.2440 C   0  0  0  0  0  0  0  0  0  0  0  0
   63.8170   31.1390   51.1110 C   0  0  0  0  0  0  0  0  0  0  0  0
   63.6810   32.0670   50.0780 C   0  0  0  0  0  0  0  0  0  0  0  0
   62.6090   31.9810   49.1530 C   0  0  0  0  0  0  0  0  0  0  0  0
   62.5010   32.8590   48.0820 N   0  0  0  0  0  0  0  0  0  0  0  0
   63.5610   33.8410   47.7790 C   0  0  0  0  0  0  0  0  0  0  0  0
   61.3760   32.8010   47.3030 C   0  0  0  0  0  0  0  0  0  0  0  0
   61.0470   33.6540   46.3010 N   0  0  0  0  0  0  0  0  0  0  0  0
   59.8550   33.2230   45.8460 C   0  0  0  0  0  0  0  0  0  0  0  0
   59.1060   33.7900   44.8200 C   0  0  0  0  0  0  0  0  0  0  0  0
   57.8720   33.2010   44.4950 C   0  0  0  0  0  0  0  0  0  0  0  0
   57.4030   32.0700   45.2090 C   0  0  0  0  0  0  0  0  0  0  0  0
   56.1690   31.4310   44.8560 N   0  0  0  0  0  0  0  0  0  0  0  0
   56.0200   30.1070   44.3300 C   0  0  0  0  0  0  0  0  0  0  0  0
   56.8060   29.6310   43.1470 C   0  0  0  0  0  0  0  0  0  0  0  0
   55.1720   29.3340   44.8490 O   0  0  0  0  0  0  0  0  0  0  0  0
   58.1880   31.5110   46.2360 C   0  0  0  0  0  0  0  0  0  0  0  0
   59.4120   32.1160   46.5420 C   0  0  0  0  0  0  0  0  0  0  0  0
   60.3920   31.8460   47.4870 C   0  0  0  0  0  0  0  0  0  0  0  0
   59.4073   29.9483   44.6319 H   0  0  0  0  0  0  0  0  0  0  0  0
   60.9313   29.2856   43.9502 H   0  0  0  0  0  0  0  0  0  0  0  0
   59.4383   28.2867   43.9502 H   0  0  0  0  0  0  0  0  0  0  0  0
   61.3924   28.0405   45.8281 H   0  0  0  0  0  0  0  0  0  0  0  0
   60.3680   29.3059   46.6098 H   0  0  0  0  0  0  0  0  0  0  0  0
   58.5524   27.8515   44.4269 H   0  0  0  0  0  0  0  0  0  0  0  0
   58.8223   26.0869   44.8352 H   0  0  0  0  0  0  0  0  0  0  0  0
   56.9693   26.9168   46.7303 H   0  0  0  0  0  0  0  0  0  0  0  0
   56.4444   27.7663   45.2372 H   0  0  0  0  0  0  0  0  0  0  0  0
   56.6259   25.9792   45.2372 H   0  0  0  0  0  0  0  0  0  0  0  0
   57.9271   28.5311   47.3287 H   0  0  0  0  0  0  0  0  0  0  0  0
   58.3647   26.8983   48.0271 H   0  0  0  0  0  0  0  0  0  0  0  0
   59.4966   28.0331   49.5852 H   0  0  0  0  0  0  0  0  0  0  0  0
   60.7068   28.3427   48.2687 H   0  0  0  0  0  0  0  0  0  0  0  0
   58.4730   30.2900   48.9320 H   0  0  0  0  0  0  0  0  0  0  0  0
   61.1128   29.1674   50.4838 H   0  0  0  0  0  0  0  0  0  0  0  0
   63.0400   29.3512   52.0395 H   0  0  0  0  0  0  0  0  0  0  0  0
   64.6498   31.2315   51.8236 H   0  0  0  0  0  0  0  0  0  0  0  0
   64.4170   32.8785   49.9793 H   0  0  0  0  0  0  0  0  0  0  0  0
   63.9804   34.2295   48.7188 H   0  0  0  0  0  0  0  0  0  0  0  0
   64.3566   33.3537   47.1962 H   0  0  0  0  0  0  0  0  0  0  0  0
   63.1358   34.6714   47.1962 H   0  0  0  0  0  0  0  0  0  0  0  0
   61.5600   34.4930   45.9510 H   0  0  0  0  0  0  0  0  0  0  0  0
   59.4697   34.6753   44.2778 H   0  0  0  0  0  0  0  0  0  0  0  0
   57.2650   33.6213   43.6796 H   0  0  0  0  0  0  0  0  0  0  0  0
   57.6990   29.0902   43.4936 H   0  0  0  0  0  0  0  0  0  0  0  0
   56.1829   28.9584   42.5393 H   0  0  0  0  0  0  0  0  0  0  0  0
   57.1134   30.4949   42.5393 H   0  0  0  0  0  0  0  0  0  0  0  0
   57.8472   30.6204   46.7843 H   0  0  0  0  0  0  0  0  0  0  0  0
  1  2  1  0
  2  3  1  0
  3  4  1  0
  4  5  1  0
  3  6  1  0
  6  7  1  0
  7  8  1  0
  8  9  1  0
  9 10  2  0
 10 11  1  0
 11 12  2  0
 12 13  1  0
 13 14  2  0
 14 15  1  0
 15 16  2  0
 16 17  1  0
 16 18  1  0
 18 19  1  0
 19 20  1  0
 20 21  2  0
 21 22  1  0
 22 23  2  0
 23 24  1  0
 24 25  1  0
 25 26  1  0
 25 27  2  0
 23 28  1  0
 28 29  2  0
 29 30  1  0
 30  9  1  0
 15 10  1  0
 30 18  2  0
 29 20  1  0
  1 31  1  0
  1 32  1  0
  1 33  1  0
  2 34  1  0
  2 35  1  0
  4 36  1  0
  4 37  1  0
  5 38  1  0
  5 39  1  0
  5 40  1  0
  6 41  1  0
  6 42  1  0
  7 43  1  0
  7 44  1  0
  8 45  1  0
 11 46  1  0
 12 47  1  0
 13 48  1  0
 14 49  1  0
 17 50  1  0
 17 51  1  0
 17 52  1  0
 19 53  1  0
 21 54  1  0
 22 55  1  0
 26 56  1  0
 26 57  1  0
 26 58  1  0
 28 59  1  0
M  CHG  2  16   1  24  -1
M  END
>  <UniqueID>  (18) 
18

>  <SMILES>  (18) 
CCN(CC)CCNc1c2ccccc2[n+](C)c2[nH]c3ccc([N-]C(C)=O)cc3c12

>  <Energy>  (18) 
123.10637861840891

>  <Genealogy>  (18) 
CCN(CC)CCNc1c2ccccc2[n+](C)c2[nH]c3ccc([N-]C(C)=O)cc3c12 (protonated)
CCN(CC)CCNc1c2ccccc2[n+](C)c2[nH]c3ccc([N-]C(C)=O)cc3c12 (3D coordinates assigned)
CCN(CC)CCNc1c2ccccc2[n+](C)c2[nH]c3ccc([N-]C(C)=O)cc3c12 (optimized conformer: 123.10637861840891 kcal/mol)

>  <smiles>  (18) 
CCN(CC)CCNc1c2ccccc2[n+](C)c2[nH]c3ccc(NC(C)=O)cc3c12

>  <score_type>  (18) 
oracle

>  <origin>  (18) 
adg

>  <m_score__min__energy>  (18) 
-8.4000000000000004

>  <m_primary>  (18) 
energy

$$$$
18:0
     RDKit          3D

 50 52  0  0  0  0  0  0  0  0999 V2000
   55.0360   23.6866   46.7528 H   0  0  0  0  0  0  0  0  0  0  0  0
   55.9180   24.3350   46.6450 C   0  0  0  0  0  0  0  0  0  0  0  0
   55.8850   25.6180   46.3670 O   0  0  0  0  0  0  0  0  0  0  0  0
   57.1160   26.0780   46.3120 C   0  0  0  0  0  0  0  0  0  0  0  0
   57.4630   27.4960   46.0190 C   0  0  0  0  0  0  0  0  0  0  0  0
   58.1480   28.2870   46.9680 C   0  0  0  0  0  0  0  0  0  0  0  0
   58.4770   27.7880   48.0800 O   0  0  0  0  0  0  0  0  0  0  0  0
   58.4600   29.5950   46.6840 N   0  0  0  0  0  0  0  0  0  0  0  0
   59.1420   30.4250   47.7000 C   0  0  0  0  0  0  0  0  0  0  0  0
   58.5636   31.3476   47.8559 H   0  0  0  0  0  0  0  0  0  0  0  0
   59.2100   29.8457   48.6326 H   0  0  0  0  0  0  0  0  0  0  0  0
   60.5620   30.7950   47.2560 C   0  0  0  0  0  0  0  0  0  0  0  0
   61.2698   30.0479   47.6443 H   0  0  0  0  0  0  0  0  0  0  0  0
   60.5995   30.8142   46.1568 H   0  0  0  0  0  0  0  0  0  0  0  0
   60.9320   32.1380   47.7760 N   0  0  0  0  0  0  0  0  0  0  0  0
   61.6330   32.9420   46.7480 C   0  0  0  0  0  0  0  0  0  0  0  0
   61.5580   32.4293   45.7777 H   0  0  0  0  0  0  0  0  0  0  0  0
   61.1608   33.9342   46.6975 H   0  0  0  0  0  0  0  0  0  0  0  0
   63.1090   33.1230   47.1050 C   0  0  0  0  0  0  0  0  0  0  0  0
   63.2226   33.1369   48.1990 H   0  0  0  0  0  0  0  0  0  0  0  0
   63.6924   32.2897   46.6864 H   0  0  0  0  0  0  0  0  0  0  0  0
   63.4737   34.0726   46.6864 H   0  0  0  0  0  0  0  0  0  0  0  0
   59.7570   32.8560   48.3200 C   0  0  0  0  0  0  0  0  0  0  0  0
   58.8481   32.5031   47.8108 H   0  0  0  0  0  0  0  0  0  0  0  0
   59.6844   32.6581   49.3996 H   0  0  0  0  0  0  0  0  0  0  0  0
   59.9070   34.3590   48.0990 C   0  0  0  0  0  0  0  0  0  0  0  0
   59.9579   34.8694   49.0721 H   0  0  0  0  0  0  0  0  0  0  0  0
   60.8293   34.5561   47.5328 H   0  0  0  0  0  0  0  0  0  0  0  0
   59.0419   34.7345   47.5328 H   0  0  0  0  0  0  0  0  0  0  0  0
   58.0900   30.1380   45.4800 C   0  0  0  0  0  0  0  0  0  0  0  0
   58.3590   31.4400   45.1820 N   0  0  0  0  0  0  0  0  0  0  0  0
   57.9790   31.9940   44.0020 C   0  0  0  0  0  0  0  0  0  0  0  0
   58.2500   33.2450   43.7700 N   0  0  0  0  0  0  0  0  0  0  0  0
   58.4560   34.2630   44.7990 C   0  0  0  0  0  0  0  0  0  0  0  0
   58.4116   35.2592   44.3346 H   0  0  0  0  0  0  0  0  0  0  0  0
   59.4397   34.1002   45.2636 H   0  0  0  0  0  0  0  0  0  0  0  0
   57.3840   34.1670   45.8790 C   0  0  0  0  0  0  0  0  0  0  0  0
   57.8579   34.2094   46.8708 H   0  0  0  0  0  0  0  0  0  0  0  0
   56.6803   35.0057   45.7727 H   0  0  0  0  0  0  0  0  0  0  0  0
   56.8405   33.2166   45.7727 H   0  0  0  0  0  0  0  0  0  0  0  0
   57.3110   31.2390   43.0870 N   0  0  0  0  0  0  0  0  0  0  0  0
   57.0180   29.9370   43.3300 C   0  0  0  0  0  0  0  0  0  0  0  0
   56.4800   29.3431   42.5765 H   0  0  0  0  0  0  0  0  0  0  0  0
   57.4020   29.3510   44.5420 C   0  0  0  0  0  0  0  0  0  0  0  0
   57.1070   28.0560   44.8270 N   0  0  0  0  0  0  0  0  0  0  0  0
   56.5820   27.4960   44.1190 H   0  0  0  0  0  0  0  0  0  0  0  0
   58.0030   25.0430   46.5670 C   0  0  0  0  0  0  0  0  0  0  0  0
   59.1011   25.1025   46.5931 H   0  0  0  0  0  0  0  0  0  0  0  0
   57.2270   23.9250   46.7810 C   0  0  0  0  0  0  0  0  0  0  0  0
   57.5807   22.9097   47.0135 H   0  0  0  0  0  0  0  0  0  0  0  0
  1  2  1  0
  2  3  1  0
  3  4  1  0
  4  5  1  0
  5  6  1  0
  6  7  2  0
  6  8  1  0
  8  9  1  0
  9 10  1  0
  9 11  1  0
  9 12  1  0
 12 13  1  0
 12 14  1  0
 12 15  1  0
 15 16  1  0
 16 17  1  0
 16 18  1  0
 16 19  1  0
 19 20  1  0
 19 21  1  0
 19 22  1  0
 15 23  1  0
 23 24  1  0
 23 25  1  0
 23 26  1  0
 26 27  1  0
 26 28  1  0
 26 29  1  0
  8 30  1  0
 30 31  2  0
 31 32  1  0
 32 33  2  0
 33 34  1  0
 34 35  1  0
 34 36  1  0
 34 37  1  0
 37 38  1  0
 37 39  1  0
 37 40  1  0
 32 41  1  0
 41 42  1  0
 42 43  1  0
 42 44  2  0
 44 45  1  0
 45 46  1  0
  4 47  2  0
 47 48  1  0
 47 49  1  0
 49 50  1  0
 49  2  2  0
 45  5  2  0
 44 30  1  0
M  CHG  2  41  -1  45   1
M  END
>  <UniqueID>  (19) 
19

>  <SMILES>  (19) 
CC/N=c1/nc2c(c[n-]1)[nH+]c(-c1ccco1)c(=O)n2CCN(CC)CC

>  <Energy>  (19) 
80.77841619957445

>  <Genealogy>  (19) 
CCN=c1nc2c(c[n-]1)[nH+]c(-c1ccco1)c(=O)n2CCN(CC)CC (protonated)
CC/N=c1/nc2c(c[n-]1)[nH+]c(-c1ccco1)c(=O)n2CCN(CC)CC (cis-trans isomerization)
CC/N=c1/nc2c(c[n-]1)[nH+]c(-c1ccco1)c(=O)n2CCN(CC)CC (3D coordinates assigned)
CC/N=c1/nc2c(c[n-]1)[nH+]c(-c1ccco1)c(=O)n2CCN(CC)CC (optimized conformer: 80.77841619957445 kcal/mol)

>  <smiles>  (19) 
CCN=c1nc2c(c[nH]1)nc(-c1ccco1)c(=O)n2CCN(CC)CC

>  <score_type>  (19) 
oracle

>  <origin>  (19) 
adg

>  <m_score__min__energy>  (19) 
-6.7199999999999998

>  <m_primary>  (19) 
energy

$$$$
19:0
     RDKit          3D

 40 41  0  0  0  0  0  0  0  0999 V2000
   58.7470   34.2280   46.3290 C   0  0  0  0  0  0  0  0  0  0  0  0
   58.8580   34.2280   44.8040 C   0  0  0  0  0  0  0  0  0  0  0  0
   57.7200   33.4580   44.1130 C   0  0  0  0  0  0  0  0  0  0  0  0
   58.2080   32.4250   43.0840 C   0  0  0  0  0  0  0  0  0  0  0  0
   57.3250   31.2500   43.0480 N   0  0  0  0  0  0  0  0  0  0  0  0
   56.9470   30.8110   44.4000 C   0  0  0  0  0  0  0  0  0  0  0  0
   58.1800   30.7560   45.3050 C   0  0  0  0  0  0  0  0  0  0  0  0
   58.7980   29.3890   45.3180 C   0  0  0  0  0  0  0  0  0  0  0  0
   60.1570   29.0930   45.2490 C   0  0  0  0  0  0  0  0  0  0  0  0
   60.3540   27.7590   45.3580 N   0  0  0  0  0  0  0  0  0  0  0  0
   59.1340   27.2140   45.5070 C   0  0  0  0  0  0  0  0  0  0  0  0
   58.8280   25.8660   45.6750 C   0  0  0  0  0  0  0  0  0  0  0  0
   57.4770   25.5130   45.8330 C   0  0  0  0  0  0  0  0  0  0  0  0
   56.4610   26.5000   45.8230 C   0  0  0  0  0  0  0  0  0  0  0  0
   55.1320   26.0840   45.9890 O   0  0  0  0  0  0  0  0  0  0  0  0
   54.6190   24.8370   45.5290 C   0  0  0  0  0  0  0  0  0  0  0  0
   56.8110   27.8620   45.6510 C   0  0  0  0  0  0  0  0  0  0  0  0
   58.1600   28.1770   45.4920 C   0  0  0  0  0  0  0  0  0  0  0  0
   58.7204   33.1909   46.6947 H   0  0  0  0  0  0  0  0  0  0  0  0
   59.6162   34.7465   46.7599 H   0  0  0  0  0  0  0  0  0  0  0  0
   57.8246   34.7465   46.6295 H   0  0  0  0  0  0  0  0  0  0  0  0
   58.8388   35.2701   44.4522 H   0  0  0  0  0  0  0  0  0  0  0  0
   59.7994   33.7213   44.5451 H   0  0  0  0  0  0  0  0  0  0  0  0
   57.1385   32.9318   44.8843 H   0  0  0  0  0  0  0  0  0  0  0  0
   57.1180   34.1978   43.5650 H   0  0  0  0  0  0  0  0  0  0  0  0
   58.2248   32.8915   42.0880 H   0  0  0  0  0  0  0  0  0  0  0  0
   59.2157   32.0937   43.3751 H   0  0  0  0  0  0  0  0  0  0  0  0
   57.8560   30.4700   42.5960 H   0  0  0  0  0  0  0  0  0  0  0  0
   56.2190   31.5198   44.8214 H   0  0  0  0  0  0  0  0  0  0  0  0
   56.5030   29.8064   44.3389 H   0  0  0  0  0  0  0  0  0  0  0  0
   58.9232   31.4798   44.9393 H   0  0  0  0  0  0  0  0  0  0  0  0
   57.8641   30.9994   46.3302 H   0  0  0  0  0  0  0  0  0  0  0  0
   60.9566   29.8379   45.1237 H   0  0  0  0  0  0  0  0  0  0  0  0
   61.2710   27.2610   45.3440 H   0  0  0  0  0  0  0  0  0  0  0  0
   59.6189   25.1015   45.6838 H   0  0  0  0  0  0  0  0  0  0  0  0
   57.2047   24.4556   45.9663 H   0  0  0  0  0  0  0  0  0  0  0  0
   54.3596   24.2064   46.3922 H   0  0  0  0  0  0  0  0  0  0  0  0
   53.7201   25.0126   44.9198 H   0  0  0  0  0  0  0  0  0  0  0  0
   55.3813   24.3292   44.9198 H   0  0  0  0  0  0  0  0  0  0  0  0
   56.0413   28.6478   45.6431 H   0  0  0  0  0  0  0  0  0  0  0  0
  1  2  1  0
  2  3  1  0
  3  4  1  0
  4  5  1  0
  5  6  1  0
  6  7  1  0
  7  8  1  0
  8  9  2  0
  9 10  1  0
 10 11  1  0
 11 12  2  0
 12 13  1  0
 13 14  2  0
 14 15  1  0
 15 16  1  0
 14 17  1  0
 17 18  2  0
 18  8  1  0
 18 11  1  0
  1 19  1  0
  1 20  1  0
  1 21  1  0
  2 22  1  0
  2 23  1  0
  3 24  1  0
  3 25  1  0
  4 26  1  0
  4 27  1  0
  5 28  1  0
  6 29  1  0
  6 30  1  0
  7 31  1  0
  7 32  1  0
  9 33  1  0
 10 34  1  0
 12 35  1  0
 13 36  1  0
 16 37  1  0
 16 38  1  0
 16 39  1  0
 17 40  1  0
M  END
>  <UniqueID>  (20) 
20

>  <SMILES>  (20) 
CCCCNCCc1c[nH]c2ccc(OC)cc12

>  <Energy>  (20) 
62.94322057377639

>  <Genealogy>  (20) 
CCCCNCCc1c[nH]c2ccc(OC)cc12 (3D coordinates assigned)
CCCCNCCc1c[nH]c2ccc(OC)cc12 (optimized conformer: 62.94322057377639 kcal/mol)

>  <smiles>  (20) 
CCCCNCCc1c[nH]c2ccc(OC)cc12

>  <score_type>  (20) 
oracle

>  <origin>  (20) 
adg

>  <m_score__min__energy>  (20) 
-6.1699999999999999

>  <m_primary>  (20) 
energy

$$$$
20:0
     RDKit          3D

 35 37  0  0  0  0  0  0  0  0999 V2000
   58.9490   32.1530   47.1740 C   0  0  0  0  0  0  0  0  0  0  0  0
   59.3020   33.4370   46.5700 N   0  0  0  0  0  0  0  0  0  0  0  0
   60.4050   34.1990   46.7700 C   0  0  0  0  0  0  0  0  0  0  0  0
   61.5420   33.8620   47.6540 C   0  0  0  0  0  0  0  0  0  0  0  0
   61.5430   34.2240   49.0110 C   0  0  0  0  0  0  0  0  0  0  0  0
   62.6360   33.9060   49.8250 C   0  0  0  0  0  0  0  0  0  0  0  0
   63.7380   33.2370   49.2890 C   0  0  0  0  0  0  0  0  0  0  0  0
   63.7550   32.8930   47.9350 C   0  0  0  0  0  0  0  0  0  0  0  0
   62.6660   33.2090   47.1180 C   0  0  0  0  0  0  0  0  0  0  0  0
   60.3760   35.3150   46.0120 N   0  0  0  0  0  0  0  0  0  0  0  0
   59.2370   35.2800   45.3390 N   0  0  0  0  0  0  0  0  0  0  0  0
   58.5920   34.1500   45.6720 C   0  0  0  0  0  0  0  0  0  0  0  0
   57.0270   33.6450   44.9480 S   0  0  0  0  0  0  0  0  0  0  0  0
   57.7720   32.4360   43.7960 C   0  0  0  0  0  0  0  0  0  0  0  0
   57.4830   31.0250   44.2280 C   0  0  0  0  0  0  0  0  0  0  0  0
   58.5280   30.1250   44.4850 C   0  0  0  0  0  0  0  0  0  0  0  0
   58.2440   28.8350   44.9350 C   0  0  0  0  0  0  0  0  0  0  0  0
   56.9130   28.4550   45.1240 C   0  0  0  0  0  0  0  0  0  0  0  0
   55.9100   29.3380   44.8730 N   0  0  0  0  0  0  0  0  0  0  0  0
   56.1620   30.6010   44.4360 C   0  0  0  0  0  0  0  0  0  0  0  0
   58.9740   32.2441   48.2699 H   0  0  0  0  0  0  0  0  0  0  0  0
   57.9377   31.8626   46.8532 H   0  0  0  0  0  0  0  0  0  0  0  0
   59.6697   31.3864   46.8532 H   0  0  0  0  0  0  0  0  0  0  0  0
   60.6812   34.7596   49.4357 H   0  0  0  0  0  0  0  0  0  0  0  0
   62.6269   34.1837   50.8893 H   0  0  0  0  0  0  0  0  0  0  0  0
   64.5926   32.9808   49.9325 H   0  0  0  0  0  0  0  0  0  0  0  0
   64.6267   32.3727   47.5114 H   0  0  0  0  0  0  0  0  0  0  0  0
   62.6883   32.9455   46.0503 H   0  0  0  0  0  0  0  0  0  0  0  0
   58.9250   36.0040   44.6560 H   0  0  0  0  0  0  0  0  0  0  0  0
   57.3566   32.5956   42.7901 H   0  0  0  0  0  0  0  0  0  0  0  0
   58.8621   32.5833   43.7929 H   0  0  0  0  0  0  0  0  0  0  0  0
   59.5718   30.4364   44.3317 H   0  0  0  0  0  0  0  0  0  0  0  0
   59.0592   28.1251   45.1387 H   0  0  0  0  0  0  0  0  0  0  0  0
   56.6762   27.4402   45.4763 H   0  0  0  0  0  0  0  0  0  0  0  0
   55.3277   31.2920   44.2451 H   0  0  0  0  0  0  0  0  0  0  0  0
  1  2  1  0
  2  3  1  0
  3  4  1  0
  4  5  2  0
  5  6  1  0
  6  7  2  0
  7  8  1  0
  8  9  2  0
  3 10  2  0
 10 11  1  0
 11 12  2  0
 12 13  1  0
 13 14  1  0
 14 15  1  0
 15 16  2  0
 16 17  1  0
 17 18  2  0
 18 19  1  0
 19 20  2  0
 12  2  1  0
 20 15  1  0
  9  4  1  0
  1 21  1  0
  1 22  1  0
  1 23  1  0
  5 24  1  0
  6 25  1  0
  7 26  1  0
  8 27  1  0
  9 28  1  0
 11 29  1  0
 14 30  1  0
 14 31  1  0
 16 32  1  0
 17 33  1  0
 18 34  1  0
 20 35  1  0
M  CHG  1  11   1
M  END
>  <UniqueID>  (21) 
21

>  <SMILES>  (21) 
Cn1c(-c2ccccc2)n[nH+]c1SCc1cccnc1

>  <Energy>  (21) 
72.18396648218543

>  <Genealogy>  (21) 
Cn1c(-c2ccccc2)n[nH+]c1SCc1cccnc1 (protonated)
Cn1c(-c2ccccc2)n[nH+]c1SCc1cccnc1 (3D coordinates assigned)
Cn1c(-c2ccccc2)n[nH+]c1SCc1cccnc1 (optimized conformer: 72.18396648218543 kcal/mol)

>  <smiles>  (21) 
Cn1c(SCc2cccnc2)nnc1-c1ccccc1

>  <score_type>  (21) 
oracle

>  <origin>  (21) 
adg

>  <m_score__min__energy>  (21) 
-6.4900000000000002

>  <m_primary>  (21) 
energy

$$$$
21:0
     RDKit          3D

 72 75  0  0  0  0  0  0  0  0999 V2000
   56.3360   30.2810   42.9190 C   0  0  0  0  0  0  0  0  0  0  0  0
   55.9280   29.7260   44.2870 C   0  0  0  0  0  0  0  0  0  0  0  0
   56.7590   28.5730   44.6880 N   0  0  0  0  0  0  0  0  0  0  0  0
   57.9440   28.3810   43.8390 C   0  0  0  0  0  0  0  0  0  0  0  0
   59.1400   27.8230   44.6280 C   0  0  0  0  0  0  0  0  0  0  0  0
   59.7450   28.8940   45.5370 C   0  0  0  0  0  0  0  0  0  0  0  0
   58.6870   29.6740   46.1740 N   0  0  0  0  0  0  0  0  0  0  0  0
   59.0050   30.9030   46.8460 C   0  0  0  0  0  0  0  0  0  0  0  0
   58.7950   32.1340   46.2030 C   0  0  0  0  0  0  0  0  0  0  0  0
   58.2700   32.1850   44.8950 C   0  0  0  0  0  0  0  0  0  0  0  0
   58.1160   33.4020   44.2370 C   0  0  0  0  0  0  0  0  0  0  0  0
   58.4830   34.5860   44.8670 C   0  0  0  0  0  0  0  0  0  0  0  0
   58.9820   34.5630   46.1690 C   0  0  0  0  0  0  0  0  0  0  0  0
   59.1130   33.3410   46.8820 C   0  0  0  0  0  0  0  0  0  0  0  0
   59.5470   33.3060   48.1950 N   0  0  0  0  0  0  0  0  0  0  0  0
   59.6060   34.5620   48.9790 C   0  0  0  0  0  0  0  0  0  0  0  0
   59.8930   32.1010   48.7800 C   0  0  0  0  0  0  0  0  0  0  0  0
   60.5790   32.0390   50.0230 C   0  0  0  0  0  0  0  0  0  0  0  0
   60.8660   30.8090   50.6370 C   0  0  0  0  0  0  0  0  0  0  0  0
   61.5100   30.7150   51.8790 O   0  0  0  0  0  0  0  0  0  0  0  0
   62.6660   31.4570   52.2570 C   0  0  0  0  0  0  0  0  0  0  0  0
   63.7960   31.3220   51.2090 C   0  0  0  0  0  0  0  0  0  0  0  0
   64.2080   32.5740   50.4750 N   0  0  0  0  0  0  0  0  0  0  0  0
   65.4170   33.1730   51.1030 C   0  0  0  0  0  0  0  0  0  0  0  0
   63.0820   33.5660   50.6020 C   0  0  0  0  0  0  0  0  0  0  0  0
   63.0160   34.5650   49.4340 C   0  0  0  0  0  0  0  0  0  0  0  0
   62.7540   33.8370   48.1060 C   0  0  0  0  0  0  0  0  0  0  0  0
   63.2860   32.3940   48.1150 C   0  0  0  0  0  0  0  0  0  0  0  0
   64.5130   32.2690   49.0320 C   0  0  0  0  0  0  0  0  0  0  0  0
   60.5060   29.6270   50.0000 C   0  0  0  0  0  0  0  0  0  0  0  0
   59.8830   29.6540   48.7560 C   0  0  0  0  0  0  0  0  0  0  0  0
   59.5820   30.8780   48.1270 C   0  0  0  0  0  0  0  0  0  0  0  0
   56.9823   31.1602   43.0579 H   0  0  0  0  0  0  0  0  0  0  0  0
   56.8830   29.5087   42.3583 H   0  0  0  0  0  0  0  0  0  0  0  0
   55.4357   30.5727   42.3583 H   0  0  0  0  0  0  0  0  0  0  0  0
   56.0373   30.5209   45.0394 H   0  0  0  0  0  0  0  0  0  0  0  0
   54.8848   29.3841   44.2169 H   0  0  0  0  0  0  0  0  0  0  0  0
   56.2060   27.6850   44.7310 H   0  0  0  0  0  0  0  0  0  0  0  0
   57.6917   27.6764   43.0329 H   0  0  0  0  0  0  0  0  0  0  0  0
   58.2336   29.3629   43.4366 H   0  0  0  0  0  0  0  0  0  0  0  0
   58.8011   26.9774   45.2446 H   0  0  0  0  0  0  0  0  0  0  0  0
   59.9090   27.4950   43.9131 H   0  0  0  0  0  0  0  0  0  0  0  0
   60.3557   28.4090   46.3128 H   0  0  0  0  0  0  0  0  0  0  0  0
   60.3703   29.5663   44.9312 H   0  0  0  0  0  0  0  0  0  0  0  0
   57.8170   29.1780   46.4710 H   0  0  0  0  0  0  0  0  0  0  0  0
   57.9789   31.2526   44.3891 H   0  0  0  0  0  0  0  0  0  0  0  0
   57.7035   33.4271   43.2176 H   0  0  0  0  0  0  0  0  0  0  0  0
   58.3794   35.5441   44.3366 H   0  0  0  0  0  0  0  0  0  0  0  0
   59.2789   35.5058   46.6516 H   0  0  0  0  0  0  0  0  0  0  0  0
   59.5949   34.3247   50.0530 H   0  0  0  0  0  0  0  0  0  0  0  0
   60.5306   35.1047   48.7330 H   0  0  0  0  0  0  0  0  0  0  0  0
   58.7363   35.1890   48.7330 H   0  0  0  0  0  0  0  0  0  0  0  0
   60.8913   32.9726   50.5138 H   0  0  0  0  0  0  0  0  0  0  0  0
   62.3934   32.5183   52.3536 H   0  0  0  0  0  0  0  0  0  0  0  0
   63.0340   31.0578   53.2137 H   0  0  0  0  0  0  0  0  0  0  0  0
   64.6850   30.9353   51.7287 H   0  0  0  0  0  0  0  0  0  0  0  0
   63.3853   30.6599   50.4325 H   0  0  0  0  0  0  0  0  0  0  0  0
   65.3227   33.1263   52.1980 H   0  0  0  0  0  0  0  0  0  0  0  0
   66.3097   32.6129   50.7876 H   0  0  0  0  0  0  0  0  0  0  0  0
   65.5122   34.2225   50.7876 H   0  0  0  0  0  0  0  0  0  0  0  0
   62.1322   33.0127   50.6422 H   0  0  0  0  0  0  0  0  0  0  0  0
   63.2622   34.1476   51.5181 H   0  0  0  0  0  0  0  0  0  0  0  0
   62.2025   35.2821   49.6185 H   0  0  0  0  0  0  0  0  0  0  0  0
   63.9806   35.0891   49.3640 H   0  0  0  0  0  0  0  0  0  0  0  0
   61.6694   33.8128   47.9242 H   0  0  0  0  0  0  0  0  0  0  0  0
   63.2829   34.3851   47.3124 H   0  0  0  0  0  0  0  0  0  0  0  0
   62.4952   31.7206   48.4773 H   0  0  0  0  0  0  0  0  0  0  0  0
   63.5824   32.1217   47.0913 H   0  0  0  0  0  0  0  0  0  0  0  0
   64.8960   31.2400   48.9654 H   0  0  0  0  0  0  0  0  0  0  0  0
   65.2531   33.0078   48.6908 H   0  0  0  0  0  0  0  0  0  0  0  0
   60.7155   28.6615   50.4837 H   0  0  0  0  0  0  0  0  0  0  0  0
   59.6225   28.7084   48.2579 H   0  0  0  0  0  0  0  0  0  0  0  0
  1  2  1  0
  2  3  1  0
  3  4  1  0
  4  5  1  0
  5  6  1  0
  6  7  1  0
  7  8  1  0
  8  9  2  0
  9 10  1  0
 10 11  2  0
 11 12  1  0
 12 13  2  0
 13 14  1  0
 14 15  2  0
 15 16  1  0
 15 17  1  0
 17 18  2  0
 18 19  1  0
 19 20  1  0
 20 21  1  0
 21 22  1  0
 22 23  1  0
 23 24  1  0
 23 25  1  0
 25 26  1  0
 26 27  1  0
 27 28  1  0
 28 29  1  0
 19 30  2  0
 30 31  1  0
 31 32  2  0
 32  8  1  0
 14  9  1  0
 32 17  1  0
 29 23  1  0
  1 33  1  0
  1 34  1  0
  1 35  1  0
  2 36  1  0
  2 37  1  0
  3 38  1  0
  4 39  1  0
  4 40  1  0
  5 41  1  0
  5 42  1  0
  6 43  1  0
  6 44  1  0
  7 45  1  0
 10 46  1  0
 11 47  1  0
 12 48  1  0
 13 49  1  0
 16 50  1  0
 16 51  1  0
 16 52  1  0
 18 53  1  0
 21 54  1  0
 21 55  1  0
 22 56  1  0
 22 57  1  0
 24 58  1  0
 24 59  1  0
 24 60  1  0
 25 61  1  0
 25 62  1  0
 26 63  1  0
 26 64  1  0
 27 65  1  0
 27 66  1  0
 28 67  1  0
 28 68  1  0
 29 69  1  0
 29 70  1  0
 30 71  1  0
 31 72  1  0
M  CHG  2  15   1  23   1
M  END
>  <UniqueID>  (22) 
22

>  <SMILES>  (22) 
CCNCCCNc1c2ccccc2[n+](C)c2cc(OCC[N+]3(C)CCCCC3)ccc12

>  <Energy>  (22) 
115.09390150671662

>  <Genealogy>  (22) 
CCNCCCNc1c2ccccc2[n+](C)c2cc(OCC[N+]3(C)CCCCC3)ccc12 (3D coordinates assigned)
CCNCCCNc1c2ccccc2[n+](C)c2cc(OCC[N+]3(C)CCCCC3)ccc12 (nonaromatic ring conformer: 115.09390150671662 kcal/mol)

>  <smiles>  (22) 
CCNCCCNc1c2ccccc2[n+](C)c2cc(OCC[N+]3(C)CCCCC3)ccc12

>  <score_type>  (22) 
oracle

>  <origin>  (22) 
adg

>  <m_score__min__energy>  (22) 
-6.04

>  <m_primary>  (22) 
energy

$$$$
22:0
     RDKit          3D

 73 76  0  0  0  0  0  0  0  0999 V2000
   62.7000   33.5800   46.7560 C   0  0  0  0  0  0  0  0  0  0  0  0
   63.3430   32.4190   47.4970 C   0  0  0  0  0  0  0  0  0  0  0  0
   62.4000   31.8540   48.3850 O   0  0  0  0  0  0  0  0  0  0  0  0
   63.0150   31.5180   49.6140 C   0  0  0  0  0  0  0  0  0  0  0  0
   62.2080   30.4380   50.3400 C   0  0  0  0  0  0  0  0  0  0  0  0
   61.5220   29.6260   49.4050 O   0  0  0  0  0  0  0  0  0  0  0  0
   60.2520   29.2510   49.8990 C   0  0  0  0  0  0  0  0  0  0  0  0
   59.1870   29.6190   48.8690 C   0  0  0  0  0  0  0  0  0  0  0  0
   59.7370   30.4970   47.8330 N   0  0  0  0  0  0  0  0  0  0  0  0
   59.0600   30.6940   46.5810 C   0  0  0  0  0  0  0  0  0  0  0  0
   58.6340   29.5710   45.8410 C   0  0  0  0  0  0  0  0  0  0  0  0
   58.7790   28.2640   46.3560 C   0  0  0  0  0  0  0  0  0  0  0  0
   58.3590   27.1560   45.6230 C   0  0  0  0  0  0  0  0  0  0  0  0
   57.7590   27.3300   44.3830 C   0  0  0  0  0  0  0  0  0  0  0  0
   57.5710   28.6120   43.8690 C   0  0  0  0  0  0  0  0  0  0  0  0
   58.0120   29.7580   44.5810 C   0  0  0  0  0  0  0  0  0  0  0  0
   57.8060   31.0330   44.0950 N   0  0  0  0  0  0  0  0  0  0  0  0
   57.4090   31.2340   42.6840 C   0  0  0  0  0  0  0  0  0  0  0  0
   57.9660   32.1220   44.9290 C   0  0  0  0  0  0  0  0  0  0  0  0
   57.3990   33.3760   44.6030 C   0  0  0  0  0  0  0  0  0  0  0  0
   57.5640   34.4760   45.4340 C   0  0  0  0  0  0  0  0  0  0  0  0
   58.3370   34.3750   46.5800 C   0  0  0  0  0  0  0  0  0  0  0  0
   58.9520   33.1610   46.9300 C   0  0  0  0  0  0  0  0  0  0  0  0
   59.8380   33.0920   48.0200 O   0  0  0  0  0  0  0  0  0  0  0  0
   60.0560   34.0980   49.0110 C   0  0  0  0  0  0  0  0  0  0  0  0
   60.5500   33.5460   50.3800 C   0  0  0  0  0  0  0  0  0  0  0  0
   59.4980   33.0460   51.3260 N   0  0  0  0  0  0  0  0  0  0  0  0
   58.8780   34.2050   52.0250 C   0  0  0  0  0  0  0  0  0  0  0  0
   60.0820   32.0730   52.3000 C   0  0  0  0  0  0  0  0  0  0  0  0
   59.0670   31.0360   52.8240 C   0  0  0  0  0  0  0  0  0  0  0  0
   57.7480   31.5190   52.7300 O   0  0  0  0  0  0  0  0  0  0  0  0
   57.3790   31.6460   51.3700 C   0  0  0  0  0  0  0  0  0  0  0  0
   58.4520   32.3630   50.5090 C   0  0  0  0  0  0  0  0  0  0  0  0
   58.6780   31.9930   46.1570 C   0  0  0  0  0  0  0  0  0  0  0  0
   62.2999   34.3023   47.4828 H   0  0  0  0  0  0  0  0  0  0  0  0
   63.4531   34.0741   46.1245 H   0  0  0  0  0  0  0  0  0  0  0  0
   61.8817   33.2038   46.1245 H   0  0  0  0  0  0  0  0  0  0  0  0
   63.6698   31.6571   46.7740 H   0  0  0  0  0  0  0  0  0  0  0  0
   64.2139   32.7798   48.0639 H   0  0  0  0  0  0  0  0  0  0  0  0
   64.0303   31.1420   49.4198 H   0  0  0  0  0  0  0  0  0  0  0  0
   63.0579   32.4162   50.2476 H   0  0  0  0  0  0  0  0  0  0  0  0
   62.8909   29.8115   50.9326 H   0  0  0  0  0  0  0  0  0  0  0  0
   61.4735   30.9228   50.9999 H   0  0  0  0  0  0  0  0  0  0  0  0
   60.2321   28.1658   50.0779 H   0  0  0  0  0  0  0  0  0  0  0  0
   60.0515   29.7775   50.8438 H   0  0  0  0  0  0  0  0  0  0  0  0
   58.8099   28.6994   48.3977 H   0  0  0  0  0  0  0  0  0  0  0  0
   58.3731   30.1516   49.3827 H   0  0  0  0  0  0  0  0  0  0  0  0
   60.6670   30.9570   47.9700 H   0  0  0  0  0  0  0  0  0  0  0  0
   59.2295   28.1188   47.3490 H   0  0  0  0  0  0  0  0  0  0  0  0
   58.5028   26.1430   46.0269 H   0  0  0  0  0  0  0  0  0  0  0  0
   57.4311   26.4537   43.8046 H   0  0  0  0  0  0  0  0  0  0  0  0
   57.0730   28.7375   42.8962 H   0  0  0  0  0  0  0  0  0  0  0  0
   56.4282   31.7306   42.6462 H   0  0  0  0  0  0  0  0  0  0  0  0
   58.1575   31.8617   42.1783 H   0  0  0  0  0  0  0  0  0  0  0  0
   57.3461   30.2591   42.1783 H   0  0  0  0  0  0  0  0  0  0  0  0
   56.8174   33.4816   43.6753 H   0  0  0  0  0  0  0  0  0  0  0  0
   57.0796   35.4309   45.1820 H   0  0  0  0  0  0  0  0  0  0  0  0
   58.4708   35.2567   47.2240 H   0  0  0  0  0  0  0  0  0  0  0  0
   60.8112   34.8008   48.6293 H   0  0  0  0  0  0  0  0  0  0  0  0
   59.0833   34.5776   49.1951 H   0  0  0  0  0  0  0  0  0  0  0  0
   61.2367   32.7116   50.1744 H   0  0  0  0  0  0  0  0  0  0  0  0
   61.0099   34.4061   50.8887 H   0  0  0  0  0  0  0  0  0  0  0  0
   58.9550   34.0611   53.1128 H   0  0  0  0  0  0  0  0  0  0  0  0
   59.4024   35.1288   51.7393 H   0  0  0  0  0  0  0  0  0  0  0  0
   57.8185   34.2815   51.7393 H   0  0  0  0  0  0  0  0  0  0  0  0
   60.9033   31.5352   51.8037 H   0  0  0  0  0  0  0  0  0  0  0  0
   60.4256   32.6541   53.1685 H   0  0  0  0  0  0  0  0  0  0  0  0
   59.1549   30.1156   52.2281 H   0  0  0  0  0  0  0  0  0  0  0  0
   59.2893   30.8367   53.8827 H   0  0  0  0  0  0  0  0  0  0  0  0
   57.2148   30.6398   50.9571 H   0  0  0  0  0  0  0  0  0  0  0  0
   56.4678   32.2613   51.3350 H   0  0  0  0  0  0  0  0  0  0  0  0
   58.9417   31.6162   49.8667 H   0  0  0  0  0  0  0  0  0  0  0  0
   57.9372   33.1375   49.9215 H   0  0  0  0  0  0  0  0  0  0  0  0
  1  2  1  0
  2  3  1  0
  3  4  1  0
  4  5  1  0
  5  6  1  0
  6  7  1  0
  7  8  1  0
  8  9  1  0
  9 10  1  0
 10 11  2  0
 11 12  1  0
 12 13  2  0
 13 14  1  0
 14 15  2  0
 15 16  1  0
 16 17  2  0
 17 18  1  0
 17 19  1  0
 19 20  2  0
 20 21  1  0
 21 22  2  0
 22 23  1  0
 23 24  1  0
 24 25  1  0
 25 26  1  0
 26 27  1  0
 27 28  1  0
 27 29  1  0
 29 30  1  0
 30 31  1  0
 31 32  1  0
 32 33  1  0
 23 34  2  0
 34 10  1  0
 16 11  1  0
 34 19  1  0
 33 27  1  0
  1 35  1  0
  1 36  1  0
  1 37  1  0
  2 38  1  0
  2 39  1  0
  4 40  1  0
  4 41  1  0
  5 42  1  0
  5 43  1  0
  7 44  1  0
  7 45  1  0
  8 46  1  0
  8 47  1  0
  9 48  1  0
 12 49  1  0
 13 50  1  0
 14 51  1  0
 15 52  1  0
 18 53  1  0
 18 54  1  0
 18 55  1  0
 20 56  1  0
 21 57  1  0
 22 58  1  0
 25 59  1  0
 25 60  1  0
 26 61  1  0
 26 62  1  0
 28 63  1  0
 28 64  1  0
 28 65  1  0
 29 66  1  0
 29 67  1  0
 30 68  1  0
 30 69  1  0
 32 70  1  0
 32 71  1  0
 33 72  1  0
 33 73  1  0
M  CHG  2  17   1  27   1
M  END
>  <UniqueID>  (23) 
23

>  <SMILES>  (23) 
CCOCCOCCNc1c2ccccc2[n+](C)c2cccc(OCC[N+]3(C)CCOCC3)c12

>  <Energy>  (23) 
122.12549783228356

>  <Genealogy>  (23) 
CCOCCOCCNc1c2ccccc2[n+](C)c2cccc(OCC[N+]3(C)CCOCC3)c12 (3D coordinates assigned)
CCOCCOCCNc1c2ccccc2[n+](C)c2cccc(OCC[N+]3(C)CCOCC3)c12 (nonaromatic ring conformer: 122.12549783228356 kcal/mol)

>  <smiles>  (23) 
CCOCCOCCNc1c2ccccc2[n+](C)c2cccc(OCC[N+]3(C)CCOCC3)c12

>  <score_type>  (23) 
oracle

>  <origin>  (23) 
adg

>  <m_score__min__energy>  (23) 
-4.2400000000000002

>  <m_primary>  (23) 
energy

$$$$
23:0
     RDKit          3D

 65 67  0  0  0  0  0  0  0  0999 V2000
   61.4530   29.3990   50.6390 C   0  0  0  0  0  0  0  0  0  0  0  0
   60.6070   30.5770   51.1380 C   0  0  0  0  0  0  0  0  0  0  0  0
   59.5870   31.0410   50.1700 N   0  0  0  0  0  0  0  0  0  0  0  0
   58.7180   29.9440   49.7040 C   0  0  0  0  0  0  0  0  0  0  0  0
   58.8090   32.1960   50.6730 C   0  0  0  0  0  0  0  0  0  0  0  0
   59.6400   33.4890   50.6460 C   0  0  0  0  0  0  0  0  0  0  0  0
   60.7590   33.3640   49.7870 O   0  0  0  0  0  0  0  0  0  0  0  0
   61.9070   33.9460   50.3680 C   0  0  0  0  0  0  0  0  0  0  0  0
   63.0490   33.9110   49.3560 C   0  0  0  0  0  0  0  0  0  0  0  0
   62.5250   33.6810   48.0590 O   0  0  0  0  0  0  0  0  0  0  0  0
   63.2420   32.6570   47.3980 C   0  0  0  0  0  0  0  0  0  0  0  0
   62.4190   31.3670   47.4010 C   0  0  0  0  0  0  0  0  0  0  0  0
   61.0620   31.5490   47.9600 N   0  0  0  0  0  0  0  0  0  0  0  0
   60.0290   31.4840   46.9340 C   0  0  0  0  0  0  0  0  0  0  0  0
   59.3290   32.6470   46.5150 C   0  0  0  0  0  0  0  0  0  0  0  0
   58.4290   32.5690   45.4300 C   0  0  0  0  0  0  0  0  0  0  0  0
   58.0710   31.3510   44.8990 N   0  0  0  0  0  0  0  0  0  0  0  0
   56.8960   31.2580   44.0050 C   0  0  0  0  0  0  0  0  0  0  0  0
   58.7890   30.2180   45.2240 C   0  0  0  0  0  0  0  0  0  0  0  0
   58.6030   29.0020   44.5140 C   0  0  0  0  0  0  0  0  0  0  0  0
   59.2820   27.8420   44.8840 C   0  0  0  0  0  0  0  0  0  0  0  0
   60.1670   27.8620   45.9520 C   0  0  0  0  0  0  0  0  0  0  0  0
   60.4080   29.0500   46.6390 C   0  0  0  0  0  0  0  0  0  0  0  0
   59.7530   30.2540   46.2730 C   0  0  0  0  0  0  0  0  0  0  0  0
   57.8650   33.8780   44.8940 C   0  0  0  0  0  0  0  0  0  0  0  0
   58.9460   34.9690   44.8720 C   0  0  0  0  0  0  0  0  0  0  0  0
   59.6870   35.1290   46.2170 C   0  0  0  0  0  0  0  0  0  0  0  0
   59.4150   33.9960   47.2150 C   0  0  0  0  0  0  0  0  0  0  0  0
   61.8521   28.8433   51.5004 H   0  0  0  0  0  0  0  0  0  0  0  0
   60.8273   28.7305   50.0294 H   0  0  0  0  0  0  0  0  0  0  0  0
   62.2863   29.7783   50.0294 H   0  0  0  0  0  0  0  0  0  0  0  0
   60.0929   30.2672   52.0598 H   0  0  0  0  0  0  0  0  0  0  0  0
   61.2975   31.4180   51.2991 H   0  0  0  0  0  0  0  0  0  0  0  0
   58.2985   29.4145   50.5721 H   0  0  0  0  0  0  0  0  0  0  0  0
   57.8997   30.3574   49.0962 H   0  0  0  0  0  0  0  0  0  0  0  0
   59.3077   29.2420   49.0962 H   0  0  0  0  0  0  0  0  0  0  0  0
   57.9187   32.3299   50.0410 H   0  0  0  0  0  0  0  0  0  0  0  0
   58.5220   31.9916   51.7150 H   0  0  0  0  0  0  0  0  0  0  0  0
   59.0062   34.3149   50.2908 H   0  0  0  0  0  0  0  0  0  0  0  0
   60.0048   33.6884   51.6644 H   0  0  0  0  0  0  0  0  0  0  0  0
   61.6917   34.9885   50.6451 H   0  0  0  0  0  0  0  0  0  0  0  0
   62.1924   33.3841   51.2696 H   0  0  0  0  0  0  0  0  0  0  0  0
   63.5815   34.8734   49.3708 H   0  0  0  0  0  0  0  0  0  0  0  0
   63.7463   33.1017   49.6183 H   0  0  0  0  0  0  0  0  0  0  0  0
   63.4410   32.9614   46.3599 H   0  0  0  0  0  0  0  0  0  0  0  0
   64.1941   32.4830   47.9207 H   0  0  0  0  0  0  0  0  0  0  0  0
   62.3263   31.0079   46.3654 H   0  0  0  0  0  0  0  0  0  0  0  0
   62.9443   30.6429   48.0411 H   0  0  0  0  0  0  0  0  0  0  0  0
   60.8810   30.9010   48.7530 H   0  0  0  0  0  0  0  0  0  0  0  0
   61.0060   32.4790   48.4360 H   0  0  0  0  0  0  0  0  0  0  0  0
   55.9800   31.1855   44.6097 H   0  0  0  0  0  0  0  0  0  0  0  0
   56.8463   32.1550   43.3703 H   0  0  0  0  0  0  0  0  0  0  0  0
   56.9880   30.3643   43.3703 H   0  0  0  0  0  0  0  0  0  0  0  0
   57.9121   28.9751   43.6585 H   0  0  0  0  0  0  0  0  0  0  0  0
   59.1155   26.9080   44.3273 H   0  0  0  0  0  0  0  0  0  0  0  0
   60.6797   26.9379   46.2572 H   0  0  0  0  0  0  0  0  0  0  0  0
   61.1180   29.0544   47.4792 H   0  0  0  0  0  0  0  0  0  0  0  0
   57.4928   33.7184   43.8713 H   0  0  0  0  0  0  0  0  0  0  0  0
   57.0469   34.2054   45.5524 H   0  0  0  0  0  0  0  0  0  0  0  0
   59.6831   34.7132   44.0967 H   0  0  0  0  0  0  0  0  0  0  0  0
   58.4386   35.9231   44.6667 H   0  0  0  0  0  0  0  0  0  0  0  0
   60.7679   35.1609   46.0153 H   0  0  0  0  0  0  0  0  0  0  0  0
   59.3159   36.0564   46.6777 H   0  0  0  0  0  0  0  0  0  0  0  0
   60.2308   33.9651   47.9523 H   0  0  0  0  0  0  0  0  0  0  0  0
   58.4510   34.1925   47.7070 H   0  0  0  0  0  0  0  0  0  0  0  0
  1  2  1  0
  2  3  1  0
  3  4  1  0
  3  5  1  0
  5  6  1  0
  6  7  1  0
  7  8  1  0
  8  9  1  0
  9 10  1  0
 10 11  1  0
 11 12  1  0
 12 13  1  0
 13 14  1  0
 14 15  2  0
 15 16  1  0
 16 17  2  0
 17 18  1  0
 17 19  1  0
 19 20  2  0
 20 21  1  0
 21 22  2  0
 22 23  1  0
 23 24  2  0
 16 25  1  0
 25 26  1  0
 26 27  1  0
 27 28  1  0
 24 14  1  0
 28 15  1  0
 24 19  1  0
  1 29  1  0
  1 30  1  0
  1 31  1  0
  2 32  1  0
  2 33  1  0
  4 34  1  0
  4 35  1  0
  4 36  1  0
  5 37  1  0
  5 38  1  0
  6 39  1  0
  6 40  1  0
  8 41  1  0
  8 42  1  0
  9 43  1  0
  9 44  1  0
 11 45  1  0
 11 46  1  0
 12 47  1  0
 12 48  1  0
 13 49  1  0
 13 50  1  0
 18 51  1  0
 18 52  1  0
 18 53  1  0
 20 54  1  0
 21 55  1  0
 22 56  1  0
 23 57  1  0
 25 58  1  0
 25 59  1  0
 26 60  1  0
 26 61  1  0
 27 62  1  0
 27 63  1  0
 28 64  1  0
 28 65  1  0
M  CHG  2  13   1  17   1
M  END
>  <UniqueID>  (24) 
24

>  <SMILES>  (24) 
CCN(C)CCOCCOCC[NH2+]c1c2c([n+](C)c3ccccc13)CCCC2

>  <Energy>  (24) 
94.33284160254625

>  <Genealogy>  (24) 
CCN(C)CCOCCOCC[NH2+]c1c2c([n+](C)c3ccccc13)CCCC2 (protonated)
CCN(C)CCOCCOCC[NH2+]c1c2c([n+](C)c3ccccc13)CCCC2 (3D coordinates assigned)
CCN(C)CCOCCOCC[NH2+]c1c2c([n+](C)c3ccccc13)CCCC2 (nonaromatic ring conformer: 94.33284160254625 kcal/mol)

>  <smiles>  (24) 
CCN(C)CCOCCOCCNc1c2c([n+](C)c3ccccc13)CCCC2

>  <score_type>  (24) 
oracle

>  <origin>  (24) 
adg

>  <m_score__min__energy>  (24) 
-3.71

>  <m_primary>  (24) 
energy

$$$$
24:0
     RDKit          3D

 78 81  0  0  0  0  0  0  0  0999 V2000
   60.7250   28.9620   45.1510 C   0  0  0  0  0  0  0  0  0  0  0  0
   60.6620   30.0640   46.2040 C   0  0  0  0  0  0  0  0  0  0  0  0
   59.2510   30.3840   46.5320 N   0  0  0  0  0  0  0  0  0  0  0  0
   58.3280   29.9250   45.4670 C   0  0  0  0  0  0  0  0  0  0  0  0
   57.8010   31.0840   44.6200 C   0  0  0  0  0  0  0  0  0  0  0  0
   58.8730   29.9450   47.9000 C   0  0  0  0  0  0  0  0  0  0  0  0
   59.9510   29.1270   48.6340 C   0  0  0  0  0  0  0  0  0  0  0  0
   60.3810   29.8220   49.7870 O   0  0  0  0  0  0  0  0  0  0  0  0
   60.2520   29.0050   50.9360 C   0  0  0  0  0  0  0  0  0  0  0  0
   59.1930   29.5830   51.8790 C   0  0  0  0  0  0  0  0  0  0  0  0
   58.0230   29.9270   51.1600 O   0  0  0  0  0  0  0  0  0  0  0  0
   56.9190   30.1180   52.0300 C   0  0  0  0  0  0  0  0  0  0  0  0
   56.4880   31.5830   52.0300 C   0  0  0  0  0  0  0  0  0  0  0  0
   57.4010   32.3420   51.2700 O   0  0  0  0  0  0  0  0  0  0  0  0
   58.2170   33.1100   52.1280 C   0  0  0  0  0  0  0  0  0  0  0  0
   59.5960   33.2840   51.4920 C   0  0  0  0  0  0  0  0  0  0  0  0
   59.7630   32.3940   50.3430 N   0  0  0  0  0  0  0  0  0  0  0  0
   60.6010   32.7730   49.2450 C   0  0  0  0  0  0  0  0  0  0  0  0
   60.0660   33.2770   48.0380 C   0  0  0  0  0  0  0  0  0  0  0  0
   58.6760   33.4480   47.8820 C   0  0  0  0  0  0  0  0  0  0  0  0
   58.1430   33.8700   46.6660 C   0  0  0  0  0  0  0  0  0  0  0  0
   58.9830   34.1450   45.5920 C   0  0  0  0  0  0  0  0  0  0  0  0
   60.3640   34.0160   45.7250 C   0  0  0  0  0  0  0  0  0  0  0  0
   60.9450   33.6030   46.9500 C   0  0  0  0  0  0  0  0  0  0  0  0
   62.3210   33.4880   47.1010 N   0  0  0  0  0  0  0  0  0  0  0  0
   63.2510   33.8970   46.0320 C   0  0  0  0  0  0  0  0  0  0  0  0
   62.8040   32.9540   48.2690 C   0  0  0  0  0  0  0  0  0  0  0  0
   64.0970   32.6310   48.5360 N   0  0  0  0  0  0  0  0  0  0  0  0
   64.0750   32.0870   49.7690 C   0  0  0  0  0  0  0  0  0  0  0  0
   65.1590   31.5550   50.4640 C   0  0  0  0  0  0  0  0  0  0  0  0
   64.9200   30.9780   51.7230 C   0  0  0  0  0  0  0  0  0  0  0  0
   63.6140   30.9320   52.2640 C   0  0  0  0  0  0  0  0  0  0  0  0
   63.4380   30.3210   53.5150 O   0  0  0  0  0  0  0  0  0  0  0  0
   62.3270   30.5580   54.3740 C   0  0  0  0  0  0  0  0  0  0  0  0
   62.5340   31.4840   51.5360 C   0  0  0  0  0  0  0  0  0  0  0  0
   62.8000   32.0550   50.2890 C   0  0  0  0  0  0  0  0  0  0  0  0
   61.9800   32.6110   49.3220 C   0  0  0  0  0  0  0  0  0  0  0  0
   60.7810   27.9824   45.6483 H   0  0  0  0  0  0  0  0  0  0  0  0
   59.8230   29.0032   44.5227 H   0  0  0  0  0  0  0  0  0  0  0  0
   61.6164   29.1057   44.5227 H   0  0  0  0  0  0  0  0  0  0  0  0
   61.1782   29.7256   47.1145 H   0  0  0  0  0  0  0  0  0  0  0  0
   61.1500   30.9662   45.8068 H   0  0  0  0  0  0  0  0  0  0  0  0
   58.8644   29.2228   44.8119 H   0  0  0  0  0  0  0  0  0  0  0  0
   57.4667   29.4422   45.9517 H   0  0  0  0  0  0  0  0  0  0  0  0
   57.4369   31.8848   45.2804 H   0  0  0  0  0  0  0  0  0  0  0  0
   58.6111   31.4722   43.9852 H   0  0  0  0  0  0  0  0  0  0  0  0
   56.9759   30.7287   43.9852 H   0  0  0  0  0  0  0  0  0  0  0  0
   58.6555   30.8412   48.4996 H   0  0  0  0  0  0  0  0  0  0  0  0
   58.0041   29.2805   47.7840 H   0  0  0  0  0  0  0  0  0  0  0  0
   59.5319   28.1540   48.9299 H   0  0  0  0  0  0  0  0  0  0  0  0
   60.8089   28.9740   47.9627 H   0  0  0  0  0  0  0  0  0  0  0  0
   59.9520   27.9920   50.6298 H   0  0  0  0  0  0  0  0  0  0  0  0
   61.2181   28.9678   51.4606 H   0  0  0  0  0  0  0  0  0  0  0  0
   58.9408   28.8330   52.6432 H   0  0  0  0  0  0  0  0  0  0  0  0
   59.5970   30.4887   52.3550 H   0  0  0  0  0  0  0  0  0  0  0  0
   56.0791   29.4932   51.6922 H   0  0  0  0  0  0  0  0  0  0  0  0
   57.2156   29.8335   53.0503 H   0  0  0  0  0  0  0  0  0  0  0  0
   55.4836   31.6696   51.5898 H   0  0  0  0  0  0  0  0  0  0  0  0
   56.4695   31.9595   53.0634 H   0  0  0  0  0  0  0  0  0  0  0  0
   57.7578   34.0971   52.2855 H   0  0  0  0  0  0  0  0  0  0  0  0
   58.3196   32.5970   53.0956 H   0  0  0  0  0  0  0  0  0  0  0  0
   59.7087   34.3261   51.1584 H   0  0  0  0  0  0  0  0  0  0  0  0
   60.3605   33.0329   52.2420 H   0  0  0  0  0  0  0  0  0  0  0  0
   59.1580   31.5490   50.2280 H   0  0  0  0  0  0  0  0  0  0  0  0
   58.0045   33.2461   48.7295 H   0  0  0  0  0  0  0  0  0  0  0  0
   57.0548   33.9860   46.5549 H   0  0  0  0  0  0  0  0  0  0  0  0
   58.5543   34.4664   44.6313 H   0  0  0  0  0  0  0  0  0  0  0  0
   61.0136   34.2382   44.8656 H   0  0  0  0  0  0  0  0  0  0  0  0
   64.1704   34.3013   46.4807 H   0  0  0  0  0  0  0  0  0  0  0  0
   63.4997   33.0252   45.4090 H   0  0  0  0  0  0  0  0  0  0  0  0
   62.7766   34.6695   45.4090 H   0  0  0  0  0  0  0  0  0  0  0  0
   64.9380   32.7160   47.9230 H   0  0  0  0  0  0  0  0  0  0  0  0
   66.1732   31.5857   50.0393 H   0  0  0  0  0  0  0  0  0  0  0  0
   65.7597   30.5566   52.2952 H   0  0  0  0  0  0  0  0  0  0  0  0
   62.6527   30.4885   55.4224 H   0  0  0  0  0  0  0  0  0  0  0  0
   61.9225   31.5626   54.1815 H   0  0  0  0  0  0  0  0  0  0  0  0
   61.5477   29.8059   54.1815 H   0  0  0  0  0  0  0  0  0  0  0  0
   61.5115   31.4642   51.9411 H   0  0  0  0  0  0  0  0  0  0  0  0
  1  2  1  0
  2  3  1  0
  3  4  1  0
  4  5  1  0
  3  6  1  0
  6  7  1  0
  7  8  1  0
  8  9  1  0
  9 10  1  0
 10 11  1  0
 11 12  1  0
 12 13  1  0
 13 14  1  0
 14 15  1  0
 15 16  1  0
 16 17  1  0
 17 18  1  0
 18 19  2  0
 19 20  1  0
 20 21  2  0
 21 22  1  0
 22 23  2  0
 23 24  1  0
 24 25  2  0
 25 26  1  0
 25 27  1  0
 27 28  1  0
 28 29  1  0
 29 30  2  0
 30 31  1  0
 31 32  2  0
 32 33  1  0
 33 34  1  0
 32 35  1  0
 35 36  2  0
 36 37  1  0
 37 18  1  0
 24 19  1  0
 37 27  2  0
 36 29  1  0
  1 38  1  0
  1 39  1  0
  1 40  1  0
  2 41  1  0
  2 42  1  0
  4 43  1  0
  4 44  1  0
  5 45  1  0
  5 46  1  0
  5 47  1  0
  6 48  1  0
  6 49  1  0
  7 50  1  0
  7 51  1  0
  9 52  1  0
  9 53  1  0
 10 54  1  0
 10 55  1  0
 12 56  1  0
 12 57  1  0
 13 58  1  0
 13 59  1  0
 15 60  1  0
 15 61  1  0
 16 62  1  0
 16 63  1  0
 17 64  1  0
 20 65  1  0
 21 66  1  0
 22 67  1  0
 23 68  1  0
 26 69  1  0
 26 70  1  0
 26 71  1  0
 28 72  1  0
 30 73  1  0
 31 74  1  0
 34 75  1  0
 34 76  1  0
 34 77  1  0
 35 78  1  0
M  CHG  1  25   1
M  END
>  <UniqueID>  (25) 
25

>  <SMILES>  (25) 
CCN(CC)CCOCCOCCOCCNc1c2ccccc2[n+](C)c2[nH]c3ccc(OC)cc3c12

>  <Energy>  (25) 
131.4831767953201

>  <Genealogy>  (25) 
CCN(CC)CCOCCOCCOCCNc1c2ccccc2[n+](C)c2[nH]c3ccc(OC)cc3c12 (3D coordinates assigned)
CCN(CC)CCOCCOCCOCCNc1c2ccccc2[n+](C)c2[nH]c3ccc(OC)cc3c12 (optimized conformer: 131.4831767953201 kcal/mol)

>  <smiles>  (25) 
CCN(CC)CCOCCOCCOCCNc1c2ccccc2[n+](C)c2[nH]c3ccc(OC)cc3c12

>  <score_type>  (25) 
oracle

>  <origin>  (25) 
adg

>  <m_score__min__energy>  (25) 
-6.0599999999999996

>  <m_primary>  (25) 
energy

$$$$
25:0
     RDKit          3D

 56 59  0  0  0  0  0  0  0  0999 V2000
   63.3780   33.8600   46.4370 C   0  0  0  0  0  0  0  0  0  0  0  0
   63.4910   32.5140   47.1430 C   0  0  0  0  0  0  0  0  0  0  0  0
   63.1790   32.6530   48.5160 O   0  0  0  0  0  0  0  0  0  0  0  0
   64.2810   32.2780   49.3170 C   0  0  0  0  0  0  0  0  0  0  0  0
   63.7650   31.5610   50.5720 C   0  0  0  0  0  0  0  0  0  0  0  0
   62.3490   31.8580   50.8660 N   0  0  0  0  0  0  0  0  0  0  0  0
   61.4170   30.7360   50.6440 C   0  0  0  0  0  0  0  0  0  0  0  0
   60.2510   31.1010   49.7110 C   0  0  0  0  0  0  0  0  0  0  0  0
   60.7590   31.5120   48.4020 N   0  0  0  0  0  0  0  0  0  0  0  0
   59.9280   31.4770   47.2300 C   0  0  0  0  0  0  0  0  0  0  0  0
   59.4740   30.2530   46.7450 C   0  0  0  0  0  0  0  0  0  0  0  0
   58.7300   30.1810   45.5840 C   0  0  0  0  0  0  0  0  0  0  0  0
   58.2940   31.3060   44.9290 N   0  0  0  0  0  0  0  0  0  0  0  0
   57.2530   31.1970   43.8920 C   0  0  0  0  0  0  0  0  0  0  0  0
   58.7870   32.5380   45.3290 C   0  0  0  0  0  0  0  0  0  0  0  0
   58.5350   33.7170   44.5850 C   0  0  0  0  0  0  0  0  0  0  0  0
   58.9670   34.9610   45.0450 C   0  0  0  0  0  0  0  0  0  0  0  0
   59.6570   35.0650   46.2480 C   0  0  0  0  0  0  0  0  0  0  0  0
   59.9590   33.9210   46.9830 C   0  0  0  0  0  0  0  0  0  0  0  0
   59.5770   32.6470   46.5190 C   0  0  0  0  0  0  0  0  0  0  0  0
   58.5060   28.7590   45.2860 C   0  0  0  0  0  0  0  0  0  0  0  0
   58.0170   28.1150   44.1390 C   0  0  0  0  0  0  0  0  0  0  0  0
   57.9990   26.7110   44.1100 C   0  0  0  0  0  0  0  0  0  0  0  0
   58.5070   25.9700   45.1920 C   0  0  0  0  0  0  0  0  0  0  0  0
   59.0600   26.6270   46.3000 C   0  0  0  0  0  0  0  0  0  0  0  0
   59.0590   28.0230   46.3210 C   0  0  0  0  0  0  0  0  0  0  0  0
   59.7090   28.8970   47.3440 C   0  0  0  0  0  0  0  0  0  0  0  0
   63.3106   34.6625   47.1863 H   0  0  0  0  0  0  0  0  0  0  0  0
   64.2659   34.0196   45.8076 H   0  0  0  0  0  0  0  0  0  0  0  0
   62.4759   33.8693   45.8076 H   0  0  0  0  0  0  0  0  0  0  0  0
   62.7906   31.8022   46.6818 H   0  0  0  0  0  0  0  0  0  0  0  0
   64.5223   32.1439   47.0457 H   0  0  0  0  0  0  0  0  0  0  0  0
   64.9366   31.6016   48.7490 H   0  0  0  0  0  0  0  0  0  0  0  0
   64.8508   33.1728   49.6079 H   0  0  0  0  0  0  0  0  0  0  0  0
   63.8722   30.4762   50.4247 H   0  0  0  0  0  0  0  0  0  0  0  0
   64.3601   31.9210   51.4242 H   0  0  0  0  0  0  0  0  0  0  0  0
   62.0430   32.6640   50.2720 H   0  0  0  0  0  0  0  0  0  0  0  0
   62.2760   32.1660   51.8640 H   0  0  0  0  0  0  0  0  0  0  0  0
   61.9749   29.8997   50.1976 H   0  0  0  0  0  0  0  0  0  0  0  0
   60.9865   30.4671   51.6199 H   0  0  0  0  0  0  0  0  0  0  0  0
   59.5967   30.2254   49.5879 H   0  0  0  0  0  0  0  0  0  0  0  0
   59.6854   31.9342   50.1535 H   0  0  0  0  0  0  0  0  0  0  0  0
   61.5760   32.1630   48.3980 H   0  0  0  0  0  0  0  0  0  0  0  0
   56.2680   31.0939   44.3707 H   0  0  0  0  0  0  0  0  0  0  0  0
   57.2634   32.1011   43.2656 H   0  0  0  0  0  0  0  0  0  0  0  0
   57.4504   30.3146   43.2656 H   0  0  0  0  0  0  0  0  0  0  0  0
   57.9911   33.6505   43.6312 H   0  0  0  0  0  0  0  0  0  0  0  0
   58.7608   35.8648   44.4529 H   0  0  0  0  0  0  0  0  0  0  0  0
   59.9651   36.0533   46.6200 H   0  0  0  0  0  0  0  0  0  0  0  0
   60.5013   34.0134   47.9355 H   0  0  0  0  0  0  0  0  0  0  0  0
   57.6549   28.6984   43.2796 H   0  0  0  0  0  0  0  0  0  0  0  0
   57.5850   26.1876   43.2355 H   0  0  0  0  0  0  0  0  0  0  0  0
   58.4703   24.8709   45.1688 H   0  0  0  0  0  0  0  0  0  0  0  0
   59.4864   26.0539   47.1365 H   0  0  0  0  0  0  0  0  0  0  0  0
   59.2247   28.7991   48.3268 H   0  0  0  0  0  0  0  0  0  0  0  0
   60.7658   28.6619   47.5388 H   0  0  0  0  0  0  0  0  0  0  0  0
  1  2  1  0
  2  3  1  0
  3  4  1  0
  4  5  1  0
  5  6  1  0
  6  7  1  0
  7  8  1  0
  8  9  1  0
  9 10  1  0
 10 11  2  0
 11 12  1  0
 12 13  2  0
 13 14  1  0
 13 15  1  0
 15 16  2  0
 16 17  1  0
 17 18  2  0
 18 19  1  0
 19 20  2  0
 12 21  1  0
 21 22  2  0
 22 23  1  0
 23 24  2  0
 24 25  1  0
 25 26  2  0
 26 27  1  0
 20 10  1  0
 26 21  1  0
 27 11  1  0
 20 15  1  0
  1 28  1  0
  1 29  1  0
  1 30  1  0
  2 31  1  0
  2 32  1  0
  4 33  1  0
  4 34  1  0
  5 35  1  0
  5 36  1  0
  6 37  1  0
  6 38  1  0
  7 39  1  0
  7 40  1  0
  8 41  1  0
  8 42  1  0
  9 43  1  0
 14 44  1  0
 14 45  1  0
 14 46  1  0
 16 47  1  0
 17 48  1  0
 18 49  1  0
 19 50  1  0
 22 51  1  0
 23 52  1  0
 24 53  1  0
 25 54  1  0
 27 55  1  0
 27 56  1  0
M  CHG  2   6   1  13   1
M  END
>  <UniqueID>  (26) 
26

>  <SMILES>  (26) 
CCOCC[NH2+]CCNc1c2c([n+](C)c3ccccc13)-c1ccccc1C2

>  <Energy>  (26) 
99.77613537218289

>  <Genealogy>  (26) 
CCOCC[NH2+]CCNc1c2c([n+](C)c3ccccc13)-c1ccccc1C2 (protonated)
CCOCC[NH2+]CCNc1c2c([n+](C)c3ccccc13)-c1ccccc1C2 (3D coordinates assigned)
CCOCC[NH2+]CCNc1c2c([n+](C)c3ccccc13)-c1ccccc1C2 (nonaromatic ring conformer: 99.77613537218289 kcal/mol)

>  <smiles>  (26) 
CCOCCNCCNc1c2c([n+](C)c3ccccc13)-c1ccccc1C2

>  <score_type>  (26) 
oracle

>  <origin>  (26) 
adg

>  <m_score__min__energy>  (26) 
-4.2000000000000002

>  <m_primary>  (26) 
energy

$$$$
26:0
     RDKit          3D

 36 35  0  0  0  0  0  0  0  0999 V2000
   61.2880   31.8530   47.4990 C   0  0  0  0  0  0  0  0  0  0  0  0
   60.5790   32.6880   46.4130 C   0  0  0  0  0  0  0  0  0  0  0  0
   59.0790   32.5290   46.3250 N   0  0  0  0  0  0  0  0  0  0  0  0
   58.4830   33.3650   47.4280 C   0  0  0  0  0  0  0  0  0  0  0  0
   59.2790   34.6010   47.8740 C   0  0  0  0  0  0  0  0  0  0  0  0
   58.6460   33.0830   44.9930 C   0  0  0  0  0  0  0  0  0  0  0  0
   57.3480   33.9150   45.0110 C   0  0  0  0  0  0  0  0  0  0  0  0
   58.7370   31.0680   46.5000 C   0  0  0  0  0  0  0  0  0  0  0  0
   59.3060   30.0590   45.4610 C   0  0  0  0  0  0  0  0  0  0  0  0
   58.4840   29.9960   44.2520 N   0  0  0  0  0  0  0  0  0  0  0  0
   57.0610   29.8160   44.2920 C   0  0  0  0  0  0  0  0  0  0  0  0
   56.4620   29.7200   45.3970 O   0  0  0  0  0  0  0  0  0  0  0  0
   56.2800   29.7740   43.0140 C   0  0  0  0  0  0  0  0  0  0  0  0
   54.9310   29.6960   43.3040 F   0  0  0  0  0  0  0  0  0  0  0  0
   56.6450   28.6750   42.2570 F   0  0  0  0  0  0  0  0  0  0  0  0
   56.5220   30.9220   42.2830 F   0  0  0  0  0  0  0  0  0  0  0  0
   60.9839   32.2111   48.4936 H   0  0  0  0  0  0  0  0  0  0  0  0
   61.0082   30.7949   47.3889 H   0  0  0  0  0  0  0  0  0  0  0  0
   62.3775   31.9575   47.3889 H   0  0  0  0  0  0  0  0  0  0  0  0
   60.7934   33.7485   46.6113 H   0  0  0  0  0  0  0  0  0  0  0  0
   60.9717   32.3193   45.4539 H   0  0  0  0  0  0  0  0  0  0  0  0
   57.4965   33.7112   47.0859 H   0  0  0  0  0  0  0  0  0  0  0  0
   58.4633   32.7051   48.3078 H   0  0  0  0  0  0  0  0  0  0  0  0
   59.3060   34.6429   48.9729 H   0  0  0  0  0  0  0  0  0  0  0  0
   60.3056   34.5363   47.4842 H   0  0  0  0  0  0  0  0  0  0  0  0
   58.7954   35.5089   47.4842 H   0  0  0  0  0  0  0  0  0  0  0  0
   59.4548   33.7248   44.6137 H   0  0  0  0  0  0  0  0  0  0  0  0
   58.4370   32.2106   44.3564 H   0  0  0  0  0  0  0  0  0  0  0  0
   57.0495   34.1063   46.0523 H   0  0  0  0  0  0  0  0  0  0  0  0
   57.5189   34.8723   44.4968 H   0  0  0  0  0  0  0  0  0  0  0  0
   56.5496   33.3600   44.4968 H   0  0  0  0  0  0  0  0  0  0  0  0
   59.1050   30.7615   47.4903 H   0  0  0  0  0  0  0  0  0  0  0  0
   57.6466   31.0209   46.3627 H   0  0  0  0  0  0  0  0  0  0  0  0
   60.3235   30.3712   45.1830 H   0  0  0  0  0  0  0  0  0  0  0  0
   59.3087   29.0606   45.9228 H   0  0  0  0  0  0  0  0  0  0  0  0
   58.9410   30.1810   43.3310 H   0  0  0  0  0  0  0  0  0  0  0  0
  1  2  1  0
  2  3  1  0
  3  4  1  0
  4  5  1  0
  3  6  1  0
  6  7  1  0
  3  8  1  0
  8  9  1  0
  9 10  1  0
 10 11  1  0
 11 12  2  0
 11 13  1  0
 13 14  1  0
 13 15  1  0
 13 16  1  0
  1 17  1  0
  1 18  1  0
  1 19  1  0
  2 20  1  0
  2 21  1  0
  4 22  1  0
  4 23  1  0
  5 24  1  0
  5 25  1  0
  5 26  1  0
  6 27  1  0
  6 28  1  0
  7 29  1  0
  7 30  1  0
  7 31  1  0
  8 32  1  0
  8 33  1  0
  9 34  1  0
  9 35  1  0
 10 36  1  0
M  CHG  1   3   1
M  END
>  <UniqueID>  (27) 
27

>  <SMILES>  (27) 
CC[N+](CC)(CC)CCNC(=O)C(F)(F)F

>  <Energy>  (27) 
50.16733516763939

>  <Genealogy>  (27) 
CC[N+](CC)(CC)CCNC(=O)C(F)(F)F (3D coordinates assigned)
CC[N+](CC)(CC)CCNC(=O)C(F)(F)F (optimized conformer: 50.16733516763939 kcal/mol)

>  <smiles>  (27) 
CC[N+](CC)(CC)CCNC(=O)C(F)(F)F

>  <score_type>  (27) 
oracle

>  <origin>  (27) 
adg

>  <m_score__min__energy>  (27) 
-2.6000000000000001

>  <m_primary>  (27) 
energy

$$$$
27:0
     RDKit          3D

 67 70  0  0  0  0  0  0  0  0999 V2000
   52.9080   30.0980   51.0080 C   0  0  0  0  0  0  0  0  0  0  0  0
   54.2400   30.5540   51.6200 C   0  0  0  0  0  0  0  0  0  0  0  0
   54.9590   29.4690   52.3400 N   0  0  0  0  0  0  0  0  0  0  0  0
   54.0440   28.4540   52.9410 C   0  0  0  0  0  0  0  0  0  0  0  0
   54.7290   27.4170   53.8470 C   0  0  0  0  0  0  0  0  0  0  0  0
   55.9040   30.0740   53.3210 C   0  0  0  0  0  0  0  0  0  0  0  0
   57.3500   30.1750   52.8090 C   0  0  0  0  0  0  0  0  0  0  0  0
   57.3800   29.9530   51.4140 O   0  0  0  0  0  0  0  0  0  0  0  0
   58.3280   30.8070   50.8120 C   0  0  0  0  0  0  0  0  0  0  0  0
   59.6950   30.1230   50.8290 C   0  0  0  0  0  0  0  0  0  0  0  0
   59.7250   28.9190   49.8820 C   0  0  0  0  0  0  0  0  0  0  0  0
   60.6130   29.1800   48.7460 N   0  0  0  0  0  0  0  0  0  0  0  0
   60.4100   30.3340   47.9180 C   0  0  0  0  0  0  0  0  0  0  0  0
   61.2600   31.4530   47.9770 C   0  0  0  0  0  0  0  0  0  0  0  0
   61.0810   32.5180   47.0580 C   0  0  0  0  0  0  0  0  0  0  0  0
   60.0160   32.5200   46.1750 N   0  0  0  0  0  0  0  0  0  0  0  0
   59.6120   33.7800   45.5320 C   0  0  0  0  0  0  0  0  0  0  0  0
   59.2680   31.3700   46.0360 C   0  0  0  0  0  0  0  0  0  0  0  0
   59.4200   30.3230   46.9450 C   0  0  0  0  0  0  0  0  0  0  0  0
   58.3350   29.0740   46.6200 S   0  0  0  0  0  0  0  0  0  0  0  0
   57.6770   29.8280   45.2720 C   0  0  0  0  0  0  0  0  0  0  0  0
   56.7080   29.3010   44.4210 C   0  0  0  0  0  0  0  0  0  0  0  0
   56.3720   30.0180   43.2680 C   0  0  0  0  0  0  0  0  0  0  0  0
   57.0350   31.2190   42.9690 C   0  0  0  0  0  0  0  0  0  0  0  0
   58.0170   31.7330   43.8350 C   0  0  0  0  0  0  0  0  0  0  0  0
   58.3030   31.0560   45.0350 C   0  0  0  0  0  0  0  0  0  0  0  0
   62.1770   33.5690   47.0290 C   0  0  0  0  0  0  0  0  0  0  0  0
   62.5090   34.0840   48.4430 C   0  0  0  0  0  0  0  0  0  0  0  0
   62.4080   33.0100   49.5520 C   0  0  0  0  0  0  0  0  0  0  0  0
   62.3550   31.5730   49.0110 C   0  0  0  0  0  0  0  0  0  0  0  0
   52.1987   29.8552   51.8129 H   0  0  0  0  0  0  0  0  0  0  0  0
   52.4945   30.9058   50.3863 H   0  0  0  0  0  0  0  0  0  0  0  0
   53.0763   29.2063   50.3863 H   0  0  0  0  0  0  0  0  0  0  0  0
   54.8870   30.9247   50.8113 H   0  0  0  0  0  0  0  0  0  0  0  0
   54.0086   31.3366   52.3576 H   0  0  0  0  0  0  0  0  0  0  0  0
   55.5370   28.9670   51.6230 H   0  0  0  0  0  0  0  0  0  0  0  0
   53.2907   28.9861   53.5404 H   0  0  0  0  0  0  0  0  0  0  0  0
   53.6143   27.8909   52.0994 H   0  0  0  0  0  0  0  0  0  0  0  0
   54.5556   27.6795   54.9010 H   0  0  0  0  0  0  0  0  0  0  0  0
   54.3113   26.4199   53.6440 H   0  0  0  0  0  0  0  0  0  0  0  0
   55.8101   27.4099   53.6440 H   0  0  0  0  0  0  0  0  0  0  0  0
   55.5505   31.0870   53.5636 H   0  0  0  0  0  0  0  0  0  0  0  0
   55.9208   29.4121   54.1994 H   0  0  0  0  0  0  0  0  0  0  0  0
   57.7458   31.1777   53.0279 H   0  0  0  0  0  0  0  0  0  0  0  0
   57.9671   29.4154   53.3112 H   0  0  0  0  0  0  0  0  0  0  0  0
   58.0315   31.0130   49.7729 H   0  0  0  0  0  0  0  0  0  0  0  0
   58.3797   31.7552   51.3672 H   0  0  0  0  0  0  0  0  0  0  0  0
   60.4618   30.8461   50.5141 H   0  0  0  0  0  0  0  0  0  0  0  0
   59.8932   29.7670   51.8507 H   0  0  0  0  0  0  0  0  0  0  0  0
   60.0881   28.0369   50.4298 H   0  0  0  0  0  0  0  0  0  0  0  0
   58.7078   28.7392   49.5038 H   0  0  0  0  0  0  0  0  0  0  0  0
   61.5480   28.7130   48.7150 H   0  0  0  0  0  0  0  0  0  0  0  0
   59.3729   34.5257   46.3045 H   0  0  0  0  0  0  0  0  0  0  0  0
   60.4358   34.1524   44.9053 H   0  0  0  0  0  0  0  0  0  0  0  0
   58.7252   33.6040   44.9053 H   0  0  0  0  0  0  0  0  0  0  0  0
   56.2184   28.3431   44.6506 H   0  0  0  0  0  0  0  0  0  0  0  0
   55.5879   29.6407   42.5951 H   0  0  0  0  0  0  0  0  0  0  0  0
   56.7836   31.7641   42.0472 H   0  0  0  0  0  0  0  0  0  0  0  0
   58.5566   32.6560   43.5765 H   0  0  0  0  0  0  0  0  0  0  0  0
   63.0830   33.1274   46.5884 H   0  0  0  0  0  0  0  0  0  0  0  0
   61.8214   34.4193   46.4286 H   0  0  0  0  0  0  0  0  0  0  0  0
   63.5372   34.4749   48.4346 H   0  0  0  0  0  0  0  0  0  0  0  0
   61.7607   34.8542   48.6814 H   0  0  0  0  0  0  0  0  0  0  0  0
   63.2864   33.1029   50.2076 H   0  0  0  0  0  0  0  0  0  0  0  0
   61.4651   33.1881   50.0897 H   0  0  0  0  0  0  0  0  0  0  0  0
   63.3213   31.3210   48.5498 H   0  0  0  0  0  0  0  0  0  0  0  0
   62.1472   30.8811   49.8405 H   0  0  0  0  0  0  0  0  0  0  0  0
  1  2  1  0
  2  3  1  0
  3  4  1  0
  4  5  1  0
  3  6  1  0
  6  7  1  0
  7  8  1  0
  8  9  1  0
  9 10  1  0
 10 11  1  0
 11 12  1  0
 12 13  1  0
 13 14  2  0
 14 15  1  0
 15 16  2  0
 16 17  1  0
 16 18  1  0
 18 19  2  0
 19 20  1  0
 20 21  1  0
 21 22  2  0
 22 23  1  0
 23 24  2  0
 24 25  1  0
 25 26  2  0
 15 27  1  0
 27 28  1  0
 28 29  1  0
 29 30  1  0
 19 13  1  0
 26 21  1  0
 30 14  1  0
 26 18  1  0
  1 31  1  0
  1 32  1  0
  1 33  1  0
  2 34  1  0
  2 35  1  0
  3 36  1  0
  4 37  1  0
  4 38  1  0
  5 39  1  0
  5 40  1  0
  5 41  1  0
  6 42  1  0
  6 43  1  0
  7 44  1  0
  7 45  1  0
  9 46  1  0
  9 47  1  0
 10 48  1  0
 10 49  1  0
 11 50  1  0
 11 51  1  0
 12 52  1  0
 17 53  1  0
 17 54  1  0
 17 55  1  0
 22 56  1  0
 23 57  1  0
 24 58  1  0
 25 59  1  0
 27 60  1  0
 27 61  1  0
 28 62  1  0
 28 63  1  0
 29 64  1  0
 29 65  1  0
 30 66  1  0
 30 67  1  0
M  CHG  2   3   1  16   1
M  END
>  <UniqueID>  (28) 
28

>  <SMILES>  (28) 
CC[NH+](CC)CCOCCCNc1c2c([n+](C)c3c1sc1ccccc13)CCCC2

>  <Energy>  (28) 
131.43839215097884

>  <Genealogy>  (28) 
CC[NH+](CC)CCOCCCNc1c2c([n+](C)c3c1sc1ccccc13)CCCC2 (protonated)
CC[NH+](CC)CCOCCCNc1c2c([n+](C)c3c1sc1ccccc13)CCCC2 (3D coordinates assigned)
CC[NH+](CC)CCOCCCNc1c2c([n+](C)c3c1sc1ccccc13)CCCC2 (nonaromatic ring conformer: 131.43839215097884 kcal/mol)

>  <smiles>  (28) 
CCN(CC)CCOCCCNc1c2c([n+](C)c3c1sc1ccccc13)CCCC2

>  <score_type>  (28) 
oracle

>  <origin>  (28) 
adg

>  <m_score__min__energy>  (28) 
-4.9299999999999997

>  <m_primary>  (28) 
energy

$$$$
28:0
     RDKit          3D

 38 38  0  0  0  0  0  0  0  0999 V2000
   60.3010   29.0860   45.2480 C   0  0  0  0  0  0  0  0  0  0  0  0
   59.9660   29.6990   46.6040 C   0  0  0  0  0  0  0  0  0  0  0  0
   60.1050   31.1570   46.5650 N   0  0  0  0  0  0  0  0  0  0  0  0
   61.2660   31.8770   47.0370 C   0  0  0  0  0  0  0  0  0  0  0  0
   62.5120   31.2220   47.1300 C   0  0  0  0  0  0  0  0  0  0  0  0
   63.6030   31.8670   47.6150 N   0  0  0  0  0  0  0  0  0  0  0  0
   63.5370   33.1540   48.0370 C   0  0  0  0  0  0  0  0  0  0  0  0
   62.3380   33.8550   47.9600 C   0  0  0  0  0  0  0  0  0  0  0  0
   61.1890   33.2420   47.4320 C   0  0  0  0  0  0  0  0  0  0  0  0
   59.9000   34.0570   47.3690 C   0  0  0  0  0  0  0  0  0  0  0  0
   59.1050   33.8490   46.1320 N   0  0  0  0  0  0  0  0  0  0  0  0
   59.2530   34.9630   45.1800 C   0  0  0  0  0  0  0  0  0  0  0  0
   57.6870   33.5300   46.4080 C   0  0  0  0  0  0  0  0  0  0  0  0
   57.0260   32.8140   45.2210 C   0  0  0  0  0  0  0  0  0  0  0  0
   57.3430   31.4390   45.2500 O   0  0  0  0  0  0  0  0  0  0  0  0
   57.4560   30.9570   43.9300 C   0  0  0  0  0  0  0  0  0  0  0  0
   60.8236   28.1296   45.3970 H   0  0  0  0  0  0  0  0  0  0  0  0
   59.3723   28.9124   44.6846 H   0  0  0  0  0  0  0  0  0  0  0  0
   60.9486   29.7739   44.6846 H   0  0  0  0  0  0  0  0  0  0  0  0
   58.9298   29.4426   46.8695 H   0  0  0  0  0  0  0  0  0  0  0  0
   60.6640   29.2984   47.3539 H   0  0  0  0  0  0  0  0  0  0  0  0
   59.2870   31.6770   46.1860 H   0  0  0  0  0  0  0  0  0  0  0  0
   62.6003   30.1748   46.8051 H   0  0  0  0  0  0  0  0  0  0  0  0
   64.5130   31.3580   47.6750 H   0  0  0  0  0  0  0  0  0  0  0  0
   64.4343   33.6451   48.4414 H   0  0  0  0  0  0  0  0  0  0  0  0
   62.2890   34.8952   48.3145 H   0  0  0  0  0  0  0  0  0  0  0  0
   59.2750   33.7801   48.2308 H   0  0  0  0  0  0  0  0  0  0  0  0
   60.1964   35.1163   47.3784 H   0  0  0  0  0  0  0  0  0  0  0  0
   59.3781   35.9048   45.7343 H   0  0  0  0  0  0  0  0  0  0  0  0
   60.1360   34.7898   44.5473 H   0  0  0  0  0  0  0  0  0  0  0  0
   58.3554   35.0264   44.5473 H   0  0  0  0  0  0  0  0  0  0  0  0
   57.6336   32.8782   47.2925 H   0  0  0  0  0  0  0  0  0  0  0  0
   57.1500   34.4741   46.5820 H   0  0  0  0  0  0  0  0  0  0  0  0
   55.9347   32.9377   45.2826 H   0  0  0  0  0  0  0  0  0  0  0  0
   57.3983   33.2509   44.2827 H   0  0  0  0  0  0  0  0  0  0  0  0
   57.7070   29.8862   43.9509 H   0  0  0  0  0  0  0  0  0  0  0  0
   56.5001   31.0993   43.4046 H   0  0  0  0  0  0  0  0  0  0  0  0
   58.2490   31.5094   43.4046 H   0  0  0  0  0  0  0  0  0  0  0  0
  1  2  1  0
  2  3  1  0
  3  4  1  0
  4  5  2  0
  5  6  1  0
  6  7  2  0
  7  8  1  0
  8  9  2  0
  9 10  1  0
 10 11  1  0
 11 12  1  0
 11 13  1  0
 13 14  1  0
 14 15  1  0
 15 16  1  0
  9  4  1  0
  1 17  1  0
  1 18  1  0
  1 19  1  0
  2 20  1  0
  2 21  1  0
  3 22  1  0
  5 23  1  0
  6 24  1  0
  7 25  1  0
  8 26  1  0
 10 27  1  0
 10 28  1  0
 12 29  1  0
 12 30  1  0
 12 31  1  0
 13 32  1  0
 13 33  1  0
 14 34  1  0
 14 35  1  0
 16 36  1  0
 16 37  1  0
 16 38  1  0
M  CHG  1   6   1
M  END
>  <UniqueID>  (29) 
29

>  <SMILES>  (29) 
CCNc1c[nH+]ccc1CN(C)CCOC

>  <Energy>  (29) 
40.8146818949116

>  <Genealogy>  (29) 
CCNc1c[nH+]ccc1CN(C)CCOC (protonated)
CCNc1c[nH+]ccc1CN(C)CCOC (3D coordinates assigned)
CCNc1c[nH+]ccc1CN(C)CCOC (optimized conformer: 40.8146818949116 kcal/mol)

>  <smiles>  (29) 
CCNc1cnccc1CN(C)CCOC

>  <score_type>  (29) 
oracle

>  <origin>  (29) 
adg

>  <m_score__min__energy>  (29) 
-3.21

>  <m_primary>  (29) 
energy

$$$$
