0:0
     RDKit          3D

 33 33  0  0  0  0  0  0  0  0999 V2000
   57.7510   33.1060   47.1190 C   0  0  0  0  0  0  0  0  0  0  0  0
   57.8290   33.6650   45.6930 C   0  0  0  0  0  0  0  0  0  0  0  0
   58.9020   34.7570   45.5950 C   0  0  0  0  0  0  0  0  0  0  0  0
   58.0480   32.5520   44.6480 C   0  0  0  0  0  0  0  0  0  0  0  0
   57.1820   31.3950   44.8910 N   0  0  0  0  0  0  0  0  0  0  0  0
   56.4980   30.6980   43.8380 C   0  0  0  0  0  0  0  0  0  0  0  0
   56.6790   31.0320   42.6350 O   0  0  0  0  0  0  0  0  0  0  0  0
   55.5800   29.5910   44.1440 C   0  0  0  0  0  0  0  0  0  0  0  0
   54.5600   29.4030   43.4290 O   0  0  0  0  0  0  0  0  0  0  0  0
   55.8860   28.7010   45.2250 N   0  0  0  0  0  0  0  0  0  0  0  0
   57.1200   27.9920   45.4270 C   0  0  0  0  0  0  0  0  0  0  0  0
   58.3500   28.5870   45.0910 C   0  0  0  0  0  0  0  0  0  0  0  0
   59.5440   27.8770   45.2280 C   0  0  0  0  0  0  0  0  0  0  0  0
   59.5260   26.5620   45.6850 C   0  0  0  0  0  0  0  0  0  0  0  0
   58.3130   25.9480   46.0010 C   0  0  0  0  0  0  0  0  0  0  0  0
   57.0970   26.6480   45.8780 C   0  0  0  0  0  0  0  0  0  0  0  0
   55.8600   25.9890   46.2210 N   0  0  0  0  0  0  0  0  0  0  0  0
   54.7900   26.3340   45.6780 O   0  0  0  0  0  0  0  0  0  0  0  0
   55.8420   24.9140   47.0800 O   0  0  0  0  0  0  0  0  0  0  0  0
   57.8656   33.9274   47.8416 H   0  0  0  0  0  0  0  0  0  0  0  0
   56.7762   32.6189   47.2691 H   0  0  0  0  0  0  0  0  0  0  0  0
   58.5552   32.3707   47.2691 H   0  0  0  0  0  0  0  0  0  0  0  0
   56.8571   34.1252   45.4614 H   0  0  0  0  0  0  0  0  0  0  0  0
   59.2049   35.0653   46.6066 H   0  0  0  0  0  0  0  0  0  0  0  0
   59.7759   34.3649   45.0541 H   0  0  0  0  0  0  0  0  0  0  0  0
   58.4946   35.6239   45.0541 H   0  0  0  0  0  0  0  0  0  0  0  0
   57.8301   32.9554   43.6481 H   0  0  0  0  0  0  0  0  0  0  0  0
   59.0930   32.2166   44.7217 H   0  0  0  0  0  0  0  0  0  0  0  0
   57.0300   31.1010   45.8820 H   0  0  0  0  0  0  0  0  0  0  0  0
   58.3709   29.6212   44.7169 H   0  0  0  0  0  0  0  0  0  0  0  0
   60.5006   28.3572   44.9745 H   0  0  0  0  0  0  0  0  0  0  0  0
   60.4687   26.0064   45.7972 H   0  0  0  0  0  0  0  0  0  0  0  0
   58.3067   24.9049   46.3503 H   0  0  0  0  0  0  0  0  0  0  0  0
  1  2  1  0
  2  3  1  0
  2  4  1  0
  4  5  1  0
  5  6  1  0
  6  7  2  0
  6  8  1  0
  8  9  2  0
  8 10  1  0
 10 11  1  0
 11 12  2  0
 12 13  1  0
 13 14  2  0
 14 15  1  0
 15 16  2  0
 16 17  1  0
 17 18  2  0
 17 19  1  0
 16 11  1  0
  1 20  1  0
  1 21  1  0
  1 22  1  0
  2 23  1  0
  3 24  1  0
  3 25  1  0
  3 26  1  0
  4 27  1  0
  4 28  1  0
  5 29  1  0
 12 30  1  0
 13 31  1  0
 14 32  1  0
 15 33  1  0
M  CHG  3  10  -1  17   1  19  -1
M  END
>  <UniqueID>  (1) 
1

>  <SMILES>  (1) 
CC(C)CNC(=O)C(=O)[N-]c1ccccc1[N+](=O)[O-]

>  <Energy>  (1) 
30.530418808699142

>  <Genealogy>  (1) 
CC(C)CNC(=O)C(=O)[N-]c1ccccc1[N+](=O)[O-] (protonated)
CC(C)CNC(=O)C(=O)[N-]c1ccccc1[N+](=O)[O-] (3D coordinates assigned)
CC(C)CNC(=O)C(=O)[N-]c1ccccc1[N+](=O)[O-] (optimized conformer: 30.530418808699142 kcal/mol)

>  <smiles>  (1) 
CC(C)CNC(=O)C(=O)Nc1ccccc1[N+](=O)[O-]

>  <score_type>  (1) 
oracle

>  <origin>  (1) 
adg

>  <m_score__min__energy>  (1) 
-9.5899999999999999

>  <m_primary>  (1) 
energy

$$$$
1:0
     RDKit          3D

 37 39  0  0  0  0  0  0  0  0999 V2000
   63.2660   32.6770   47.1510 C   0  0  0  0  0  0  0  0  0  0  0  0
   62.7890   31.2980   47.6000 C   0  0  0  0  0  0  0  0  0  0  0  0
   61.6290   31.3750   48.5970 C   0  0  0  0  0  0  0  0  0  0  0  0
   60.3570   31.0030   47.9380 N   0  0  0  0  0  0  0  0  0  0  0  0
   60.0570   31.7260   46.6810 C   0  0  0  0  0  0  0  0  0  0  0  0
   58.5560   31.8850   46.4050 C   0  0  0  0  0  0  0  0  0  0  0  0
   58.0260   30.7040   45.6370 C   0  0  0  0  0  0  0  0  0  0  0  0
   57.6350   30.8440   44.2870 C   0  0  0  0  0  0  0  0  0  0  0  0
   57.7790   32.4940   43.3140 Br  0  0  0  0  0  0  0  0  0  0  0  0
   57.1450   29.7380   43.6000 C   0  0  0  0  0  0  0  0  0  0  0  0
   57.0180   28.5460   44.2280 N   0  0  0  0  0  0  0  0  0  0  0  0
   57.3930   28.3550   45.5190 C   0  0  0  0  0  0  0  0  0  0  0  0
   57.1430   27.0690   46.1070 N   0  0  0  0  0  0  0  0  0  0  0  0
   58.0970   26.2440   46.5040 N   0  0  0  0  0  0  0  0  0  0  0  0
   57.4340   25.1330   46.8770 C   0  0  0  0  0  0  0  0  0  0  0  0
   56.1070   25.2740   46.6890 N   0  0  0  0  0  0  0  0  0  0  0  0
   55.9560   26.4920   46.1960 N   0  0  0  0  0  0  0  0  0  0  0  0
   57.9940   29.4200   46.2440 C   0  0  0  0  0  0  0  0  0  0  0  0
   58.5820   29.1640   47.6330 C   0  0  0  0  0  0  0  0  0  0  0  0
   60.0690   29.5540   47.8960 C   0  0  0  0  0  0  0  0  0  0  0  0
   63.4803   33.2964   48.0344 H   0  0  0  0  0  0  0  0  0  0  0  0
   64.1795   32.5705   46.5476 H   0  0  0  0  0  0  0  0  0  0  0  0
   62.4819   33.1577   46.5476 H   0  0  0  0  0  0  0  0  0  0  0  0
   62.4573   30.7342   46.7156 H   0  0  0  0  0  0  0  0  0  0  0  0
   63.6308   30.8008   48.1041 H   0  0  0  0  0  0  0  0  0  0  0  0
   61.8211   30.6836   49.4307 H   0  0  0  0  0  0  0  0  0  0  0  0
   61.5485   32.4060   48.9720 H   0  0  0  0  0  0  0  0  0  0  0  0
   60.5074   32.7278   46.7405 H   0  0  0  0  0  0  0  0  0  0  0  0
   60.4739   31.1271   45.8579 H   0  0  0  0  0  0  0  0  0  0  0  0
   58.0195   31.9630   47.3622 H   0  0  0  0  0  0  0  0  0  0  0  0
   58.4021   32.7939   45.8048 H   0  0  0  0  0  0  0  0  0  0  0  0
   56.8596   29.8328   42.5419 H   0  0  0  0  0  0  0  0  0  0  0  0
   57.9126   24.2291   47.2819 H   0  0  0  0  0  0  0  0  0  0  0  0
   57.9674   29.7233   48.3537 H   0  0  0  0  0  0  0  0  0  0  0  0
   58.5697   28.0686   47.7325 H   0  0  0  0  0  0  0  0  0  0  0  0
   60.3646   29.1231   48.8640 H   0  0  0  0  0  0  0  0  0  0  0  0
   60.6364   29.1617   47.0391 H   0  0  0  0  0  0  0  0  0  0  0  0
  1  2  1  0
  2  3  1  0
  3  4  1  0
  4  5  1  0
  5  6  1  0
  6  7  1  0
  7  8  2  0
  8  9  1  0
  8 10  1  0
 10 11  2  0
 11 12  1  0
 12 13  1  0
 13 14  1  0
 14 15  2  0
 15 16  1  0
 16 17  2  0
 12 18  2  0
 18 19  1  0
 19 20  1  0
 20  4  1  0
 18  7  1  0
 17 13  1  0
  1 21  1  0
  1 22  1  0
  1 23  1  0
  2 24  1  0
  2 25  1  0
  3 26  1  0
  3 27  1  0
  5 28  1  0
  5 29  1  0
  6 30  1  0
  6 31  1  0
 10 32  1  0
 15 33  1  0
 19 34  1  0
 19 35  1  0
 20 36  1  0
 20 37  1  0
M  END
>  <UniqueID>  (2) 
2

>  <SMILES>  (2) 
CCCN1CCc2c(Br)cnc(-n3ncnn3)c2CC1

>  <Energy>  (2) 
99.2994871117047

>  <Genealogy>  (2) 
CCCN1CCc2c(Br)cnc(-n3ncnn3)c2CC1 (3D coordinates assigned)
CCCN1CCc2c(Br)cnc(-n3ncnn3)c2CC1 (nonaromatic ring conformer: 99.2994871117047 kcal/mol)

>  <smiles>  (2) 
CCCN1CCc2c(Br)cnc(-n3ncnn3)c2CC1

>  <score_type>  (2) 
oracle

>  <origin>  (2) 
adg

>  <m_score__min__energy>  (2) 
-5.1600000000000001

>  <m_primary>  (2) 
energy

$$$$
2:0
     RDKit          3D

 61 64  0  0  0  0  0  0  0  0999 V2000
   60.5344   26.9021   49.1920 H   0  0  0  0  0  0  0  0  0  0  0  0
   60.3920   27.9720   49.4040 C   0  0  0  0  0  0  0  0  0  0  0  0
   60.8370   28.7650   50.8250 S   0  0  0  0  0  0  0  0  0  0  0  0
   60.2770   30.2480   50.2860 C   0  0  0  0  0  0  0  0  0  0  0  0
   60.3460   31.3500   50.9710 N   0  0  0  0  0  0  0  0  0  0  0  0
   59.7630   32.6150   50.5240 C   0  0  0  0  0  0  0  0  0  0  0  0
   59.2555   32.4582   49.5608 H   0  0  0  0  0  0  0  0  0  0  0  0
   59.0448   32.9608   51.2821 H   0  0  0  0  0  0  0  0  0  0  0  0
   60.8510   33.6830   50.3520 C   0  0  0  0  0  0  0  0  0  0  0  0
   60.3763   34.6489   50.1244 H   0  0  0  0  0  0  0  0  0  0  0  0
   61.4292   33.7529   51.2852 H   0  0  0  0  0  0  0  0  0  0  0  0
   61.7830   33.3150   49.2320 C   0  0  0  0  0  0  0  0  0  0  0  0
   62.8190   34.1840   48.8560 C   0  0  0  0  0  0  0  0  0  0  0  0
   62.9708   35.1315   49.3939 H   0  0  0  0  0  0  0  0  0  0  0  0
   63.6550   33.8360   47.7940 C   0  0  0  0  0  0  0  0  0  0  0  0
   64.4739   34.5066   47.4946 H   0  0  0  0  0  0  0  0  0  0  0  0
   63.4500   32.6360   47.1130 C   0  0  0  0  0  0  0  0  0  0  0  0
   64.1072   32.3519   46.2780 H   0  0  0  0  0  0  0  0  0  0  0  0
   62.4020   31.7990   47.5020 C   0  0  0  0  0  0  0  0  0  0  0  0
   62.2300   30.8519   46.9696 H   0  0  0  0  0  0  0  0  0  0  0  0
   61.5920   32.1520   48.5390 N   0  0  0  0  0  0  0  0  0  0  0  0
   60.8110   31.5120   48.8020 H   0  0  0  0  0  0  0  0  0  0  0  0
   59.7510   30.1710   49.0460 N   0  0  0  0  0  0  0  0  0  0  0  0
   59.8100   28.9090   48.5400 C   0  0  0  0  0  0  0  0  0  0  0  0
   59.3070   28.6100   47.1720 C   0  0  0  0  0  0  0  0  0  0  0  0
   59.9890   27.7410   46.3020 C   0  0  0  0  0  0  0  0  0  0  0  0
   60.9219   27.2608   46.6322 H   0  0  0  0  0  0  0  0  0  0  0  0
   59.4930   27.4820   45.0230 C   0  0  0  0  0  0  0  0  0  0  0  0
   60.0387   26.8006   44.3538 H   0  0  0  0  0  0  0  0  0  0  0  0
   58.3000   28.0860   44.5830 C   0  0  0  0  0  0  0  0  0  0  0  0
   57.7740   27.8540   43.3030 O   0  0  0  0  0  0  0  0  0  0  0  0
   58.1370   26.7580   42.4680 C   0  0  0  0  0  0  0  0  0  0  0  0
   58.4215   25.8990   43.0935 H   0  0  0  0  0  0  0  0  0  0  0  0
   57.2823   26.4820   41.8329 H   0  0  0  0  0  0  0  0  0  0  0  0
   58.9875   27.0468   41.8329 H   0  0  0  0  0  0  0  0  0  0  0  0
   57.6070   28.9500   45.4410 C   0  0  0  0  0  0  0  0  0  0  0  0
   56.4190   29.5380   44.9770 O   0  0  0  0  0  0  0  0  0  0  0  0
   56.3580   30.6620   44.1010 C   0  0  0  0  0  0  0  0  0  0  0  0
   56.3064   30.3086   43.0606 H   0  0  0  0  0  0  0  0  0  0  0  0
   55.4639   31.2554   44.3427 H   0  0  0  0  0  0  0  0  0  0  0  0
   57.6010   31.5410   44.2750 C   0  0  0  0  0  0  0  0  0  0  0  0
   58.4647   30.8965   44.4954 H   0  0  0  0  0  0  0  0  0  0  0  0
   57.7550   32.1036   43.3424 H   0  0  0  0  0  0  0  0  0  0  0  0
   57.4360   32.5160   45.3790 N   0  0  0  0  0  0  0  0  0  0  0  0
   58.3950   32.2600   46.4890 C   0  0  0  0  0  0  0  0  0  0  0  0
   57.9833   31.4725   47.1373 H   0  0  0  0  0  0  0  0  0  0  0  0
   59.3522   31.9536   46.0420 H   0  0  0  0  0  0  0  0  0  0  0  0
   58.6530   33.5100   47.3360 C   0  0  0  0  0  0  0  0  0  0  0  0
   57.6991   33.8661   47.7523 H   0  0  0  0  0  0  0  0  0  0  0  0
   59.3515   33.2484   48.1445 H   0  0  0  0  0  0  0  0  0  0  0  0
   59.2810   34.6290   46.4870 C   0  0  0  0  0  0  0  0  0  0  0  0
   58.9791   35.6006   46.9051 H   0  0  0  0  0  0  0  0  0  0  0  0
   60.3728   34.4978   46.5160 H   0  0  0  0  0  0  0  0  0  0  0  0
   58.8420   34.5680   45.0140 C   0  0  0  0  0  0  0  0  0  0  0  0
   58.7983   35.5901   44.6099 H   0  0  0  0  0  0  0  0  0  0  0  0
   59.5721   33.9621   44.4575 H   0  0  0  0  0  0  0  0  0  0  0  0
   57.4610   33.9150   44.8740 C   0  0  0  0  0  0  0  0  0  0  0  0
   56.7312   34.5085   45.4442 H   0  0  0  0  0  0  0  0  0  0  0  0
   57.2127   33.8870   43.8028 H   0  0  0  0  0  0  0  0  0  0  0  0
   58.1130   29.2070   46.7280 C   0  0  0  0  0  0  0  0  0  0  0  0
   57.5660   29.8861   47.3985 H   0  0  0  0  0  0  0  0  0  0  0  0
  1  2  1  0
  2  3  1  0
  3  4  1  0
  4  5  2  0
  5  6  1  0
  6  7  1  0
  6  8  1  0
  6  9  1  0
  9 10  1  0
  9 11  1  0
  9 12  1  0
 12 13  2  0
 13 14  1  0
 13 15  1  0
 15 16  1  0
 15 17  2  0
 17 18  1  0
 17 19  1  0
 19 20  1  0
 19 21  2  0
 21 22  1  0
  4 23  1  0
 23 24  1  0
 24 25  1  0
 25 26  2  0
 26 27  1  0
 26 28  1  0
 28 29  1  0
 28 30  2  0
 30 31  1  0
 31 32  1  0
 32 33  1  0
 32 34  1  0
 32 35  1  0
 30 36  1  0
 36 37  1  0
 37 38  1  0
 38 39  1  0
 38 40  1  0
 38 41  1  0
 41 42  1  0
 41 43  1  0
 41 44  1  0
 44 45  1  0
 45 46  1  0
 45 47  1  0
 45 48  1  0
 48 49  1  0
 48 50  1  0
 48 51  1  0
 51 52  1  0
 51 53  1  0
 51 54  1  0
 54 55  1  0
 54 56  1  0
 54 57  1  0
 57 58  1  0
 57 59  1  0
 36 60  2  0
 60 61  1  0
 24  2  2  0
 60 25  1  0
 21 12  1  0
 57 44  1  0
M  CHG  2  21   1  23  -1
M  END
>  <UniqueID>  (3) 
3

>  <SMILES>  (3) 
COc1ccc(-c2cs/c(=N/CCc3cccc[nH+]3)[n-]2)cc1OCCN1CCCCC1

>  <Energy>  (3) 
96.66035629085027

>  <Genealogy>  (3) 
COc1ccc(-c2csc(=NCCc3cccc[nH+]3)[n-]2)cc1OCCN1CCCCC1 (protonated)
COc1ccc(-c2cs/c(=N/CCc3cccc[nH+]3)[n-]2)cc1OCCN1CCCCC1 (cis-trans isomerization)
COc1ccc(-c2cs/c(=N/CCc3cccc[nH+]3)[n-]2)cc1OCCN1CCCCC1 (3D coordinates assigned)
COc1ccc(-c2cs/c(=N/CCc3cccc[nH+]3)[n-]2)cc1OCCN1CCCCC1 (nonaromatic ring conformer: 96.66035629085027 kcal/mol)

>  <smiles>  (3) 
COc1ccc(-c2csc(=NCCc3ccccn3)[nH]2)cc1OCCN1CCCCC1

>  <score_type>  (3) 
oracle

>  <origin>  (3) 
adg

>  <m_score__min__energy>  (3) 
-7.9100000000000001

>  <m_primary>  (3) 
energy

$$$$
3:0
     RDKit          3D

 51 53  0  0  0  0  0  0  0  0999 V2000
   59.9190   26.7880   47.6020 C   0  0  0  0  0  0  0  0  0  0  0  0
   59.0370   27.9550   47.4920 N   0  0  0  0  0  0  0  0  0  0  0  0
   59.1320   29.0280   48.4940 C   0  0  0  0  0  0  0  0  0  0  0  0
   60.2980   29.9230   48.2060 C   0  0  0  0  0  0  0  0  0  0  0  0
   60.6530   30.4220   46.9680 C   0  0  0  0  0  0  0  0  0  0  0  0
   61.7720   31.1960   47.1890 C   0  0  0  0  0  0  0  0  0  0  0  0
   62.0270   31.1250   48.5440 C   0  0  0  0  0  0  0  0  0  0  0  0
   61.1280   30.3620   49.1230 O   0  0  0  0  0  0  0  0  0  0  0  0
   58.0790   28.0050   46.4080 C   0  0  0  0  0  0  0  0  0  0  0  0
   57.0810   27.2290   46.4330 O   0  0  0  0  0  0  0  0  0  0  0  0
   58.2670   28.9430   45.2330 C   0  0  0  0  0  0  0  0  0  0  0  0
   57.3560   30.1940   45.2500 C   0  0  2  0  0  0  0  0  0  0  0  0
   56.1250   29.9780   44.3970 C   0  0  0  0  0  0  0  0  0  0  0  0
   55.1430   29.3360   44.8530 O   0  0  0  0  0  0  0  0  0  0  0  0
   56.0930   30.4390   43.0460 N   0  0  0  0  0  0  0  0  0  0  0  0
   57.0250   31.4390   42.5450 C   0  0  0  0  0  0  0  0  0  0  0  0
   58.3440   31.4010   43.3280 C   0  0  0  0  0  0  0  0  0  0  0  0
   58.1320   31.3790   44.7980 N   0  0  0  0  0  0  0  0  0  0  0  0
   57.5820   32.6460   45.3340 C   0  0  0  0  0  0  0  0  0  0  0  0
   58.4600   33.1980   46.4270 C   0  0  0  0  0  0  0  0  0  0  0  0
   59.4540   34.1440   46.1370 C   0  0  0  0  0  0  0  0  0  0  0  0
   60.2940   34.6180   47.1490 C   0  0  0  0  0  0  0  0  0  0  0  0
   60.1490   34.1520   48.4700 C   0  0  0  0  0  0  0  0  0  0  0  0
   60.9670   34.5880   49.5250 O   0  0  0  0  0  0  0  0  0  0  0  0
   62.3200   34.1870   49.7360 C   0  0  0  0  0  0  0  0  0  0  0  0
   62.9370   33.9250   48.5250 F   0  0  0  0  0  0  0  0  0  0  0  0
   62.3610   33.0640   50.5420 F   0  0  0  0  0  0  0  0  0  0  0  0
   62.9970   35.2120   50.3690 F   0  0  0  0  0  0  0  0  0  0  0  0
   59.1520   33.2130   48.7550 C   0  0  0  0  0  0  0  0  0  0  0  0
   58.3150   32.7340   47.7430 C   0  0  0  0  0  0  0  0  0  0  0  0
   60.0926   26.5583   48.6637 H   0  0  0  0  0  0  0  0  0  0  0  0
   59.4464   25.9237   47.1124 H   0  0  0  0  0  0  0  0  0  0  0  0
   60.8794   27.0068   47.1124 H   0  0  0  0  0  0  0  0  0  0  0  0
   58.2071   29.6230   48.4740 H   0  0  0  0  0  0  0  0  0  0  0  0
   59.2732   28.5730   49.4855 H   0  0  0  0  0  0  0  0  0  0  0  0
   60.1487   30.2400   46.0075 H   0  0  0  0  0  0  0  0  0  0  0  0
   62.3462   31.7572   46.4371 H   0  0  0  0  0  0  0  0  0  0  0  0
   62.8566   31.6304   49.0601 H   0  0  0  0  0  0  0  0  0  0  0  0
   59.3136   29.2817   45.2293 H   0  0  0  0  0  0  0  0  0  0  0  0
   57.9929   28.3721   44.3336 H   0  0  0  0  0  0  0  0  0  0  0  0
   57.0085   30.3743   46.2780 H   0  0  0  0  0  0  0  0  0  0  0  0
   57.2309   31.2390   41.4831 H   0  0  0  0  0  0  0  0  0  0  0  0
   56.5721   32.4338   42.6685 H   0  0  0  0  0  0  0  0  0  0  0  0
   58.9004   30.4975   43.0382 H   0  0  0  0  0  0  0  0  0  0  0  0
   58.9039   32.3160   43.0845 H   0  0  0  0  0  0  0  0  0  0  0  0
   57.5163   33.3823   44.5195 H   0  0  0  0  0  0  0  0  0  0  0  0
   56.5855   32.4447   45.7540 H   0  0  0  0  0  0  0  0  0  0  0  0
   59.5732   34.5148   45.1083 H   0  0  0  0  0  0  0  0  0  0  0  0
   61.0721   35.3586   46.9123 H   0  0  0  0  0  0  0  0  0  0  0  0
   59.0255   32.8482   49.7850 H   0  0  0  0  0  0  0  0  0  0  0  0
   57.5397   31.9904   47.9794 H   0  0  0  0  0  0  0  0  0  0  0  0
  1  2  1  0
  2  3  1  0
  3  4  1  0
  4  5  2  0
  5  6  1  0
  6  7  2  0
  7  8  1  0
  2  9  1  0
  9 10  2  0
  9 11  1  0
 11 12  1  0
 12 13  1  0
 13 14  2  0
 13 15  1  0
 15 16  1  0
 16 17  1  0
 17 18  1  0
 18 19  1  0
 19 20  1  0
 20 21  2  0
 21 22  1  0
 22 23  2  0
 23 24  1  0
 24 25  1  0
 25 26  1  0
 25 27  1  0
 25 28  1  0
 23 29  1  0
 29 30  2  0
  8  4  1  0
 18 12  1  0
 30 20  1  0
  1 31  1  0
  1 32  1  0
  1 33  1  0
  3 34  1  0
  3 35  1  0
  5 36  1  0
  6 37  1  0
  7 38  1  0
 11 39  1  0
 11 40  1  0
 12 41  1  1
 16 42  1  0
 16 43  1  0
 17 44  1  0
 17 45  1  0
 19 46  1  0
 19 47  1  0
 21 48  1  0
 22 49  1  0
 29 50  1  0
 30 51  1  0
M  CHG  1  15  -1
M  END
>  <UniqueID>  (4) 
4

>  <SMILES>  (4) 
CN(Cc1ccco1)C(=O)C[C@@H]1C(=O)[N-]CCN1Cc1ccc(OC(F)(F)F)cc1

>  <Energy>  (4) 
82.10865168868325

>  <Genealogy>  (4) 
CN(Cc1ccco1)C(=O)CC1C(=O)[N-]CCN1Cc1ccc(OC(F)(F)F)cc1 (protonated)
CN(Cc1ccco1)C(=O)C[C@@H]1C(=O)[N-]CCN1Cc1ccc(OC(F)(F)F)cc1 (chirality)
CN(Cc1ccco1)C(=O)C[C@@H]1C(=O)[N-]CCN1Cc1ccc(OC(F)(F)F)cc1 (3D coordinates assigned)
CN(Cc1ccco1)C(=O)C[C@@H]1C(=O)[N-]CCN1Cc1ccc(OC(F)(F)F)cc1 (nonaromatic ring conformer: 82.10865168868325 kcal/mol)

>  <smiles>  (4) 
CN(Cc1ccco1)C(=O)CC1C(=O)NCCN1Cc1ccc(OC(F)(F)F)cc1

>  <score_type>  (4) 
oracle

>  <origin>  (4) 
adg

>  <m_score__min__energy>  (4) 
-9.2200000000000006

>  <m_primary>  (4) 
energy

$$$$
4:0
     RDKit          3D

 45 48  0  0  0  0  0  0  0  0999 V2000
   57.1170   31.1240   43.5850 C   0  0  0  0  0  0  0  0  0  0  0  0
   56.6710   30.5480   44.8080 O   0  0  0  0  0  0  0  0  0  0  0  0
   57.3160   29.4920   45.4740 C   0  0  0  0  0  0  0  0  0  0  0  0
   56.7250   28.2210   45.6090 C   0  0  0  0  0  0  0  0  0  0  0  0
   57.3880   27.1860   46.2900 C   0  0  0  0  0  0  0  0  0  0  0  0
   56.7400   25.8560   46.4090 C   0  0  0  0  0  0  0  0  0  0  0  0
   57.3920   24.7650   47.0140 C   0  0  0  0  0  0  0  0  0  0  0  0
   56.7350   23.5380   47.1030 C   0  0  0  0  0  0  0  0  0  0  0  0
   57.3160   22.5590   47.6450 O   0  0  0  0  0  0  0  0  0  0  0  0
   55.4360   23.4130   46.5890 C   0  0  0  0  0  0  0  0  0  0  0  0
   54.7160   22.2050   46.6450 C   0  0  0  0  0  0  0  0  0  0  0  0
   53.4210   22.1370   46.1230 C   0  0  0  0  0  0  0  0  0  0  0  0
   52.8350   23.2660   45.5450 C   0  0  0  0  0  0  0  0  0  0  0  0
   53.5410   24.4720   45.4860 C   0  0  0  0  0  0  0  0  0  0  0  0
   54.8380   24.5520   46.0040 C   0  0  0  0  0  0  0  0  0  0  0  0
   55.5010   25.7020   45.9420 O   0  0  0  0  0  0  0  0  0  0  0  0
   58.6700   27.4310   46.8130 C   0  0  0  0  0  0  0  0  0  0  0  0
   59.2610   28.6870   46.6800 C   0  0  0  0  0  0  0  0  0  0  0  0
   58.5870   29.7290   46.0160 C   0  0  0  0  0  0  0  0  0  0  0  0
   59.1450   31.0100   45.8670 O   0  0  0  0  0  0  0  0  0  0  0  0
   59.3890   31.9360   46.9260 C   0  0  0  0  0  0  0  0  0  0  0  0
   60.8570   32.2650   47.0240 C   0  0  0  0  0  0  0  0  0  0  0  0
   61.7740   31.2920   47.4580 C   0  0  0  0  0  0  0  0  0  0  0  0
   63.1350   31.5950   47.5480 C   0  0  0  0  0  0  0  0  0  0  0  0
   63.5940   32.8670   47.1960 C   0  0  0  0  0  0  0  0  0  0  0  0
   62.6910   33.8380   46.7520 C   0  0  0  0  0  0  0  0  0  0  0  0
   61.3280   33.5400   46.6610 C   0  0  0  0  0  0  0  0  0  0  0  0
   60.4680   34.4930   46.2200 F   0  0  0  0  0  0  0  0  0  0  0  0
   57.7774   31.9769   43.8007 H   0  0  0  0  0  0  0  0  0  0  0  0
   57.6693   30.3702   43.0046 H   0  0  0  0  0  0  0  0  0  0  0  0
   56.2490   31.4700   43.0046 H   0  0  0  0  0  0  0  0  0  0  0  0
   55.7311   28.0359   45.1756 H   0  0  0  0  0  0  0  0  0  0  0  0
   58.4107   24.8792   47.4131 H   0  0  0  0  0  0  0  0  0  0  0  0
   55.1727   21.3136   47.0999 H   0  0  0  0  0  0  0  0  0  0  0  0
   52.8613   21.1911   46.1675 H   0  0  0  0  0  0  0  0  0  0  0  0
   51.8159   23.2063   45.1353 H   0  0  0  0  0  0  0  0  0  0  0  0
   53.0756   25.3590   45.0315 H   0  0  0  0  0  0  0  0  0  0  0  0
   59.2110   26.6255   47.3312 H   0  0  0  0  0  0  0  0  0  0  0  0
   60.2629   28.8650   47.0978 H   0  0  0  0  0  0  0  0  0  0  0  0
   58.8246   32.8604   46.7336 H   0  0  0  0  0  0  0  0  0  0  0  0
   59.0666   31.4798   47.8736 H   0  0  0  0  0  0  0  0  0  0  0  0
   61.4182   30.2868   47.7282 H   0  0  0  0  0  0  0  0  0  0  0  0
   63.8460   30.8313   47.8964 H   0  0  0  0  0  0  0  0  0  0  0  0
   64.6656   33.1045   47.2682 H   0  0  0  0  0  0  0  0  0  0  0  0
   63.0538   34.8385   46.4737 H   0  0  0  0  0  0  0  0  0  0  0  0
  1  2  1  0
  2  3  1  0
  3  4  2  0
  4  5  1  0
  5  6  1  0
  6  7  2  0
  7  8  1  0
  8  9  2  0
  8 10  1  0
 10 11  2  0
 11 12  1  0
 12 13  2  0
 13 14  1  0
 14 15  2  0
 15 16  1  0
  5 17  2  0
 17 18  1  0
 18 19  2  0
 19 20  1  0
 20 21  1  0
 21 22  1  0
 22 23  2  0
 23 24  1  0
 24 25  2  0
 25 26  1  0
 26 27  2  0
 27 28  1  0
 19  3  1  0
 27 22  1  0
 16  6  1  0
 15 10  1  0
  1 29  1  0
  1 30  1  0
  1 31  1  0
  4 32  1  0
  7 33  1  0
 11 34  1  0
 12 35  1  0
 13 36  1  0
 14 37  1  0
 17 38  1  0
 18 39  1  0
 21 40  1  0
 21 41  1  0
 23 42  1  0
 24 43  1  0
 25 44  1  0
 26 45  1  0
M  END
>  <UniqueID>  (5) 
5

>  <SMILES>  (5) 
COc1cc(-c2cc(=O)c3ccccc3o2)ccc1OCc1ccccc1F

>  <Energy>  (5) 
58.3035332762101

>  <Genealogy>  (5) 
COc1cc(-c2cc(=O)c3ccccc3o2)ccc1OCc1ccccc1F (3D coordinates assigned)
COc1cc(-c2cc(=O)c3ccccc3o2)ccc1OCc1ccccc1F (optimized conformer: 58.3035332762101 kcal/mol)

>  <smiles>  (5) 
COc1cc(-c2cc(=O)c3ccccc3o2)ccc1OCc1ccccc1F

>  <score_type>  (5) 
oracle

>  <origin>  (5) 
adg

>  <m_score__min__energy>  (5) 
-8.1300000000000008

>  <m_primary>  (5) 
energy

$$$$
5:0
     RDKit          3D

 42 44  0  0  0  0  0  0  0  0999 V2000
   56.1580   30.4320   44.4800 O   0  0  0  0  0  0  0  0  0  0  0  0
   57.3290   30.6420   44.1870 C   0  0  0  0  0  0  0  0  0  0  0  0
   57.7030   32.0180   43.6560 C   0  0  0  0  0  0  0  0  0  0  0  0
   58.1110   32.9630   44.7610 C   0  0  0  0  0  0  0  0  0  0  0  0
   59.0680   33.9630   44.5200 C   0  0  0  0  0  0  0  0  0  0  0  0
   59.4710   34.8160   45.5540 C   0  0  0  0  0  0  0  0  0  0  0  0
   58.9310   34.6690   46.8350 C   0  0  0  0  0  0  0  0  0  0  0  0
   57.9900   33.6660   47.0850 C   0  0  0  0  0  0  0  0  0  0  0  0
   57.5830   32.8120   46.0550 C   0  0  0  0  0  0  0  0  0  0  0  0
   58.2790   29.5410   44.3200 N   0  0  0  0  0  0  0  0  0  0  0  0
   57.7860   28.3200   45.0080 C   0  0  0  0  0  0  0  0  0  0  0  0
   57.7740   28.4260   46.5460 C   0  0  0  0  0  0  0  0  0  0  0  0
   59.0250   29.0150   47.0280 N   0  0  0  0  0  0  0  0  0  0  0  0
   59.6780   28.5080   48.2050 C   0  0  0  0  0  0  0  0  0  0  0  0
   59.8940   29.3560   49.3030 C   0  0  0  0  0  0  0  0  0  0  0  0
   60.5330   28.8790   50.4510 C   0  0  0  0  0  0  0  0  0  0  0  0
   60.9630   27.5510   50.5120 C   0  0  0  0  0  0  0  0  0  0  0  0
   60.7520   26.6970   49.4240 C   0  0  0  0  0  0  0  0  0  0  0  0
   60.1130   27.1710   48.2730 C   0  0  0  0  0  0  0  0  0  0  0  0
   59.8940   26.3180   47.2410 F   0  0  0  0  0  0  0  0  0  0  0  0
   59.5000   30.2370   46.3820 C   0  0  0  0  0  0  0  0  0  0  0  0
   59.5720   30.0070   44.8730 C   0  0  0  0  0  0  0  0  0  0  0  0
   58.5425   31.9107   42.9534 H   0  0  0  0  0  0  0  0  0  0  0  0
   56.8175   32.4409   43.1591 H   0  0  0  0  0  0  0  0  0  0  0  0
   59.5019   34.0759   43.5155 H   0  0  0  0  0  0  0  0  0  0  0  0
   60.2138   35.6033   45.3583 H   0  0  0  0  0  0  0  0  0  0  0  0
   59.2464   35.3422   47.6458 H   0  0  0  0  0  0  0  0  0  0  0  0
   57.5686   33.5482   48.0942 H   0  0  0  0  0  0  0  0  0  0  0  0
   56.8475   32.0197   46.2581 H   0  0  0  0  0  0  0  0  0  0  0  0
   58.4810   29.2350   43.3380 H   0  0  0  0  0  0  0  0  0  0  0  0
   56.7590   28.1223   44.6673 H   0  0  0  0  0  0  0  0  0  0  0  0
   58.4823   27.5081   44.7513 H   0  0  0  0  0  0  0  0  0  0  0  0
   56.9311   29.0597   46.8588 H   0  0  0  0  0  0  0  0  0  0  0  0
   57.6677   27.4174   46.9719 H   0  0  0  0  0  0  0  0  0  0  0  0
   59.5582   30.4026   49.2595 H   0  0  0  0  0  0  0  0  0  0  0  0
   60.6975   29.5497   51.3072 H   0  0  0  0  0  0  0  0  0  0  0  0
   61.4673   27.1770   51.4152 H   0  0  0  0  0  0  0  0  0  0  0  0
   61.0891   25.6511   49.4736 H   0  0  0  0  0  0  0  0  0  0  0  0
   58.8044   31.0617   46.5965 H   0  0  0  0  0  0  0  0  0  0  0  0
   60.4975   30.4966   46.7661 H   0  0  0  0  0  0  0  0  0  0  0  0
   59.8480   30.9521   44.3825 H   0  0  0  0  0  0  0  0  0  0  0  0
   60.3234   29.2262   44.6839 H   0  0  0  0  0  0  0  0  0  0  0  0
  1  2  2  0
  2  3  1  0
  3  4  1  0
  4  5  2  0
  5  6  1  0
  6  7  2  0
  7  8  1  0
  8  9  2  0
  2 10  1  0
 10 11  1  0
 11 12  1  0
 12 13  1  0
 13 14  1  0
 14 15  2  0
 15 16  1  0
 16 17  2  0
 17 18  1  0
 18 19  2  0
 19 20  1  0
 13 21  1  0
 21 22  1  0
  9  4  1  0
 22 10  1  0
 19 14  1  0
  3 23  1  0
  3 24  1  0
  5 25  1  0
  6 26  1  0
  7 27  1  0
  8 28  1  0
  9 29  1  0
 10 30  1  0
 11 31  1  0
 11 32  1  0
 12 33  1  0
 12 34  1  0
 15 35  1  0
 16 36  1  0
 17 37  1  0
 18 38  1  0
 21 39  1  0
 21 40  1  0
 22 41  1  0
 22 42  1  0
M  CHG  1  10   1
M  END
>  <UniqueID>  (6) 
6

>  <SMILES>  (6) 
O=C(Cc1ccccc1)[NH+]1CCN(c2ccccc2F)CC1

>  <Energy>  (6) 
57.322570274938556

>  <Genealogy>  (6) 
O=C(Cc1ccccc1)[NH+]1CCN(c2ccccc2F)CC1 (protonated)
O=C(Cc1ccccc1)[NH+]1CCN(c2ccccc2F)CC1 (3D coordinates assigned)
O=C(Cc1ccccc1)[NH+]1CCN(c2ccccc2F)CC1 (nonaromatic ring conformer: 57.322570274938556 kcal/mol)

>  <smiles>  (6) 
O=C(Cc1ccccc1)N1CCN(c2ccccc2F)CC1

>  <score_type>  (6) 
oracle

>  <origin>  (6) 
adg

>  <m_score__min__energy>  (6) 
-5.7999999999999998

>  <m_primary>  (6) 
energy

$$$$
6:0
     RDKit          3D

 49 52  0  0  0  0  0  0  0  0999 V2000
   58.5310   33.4740   52.0940 C   0  0  0  0  0  0  0  0  0  0  0  0
   59.5960   33.7960   51.0530 C   0  0  0  0  0  0  0  0  0  0  0  0
   60.0340   32.5690   50.3700 N   0  0  0  0  0  0  0  0  0  0  0  0
   59.3630   31.2890   50.6470 C   0  0  0  0  0  0  0  0  0  0  0  0
   59.6160   30.3190   49.5650 N   0  0  0  0  0  0  0  0  0  0  0  0
   58.8930   30.4310   48.4090 C   0  0  0  0  0  0  0  0  0  0  0  0
   59.0860   29.5340   47.3510 C   0  0  0  0  0  0  0  0  0  0  0  0
   58.3210   29.6680   46.1340 N   0  0  0  0  0  0  0  0  0  0  0  0
   57.6550   28.5760   45.6240 C   0  0  0  0  0  0  0  0  0  0  0  0
   57.7110   27.1050   46.3690 S   0  0  0  0  0  0  0  0  0  0  0  0
   56.9200   28.6920   44.4850 N   0  0  0  0  0  0  0  0  0  0  0  0
   56.8180   29.8700   43.8200 C   0  0  0  0  0  0  0  0  0  0  0  0
   56.1230   29.9280   42.7680 O   0  0  0  0  0  0  0  0  0  0  0  0
   57.4810   31.0040   44.3040 C   0  0  0  0  0  0  0  0  0  0  0  0
   57.3970   32.2420   43.6390 C   0  0  0  0  0  0  0  0  0  0  0  0
   58.0690   33.3570   44.1370 C   0  0  0  0  0  0  0  0  0  0  0  0
   58.8320   33.2520   45.3000 C   0  0  0  0  0  0  0  0  0  0  0  0
   59.6780   34.6580   45.9200 Cl  0  0  0  0  0  0  0  0  0  0  0  0
   58.9250   32.0300   45.9720 C   0  0  0  0  0  0  0  0  0  0  0  0
   58.2480   30.8830   45.4890 C   0  0  0  0  0  0  0  0  0  0  0  0
   60.0340   28.5190   47.4830 C   0  0  0  0  0  0  0  0  0  0  0  0
   60.7670   28.4100   48.6610 C   0  0  0  0  0  0  0  0  0  0  0  0
   60.5500   29.3190   49.7010 C   0  0  0  0  0  0  0  0  0  0  0  0
   61.2220   29.2000   50.7620 O   0  0  0  0  0  0  0  0  0  0  0  0
   61.2460   32.5770   49.5910 C   0  0  0  0  0  0  0  0  0  0  0  0
   62.4700   32.2200   50.1840 C   0  0  0  0  0  0  0  0  0  0  0  0
   63.6480   32.2210   49.4320 C   0  0  0  0  0  0  0  0  0  0  0  0
   63.6170   32.5820   48.0820 C   0  0  0  0  0  0  0  0  0  0  0  0
   62.4070   32.9460   47.4850 C   0  0  0  0  0  0  0  0  0  0  0  0
   61.2270   32.9450   48.2340 C   0  0  0  0  0  0  0  0  0  0  0  0
   58.9529   33.6016   53.1018 H   0  0  0  0  0  0  0  0  0  0  0  0
   57.6757   34.1537   51.9659 H   0  0  0  0  0  0  0  0  0  0  0  0
   58.1955   32.4343   51.9659 H   0  0  0  0  0  0  0  0  0  0  0  0
   59.1791   34.4940   50.3121 H   0  0  0  0  0  0  0  0  0  0  0  0
   60.4610   34.2516   51.5571 H   0  0  0  0  0  0  0  0  0  0  0  0
   59.7441   30.8798   51.5943 H   0  0  0  0  0  0  0  0  0  0  0  0
   58.2795   31.4667   50.7144 H   0  0  0  0  0  0  0  0  0  0  0  0
   58.1503   31.2362   48.3092 H   0  0  0  0  0  0  0  0  0  0  0  0
   56.4170   27.8570   44.1060 H   0  0  0  0  0  0  0  0  0  0  0  0
   56.7975   32.3299   42.7209 H   0  0  0  0  0  0  0  0  0  0  0  0
   57.9975   34.3211   43.6122 H   0  0  0  0  0  0  0  0  0  0  0  0
   59.5312   31.9579   46.8870 H   0  0  0  0  0  0  0  0  0  0  0  0
   60.2013   27.8084   46.6601 H   0  0  0  0  0  0  0  0  0  0  0  0
   61.5148   27.6112   48.7735 H   0  0  0  0  0  0  0  0  0  0  0  0
   62.5005   31.9381   51.2468 H   0  0  0  0  0  0  0  0  0  0  0  0
   64.6007   31.9374   49.9031 H   0  0  0  0  0  0  0  0  0  0  0  0
   64.5442   32.5796   47.4901 H   0  0  0  0  0  0  0  0  0  0  0  0
   62.3832   33.2338   46.4236 H   0  0  0  0  0  0  0  0  0  0  0  0
   60.2778   33.2338   47.7591 H   0  0  0  0  0  0  0  0  0  0  0  0
  1  2  1  0
  2  3  1  0
  3  4  1  0
  4  5  1  0
  5  6  1  0
  6  7  2  0
  7  8  1  0
  8  9  1  0
  9 10  2  0
  9 11  1  0
 11 12  1  0
 12 13  2  0
 12 14  1  0
 14 15  2  0
 15 16  1  0
 16 17  2  0
 17 18  1  0
 17 19  1  0
 19 20  2  0
  7 21  1  0
 21 22  2  0
 22 23  1  0
 23 24  2  0
  3 25  1  0
 25 26  2  0
 26 27  1  0
 27 28  2  0
 28 29  1  0
 29 30  2  0
 23  5  1  0
 30 25  1  0
 20  8  1  0
 20 14  1  0
  1 31  1  0
  1 32  1  0
  1 33  1  0
  2 34  1  0
  2 35  1  0
  4 36  1  0
  4 37  1  0
  6 38  1  0
 11 39  1  0
 15 40  1  0
 16 41  1  0
 19 42  1  0
 21 43  1  0
 22 44  1  0
 26 45  1  0
 27 46  1  0
 28 47  1  0
 29 48  1  0
 30 49  1  0
M  END
>  <UniqueID>  (7) 
7

>  <SMILES>  (7) 
CCN(Cn1cc(-n2c(=S)[nH]c(=O)c3ccc(Cl)cc32)ccc1=O)c1ccccc1

>  <Energy>  (7) 
74.47666752944627

>  <Genealogy>  (7) 
CCN(Cn1cc(-n2c(=S)[nH]c(=O)c3ccc(Cl)cc32)ccc1=O)c1ccccc1 (3D coordinates assigned)
CCN(Cn1cc(-n2c(=S)[nH]c(=O)c3ccc(Cl)cc32)ccc1=O)c1ccccc1 (optimized conformer: 74.47666752944627 kcal/mol)

>  <smiles>  (7) 
CCN(Cn1cc(-n2c(=S)[nH]c(=O)c3ccc(Cl)cc32)ccc1=O)c1ccccc1

>  <score_type>  (7) 
oracle

>  <origin>  (7) 
adg

>  <m_score__min__energy>  (7) 
-8.4299999999999997

>  <m_primary>  (7) 
energy

$$$$
7:0
     RDKit          3D

 43 45  0  0  0  0  0  0  0  0999 V2000
   58.3310   31.3930   50.7390 C   0  0  0  0  0  0  0  0  0  0  0  0
   59.0190   30.2820   50.1740 O   0  0  0  0  0  0  0  0  0  0  0  0
   59.4880   30.2300   48.8520 C   0  0  0  0  0  0  0  0  0  0  0  0
   60.6870   30.8860   48.5490 C   0  0  0  0  0  0  0  0  0  0  0  0
   61.2020   30.8550   47.2500 C   0  0  0  0  0  0  0  0  0  0  0  0
   60.5180   30.1740   46.2420 C   0  0  0  0  0  0  0  0  0  0  0  0
   59.3000   29.5350   46.5210 C   0  0  0  0  0  0  0  0  0  0  0  0
   58.5780   28.7960   45.4660 C   0  0  0  0  0  0  0  0  0  0  0  0
   58.6120   27.4520   45.3640 N   0  0  0  0  0  0  0  0  0  0  0  0
   57.9090   27.1140   44.2960 N   0  0  0  0  0  0  0  0  0  0  0  0
   57.7570   25.7400   43.8260 C   0  0  0  0  0  0  0  0  0  0  0  0
   57.2130   24.8600   44.9500 C   0  0  0  0  0  0  0  0  0  0  0  0
   56.0890   25.5210   45.6220 C   0  0  0  0  0  0  0  0  0  0  0  0
   55.2010   26.0420   46.1520 N   0  0  0  0  0  0  0  0  0  0  0  0
   57.4280   28.2140   43.6870 C   0  0  0  0  0  0  0  0  0  0  0  0
   57.8220   29.3180   44.4170 C   0  0  0  0  0  0  0  0  0  0  0  0
   57.4070   30.7090   44.1650 C   0  0  0  0  0  0  0  0  0  0  0  0
   57.2850   31.1100   42.9750 O   0  0  0  0  0  0  0  0  0  0  0  0
   57.1580   31.5960   45.2610 N   0  0  0  0  0  0  0  0  0  0  0  0
   57.9560   32.7160   45.6680 C   0  0  0  0  0  0  0  0  0  0  0  0
   58.3840   33.6220   44.6880 C   0  0  0  0  0  0  0  0  0  0  0  0
   59.1790   34.7180   45.0360 C   0  0  0  0  0  0  0  0  0  0  0  0
   59.5670   34.9070   46.3640 C   0  0  0  0  0  0  0  0  0  0  0  0
   59.1670   33.9960   47.3470 C   0  0  0  0  0  0  0  0  0  0  0  0
   59.6790   34.2200   49.0100 Cl  0  0  0  0  0  0  0  0  0  0  0  0
   58.3700   32.8990   47.0010 C   0  0  0  0  0  0  0  0  0  0  0  0
   58.7990   29.5450   47.8320 C   0  0  0  0  0  0  0  0  0  0  0  0
   58.3705   31.3292   51.8364 H   0  0  0  0  0  0  0  0  0  0  0  0
   58.8091   32.3270   50.4085 H   0  0  0  0  0  0  0  0  0  0  0  0
   57.2819   31.3812   50.4085 H   0  0  0  0  0  0  0  0  0  0  0  0
   61.2273   31.4293   49.3383 H   0  0  0  0  0  0  0  0  0  0  0  0
   62.1479   31.3681   47.0218 H   0  0  0  0  0  0  0  0  0  0  0  0
   60.9352   30.1379   45.2248 H   0  0  0  0  0  0  0  0  0  0  0  0
   57.0574   25.7207   42.9773 H   0  0  0  0  0  0  0  0  0  0  0  0
   58.7382   25.3561   43.5098 H   0  0  0  0  0  0  0  0  0  0  0  0
   56.8705   23.9038   44.5276 H   0  0  0  0  0  0  0  0  0  0  0  0
   58.0134   24.6854   45.6841 H   0  0  0  0  0  0  0  0  0  0  0  0
   56.8253   28.2306   42.7669 H   0  0  0  0  0  0  0  0  0  0  0  0
   58.0925   33.4697   43.6383 H   0  0  0  0  0  0  0  0  0  0  0  0
   59.4992   35.4321   44.2630 H   0  0  0  0  0  0  0  0  0  0  0  0
   60.1877   35.7730   46.6372 H   0  0  0  0  0  0  0  0  0  0  0  0
   58.0659   32.1772   47.7733 H   0  0  0  0  0  0  0  0  0  0  0  0
   57.8634   29.0152   48.0642 H   0  0  0  0  0  0  0  0  0  0  0  0
  1  2  1  0
  2  3  1  0
  3  4  2  0
  4  5  1  0
  5  6  2  0
  6  7  1  0
  7  8  1  0
  8  9  2  0
  9 10  1  0
 10 11  1  0
 11 12  1  0
 12 13  1  0
 13 14  3  0
 10 15  1  0
 15 16  2  0
 16 17  1  0
 17 18  2  0
 17 19  1  0
 19 20  1  0
 20 21  2  0
 21 22  1  0
 22 23  2  0
 23 24  1  0
 24 25  1  0
 24 26  2  0
  7 27  2  0
 27  3  1  0
 16  8  1  0
 26 20  1  0
  1 28  1  0
  1 29  1  0
  1 30  1  0
  4 31  1  0
  5 32  1  0
  6 33  1  0
 11 34  1  0
 11 35  1  0
 12 36  1  0
 12 37  1  0
 15 38  1  0
 21 39  1  0
 22 40  1  0
 23 41  1  0
 26 42  1  0
 27 43  1  0
M  CHG  1  19  -1
M  END
>  <UniqueID>  (8) 
8

>  <SMILES>  (8) 
COc1cccc(-c2nn(CCC#N)cc2C(=O)[N-]c2cccc(Cl)c2)c1

>  <Energy>  (8) 
78.46208799059471

>  <Genealogy>  (8) 
COc1cccc(-c2nn(CCC#N)cc2C(=O)[N-]c2cccc(Cl)c2)c1 (protonated)
COc1cccc(-c2nn(CCC#N)cc2C(=O)[N-]c2cccc(Cl)c2)c1 (3D coordinates assigned)
COc1cccc(-c2nn(CCC#N)cc2C(=O)[N-]c2cccc(Cl)c2)c1 (optimized conformer: 78.46208799059471 kcal/mol)

>  <smiles>  (8) 
COc1cccc(-c2nn(CCC#N)cc2C(=O)Nc2cccc(Cl)c2)c1

>  <score_type>  (8) 
oracle

>  <origin>  (8) 
adg

>  <m_score__min__energy>  (8) 
-8.9399999999999995

>  <m_primary>  (8) 
energy

$$$$
8:0
     RDKit          3D

 44 47  0  0  0  0  0  0  0  0999 V2000
   59.3310   34.7320   45.9540 C   0  0  0  0  0  0  0  0  0  0  0  0
   57.9550   34.2030   45.5630 C   0  0  0  0  0  0  0  0  0  0  0  0
   58.0860   33.0240   44.7090 N   0  0  0  0  0  0  0  0  0  0  0  0
   58.0700   33.0210   43.3660 C   0  0  0  0  0  0  0  0  0  0  0  0
   58.1460   31.7150   42.9380 C   0  0  0  0  0  0  0  0  0  0  0  0
   58.2000   30.8930   44.0050 N   0  0  0  0  0  0  0  0  0  0  0  0
   58.1500   31.7220   45.0700 C   0  0  0  0  0  0  0  0  0  0  0  0
   58.2080   31.2190   46.4860 C   0  0  0  0  0  0  0  0  0  0  0  0
   58.3770   29.7610   46.5150 N   0  0  0  0  0  0  0  0  0  0  0  0
   59.3860   29.1380   47.3970 C   0  0  0  0  0  0  0  0  0  0  0  0
   60.0630   27.9300   46.7140 C   0  0  0  0  0  0  0  0  0  0  0  0
   59.0520   27.0690   46.1000 N   0  0  0  0  0  0  0  0  0  0  0  0
   59.1560   25.7840   45.7200 C   0  0  0  0  0  0  0  0  0  0  0  0
   57.9880   25.4500   45.0440 C   0  0  0  0  0  0  0  0  0  0  0  0
   57.6820   24.1400   44.4220 C   0  0  0  0  0  0  0  0  0  0  0  0
   56.6290   24.0320   43.4940 C   0  0  0  0  0  0  0  0  0  0  0  0
   56.3250   22.8000   42.9060 C   0  0  0  0  0  0  0  0  0  0  0  0
   57.0710   21.6650   43.2310 C   0  0  0  0  0  0  0  0  0  0  0  0
   56.7750   20.4730   42.6580 F   0  0  0  0  0  0  0  0  0  0  0  0
   58.1240   21.7600   44.1440 C   0  0  0  0  0  0  0  0  0  0  0  0
   58.4340   22.9890   44.7370 C   0  0  0  0  0  0  0  0  0  0  0  0
   59.4940   23.0540   45.5820 F   0  0  0  0  0  0  0  0  0  0  0  0
   57.1860   26.5380   44.9880 N   0  0  0  0  0  0  0  0  0  0  0  0
   57.8720   27.5010   45.6330 C   0  0  0  0  0  0  0  0  0  0  0  0
   57.4760   28.8960   45.7940 C   0  0  0  0  0  0  0  0  0  0  0  0
   56.3980   29.3270   45.3060 O   0  0  0  0  0  0  0  0  0  0  0  0
   59.4136   34.7638   47.0504 H   0  0  0  0  0  0  0  0  0  0  0  0
   60.1082   34.0686   45.5468 H   0  0  0  0  0  0  0  0  0  0  0  0
   59.4636   35.7452   45.5468 H   0  0  0  0  0  0  0  0  0  0  0  0
   57.3991   33.9317   46.4726 H   0  0  0  0  0  0  0  0  0  0  0  0
   57.4157   34.9861   45.0098 H   0  0  0  0  0  0  0  0  0  0  0  0
   58.0070   33.9089   42.7197 H   0  0  0  0  0  0  0  0  0  0  0  0
   58.1605   31.3917   41.8867 H   0  0  0  0  0  0  0  0  0  0  0  0
   59.0574   31.6908   47.0018 H   0  0  0  0  0  0  0  0  0  0  0  0
   57.2641   31.4745   46.9898 H   0  0  0  0  0  0  0  0  0  0  0  0
   60.1540   29.8852   47.6457 H   0  0  0  0  0  0  0  0  0  0  0  0
   58.8786   28.7821   48.3058 H   0  0  0  0  0  0  0  0  0  0  0  0
   60.7539   28.2908   45.9378 H   0  0  0  0  0  0  0  0  0  0  0  0
   60.6173   27.3531   47.4690 H   0  0  0  0  0  0  0  0  0  0  0  0
   60.0103   25.1175   45.9095 H   0  0  0  0  0  0  0  0  0  0  0  0
   56.0410   24.9232   43.2294 H   0  0  0  0  0  0  0  0  0  0  0  0
   55.4967   22.7248   42.1861 H   0  0  0  0  0  0  0  0  0  0  0  0
   58.7117   20.8654   44.3977 H   0  0  0  0  0  0  0  0  0  0  0  0
   56.2680   26.6420   44.5020 H   0  0  0  0  0  0  0  0  0  0  0  0
  1  2  1  0
  2  3  1  0
  3  4  1  0
  4  5  2  0
  5  6  1  0
  6  7  2  0
  7  8  1  0
  8  9  1  0
  9 10  1  0
 10 11  1  0
 11 12  1  0
 12 13  1  0
 13 14  2  0
 14 15  1  0
 15 16  2  0
 16 17  1  0
 17 18  2  0
 18 19  1  0
 18 20  1  0
 20 21  2  0
 21 22  1  0
 14 23  1  0
 23 24  2  0
 24 25  1  0
 25 26  2  0
  7  3  1  0
 25  9  1  0
 24 12  1  0
 21 15  1  0
  1 27  1  0
  1 28  1  0
  1 29  1  0
  2 30  1  0
  2 31  1  0
  4 32  1  0
  5 33  1  0
  8 34  1  0
  8 35  1  0
 10 36  1  0
 10 37  1  0
 11 38  1  0
 11 39  1  0
 13 40  1  0
 16 41  1  0
 17 42  1  0
 20 43  1  0
 23 44  1  0
M  CHG  1  23   1
M  END
>  <UniqueID>  (9) 
9

>  <SMILES>  (9) 
CCn1ccnc1CN1CCn2cc(-c3ccc(F)cc3F)[nH+]c2C1=O

>  <Energy>  (9) 
107.51401768505006

>  <Genealogy>  (9) 
CCn1ccnc1CN1CCn2cc(-c3ccc(F)cc3F)[nH+]c2C1=O (protonated)
CCn1ccnc1CN1CCn2cc(-c3ccc(F)cc3F)[nH+]c2C1=O (3D coordinates assigned)
CCn1ccnc1CN1CCn2cc(-c3ccc(F)cc3F)[nH+]c2C1=O (nonaromatic ring conformer: 107.51401768505006 kcal/mol)

>  <smiles>  (9) 
CCn1ccnc1CN1CCn2cc(-c3ccc(F)cc3F)nc2C1=O

>  <score_type>  (9) 
oracle

>  <origin>  (9) 
adg

>  <m_score__min__energy>  (9) 
-5.9199999999999999

>  <m_primary>  (9) 
energy

$$$$
9:0
     RDKit          3D

 36 38  0  0  0  0  0  0  0  0999 V2000
   56.9340   27.7190   45.6100 C   0  0  0  0  0  0  0  0  0  0  0  0
   56.1650   28.8410   45.1870 O   0  0  0  0  0  0  0  0  0  0  0  0
   56.6870   29.9410   44.4890 C   0  0  0  0  0  0  0  0  0  0  0  0
   56.5220   30.1010   43.1010 C   0  0  0  0  0  0  0  0  0  0  0  0
   57.0620   31.2140   42.4530 C   0  0  0  0  0  0  0  0  0  0  0  0
   57.7680   32.1770   43.1790 C   0  0  0  0  0  0  0  0  0  0  0  0
   57.9410   32.0320   44.5640 C   0  0  0  0  0  0  0  0  0  0  0  0
   58.6870   33.0530   45.3290 C   0  0  0  0  0  0  0  0  0  0  0  0
   59.3790   32.7880   46.4590 N   0  0  0  0  0  0  0  0  0  0  0  0
   59.8840   33.9890   46.7950 C   0  0  0  0  0  0  0  0  0  0  0  0
   60.7060   34.2360   48.0200 C   0  0  0  0  0  0  0  0  0  0  0  0
   61.7720   33.2410   48.1180 N   0  0  0  0  0  0  0  0  0  0  0  0
   61.8370   32.2310   49.0080 C   0  0  0  0  0  0  0  0  0  0  0  0
   63.0370   31.5740   48.8360 C   0  0  0  0  0  0  0  0  0  0  0  0
   63.7220   32.1800   47.8470 N   0  0  0  0  0  0  0  0  0  0  0  0
   62.9350   33.1910   47.4290 C   0  0  0  0  0  0  0  0  0  0  0  0
   63.3390   34.1670   46.3670 C   0  0  0  0  0  0  0  0  0  0  0  0
   59.4840   34.9330   45.8790 C   0  0  0  0  0  0  0  0  0  0  0  0
   58.7500   34.3220   44.9850 O   0  0  0  0  0  0  0  0  0  0  0  0
   57.3960   30.9090   45.2110 C   0  0  0  0  0  0  0  0  0  0  0  0
   56.9578   27.6842   46.7092 H   0  0  0  0  0  0  0  0  0  0  0  0
   56.4782   26.7954   45.2237 H   0  0  0  0  0  0  0  0  0  0  0  0
   57.9598   27.8109   45.2237 H   0  0  0  0  0  0  0  0  0  0  0  0
   55.9659   29.3471   42.5244 H   0  0  0  0  0  0  0  0  0  0  0  0
   56.9312   31.3331   41.3673 H   0  0  0  0  0  0  0  0  0  0  0  0
   58.1897   33.0520   42.6628 H   0  0  0  0  0  0  0  0  0  0  0  0
   61.1501   35.2408   47.9637 H   0  0  0  0  0  0  0  0  0  0  0  0
   60.0608   34.1614   48.9078 H   0  0  0  0  0  0  0  0  0  0  0  0
   61.0635   31.9742   49.7467 H   0  0  0  0  0  0  0  0  0  0  0  0
   63.3782   30.7004   49.4108 H   0  0  0  0  0  0  0  0  0  0  0  0
   64.6720   31.9260   47.4950 H   0  0  0  0  0  0  0  0  0  0  0  0
   63.7191   35.0853   46.8384 H   0  0  0  0  0  0  0  0  0  0  0  0
   64.1271   33.7227   45.7414 H   0  0  0  0  0  0  0  0  0  0  0  0
   62.4674   34.4097   45.7414 H   0  0  0  0  0  0  0  0  0  0  0  0
   59.7348   36.0039   45.8949 H   0  0  0  0  0  0  0  0  0  0  0  0
   57.5280   30.7894   46.2965 H   0  0  0  0  0  0  0  0  0  0  0  0
  1  2  1  0
  2  3  1  0
  3  4  2  0
  4  5  1  0
  5  6  2  0
  6  7  1  0
  7  8  1  0
  8  9  2  0
  9 10  1  0
 10 11  1  0
 11 12  1  0
 12 13  1  0
 13 14  2  0
 14 15  1  0
 15 16  2  0
 16 17  1  0
 10 18  2  0
 18 19  1  0
  7 20  2  0
 20  3  1  0
 19  8  1  0
 16 12  1  0
  1 21  1  0
  1 22  1  0
  1 23  1  0
  4 24  1  0
  5 25  1  0
  6 26  1  0
 11 27  1  0
 11 28  1  0
 13 29  1  0
 14 30  1  0
 15 31  1  0
 17 32  1  0
 17 33  1  0
 17 34  1  0
 18 35  1  0
 20 36  1  0
M  CHG  1  15   1
M  END
>  <UniqueID>  (10) 
10

>  <SMILES>  (10) 
COc1cccc(-c2nc(Cn3cc[nH+]c3C)co2)c1

>  <Energy>  (10) 
94.01643918993213

>  <Genealogy>  (10) 
COc1cccc(-c2nc(Cn3cc[nH+]c3C)co2)c1 (protonated)
COc1cccc(-c2nc(Cn3cc[nH+]c3C)co2)c1 (3D coordinates assigned)
COc1cccc(-c2nc(Cn3cc[nH+]c3C)co2)c1 (optimized conformer: 94.01643918993213 kcal/mol)

>  <smiles>  (10) 
COc1cccc(-c2nc(Cn3ccnc3C)co2)c1

>  <score_type>  (10) 
oracle

>  <origin>  (10) 
adg

>  <m_score__min__energy>  (10) 
-5.8499999999999996

>  <m_primary>  (10) 
energy

$$$$
10:0
     RDKit          3D

 49 52  0  0  0  0  0  0  0  0999 V2000
   56.9720   28.1050   45.2460 C   0  0  0  0  0  0  0  0  0  0  0  0
   56.4780   29.4410   45.2300 O   0  0  0  0  0  0  0  0  0  0  0  0
   56.9830   30.4690   44.4180 C   0  0  0  0  0  0  0  0  0  0  0  0
   56.6390   30.5730   43.0560 C   0  0  0  0  0  0  0  0  0  0  0  0
   57.1890   31.5830   42.2630 C   0  0  0  0  0  0  0  0  0  0  0  0
   58.0690   32.5100   42.8210 C   0  0  0  0  0  0  0  0  0  0  0  0
   58.4110   32.4240   44.1720 C   0  0  0  0  0  0  0  0  0  0  0  0
   57.8720   31.4090   44.9790 C   0  0  0  0  0  0  0  0  0  0  0  0
   58.2340   31.3390   46.3700 N   0  0  0  0  0  0  0  0  0  0  0  0
   58.9100   30.1430   46.8830 C   0  0  0  0  0  0  0  0  0  0  0  0
   58.9070   30.1410   48.4110 C   0  0  0  0  0  0  0  0  0  0  0  0
   59.4960   31.3950   48.9260 N   0  0  0  0  0  0  0  0  0  0  0  0
   59.5880   31.4400   50.4010 C   0  0  0  0  0  0  0  0  0  0  0  0
   58.2730   31.5680   51.0420 N   0  0  0  0  0  0  0  0  0  0  0  0
   57.3200   30.6510   50.9920 N   0  0  0  0  0  0  0  0  0  0  0  0
   56.2910   31.1140   51.7350 C   0  0  0  0  0  0  0  0  0  0  0  0
   55.0000   30.4230   51.9450 C   0  0  0  0  0  0  0  0  0  0  0  0
   54.8900   29.3180   52.8060 C   0  0  0  0  0  0  0  0  0  0  0  0
   53.6510   28.6920   52.9710 C   0  0  0  0  0  0  0  0  0  0  0  0
   52.5600   29.1460   52.2970 N   0  0  0  0  0  0  0  0  0  0  0  0
   52.6340   30.2110   51.4580 C   0  0  0  0  0  0  0  0  0  0  0  0
   53.8540   30.8650   51.2620 C   0  0  0  0  0  0  0  0  0  0  0  0
   56.5960   32.2790   52.2710 O   0  0  0  0  0  0  0  0  0  0  0  0
   57.8140   32.5470   51.8560 C   0  0  0  0  0  0  0  0  0  0  0  0
   58.6570   33.8690   52.3270 S   0  0  0  0  0  0  0  0  0  0  0  0
   58.9780   32.6470   48.3150 C   0  0  0  0  0  0  0  0  0  0  0  0
   57.8580   32.4180   47.2900 C   0  0  0  0  0  0  0  0  0  0  0  0
   57.0951   27.7720   46.2871 H   0  0  0  0  0  0  0  0  0  0  0  0
   56.2588   27.4442   44.7316 H   0  0  0  0  0  0  0  0  0  0  0  0
   57.9436   28.0671   44.7316 H   0  0  0  0  0  0  0  0  0  0  0  0
   55.9329   29.8545   42.6141 H   0  0  0  0  0  0  0  0  0  0  0  0
   56.9275   31.6473   41.1965 H   0  0  0  0  0  0  0  0  0  0  0  0
   58.4940   33.3095   42.1963 H   0  0  0  0  0  0  0  0  0  0  0  0
   59.1072   33.1561   44.6071 H   0  0  0  0  0  0  0  0  0  0  0  0
   58.3863   29.2468   46.5187 H   0  0  0  0  0  0  0  0  0  0  0  0
   59.9515   30.1435   46.5291 H   0  0  0  0  0  0  0  0  0  0  0  0
   57.8718   30.0512   48.7719 H   0  0  0  0  0  0  0  0  0  0  0  0
   59.5057   29.2905   48.7692 H   0  0  0  0  0  0  0  0  0  0  0  0
   60.0636   30.5129   50.7534 H   0  0  0  0  0  0  0  0  0  0  0  0
   60.1802   32.3263   50.6724 H   0  0  0  0  0  0  0  0  0  0  0  0
   57.3980   29.7320   50.5000 H   0  0  0  0  0  0  0  0  0  0  0  0
   55.7734   28.9478   53.3469 H   0  0  0  0  0  0  0  0  0  0  0  0
   53.5580   27.8298   53.6478 H   0  0  0  0  0  0  0  0  0  0  0  0
   51.7330   30.5596   50.9319 H   0  0  0  0  0  0  0  0  0  0  0  0
   53.9167   31.7224   50.5757 H   0  0  0  0  0  0  0  0  0  0  0  0
   58.5874   33.2892   49.1181 H   0  0  0  0  0  0  0  0  0  0  0  0
   59.8166   33.1114   47.7754 H   0  0  0  0  0  0  0  0  0  0  0  0
   56.9327   32.1418   47.8168 H   0  0  0  0  0  0  0  0  0  0  0  0
   57.6983   33.3429   46.7164 H   0  0  0  0  0  0  0  0  0  0  0  0
  1  2  1  0
  2  3  1  0
  3  4  2  0
  4  5  1  0
  5  6  2  0
  6  7  1  0
  7  8  2  0
  8  9  1  0
  9 10  1  0
 10 11  1  0
 11 12  1  0
 12 13  1  0
 13 14  1  0
 14 15  1  0
 15 16  2  0
 16 17  1  0
 17 18  2  0
 18 19  1  0
 19 20  2  0
 20 21  1  0
 21 22  2  0
 16 23  1  0
 23 24  1  0
 24 25  2  0
 12 26  1  0
 26 27  1  0
  8  3  1  0
 27  9  1  0
 24 14  1  0
 22 17  1  0
  1 28  1  0
  1 29  1  0
  1 30  1  0
  4 31  1  0
  5 32  1  0
  6 33  1  0
  7 34  1  0
 10 35  1  0
 10 36  1  0
 11 37  1  0
 11 38  1  0
 13 39  1  0
 13 40  1  0
 15 41  1  0
 18 42  1  0
 19 43  1  0
 21 44  1  0
 22 45  1  0
 26 46  1  0
 26 47  1  0
 27 48  1  0
 27 49  1  0
M  CHG  1  15   1
M  END
>  <UniqueID>  (11) 
11

>  <SMILES>  (11) 
COc1ccccc1N1CCN(Cn2[nH+]c(-c3ccncc3)oc2=S)CC1

>  <Energy>  (11) 
105.45316456087035

>  <Genealogy>  (11) 
COc1ccccc1N1CCN(Cn2[nH+]c(-c3ccncc3)oc2=S)CC1 (protonated)
COc1ccccc1N1CCN(Cn2[nH+]c(-c3ccncc3)oc2=S)CC1 (3D coordinates assigned)
COc1ccccc1N1CCN(Cn2[nH+]c(-c3ccncc3)oc2=S)CC1 (nonaromatic ring conformer: 105.45316456087035 kcal/mol)

>  <smiles>  (11) 
COc1ccccc1N1CCN(Cn2nc(-c3ccncc3)oc2=S)CC1

>  <score_type>  (11) 
oracle

>  <origin>  (11) 
adg

>  <m_score__min__energy>  (11) 
-6.46

>  <m_primary>  (11) 
energy

$$$$
11:0
     RDKit          3D

 61 63  0  0  0  0  0  0  0  0999 V2000
   54.4895   29.2545   44.0337 H   0  0  0  0  0  0  0  0  0  0  0  0
   55.4820   29.4940   44.4430 C   0  0  0  0  0  0  0  0  0  0  0  0
   56.1230   28.5980   45.2250 N   0  0  0  0  0  0  0  0  0  0  0  0
   57.3600   28.8380   45.7290 C   0  0  0  0  0  0  0  0  0  0  0  0
   57.9640   27.8430   46.5070 C   0  0  0  0  0  0  0  0  0  0  0  0
   57.4161   26.9156   46.7299 H   0  0  0  0  0  0  0  0  0  0  0  0
   59.2530   28.0200   47.0000 C   0  0  0  0  0  0  0  0  0  0  0  0
   59.9930   26.7820   47.9960 Cl  0  0  0  0  0  0  0  0  0  0  0  0
   59.9590   29.1760   46.6840 C   0  0  0  0  0  0  0  0  0  0  0  0
   60.9932   29.2978   47.0383 H   0  0  0  0  0  0  0  0  0  0  0  0
   59.3640   30.1850   45.9190 C   0  0  0  0  0  0  0  0  0  0  0  0
   59.9417   31.0892   45.6767 H   0  0  0  0  0  0  0  0  0  0  0  0
   58.0350   30.0660   45.4510 C   0  0  0  0  0  0  0  0  0  0  0  0
   57.3310   31.0550   44.6770 C   0  0  0  0  0  0  0  0  0  0  0  0
   57.7120   32.2870   44.4340 N   0  0  0  0  0  0  0  0  0  0  0  0
   57.4380   33.5900   45.0370 C   0  0  0  0  0  0  0  0  0  0  0  0
   56.3549   33.6900   45.2012 H   0  0  0  0  0  0  0  0  0  0  0  0
   57.7980   34.3747   44.3554 H   0  0  0  0  0  0  0  0  0  0  0  0
   58.1650   33.7370   46.3800 C   0  0  0  0  0  0  0  0  0  0  0  0
   58.5824   32.7610   46.6683 H   0  0  0  0  0  0  0  0  0  0  0  0
   57.4387   34.0906   47.1266 H   0  0  0  0  0  0  0  0  0  0  0  0
   59.3070   34.7630   46.2980 C   0  0  0  0  0  0  0  0  0  0  0  0
   59.3740   35.2913   47.2605 H   0  0  0  0  0  0  0  0  0  0  0  0
   59.0756   35.4489   45.4698 H   0  0  0  0  0  0  0  0  0  0  0  0
   60.6710   34.1180   45.9960 C   0  0  0  0  0  0  0  0  0  0  0  0
   61.2697   34.8405   45.4219 H   0  0  0  0  0  0  0  0  0  0  0  0
   60.4553   33.1907   45.4450 H   0  0  0  0  0  0  0  0  0  0  0  0
   61.4890   33.6990   47.2380 C   0  0  0  0  0  0  0  0  0  0  0  0
   60.9937   34.1029   48.1333 H   0  0  0  0  0  0  0  0  0  0  0  0
   62.5049   34.0996   47.1058 H   0  0  0  0  0  0  0  0  0  0  0  0
   61.6170   32.2350   47.3950 N   0  0  0  0  0  0  0  0  0  0  0  0
   60.7570   31.7540   47.0420 H   0  0  0  0  0  0  0  0  0  0  0  0
   61.8550   31.8210   48.7840 C   0  0  0  0  0  0  0  0  0  0  0  0
   62.2893   32.6645   49.3407 H   0  0  0  0  0  0  0  0  0  0  0  0
   62.5447   30.9641   48.7795 H   0  0  0  0  0  0  0  0  0  0  0  0
   60.5730   31.3990   49.4520 C   0  0  0  0  0  0  0  0  0  0  0  0
   60.3960   30.0690   49.8590 C   0  0  0  0  0  0  0  0  0  0  0  0
   61.2028   29.3371   49.7063 H   0  0  0  0  0  0  0  0  0  0  0  0
   59.1980   29.6700   50.4580 C   0  0  0  0  0  0  0  0  0  0  0  0
   59.0649   28.6210   50.7610 H   0  0  0  0  0  0  0  0  0  0  0  0
   58.1650   30.5900   50.6770 C   0  0  0  0  0  0  0  0  0  0  0  0
   56.9890   30.1220   51.2880 O   0  0  0  0  0  0  0  0  0  0  0  0
   56.0150   30.9050   51.9830 C   0  0  0  0  0  0  0  0  0  0  0  0
   55.8949   31.8689   51.4668 H   0  0  0  0  0  0  0  0  0  0  0  0
   56.3636   31.0581   53.0150 H   0  0  0  0  0  0  0  0  0  0  0  0
   54.6560   30.1890   52.0300 C   0  0  0  0  0  0  0  0  0  0  0  0
   54.4142   29.9790   53.0823 H   0  0  0  0  0  0  0  0  0  0  0  0
   54.7608   29.2774   51.4234 H   0  0  0  0  0  0  0  0  0  0  0  0
   53.4950   30.9890   51.4210 C   0  0  0  0  0  0  0  0  0  0  0  0
   53.9092   31.7584   50.7528 H   0  0  0  0  0  0  0  0  0  0  0  0
   52.9265   31.4360   52.2499 H   0  0  0  0  0  0  0  0  0  0  0  0
   52.5340   30.1100   50.6200 C   0  0  0  0  0  0  0  0  0  0  0  0
   51.9026   29.5325   51.3113 H   0  0  0  0  0  0  0  0  0  0  0  0
   51.8978   30.7453   49.9862 H   0  0  0  0  0  0  0  0  0  0  0  0
   53.1102   29.4198   49.9862 H   0  0  0  0  0  0  0  0  0  0  0  0
   58.3540   31.9310   50.2910 C   0  0  0  0  0  0  0  0  0  0  0  0
   57.5603   32.6702   50.4741 H   0  0  0  0  0  0  0  0  0  0  0  0
   59.5440   32.3270   49.6770 C   0  0  0  0  0  0  0  0  0  0  0  0
   59.6761   33.3742   49.3672 H   0  0  0  0  0  0  0  0  0  0  0  0
   56.0740   30.7170   44.1550 C   0  0  0  0  0  0  0  0  0  0  0  0
   55.5479   31.4328   43.5063 H   0  0  0  0  0  0  0  0  0  0  0  0
  1  2  1  0
  2  3  1  0
  3  4  1  0
  4  5  2  0
  5  6  1  0
  5  7  1  0
  7  8  1  0
  7  9  2  0
  9 10  1  0
  9 11  1  0
 11 12  1  0
 11 13  2  0
 13 14  1  0
 14 15  2  0
 15 16  1  0
 16 17  1  0
 16 18  1  0
 16 19  1  0
 19 20  1  0
 19 21  1  0
 19 22  1  0
 22 23  1  0
 22 24  1  0
 22 25  1  0
 25 26  1  0
 25 27  1  0
 25 28  1  0
 28 29  1  0
 28 30  1  0
 28 31  1  0
 31 32  1  0
 31 33  1  0
 33 34  1  0
 33 35  1  0
 33 36  1  0
 36 37  2  0
 37 38  1  0
 37 39  1  0
 39 40  1  0
 39 41  2  0
 41 42  1  0
 42 43  1  0
 43 44  1  0
 43 45  1  0
 43 46  1  0
 46 47  1  0
 46 48  1  0
 46 49  1  0
 49 50  1  0
 49 51  1  0
 49 52  1  0
 52 53  1  0
 52 54  1  0
 52 55  1  0
 41 56  1  0
 56 57  1  0
 56 58  2  0
 58 59  1  0
 14 60  1  0
 60 61  1  0
 60  2  2  0
 13  4  1  0
 58 36  1  0
M  CHG  1   3  -1
M  END
>  <UniqueID>  (12) 
12

>  <SMILES>  (12) 
CCCCOc1ccc(CNCCCCC/N=c2/cc[n-]c3cc(Cl)ccc23)cc1

>  <Energy>  (12) 
69.84973797978934

>  <Genealogy>  (12) 
CCCCOc1ccc(CNCCCCCN=c2cc[n-]c3cc(Cl)ccc23)cc1 (protonated)
CCCCOc1ccc(CNCCCCC/N=c2/cc[n-]c3cc(Cl)ccc23)cc1 (cis-trans isomerization)
CCCCOc1ccc(CNCCCCC/N=c2/cc[n-]c3cc(Cl)ccc23)cc1 (3D coordinates assigned)
CCCCOc1ccc(CNCCCCC/N=c2/cc[n-]c3cc(Cl)ccc23)cc1 (optimized conformer: 69.84973797978934 kcal/mol)

>  <smiles>  (12) 
CCCCOc1ccc(CNCCCCCN=c2cc[nH]c3cc(Cl)ccc23)cc1

>  <score_type>  (12) 
oracle

>  <origin>  (12) 
adg

>  <m_score__min__energy>  (12) 
-10.17

>  <m_primary>  (12) 
energy

$$$$
12:0
     RDKit          3D

 38 38  0  0  0  0  0  0  0  0999 V2000
   57.6358   34.1957   44.8077 H   0  0  0  0  0  0  0  0  0  0  0  0
   58.2850   33.5270   45.3920 C   0  0  0  0  0  0  0  0  0  0  0  0
   59.4210   34.0400   46.0230 C   0  0  0  0  0  0  0  0  0  0  0  0
   59.6676   35.1066   45.9153 H   0  0  0  0  0  0  0  0  0  0  0  0
   60.2560   33.2060   46.7970 C   0  0  0  0  0  0  0  0  0  0  0  0
   61.4380   33.7370   47.4530 N   0  0  0  0  0  0  0  0  0  0  0  0
   61.3740   34.2090   48.8420 C   0  0  0  0  0  0  0  0  0  0  0  0
   61.4898   33.3547   49.5252 H   0  0  0  0  0  0  0  0  0  0  0  0
   62.1821   34.9336   49.0206 H   0  0  0  0  0  0  0  0  0  0  0  0
   60.4021   34.6922   49.0206 H   0  0  0  0  0  0  0  0  0  0  0  0
   62.7190   33.8100   46.7390 C   0  0  0  0  0  0  0  0  0  0  0  0
   63.5424   33.8569   47.4669 H   0  0  0  0  0  0  0  0  0  0  0  0
   62.8382   32.9172   46.1076 H   0  0  0  0  0  0  0  0  0  0  0  0
   62.7360   34.7106   46.1076 H   0  0  0  0  0  0  0  0  0  0  0  0
   59.9040   31.8460   46.9260 C   0  0  0  0  0  0  0  0  0  0  0  0
   60.5319   31.1775   47.5333 H   0  0  0  0  0  0  0  0  0  0  0  0
   58.7680   31.3380   46.2920 C   0  0  0  0  0  0  0  0  0  0  0  0
   58.4997   30.2785   46.4165 H   0  0  0  0  0  0  0  0  0  0  0  0
   57.9680   32.1710   45.4980 C   0  0  0  0  0  0  0  0  0  0  0  0
   56.7750   31.6790   44.8710 N   0  0  0  0  0  0  0  0  0  0  0  0
   56.7140   30.8260   43.8860 C   0  0  0  0  0  0  0  0  0  0  0  0
   57.0230   31.2290   42.4640 C   0  0  0  0  0  0  0  0  0  0  0  0
   57.6923   32.1019   42.4675 H   0  0  0  0  0  0  0  0  0  0  0  0
   57.5136   30.3928   41.9443 H   0  0  0  0  0  0  0  0  0  0  0  0
   56.0881   31.4858   41.9443 H   0  0  0  0  0  0  0  0  0  0  0  0
   56.1760   29.4470   44.1690 C   0  0  0  0  0  0  0  0  0  0  0  0
   55.9488   28.9556   43.2114 H   0  0  0  0  0  0  0  0  0  0  0  0
   55.2772   29.5649   44.7921 H   0  0  0  0  0  0  0  0  0  0  0  0
   57.1670   28.5660   44.9500 C   0  0  0  0  0  0  0  0  0  0  0  0
   56.6306   27.6743   45.3066 H   0  0  0  0  0  0  0  0  0  0  0  0
   57.5597   29.1810   45.7731 H   0  0  0  0  0  0  0  0  0  0  0  0
   58.3790   28.1030   44.1220 C   0  0  0  0  0  0  0  0  0  0  0  0
   58.3290   28.5795   43.1318 H   0  0  0  0  0  0  0  0  0  0  0  0
   58.3301   27.0062   44.0546 H   0  0  0  0  0  0  0  0  0  0  0  0
   59.7170   28.4600   44.7660 C   0  0  0  0  0  0  0  0  0  0  0  0
   59.6157   28.4330   45.8610 H   0  0  0  0  0  0  0  0  0  0  0  0
   60.4810   27.7343   44.4504 H   0  0  0  0  0  0  0  0  0  0  0  0
   60.0180   29.4699   44.4504 H   0  0  0  0  0  0  0  0  0  0  0  0
  1  2  1  0
  2  3  2  0
  3  4  1  0
  3  5  1  0
  5  6  1  0
  6  7  1  0
  7  8  1  0
  7  9  1  0
  7 10  1  0
  6 11  1  0
 11 12  1  0
 11 13  1  0
 11 14  1  0
  5 15  2  0
 15 16  1  0
 15 17  1  0
 17 18  1  0
 17 19  2  0
 19 20  1  0
 20 21  2  0
 21 22  1  0
 22 23  1  0
 22 24  1  0
 22 25  1  0
 21 26  1  0
 26 27  1  0
 26 28  1  0
 26 29  1  0
 29 30  1  0
 29 31  1  0
 29 32  1  0
 32 33  1  0
 32 34  1  0
 32 35  1  0
 35 36  1  0
 35 37  1  0
 35 38  1  0
 19  2  1  0
M  END
>  <UniqueID>  (13) 
13

>  <SMILES>  (13) 
CCCC/C(C)=N/c1ccc(N(C)C)cc1

>  <Energy>  (13) 
36.395228931367626

>  <Genealogy>  (13) 
CCCC/C(C)=N/c1ccc(N(C)C)cc1 (cis-trans isomerization)
CCCC/C(C)=N/c1ccc(N(C)C)cc1 (3D coordinates assigned)
CCCC/C(C)=N/c1ccc(N(C)C)cc1 (optimized conformer: 36.395228931367626 kcal/mol)

>  <smiles>  (13) 
CCCCC(C)=Nc1ccc(N(C)C)cc1

>  <score_type>  (13) 
oracle

>  <origin>  (13) 
adg

>  <m_score__min__energy>  (13) 
-5.8099999999999996

>  <m_primary>  (13) 
energy

$$$$
13:0
     RDKit          3D

 42 42  0  0  0  0  0  0  0  0999 V2000
   56.3120   29.7200   42.7390 C   0  0  0  0  0  0  0  0  0  0  0  0
   55.9090   30.4720   43.9980 C   0  0  0  0  0  0  0  0  0  0  0  0
   57.0120   30.5090   44.9000 O   0  0  0  0  0  0  0  0  0  0  0  0
   57.6620   31.6800   45.3190 C   0  0  0  0  0  0  0  0  0  0  0  0
   57.2050   32.9630   44.9590 C   0  0  0  0  0  0  0  0  0  0  0  0
   57.8900   34.1010   45.3930 C   0  0  0  0  0  0  0  0  0  0  0  0
   59.0320   33.9720   46.1850 C   0  0  0  0  0  0  0  0  0  0  0  0
   59.4940   32.7040   46.5480 C   0  0  0  0  0  0  0  0  0  0  0  0
   58.8100   31.5510   46.1180 C   0  0  0  0  0  0  0  0  0  0  0  0
   59.2360   30.2600   46.4570 O   0  0  0  0  0  0  0  0  0  0  0  0
   60.4700   29.6730   46.0520 C   0  0  0  0  0  0  0  0  0  0  0  0
   60.2660   28.9040   44.7450 C   0  0  0  0  0  0  0  0  0  0  0  0
   58.8390   28.8240   44.3940 N   0  0  0  0  0  0  0  0  0  0  0  0
   58.4360   27.4280   44.1730 C   0  0  0  0  0  0  0  0  0  0  0  0
   57.3860   27.0180   45.1750 C   0  0  0  0  0  0  0  0  0  0  0  0
   56.6510   27.9180   45.6680 O   0  0  0  0  0  0  0  0  0  0  0  0
   57.2460   25.6520   45.6280 N   0  0  0  0  0  0  0  0  0  0  0  0
   56.3210   25.3620   46.7300 C   0  0  0  0  0  0  0  0  0  0  0  0
   57.9930   24.5590   44.9940 C   0  0  0  0  0  0  0  0  0  0  0  0
   56.8147   28.7820   43.0173 H   0  0  0  0  0  0  0  0  0  0  0  0
   55.4148   29.4928   42.1446 H   0  0  0  0  0  0  0  0  0  0  0  0
   56.9980   30.3413   42.1446 H   0  0  0  0  0  0  0  0  0  0  0  0
   55.6158   31.4989   43.7343 H   0  0  0  0  0  0  0  0  0  0  0  0
   55.0602   29.9609   44.4758 H   0  0  0  0  0  0  0  0  0  0  0  0
   56.3060   33.0693   44.3342 H   0  0  0  0  0  0  0  0  0  0  0  0
   57.5285   35.1006   45.1099 H   0  0  0  0  0  0  0  0  0  0  0  0
   59.5693   34.8700   46.5241 H   0  0  0  0  0  0  0  0  0  0  0  0
   60.3949   32.6065   47.1716 H   0  0  0  0  0  0  0  0  0  0  0  0
   61.2191   30.4638   45.8987 H   0  0  0  0  0  0  0  0  0  0  0  0
   60.8201   28.9816   46.8327 H   0  0  0  0  0  0  0  0  0  0  0  0
   60.8063   29.4192   43.9371 H   0  0  0  0  0  0  0  0  0  0  0  0
   60.6508   27.8821   44.8774 H   0  0  0  0  0  0  0  0  0  0  0  0
   58.6690   29.3730   43.5180 H   0  0  0  0  0  0  0  0  0  0  0  0
   58.2640   29.2300   45.1690 H   0  0  0  0  0  0  0  0  0  0  0  0
   58.0269   27.3255   43.1571 H   0  0  0  0  0  0  0  0  0  0  0  0
   59.3163   26.7795   44.2937 H   0  0  0  0  0  0  0  0  0  0  0  0
   56.8329   25.5225   47.6903 H   0  0  0  0  0  0  0  0  0  0  0  0
   55.4497   26.0301   46.6628 H   0  0  0  0  0  0  0  0  0  0  0  0
   55.9871   24.3161   46.6628 H   0  0  0  0  0  0  0  0  0  0  0  0
   58.4323   23.9162   45.7710 H   0  0  0  0  0  0  0  0  0  0  0  0
   57.3117   23.9641   44.3679 H   0  0  0  0  0  0  0  0  0  0  0  0
   58.7947   24.9777   44.3679 H   0  0  0  0  0  0  0  0  0  0  0  0
  1  2  1  0
  2  3  1  0
  3  4  1  0
  4  5  2  0
  5  6  1  0
  6  7  2  0
  7  8  1  0
  8  9  2  0
  9 10  1  0
 10 11  1  0
 11 12  1  0
 12 13  1  0
 13 14  1  0
 14 15  1  0
 15 16  2  0
 15 17  1  0
 17 18  1  0
 17 19  1  0
  9  4  1  0
  1 20  1  0
  1 21  1  0
  1 22  1  0
  2 23  1  0
  2 24  1  0
  5 25  1  0
  6 26  1  0
  7 27  1  0
  8 28  1  0
 11 29  1  0
 11 30  1  0
 12 31  1  0
 12 32  1  0
 13 33  1  0
 13 34  1  0
 14 35  1  0
 14 36  1  0
 18 37  1  0
 18 38  1  0
 18 39  1  0
 19 40  1  0
 19 41  1  0
 19 42  1  0
M  CHG  1  13   1
M  END
>  <UniqueID>  (14) 
14

>  <SMILES>  (14) 
CCOc1ccccc1OCC[NH2+]CC(=O)N(C)C

>  <Energy>  (14) 
28.962972561210414

>  <Genealogy>  (14) 
CCOc1ccccc1OCC[NH2+]CC(=O)N(C)C (protonated)
CCOc1ccccc1OCC[NH2+]CC(=O)N(C)C (3D coordinates assigned)
CCOc1ccccc1OCC[NH2+]CC(=O)N(C)C (optimized conformer: 28.962972561210414 kcal/mol)

>  <smiles>  (14) 
CCOc1ccccc1OCCNCC(=O)N(C)C

>  <score_type>  (14) 
oracle

>  <origin>  (14) 
adg

>  <m_score__min__energy>  (14) 
-3.3100000000000001

>  <m_primary>  (14) 
energy

$$$$
14:0
     RDKit          3D

 50 52  0  0  0  0  0  0  0  0999 V2000
   60.0170   29.5540   47.2210 C   0  0  0  0  0  0  0  0  0  0  0  0
   61.0770   30.1300   47.9550 O   0  0  0  0  0  0  0  0  0  0  0  0
   61.9600   30.8100   47.0860 C   0  0  0  0  0  0  0  0  0  0  0  0
   62.4510   32.0790   47.7230 C   0  0  0  0  0  0  0  0  0  0  0  0
   63.7540   32.3370   47.9480 N   0  0  0  0  0  0  0  0  0  0  0  0
   63.7860   33.5360   48.5580 C   0  0  0  0  0  0  0  0  0  0  0  0
   62.4920   33.9920   48.7030 C   0  0  0  0  0  0  0  0  0  0  0  0
   61.6560   33.0680   48.1900 N   0  0  0  0  0  0  0  0  0  0  0  0
   60.2030   33.1950   48.0670 C   0  0  0  0  0  0  0  0  0  0  0  0
   59.7800   33.0740   46.5930 C   0  0  1  0  0  0  0  0  0  0  0  0
   58.2340   33.0400   46.4330 C   0  0  0  0  0  0  0  0  0  0  0  0
   57.7930   33.6210   45.1480 N   0  0  0  0  0  0  0  0  0  0  0  0
   57.8090   32.6800   44.0060 C   0  0  0  0  0  0  0  0  0  0  0  0
   57.4630   31.2700   44.3930 C   0  0  0  0  0  0  0  0  0  0  0  0
   58.3580   30.2660   44.4480 N   0  0  0  0  0  0  0  0  0  0  0  0
   57.5660   29.2270   44.7910 C   0  0  0  0  0  0  0  0  0  0  0  0
   58.0490   27.8110   44.9130 C   0  0  0  0  0  0  0  0  0  0  0  0
   58.1640   27.1580   43.5330 C   0  0  0  0  0  0  0  0  0  0  0  0
   57.1120   27.0110   45.8230 C   0  0  0  0  0  0  0  0  0  0  0  0
   56.2750   29.5850   44.9360 N   0  0  0  0  0  0  0  0  0  0  0  0
   56.2540   30.8590   44.6860 O   0  0  0  0  0  0  0  0  0  0  0  0
   58.3760   34.9520   44.8620 C   0  0  0  0  0  0  0  0  0  0  0  0
   59.6370   35.2320   45.6920 C   0  0  0  0  0  0  0  0  0  0  0  0
   60.4230   34.0660   45.8010 O   0  0  0  0  0  0  0  0  0  0  0  0
   59.2681   29.1471   47.9164 H   0  0  0  0  0  0  0  0  0  0  0  0
   59.5498   30.3223   46.5874 H   0  0  0  0  0  0  0  0  0  0  0  0
   60.4074   28.7440   46.5874 H   0  0  0  0  0  0  0  0  0  0  0  0
   62.8195   30.1609   46.8626 H   0  0  0  0  0  0  0  0  0  0  0  0
   61.4238   31.0613   46.1590 H   0  0  0  0  0  0  0  0  0  0  0  0
   64.5730   31.7370   47.7000 H   0  0  0  0  0  0  0  0  0  0  0  0
   64.6930   34.0646   48.8864 H   0  0  0  0  0  0  0  0  0  0  0  0
   62.1935   34.9472   49.1596 H   0  0  0  0  0  0  0  0  0  0  0  0
   59.7183   32.3982   48.6503 H   0  0  0  0  0  0  0  0  0  0  0  0
   59.8962   34.1803   48.4478 H   0  0  0  0  0  0  0  0  0  0  0  0
   60.1247   32.1028   46.2082 H   0  0  0  0  0  0  0  0  0  0  0  0
   57.8955   31.9946   46.4839 H   0  0  0  0  0  0  0  0  0  0  0  0
   57.7973   33.6421   47.2434 H   0  0  0  0  0  0  0  0  0  0  0  0
   57.0799   33.0258   43.2584 H   0  0  0  0  0  0  0  0  0  0  0  0
   58.8348   32.6666   43.6092 H   0  0  0  0  0  0  0  0  0  0  0  0
   59.0511   27.8174   45.3666 H   0  0  0  0  0  0  0  0  0  0  0  0
   58.3537   26.0810   43.6516 H   0  0  0  0  0  0  0  0  0  0  0  0
   57.2259   27.3061   42.9779 H   0  0  0  0  0  0  0  0  0  0  0  0
   58.9950   27.6177   42.9779 H   0  0  0  0  0  0  0  0  0  0  0  0
   57.3563   27.2196   46.8751 H   0  0  0  0  0  0  0  0  0  0  0  0
   56.0702   27.3025   45.6237 H   0  0  0  0  0  0  0  0  0  0  0  0
   57.2366   25.9364   45.6237 H   0  0  0  0  0  0  0  0  0  0  0  0
   58.6381   35.0004   43.7948 H   0  0  0  0  0  0  0  0  0  0  0  0
   57.6250   35.7102   45.1287 H   0  0  0  0  0  0  0  0  0  0  0  0
   60.2257   36.0214   45.2018 H   0  0  0  0  0  0  0  0  0  0  0  0
   59.3364   35.5551   46.6996 H   0  0  0  0  0  0  0  0  0  0  0  0
  1  2  1  0
  2  3  1  0
  3  4  1  0
  4  5  2  0
  5  6  1  0
  6  7  2  0
  7  8  1  0
  8  9  1  0
  9 10  1  0
 10 11  1  0
 11 12  1  0
 12 13  1  0
 13 14  1  0
 14 15  2  0
 15 16  1  0
 16 17  1  0
 17 18  1  0
 17 19  1  0
 16 20  2  0
 20 21  1  0
 12 22  1  0
 22 23  1  0
 23 24  1  0
  8  4  1  0
 24 10  1  0
 21 14  1  0
  1 25  1  0
  1 26  1  0
  1 27  1  0
  3 28  1  0
  3 29  1  0
  5 30  1  0
  6 31  1  0
  7 32  1  0
  9 33  1  0
  9 34  1  0
 10 35  1  6
 11 36  1  0
 11 37  1  0
 13 38  1  0
 13 39  1  0
 17 40  1  0
 18 41  1  0
 18 42  1  0
 18 43  1  0
 19 44  1  0
 19 45  1  0
 19 46  1  0
 22 47  1  0
 22 48  1  0
 23 49  1  0
 23 50  1  0
M  CHG  1   5   1
M  END
>  <UniqueID>  (15) 
15

>  <SMILES>  (15) 
COCc1[nH+]ccn1C[C@H]1CN(Cc2nc(C(C)C)no2)CCO1

>  <Energy>  (15) 
118.92547560358629

>  <Genealogy>  (15) 
COCc1[nH+]ccn1CC1CN(Cc2nc(C(C)C)no2)CCO1 (protonated)
COCc1[nH+]ccn1C[C@H]1CN(Cc2nc(C(C)C)no2)CCO1 (chirality)
COCc1[nH+]ccn1C[C@H]1CN(Cc2nc(C(C)C)no2)CCO1 (3D coordinates assigned)
COCc1[nH+]ccn1C[C@H]1CN(Cc2nc(C(C)C)no2)CCO1 (nonaromatic ring conformer: 118.92547560358629 kcal/mol)

>  <smiles>  (15) 
COCc1nccn1CC1CN(Cc2nc(C(C)C)no2)CCO1

>  <score_type>  (15) 
oracle

>  <origin>  (15) 
adg

>  <m_score__min__energy>  (15) 
-6.3200000000000003

>  <m_primary>  (15) 
energy

$$$$
15:0
     RDKit          3D

 50 53  0  0  0  0  0  0  0  0999 V2000
   56.3850   26.1940   45.6480 C   0  0  0  0  0  0  0  0  0  0  0  0
   55.9510   27.5500   45.6670 O   0  0  0  0  0  0  0  0  0  0  0  0
   56.5960   28.6040   44.9950 C   0  0  0  0  0  0  0  0  0  0  0  0
   55.8950   29.4610   44.1220 C   0  0  0  0  0  0  0  0  0  0  0  0
   56.5600   30.4980   43.4640 C   0  0  0  0  0  0  0  0  0  0  0  0
   57.9210   30.7030   43.6740 C   0  0  0  0  0  0  0  0  0  0  0  0
   58.6260   29.8740   44.5440 C   0  0  0  0  0  0  0  0  0  0  0  0
   57.9790   28.8120   45.1980 C   0  0  0  0  0  0  0  0  0  0  0  0
   58.7780   27.9460   46.1460 C   0  0  0  0  0  0  0  0  0  0  0  0
   58.4880   28.3040   47.4970 O   0  0  0  0  0  0  0  0  0  0  0  0
   58.8020   29.5480   48.0540 C   0  0  0  0  0  0  0  0  0  0  0  0
   59.0800   29.6440   49.4150 C   0  0  0  0  0  0  0  0  0  0  0  0
   59.3500   30.9010   49.9520 C   0  0  0  0  0  0  0  0  0  0  0  0
   59.3560   32.0010   49.1520 N   0  0  0  0  0  0  0  0  0  0  0  0
   59.1110   31.8900   47.8130 C   0  0  0  0  0  0  0  0  0  0  0  0
   59.0960   33.0810   46.9300 C   0  0  0  0  0  0  0  0  0  0  0  0
   58.4150   33.0100   45.7000 C   0  0  0  0  0  0  0  0  0  0  0  0
   58.3950   34.1060   44.8360 C   0  0  0  0  0  0  0  0  0  0  0  0
   59.0650   35.2790   45.1770 C   0  0  0  0  0  0  0  0  0  0  0  0
   59.7630   35.3570   46.3810 C   0  0  0  0  0  0  0  0  0  0  0  0
   59.7760   34.2690   47.2750 C   0  0  0  0  0  0  0  0  0  0  0  0
   60.5140   34.3280   48.4670 O   0  0  0  0  0  0  0  0  0  0  0  0
   61.8330   33.8780   48.6340 C   0  0  0  0  0  0  0  0  0  0  0  0
   62.3430   33.7630   49.9350 C   0  0  0  0  0  0  0  0  0  0  0  0
   63.6600   33.3400   50.1460 C   0  0  0  0  0  0  0  0  0  0  0  0
   64.4800   33.0360   49.0560 C   0  0  0  0  0  0  0  0  0  0  0  0
   63.9870   33.1620   47.7540 C   0  0  0  0  0  0  0  0  0  0  0  0
   62.6720   33.5890   47.5400 C   0  0  0  0  0  0  0  0  0  0  0  0
   58.8190   30.6710   47.2860 N   0  0  0  0  0  0  0  0  0  0  0  0
   56.5010   25.8316   46.6801 H   0  0  0  0  0  0  0  0  0  0  0  0
   55.6392   25.5776   45.1246 H   0  0  0  0  0  0  0  0  0  0  0  0
   57.3500   26.1252   45.1246 H   0  0  0  0  0  0  0  0  0  0  0  0
   54.8175   29.3119   43.9581 H   0  0  0  0  0  0  0  0  0  0  0  0
   56.0064   31.1552   42.7773 H   0  0  0  0  0  0  0  0  0  0  0  0
   58.4403   31.5205   43.1524 H   0  0  0  0  0  0  0  0  0  0  0  0
   59.6971   30.0522   44.7202 H   0  0  0  0  0  0  0  0  0  0  0  0
   58.5147   26.8903   45.9845 H   0  0  0  0  0  0  0  0  0  0  0  0
   59.8508   28.0966   45.9551 H   0  0  0  0  0  0  0  0  0  0  0  0
   59.0863   28.7473   50.0521 H   0  0  0  0  0  0  0  0  0  0  0  0
   59.5591   31.0042   51.0270 H   0  0  0  0  0  0  0  0  0  0  0  0
   59.5200   32.9340   49.5900 H   0  0  0  0  0  0  0  0  0  0  0  0
   57.8943   32.0831   45.4175 H   0  0  0  0  0  0  0  0  0  0  0  0
   57.8488   34.0435   43.8833 H   0  0  0  0  0  0  0  0  0  0  0  0
   59.0432   36.1430   44.4965 H   0  0  0  0  0  0  0  0  0  0  0  0
   60.3090   36.2774   46.6353 H   0  0  0  0  0  0  0  0  0  0  0  0
   61.7032   34.0070   50.7959 H   0  0  0  0  0  0  0  0  0  0  0  0
   64.0500   33.2467   51.1703 H   0  0  0  0  0  0  0  0  0  0  0  0
   65.5133   32.6976   49.2225 H   0  0  0  0  0  0  0  0  0  0  0  0
   64.6339   32.9251   46.8965 H   0  0  0  0  0  0  0  0  0  0  0  0
   62.2919   33.6995   46.5137 H   0  0  0  0  0  0  0  0  0  0  0  0
  1  2  1  0
  2  3  1  0
  3  4  2  0
  4  5  1  0
  5  6  2  0
  6  7  1  0
  7  8  2  0
  8  9  1  0
  9 10  1  0
 10 11  1  0
 11 12  2  0
 12 13  1  0
 13 14  2  0
 14 15  1  0
 15 16  1  0
 16 17  2  0
 17 18  1  0
 18 19  2  0
 19 20  1  0
 20 21  2  0
 21 22  1  0
 22 23  1  0
 23 24  2  0
 24 25  1  0
 25 26  2  0
 26 27  1  0
 27 28  2  0
 15 29  2  0
  8  3  1  0
 29 11  1  0
 21 16  1  0
 28 23  1  0
  1 30  1  0
  1 31  1  0
  1 32  1  0
  4 33  1  0
  5 34  1  0
  6 35  1  0
  7 36  1  0
  9 37  1  0
  9 38  1  0
 12 39  1  0
 13 40  1  0
 14 41  1  0
 17 42  1  0
 18 43  1  0
 19 44  1  0
 20 45  1  0
 24 46  1  0
 25 47  1  0
 26 48  1  0
 27 49  1  0
 28 50  1  0
M  CHG  1  14   1
M  END
>  <UniqueID>  (16) 
16

>  <SMILES>  (16) 
COc1ccccc1COc1cc[nH+]c(-c2ccccc2Oc2ccccc2)n1

>  <Energy>  (16) 
63.850703470735596

>  <Genealogy>  (16) 
COc1ccccc1COc1cc[nH+]c(-c2ccccc2Oc2ccccc2)n1 (protonated)
COc1ccccc1COc1cc[nH+]c(-c2ccccc2Oc2ccccc2)n1 (3D coordinates assigned)
COc1ccccc1COc1cc[nH+]c(-c2ccccc2Oc2ccccc2)n1 (optimized conformer: 63.850703470735596 kcal/mol)

>  <smiles>  (16) 
COc1ccccc1COc1ccnc(-c2ccccc2Oc2ccccc2)n1

>  <score_type>  (16) 
oracle

>  <origin>  (16) 
adg

>  <m_score__min__energy>  (16) 
-6.9800000000000004

>  <m_primary>  (16) 
energy

$$$$
16:0
     RDKit          3D

 38 40  0  0  0  0  0  0  0  0999 V2000
   55.1720   24.8220   45.5790 C   0  0  0  0  0  0  0  0  0  0  0  0
   55.8800   25.7330   46.3900 O   0  0  0  0  0  0  0  0  0  0  0  0
   57.2690   25.4810   46.3120 C   0  0  0  0  0  0  0  0  0  0  0  0
   58.0530   26.6890   46.7560 C   0  0  0  0  0  0  0  0  0  0  0  0
   58.9880   26.5840   47.8030 C   0  0  0  0  0  0  0  0  0  0  0  0
   59.6840   27.7290   48.2330 C   0  0  0  0  0  0  0  0  0  0  0  0
   59.4480   28.9710   47.6270 C   0  0  0  0  0  0  0  0  0  0  0  0
   58.5150   29.0190   46.5900 C   0  0  0  0  0  0  0  0  0  0  0  0
   58.0720   30.0960   45.8460 C   0  0  0  0  0  0  0  0  0  0  0  0
   58.4860   31.5070   45.9800 C   0  0  0  0  0  0  0  0  0  0  0  0
   57.5690   32.5420   45.7380 C   0  0  0  0  0  0  0  0  0  0  0  0
   57.9610   33.8770   45.8740 C   0  0  0  0  0  0  0  0  0  0  0  0
   59.2690   34.1870   46.2600 C   0  0  0  0  0  0  0  0  0  0  0  0
   59.6480   35.4810   46.3920 F   0  0  0  0  0  0  0  0  0  0  0  0
   60.1840   33.1600   46.5110 C   0  0  0  0  0  0  0  0  0  0  0  0
   59.7960   31.8240   46.3750 C   0  0  0  0  0  0  0  0  0  0  0  0
   57.1090   29.5420   44.9960 C   0  0  0  0  0  0  0  0  0  0  0  0
   56.3510   30.2270   43.9380 C   0  0  0  0  0  0  0  0  0  0  0  0
   55.1280   30.4790   44.1170 O   0  0  0  0  0  0  0  0  0  0  0  0
   56.9720   30.5680   42.7330 O   0  0  0  0  0  0  0  0  0  0  0  0
   57.7230   31.7640   42.5660 C   0  0  0  0  0  0  0  0  0  0  0  0
   56.9970   28.2150   45.2340 N   0  0  0  0  0  0  0  0  0  0  0  0
   57.8520   27.9170   46.1990 N   0  0  0  0  0  0  0  0  0  0  0  0
   54.6220   24.1142   46.2166 H   0  0  0  0  0  0  0  0  0  0  0  0
   54.4617   25.3717   44.9439 H   0  0  0  0  0  0  0  0  0  0  0  0
   55.8801   24.2695   44.9439 H   0  0  0  0  0  0  0  0  0  0  0  0
   57.5189   24.6291   46.9615 H   0  0  0  0  0  0  0  0  0  0  0  0
   57.5300   25.2530   45.2680 H   0  0  0  0  0  0  0  0  0  0  0  0
   59.1737   25.6117   48.2827 H   0  0  0  0  0  0  0  0  0  0  0  0
   60.4172   27.6491   49.0491 H   0  0  0  0  0  0  0  0  0  0  0  0
   59.9794   29.8758   47.9571 H   0  0  0  0  0  0  0  0  0  0  0  0
   56.5378   32.3016   45.4401 H   0  0  0  0  0  0  0  0  0  0  0  0
   57.2401   34.6842   45.6773 H   0  0  0  0  0  0  0  0  0  0  0  0
   61.2122   33.4041   46.8164 H   0  0  0  0  0  0  0  0  0  0  0  0
   60.5181   31.0193   46.5777 H   0  0  0  0  0  0  0  0  0  0  0  0
   57.9814   32.1755   43.5529 H   0  0  0  0  0  0  0  0  0  0  0  0
   58.6449   31.5432   42.0080 H   0  0  0  0  0  0  0  0  0  0  0  0
   57.1236   32.4984   42.0080 H   0  0  0  0  0  0  0  0  0  0  0  0
  1  2  1  0
  2  3  1  0
  3  4  1  0
  4  5  2  0
  5  6  1  0
  6  7  2  0
  7  8  1  0
  8  9  2  0
  9 10  1  0
 10 11  2  0
 11 12  1  0
 12 13  2  0
 13 14  1  0
 13 15  1  0
 15 16  2  0
  9 17  1  0
 17 18  1  0
 18 19  2  0
 18 20  1  0
 20 21  1  0
 17 22  2  0
 22 23  1  0
 23  4  1  0
 23  8  1  0
 16 10  1  0
  1 24  1  0
  1 25  1  0
  1 26  1  0
  3 27  1  0
  3 28  1  0
  5 29  1  0
  6 30  1  0
  7 31  1  0
 11 32  1  0
 12 33  1  0
 15 34  1  0
 16 35  1  0
 21 36  1  0
 21 37  1  0
 21 38  1  0
M  END
>  <UniqueID>  (17) 
17

>  <SMILES>  (17) 
COCc1cccc2c(-c3ccc(F)cc3)c(C(=O)OC)nn12

>  <Energy>  (17) 
80.5646401050877

>  <Genealogy>  (17) 
COCc1cccc2c(-c3ccc(F)cc3)c(C(=O)OC)nn12 (3D coordinates assigned)
COCc1cccc2c(-c3ccc(F)cc3)c(C(=O)OC)nn12 (optimized conformer: 80.5646401050877 kcal/mol)

>  <smiles>  (17) 
COCc1cccc2c(-c3ccc(F)cc3)c(C(=O)OC)nn12

>  <score_type>  (17) 
oracle

>  <origin>  (17) 
adg

>  <m_score__min__energy>  (17) 
-7.04

>  <m_primary>  (17) 
energy

$$$$
17:0
     RDKit          3D

 35 37  0  0  0  0  0  0  0  0999 V2000
   57.3050   31.9178   42.4845 H   0  0  0  0  0  0  0  0  0  0  0  0
   57.0900   31.1980   43.2880 C   0  0  0  0  0  0  0  0  0  0  0  0
   56.3440   29.7000   43.0960 S   0  0  0  0  0  0  0  0  0  0  0  0
   56.4330   29.3390   44.7290 C   0  0  0  0  0  0  0  0  0  0  0  0
   56.0000   28.2320   45.2500 N   0  0  0  0  0  0  0  0  0  0  0  0
   56.8640   27.1780   45.7790 C   0  0  0  0  0  0  0  0  0  0  0  0
   56.3931   26.7386   46.6707 H   0  0  0  0  0  0  0  0  0  0  0  0
   57.0017   26.4106   45.0030 H   0  0  0  0  0  0  0  0  0  0  0  0
   58.2120   27.7340   46.1550 C   0  0  0  0  0  0  0  0  0  0  0  0
   58.4590   28.1880   47.4630 C   0  0  0  0  0  0  0  0  0  0  0  0
   57.6706   28.1148   48.2266 H   0  0  0  0  0  0  0  0  0  0  0  0
   59.7030   28.7320   47.7960 C   0  0  0  0  0  0  0  0  0  0  0  0
   59.8909   29.0866   48.8202 H   0  0  0  0  0  0  0  0  0  0  0  0
   60.7080   28.8260   46.8300 C   0  0  0  0  0  0  0  0  0  0  0  0
   61.6859   29.2546   47.0944 H   0  0  0  0  0  0  0  0  0  0  0  0
   60.4720   28.3760   45.5280 C   0  0  0  0  0  0  0  0  0  0  0  0
   61.2649   28.4479   44.7690 H   0  0  0  0  0  0  0  0  0  0  0  0
   59.2270   27.8340   45.1900 C   0  0  0  0  0  0  0  0  0  0  0  0
   59.0426   27.4846   44.1634 H   0  0  0  0  0  0  0  0  0  0  0  0
   57.0190   30.3270   45.4380 N   0  0  0  0  0  0  0  0  0  0  0  0
   57.3900   31.3710   44.6460 C   0  0  0  0  0  0  0  0  0  0  0  0
   58.0750   32.5630   45.2080 C   0  0  0  0  0  0  0  0  0  0  0  0
   58.2100   33.7220   44.4230 C   0  0  0  0  0  0  0  0  0  0  0  0
   57.8037   33.7391   43.4009 H   0  0  0  0  0  0  0  0  0  0  0  0
   58.8550   34.8500   44.9300 C   0  0  0  0  0  0  0  0  0  0  0  0
   58.9526   35.7511   44.3067 H   0  0  0  0  0  0  0  0  0  0  0  0
   59.3770   34.8410   46.2240 C   0  0  0  0  0  0  0  0  0  0  0  0
   60.0110   35.9490   46.6880 F   0  0  0  0  0  0  0  0  0  0  0  0
   59.2540   33.6970   47.0320 C   0  0  0  0  0  0  0  0  0  0  0  0
   59.8460   33.6950   48.4210 C   0  0  0  0  0  0  0  0  0  0  0  0
   61.2150   33.4830   48.3960 F   0  0  0  0  0  0  0  0  0  0  0  0
   59.5990   34.9140   49.0260 F   0  0  0  0  0  0  0  0  0  0  0  0
   59.2660   32.6900   49.1750 F   0  0  0  0  0  0  0  0  0  0  0  0
   58.6110   32.5570   46.5110 C   0  0  0  0  0  0  0  0  0  0  0  0
   58.5263   31.6510   47.1291 H   0  0  0  0  0  0  0  0  0  0  0  0
  1  2  1  0
  2  3  1  0
  3  4  1  0
  4  5  2  0
  5  6  1  0
  6  7  1  0
  6  8  1  0
  6  9  1  0
  9 10  2  0
 10 11  1  0
 10 12  1  0
 12 13  1  0
 12 14  2  0
 14 15  1  0
 14 16  1  0
 16 17  1  0
 16 18  2  0
 18 19  1  0
  4 20  1  0
 20 21  1  0
 21 22  1  0
 22 23  2  0
 23 24  1  0
 23 25  1  0
 25 26  1  0
 25 27  2  0
 27 28  1  0
 27 29  1  0
 29 30  1  0
 30 31  1  0
 30 32  1  0
 30 33  1  0
 29 34  2  0
 34 35  1  0
 21  2  2  0
 34 22  1  0
 18  9  1  0
M  CHG  1  20  -1
M  END
>  <UniqueID>  (18) 
18

>  <SMILES>  (18) 
Fc1ccc(-c2cs/c(=N/Cc3ccccc3)[n-]2)cc1C(F)(F)F

>  <Energy>  (18) 
69.28028113913759

>  <Genealogy>  (18) 
Fc1ccc(-c2csc(=NCc3ccccc3)[n-]2)cc1C(F)(F)F (protonated)
Fc1ccc(-c2cs/c(=N/Cc3ccccc3)[n-]2)cc1C(F)(F)F (cis-trans isomerization)
Fc1ccc(-c2cs/c(=N/Cc3ccccc3)[n-]2)cc1C(F)(F)F (3D coordinates assigned)
Fc1ccc(-c2cs/c(=N/Cc3ccccc3)[n-]2)cc1C(F)(F)F (optimized conformer: 69.28028113913759 kcal/mol)

>  <smiles>  (18) 
Fc1ccc(-c2csc(=NCc3ccccc3)[nH]2)cc1C(F)(F)F

>  <score_type>  (18) 
oracle

>  <origin>  (18) 
adg

>  <m_score__min__energy>  (18) 
-9.1600000000000001

>  <m_primary>  (18) 
energy

$$$$
18:0
     RDKit          3D

 47 49  0  0  0  0  0  0  0  0999 V2000
   63.6570   33.4330   48.5550 C   0  0  0  0  0  0  0  0  0  0  0  0
   62.4190   34.1870   49.0580 C   0  0  0  0  0  0  0  0  0  0  0  0
   62.0340   33.7340   50.4710 C   0  0  0  0  0  0  0  0  0  0  0  0
   61.2570   34.0290   48.0960 C   0  0  0  0  0  0  0  0  0  0  0  0
   61.4880   34.0120   46.7100 C   0  0  0  0  0  0  0  0  0  0  0  0
   60.4260   33.8590   45.8150 C   0  0  0  0  0  0  0  0  0  0  0  0
   59.1160   33.7230   46.2910 C   0  0  0  0  0  0  0  0  0  0  0  0
   57.7720   33.4820   45.1780 S   0  0  0  0  0  0  0  0  0  0  0  0
   56.7500   34.5600   45.4080 O   0  0  0  0  0  0  0  0  0  0  0  0
   58.2470   33.5670   43.7550 O   0  0  0  0  0  0  0  0  0  0  0  0
   57.0460   31.9290   45.4750 N   0  0  0  0  0  0  0  0  0  0  0  0
   57.5640   30.8950   44.5530 C   0  0  1  0  0  0  0  0  0  0  0  0
   58.5330   29.9790   45.2840 C   0  0  0  0  0  0  0  0  0  0  0  0
   59.4310   30.5240   46.2230 C   0  0  0  0  0  0  0  0  0  0  0  0
   60.3850   29.7190   46.8470 C   0  0  0  0  0  0  0  0  0  0  0  0
   60.4740   28.3650   46.5300 C   0  0  0  0  0  0  0  0  0  0  0  0
   59.6190   27.8130   45.5750 C   0  0  0  0  0  0  0  0  0  0  0  0
   58.6620   28.6110   44.9260 C   0  0  0  0  0  0  0  0  0  0  0  0
   57.7440   27.9570   43.9200 C   0  0  0  0  0  0  0  0  0  0  0  0
   57.0180   28.9680   43.0280 C   0  0  0  0  0  0  0  0  0  0  0  0
   56.4220   30.1060   43.8670 C   0  0  1  0  0  0  0  0  0  0  0  0
   55.5340   29.5810   44.8240 O   0  0  0  0  0  0  0  0  0  0  0  0
   58.8770   33.7360   47.6700 C   0  0  0  0  0  0  0  0  0  0  0  0
   59.9370   33.8890   48.5670 C   0  0  0  0  0  0  0  0  0  0  0  0
   64.2432   33.0760   49.4146 H   0  0  0  0  0  0  0  0  0  0  0  0
   63.3405   32.5742   47.9449 H   0  0  0  0  0  0  0  0  0  0  0  0
   64.2749   34.1083   47.9449 H   0  0  0  0  0  0  0  0  0  0  0  0
   62.6715   35.2565   49.1064 H   0  0  0  0  0  0  0  0  0  0  0  0
   62.5610   34.3541   51.2112 H   0  0  0  0  0  0  0  0  0  0  0  0
   60.9480   33.8431   50.6079 H   0  0  0  0  0  0  0  0  0  0  0  0
   62.3168   32.6798   50.6079 H   0  0  0  0  0  0  0  0  0  0  0  0
   62.5133   34.1200   46.3265 H   0  0  0  0  0  0  0  0  0  0  0  0
   60.6197   33.8453   44.7323 H   0  0  0  0  0  0  0  0  0  0  0  0
   56.0090   32.0350   45.4050 H   0  0  0  0  0  0  0  0  0  0  0  0
   58.1146   31.3995   43.7453 H   0  0  0  0  0  0  0  0  0  0  0  0
   59.3796   31.5954   46.4668 H   0  0  0  0  0  0  0  0  0  0  0  0
   61.0684   30.1544   47.5909 H   0  0  0  0  0  0  0  0  0  0  0  0
   61.2188   27.7307   47.0329 H   0  0  0  0  0  0  0  0  0  0  0  0
   59.6951   26.7437   45.3283 H   0  0  0  0  0  0  0  0  0  0  0  0
   58.3420   27.2911   43.2805 H   0  0  0  0  0  0  0  0  0  0  0  0
   56.9775   27.4049   44.4836 H   0  0  0  0  0  0  0  0  0  0  0  0
   57.7321   29.3890   42.3049 H   0  0  0  0  0  0  0  0  0  0  0  0
   56.2007   28.4518   42.5031 H   0  0  0  0  0  0  0  0  0  0  0  0
   55.8615   30.7914   43.2143 H   0  0  0  0  0  0  0  0  0  0  0  0
   55.6850   30.0910   45.6630 H   0  0  0  0  0  0  0  0  0  0  0  0
   57.8503   33.6253   48.0490 H   0  0  0  0  0  0  0  0  0  0  0  0
   59.7393   33.9002   49.6490 H   0  0  0  0  0  0  0  0  0  0  0  0
  1  2  1  0
  2  3  1  0
  2  4  1  0
  4  5  2  0
  5  6  1  0
  6  7  2  0
  7  8  1  0
  8  9  2  0
  8 10  2  0
  8 11  1  0
 11 12  1  0
 12 13  1  0
 13 14  2  0
 14 15  1  0
 15 16  2  0
 16 17  1  0
 17 18  2  0
 18 19  1  0
 19 20  1  0
 20 21  1  0
 21 22  1  0
  7 23  1  0
 23 24  2  0
 24  4  1  0
 21 12  1  0
 18 13  1  0
  1 25  1  0
  1 26  1  0
  1 27  1  0
  2 28  1  0
  3 29  1  0
  3 30  1  0
  3 31  1  0
  5 32  1  0
  6 33  1  0
 11 34  1  0
 12 35  1  6
 14 36  1  0
 15 37  1  0
 16 38  1  0
 17 39  1  0
 19 40  1  0
 19 41  1  0
 20 42  1  0
 20 43  1  0
 21 44  1  6
 22 45  1  0
 23 46  1  0
 24 47  1  0
M  END
>  <UniqueID>  (19) 
19

>  <SMILES>  (19) 
CC(C)c1ccc(S(=O)(=O)N[C@H]2c3ccccc3CC[C@H]2O)cc1

>  <Energy>  (19) 
47.36827678982965

>  <Genealogy>  (19) 
CC(C)c1ccc(S(=O)(=O)N[C@H]2c3ccccc3CC[C@H]2O)cc1 (chirality)
CC(C)c1ccc(S(=O)(=O)N[C@H]2c3ccccc3CC[C@H]2O)cc1 (3D coordinates assigned)
CC(C)c1ccc(S(=O)(=O)N[C@H]2c3ccccc3CC[C@H]2O)cc1 (nonaromatic ring conformer: 47.36827678982965 kcal/mol)

>  <smiles>  (19) 
CC(C)c1ccc(S(=O)(=O)NC2c3ccccc3CCC2O)cc1

>  <score_type>  (19) 
oracle

>  <origin>  (19) 
adg

>  <m_score__min__energy>  (19) 
-9.7899999999999991

>  <m_primary>  (19) 
energy

$$$$
19:0
     RDKit          3D

 46 48  0  0  0  0  0  0  0  0999 V2000
   55.8960   30.0900   43.6450 C   0  0  0  0  0  0  0  0  0  0  0  0
   56.2720   29.6990   44.9470 O   0  0  0  0  0  0  0  0  0  0  0  0
   57.3800   28.8190   44.9030 C   0  0  0  0  0  0  0  0  0  0  0  0
   58.0240   28.6590   46.2890 C   0  0  0  0  0  0  0  0  0  0  0  0
   59.2660   29.5420   46.4860 C   0  0  0  0  0  0  0  0  0  0  0  0
   58.9000   30.9020   46.8870 N   0  0  0  0  0  0  0  0  0  0  0  0
   58.9220   31.4590   48.1300 C   0  0  0  0  0  0  0  0  0  0  0  0
   59.4200   30.5850   49.6200 S   0  0  0  0  0  0  0  0  0  0  0  0
   59.0560   31.9810   50.7410 C   0  0  0  0  0  0  0  0  0  0  0  0
   60.2610   32.9090   50.9170 C   0  0  0  0  0  0  0  0  0  0  0  0
   60.4880   33.6830   49.7370 O   0  0  0  0  0  0  0  0  0  0  0  0
   61.5510   33.5320   48.8310 C   0  0  0  0  0  0  0  0  0  0  0  0
   61.4650   33.9040   47.4750 C   0  0  0  0  0  0  0  0  0  0  0  0
   62.5620   33.7300   46.6250 C   0  0  0  0  0  0  0  0  0  0  0  0
   63.7540   33.1940   47.1180 C   0  0  0  0  0  0  0  0  0  0  0  0
   63.8520   32.8350   48.4640 C   0  0  0  0  0  0  0  0  0  0  0  0
   62.7560   33.0060   49.3160 C   0  0  0  0  0  0  0  0  0  0  0  0
   58.5510   32.7660   48.1280 N   0  0  0  0  0  0  0  0  0  0  0  0
   58.2850   33.0280   46.8380 C   0  0  0  0  0  0  0  0  0  0  0  0
   57.8730   34.2180   46.2510 C   0  0  0  0  0  0  0  0  0  0  0  0
   57.6800   34.2110   44.8570 C   0  0  0  0  0  0  0  0  0  0  0  0
   57.9080   33.0230   44.1200 C   0  0  0  0  0  0  0  0  0  0  0  0
   58.3150   31.8800   44.7510 N   0  0  0  0  0  0  0  0  0  0  0  0
   58.4940   31.9090   46.0950 C   0  0  0  0  0  0  0  0  0  0  0  0
   55.1347   30.8817   43.7054 H   0  0  0  0  0  0  0  0  0  0  0  0
   56.7774   30.4692   43.1071 H   0  0  0  0  0  0  0  0  0  0  0  0
   55.4827   29.2241   43.1071 H   0  0  0  0  0  0  0  0  0  0  0  0
   57.0409   27.8339   44.5500 H   0  0  0  0  0  0  0  0  0  0  0  0
   58.1308   29.2414   44.2190 H   0  0  0  0  0  0  0  0  0  0  0  0
   57.2797   28.9273   47.0532 H   0  0  0  0  0  0  0  0  0  0  0  0
   58.3501   27.6123   46.3786 H   0  0  0  0  0  0  0  0  0  0  0  0
   59.9002   29.0976   47.2672 H   0  0  0  0  0  0  0  0  0  0  0  0
   59.8048   29.5979   45.5287 H   0  0  0  0  0  0  0  0  0  0  0  0
   58.2195   32.5613   50.3245 H   0  0  0  0  0  0  0  0  0  0  0  0
   58.8021   31.5655   51.7274 H   0  0  0  0  0  0  0  0  0  0  0  0
   60.0719   33.5878   51.7616 H   0  0  0  0  0  0  0  0  0  0  0  0
   61.1522   32.2936   51.1093 H   0  0  0  0  0  0  0  0  0  0  0  0
   60.5311   34.3331   47.0830 H   0  0  0  0  0  0  0  0  0  0  0  0
   62.4859   34.0160   45.5656 H   0  0  0  0  0  0  0  0  0  0  0  0
   64.6144   33.0549   46.4469 H   0  0  0  0  0  0  0  0  0  0  0  0
   64.7918   32.4174   48.8544 H   0  0  0  0  0  0  0  0  0  0  0  0
   62.8406   32.7251   50.3762 H   0  0  0  0  0  0  0  0  0  0  0  0
   58.4970   33.4220   48.9370 H   0  0  0  0  0  0  0  0  0  0  0  0
   57.7051   35.1256   46.8494 H   0  0  0  0  0  0  0  0  0  0  0  0
   57.3529   35.1258   44.3410 H   0  0  0  0  0  0  0  0  0  0  0  0
   57.7564   33.0198   43.0305 H   0  0  0  0  0  0  0  0  0  0  0  0
  1  2  1  0
  2  3  1  0
  3  4  1  0
  4  5  1  0
  5  6  1  0
  6  7  1  0
  7  8  1  0
  8  9  1  0
  9 10  1  0
 10 11  1  0
 11 12  1  0
 12 13  2  0
 13 14  1  0
 14 15  2  0
 15 16  1  0
 16 17  2  0
  7 18  2  0
 18 19  1  0
 19 20  2  0
 20 21  1  0
 21 22  2  0
 22 23  1  0
 23 24  2  0
 24  6  1  0
 17 12  1  0
 24 19  1  0
  1 25  1  0
  1 26  1  0
  1 27  1  0
  3 28  1  0
  3 29  1  0
  4 30  1  0
  4 31  1  0
  5 32  1  0
  5 33  1  0
  9 34  1  0
  9 35  1  0
 10 36  1  0
 10 37  1  0
 13 38  1  0
 14 39  1  0
 15 40  1  0
 16 41  1  0
 17 42  1  0
 18 43  1  0
 20 44  1  0
 21 45  1  0
 22 46  1  0
M  CHG  1  18   1
M  END
>  <UniqueID>  (20) 
20

>  <SMILES>  (20) 
COCCCn1c(SCCOc2ccccc2)[nH+]c2cccnc21

>  <Energy>  (20) 
83.24442002282815

>  <Genealogy>  (20) 
COCCCn1c(SCCOc2ccccc2)[nH+]c2cccnc21 (protonated)
COCCCn1c(SCCOc2ccccc2)[nH+]c2cccnc21 (3D coordinates assigned)
COCCCn1c(SCCOc2ccccc2)[nH+]c2cccnc21 (optimized conformer: 83.24442002282815 kcal/mol)

>  <smiles>  (20) 
COCCCn1c(SCCOc2ccccc2)nc2cccnc21

>  <score_type>  (20) 
oracle

>  <origin>  (20) 
adg

>  <m_score__min__energy>  (20) 
-5.7999999999999998

>  <m_primary>  (20) 
energy

$$$$
20:0
     RDKit          3D

 65 69  0  0  0  0  0  0  0  0999 V2000
   56.6190   22.3200   42.9850 C   0  0  0  0  0  0  0  0  0  0  0  0
   57.3280   23.0960   44.0940 C   0  0  0  0  0  0  0  0  0  0  0  0
   56.8490   24.5620   44.1850 C   0  0  0  0  0  0  0  0  0  0  0  0
   57.9710   25.5670   44.5410 C   0  0  2  0  0  0  0  0  0  0  0  0
   58.5430   25.3060   45.9430 C   0  0  0  0  0  0  0  0  0  0  0  0
   59.5710   26.3780   46.2810 C   0  0  0  0  0  0  0  0  0  0  0  0
   58.9960   27.7110   46.0950 N   0  0  0  0  0  0  0  0  0  0  0  0
   57.9700   27.9560   45.0960 C   0  0  0  0  0  0  0  0  0  0  0  0
   57.4590   26.9450   44.4360 N   0  0  0  0  0  0  0  0  0  0  0  0
   57.4810   29.3210   44.8880 N   0  0  0  0  0  0  0  0  0  0  0  0
   56.5550   29.6690   43.7960 C   0  0  0  0  0  0  0  0  0  0  0  0
   57.0980   30.8410   42.9840 C   0  0  0  0  0  0  0  0  0  0  0  0
   57.9180   30.3730   45.7820 C   0  0  0  0  0  0  0  0  0  0  0  0
   57.3770   31.5100   45.7480 O   0  0  0  0  0  0  0  0  0  0  0  0
   58.9890   30.0750   46.7400 C   0  0  0  0  0  0  0  0  0  0  0  0
   59.4840   28.8190   46.8580 C   0  0  0  0  0  0  0  0  0  0  0  0
   60.4230   28.7620   47.8180 N   0  0  0  0  0  0  0  0  0  0  0  0
   60.4770   30.0370   48.2750 C   0  0  0  0  0  0  0  0  0  0  0  0
   61.3960   30.4380   49.3980 C   0  0  0  0  0  0  0  0  0  0  0  0
   62.3730   31.4780   48.9210 C   0  0  0  0  0  0  0  0  0  0  0  0
   62.9490   32.3810   49.8310 C   0  0  0  0  0  0  0  0  0  0  0  0
   63.8240   33.3740   49.3780 C   0  0  0  0  0  0  0  0  0  0  0  0
   64.1220   33.4790   48.0170 C   0  0  0  0  0  0  0  0  0  0  0  0
   63.5440   32.5920   47.1050 C   0  0  0  0  0  0  0  0  0  0  0  0
   62.6690   31.5980   47.5530 C   0  0  0  0  0  0  0  0  0  0  0  0
   59.6200   30.8740   47.6280 N   0  0  0  0  0  0  0  0  0  0  0  0
   59.4220   32.3100   47.8680 C   0  0  0  0  0  0  0  0  0  0  0  0
   59.1090   32.5750   49.3180 C   0  0  0  0  0  0  0  0  0  0  0  0
   59.7420   33.6310   49.9980 C   0  0  0  0  0  0  0  0  0  0  0  0
   59.4460   33.8840   51.3410 C   0  0  0  0  0  0  0  0  0  0  0  0
   58.5120   33.0930   52.0130 C   0  0  0  0  0  0  0  0  0  0  0  0
   57.8640   32.0530   51.3420 C   0  0  0  0  0  0  0  0  0  0  0  0
   58.1560   31.7980   49.9990 C   0  0  0  0  0  0  0  0  0  0  0  0
   55.9411   21.5781   43.4323 H   0  0  0  0  0  0  0  0  0  0  0  0
   56.0397   23.0174   42.3622 H   0  0  0  0  0  0  0  0  0  0  0  0
   57.3658   21.8058   42.3622 H   0  0  0  0  0  0  0  0  0  0  0  0
   57.1298   22.5992   45.0552 H   0  0  0  0  0  0  0  0  0  0  0  0
   58.4029   23.1080   43.8609 H   0  0  0  0  0  0  0  0  0  0  0  0
   56.4233   24.8484   43.2120 H   0  0  0  0  0  0  0  0  0  0  0  0
   56.1101   24.6067   44.9986 H   0  0  0  0  0  0  0  0  0  0  0  0
   58.7933   25.4310   43.8231 H   0  0  0  0  0  0  0  0  0  0  0  0
   57.7286   25.3333   46.6819 H   0  0  0  0  0  0  0  0  0  0  0  0
   59.0247   24.3173   45.9637 H   0  0  0  0  0  0  0  0  0  0  0  0
   59.8854   26.2616   47.3287 H   0  0  0  0  0  0  0  0  0  0  0  0
   60.4373   26.2659   45.6124 H   0  0  0  0  0  0  0  0  0  0  0  0
   56.6850   27.0980   43.7570 H   0  0  0  0  0  0  0  0  0  0  0  0
   56.4315   28.7981   43.1355 H   0  0  0  0  0  0  0  0  0  0  0  0
   55.5866   29.9574   44.2308 H   0  0  0  0  0  0  0  0  0  0  0  0
   57.4605   31.6235   43.6669 H   0  0  0  0  0  0  0  0  0  0  0  0
   57.9274   30.4947   42.3498 H   0  0  0  0  0  0  0  0  0  0  0  0
   56.2976   31.2498   42.3498 H   0  0  0  0  0  0  0  0  0  0  0  0
   60.8004   30.8509   50.2255 H   0  0  0  0  0  0  0  0  0  0  0  0
   61.9517   29.5530   49.7416 H   0  0  0  0  0  0  0  0  0  0  0  0
   62.7111   32.3067   50.9024 H   0  0  0  0  0  0  0  0  0  0  0  0
   64.2784   34.0737   50.0949 H   0  0  0  0  0  0  0  0  0  0  0  0
   64.8115   34.2598   47.6635 H   0  0  0  0  0  0  0  0  0  0  0  0
   63.7777   32.6760   46.0334 H   0  0  0  0  0  0  0  0  0  0  0  0
   62.2101   30.9066   46.8309 H   0  0  0  0  0  0  0  0  0  0  0  0
   60.3395   32.8509   47.5930 H   0  0  0  0  0  0  0  0  0  0  0  0
   58.5748   32.6548   47.2570 H   0  0  0  0  0  0  0  0  0  0  0  0
   60.4735   34.2610   49.4707 H   0  0  0  0  0  0  0  0  0  0  0  0
   59.9496   34.7073   51.8688 H   0  0  0  0  0  0  0  0  0  0  0  0
   58.2862   33.2889   53.0716 H   0  0  0  0  0  0  0  0  0  0  0  0
   57.1237   31.4346   51.8707 H   0  0  0  0  0  0  0  0  0  0  0  0
   57.6367   30.9841   49.4718 H   0  0  0  0  0  0  0  0  0  0  0  0
  1  2  1  0
  2  3  1  0
  3  4  1  0
  4  5  1  0
  5  6  1  0
  6  7  1  0
  7  8  1  0
  8  9  2  0
  8 10  1  0
 10 11  1  0
 11 12  1  0
 10 13  1  0
 13 14  2  0
 13 15  1  0
 15 16  2  0
 16 17  1  0
 17 18  2  0
 18 19  1  0
 19 20  1  0
 20 21  2  0
 21 22  1  0
 22 23  2  0
 23 24  1  0
 24 25  2  0
 18 26  1  0
 26 27  1  0
 27 28  1  0
 28 29  2  0
 29 30  1  0
 30 31  2  0
 31 32  1  0
 32 33  2  0
  9  4  1  0
 26 15  1  0
 33 28  1  0
 16  7  1  0
 25 20  1  0
  1 34  1  0
  1 35  1  0
  1 36  1  0
  2 37  1  0
  2 38  1  0
  3 39  1  0
  3 40  1  0
  4 41  1  6
  5 42  1  0
  5 43  1  0
  6 44  1  0
  6 45  1  0
  9 46  1  0
 11 47  1  0
 11 48  1  0
 12 49  1  0
 12 50  1  0
 12 51  1  0
 19 52  1  0
 19 53  1  0
 21 54  1  0
 22 55  1  0
 23 56  1  0
 24 57  1  0
 25 58  1  0
 27 59  1  0
 27 60  1  0
 29 61  1  0
 30 62  1  0
 31 63  1  0
 32 64  1  0
 33 65  1  0
M  CHG  1   9   1
M  END
>  <UniqueID>  (21) 
21

>  <SMILES>  (21) 
CCC[C@@H]1CCN2C(=[NH+]1)N(CC)C(=O)c1c2nc(Cc2ccccc2)n1Cc1ccccc1

>  <Energy>  (21) 
99.34892932260783

>  <Genealogy>  (21) 
CCCC1CCN2C(=[NH+]1)N(CC)C(=O)c1c2nc(Cc2ccccc2)n1Cc1ccccc1 (protonated)
CCC[C@@H]1CCN2C(=[NH+]1)N(CC)C(=O)c1c2nc(Cc2ccccc2)n1Cc1ccccc1 (chirality)
CCC[C@@H]1CCN2C(=[NH+]1)N(CC)C(=O)c1c2nc(Cc2ccccc2)n1Cc1ccccc1 (3D coordinates assigned)
CCC[C@@H]1CCN2C(=[NH+]1)N(CC)C(=O)c1c2nc(Cc2ccccc2)n1Cc1ccccc1 (nonaromatic ring conformer: 99.34892932260783 kcal/mol)

>  <smiles>  (21) 
CCCC1CCN2C(=N1)N(CC)C(=O)c1c2nc(Cc2ccccc2)n1Cc1ccccc1

>  <score_type>  (21) 
oracle

>  <origin>  (21) 
adg

>  <m_score__min__energy>  (21) 
-7.7800000000000002

>  <m_primary>  (21) 
energy

$$$$
21:0
     RDKit          3D

 61 64  0  0  0  0  0  0  0  0999 V2000
   60.7940   34.2370   46.5560 C   0  0  0  0  0  0  0  0  0  0  0  0
   61.9860   33.3060   46.7710 C   0  0  0  0  0  0  0  0  0  0  0  0
   61.6720   32.0950   47.6210 C   0  0  0  0  0  0  0  0  0  0  0  0
   60.9170   31.0470   47.2000 N   0  0  0  0  0  0  0  0  0  0  0  0
   60.9120   30.1890   48.2350 C   0  0  0  0  0  0  0  0  0  0  0  0
   60.3100   28.9230   48.3150 C   0  0  0  0  0  0  0  0  0  0  0  0
   59.4690   28.4100   47.2700 N   0  0  0  0  0  0  0  0  0  0  0  0
   59.8460   27.5670   46.2840 C   0  0  0  0  0  0  0  0  0  0  0  0
   58.7530   27.2220   45.5150 C   0  0  0  0  0  0  0  0  0  0  0  0
   57.6710   27.8840   46.0650 C   0  0  0  0  0  0  0  0  0  0  0  0
   56.2740   27.7990   45.6220 C   0  0  0  0  0  0  0  0  0  0  0  0
   55.5990   26.7610   45.8610 O   0  0  0  0  0  0  0  0  0  0  0  0
   55.6840   28.8990   44.9270 N   0  0  0  0  0  0  0  0  0  0  0  0
   56.2190   29.4310   43.6780 C   0  0  0  0  0  0  0  0  0  0  0  0
   57.0290   30.6720   43.9460 C   0  0  0  0  0  0  0  0  0  0  0  0
   57.3980   30.9950   45.2640 C   0  0  0  0  0  0  0  0  0  0  0  0
   58.1300   32.1570   45.5320 C   0  0  0  0  0  0  0  0  0  0  0  0
   58.4960   32.4490   46.8030 F   0  0  0  0  0  0  0  0  0  0  0  0
   58.4780   33.0180   44.4870 C   0  0  0  0  0  0  0  0  0  0  0  0
   58.0970   32.7200   43.1760 C   0  0  0  0  0  0  0  0  0  0  0  0
   57.3730   31.5550   42.9020 C   0  0  0  0  0  0  0  0  0  0  0  0
   57.0100   31.2920   41.6200 F   0  0  0  0  0  0  0  0  0  0  0  0
   58.1410   28.6020   47.1470 C   0  0  0  0  0  0  0  0  0  0  0  0
   60.5340   28.1780   49.4940 C   0  0  0  0  0  0  0  0  0  0  0  0
   61.3130   28.7070   50.5430 C   0  0  0  0  0  0  0  0  0  0  0  0
   61.8870   29.9850   50.4330 C   0  0  0  0  0  0  0  0  0  0  0  0
   61.6640   30.7060   49.2560 C   0  0  0  0  0  0  0  0  0  0  0  0
   62.1300   31.9260   48.8960 N   0  0  0  0  0  0  0  0  0  0  0  0
   63.0020   32.8410   49.6570 C   0  0  0  0  0  0  0  0  0  0  0  0
   62.2470   34.1590   49.9430 C   0  0  0  0  0  0  0  0  0  0  0  0
   60.7470   33.9510   50.1410 C   0  0  0  0  0  0  0  0  0  0  0  0
   64.3550   33.0560   48.9220 C   0  0  0  0  0  0  0  0  0  0  0  0
   65.5610   32.7220   49.8010 C   0  0  0  0  0  0  0  0  0  0  0  0
   60.3929   34.5503   47.5312 H   0  0  0  0  0  0  0  0  0  0  0  0
   61.1183   35.1234   45.9910 H   0  0  0  0  0  0  0  0  0  0  0  0
   60.0126   33.7077   45.9910 H   0  0  0  0  0  0  0  0  0  0  0  0
   62.3354   32.9579   45.7878 H   0  0  0  0  0  0  0  0  0  0  0  0
   62.7504   33.8850   47.3100 H   0  0  0  0  0  0  0  0  0  0  0  0
   60.4790   30.9090   46.2640 H   0  0  0  0  0  0  0  0  0  0  0  0
   60.8726   27.2084   46.1184 H   0  0  0  0  0  0  0  0  0  0  0  0
   58.7445   26.5547   44.6406 H   0  0  0  0  0  0  0  0  0  0  0  0
   56.8611   28.6730   43.2057 H   0  0  0  0  0  0  0  0  0  0  0  0
   55.3836   29.6851   43.0091 H   0  0  0  0  0  0  0  0  0  0  0  0
   57.1090   30.3291   46.0905 H   0  0  0  0  0  0  0  0  0  0  0  0
   59.0529   33.9319   44.6972 H   0  0  0  0  0  0  0  0  0  0  0  0
   58.3671   33.4033   42.3574 H   0  0  0  0  0  0  0  0  0  0  0  0
   57.5265   29.2328   47.8062 H   0  0  0  0  0  0  0  0  0  0  0  0
   60.0958   27.1741   49.5947 H   0  0  0  0  0  0  0  0  0  0  0  0
   61.4730   28.1142   51.4557 H   0  0  0  0  0  0  0  0  0  0  0  0
   62.4936   30.4056   51.2485 H   0  0  0  0  0  0  0  0  0  0  0  0
   63.2551   32.3924   50.6290 H   0  0  0  0  0  0  0  0  0  0  0  0
   62.6626   34.6111   50.8556 H   0  0  0  0  0  0  0  0  0  0  0  0
   62.3780   34.8123   49.0677 H   0  0  0  0  0  0  0  0  0  0  0  0
   60.5201   33.9195   51.2169 H   0  0  0  0  0  0  0  0  0  0  0  0
   60.1969   34.7815   49.6744 H   0  0  0  0  0  0  0  0  0  0  0  0
   60.4436   33.0022   49.6744 H   0  0  0  0  0  0  0  0  0  0  0  0
   64.3786   32.4108   48.0314 H   0  0  0  0  0  0  0  0  0  0  0  0
   64.4229   34.1206   48.6535 H   0  0  0  0  0  0  0  0  0  0  0  0
   65.2757   32.8010   50.8604 H   0  0  0  0  0  0  0  0  0  0  0  0
   65.8977   31.6968   49.5874 H   0  0  0  0  0  0  0  0  0  0  0  0
   66.3771   33.4279   49.5874 H   0  0  0  0  0  0  0  0  0  0  0  0
  1  2  1  0
  2  3  1  0
  3  4  2  0
  4  5  1  0
  5  6  2  0
  6  7  1  0
  7  8  1  0
  8  9  2  0
  9 10  1  0
 10 11  1  0
 11 12  2  0
 11 13  1  0
 13 14  1  0
 14 15  1  0
 15 16  2  0
 16 17  1  0
 17 18  1  0
 17 19  2  0
 19 20  1  0
 20 21  2  0
 21 22  1  0
 10 23  2  0
  6 24  1  0
 24 25  2  0
 25 26  1  0
 26 27  2  0
 27 28  1  0
 28 29  1  0
 29 30  1  0
 30 31  1  0
 29 32  1  0
 32 33  1  0
 28  3  1  0
 27  5  1  0
 23  7  1  0
 21 15  1  0
  1 34  1  0
  1 35  1  0
  1 36  1  0
  2 37  1  0
  2 38  1  0
  4 39  1  0
  8 40  1  0
  9 41  1  0
 14 42  1  0
 14 43  1  0
 16 44  1  0
 19 45  1  0
 20 46  1  0
 23 47  1  0
 24 48  1  0
 25 49  1  0
 26 50  1  0
 29 51  1  0
 30 52  1  0
 30 53  1  0
 31 54  1  0
 31 55  1  0
 31 56  1  0
 32 57  1  0
 32 58  1  0
 33 59  1  0
 33 60  1  0
 33 61  1  0
M  CHG  2   4   1  13  -1
M  END
>  <UniqueID>  (22) 
22

>  <SMILES>  (22) 
CCc1[nH+]c2c(-n3ccc(C(=O)[N-]Cc4cc(F)ccc4F)c3)cccc2n1C(CC)CC

>  <Energy>  (22) 
126.79304498484389

>  <Genealogy>  (22) 
CCc1[nH+]c2c(-n3ccc(C(=O)[N-]Cc4cc(F)ccc4F)c3)cccc2n1C(CC)CC (protonated)
CCc1[nH+]c2c(-n3ccc(C(=O)[N-]Cc4cc(F)ccc4F)c3)cccc2n1C(CC)CC (3D coordinates assigned)
CCc1[nH+]c2c(-n3ccc(C(=O)[N-]Cc4cc(F)ccc4F)c3)cccc2n1C(CC)CC (optimized conformer: 126.79304498484389 kcal/mol)

>  <smiles>  (22) 
CCc1nc2c(-n3ccc(C(=O)NCc4cc(F)ccc4F)c3)cccc2n1C(CC)CC

>  <score_type>  (22) 
oracle

>  <origin>  (22) 
adg

>  <m_score__min__energy>  (22) 
-9.3200000000000003

>  <m_primary>  (22) 
energy

$$$$
22:0
     RDKit          3D

 37 39  0  0  0  0  0  0  0  0999 V2000
   60.0230   23.6240   45.6140 O   0  0  0  0  0  0  0  0  0  0  0  0
   58.8040   23.6680   45.9390 C   0  0  0  0  0  0  0  0  0  0  0  0
   58.0160   22.4150   45.9470 C   0  0  0  0  0  0  0  0  0  0  0  0
   58.1140   21.4900   44.8940 C   0  0  0  0  0  0  0  0  0  0  0  0
   57.3930   20.3380   44.9400 N   0  0  0  0  0  0  0  0  0  0  0  0
   56.5820   20.0600   45.9950 C   0  0  0  0  0  0  0  0  0  0  0  0
   56.4890   20.9700   47.0490 C   0  0  0  0  0  0  0  0  0  0  0  0
   57.2080   22.1210   47.0010 N   0  0  0  0  0  0  0  0  0  0  0  0
   58.2140   24.9350   46.2980 N   0  0  0  0  0  0  0  0  0  0  0  0
   59.0330   25.9640   46.9480 C   0  0  0  0  0  0  0  0  0  0  0  0
   59.1070   27.1960   46.0460 C   0  0  0  0  0  0  0  0  0  0  0  0
   57.7670   27.6080   45.5930 N   0  0  0  0  0  0  0  0  0  0  0  0
   57.5990   28.9000   44.9700 C   0  0  0  0  0  0  0  0  0  0  0  0
   57.0750   29.0030   43.6680 C   0  0  0  0  0  0  0  0  0  0  0  0
   56.9180   30.2540   43.0650 C   0  0  0  0  0  0  0  0  0  0  0  0
   57.2830   31.4150   43.7500 C   0  0  0  0  0  0  0  0  0  0  0  0
   57.8090   31.3270   45.0420 C   0  0  0  0  0  0  0  0  0  0  0  0
   58.2740   32.7850   45.8990 Cl  0  0  0  0  0  0  0  0  0  0  0  0
   57.9680   30.0770   45.6510 C   0  0  0  0  0  0  0  0  0  0  0  0
   56.5900   26.7970   45.9440 C   0  0  0  0  0  0  0  0  0  0  0  0
   56.8860   25.2980   45.7770 C   0  0  0  0  0  0  0  0  0  0  0  0
   58.7710   21.6968   44.0363 H   0  0  0  0  0  0  0  0  0  0  0  0
   57.4640   19.6540   44.1530 H   0  0  0  0  0  0  0  0  0  0  0  0
   56.0034   19.1248   46.0177 H   0  0  0  0  0  0  0  0  0  0  0  0
   55.8393   20.7569   47.9107 H   0  0  0  0  0  0  0  0  0  0  0  0
   58.5792   26.2406   47.9111 H   0  0  0  0  0  0  0  0  0  0  0  0
   60.0465   25.5730   47.1211 H   0  0  0  0  0  0  0  0  0  0  0  0
   59.5661   28.0236   46.6066 H   0  0  0  0  0  0  0  0  0  0  0  0
   59.7105   26.9435   45.1616 H   0  0  0  0  0  0  0  0  0  0  0  0
   56.7871   28.0929   43.1213 H   0  0  0  0  0  0  0  0  0  0  0  0
   56.5056   30.3244   42.0476 H   0  0  0  0  0  0  0  0  0  0  0  0
   57.1566   32.3981   43.2730 H   0  0  0  0  0  0  0  0  0  0  0  0
   58.3836   30.0130   46.6675 H   0  0  0  0  0  0  0  0  0  0  0  0
   56.3153   26.9953   46.9905 H   0  0  0  0  0  0  0  0  0  0  0  0
   55.7632   27.0686   45.2712 H   0  0  0  0  0  0  0  0  0  0  0  0
   56.1222   24.7228   46.3208 H   0  0  0  0  0  0  0  0  0  0  0  0
   56.8689   25.0668   44.7017 H   0  0  0  0  0  0  0  0  0  0  0  0
  1  2  2  0
  2  3  1  0
  3  4  2  0
  4  5  1  0
  5  6  2  0
  6  7  1  0
  7  8  2  0
  2  9  1  0
  9 10  1  0
 10 11  1  0
 11 12  1  0
 12 13  1  0
 13 14  2  0
 14 15  1  0
 15 16  2  0
 16 17  1  0
 17 18  1  0
 17 19  2  0
 12 20  1  0
 20 21  1  0
  8  3  1  0
 21  9  1  0
 19 13  1  0
  4 22  1  0
  5 23  1  0
  6 24  1  0
  7 25  1  0
 10 26  1  0
 10 27  1  0
 11 28  1  0
 11 29  1  0
 14 30  1  0
 15 31  1  0
 16 32  1  0
 19 33  1  0
 20 34  1  0
 20 35  1  0
 21 36  1  0
 21 37  1  0
M  CHG  1   5   1
M  END
>  <UniqueID>  (23) 
23

>  <SMILES>  (23) 
O=C(c1c[nH+]ccn1)N1CCN(c2cccc(Cl)c2)CC1

>  <Energy>  (23) 
47.788102410871204

>  <Genealogy>  (23) 
O=C(c1c[nH+]ccn1)N1CCN(c2cccc(Cl)c2)CC1 (protonated)
O=C(c1c[nH+]ccn1)N1CCN(c2cccc(Cl)c2)CC1 (3D coordinates assigned)
O=C(c1c[nH+]ccn1)N1CCN(c2cccc(Cl)c2)CC1 (nonaromatic ring conformer: 47.788102410871204 kcal/mol)

>  <smiles>  (23) 
O=C(c1cnccn1)N1CCN(c2cccc(Cl)c2)CC1

>  <score_type>  (23) 
oracle

>  <origin>  (23) 
adg

>  <m_score__min__energy>  (23) 
-5.9000000000000004

>  <m_primary>  (23) 
energy

$$$$
23:0
     RDKit          3D

 42 44  0  0  0  0  0  0  0  0999 V2000
   60.8460   28.6920   44.8670 C   0  0  0  0  0  0  0  0  0  0  0  0
   60.3360   27.7720   45.8270 O   0  0  0  0  0  0  0  0  0  0  0  0
   58.9950   27.3650   45.8980 C   0  0  0  0  0  0  0  0  0  0  0  0
   58.6180   26.0800   46.3250 C   0  0  0  0  0  0  0  0  0  0  0  0
   57.2700   25.7150   46.3550 C   0  0  0  0  0  0  0  0  0  0  0  0
   56.2730   26.6350   45.9780 C   0  0  0  0  0  0  0  0  0  0  0  0
   54.9100   26.3040   45.9900 O   0  0  0  0  0  0  0  0  0  0  0  0
   54.3820   25.0360   45.6120 C   0  0  0  0  0  0  0  0  0  0  0  0
   56.6450   27.9330   45.5940 C   0  0  0  0  0  0  0  0  0  0  0  0
   55.6260   28.8610   45.2030 N   0  0  0  0  0  0  0  0  0  0  0  0
   55.7270   29.8840   44.2030 C   0  0  0  0  0  0  0  0  0  0  0  0
   55.1750   29.6920   43.0870 O   0  0  0  0  0  0  0  0  0  0  0  0
   56.3470   31.2270   44.4770 C   0  0  0  0  0  0  0  0  0  0  0  0
   58.0840   31.2830   43.9070 S   0  0  0  0  0  0  0  0  0  0  0  0
   58.5180   32.7680   44.8260 C   0  0  0  0  0  0  0  0  0  0  0  0
   58.1820   34.0010   44.4040 N   0  0  0  0  0  0  0  0  0  0  0  0
   58.5660   34.8510   45.3440 N   0  0  0  0  0  0  0  0  0  0  0  0
   59.1130   34.1240   46.3340 C   0  0  0  0  0  0  0  0  0  0  0  0
   59.1010   32.8070   46.0460 N   0  0  0  0  0  0  0  0  0  0  0  0
   59.4930   31.7330   46.9270 C   0  0  0  0  0  0  0  0  0  0  0  0
   60.8510   31.5160   47.2180 C   0  0  0  0  0  0  0  0  0  0  0  0
   61.2340   30.4590   48.0440 C   0  0  0  0  0  0  0  0  0  0  0  0
   60.2570   29.6180   48.5750 C   0  0  0  0  0  0  0  0  0  0  0  0
   58.9480   29.8290   48.2820 N   0  0  0  0  0  0  0  0  0  0  0  0
   58.5480   30.8540   47.4810 C   0  0  0  0  0  0  0  0  0  0  0  0
   58.0040   28.2780   45.5200 C   0  0  0  0  0  0  0  0  0  0  0  0
   61.3163   29.5403   45.3859 H   0  0  0  0  0  0  0  0  0  0  0  0
   61.5934   28.1877   44.2368 H   0  0  0  0  0  0  0  0  0  0  0  0
   60.0223   29.0586   44.2368 H   0  0  0  0  0  0  0  0  0  0  0  0
   59.3878   25.3587   46.6369 H   0  0  0  0  0  0  0  0  0  0  0  0
   56.9854   24.7019   46.6753 H   0  0  0  0  0  0  0  0  0  0  0  0
   54.1403   24.4556   46.5146 H   0  0  0  0  0  0  0  0  0  0  0  0
   53.4699   25.1819   45.0147 H   0  0  0  0  0  0  0  0  0  0  0  0
   55.1281   24.4914   45.0147 H   0  0  0  0  0  0  0  0  0  0  0  0
   55.7713   32.0021   43.9499 H   0  0  0  0  0  0  0  0  0  0  0  0
   56.3311   31.4027   45.5628 H   0  0  0  0  0  0  0  0  0  0  0  0
   59.5195   34.5505   47.2629 H   0  0  0  0  0  0  0  0  0  0  0  0
   61.6153   32.1828   46.7924 H   0  0  0  0  0  0  0  0  0  0  0  0
   62.2964   30.2907   48.2741 H   0  0  0  0  0  0  0  0  0  0  0  0
   60.5464   28.7839   49.2311 H   0  0  0  0  0  0  0  0  0  0  0  0
   57.4784   30.9948   47.2662 H   0  0  0  0  0  0  0  0  0  0  0  0
   58.2929   29.2768   45.1610 H   0  0  0  0  0  0  0  0  0  0  0  0
  1  2  1  0
  2  3  1  0
  3  4  2  0
  4  5  1  0
  5  6  2  0
  6  7  1  0
  7  8  1  0
  6  9  1  0
  9 10  1  0
 10 11  1  0
 11 12  2  0
 11 13  1  0
 13 14  1  0
 14 15  1  0
 15 16  2  0
 16 17  1  0
 17 18  2  0
 18 19  1  0
 19 20  1  0
 20 21  2  0
 21 22  1  0
 22 23  2  0
 23 24  1  0
 24 25  2  0
  9 26  2  0
 26  3  1  0
 19 15  1  0
 25 20  1  0
  1 27  1  0
  1 28  1  0
  1 29  1  0
  4 30  1  0
  5 31  1  0
  8 32  1  0
  8 33  1  0
  8 34  1  0
 13 35  1  0
 13 36  1  0
 18 37  1  0
 21 38  1  0
 22 39  1  0
 23 40  1  0
 25 41  1  0
 26 42  1  0
M  CHG  1  10  -1
M  END
>  <UniqueID>  (24) 
24

>  <SMILES>  (24) 
COc1ccc(OC)c([N-]C(=O)CSc2nncn2-c2cccnc2)c1

>  <Energy>  (24) 
82.53655669046537

>  <Genealogy>  (24) 
COc1ccc(OC)c([N-]C(=O)CSc2nncn2-c2cccnc2)c1 (protonated)
COc1ccc(OC)c([N-]C(=O)CSc2nncn2-c2cccnc2)c1 (3D coordinates assigned)
COc1ccc(OC)c([N-]C(=O)CSc2nncn2-c2cccnc2)c1 (optimized conformer: 82.53655669046537 kcal/mol)

>  <smiles>  (24) 
COc1ccc(OC)c(NC(=O)CSc2nncn2-c2cccnc2)c1

>  <score_type>  (24) 
oracle

>  <origin>  (24) 
adg

>  <m_score__min__energy>  (24) 
-10.34

>  <m_primary>  (24) 
energy

$$$$
24:0
     RDKit          3D

 46 49  0  0  0  0  0  0  0  0999 V2000
   62.6930   31.5490   48.6140 C   0  0  0  0  0  0  0  0  0  0  0  0
   61.5250   31.1480   47.9060 O   0  0  0  0  0  0  0  0  0  0  0  0
   60.7330   32.0000   47.1200 C   0  0  0  0  0  0  0  0  0  0  0  0
   61.1490   33.3080   46.8100 C   0  0  0  0  0  0  0  0  0  0  0  0
   60.3650   34.1240   46.0010 C   0  0  0  0  0  0  0  0  0  0  0  0
   59.1620   33.6520   45.4840 C   0  0  0  0  0  0  0  0  0  0  0  0
   58.7180   32.3490   45.7660 C   0  0  0  0  0  0  0  0  0  0  0  0
   59.5030   31.5190   46.6150 C   0  0  0  0  0  0  0  0  0  0  0  0
   59.0670   30.1920   46.9680 N   0  0  0  0  0  0  0  0  0  0  0  0
   59.0770   29.6250   48.1930 C   0  0  0  0  0  0  0  0  0  0  0  0
   58.5390   28.3920   48.1780 N   0  0  0  0  0  0  0  0  0  0  0  0
   58.1670   28.1670   46.9020 C   0  0  0  0  0  0  0  0  0  0  0  0
   57.4580   26.9500   46.4700 C   0  0  0  0  0  0  0  0  0  0  0  0
   58.0300   25.9760   45.7360 N   0  0  0  0  0  0  0  0  0  0  0  0
   57.0110   25.1030   45.6080 C   0  0  0  0  0  0  0  0  0  0  0  0
   57.1190   23.8050   44.8590 C   0  0  0  0  0  0  0  0  0  0  0  0
   58.4730   23.1420   45.1290 C   0  0  0  0  0  0  0  0  0  0  0  0
   56.9110   24.0340   43.3590 C   0  0  0  0  0  0  0  0  0  0  0  0
   55.8900   25.5220   46.2280 N   0  0  0  0  0  0  0  0  0  0  0  0
   56.2090   26.6680   46.7480 O   0  0  0  0  0  0  0  0  0  0  0  0
   58.5150   29.2800   46.1460 C   0  0  0  0  0  0  0  0  0  0  0  0
   58.1990   29.5820   44.7200 C   0  0  0  0  0  0  0  0  0  0  0  0
   57.1510   30.6020   44.6920 N   0  0  0  0  0  0  0  0  0  0  0  0
   55.8210   30.2710   44.1710 C   0  0  0  0  0  0  0  0  0  0  0  0
   57.3990   31.9320   45.2040 C   0  0  0  0  0  0  0  0  0  0  0  0
   56.4790   32.7940   45.1390 O   0  0  0  0  0  0  0  0  0  0  0  0
   62.5060   31.4848   49.6961 H   0  0  0  0  0  0  0  0  0  0  0  0
   63.5294   30.8866   48.3465 H   0  0  0  0  0  0  0  0  0  0  0  0
   62.9462   32.5855   48.3465 H   0  0  0  0  0  0  0  0  0  0  0  0
   62.1006   33.6878   47.2101 H   0  0  0  0  0  0  0  0  0  0  0  0
   60.6972   35.1466   45.7689 H   0  0  0  0  0  0  0  0  0  0  0  0
   58.5508   34.3076   44.8463 H   0  0  0  0  0  0  0  0  0  0  0  0
   59.4767   30.1122   49.0946 H   0  0  0  0  0  0  0  0  0  0  0  0
   58.4040   27.7610   49.0000 H   0  0  0  0  0  0  0  0  0  0  0  0
   56.3292   23.1270   45.2147 H   0  0  0  0  0  0  0  0  0  0  0  0
   58.6329   23.0637   46.2145 H   0  0  0  0  0  0  0  0  0  0  0  0
   58.4843   22.1364   44.6832 H   0  0  0  0  0  0  0  0  0  0  0  0
   59.2742   23.7497   44.6832 H   0  0  0  0  0  0  0  0  0  0  0  0
   56.1783   24.8407   43.2094 H   0  0  0  0  0  0  0  0  0  0  0  0
   57.8675   24.3168   42.8951 H   0  0  0  0  0  0  0  0  0  0  0  0
   56.5378   23.1090   42.8951 H   0  0  0  0  0  0  0  0  0  0  0  0
   59.0985   29.9578   44.2105 H   0  0  0  0  0  0  0  0  0  0  0  0
   57.8583   28.6719   44.2046 H   0  0  0  0  0  0  0  0  0  0  0  0
   55.1308   30.0992   45.0101 H   0  0  0  0  0  0  0  0  0  0  0  0
   55.4503   31.1043   43.5560 H   0  0  0  0  0  0  0  0  0  0  0  0
   55.8841   29.3612   43.5560 H   0  0  0  0  0  0  0  0  0  0  0  0
  1  2  1  0
  2  3  1  0
  3  4  2  0
  4  5  1  0
  5  6  2  0
  6  7  1  0
  7  8  2  0
  8  9  1  0
  9 10  1  0
 10 11  2  0
 11 12  1  0
 12 13  1  0
 13 14  2  0
 14 15  1  0
 15 16  1  0
 16 17  1  0
 16 18  1  0
 15 19  2  0
 19 20  1  0
 12 21  2  0
 21 22  1  0
 22 23  1  0
 23 24  1  0
 23 25  1  0
 25 26  2  0
  8  3  1  0
 21  9  1  0
 25  7  1  0
 20 13  1  0
  1 27  1  0
  1 28  1  0
  1 29  1  0
  4 30  1  0
  5 31  1  0
  6 32  1  0
 10 33  1  0
 11 34  1  0
 16 35  1  0
 17 36  1  0
 17 37  1  0
 17 38  1  0
 18 39  1  0
 18 40  1  0
 18 41  1  0
 22 42  1  0
 22 43  1  0
 24 44  1  0
 24 45  1  0
 24 46  1  0
M  CHG  1  11   1
M  END
>  <UniqueID>  (25) 
25

>  <SMILES>  (25) 
COc1cccc2c1-n1c[nH+]c(-c3nc(C(C)C)no3)c1CN(C)C2=O

>  <Energy>  (25) 
119.67564155295155

>  <Genealogy>  (25) 
COc1cccc2c1-n1c[nH+]c(-c3nc(C(C)C)no3)c1CN(C)C2=O (protonated)
COc1cccc2c1-n1c[nH+]c(-c3nc(C(C)C)no3)c1CN(C)C2=O (3D coordinates assigned)
COc1cccc2c1-n1c[nH+]c(-c3nc(C(C)C)no3)c1CN(C)C2=O (nonaromatic ring conformer: 119.67564155295155 kcal/mol)

>  <smiles>  (25) 
COc1cccc2c1-n1cnc(-c3nc(C(C)C)no3)c1CN(C)C2=O

>  <score_type>  (25) 
oracle

>  <origin>  (25) 
adg

>  <m_score__min__energy>  (25) 
-6.0999999999999996

>  <m_primary>  (25) 
energy

$$$$
25:0
     RDKit          3D

 47 51  0  0  0  0  0  0  0  0999 V2000
   57.2260   32.3400   40.9270 C   0  0  0  0  0  0  0  0  0  0  0  0
   57.3580   31.6820   42.2680 C   0  0  0  0  0  0  0  0  0  0  0  0
   56.7600   30.4250   42.5110 C   0  0  0  0  0  0  0  0  0  0  0  0
   56.9020   29.7990   43.7590 C   0  0  0  0  0  0  0  0  0  0  0  0
   57.6690   30.4460   44.7250 C   0  0  0  0  0  0  0  0  0  0  0  0
   57.8820   30.0220   45.9860 N   0  0  0  0  0  0  0  0  0  0  0  0
   58.6560   30.9780   46.5520 C   0  0  0  0  0  0  0  0  0  0  0  0
   59.1410   30.9330   47.9500 C   0  0  0  0  0  0  0  0  0  0  0  0
   58.5410   31.7430   48.9290 C   0  0  0  0  0  0  0  0  0  0  0  0
   58.9900   31.7020   50.2530 C   0  0  0  0  0  0  0  0  0  0  0  0
   60.0350   30.8470   50.6140 C   0  0  0  0  0  0  0  0  0  0  0  0
   60.6440   30.7910   52.4230 Br  0  0  0  0  0  0  0  0  0  0  0  0
   60.6300   30.0280   49.6490 C   0  0  0  0  0  0  0  0  0  0  0  0
   60.1850   30.0670   48.3240 C   0  0  0  0  0  0  0  0  0  0  0  0
   58.9060   31.9620   45.6000 C   0  0  0  0  0  0  0  0  0  0  0  0
   59.5780   33.2090   45.8260 N   0  0  0  0  0  0  0  0  0  0  0  0
   60.4630   33.4460   46.9340 C   0  0  0  0  0  0  0  0  0  0  0  0
   60.0740   34.3350   47.9460 C   0  0  0  0  0  0  0  0  0  0  0  0
   60.9080   34.5800   49.0400 C   0  0  0  0  0  0  0  0  0  0  0  0
   62.1440   33.9280   49.1440 C   0  0  0  0  0  0  0  0  0  0  0  0
   62.9920   34.1680   50.2360 C   0  0  0  0  0  0  0  0  0  0  0  0
   64.2210   33.5070   50.3300 C   0  0  0  0  0  0  0  0  0  0  0  0
   64.6110   32.6040   49.3370 C   0  0  0  0  0  0  0  0  0  0  0  0
   63.7750   32.3560   48.2440 C   0  0  0  0  0  0  0  0  0  0  0  0
   62.5400   33.0140   48.1380 C   0  0  0  0  0  0  0  0  0  0  0  0
   61.6940   32.7730   47.0450 C   0  0  0  0  0  0  0  0  0  0  0  0
   58.2660   31.6230   44.4640 N   0  0  0  0  0  0  0  0  0  0  0  0
   58.1290   32.2810   43.2810 C   0  0  0  0  0  0  0  0  0  0  0  0
   57.0113   33.4102   41.0632 H   0  0  0  0  0  0  0  0  0  0  0  0
   58.1655   32.2229   40.3670 H   0  0  0  0  0  0  0  0  0  0  0  0
   56.4043   31.8696   40.3670 H   0  0  0  0  0  0  0  0  0  0  0  0
   56.1792   29.9337   41.7165 H   0  0  0  0  0  0  0  0  0  0  0  0
   56.4239   28.8305   43.9672 H   0  0  0  0  0  0  0  0  0  0  0  0
   57.5260   29.1430   46.4250 H   0  0  0  0  0  0  0  0  0  0  0  0
   57.7136   32.4131   48.6526 H   0  0  0  0  0  0  0  0  0  0  0  0
   58.5195   32.3443   51.0120 H   0  0  0  0  0  0  0  0  0  0  0  0
   61.4498   29.3517   49.9330 H   0  0  0  0  0  0  0  0  0  0  0  0
   60.6535   29.4173   47.5701 H   0  0  0  0  0  0  0  0  0  0  0  0
   59.3490   34.0060   45.1900 H   0  0  0  0  0  0  0  0  0  0  0  0
   59.1018   34.8451   47.8780 H   0  0  0  0  0  0  0  0  0  0  0  0
   60.5934   35.2868   49.8219 H   0  0  0  0  0  0  0  0  0  0  0  0
   62.6894   34.8778   51.0200 H   0  0  0  0  0  0  0  0  0  0  0  0
   64.8825   33.6983   51.1878 H   0  0  0  0  0  0  0  0  0  0  0  0
   65.5786   32.0868   49.4156 H   0  0  0  0  0  0  0  0  0  0  0  0
   64.0860   31.6437   47.4656 H   0  0  0  0  0  0  0  0  0  0  0  0
   61.9949   32.0532   46.2696 H   0  0  0  0  0  0  0  0  0  0  0  0
   58.6093   33.2575   43.1205 H   0  0  0  0  0  0  0  0  0  0  0  0
  1  2  1  0
  2  3  1  0
  3  4  2  0
  4  5  1  0
  5  6  2  0
  6  7  1  0
  7  8  1  0
  8  9  2  0
  9 10  1  0
 10 11  2  0
 11 12  1  0
 11 13  1  0
 13 14  2  0
  7 15  2  0
 15 16  1  0
 16 17  1  0
 17 18  2  0
 18 19  1  0
 19 20  2  0
 20 21  1  0
 21 22  2  0
 22 23  1  0
 23 24  2  0
 24 25  1  0
 25 26  2  0
 15 27  1  0
 27 28  1  0
 28  2  2  0
 27  5  1  0
 14  8  1  0
 26 17  1  0
 25 20  1  0
  1 29  1  0
  1 30  1  0
  1 31  1  0
  3 32  1  0
  4 33  1  0
  6 34  1  0
  9 35  1  0
 10 36  1  0
 13 37  1  0
 14 38  1  0
 16 39  1  0
 18 40  1  0
 19 41  1  0
 21 42  1  0
 22 43  1  0
 23 44  1  0
 24 45  1  0
 26 46  1  0
 28 47  1  0
M  CHG  1   6   1
M  END
>  <UniqueID>  (26) 
26

>  <SMILES>  (26) 
Cc1ccc2[nH+]c(-c3ccc(Br)cc3)c(Nc3ccc4ccccc4c3)n2c1

>  <Energy>  (26) 
101.15123969275865

>  <Genealogy>  (26) 
Cc1ccc2[nH+]c(-c3ccc(Br)cc3)c(Nc3ccc4ccccc4c3)n2c1 (protonated)
Cc1ccc2[nH+]c(-c3ccc(Br)cc3)c(Nc3ccc4ccccc4c3)n2c1 (3D coordinates assigned)
Cc1ccc2[nH+]c(-c3ccc(Br)cc3)c(Nc3ccc4ccccc4c3)n2c1 (optimized conformer: 101.15123969275865 kcal/mol)

>  <smiles>  (26) 
Cc1ccc2nc(-c3ccc(Br)cc3)c(Nc3ccc4ccccc4c3)n2c1

>  <score_type>  (26) 
oracle

>  <origin>  (26) 
adg

>  <m_score__min__energy>  (26) 
-7.4900000000000002

>  <m_primary>  (26) 
energy

$$$$
26:0
     RDKit          3D

 32 34  0  0  0  0  0  0  0  0999 V2000
   56.2200   29.6690   44.8210 O   0  0  0  0  0  0  0  0  0  0  0  0
   57.4420   30.5140   45.0430 S   0  0  0  0  0  0  0  0  0  0  0  0
   58.1900   30.6700   43.7480 O   0  0  0  0  0  0  0  0  0  0  0  0
   56.9900   32.0870   45.6160 N   0  0  0  0  0  0  0  0  0  0  0  0
   57.8920   33.1740   45.8530 C   0  0  0  0  0  0  0  0  0  0  0  0
   58.3750   33.8960   44.7550 C   0  0  0  0  0  0  0  0  0  0  0  0
   59.2590   34.9630   44.9430 C   0  0  0  0  0  0  0  0  0  0  0  0
   59.6640   35.3170   46.2320 C   0  0  0  0  0  0  0  0  0  0  0  0
   59.1840   34.6060   47.3350 C   0  0  0  0  0  0  0  0  0  0  0  0
   59.5750   34.9530   48.5860 F   0  0  0  0  0  0  0  0  0  0  0  0
   58.2990   33.5380   47.1510 C   0  0  0  0  0  0  0  0  0  0  0  0
   58.4790   29.7270   46.2410 C   0  0  0  0  0  0  0  0  0  0  0  0
   58.9390   30.4720   47.3350 C   0  0  0  0  0  0  0  0  0  0  0  0
   59.6920   29.8590   48.3360 C   0  0  0  0  0  0  0  0  0  0  0  0
   60.1310   30.5770   49.3980 F   0  0  0  0  0  0  0  0  0  0  0  0
   59.9760   28.4990   48.2400 C   0  0  0  0  0  0  0  0  0  0  0  0
   59.5360   27.7810   47.1720 N   0  0  0  0  0  0  0  0  0  0  0  0
   58.8180   28.3550   46.1640 C   0  0  0  0  0  0  0  0  0  0  0  0
   58.4120   27.5430   45.0540 N   0  0  0  0  0  0  0  0  0  0  0  0
   58.5370   27.8300   43.7470 C   0  0  0  0  0  0  0  0  0  0  0  0
   58.1210   26.8010   42.9840 N   0  0  0  0  0  0  0  0  0  0  0  0
   57.7560   25.8830   43.9060 C   0  0  0  0  0  0  0  0  0  0  0  0
   57.9420   26.3160   45.1670 N   0  0  0  0  0  0  0  0  0  0  0  0
   58.0571   33.6222   43.7382 H   0  0  0  0  0  0  0  0  0  0  0  0
   59.6357   35.5240   44.0751 H   0  0  0  0  0  0  0  0  0  0  0  0
   60.3608   36.1554   46.3788 H   0  0  0  0  0  0  0  0  0  0  0  0
   57.9207   32.9820   48.0214 H   0  0  0  0  0  0  0  0  0  0  0  0
   58.7052   31.5446   47.4045 H   0  0  0  0  0  0  0  0  0  0  0  0
   60.5583   28.0037   49.0309 H   0  0  0  0  0  0  0  0  0  0  0  0
   59.7740   26.7650   47.1210 H   0  0  0  0  0  0  0  0  0  0  0  0
   58.9274   28.7797   43.3526 H   0  0  0  0  0  0  0  0  0  0  0  0
   57.3516   24.8916   43.6540 H   0  0  0  0  0  0  0  0  0  0  0  0
  1  2  2  0
  2  3  2  0
  2  4  1  0
  4  5  1  0
  5  6  2  0
  6  7  1  0
  7  8  2  0
  8  9  1  0
  9 10  1  0
  9 11  2  0
  2 12  1  0
 12 13  2  0
 13 14  1  0
 14 15  1  0
 14 16  2  0
 16 17  1  0
 17 18  2  0
 18 19  1  0
 19 20  1  0
 20 21  2  0
 21 22  1  0
 22 23  2  0
 11  5  1  0
 18 12  1  0
 23 19  1  0
  6 24  1  0
  7 25  1  0
  8 26  1  0
 11 27  1  0
 13 28  1  0
 16 29  1  0
 17 30  1  0
 20 31  1  0
 22 32  1  0
M  CHG  2   4  -1  17   1
M  END
>  <UniqueID>  (27) 
27

>  <SMILES>  (27) 
O=S(=O)([N-]c1cccc(F)c1)c1cc(F)c[nH+]c1-n1cncn1

>  <Energy>  (27) 
78.21158097950503

>  <Genealogy>  (27) 
O=S(=O)([N-]c1cccc(F)c1)c1cc(F)c[nH+]c1-n1cncn1 (protonated)
O=S(=O)([N-]c1cccc(F)c1)c1cc(F)c[nH+]c1-n1cncn1 (3D coordinates assigned)
O=S(=O)([N-]c1cccc(F)c1)c1cc(F)c[nH+]c1-n1cncn1 (optimized conformer: 78.21158097950503 kcal/mol)

>  <smiles>  (27) 
O=S(=O)(Nc1cccc(F)c1)c1cc(F)cnc1-n1cncn1

>  <score_type>  (27) 
oracle

>  <origin>  (27) 
adg

>  <m_score__min__energy>  (27) 
-7.0700000000000003

>  <m_primary>  (27) 
energy

$$$$
27:0
     RDKit          3D

 47 48  0  0  0  0  0  0  0  0999 V2000
   59.7010   29.3730   45.3950 C   0  0  0  0  0  0  0  0  0  0  0  0
   59.2110   29.9930   46.5810 O   0  0  0  0  0  0  0  0  0  0  0  0
   58.9990   31.3750   46.7410 C   0  0  0  0  0  0  0  0  0  0  0  0
   58.2990   32.1110   45.7720 C   0  0  0  0  0  0  0  0  0  0  0  0
   58.1140   33.4830   45.9140 C   0  0  0  0  0  0  0  0  0  0  0  0
   57.3900   34.2620   44.8520 C   0  0  0  0  0  0  0  0  0  0  0  0
   58.6690   34.1420   47.0100 C   0  0  0  0  0  0  0  0  0  0  0  0
   59.3890   33.4470   48.0020 C   0  0  0  0  0  0  0  0  0  0  0  0
   59.5170   32.0170   47.8980 C   0  0  0  0  0  0  0  0  0  0  0  0
   60.2940   31.1960   48.8230 N   0  0  0  0  0  0  0  0  0  0  0  0
   59.7740   31.0900   50.1920 C   0  0  0  0  0  0  0  0  0  0  0  0
   59.7670   32.4380   50.8310 C   0  0  0  0  0  0  0  0  0  0  0  0
   59.1630   32.6190   51.9240 O   0  0  0  0  0  0  0  0  0  0  0  0
   60.5090   33.4970   50.2200 N   0  0  0  0  0  0  0  0  0  0  0  0
   61.8190   33.8980   50.7450 C   0  0  0  0  0  0  0  0  0  0  0  0
   62.6600   34.5540   49.6410 C   0  0  0  0  0  0  0  0  0  0  0  0
   63.4680   33.5200   48.8430 C   0  0  0  0  0  0  0  0  0  0  0  0
   62.6570   32.9030   47.7700 N   0  0  0  0  0  0  0  0  0  0  0  0
   63.3140   31.7010   47.2280 C   0  0  0  0  0  0  0  0  0  0  0  0
   62.4360   33.8700   46.6830 C   0  0  0  0  0  0  0  0  0  0  0  0
   59.8530   34.2900   49.1790 C   0  0  0  0  0  0  0  0  0  0  0  0
   60.3622   28.5364   45.6649 H   0  0  0  0  0  0  0  0  0  0  0  0
   58.8549   28.9951   44.8023 H   0  0  0  0  0  0  0  0  0  0  0  0
   60.2641   30.1089   44.8023 H   0  0  0  0  0  0  0  0  0  0  0  0
   57.8915   31.5967   44.8892 H   0  0  0  0  0  0  0  0  0  0  0  0
   56.7145   34.9888   45.3268 H   0  0  0  0  0  0  0  0  0  0  0  0
   58.1207   34.7951   44.2260 H   0  0  0  0  0  0  0  0  0  0  0  0
   56.8049   33.5722   44.2260 H   0  0  0  0  0  0  0  0  0  0  0  0
   58.5418   35.2307   47.1026 H   0  0  0  0  0  0  0  0  0  0  0  0
   61.2810   31.5480   48.8300 H   0  0  0  0  0  0  0  0  0  0  0  0
   60.3270   30.2140   48.4650 H   0  0  0  0  0  0  0  0  0  0  0  0
   58.7486   30.6928   50.1643 H   0  0  0  0  0  0  0  0  0  0  0  0
   60.4158   30.4130   50.7749 H   0  0  0  0  0  0  0  0  0  0  0  0
   61.6761   34.6155   51.5664 H   0  0  0  0  0  0  0  0  0  0  0  0
   62.3455   33.0042   51.1111 H   0  0  0  0  0  0  0  0  0  0  0  0
   61.9884   35.0880   48.9527 H   0  0  0  0  0  0  0  0  0  0  0  0
   63.3700   35.2447   50.1194 H   0  0  0  0  0  0  0  0  0  0  0  0
   64.3377   34.0189   48.3906 H   0  0  0  0  0  0  0  0  0  0  0  0
   63.7855   32.7250   49.5337 H   0  0  0  0  0  0  0  0  0  0  0  0
   63.6605   31.0670   48.0574 H   0  0  0  0  0  0  0  0  0  0  0  0
   62.5979   31.1385   46.6109 H   0  0  0  0  0  0  0  0  0  0  0  0
   64.1741   32.0000   46.6109 H   0  0  0  0  0  0  0  0  0  0  0  0
   62.2103   34.8578   47.1112 H   0  0  0  0  0  0  0  0  0  0  0  0
   63.3418   33.9376   46.0626 H   0  0  0  0  0  0  0  0  0  0  0  0
   61.5907   33.5374   46.0626 H   0  0  0  0  0  0  0  0  0  0  0  0
   58.9784   34.7922   49.6182 H   0  0  0  0  0  0  0  0  0  0  0  0
   60.5899   35.0129   48.7990 H   0  0  0  0  0  0  0  0  0  0  0  0
  1  2  1  0
  2  3  1  0
  3  4  2  0
  4  5  1  0
  5  6  1  0
  5  7  2  0
  7  8  1  0
  8  9  2  0
  9 10  1  0
 10 11  1  0
 11 12  1  0
 12 13  2  0
 12 14  1  0
 14 15  1  0
 15 16  1  0
 16 17  1  0
 17 18  1  0
 18 19  1  0
 18 20  1  0
 14 21  1  0
  9  3  1  0
 21  8  1  0
  1 22  1  0
  1 23  1  0
  1 24  1  0
  4 25  1  0
  6 26  1  0
  6 27  1  0
  6 28  1  0
  7 29  1  0
 10 30  1  0
 10 31  1  0
 11 32  1  0
 11 33  1  0
 15 34  1  0
 15 35  1  0
 16 36  1  0
 16 37  1  0
 17 38  1  0
 17 39  1  0
 19 40  1  0
 19 41  1  0
 19 42  1  0
 20 43  1  0
 20 44  1  0
 20 45  1  0
 21 46  1  0
 21 47  1  0
M  CHG  1  10   1
M  END
>  <UniqueID>  (28) 
28

>  <SMILES>  (28) 
COc1cc(C)cc2c1[NH2+]CC(=O)N(CCCN(C)C)C2

>  <Energy>  (28) 
55.56163227998649

>  <Genealogy>  (28) 
COc1cc(C)cc2c1[NH2+]CC(=O)N(CCCN(C)C)C2 (protonated)
COc1cc(C)cc2c1[NH2+]CC(=O)N(CCCN(C)C)C2 (3D coordinates assigned)
COc1cc(C)cc2c1[NH2+]CC(=O)N(CCCN(C)C)C2 (nonaromatic ring conformer: 55.56163227998649 kcal/mol)

>  <smiles>  (28) 
COc1cc(C)cc2c1NCC(=O)N(CCCN(C)C)C2

>  <score_type>  (28) 
oracle

>  <origin>  (28) 
adg

>  <m_score__min__energy>  (28) 
-4.0099999999999998

>  <m_primary>  (28) 
energy

$$$$
28:0
     RDKit          3D

 37 39  0  0  0  0  0  0  0  0999 V2000
   55.1637   23.0447   48.6351 H   0  0  0  0  0  0  0  0  0  0  0  0
   55.8860   23.2410   47.8290 C   0  0  0  0  0  0  0  0  0  0  0  0
   57.0210   22.6990   47.8430 O   0  0  0  0  0  0  0  0  0  0  0  0
   55.5490   24.1150   46.7510 N   0  0  0  0  0  0  0  0  0  0  0  0
   56.1790   25.0690   46.1170 C   0  0  0  0  0  0  0  0  0  0  0  0
   56.0640   26.3440   46.5750 N   0  0  0  0  0  0  0  0  0  0  0  0
   56.8100   27.0550   45.7240 C   0  0  0  0  0  0  0  0  0  0  0  0
   57.0480   28.4240   45.7260 C   0  0  0  0  0  0  0  0  0  0  0  0
   56.6053   29.0792   46.4907 H   0  0  0  0  0  0  0  0  0  0  0  0
   57.8790   28.9420   44.7100 C   0  0  0  0  0  0  0  0  0  0  0  0
   58.1950   30.4120   44.6700 C   0  0  0  0  0  0  0  0  0  0  0  0
   58.6169   30.6645   43.6860 H   0  0  0  0  0  0  0  0  0  0  0  0
   58.9203   30.6408   45.4648 H   0  0  0  0  0  0  0  0  0  0  0  0
   57.0260   31.1780   44.8850 O   0  0  0  0  0  0  0  0  0  0  0  0
   57.3390   32.5540   44.8900 C   0  0  0  0  0  0  0  0  0  0  0  0
   57.4195   32.9079   45.9284 H   0  0  0  0  0  0  0  0  0  0  0  0
   58.2965   32.7141   44.3728 H   0  0  0  0  0  0  0  0  0  0  0  0
   56.5450   33.1125   44.3728 H   0  0  0  0  0  0  0  0  0  0  0  0
   58.4350   28.0540   43.7530 C   0  0  0  0  0  0  0  0  0  0  0  0
   59.0912   28.4459   42.9619 H   0  0  0  0  0  0  0  0  0  0  0  0
   58.1620   26.7160   43.8060 N   0  0  0  0  0  0  0  0  0  0  0  0
   57.3540   26.2420   44.7890 C   0  0  0  0  0  0  0  0  0  0  0  0
   56.9820   24.9610   44.9940 N   0  0  0  0  0  0  0  0  0  0  0  0
   57.4330   23.8550   44.1210 C   0  0  0  0  0  0  0  0  0  0  0  0
   58.1987   24.3362   43.4948 H   0  0  0  0  0  0  0  0  0  0  0  0
   58.0790   22.7000   44.8720 C   0  0  0  0  0  0  0  0  0  0  0  0
   59.1693   22.8370   44.9219 H   0  0  0  0  0  0  0  0  0  0  0  0
   57.7142   22.6345   45.9077 H   0  0  0  0  0  0  0  0  0  0  0  0
   57.7360   21.4440   44.0730 C   0  0  0  0  0  0  0  0  0  0  0  0
   58.6334   21.0733   43.5560 H   0  0  0  0  0  0  0  0  0  0  0  0
   57.3681   20.6526   44.7426 H   0  0  0  0  0  0  0  0  0  0  0  0
   56.6590   21.8180   43.0450 C   0  0  0  0  0  0  0  0  0  0  0  0
   57.0320   21.6290   42.0276 H   0  0  0  0  0  0  0  0  0  0  0  0
   55.7535   21.2135   43.2020 H   0  0  0  0  0  0  0  0  0  0  0  0
   56.3430   23.3020   43.2140 C   0  0  0  0  0  0  0  0  0  0  0  0
   56.3604   23.8112   42.2391 H   0  0  0  0  0  0  0  0  0  0  0  0
   55.3416   23.4575   43.6417 H   0  0  0  0  0  0  0  0  0  0  0  0
  1  2  1  0
  2  3  2  0
  2  4  1  0
  4  5  2  0
  5  6  1  0
  6  7  1  0
  7  8  2  0
  8  9  1  0
  8 10  1  0
 10 11  1  0
 11 12  1  0
 11 13  1  0
 11 14  1  0
 14 15  1  0
 15 16  1  0
 15 17  1  0
 15 18  1  0
 10 19  2  0
 19 20  1  0
 19 21  1  0
 21 22  2  0
 22 23  1  0
 23 24  1  0
 24 25  1  0
 24 26  1  0
 26 27  1  0
 26 28  1  0
 26 29  1  0
 29 30  1  0
 29 31  1  0
 29 32  1  0
 32 33  1  0
 32 34  1  0
 32 35  1  0
 35 36  1  0
 35 37  1  0
 23  5  1  0
 35 24  1  0
 22  7  1  0
M  CHG  1   6  -1
M  END
>  <UniqueID>  (29) 
29

>  <SMILES>  (29) 
COCc1cnc2c(c1)[n-]/c(=N/C=O)n2C1CCCC1

>  <Energy>  (29) 
98.32341118372486

>  <Genealogy>  (29) 
COCc1cnc2c(c1)[n-]c(=NC=O)n2C1CCCC1 (protonated)
COCc1cnc2c(c1)[n-]/c(=N/C=O)n2C1CCCC1 (cis-trans isomerization)
COCc1cnc2c(c1)[n-]/c(=N/C=O)n2C1CCCC1 (3D coordinates assigned)
COCc1cnc2c(c1)[n-]/c(=N/C=O)n2C1CCCC1 (nonaromatic ring conformer: 98.32341118372486 kcal/mol)

>  <smiles>  (29) 
COCc1cnc2c(c1)[nH]c(=NC=O)n2C1CCCC1

>  <score_type>  (29) 
oracle

>  <origin>  (29) 
adg

>  <m_score__min__energy>  (29) 
-8.2699999999999996

>  <m_primary>  (29) 
energy

$$$$
29:0
     RDKit          3D

 57 59  0  0  0  0  0  0  0  0999 V2000
   54.3060   24.5260   45.4560 C   0  0  0  0  0  0  0  0  0  0  0  0
   55.3690   25.1410   46.2710 N   0  0  0  0  0  0  0  0  0  0  0  0
   55.9230   24.1290   47.1890 C   0  0  0  0  0  0  0  0  0  0  0  0
   56.4180   25.6950   45.3860 C   0  0  0  0  0  0  0  0  0  0  0  0
   56.8280   27.1230   45.7840 C   0  0  0  0  0  0  0  0  0  0  0  0
   55.9290   28.1470   45.2460 N   0  0  0  0  0  0  0  0  0  0  0  0
   56.3700   29.3840   44.6710 C   0  0  0  0  0  0  0  0  0  0  0  0
   55.8980   29.7500   43.5610 O   0  0  0  0  0  0  0  0  0  0  0  0
   57.3650   30.2320   45.3430 C   0  0  0  0  0  0  0  0  0  0  0  0
   58.1450   29.7080   46.3820 C   0  0  0  0  0  0  0  0  0  0  0  0
   59.0840   30.5130   47.0330 C   0  0  0  0  0  0  0  0  0  0  0  0
   59.2790   31.8440   46.6300 C   0  0  0  0  0  0  0  0  0  0  0  0
   60.2500   32.6940   47.3530 C   0  0  0  0  0  0  0  0  0  0  0  0
   61.3470   32.2280   48.0490 C   0  0  0  0  0  0  0  0  0  0  0  0
   61.9620   33.3710   48.5390 C   0  0  0  0  0  0  0  0  0  0  0  0
   63.1950   33.4360   49.3610 C   0  0  0  0  0  0  0  0  0  0  0  0
   64.3320   32.7090   48.9780 C   0  0  0  0  0  0  0  0  0  0  0  0
   65.5020   32.7590   49.7410 C   0  0  0  0  0  0  0  0  0  0  0  0
   65.5700   33.5440   50.9100 C   0  0  0  0  0  0  0  0  0  0  0  0
   66.7870   33.5990   51.7020 N   0  0  0  0  0  0  0  0  0  0  0  0
   66.7610   34.1290   53.0720 C   0  0  0  0  0  0  0  0  0  0  0  0
   68.0640   33.1340   51.1460 C   0  0  0  0  0  0  0  0  0  0  0  0
   64.4240   34.2740   51.2880 C   0  0  0  0  0  0  0  0  0  0  0  0
   63.2550   34.2210   50.5240 C   0  0  0  0  0  0  0  0  0  0  0  0
   61.2710   34.4590   48.1380 N   0  0  0  0  0  0  0  0  0  0  0  0
   60.2410   34.0450   47.4170 N   0  0  0  0  0  0  0  0  0  0  0  0
   59.2950   34.9620   46.7880 C   0  0  0  0  0  0  0  0  0  0  0  0
   58.5130   32.3600   45.5720 C   0  0  0  0  0  0  0  0  0  0  0  0
   57.5680   31.5550   44.9260 C   0  0  0  0  0  0  0  0  0  0  0  0
   53.5452   24.0858   46.1174 H   0  0  0  0  0  0  0  0  0  0  0  0
   53.8400   25.2940   44.8212 H   0  0  0  0  0  0  0  0  0  0  0  0
   54.7395   23.7392   44.8212 H   0  0  0  0  0  0  0  0  0  0  0  0
   55.7507   24.4437   48.2288 H   0  0  0  0  0  0  0  0  0  0  0  0
   55.4280   23.1628   47.0115 H   0  0  0  0  0  0  0  0  0  0  0  0
   57.0036   24.0254   47.0115 H   0  0  0  0  0  0  0  0  0  0  0  0
   57.3041   25.0454   45.4392 H   0  0  0  0  0  0  0  0  0  0  0  0
   56.0084   25.7360   44.3659 H   0  0  0  0  0  0  0  0  0  0  0  0
   56.8252   27.1956   46.8816 H   0  0  0  0  0  0  0  0  0  0  0  0
   57.8273   27.3081   45.3631 H   0  0  0  0  0  0  0  0  0  0  0  0
   58.0179   28.6587   46.6867 H   0  0  0  0  0  0  0  0  0  0  0  0
   59.6735   30.1017   47.8656 H   0  0  0  0  0  0  0  0  0  0  0  0
   61.6632   31.1832   48.1849 H   0  0  0  0  0  0  0  0  0  0  0  0
   64.3024   32.0929   48.0672 H   0  0  0  0  0  0  0  0  0  0  0  0
   66.3812   32.1783   49.4252 H   0  0  0  0  0  0  0  0  0  0  0  0
   66.8019   33.2954   53.7885 H   0  0  0  0  0  0  0  0  0  0  0  0
   67.6279   34.7882   53.2266 H   0  0  0  0  0  0  0  0  0  0  0  0
   65.8338   34.7002   53.2266 H   0  0  0  0  0  0  0  0  0  0  0  0
   68.7519   32.8835   51.9670 H   0  0  0  0  0  0  0  0  0  0  0  0
   67.8911   32.2411   50.5272 H   0  0  0  0  0  0  0  0  0  0  0  0
   68.5057   33.9290   50.5272 H   0  0  0  0  0  0  0  0  0  0  0  0
   64.4507   34.8935   52.1966 H   0  0  0  0  0  0  0  0  0  0  0  0
   62.3733   34.7997   50.8366 H   0  0  0  0  0  0  0  0  0  0  0  0
   58.7366   35.5033   47.5659 H   0  0  0  0  0  0  0  0  0  0  0  0
   59.8429   35.6817   46.1621 H   0  0  0  0  0  0  0  0  0  0  0  0
   58.5927   34.3919   46.1621 H   0  0  0  0  0  0  0  0  0  0  0  0
   58.6565   33.4018   45.2496 H   0  0  0  0  0  0  0  0  0  0  0  0
   56.9825   31.9617   44.0882 H   0  0  0  0  0  0  0  0  0  0  0  0
  1  2  1  0
  2  3  1  0
  2  4  1  0
  4  5  1  0
  5  6  1  0
  6  7  1  0
  7  8  2  0
  7  9  1  0
  9 10  2  0
 10 11  1  0
 11 12  2  0
 12 13  1  0
 13 14  2  0
 14 15  1  0
 15 16  1  0
 16 17  2  0
 17 18  1  0
 18 19  2  0
 19 20  1  0
 20 21  1  0
 20 22  1  0
 19 23  1  0
 23 24  2  0
 15 25  2  0
 25 26  1  0
 26 27  1  0
 12 28  1  0
 28 29  2  0
 29  9  1  0
 26 13  1  0
 24 16  1  0
  1 30  1  0
  1 31  1  0
  1 32  1  0
  3 33  1  0
  3 34  1  0
  3 35  1  0
  4 36  1  0
  4 37  1  0
  5 38  1  0
  5 39  1  0
 10 40  1  0
 11 41  1  0
 14 42  1  0
 17 43  1  0
 18 44  1  0
 21 45  1  0
 21 46  1  0
 21 47  1  0
 22 48  1  0
 22 49  1  0
 22 50  1  0
 23 51  1  0
 24 52  1  0
 27 53  1  0
 27 54  1  0
 27 55  1  0
 28 56  1  0
 29 57  1  0
M  CHG  1   6  -1
M  END
>  <UniqueID>  (30) 
30

>  <SMILES>  (30) 
CN(C)CC[N-]C(=O)c1ccc(-c2cc(-c3ccc(N(C)C)cc3)nn2C)cc1

>  <Energy>  (30) 
102.54992578993078

>  <Genealogy>  (30) 
CN(C)CC[N-]C(=O)c1ccc(-c2cc(-c3ccc(N(C)C)cc3)nn2C)cc1 (protonated)
CN(C)CC[N-]C(=O)c1ccc(-c2cc(-c3ccc(N(C)C)cc3)nn2C)cc1 (3D coordinates assigned)
CN(C)CC[N-]C(=O)c1ccc(-c2cc(-c3ccc(N(C)C)cc3)nn2C)cc1 (optimized conformer: 102.54992578993078 kcal/mol)

>  <smiles>  (30) 
CN(C)CCNC(=O)c1ccc(-c2cc(-c3ccc(N(C)C)cc3)nn2C)cc1

>  <score_type>  (30) 
oracle

>  <origin>  (30) 
adg

>  <m_score__min__energy>  (30) 
-9.7100000000000009

>  <m_primary>  (30) 
energy

$$$$
30:0
     RDKit          3D

 41 44  0  0  0  0  0  0  0  0999 V2000
   56.7950   33.4810   46.5830 O   0  0  0  0  0  0  0  0  0  0  0  0
   57.8580   33.5030   45.9800 C   0  0  0  0  0  0  0  0  0  0  0  0
   58.1830   34.5470   44.9730 C   0  0  0  0  0  0  0  0  0  0  0  0
   59.6510   34.2510   44.6740 C   0  0  0  0  0  0  0  0  0  0  0  0
   60.0970   33.3710   45.8470 C   0  0  0  0  0  0  0  0  0  0  0  0
   58.9170   32.5550   46.1970 N   0  0  1  0  0  0  0  0  0  0  0  0
   58.8430   31.9140   47.4880 N   0  0  0  0  0  0  0  0  0  0  0  0
   58.8710   30.5230   47.5270 C   0  0  0  0  0  0  0  0  0  0  0  0
   59.2030   29.6970   46.3390 C   0  0  0  0  0  0  0  0  0  0  0  0
   60.4470   29.0400   46.3190 C   0  0  0  0  0  0  0  0  0  0  0  0
   60.8360   28.2890   45.2100 C   0  0  0  0  0  0  0  0  0  0  0  0
   59.9860   28.1730   44.1120 C   0  0  0  0  0  0  0  0  0  0  0  0
   58.7310   28.7830   44.1310 C   0  0  0  0  0  0  0  0  0  0  0  0
   58.3070   29.5210   45.2500 C   0  0  0  0  0  0  0  0  0  0  0  0
   56.9820   30.0830   45.2500 N   0  0  0  0  0  0  0  0  0  0  0  0
   55.9800   29.3440   45.3610 O   0  0  0  0  0  0  0  0  0  0  0  0
   56.7920   31.3980   44.8880 O   0  0  0  0  0  0  0  0  0  0  0  0
   58.6990   29.8550   48.6970 N   0  0  0  0  0  0  0  0  0  0  0  0
   58.4910   30.4910   49.8660 C   0  0  0  0  0  0  0  0  0  0  0  0
   58.2850   29.7530   51.0380 C   0  0  0  0  0  0  0  0  0  0  0  0
   58.1070   30.4120   52.2580 C   0  0  0  0  0  0  0  0  0  0  0  0
   58.1460   31.8080   52.3080 C   0  0  0  0  0  0  0  0  0  0  0  0
   58.3570   32.5480   51.1400 C   0  0  0  0  0  0  0  0  0  0  0  0
   58.5260   31.8900   49.9040 C   0  0  0  0  0  0  0  0  0  0  0  0
   58.7530   32.5900   48.7020 C   0  0  0  0  0  0  0  0  0  0  0  0
   58.9160   33.8360   48.7820 O   0  0  0  0  0  0  0  0  0  0  0  0
   57.5618   34.4403   44.0715 H   0  0  0  0  0  0  0  0  0  0  0  0
   57.9991   35.5737   45.3223 H   0  0  0  0  0  0  0  0  0  0  0  0
   59.7552   33.7135   43.7200 H   0  0  0  0  0  0  0  0  0  0  0  0
   60.2560   35.1644   44.5754 H   0  0  0  0  0  0  0  0  0  0  0  0
   60.9356   32.7256   45.5467 H   0  0  0  0  0  0  0  0  0  0  0  0
   60.4456   33.9723   46.6996 H   0  0  0  0  0  0  0  0  0  0  0  0
   58.8510   31.8290   45.4490 H   0  0  0  0  0  0  0  0  0  0  0  0
   61.1191   29.1194   47.1862 H   0  0  0  0  0  0  0  0  0  0  0  0
   61.8151   27.7876   45.2021 H   0  0  0  0  0  0  0  0  0  0  0  0
   60.3047   27.5998   43.2289 H   0  0  0  0  0  0  0  0  0  0  0  0
   58.0658   28.6853   43.2604 H   0  0  0  0  0  0  0  0  0  0  0  0
   58.2632   28.6539   50.9987 H   0  0  0  0  0  0  0  0  0  0  0  0
   57.9365   29.8325   53.1773 H   0  0  0  0  0  0  0  0  0  0  0  0
   58.0104   32.3264   53.2687 H   0  0  0  0  0  0  0  0  0  0  0  0
   58.3912   33.6465   51.1856 H   0  0  0  0  0  0  0  0  0  0  0  0
  1  2  2  0
  2  3  1  0
  3  4  1  0
  4  5  1  0
  5  6  1  0
  6  7  1  0
  7  8  1  0
  8  9  1  0
  9 10  2  0
 10 11  1  0
 11 12  2  0
 12 13  1  0
 13 14  2  0
 14 15  1  0
 15 16  2  0
 15 17  1  0
  8 18  2  0
 18 19  1  0
 19 20  2  0
 20 21  1  0
 21 22  2  0
 22 23  1  0
 23 24  2  0
 24 25  1  0
 25 26  2  0
  6  2  1  0
 25  7  1  0
 14  9  1  0
 24 19  1  0
  3 27  1  0
  3 28  1  0
  4 29  1  0
  4 30  1  0
  5 31  1  0
  5 32  1  0
  6 33  1  6
 10 34  1  0
 11 35  1  0
 12 36  1  0
 13 37  1  0
 20 38  1  0
 21 39  1  0
 22 40  1  0
 23 41  1  0
M  CHG  3   6   1  15   1  17  -1
M  END
>  <UniqueID>  (31) 
31

>  <SMILES>  (31) 
O=C1CCC[N@H+]1n1c(-c2ccccc2[N+](=O)[O-])nc2ccccc2c1=O

>  <Energy>  (31) 
95.66768842253013

>  <Genealogy>  (31) 
O=C1CCC[NH+]1n1c(-c2ccccc2[N+](=O)[O-])nc2ccccc2c1=O (protonated)
O=C1CCC[N@H+]1n1c(-c2ccccc2[N+](=O)[O-])nc2ccccc2c1=O (chirality)
O=C1CCC[N@H+]1n1c(-c2ccccc2[N+](=O)[O-])nc2ccccc2c1=O (3D coordinates assigned)
O=C1CCC[N@H+]1n1c(-c2ccccc2[N+](=O)[O-])nc2ccccc2c1=O (nonaromatic ring conformer: 95.66768842253013 kcal/mol)

>  <smiles>  (31) 
O=C1CCCN1n1c(-c2ccccc2[N+](=O)[O-])nc2ccccc2c1=O

>  <score_type>  (31) 
oracle

>  <origin>  (31) 
adg

>  <m_score__min__energy>  (31) 
-6.2199999999999998

>  <m_primary>  (31) 
energy

$$$$
31:0
     RDKit          3D

 49 51  0  0  0  0  0  0  0  0999 V2000
   54.7700   31.1436   44.0094 H   0  0  0  0  0  0  0  0  0  0  0  0
   55.5670   30.3940   44.1230 C   0  0  0  0  0  0  0  0  0  0  0  0
   55.5050   29.3980   45.0480 N   0  0  0  0  0  0  0  0  0  0  0  0
   56.5980   28.6100   45.0060 C   0  0  0  0  0  0  0  0  0  0  0  0
   56.7410   27.5800   45.7830 N   0  0  0  0  0  0  0  0  0  0  0  0
   57.9000   27.2960   46.5810 C   0  0  0  0  0  0  0  0  0  0  0  0
   58.0550   26.1260   47.0180 O   0  0  0  0  0  0  0  0  0  0  0  0
   58.8670   28.3570   46.9670 C   0  0  0  0  0  0  0  0  0  0  0  0
   59.7660   28.8730   46.0170 C   0  0  0  0  0  0  0  0  0  0  0  0
   59.7173   28.5244   44.9748 H   0  0  0  0  0  0  0  0  0  0  0  0
   60.7210   29.8250   46.3850 C   0  0  0  0  0  0  0  0  0  0  0  0
   61.4324   30.2025   45.6357 H   0  0  0  0  0  0  0  0  0  0  0  0
   60.7790   30.3030   47.7040 C   0  0  0  0  0  0  0  0  0  0  0  0
   61.8460   31.2940   48.1230 C   0  0  0  0  0  0  0  0  0  0  0  0
   62.8083   30.7646   48.1849 H   0  0  0  0  0  0  0  0  0  0  0  0
   61.5376   31.7119   49.0927 H   0  0  0  0  0  0  0  0  0  0  0  0
   61.9960   32.4360   47.1810 N   0  0  2  0  0  0  0  0  0  0  0  0
   61.7290   32.1410   46.2140 H   0  0  0  0  0  0  0  0  0  0  0  0
   63.4170   32.8250   47.1130 C   0  0  0  0  0  0  0  0  0  0  0  0
   63.8164   32.9343   48.1321 H   0  0  0  0  0  0  0  0  0  0  0  0
   63.9844   32.0491   46.5781 H   0  0  0  0  0  0  0  0  0  0  0  0
   63.5101   33.7817   46.5781 H   0  0  0  0  0  0  0  0  0  0  0  0
   61.1920   33.6190   47.5830 C   0  0  0  0  0  0  0  0  0  0  0  0
   61.5631   34.4978   47.0352 H   0  0  0  0  0  0  0  0  0  0  0  0
   61.3017   33.7374   48.6711 H   0  0  0  0  0  0  0  0  0  0  0  0
   59.7190   33.4570   47.2920 C   0  0  0  0  0  0  0  0  0  0  0  0
   58.7240   33.0500   48.1700 C   0  0  0  0  0  0  0  0  0  0  0  0
   58.8870   32.7150   49.6190 C   0  0  0  0  0  0  0  0  0  0  0  0
   58.4875   33.5361   50.2324 H   0  0  0  0  0  0  0  0  0  0  0  0
   58.3391   31.7883   49.8450 H   0  0  0  0  0  0  0  0  0  0  0  0
   59.9543   32.5743   49.8450 H   0  0  0  0  0  0  0  0  0  0  0  0
   57.5270   33.0950   47.5540 N   0  0  0  0  0  0  0  0  0  0  0  0
   57.7290   33.5020   46.3120 N   0  0  0  0  0  0  0  0  0  0  0  0
   56.6570   33.6720   45.3380 C   0  0  0  0  0  0  0  0  0  0  0  0
   55.7034   33.8232   45.8650 H   0  0  0  0  0  0  0  0  0  0  0  0
   56.8702   34.5476   44.7072 H   0  0  0  0  0  0  0  0  0  0  0  0
   56.5888   32.7734   44.7072 H   0  0  0  0  0  0  0  0  0  0  0  0
   59.0410   33.7590   46.1200 C   0  0  0  0  0  0  0  0  0  0  0  0
   59.6350   34.2600   44.8370 C   0  0  0  0  0  0  0  0  0  0  0  0
   60.4583   34.9544   45.0606 H   0  0  0  0  0  0  0  0  0  0  0  0
   60.0202   33.4100   44.2547 H   0  0  0  0  0  0  0  0  0  0  0  0
   58.8621   34.7831   44.2547 H   0  0  0  0  0  0  0  0  0  0  0  0
   59.8980   29.7720   48.6590 C   0  0  0  0  0  0  0  0  0  0  0  0
   59.9525   30.1156   49.7026 H   0  0  0  0  0  0  0  0  0  0  0  0
   58.9520   28.8100   48.2940 C   0  0  0  0  0  0  0  0  0  0  0  0
   58.2675   28.4037   49.0532 H   0  0  0  0  0  0  0  0  0  0  0  0
   57.6760   29.1030   43.8070 S   0  0  0  0  0  0  0  0  0  0  0  0
   56.7100   30.3960   43.3320 C   0  0  0  0  0  0  0  0  0  0  0  0
   56.9424   31.1172   42.5346 H   0  0  0  0  0  0  0  0  0  0  0  0
  1  2  1  0
  2  3  1  0
  3  4  1  0
  4  5  2  0
  5  6  1  0
  6  7  2  0
  6  8  1  0
  8  9  2  0
  9 10  1  0
  9 11  1  0
 11 12  1  0
 11 13  2  0
 13 14  1  0
 14 15  1  0
 14 16  1  0
 14 17  1  0
 17 18  1  6
 17 19  1  0
 19 20  1  0
 19 21  1  0
 19 22  1  0
 17 23  1  0
 23 24  1  0
 23 25  1  0
 23 26  1  0
 26 27  1  0
 27 28  1  0
 28 29  1  0
 28 30  1  0
 28 31  1  0
 27 32  2  0
 32 33  1  0
 33 34  1  0
 34 35  1  0
 34 36  1  0
 34 37  1  0
 33 38  1  0
 38 39  1  0
 39 40  1  0
 39 41  1  0
 39 42  1  0
 13 43  1  0
 43 44  1  0
 43 45  2  0
 45 46  1  0
  4 47  1  0
 47 48  1  0
 48 49  1  0
 48  2  2  0
 45  8  1  0
 38 26  2  0
M  CHG  2   3  -1  17   1
M  END
>  <UniqueID>  (32) 
32

>  <SMILES>  (32) 
Cc1nn(C)c(C)c1C[N@@H+](C)Cc1ccc(C(=O)/N=c2/[n-]ccs2)cc1

>  <Energy>  (32) 
115.62135583641306

>  <Genealogy>  (32) 
Cc1nn(C)c(C)c1C[NH+](C)Cc1ccc(C(=O)N=c2[n-]ccs2)cc1 (protonated)
Cc1nn(C)c(C)c1C[N@@H+](C)Cc1ccc(C(=O)N=c2[n-]ccs2)cc1 (chirality)
Cc1nn(C)c(C)c1C[N@@H+](C)Cc1ccc(C(=O)/N=c2/[n-]ccs2)cc1 (cis-trans isomerization)
Cc1nn(C)c(C)c1C[N@@H+](C)Cc1ccc(C(=O)/N=c2/[n-]ccs2)cc1 (3D coordinates assigned)
Cc1nn(C)c(C)c1C[N@@H+](C)Cc1ccc(C(=O)/N=c2/[n-]ccs2)cc1 (optimized conformer: 115.62135583641306 kcal/mol)

>  <smiles>  (32) 
Cc1nn(C)c(C)c1CN(C)Cc1ccc(C(=O)N=c2[nH]ccs2)cc1

>  <score_type>  (32) 
oracle

>  <origin>  (32) 
adg

>  <m_score__min__energy>  (32) 
-8.1199999999999992

>  <m_primary>  (32) 
energy

$$$$
32:0
     RDKit          3D

 19 20  0  0  0  0  0  0  0  0999 V2000
   57.8020   33.1080   44.7240 C   0  0  0  0  0  0  0  0  0  0  0  0
   57.2850   31.8820   45.2280 O   0  0  0  0  0  0  0  0  0  0  0  0
   57.1180   30.7480   44.4270 C   0  0  0  0  0  0  0  0  0  0  0  0
   56.2760   30.5910   43.3260 C   0  0  0  0  0  0  0  0  0  0  0  0
   56.4030   29.3410   42.8200 N   0  0  0  0  0  0  0  0  0  0  0  0
   57.3140   28.7270   43.5960 C   0  0  0  0  0  0  0  0  0  0  0  0
   57.7600   27.4530   43.4630 N   0  0  0  0  0  0  0  0  0  0  0  0
   58.6940   26.9960   44.3510 C   0  0  0  0  0  0  0  0  0  0  0  0
   59.1630   27.8110   45.3490 N   0  0  0  0  0  0  0  0  0  0  0  0
   58.7170   29.0950   45.4880 C   0  0  0  0  0  0  0  0  0  0  0  0
   57.7690   29.5490   44.5820 C   0  0  0  0  0  0  0  0  0  0  0  0
   58.0780   33.7624   45.5640 H   0  0  0  0  0  0  0  0  0  0  0  0
   58.6914   32.9057   44.1092 H   0  0  0  0  0  0  0  0  0  0  0  0
   57.0363   33.6037   44.1092 H   0  0  0  0  0  0  0  0  0  0  0  0
   55.6072   31.3681   42.9273 H   0  0  0  0  0  0  0  0  0  0  0  0
   55.8980   28.9410   41.9980 H   0  0  0  0  0  0  0  0  0  0  0  0
   57.4000   26.8340   42.7020 H   0  0  0  0  0  0  0  0  0  0  0  0
   59.0720   25.9667   44.2641 H   0  0  0  0  0  0  0  0  0  0  0  0
   59.0960   29.7458   46.2897 H   0  0  0  0  0  0  0  0  0  0  0  0
  1  2  1  0
  2  3  1  0
  3  4  2  0
  4  5  1  0
  5  6  1  0
  6  7  2  0
  7  8  1  0
  8  9  2  0
  9 10  1  0
 10 11  2  0
 11  3  1  0
 11  6  1  0
  1 12  1  0
  1 13  1  0
  1 14  1  0
  4 15  1  0
  5 16  1  0
  7 17  1  0
  8 18  1  0
 10 19  1  0
M  CHG  1   7   1
M  END
>  <UniqueID>  (33) 
33

>  <SMILES>  (33) 
COc1c[nH]c2[nH+]cncc12

>  <Energy>  (33) 
54.14303507736343

>  <Genealogy>  (33) 
COc1c[nH]c2[nH+]cncc12 (protonated)
COc1c[nH]c2[nH+]cncc12 (3D coordinates assigned)
COc1c[nH]c2[nH+]cncc12 (optimized conformer: 54.14303507736343 kcal/mol)

>  <smiles>  (33) 
COc1c[nH]c2ncncc12

>  <score_type>  (33) 
oracle

>  <origin>  (33) 
adg

>  <m_score__min__energy>  (33) 
-2.77

>  <m_primary>  (33) 
energy

$$$$
33:0
     RDKit          3D

 43 45  0  0  0  0  0  0  0  0999 V2000
   59.6060   33.9030   49.9790 C   0  0  0  0  0  0  0  0  0  0  0  0
   60.0340   33.8450   48.5770 N   0  0  0  0  0  0  0  0  0  0  0  0
   59.0750   33.9240   47.4950 C   0  0  0  0  0  0  0  0  0  0  0  0
   58.6150   35.0500   47.1560 O   0  0  0  0  0  0  0  0  0  0  0  0
   58.5550   32.6850   46.7920 C   0  0  0  0  0  0  0  0  0  0  0  0
   57.6970   33.0830   45.5620 C   0  0  0  0  0  0  0  0  0  0  0  0
   57.7770   32.0630   44.4120 C   0  0  0  0  0  0  0  0  0  0  0  0
   57.9670   30.7040   44.9380 N   0  0  0  0  0  0  0  0  0  0  0  0
   56.9060   29.7350   44.8240 C   0  0  0  0  0  0  0  0  0  0  0  0
   55.7080   30.1250   44.8320 O   0  0  0  0  0  0  0  0  0  0  0  0
   57.1800   28.2890   44.6960 C   0  0  0  0  0  0  0  0  0  0  0  0
   57.9220   27.6970   43.6780 C   0  0  0  0  0  0  0  0  0  0  0  0
   58.0740   26.3140   43.8300 C   0  0  0  0  0  0  0  0  0  0  0  0
   57.4670   25.8080   44.9710 C   0  0  0  0  0  0  0  0  0  0  0  0
   56.7430   27.0850   45.7890 S   0  0  0  0  0  0  0  0  0  0  0  0
   59.1350   30.4360   45.7950 C   0  0  0  0  0  0  0  0  0  0  0  0
   59.7030   31.7330   46.3950 C   0  0  0  0  0  0  0  0  0  0  0  0
   61.4280   33.6270   48.2850 C   0  0  0  0  0  0  0  0  0  0  0  0
   61.9230   33.8350   46.9860 C   0  0  0  0  0  0  0  0  0  0  0  0
   63.2760   33.6170   46.7050 C   0  0  0  0  0  0  0  0  0  0  0  0
   64.1420   33.1880   47.7150 C   0  0  0  0  0  0  0  0  0  0  0  0
   63.6560   32.9760   49.0080 C   0  0  0  0  0  0  0  0  0  0  0  0
   62.3040   33.1920   49.2940 C   0  0  0  0  0  0  0  0  0  0  0  0
   60.4812   33.7844   50.6347 H   0  0  0  0  0  0  0  0  0  0  0  0
   59.1286   34.8741   50.1767 H   0  0  0  0  0  0  0  0  0  0  0  0
   58.8873   33.0940   50.1767 H   0  0  0  0  0  0  0  0  0  0  0  0
   57.9133   32.1360   47.4969 H   0  0  0  0  0  0  0  0  0  0  0  0
   56.6477   33.1692   45.8807 H   0  0  0  0  0  0  0  0  0  0  0  0
   58.0927   34.0364   45.1818 H   0  0  0  0  0  0  0  0  0  0  0  0
   56.8433   32.0987   43.8316 H   0  0  0  0  0  0  0  0  0  0  0  0
   58.6337   32.3180   43.7709 H   0  0  0  0  0  0  0  0  0  0  0  0
   58.3478   28.2616   42.8354 H   0  0  0  0  0  0  0  0  0  0  0  0
   58.6231   25.6868   43.1123 H   0  0  0  0  0  0  0  0  0  0  0  0
   57.4609   24.7539   45.2853 H   0  0  0  0  0  0  0  0  0  0  0  0
   58.8318   29.7664   46.6133 H   0  0  0  0  0  0  0  0  0  0  0  0
   59.9168   29.9701   45.1772 H   0  0  0  0  0  0  0  0  0  0  0  0
   60.2984   31.4900   47.2874 H   0  0  0  0  0  0  0  0  0  0  0  0
   60.3361   32.2283   45.6441 H   0  0  0  0  0  0  0  0  0  0  0  0
   61.2444   34.1703   46.1878 H   0  0  0  0  0  0  0  0  0  0  0  0
   63.6591   33.7835   45.6874 H   0  0  0  0  0  0  0  0  0  0  0  0
   65.2056   33.0174   47.4921 H   0  0  0  0  0  0  0  0  0  0  0  0
   64.3380   32.6386   49.8023 H   0  0  0  0  0  0  0  0  0  0  0  0
   61.9251   33.0208   50.3124 H   0  0  0  0  0  0  0  0  0  0  0  0
  1  2  1  0
  2  3  1  0
  3  4  2  0
  3  5  1  0
  5  6  1  0
  6  7  1  0
  7  8  1  0
  8  9  1  0
  9 10  2  0
  9 11  1  0
 11 12  2  0
 12 13  1  0
 13 14  2  0
 14 15  1  0
  8 16  1  0
 16 17  1  0
  2 18  1  0
 18 19  2  0
 19 20  1  0
 20 21  2  0
 21 22  1  0
 22 23  2  0
 17  5  1  0
 23 18  1  0
 15 11  1  0
  1 24  1  0
  1 25  1  0
  1 26  1  0
  5 27  1  0
  6 28  1  0
  6 29  1  0
  7 30  1  0
  7 31  1  0
 12 32  1  0
 13 33  1  0
 14 34  1  0
 16 35  1  0
 16 36  1  0
 17 37  1  0
 17 38  1  0
 19 39  1  0
 20 40  1  0
 21 41  1  0
 22 42  1  0
 23 43  1  0
M  END
>  <UniqueID>  (34) 
34

>  <SMILES>  (34) 
CN(C(=O)C1CCN(C(=O)c2cccs2)CC1)c1ccccc1

>  <Energy>  (34) 
82.46328065488456

>  <Genealogy>  (34) 
CN(C(=O)C1CCN(C(=O)c2cccs2)CC1)c1ccccc1 (3D coordinates assigned)
CN(C(=O)C1CCN(C(=O)c2cccs2)CC1)c1ccccc1 (nonaromatic ring conformer: 82.46328065488456 kcal/mol)

>  <smiles>  (34) 
CN(C(=O)C1CCN(C(=O)c2cccs2)CC1)c1ccccc1

>  <score_type>  (34) 
oracle

>  <origin>  (34) 
adg

>  <m_score__min__energy>  (34) 
-8.2699999999999996

>  <m_primary>  (34) 
energy

$$$$
34:0
     RDKit          3D

 40 42  0  0  0  0  0  0  0  0999 V2000
   58.1420   27.2930   43.3510 C   0  0  0  0  0  0  0  0  0  0  0  0
   58.0980   28.5670   44.1420 C   0  0  0  0  0  0  0  0  0  0  0  0
   59.2390   29.0480   44.7910 C   0  0  0  0  0  0  0  0  0  0  0  0
   59.1920   30.2300   45.4580 N   0  0  0  0  0  0  0  0  0  0  0  0
   58.0510   30.9720   45.5050 C   0  0  0  0  0  0  0  0  0  0  0  0
   58.0430   32.2470   46.1800 N   0  0  0  0  0  0  0  0  0  0  0  0
   58.5250   32.3630   47.5610 C   0  0  0  0  0  0  0  0  0  0  0  0
   59.0510   33.7800   47.8560 C   0  0  0  0  0  0  0  0  0  0  0  0
   59.5270   34.4800   46.6440 N   0  0  0  0  0  0  0  0  0  0  0  0
   60.9330   34.2280   46.2540 C   0  0  0  0  0  0  0  0  0  0  0  0
   61.7220   33.4280   47.2680 C   0  0  0  0  0  0  0  0  0  0  0  0
   62.3880   34.0830   48.3190 C   0  0  0  0  0  0  0  0  0  0  0  0
   63.1130   33.3480   49.2620 C   0  0  0  0  0  0  0  0  0  0  0  0
   63.1990   31.9580   49.1530 C   0  0  0  0  0  0  0  0  0  0  0  0
   62.5690   31.3010   48.0940 C   0  0  0  0  0  0  0  0  0  0  0  0
   61.8390   32.0310   47.1510 C   0  0  0  0  0  0  0  0  0  0  0  0
   58.5530   34.5690   45.5310 C   0  0  0  0  0  0  0  0  0  0  0  0
   57.4980   33.4520   45.5490 C   0  0  0  0  0  0  0  0  0  0  0  0
   56.9370   30.5230   44.8660 N   0  0  0  0  0  0  0  0  0  0  0  0
   56.9380   29.3460   44.1880 C   0  0  0  0  0  0  0  0  0  0  0  0
   58.1716   26.4351   44.0389 H   0  0  0  0  0  0  0  0  0  0  0  0
   57.2457   27.2239   42.7171 H   0  0  0  0  0  0  0  0  0  0  0  0
   59.0409   27.2859   42.7171 H   0  0  0  0  0  0  0  0  0  0  0  0
   60.1741   28.4695   44.7614 H   0  0  0  0  0  0  0  0  0  0  0  0
   57.6967   32.1384   48.2491 H   0  0  0  0  0  0  0  0  0  0  0  0
   59.3521   31.6511   47.6997 H   0  0  0  0  0  0  0  0  0  0  0  0
   58.2385   34.3696   48.3057 H   0  0  0  0  0  0  0  0  0  0  0  0
   59.9085   33.6789   48.5375 H   0  0  0  0  0  0  0  0  0  0  0  0
   60.9339   33.6762   45.3024 H   0  0  0  0  0  0  0  0  0  0  0  0
   61.4214   35.2106   46.1760 H   0  0  0  0  0  0  0  0  0  0  0  0
   62.3384   35.1789   48.3997 H   0  0  0  0  0  0  0  0  0  0  0  0
   63.6168   33.8655   50.0916 H   0  0  0  0  0  0  0  0  0  0  0  0
   63.7627   31.3812   49.9010 H   0  0  0  0  0  0  0  0  0  0  0  0
   62.6471   30.2077   48.0015 H   0  0  0  0  0  0  0  0  0  0  0  0
   61.3534   31.5099   46.3128 H   0  0  0  0  0  0  0  0  0  0  0  0
   58.0358   35.5375   45.5976 H   0  0  0  0  0  0  0  0  0  0  0  0
   59.1208   34.4627   44.5949 H   0  0  0  0  0  0  0  0  0  0  0  0
   56.6189   33.7924   46.1159 H   0  0  0  0  0  0  0  0  0  0  0  0
   57.2107   33.2149   44.5140 H   0  0  0  0  0  0  0  0  0  0  0  0
   56.0262   29.0058   43.6752 H   0  0  0  0  0  0  0  0  0  0  0  0
  1  2  1  0
  2  3  2  0
  3  4  1  0
  4  5  2  0
  5  6  1  0
  6  7  1  0
  7  8  1  0
  8  9  1  0
  9 10  1  0
 10 11  1  0
 11 12  2  0
 12 13  1  0
 13 14  2  0
 14 15  1  0
 15 16  2  0
  9 17  1  0
 17 18  1  0
  5 19  1  0
 19 20  2  0
 20  2  1  0
 18  6  1  0
 16 11  1  0
  1 21  1  0
  1 22  1  0
  1 23  1  0
  3 24  1  0
  7 25  1  0
  7 26  1  0
  8 27  1  0
  8 28  1  0
 10 29  1  0
 10 30  1  0
 12 31  1  0
 13 32  1  0
 14 33  1  0
 15 34  1  0
 16 35  1  0
 17 36  1  0
 17 37  1  0
 18 38  1  0
 18 39  1  0
 20 40  1  0
M  END
>  <UniqueID>  (35) 
35

>  <SMILES>  (35) 
Cc1cnc(N2CCN(Cc3ccccc3)CC2)nc1

>  <Energy>  (35) 
52.24491283141786

>  <Genealogy>  (35) 
Cc1cnc(N2CCN(Cc3ccccc3)CC2)nc1 (3D coordinates assigned)
Cc1cnc(N2CCN(Cc3ccccc3)CC2)nc1 (nonaromatic ring conformer: 52.24491283141786 kcal/mol)

>  <smiles>  (35) 
Cc1cnc(N2CCN(Cc3ccccc3)CC2)nc1

>  <score_type>  (35) 
oracle

>  <origin>  (35) 
adg

>  <m_score__min__energy>  (35) 
-7.1200000000000001

>  <m_primary>  (35) 
energy

$$$$
35:0
     RDKit          3D

 37 38  0  0  1  0  0  0  0  0999 V2000
   60.3030   30.6460   48.1130 C   0  0  0  0  0  0  0  0  0  0  0  0
   59.3730   31.0590   47.0020 C   0  0  0  0  0  0  0  0  0  0  0  0
   58.3840   30.3180   46.8170 O   0  0  0  0  0  0  0  0  0  0  0  0
   59.6750   32.1950   46.2880 O   0  0  0  0  0  0  0  0  0  0  0  0
   58.7580   33.2980   46.3190 C   0  0  2  0  0  0  0  0  0  0  0  0
   57.8050   33.1630   47.4940 C   0  0  0  0  0  0  0  0  0  0  0  0
   58.0920   33.3920   45.0200 C   0  0  0  0  0  0  0  0  0  0  0  0
   57.5560   32.1360   44.4460 C   0  0  0  0  0  0  0  0  0  0  0  0
   58.1000   31.5620   43.2990 C   0  0  0  0  0  0  0  0  0  0  0  0
   57.3830   30.4530   43.0620 N   0  0  0  0  0  0  0  0  0  0  0  0
   56.4230   30.2960   43.9930 C   0  0  0  0  0  0  0  0  0  0  0  0
   56.5580   31.3450   44.8240 N   0  0  0  0  0  0  0  0  0  0  0  0
   59.6410   34.4680   46.6840 C   0  0  0  0  0  0  0  0  0  0  0  0
   60.8460   34.1670   47.4420 C   0  0  0  0  0  0  0  0  0  0  0  0
   62.0820   33.8440   46.9450 C   0  0  0  0  0  0  0  0  0  0  0  0
   62.3560   33.8270   45.6280 F   0  0  0  0  0  0  0  0  0  0  0  0
   63.1380   33.5420   47.7990 C   0  0  0  0  0  0  0  0  0  0  0  0
   63.0120   33.5460   49.1660 C   0  0  0  0  0  0  0  0  0  0  0  0
   61.7730   33.8700   49.6790 C   0  0  0  0  0  0  0  0  0  0  0  0
   60.7320   34.1690   48.8380 C   0  0  0  0  0  0  0  0  0  0  0  0
   59.5410   34.4770   49.4220 F   0  0  0  0  0  0  0  0  0  0  0  0
   59.8304   30.8559   49.0839 H   0  0  0  0  0  0  0  0  0  0  0  0
   60.5143   29.5694   48.0332 H   0  0  0  0  0  0  0  0  0  0  0  0
   61.2433   31.2111   48.0332 H   0  0  0  0  0  0  0  0  0  0  0  0
   58.3693   33.2429   48.4348 H   0  0  0  0  0  0  0  0  0  0  0  0
   57.0518   33.9634   47.4491 H   0  0  0  0  0  0  0  0  0  0  0  0
   57.3037   32.1849   47.4491 H   0  0  0  0  0  0  0  0  0  0  0  0
   57.2509   34.0926   45.1284 H   0  0  0  0  0  0  0  0  0  0  0  0
   58.8767   33.7138   44.3196 H   0  0  0  0  0  0  0  0  0  0  0  0
   58.9462   31.9413   42.7074 H   0  0  0  0  0  0  0  0  0  0  0  0
   57.5800   29.8100   42.2390 H   0  0  0  0  0  0  0  0  0  0  0  0
   55.6852   29.4828   44.0598 H   0  0  0  0  0  0  0  0  0  0  0  0
   59.9495   34.9571   45.7483 H   0  0  0  0  0  0  0  0  0  0  0  0
   59.0296   35.0941   47.3505 H   0  0  0  0  0  0  0  0  0  0  0  0
   64.1147   33.2895   47.3605 H   0  0  0  0  0  0  0  0  0  0  0  0
   63.8603   33.3020   49.8224 H   0  0  0  0  0  0  0  0  0  0  0  0
   61.6194   33.8886   50.7681 H   0  0  0  0  0  0  0  0  0  0  0  0
  1  2  1  0
  2  3  2  0
  2  4  1  0
  5  4  1  6
  5  6  1  0
  5  7  1  0
  7  8  1  0
  8  9  2  0
  9 10  1  0
 10 11  1  0
 11 12  2  0
  5 13  1  0
 13 14  1  0
 14 15  2  0
 15 16  1  0
 15 17  1  0
 17 18  2  0
 18 19  1  0
 19 20  2  0
 20 21  1  0
 12  8  1  0
 20 14  1  0
  1 22  1  0
  1 23  1  0
  1 24  1  0
  6 25  1  0
  6 26  1  0
  6 27  1  0
  7 28  1  0
  7 29  1  0
  9 30  1  0
 10 31  1  0
 11 32  1  0
 13 33  1  0
 13 34  1  0
 17 35  1  0
 18 36  1  0
 19 37  1  0
M  END
>  <smiles>  (36) 
CC(=O)OC(C)(Cc1c[nH]cn1)Cc1c(F)cccc1F

>  <score_type>  (36) 
oracle

>  <origin>  (36) 
adg

>  <m_score__min__energy>  (36) 
-6.7699999999999996

>  <m_primary>  (36) 
energy

$$$$
36:0
     RDKit          3D

 37 39  0  0  0  0  0  0  0  0999 V2000
   59.1850   34.2060   45.9680 C   0  0  0  0  0  0  0  0  0  0  0  0
   58.5700   33.0650   45.2120 C   0  0  0  0  0  0  0  0  0  0  0  0
   58.3750   33.1710   43.8280 C   0  0  0  0  0  0  0  0  0  0  0  0
   57.7790   32.1250   43.1220 C   0  0  0  0  0  0  0  0  0  0  0  0
   57.3470   30.9770   43.7930 C   0  0  0  0  0  0  0  0  0  0  0  0
   56.5880   29.6860   42.8740 Cl  0  0  0  0  0  0  0  0  0  0  0  0
   57.4980   30.8690   45.1850 C   0  0  0  0  0  0  0  0  0  0  0  0
   56.9990   29.7190   45.8240 O   0  0  0  0  0  0  0  0  0  0  0  0
   57.5710   28.4090   45.7790 C   0  0  0  0  0  0  0  0  0  0  0  0
   58.5340   28.1670   46.9530 C   0  0  0  0  0  0  0  0  0  0  0  0
   59.5180   29.2620   47.0960 N   0  0  0  0  0  0  0  0  0  0  0  0
   60.5400   29.4520   46.1730 C   0  0  0  0  0  0  0  0  0  0  0  0
   60.6500   28.6360   44.9140 C   0  0  0  0  0  0  0  0  0  0  0  0
   61.4760   30.4260   46.3730 N   0  0  0  0  0  0  0  0  0  0  0  0
   61.4160   31.2170   47.4670 C   0  0  0  0  0  0  0  0  0  0  0  0
   62.3250   32.2270   47.7820 C   0  0  0  0  0  0  0  0  0  0  0  0
   62.0060   32.8700   48.9770 C   0  0  0  0  0  0  0  0  0  0  0  0
   60.6010   32.1780   49.6210 S   0  0  0  0  0  0  0  0  0  0  0  0
   60.4050   31.0650   48.3780 C   0  0  0  0  0  0  0  0  0  0  0  0
   59.4370   30.0880   48.1980 C   0  0  0  0  0  0  0  0  0  0  0  0
   58.5140   29.9570   49.0480 O   0  0  0  0  0  0  0  0  0  0  0  0
   58.1370   31.9130   45.8860 C   0  0  0  0  0  0  0  0  0  0  0  0
   59.0874   34.0249   47.0486 H   0  0  0  0  0  0  0  0  0  0  0  0
   60.2498   34.2886   45.7048 H   0  0  0  0  0  0  0  0  0  0  0  0
   58.6686   35.1409   45.7048 H   0  0  0  0  0  0  0  0  0  0  0  0
   58.6924   34.0806   43.2972 H   0  0  0  0  0  0  0  0  0  0  0  0
   57.6485   32.2041   42.0326 H   0  0  0  0  0  0  0  0  0  0  0  0
   56.7618   27.6652   45.8229 H   0  0  0  0  0  0  0  0  0  0  0  0
   58.1418   28.3166   44.8433 H   0  0  0  0  0  0  0  0  0  0  0  0
   57.9498   28.0908   47.8819 H   0  0  0  0  0  0  0  0  0  0  0  0
   59.0865   27.2370   46.7536 H   0  0  0  0  0  0  0  0  0  0  0  0
   60.7928   27.5769   45.1748 H   0  0  0  0  0  0  0  0  0  0  0  0
   59.7287   28.7472   44.3233 H   0  0  0  0  0  0  0  0  0  0  0  0
   61.5089   28.9872   44.3233 H   0  0  0  0  0  0  0  0  0  0  0  0
   63.1937   32.4863   47.1590 H   0  0  0  0  0  0  0  0  0  0  0  0
   62.5759   33.6950   49.4293 H   0  0  0  0  0  0  0  0  0  0  0  0
   58.2973   31.8233   46.9706 H   0  0  0  0  0  0  0  0  0  0  0  0
  1  2  1  0
  2  3  2  0
  3  4  1  0
  4  5  2  0
  5  6  1  0
  5  7  1  0
  7  8  1  0
  8  9  1  0
  9 10  1  0
 10 11  1  0
 11 12  1  0
 12 13  1  0
 12 14  2  0
 14 15  1  0
 15 16  1  0
 16 17  2  0
 17 18  1  0
 18 19  1  0
 19 20  1  0
 20 21  2  0
  7 22  2  0
 22  2  1  0
 20 11  1  0
 19 15  2  0
  1 23  1  0
  1 24  1  0
  1 25  1  0
  3 26  1  0
  4 27  1  0
  9 28  1  0
  9 29  1  0
 10 30  1  0
 10 31  1  0
 13 32  1  0
 13 33  1  0
 13 34  1  0
 16 35  1  0
 17 36  1  0
 22 37  1  0
M  END
>  <UniqueID>  (37) 
36

>  <SMILES>  (37) 
Cc1ccc(Cl)c(OCCn2c(C)nc3ccsc3c2=O)c1

>  <Energy>  (37) 
71.10934416857371

>  <Genealogy>  (37) 
Cc1ccc(Cl)c(OCCn2c(C)nc3ccsc3c2=O)c1 (3D coordinates assigned)
Cc1ccc(Cl)c(OCCn2c(C)nc3ccsc3c2=O)c1 (optimized conformer: 71.10934416857371 kcal/mol)

>  <smiles>  (37) 
Cc1ccc(Cl)c(OCCn2c(C)nc3ccsc3c2=O)c1

>  <score_type>  (37) 
oracle

>  <origin>  (37) 
adg

>  <m_score__min__energy>  (37) 
-7.6500000000000004

>  <m_primary>  (37) 
energy

$$$$
37:0
     RDKit          3D

 38 42  0  0  0  0  0  0  0  0999 V2000
   66.4350   31.7039   51.7788 H   0  0  0  0  0  0  0  0  0  0  0  0
   65.6320   31.8760   51.0470 C   0  0  0  0  0  0  0  0  0  0  0  0
   64.5530   31.0390   51.0180 N   0  0  0  0  0  0  0  0  0  0  0  0
   63.5700   31.2450   50.1080 C   0  0  0  0  0  0  0  0  0  0  0  0
   62.1230   30.3370   49.9520 S   0  0  0  0  0  0  0  0  0  0  0  0
   61.6380   31.3290   48.6770 C   0  0  0  0  0  0  0  0  0  0  0  0
   62.5020   32.3080   48.4000 C   0  0  0  0  0  0  0  0  0  0  0  0
   62.0100   33.1670   47.4880 N   0  0  0  0  0  0  0  0  0  0  0  0
   60.7870   32.6050   47.2350 C   0  0  0  0  0  0  0  0  0  0  0  0
   60.5320   31.4770   47.9490 N   0  0  0  0  0  0  0  0  0  0  0  0
   59.2500   30.7860   48.0330 C   0  0  0  0  0  0  0  0  0  0  0  0
   58.7112   31.1227   48.9309 H   0  0  0  0  0  0  0  0  0  0  0  0
   59.4237   29.7014   48.0917 H   0  0  0  0  0  0  0  0  0  0  0  0
   58.4240   31.0950   46.8060 C   0  0  0  0  0  0  0  0  0  0  0  0
   57.6930   30.1410   46.3060 N   0  0  0  0  0  0  0  0  0  0  0  0
   56.8570   30.3090   45.2260 O   0  0  0  0  0  0  0  0  0  0  0  0
   57.3670   30.2430   43.9050 C   0  0  0  0  0  0  0  0  0  0  0  0
   58.2091   29.5360   43.8728 H   0  0  0  0  0  0  0  0  0  0  0  0
   57.7116   31.2411   43.5965 H   0  0  0  0  0  0  0  0  0  0  0  0
   56.2750   29.7720   42.9590 C   0  0  0  0  0  0  0  0  0  0  0  0
   55.4187   29.4027   43.5424 H   0  0  0  0  0  0  0  0  0  0  0  0
   55.9522   30.6109   42.3249 H   0  0  0  0  0  0  0  0  0  0  0  0
   56.6636   28.9615   42.3249 H   0  0  0  0  0  0  0  0  0  0  0  0
   58.5570   32.4490   46.1660 C   0  0  0  0  0  0  0  0  0  0  0  0
   57.5130   33.0470   45.4330 C   0  0  0  0  0  0  0  0  0  0  0  0
   56.5491   32.5269   45.3314 H   0  0  0  0  0  0  0  0  0  0  0  0
   57.6940   34.2970   44.8340 C   0  0  0  0  0  0  0  0  0  0  0  0
   56.8784   34.7463   44.2484 H   0  0  0  0  0  0  0  0  0  0  0  0
   58.9040   34.9780   44.9750 C   0  0  0  0  0  0  0  0  0  0  0  0
   59.0477   35.9508   44.4820 H   0  0  0  0  0  0  0  0  0  0  0  0
   59.9320   34.4260   45.7410 C   0  0  0  0  0  0  0  0  0  0  0  0
   60.8783   34.9726   45.8666 H   0  0  0  0  0  0  0  0  0  0  0  0
   59.7590   33.1740   46.3510 C   0  0  0  0  0  0  0  0  0  0  0  0
   63.6310   32.3030   49.1970 C   0  0  0  0  0  0  0  0  0  0  0  0
   64.7080   33.1840   49.2090 C   0  0  0  0  0  0  0  0  0  0  0  0
   64.7592   34.0286   48.5061 H   0  0  0  0  0  0  0  0  0  0  0  0
   65.7270   32.9590   50.1480 C   0  0  0  0  0  0  0  0  0  0  0  0
   66.5999   33.6274   50.1828 H   0  0  0  0  0  0  0  0  0  0  0  0
  1  2  1  0
  2  3  2  0
  3  4  1  0
  4  5  1  0
  5  6  1  0
  6  7  2  0
  7  8  1  0
  8  9  2  0
  9 10  1  0
 10 11  1  0
 11 12  1  0
 11 13  1  0
 11 14  1  0
 14 15  2  0
 15 16  1  0
 16 17  1  0
 17 18  1  0
 17 19  1  0
 17 20  1  0
 20 21  1  0
 20 22  1  0
 20 23  1  0
 14 24  1  0
 24 25  2  0
 25 26  1  0
 25 27  1  0
 27 28  1  0
 27 29  2  0
 29 30  1  0
 29 31  1  0
 31 32  1  0
 31 33  2  0
  7 34  1  0
 34 35  1  0
 35 36  1  0
 35 37  2  0
 37 38  1  0
 37  2  1  0
 34  4  2  0
 10  6  1  0
 33 24  1  0
 33  9  1  0
M  END
>  <UniqueID>  (38) 
37

>  <SMILES>  (38) 
CCO/N=C1/Cn2c(nc3c4cccnc4sc32)-c2ccccc21

>  <Energy>  (38) 
134.39654089175332

>  <Genealogy>  (38) 
CCO/N=C1/Cn2c(nc3c4cccnc4sc32)-c2ccccc21 (cis-trans isomerization)
CCO/N=C1/Cn2c(nc3c4cccnc4sc32)-c2ccccc21 (3D coordinates assigned)
CCO/N=C1/Cn2c(nc3c4cccnc4sc32)-c2ccccc21 (nonaromatic ring conformer: 134.39654089175332 kcal/mol)

>  <smiles>  (38) 
CCON=C1Cn2c(nc3c4cccnc4sc32)-c2ccccc21

>  <score_type>  (38) 
oracle

>  <origin>  (38) 
adg

>  <m_score__min__energy>  (38) 
-7.9100000000000001

>  <m_primary>  (38) 
energy

$$$$
38:0
     RDKit          3D

 69 74  0  0  0  0  0  0  0  0999 V2000
   62.7240   30.2370   51.7240 C   0  0  0  0  0  0  0  0  0  0  0  0
   61.4520   30.1880   52.3600 O   0  0  0  0  0  0  0  0  0  0  0  0
   60.2530   30.6070   51.7640 C   0  0  0  0  0  0  0  0  0  0  0  0
   58.9950   30.1270   52.1800 C   0  0  0  0  0  0  0  0  0  0  0  0
   57.8240   30.5360   51.5330 C   0  0  0  0  0  0  0  0  0  0  0  0
   56.6010   30.0200   51.9790 O   0  0  0  0  0  0  0  0  0  0  0  0
   55.3920   30.7690   52.0590 C   0  0  0  0  0  0  0  0  0  0  0  0
   57.9110   31.4460   50.4640 C   0  0  0  0  0  0  0  0  0  0  0  0
   59.1540   31.9510   50.0600 C   0  0  0  0  0  0  0  0  0  0  0  0
   59.2270   32.8830   48.9670 N   0  0  0  0  0  0  0  0  0  0  0  0
   59.8800   34.1850   49.1710 C   0  0  0  0  0  0  0  0  0  0  0  0
   60.6950   34.5880   47.9320 C   0  0  0  0  0  0  0  0  0  0  0  0
   61.9630   33.8600   47.8810 N   0  0  0  0  0  0  0  0  0  0  0  0
   62.3810   33.0270   46.7520 C   0  0  0  0  0  0  0  0  0  0  0  0
   63.6880   32.3260   47.1960 C   0  0  0  0  0  0  0  0  0  0  0  0
   63.8840   32.8150   48.5920 C   0  0  0  0  0  0  0  0  0  0  0  0
   64.8950   32.4680   49.4880 C   0  0  0  0  0  0  0  0  0  0  0  0
   64.8690   33.0280   50.7760 C   0  0  0  0  0  0  0  0  0  0  0  0
   63.8370   33.9140   51.1450 C   0  0  0  0  0  0  0  0  0  0  0  0
   62.8230   34.2380   50.2270 C   0  0  0  0  0  0  0  0  0  0  0  0
   62.8810   33.6760   48.9470 C   0  0  0  0  0  0  0  0  0  0  0  0
   58.6280   32.5310   47.7030 C   0  0  0  0  0  0  0  0  0  0  0  0
   58.0700   33.5350   46.8910 C   0  0  0  0  0  0  0  0  0  0  0  0
   57.5230   33.2230   45.6430 C   0  0  0  0  0  0  0  0  0  0  0  0
   57.5420   31.9030   45.1860 C   0  0  0  0  0  0  0  0  0  0  0  0
   57.0410   31.5880   43.9650 N   0  0  0  0  0  0  0  0  0  0  0  0
   57.0710   30.3120   43.4990 C   0  0  0  0  0  0  0  0  0  0  0  0
   57.6260   29.2940   44.2930 C   0  0  0  0  0  0  0  0  0  0  0  0
   57.6900   27.8940   43.8260 C   0  0  0  0  0  0  0  0  0  0  0  0
   57.7750   27.4260   42.5220 C   0  0  0  0  0  0  0  0  0  0  0  0
   57.8080   26.0810   42.5520 N   0  0  0  0  0  0  0  0  0  0  0  0
   57.7590   25.6820   43.8130 N   0  0  0  0  0  0  0  0  0  0  0  0
   57.7000   24.2890   44.2380 C   0  0  0  0  0  0  0  0  0  0  0  0
   57.6780   26.7590   44.6180 C   0  0  0  0  0  0  0  0  0  0  0  0
   58.1200   29.6130   45.5210 N   0  0  0  0  0  0  0  0  0  0  0  0
   58.0940   30.8880   45.9890 C   0  0  0  0  0  0  0  0  0  0  0  0
   58.6240   31.1990   47.2470 C   0  0  0  0  0  0  0  0  0  0  0  0
   60.3200   31.5260   50.7130 C   0  0  0  0  0  0  0  0  0  0  0  0
   63.5149   30.2675   52.4879 H   0  0  0  0  0  0  0  0  0  0  0  0
   62.8547   29.3432   51.0962 H   0  0  0  0  0  0  0  0  0  0  0  0
   62.7856   31.1382   51.0962 H   0  0  0  0  0  0  0  0  0  0  0  0
   58.9331   29.4229   53.0228 H   0  0  0  0  0  0  0  0  0  0  0  0
   55.1303   30.9311   53.1150 H   0  0  0  0  0  0  0  0  0  0  0  0
   55.5290   31.7406   51.5619 H   0  0  0  0  0  0  0  0  0  0  0  0
   54.5830   30.2136   51.5619 H   0  0  0  0  0  0  0  0  0  0  0  0
   56.9966   31.7635   49.9414 H   0  0  0  0  0  0  0  0  0  0  0  0
   59.1109   34.9483   49.3604 H   0  0  0  0  0  0  0  0  0  0  0  0
   60.5618   34.1062   50.0306 H   0  0  0  0  0  0  0  0  0  0  0  0
   60.1120   34.3595   47.0276 H   0  0  0  0  0  0  0  0  0  0  0  0
   60.9105   35.6652   47.9886 H   0  0  0  0  0  0  0  0  0  0  0  0
   61.6068   32.2804   46.5213 H   0  0  0  0  0  0  0  0  0  0  0  0
   62.5362   33.6289   45.8445 H   0  0  0  0  0  0  0  0  0  0  0  0
   63.5752   31.2320   47.1741 H   0  0  0  0  0  0  0  0  0  0  0  0
   64.5408   32.5498   46.5383 H   0  0  0  0  0  0  0  0  0  0  0  0
   65.6941   31.7720   49.1929 H   0  0  0  0  0  0  0  0  0  0  0  0
   65.6575   32.7739   51.4997 H   0  0  0  0  0  0  0  0  0  0  0  0
   63.8250   34.3529   52.1536 H   0  0  0  0  0  0  0  0  0  0  0  0
   62.0041   34.9166   50.5080 H   0  0  0  0  0  0  0  0  0  0  0  0
   58.0640   34.5775   47.2421 H   0  0  0  0  0  0  0  0  0  0  0  0
   57.0787   34.0150   45.0223 H   0  0  0  0  0  0  0  0  0  0  0  0
   56.6628   30.0770   42.5050 H   0  0  0  0  0  0  0  0  0  0  0  0
   57.8096   28.0496   41.6165 H   0  0  0  0  0  0  0  0  0  0  0  0
   57.8610   25.4460   41.7240 H   0  0  0  0  0  0  0  0  0  0  0  0
   57.6980   24.2407   45.3369 H   0  0  0  0  0  0  0  0  0  0  0  0
   56.7814   23.8255   43.8489 H   0  0  0  0  0  0  0  0  0  0  0  0
   58.5761   23.7495   43.8489 H   0  0  0  0  0  0  0  0  0  0  0  0
   57.6134   26.7397   45.7159 H   0  0  0  0  0  0  0  0  0  0  0  0
   59.0382   30.4008   47.8805 H   0  0  0  0  0  0  0  0  0  0  0  0
   61.2967   31.9196   50.3950 H   0  0  0  0  0  0  0  0  0  0  0  0
  1  2  1  0
  2  3  1  0
  3  4  2  0
  4  5  1  0
  5  6  1  0
  6  7  1  0
  5  8  2  0
  8  9  1  0
  9 10  1  0
 10 11  1  0
 11 12  1  0
 12 13  1  0
 13 14  1  0
 14 15  1  0
 15 16  1  0
 16 17  2  0
 17 18  1  0
 18 19  2  0
 19 20  1  0
 20 21  2  0
 10 22  1  0
 22 23  2  0
 23 24  1  0
 24 25  2  0
 25 26  1  0
 26 27  2  0
 27 28  1  0
 28 29  1  0
 29 30  1  0
 30 31  2  0
 31 32  1  0
 32 33  1  0
 32 34  1  0
 28 35  2  0
 35 36  1  0
 36 37  2  0
  9 38  2  0
 38  3  1  0
 21 13  1  0
 37 22  1  0
 21 16  1  0
 36 25  1  0
 34 29  2  0
  1 39  1  0
  1 40  1  0
  1 41  1  0
  4 42  1  0
  7 43  1  0
  7 44  1  0
  7 45  1  0
  8 46  1  0
 11 47  1  0
 11 48  1  0
 12 49  1  0
 12 50  1  0
 14 51  1  0
 14 52  1  0
 15 53  1  0
 15 54  1  0
 17 55  1  0
 18 56  1  0
 19 57  1  0
 20 58  1  0
 23 59  1  0
 24 60  1  0
 27 61  1  0
 30 62  1  0
 31 63  1  0
 33 64  1  0
 33 65  1  0
 33 66  1  0
 34 67  1  0
 37 68  1  0
 38 69  1  0
M  CHG  1  31   1
M  END
>  <UniqueID>  (39) 
38

>  <SMILES>  (39) 
COc1cc(OC)cc(N(CCN2CCc3ccccc32)c2ccc3ncc(-c4c[nH+]n(C)c4)nc3c2)c1

>  <Energy>  (39) 
129.41693695873792

>  <Genealogy>  (39) 
COc1cc(OC)cc(N(CCN2CCc3ccccc32)c2ccc3ncc(-c4c[nH+]n(C)c4)nc3c2)c1 (protonated)
COc1cc(OC)cc(N(CCN2CCc3ccccc32)c2ccc3ncc(-c4c[nH+]n(C)c4)nc3c2)c1 (3D coordinates assigned)
COc1cc(OC)cc(N(CCN2CCc3ccccc32)c2ccc3ncc(-c4c[nH+]n(C)c4)nc3c2)c1 (nonaromatic ring conformer: 129.41693695873792 kcal/mol)

>  <smiles>  (39) 
COc1cc(OC)cc(N(CCN2CCc3ccccc32)c2ccc3ncc(-c4cnn(C)c4)nc3c2)c1

>  <score_type>  (39) 
oracle

>  <origin>  (39) 
adg

>  <m_score__min__energy>  (39) 
-8.6300000000000008

>  <m_primary>  (39) 
energy

$$$$
39:0
     RDKit          3D

 34 37  0  0  0  0  0  0  0  0999 V2000
   63.3520   34.0180   51.1980 C   0  0  0  0  0  0  0  0  0  0  0  0
   61.9590   33.9340   50.9200 O   0  0  0  0  0  0  0  0  0  0  0  0
   61.4140   33.8300   49.6310 C   0  0  0  0  0  0  0  0  0  0  0  0
   62.2340   33.3620   48.5980 C   0  0  0  0  0  0  0  0  0  0  0  0
   61.7380   33.2410   47.2970 C   0  0  0  0  0  0  0  0  0  0  0  0
   60.4070   33.5900   47.0080 C   0  0  0  0  0  0  0  0  0  0  0  0
   59.8660   33.4690   45.6050 C   0  0  2  0  0  0  0  0  0  0  0  0
   58.8830   34.9650   45.1590 S   0  0  0  0  0  0  0  0  0  0  0  0
   57.3270   34.0130   44.8770 C   0  0  0  0  0  0  0  0  0  0  0  0
   57.6900   32.6070   45.1390 C   0  0  0  0  0  0  0  0  0  0  0  0
   56.9040   31.5030   45.0500 N   0  0  0  0  0  0  0  0  0  0  0  0
   57.7760   30.5210   45.3880 C   0  0  0  0  0  0  0  0  0  0  0  0
   57.5280   29.1530   45.4690 C   0  0  0  0  0  0  0  0  0  0  0  0
   58.5990   28.3150   45.8410 C   0  0  0  0  0  0  0  0  0  0  0  0
   59.8770   28.8570   46.1180 C   0  0  0  0  0  0  0  0  0  0  0  0
   60.0980   30.2450   46.0270 C   0  0  0  0  0  0  0  0  0  0  0  0
   59.0160   31.0390   45.6580 C   0  0  0  0  0  0  0  0  0  0  0  0
   58.9430   32.3620   45.5010 N   0  0  0  0  0  0  0  0  0  0  0  0
   59.5830   34.0540   48.0440 C   0  0  0  0  0  0  0  0  0  0  0  0
   60.0800   34.1760   49.3450 C   0  0  0  0  0  0  0  0  0  0  0  0
   63.5087   34.0275   52.2867 H   0  0  0  0  0  0  0  0  0  0  0  0
   63.8661   33.1492   50.7611 H   0  0  0  0  0  0  0  0  0  0  0  0
   63.7580   34.9423   50.7611 H   0  0  0  0  0  0  0  0  0  0  0  0
   63.2774   33.0871   48.8118 H   0  0  0  0  0  0  0  0  0  0  0  0
   62.3927   32.8706   46.4944 H   0  0  0  0  0  0  0  0  0  0  0  0
   60.7361   33.3351   44.9454 H   0  0  0  0  0  0  0  0  0  0  0  0
   56.5393   34.3449   45.5693 H   0  0  0  0  0  0  0  0  0  0  0  0
   56.9320   34.1564   43.8604 H   0  0  0  0  0  0  0  0  0  0  0  0
   56.5318   28.7409   45.2505 H   0  0  0  0  0  0  0  0  0  0  0  0
   58.4399   27.2292   45.9167 H   0  0  0  0  0  0  0  0  0  0  0  0
   60.7028   28.1899   46.4062 H   0  0  0  0  0  0  0  0  0  0  0  0
   61.0845   30.6832   46.2387 H   0  0  0  0  0  0  0  0  0  0  0  0
   58.5381   34.3239   47.8312 H   0  0  0  0  0  0  0  0  0  0  0  0
   59.4255   34.5441   50.1488 H   0  0  0  0  0  0  0  0  0  0  0  0
  1  2  1  0
  2  3  1  0
  3  4  2  0
  4  5  1  0
  5  6  2  0
  6  7  1  0
  7  8  1  0
  8  9  1  0
  9 10  1  0
 10 11  2  0
 11 12  1  0
 12 13  2  0
 13 14  1  0
 14 15  2  0
 15 16  1  0
 16 17  2  0
 17 18  1  0
  6 19  1  0
 19 20  2  0
 20  3  1  0
 18  7  1  0
 18 10  1  0
 17 12  1  0
  1 21  1  0
  1 22  1  0
  1 23  1  0
  4 24  1  0
  5 25  1  0
  7 26  1  6
  9 27  1  0
  9 28  1  0
 13 29  1  0
 14 30  1  0
 15 31  1  0
 16 32  1  0
 19 33  1  0
 20 34  1  0
M  END
>  <UniqueID>  (40) 
39

>  <SMILES>  (40) 
COc1ccc([C@@H]2SCc3nc4ccccc4n32)cc1

>  <Energy>  (40) 
80.69022356305652

>  <Genealogy>  (40) 
COc1ccc([C@@H]2SCc3nc4ccccc4n32)cc1 (chirality)
COc1ccc([C@@H]2SCc3nc4ccccc4n32)cc1 (3D coordinates assigned)
COc1ccc([C@@H]2SCc3nc4ccccc4n32)cc1 (nonaromatic ring conformer: 80.69022356305652 kcal/mol)

>  <smiles>  (40) 
COc1ccc(C2SCc3nc4ccccc4n32)cc1

>  <score_type>  (40) 
oracle

>  <origin>  (40) 
adg

>  <m_score__min__energy>  (40) 
-6.8499999999999996

>  <m_primary>  (40) 
energy

$$$$
40:0
     RDKit          3D

 28 30  0  0  0  0  0  0  0  0999 V2000
   57.6040   27.4820   46.5370 C   0  0  0  0  0  0  0  0  0  0  0  0
   57.5250   28.6650   45.6290 C   0  0  0  0  0  0  0  0  0  0  0  0
   57.9520   29.9500   45.9520 C   0  0  0  0  0  0  0  0  0  0  0  0
   57.7420   30.6940   44.8050 C   0  0  0  0  0  0  0  0  0  0  0  0
   57.9340   32.0480   44.5100 C   0  0  0  0  0  0  0  0  0  0  0  0
   58.5130   33.0130   45.4710 C   0  0  0  0  0  0  0  0  0  0  0  0
   59.1640   34.1780   45.0270 C   0  0  0  0  0  0  0  0  0  0  0  0
   59.6880   35.0880   45.9500 C   0  0  0  0  0  0  0  0  0  0  0  0
   59.5580   34.8510   47.3200 C   0  0  0  0  0  0  0  0  0  0  0  0
   58.8960   33.7070   47.7710 C   0  0  0  0  0  0  0  0  0  0  0  0
   58.3690   32.7940   46.8520 C   0  0  0  0  0  0  0  0  0  0  0  0
   57.5440   32.4780   43.2710 N   0  0  0  0  0  0  0  0  0  0  0  0
   57.0190   31.6460   42.3570 N   0  0  0  0  0  0  0  0  0  0  0  0
   56.8370   30.3190   42.6190 C   0  0  0  0  0  0  0  0  0  0  0  0
   57.2070   29.8520   43.8720 C   0  0  0  0  0  0  0  0  0  0  0  0
   57.0800   28.6050   44.3530 N   0  0  0  0  0  0  0  0  0  0  0  0
   57.5814   27.8207   47.5833 H   0  0  0  0  0  0  0  0  0  0  0  0
   56.7483   26.8171   46.3483 H   0  0  0  0  0  0  0  0  0  0  0  0
   58.5406   26.9368   46.3483 H   0  0  0  0  0  0  0  0  0  0  0  0
   58.3659   30.2977   46.9100 H   0  0  0  0  0  0  0  0  0  0  0  0
   59.2613   34.3740   43.9490 H   0  0  0  0  0  0  0  0  0  0  0  0
   60.2039   35.9928   45.5962 H   0  0  0  0  0  0  0  0  0  0  0  0
   59.9770   35.5654   48.0440 H   0  0  0  0  0  0  0  0  0  0  0  0
   58.7890   33.5238   48.8503 H   0  0  0  0  0  0  0  0  0  0  0  0
   57.8390   31.8998   47.2118 H   0  0  0  0  0  0  0  0  0  0  0  0
   56.7410   32.0260   41.4260 H   0  0  0  0  0  0  0  0  0  0  0  0
   56.4116   29.6429   41.8627 H   0  0  0  0  0  0  0  0  0  0  0  0
   56.7060   27.7690   43.8520 H   0  0  0  0  0  0  0  0  0  0  0  0
  1  2  1  0
  2  3  2  0
  3  4  1  0
  4  5  2  0
  5  6  1  0
  6  7  2  0
  7  8  1  0
  8  9  2  0
  9 10  1  0
 10 11  2  0
  5 12  1  0
 12 13  2  0
 13 14  1  0
 14 15  2  0
 15 16  1  0
 16  2  1  0
 15  4  1  0
 11  6  1  0
  1 17  1  0
  1 18  1  0
  1 19  1  0
  3 20  1  0
  7 21  1  0
  8 22  1  0
  9 23  1  0
 10 24  1  0
 11 25  1  0
 13 26  1  0
 14 27  1  0
 16 28  1  0
M  CHG  1  13   1
M  END
>  <UniqueID>  (41) 
40

>  <SMILES>  (41) 
Cc1cc2c(-c3ccccc3)n[nH+]cc2[nH]1

>  <Energy>  (41) 
68.52564022183797

>  <Genealogy>  (41) 
Cc1cc2c(-c3ccccc3)n[nH+]cc2[nH]1 (protonated)
Cc1cc2c(-c3ccccc3)n[nH+]cc2[nH]1 (3D coordinates assigned)
Cc1cc2c(-c3ccccc3)n[nH+]cc2[nH]1 (optimized conformer: 68.52564022183797 kcal/mol)

>  <smiles>  (41) 
Cc1cc2c(-c3ccccc3)nncc2[nH]1

>  <score_type>  (41) 
oracle

>  <origin>  (41) 
adg

>  <m_score__min__energy>  (41) 
-5.4500000000000002

>  <m_primary>  (41) 
energy

$$$$
41:0
     RDKit          3D

 57 59  0  0  0  0  0  0  0  0999 V2000
   57.2140   24.4150   44.1800 C   0  0  0  0  0  0  0  0  0  0  0  0
   58.1220   23.9640   45.3240 C   0  0  0  0  0  0  0  0  0  0  0  0
   58.4050   25.0610   46.1930 O   0  0  0  0  0  0  0  0  0  0  0  0
   58.1560   26.3970   45.8550 C   0  0  0  0  0  0  0  0  0  0  0  0
   57.2040   27.0230   46.4130 O   0  0  0  0  0  0  0  0  0  0  0  0
   59.0750   27.1350   44.9040 C   0  0  2  0  0  0  0  0  0  0  0  0
   59.8690   28.2660   45.6220 C   0  0  0  0  0  0  0  0  0  0  0  0
   59.3940   29.6810   45.2390 C   0  0  0  0  0  0  0  0  0  0  0  0
   57.9210   29.7320   45.0960 N   0  0  1  0  0  0  0  0  0  0  0  0
   57.4270   31.0910   44.9550 C   0  0  0  0  0  0  0  0  0  0  0  0
   56.2540   31.2610   44.5070 O   0  0  0  0  0  0  0  0  0  0  0  0
   58.2200   32.3060   45.3280 C   0  0  0  0  0  0  0  0  0  0  0  0
   58.2180   33.4160   44.4610 C   0  0  0  0  0  0  0  0  0  0  0  0
   58.9180   34.5800   44.7910 C   0  0  0  0  0  0  0  0  0  0  0  0
   59.6290   34.6540   45.9900 C   0  0  0  0  0  0  0  0  0  0  0  0
   59.6540   33.5600   46.8560 C   0  0  0  0  0  0  0  0  0  0  0  0
   60.4350   33.7020   48.4290 S   0  0  0  0  0  0  0  0  0  0  0  0
   59.6510   34.6510   49.2930 O   0  0  0  0  0  0  0  0  0  0  0  0
   60.4340   32.3500   49.0900 O   0  0  0  0  0  0  0  0  0  0  0  0
   62.0900   34.2470   48.2280 N   0  0  0  0  0  0  0  0  0  0  0  0
   62.8800   34.2060   49.4730 C   0  0  0  0  0  0  0  0  0  0  0  0
   63.3140   32.7840   49.8470 C   0  0  0  0  0  0  0  0  0  0  0  0
   64.1020   32.1570   48.7000 C   0  0  0  0  0  0  0  0  0  0  0  0
   63.2840   32.1850   47.4090 C   0  0  0  0  0  0  0  0  0  0  0  0
   62.7710   33.6000   47.0910 C   0  0  0  0  0  0  0  0  0  0  0  0
   58.9710   32.3860   46.5150 C   0  0  0  0  0  0  0  0  0  0  0  0
   57.3820   28.8450   44.0300 C   0  0  0  0  0  0  0  0  0  0  0  0
   58.3260   27.6780   43.6700 C   0  0  0  0  0  0  0  0  0  0  0  0
   56.3011   24.8685   44.5934 H   0  0  0  0  0  0  0  0  0  0  0  0
   57.7433   25.1549   43.5617 H   0  0  0  0  0  0  0  0  0  0  0  0
   56.9442   23.5462   43.5617 H   0  0  0  0  0  0  0  0  0  0  0  0
   57.6194   23.1691   45.8946 H   0  0  0  0  0  0  0  0  0  0  0  0
   59.0662   23.5867   44.9044 H   0  0  0  0  0  0  0  0  0  0  0  0
   59.8043   26.3951   44.5424 H   0  0  0  0  0  0  0  0  0  0  0  0
   59.7510   28.1401   46.7084 H   0  0  0  0  0  0  0  0  0  0  0  0
   60.9191   28.1780   45.3065 H   0  0  0  0  0  0  0  0  0  0  0  0
   59.7028   30.3876   46.0235 H   0  0  0  0  0  0  0  0  0  0  0  0
   59.8468   29.9505   44.2734 H   0  0  0  0  0  0  0  0  0  0  0  0
   57.5400   29.3750   46.0050 H   0  0  0  0  0  0  0  0  0  0  0  0
   57.6598   33.3664   43.5144 H   0  0  0  0  0  0  0  0  0  0  0  0
   58.9086   35.4394   44.1045 H   0  0  0  0  0  0  0  0  0  0  0  0
   60.1699   35.5752   46.2524 H   0  0  0  0  0  0  0  0  0  0  0  0
   63.7791   34.8258   49.3407 H   0  0  0  0  0  0  0  0  0  0  0  0
   62.2429   34.5853   50.2855 H   0  0  0  0  0  0  0  0  0  0  0  0
   63.9473   32.8215   50.7457 H   0  0  0  0  0  0  0  0  0  0  0  0
   62.4195   32.1749   50.0444 H   0  0  0  0  0  0  0  0  0  0  0  0
   65.0340   32.7217   48.5501 H   0  0  0  0  0  0  0  0  0  0  0  0
   64.3285   31.1111   48.9545 H   0  0  0  0  0  0  0  0  0  0  0  0
   63.9172   31.8403   46.5782 H   0  0  0  0  0  0  0  0  0  0  0  0
   62.4131   31.5260   47.5405 H   0  0  0  0  0  0  0  0  0  0  0  0
   63.6283   34.2237   46.7977 H   0  0  0  0  0  0  0  0  0  0  0  0
   62.0310   33.5024   46.2830 H   0  0  0  0  0  0  0  0  0  0  0  0
   59.0224   31.5146   47.1843 H   0  0  0  0  0  0  0  0  0  0  0  0
   56.4253   28.4261   44.3753 H   0  0  0  0  0  0  0  0  0  0  0  0
   57.2638   29.4589   43.1249 H   0  0  0  0  0  0  0  0  0  0  0  0
   57.7315   26.8640   43.2295 H   0  0  0  0  0  0  0  0  0  0  0  0
   59.0751   28.0557   42.9585 H   0  0  0  0  0  0  0  0  0  0  0  0
  1  2  1  0
  2  3  1  0
  3  4  1  0
  4  5  2  0
  4  6  1  0
  6  7  1  0
  7  8  1  0
  8  9  1  0
  9 10  1  0
 10 11  2  0
 10 12  1  0
 12 13  2  0
 13 14  1  0
 14 15  2  0
 15 16  1  0
 16 17  1  0
 17 18  2  0
 17 19  2  0
 17 20  1  0
 20 21  1  0
 21 22  1  0
 22 23  1  0
 23 24  1  0
 24 25  1  0
 16 26  2  0
  9 27  1  0
 27 28  1  0
 28  6  1  0
 26 12  1  0
 25 20  1  0
  1 29  1  0
  1 30  1  0
  1 31  1  0
  2 32  1  0
  2 33  1  0
  6 34  1  6
  7 35  1  0
  7 36  1  0
  8 37  1  0
  8 38  1  0
  9 39  1  1
 13 40  1  0
 14 41  1  0
 15 42  1  0
 21 43  1  0
 21 44  1  0
 22 45  1  0
 22 46  1  0
 23 47  1  0
 23 48  1  0
 24 49  1  0
 24 50  1  0
 25 51  1  0
 25 52  1  0
 26 53  1  0
 27 54  1  0
 27 55  1  0
 28 56  1  0
 28 57  1  0
M  CHG  1   9   1
M  END
>  <UniqueID>  (42) 
41

>  <SMILES>  (42) 
CCOC(=O)C1CC[NH+](C(=O)c2cccc(S(=O)(=O)N3CCCCC3)c2)CC1

>  <Energy>  (42) 
67.4030331616998

>  <Genealogy>  (42) 
CCOC(=O)C1CC[NH+](C(=O)c2cccc(S(=O)(=O)N3CCCCC3)c2)CC1 (protonated)
CCOC(=O)C1CC[NH+](C(=O)c2cccc(S(=O)(=O)N3CCCCC3)c2)CC1 (3D coordinates assigned)
CCOC(=O)C1CC[NH+](C(=O)c2cccc(S(=O)(=O)N3CCCCC3)c2)CC1 (nonaromatic ring conformer: 67.4030331616998 kcal/mol)

>  <smiles>  (42) 
CCOC(=O)C1CCN(C(=O)c2cccc(S(=O)(=O)N3CCCCC3)c2)CC1

>  <score_type>  (42) 
oracle

>  <origin>  (42) 
adg

>  <m_score__min__energy>  (42) 
-7.8799999999999999

>  <m_primary>  (42) 
energy

$$$$
42:0
     RDKit          3D

 34 35  0  0  0  0  0  0  0  0999 V2000
   59.6230   35.4610   45.9750 C   0  0  0  0  0  0  0  0  0  0  0  0
   59.0480   34.0890   45.7880 C   0  0  0  0  0  0  0  0  0  0  0  0
   58.7630   33.2880   46.9000 C   0  0  0  0  0  0  0  0  0  0  0  0
   58.1900   32.0280   46.7310 C   0  0  0  0  0  0  0  0  0  0  0  0
   57.8830   31.5390   45.4470 C   0  0  0  0  0  0  0  0  0  0  0  0
   57.3240   30.2100   45.3140 N   0  0  0  0  0  0  0  0  0  0  0  0
   58.3650   29.1700   45.4010 C   0  0  0  0  0  0  0  0  0  0  0  0
   57.7840   27.8090   45.7140 C   0  0  0  0  0  0  0  0  0  0  0  0
   58.6290   26.7660   46.1290 C   0  0  0  0  0  0  0  0  0  0  0  0
   58.1000   25.5150   46.4590 C   0  0  0  0  0  0  0  0  0  0  0  0
   56.7230   25.2940   46.3770 C   0  0  0  0  0  0  0  0  0  0  0  0
   55.8730   26.3250   45.9690 C   0  0  0  0  0  0  0  0  0  0  0  0
   56.3950   27.5810   45.6400 C   0  0  0  0  0  0  0  0  0  0  0  0
   55.5300   28.5950   45.2420 O   0  0  0  0  0  0  0  0  0  0  0  0
   58.1540   32.3560   44.3170 C   0  0  0  0  0  0  0  0  0  0  0  0
   57.7910   31.9240   42.9200 C   0  0  0  0  0  0  0  0  0  0  0  0
   58.7220   33.6290   44.5060 C   0  0  0  0  0  0  0  0  0  0  0  0
   59.7136   35.6772   47.0497 H   0  0  0  0  0  0  0  0  0  0  0  0
   60.6170   35.5090   45.5062 H   0  0  0  0  0  0  0  0  0  0  0  0
   58.9603   36.2033   45.5062 H   0  0  0  0  0  0  0  0  0  0  0  0
   58.9921   33.6541   47.9117 H   0  0  0  0  0  0  0  0  0  0  0  0
   57.9748   31.4074   47.6134 H   0  0  0  0  0  0  0  0  0  0  0  0
   56.8240   30.1160   44.4000 H   0  0  0  0  0  0  0  0  0  0  0  0
   56.6000   30.0490   46.0540 H   0  0  0  0  0  0  0  0  0  0  0  0
   58.8947   29.1168   44.4384 H   0  0  0  0  0  0  0  0  0  0  0  0
   59.0491   29.4426   46.2181 H   0  0  0  0  0  0  0  0  0  0  0  0
   59.7140   26.9350   46.1946 H   0  0  0  0  0  0  0  0  0  0  0  0
   58.7684   24.7039   46.7835 H   0  0  0  0  0  0  0  0  0  0  0  0
   56.3080   24.3082   46.6337 H   0  0  0  0  0  0  0  0  0  0  0  0
   54.7890   26.1487   45.9061 H   0  0  0  0  0  0  0  0  0  0  0  0
   57.0840   31.0827   42.9684 H   0  0  0  0  0  0  0  0  0  0  0  0
   57.3243   32.7648   42.3858 H   0  0  0  0  0  0  0  0  0  0  0  0
   58.6996   31.6092   42.3858 H   0  0  0  0  0  0  0  0  0  0  0  0
   58.9128   34.2723   43.6344 H   0  0  0  0  0  0  0  0  0  0  0  0
  1  2  1  0
  2  3  2  0
  3  4  1  0
  4  5  2  0
  5  6  1  0
  6  7  1  0
  7  8  1  0
  8  9  2  0
  9 10  1  0
 10 11  2  0
 11 12  1  0
 12 13  2  0
 13 14  1  0
  5 15  1  0
 15 16  1  0
 15 17  2  0
 17  2  1  0
 13  8  1  0
  1 18  1  0
  1 19  1  0
  1 20  1  0
  3 21  1  0
  4 22  1  0
  6 23  1  0
  6 24  1  0
  7 25  1  0
  7 26  1  0
  9 27  1  0
 10 28  1  0
 11 29  1  0
 12 30  1  0
 16 31  1  0
 16 32  1  0
 16 33  1  0
 17 34  1  0
M  CHG  2   6   1  14  -1
M  END
>  <UniqueID>  (43) 
42

>  <SMILES>  (43) 
Cc1ccc([NH2+]Cc2ccccc2[O-])c(C)c1

>  <Energy>  (43) 
35.62521487289571

>  <Genealogy>  (43) 
Cc1ccc([NH2+]Cc2ccccc2[O-])c(C)c1 (protonated)
Cc1ccc([NH2+]Cc2ccccc2[O-])c(C)c1 (3D coordinates assigned)
Cc1ccc([NH2+]Cc2ccccc2[O-])c(C)c1 (optimized conformer: 35.62521487289571 kcal/mol)

>  <smiles>  (43) 
Cc1ccc(NCc2ccccc2O)c(C)c1

>  <score_type>  (43) 
oracle

>  <origin>  (43) 
adg

>  <m_score__min__energy>  (43) 
-8.5299999999999994

>  <m_primary>  (43) 
energy

$$$$
43:0
     RDKit          3D

 52 55  0  0  0  0  0  0  0  0999 V2000
   60.3310   29.8350   46.4240 C   0  0  0  0  0  0  0  0  0  0  0  0
   58.9150   29.8340   45.9130 C   0  0  0  0  0  0  0  0  0  0  0  0
   58.2150   31.0250   45.5650 C   0  0  0  0  0  0  0  0  0  0  0  0
   58.8060   32.3710   45.7150 C   0  0  0  0  0  0  0  0  0  0  0  0
   58.5570   33.3540   44.7450 C   0  0  0  0  0  0  0  0  0  0  0  0
   59.1000   34.6320   44.8820 C   0  0  0  0  0  0  0  0  0  0  0  0
   59.8910   34.9430   45.9910 C   0  0  0  0  0  0  0  0  0  0  0  0
   60.1390   33.9830   46.9790 C   0  0  0  0  0  0  0  0  0  0  0  0
   60.9450   34.3490   48.0690 O   0  0  0  0  0  0  0  0  0  0  0  0
   61.3470   33.4850   49.1320 C   0  0  0  0  0  0  0  0  0  0  0  0
   62.8670   33.4930   49.3310 C   0  0  0  0  0  0  0  0  0  0  0  0
   63.5460   32.8430   48.1850 N   0  0  0  0  0  0  0  0  0  0  0  0
   63.6460   33.7600   47.0350 C   0  0  0  0  0  0  0  0  0  0  0  0
   62.8260   31.6260   47.7760 C   0  0  0  0  0  0  0  0  0  0  0  0
   59.5760   32.6990   46.8450 C   0  0  0  0  0  0  0  0  0  0  0  0
   56.9450   30.9270   45.0570 N   0  0  0  0  0  0  0  0  0  0  0  0
   56.3150   29.7290   44.9050 C   0  0  0  0  0  0  0  0  0  0  0  0
   55.1460   29.6760   44.4380 O   0  0  0  0  0  0  0  0  0  0  0  0
   56.9980   28.5810   45.2840 C   0  0  0  0  0  0  0  0  0  0  0  0
   56.5720   27.3090   45.2300 N   0  0  0  0  0  0  0  0  0  0  0  0
   57.6380   26.6170   45.7110 C   0  0  0  0  0  0  0  0  0  0  0  0
   57.6950   25.1420   45.8650 C   0  0  0  0  0  0  0  0  0  0  0  0
   56.6810   24.4720   46.5770 C   0  0  0  0  0  0  0  0  0  0  0  0
   56.7210   23.0840   46.7310 C   0  0  0  0  0  0  0  0  0  0  0  0
   57.7710   22.3460   46.1790 C   0  0  0  0  0  0  0  0  0  0  0  0
   57.8180   20.6030   46.3740 Cl  0  0  0  0  0  0  0  0  0  0  0  0
   58.7830   22.9980   45.4710 C   0  0  0  0  0  0  0  0  0  0  0  0
   58.7480   24.3880   45.3130 C   0  0  0  0  0  0  0  0  0  0  0  0
   58.6670   27.4390   46.0410 N   0  0  0  0  0  0  0  0  0  0  0  0
   58.2410   28.6600   45.7650 N   0  0  0  0  0  0  0  0  0  0  0  0
   60.3239   29.8350   47.5240 H   0  0  0  0  0  0  0  0  0  0  0  0
   60.8526   28.9372   46.0607 H   0  0  0  0  0  0  0  0  0  0  0  0
   60.8513   30.7335   46.0607 H   0  0  0  0  0  0  0  0  0  0  0  0
   57.9308   33.1159   43.8725 H   0  0  0  0  0  0  0  0  0  0  0  0
   58.9049   35.3963   44.1153 H   0  0  0  0  0  0  0  0  0  0  0  0
   60.3222   35.9502   46.0884 H   0  0  0  0  0  0  0  0  0  0  0  0
   60.8647   33.8181   50.0628 H   0  0  0  0  0  0  0  0  0  0  0  0
   61.0424   32.4604   48.8724 H   0  0  0  0  0  0  0  0  0  0  0  0
   63.2152   34.5330   49.4151 H   0  0  0  0  0  0  0  0  0  0  0  0
   63.1077   32.9360   50.2485 H   0  0  0  0  0  0  0  0  0  0  0  0
   63.7586   34.7923   47.3979 H   0  0  0  0  0  0  0  0  0  0  0  0
   64.5199   33.4886   46.4245 H   0  0  0  0  0  0  0  0  0  0  0  0
   62.7342   33.6833   46.4245 H   0  0  0  0  0  0  0  0  0  0  0  0
   62.4999   31.0748   48.6704 H   0  0  0  0  0  0  0  0  0  0  0  0
   61.9470   31.9042   47.1760 H   0  0  0  0  0  0  0  0  0  0  0  0
   63.4930   30.9895   47.1760 H   0  0  0  0  0  0  0  0  0  0  0  0
   59.7399   31.9467   47.6306 H   0  0  0  0  0  0  0  0  0  0  0  0
   55.6460   26.9620   44.8940 H   0  0  0  0  0  0  0  0  0  0  0  0
   55.8512   25.0460   47.0152 H   0  0  0  0  0  0  0  0  0  0  0  0
   55.9236   22.5708   47.2884 H   0  0  0  0  0  0  0  0  0  0  0  0
   59.6099   22.4173   45.0363 H   0  0  0  0  0  0  0  0  0  0  0  0
   59.5484   24.8948   44.7539 H   0  0  0  0  0  0  0  0  0  0  0  0
  1  2  1  0
  2  3  2  0
  3  4  1  0
  4  5  2  0
  5  6  1  0
  6  7  2  0
  7  8  1  0
  8  9  1  0
  9 10  1  0
 10 11  1  0
 11 12  1  0
 12 13  1  0
 12 14  1  0
  8 15  2  0
  3 16  1  0
 16 17  1  0
 17 18  2  0
 17 19  1  0
 19 20  2  0
 20 21  1  0
 21 22  1  0
 22 23  2  0
 23 24  1  0
 24 25  2  0
 25 26  1  0
 25 27  1  0
 27 28  2  0
 21 29  2  0
 29 30  1  0
 30  2  1  0
 15  4  1  0
 30 19  1  0
 28 22  1  0
  1 31  1  0
  1 32  1  0
  1 33  1  0
  5 34  1  0
  6 35  1  0
  7 36  1  0
 10 37  1  0
 10 38  1  0
 11 39  1  0
 11 40  1  0
 13 41  1  0
 13 42  1  0
 13 43  1  0
 14 44  1  0
 14 45  1  0
 14 46  1  0
 15 47  1  0
 20 48  1  0
 23 49  1  0
 24 50  1  0
 27 51  1  0
 28 52  1  0
M  CHG  2  16  -1  20   1
M  END
>  <UniqueID>  (44) 
43

>  <SMILES>  (44) 
Cc1c(-c2cccc(OCCN(C)C)c2)[n-]c(=O)c2[nH+]c(-c3ccc(Cl)cc3)nn12

>  <Energy>  (44) 
105.59876226126478

>  <Genealogy>  (44) 
Cc1c(-c2cccc(OCCN(C)C)c2)[n-]c(=O)c2[nH+]c(-c3ccc(Cl)cc3)nn12 (protonated)
Cc1c(-c2cccc(OCCN(C)C)c2)[n-]c(=O)c2[nH+]c(-c3ccc(Cl)cc3)nn12 (3D coordinates assigned)
Cc1c(-c2cccc(OCCN(C)C)c2)[n-]c(=O)c2[nH+]c(-c3ccc(Cl)cc3)nn12 (optimized conformer: 105.59876226126478 kcal/mol)

>  <smiles>  (44) 
Cc1c(-c2cccc(OCCN(C)C)c2)[nH]c(=O)c2nc(-c3ccc(Cl)cc3)nn12

>  <score_type>  (44) 
oracle

>  <origin>  (44) 
adg

>  <m_score__min__energy>  (44) 
-8.4399999999999995

>  <m_primary>  (44) 
energy

$$$$
44:0
     RDKit          3D

 15 16  0  0  0  0  0  0  0  0999 V2000
   57.7730   32.3310   41.6890 S   0  0  0  0  0  0  0  0  0  0  0  0
   57.8390   31.6720   43.1880 C   0  0  0  0  0  0  0  0  0  0  0  0
   57.7560   30.3260   43.3760 N   0  0  0  0  0  0  0  0  0  0  0  0
   57.8600   30.0530   45.0150 S   0  0  0  0  0  0  0  0  0  0  0  0
   58.0140   31.6340   45.5160 C   0  0  0  0  0  0  0  0  0  0  0  0
   58.1500   32.1580   46.7970 C   0  0  0  0  0  0  0  0  0  0  0  0
   58.2620   33.5510   46.9260 C   0  0  0  0  0  0  0  0  0  0  0  0
   58.2350   34.3770   45.7840 C   0  0  0  0  0  0  0  0  0  0  0  0
   58.0960   33.8180   44.5000 C   0  0  0  0  0  0  0  0  0  0  0  0
   57.9850   32.4270   44.3760 C   0  0  0  0  0  0  0  0  0  0  0  0
   57.6460   29.6000   42.6340 H   0  0  0  0  0  0  0  0  0  0  0  0
   58.1692   31.5023   47.6800 H   0  0  0  0  0  0  0  0  0  0  0  0
   58.3715   34.0008   47.9238 H   0  0  0  0  0  0  0  0  0  0  0  0
   58.3233   35.4676   45.8974 H   0  0  0  0  0  0  0  0  0  0  0  0
   58.0749   34.4624   43.6088 H   0  0  0  0  0  0  0  0  0  0  0  0
  1  2  2  0
  2  3  1  0
  3  4  1  0
  4  5  1  0
  5  6  2  0
  6  7  1  0
  7  8  2  0
  8  9  1  0
  9 10  2  0
 10  2  1  0
 10  5  1  0
  3 11  1  0
  6 12  1  0
  7 13  1  0
  8 14  1  0
  9 15  1  0
M  END
>  <UniqueID>  (45) 
44

>  <SMILES>  (45) 
S=c1[nH]sc2ccccc12

>  <Energy>  (45) 
55.298619545215416

>  <Genealogy>  (45) 
S=c1[nH]sc2ccccc12 (3D coordinates assigned)
S=c1[nH]sc2ccccc12 (optimized conformer: 55.298619545215416 kcal/mol)

>  <smiles>  (45) 
S=c1[nH]sc2ccccc12

>  <score_type>  (45) 
oracle

>  <origin>  (45) 
adg

>  <m_score__min__energy>  (45) 
-5.1799999999999997

>  <m_primary>  (45) 
energy

$$$$
