0:0
     RDKit          3D

 36 38  0  0  0  0  0  0  0  0999 V2000
   60.6620   30.6360   48.5350 C   0  0  0  0  0  0  0  0  0  0  0  0
   59.1210   31.5560   48.8280 S   0  0  0  0  0  0  0  0  0  0  0  0
   58.6140   31.4680   47.1100 C   0  0  0  0  0  0  0  0  0  0  0  0
   58.0130   30.3860   46.5680 N   0  0  0  0  0  0  0  0  0  0  0  0
   57.7950   30.7270   45.2830 C   0  0  0  0  0  0  0  0  0  0  0  0
   57.1950   29.9310   44.3110 C   0  0  0  0  0  0  0  0  0  0  0  0
   57.0560   30.4700   43.0220 C   0  0  0  0  0  0  0  0  0  0  0  0
   57.5040   31.7800   42.7400 C   0  0  0  0  0  0  0  0  0  0  0  0
   57.3920   32.3400   41.3550 C   0  0  0  0  0  0  0  0  0  0  0  0
   58.1190   32.5270   43.7620 C   0  0  0  0  0  0  0  0  0  0  0  0
   58.2310   31.9660   44.9960 N   0  0  0  0  0  0  0  0  0  0  0  0
   58.7520   32.4520   46.1380 C   0  0  0  0  0  0  0  0  0  0  0  0
   59.4450   34.0640   46.3220 S   0  0  0  0  0  0  0  0  0  0  0  0
   59.6470   34.7240   44.9870 O   0  0  0  0  0  0  0  0  0  0  0  0
   58.4990   34.9010   47.1360 O   0  0  0  0  0  0  0  0  0  0  0  0
   61.0060   33.9310   47.1270 C   0  0  0  0  0  0  0  0  0  0  0  0
   62.1320   33.5290   46.3950 C   0  0  0  0  0  0  0  0  0  0  0  0
   63.3730   33.4050   47.0270 C   0  0  0  0  0  0  0  0  0  0  0  0
   63.4940   33.6840   48.3920 C   0  0  0  0  0  0  0  0  0  0  0  0
   62.3750   34.0870   49.1250 C   0  0  0  0  0  0  0  0  0  0  0  0
   61.1320   34.2120   48.4950 C   0  0  0  0  0  0  0  0  0  0  0  0
   61.1162   30.3648   49.4995 H   0  0  0  0  0  0  0  0  0  0  0  0
   60.4406   29.7222   47.9642 H   0  0  0  0  0  0  0  0  0  0  0  0
   61.3614   31.2645   47.9642 H   0  0  0  0  0  0  0  0  0  0  0  0
   57.7710   29.4880   47.0410 H   0  0  0  0  0  0  0  0  0  0  0  0
   56.8423   28.9156   44.5447 H   0  0  0  0  0  0  0  0  0  0  0  0
   56.5947   29.8677   42.2255 H   0  0  0  0  0  0  0  0  0  0  0  0
   57.1765   33.4172   41.4114 H   0  0  0  0  0  0  0  0  0  0  0  0
   58.3393   32.1831   40.8183 H   0  0  0  0  0  0  0  0  0  0  0  0
   56.5779   31.8308   40.8183 H   0  0  0  0  0  0  0  0  0  0  0  0
   58.5000   33.5404   43.5675 H   0  0  0  0  0  0  0  0  0  0  0  0
   62.0390   33.3106   45.3209 H   0  0  0  0  0  0  0  0  0  0  0  0
   64.2544   33.0879   46.4504 H   0  0  0  0  0  0  0  0  0  0  0  0
   64.4706   33.5861   48.8887 H   0  0  0  0  0  0  0  0  0  0  0  0
   62.4713   34.3063   50.1986 H   0  0  0  0  0  0  0  0  0  0  0  0
   60.2525   34.5311   49.0735 H   0  0  0  0  0  0  0  0  0  0  0  0
  1  2  1  0
  2  3  1  0
  3  4  1  0
  4  5  2  0
  5  6  1  0
  6  7  2  0
  7  8  1  0
  8  9  1  0
  8 10  2  0
 10 11  1  0
 11 12  1  0
 12 13  1  0
 13 14  2  0
 13 15  2  0
 13 16  1  0
 16 17  2  0
 17 18  1  0
 18 19  2  0
 19 20  1  0
 20 21  2  0
 12  3  2  0
 21 16  1  0
 11  5  1  0
  1 22  1  0
  1 23  1  0
  1 24  1  0
  4 25  1  0
  6 26  1  0
  7 27  1  0
  9 28  1  0
  9 29  1  0
  9 30  1  0
 10 31  1  0
 17 32  1  0
 18 33  1  0
 19 34  1  0
 20 35  1  0
 21 36  1  0
M  CHG  1   4   1
M  END
>  <UniqueID>  (1) 
1

>  <SMILES>  (1) 
CSc1[nH+]c2ccc(C)cn2c1S(=O)(=O)c1ccccc1

>  <Energy>  (1) 
71.70520850665515

>  <Genealogy>  (1) 
CSc1[nH+]c2ccc(C)cn2c1S(=O)(=O)c1ccccc1 (protonated)
CSc1[nH+]c2ccc(C)cn2c1S(=O)(=O)c1ccccc1 (3D coordinates assigned)
CSc1[nH+]c2ccc(C)cn2c1S(=O)(=O)c1ccccc1 (optimized conformer: 71.70520850665515 kcal/mol)

>  <smiles>  (1) 
CSc1nc2ccc(C)cn2c1S(=O)(=O)c1ccccc1

>  <score_type>  (1) 
oracle

>  <origin>  (1) 
adg

>  <m_score__min__energy>  (1) 
-5.9199999999999999

>  <m_primary>  (1) 
energy

$$$$
1:0
     RDKit          3D

 59 61  0  0  0  0  0  0  0  0999 V2000
   63.3980   33.8330   46.3720 C   0  0  0  0  0  0  0  0  0  0  0  0
   63.6720   33.4770   47.8360 C   0  0  0  0  0  0  0  0  0  0  0  0
   62.7350   32.4630   48.3490 N   0  0  0  0  0  0  0  0  0  0  0  0
   62.7270   31.2440   47.5190 C   0  0  0  0  0  0  0  0  0  0  0  0
   61.4920   30.3720   47.8050 C   0  0  0  0  0  0  0  0  0  0  0  0
   60.2830   31.1820   47.9630 N   0  0  0  0  0  0  0  0  0  0  0  0
   59.4260   31.4840   46.8500 C   0  0  0  0  0  0  0  0  0  0  0  0
   58.6670   30.4540   46.2710 C   0  0  0  0  0  0  0  0  0  0  0  0
   58.5350   29.2040   46.9100 C   0  0  0  0  0  0  0  0  0  0  0  0
   57.7690   28.1900   46.3400 C   0  0  0  0  0  0  0  0  0  0  0  0
   57.1150   28.4080   45.1330 C   0  0  0  0  0  0  0  0  0  0  0  0
   57.2420   29.6320   44.4770 C   0  0  0  0  0  0  0  0  0  0  0  0
   58.0450   30.6700   45.0160 C   0  0  0  0  0  0  0  0  0  0  0  0
   58.2360   31.8640   44.3490 N   0  0  0  0  0  0  0  0  0  0  0  0
   57.8850   31.9710   42.9160 C   0  0  0  0  0  0  0  0  0  0  0  0
   58.7680   32.9510   45.0180 C   0  0  0  0  0  0  0  0  0  0  0  0
   58.6990   34.2540   44.4700 C   0  0  0  0  0  0  0  0  0  0  0  0
   59.2480   35.3430   45.1340 C   0  0  0  0  0  0  0  0  0  0  0  0
   59.8430   35.1810   46.3760 C   0  0  0  0  0  0  0  0  0  0  0  0
   59.8990   33.9170   46.9870 C   0  0  0  0  0  0  0  0  0  0  0  0
   60.4050   33.7690   48.2930 O   0  0  0  0  0  0  0  0  0  0  0  0
   59.7630   34.1740   49.5050 C   0  0  0  0  0  0  0  0  0  0  0  0
   59.8950   33.0980   50.5890 C   0  0  0  0  0  0  0  0  0  0  0  0
   61.2150   32.4350   50.5110 N   0  0  0  0  0  0  0  0  0  0  0  0
   62.2290   33.2150   51.2400 C   0  0  0  0  0  0  0  0  0  0  0  0
   61.1590   31.0680   51.0550 C   0  0  0  0  0  0  0  0  0  0  0  0
   59.3830   32.7820   46.2940 C   0  0  0  0  0  0  0  0  0  0  0  0
   62.7277   34.7039   46.3257 H   0  0  0  0  0  0  0  0  0  0  0  0
   64.3465   34.0732   45.8693 H   0  0  0  0  0  0  0  0  0  0  0  0
   62.9230   32.9776   45.8693 H   0  0  0  0  0  0  0  0  0  0  0  0
   64.6968   33.0861   47.9192 H   0  0  0  0  0  0  0  0  0  0  0  0
   63.5408   34.3903   48.4349 H   0  0  0  0  0  0  0  0  0  0  0  0
   63.0410   32.1970   49.3160 H   0  0  0  0  0  0  0  0  0  0  0  0
   61.7770   32.8740   48.4250 H   0  0  0  0  0  0  0  0  0  0  0  0
   62.7209   31.5346   46.4581 H   0  0  0  0  0  0  0  0  0  0  0  0
   63.6257   30.6574   47.7606 H   0  0  0  0  0  0  0  0  0  0  0  0
   61.3466   29.6739   46.9674 H   0  0  0  0  0  0  0  0  0  0  0  0
   61.6661   29.8282   48.7452 H   0  0  0  0  0  0  0  0  0  0  0  0
   60.0200   31.5250   48.9130 H   0  0  0  0  0  0  0  0  0  0  0  0
   59.0428   29.0277   47.8697 H   0  0  0  0  0  0  0  0  0  0  0  0
   57.6816   27.2167   46.8450 H   0  0  0  0  0  0  0  0  0  0  0  0
   56.4952   27.6124   44.6938 H   0  0  0  0  0  0  0  0  0  0  0  0
   56.7116   29.7952   43.5273 H   0  0  0  0  0  0  0  0  0  0  0  0
   56.8370   32.2905   42.8181 H   0  0  0  0  0  0  0  0  0  0  0  0
   58.5404   32.7102   42.4322 H   0  0  0  0  0  0  0  0  0  0  0  0
   58.0166   30.9919   42.4322 H   0  0  0  0  0  0  0  0  0  0  0  0
   58.2016   34.4068   43.5008 H   0  0  0  0  0  0  0  0  0  0  0  0
   59.2107   36.3405   44.6718 H   0  0  0  0  0  0  0  0  0  0  0  0
   60.2762   36.0523   46.8889 H   0  0  0  0  0  0  0  0  0  0  0  0
   60.2282   35.1039   49.8640 H   0  0  0  0  0  0  0  0  0  0  0  0
   58.6941   34.3299   49.2975 H   0  0  0  0  0  0  0  0  0  0  0  0
   59.7844   33.5666   51.5780 H   0  0  0  0  0  0  0  0  0  0  0  0
   59.1106   32.3425   50.4342 H   0  0  0  0  0  0  0  0  0  0  0  0
   62.0745   33.0962   52.3226 H   0  0  0  0  0  0  0  0  0  0  0  0
   63.2326   32.8539   50.9710 H   0  0  0  0  0  0  0  0  0  0  0  0
   62.1374   34.2777   50.9710 H   0  0  0  0  0  0  0  0  0  0  0  0
   61.1607   31.1104   52.1542 H   0  0  0  0  0  0  0  0  0  0  0  0
   60.2398   30.5729   50.7086 H   0  0  0  0  0  0  0  0  0  0  0  0
   62.0346   30.4994   50.7086 H   0  0  0  0  0  0  0  0  0  0  0  0
  1  2  1  0
  2  3  1  0
  3  4  1  0
  4  5  1  0
  5  6  1  0
  6  7  1  0
  7  8  2  0
  8  9  1  0
  9 10  2  0
 10 11  1  0
 11 12  2  0
 12 13  1  0
 13 14  2  0
 14 15  1  0
 14 16  1  0
 16 17  2  0
 17 18  1  0
 18 19  2  0
 19 20  1  0
 20 21  1  0
 21 22  1  0
 22 23  1  0
 23 24  1  0
 24 25  1  0
 24 26  1  0
 20 27  2  0
 27  7  1  0
 13  8  1  0
 27 16  1  0
  1 28  1  0
  1 29  1  0
  1 30  1  0
  2 31  1  0
  2 32  1  0
  3 33  1  0
  3 34  1  0
  4 35  1  0
  4 36  1  0
  5 37  1  0
  5 38  1  0
  6 39  1  0
  9 40  1  0
 10 41  1  0
 11 42  1  0
 12 43  1  0
 15 44  1  0
 15 45  1  0
 15 46  1  0
 17 47  1  0
 18 48  1  0
 19 49  1  0
 22 50  1  0
 22 51  1  0
 23 52  1  0
 23 53  1  0
 25 54  1  0
 25 55  1  0
 25 56  1  0
 26 57  1  0
 26 58  1  0
 26 59  1  0
M  CHG  2   3   1  14   1
M  END
>  <UniqueID>  (2) 
2

>  <SMILES>  (2) 
CC[NH2+]CCNc1c2ccccc2[n+](C)c2cccc(OCCN(C)C)c12

>  <Energy>  (2) 
83.00376172357737

>  <Genealogy>  (2) 
CC[NH2+]CCNc1c2ccccc2[n+](C)c2cccc(OCCN(C)C)c12 (protonated)
CC[NH2+]CCNc1c2ccccc2[n+](C)c2cccc(OCCN(C)C)c12 (3D coordinates assigned)
CC[NH2+]CCNc1c2ccccc2[n+](C)c2cccc(OCCN(C)C)c12 (optimized conformer: 83.00376172357737 kcal/mol)

>  <smiles>  (2) 
CCNCCNc1c2ccccc2[n+](C)c2cccc(OCCN(C)C)c12

>  <score_type>  (2) 
oracle

>  <origin>  (2) 
adg

>  <m_score__min__energy>  (2) 
-3

>  <m_primary>  (2) 
energy

$$$$
2:0
     RDKit          3D

 27 28  0  0  0  0  0  0  0  0999 V2000
   59.5150   34.9430   46.6930 C   0  0  0  0  0  0  0  0  0  0  0  0
   58.4760   33.8850   47.0290 C   0  0  0  0  0  0  0  0  0  0  0  0
   58.4560   32.9120   46.0050 O   0  0  0  0  0  0  0  0  0  0  0  0
   57.8030   33.4130   44.8540 C   0  0  0  0  0  0  0  0  0  0  0  0
   57.7440   32.3490   43.7550 C   0  0  0  0  0  0  0  0  0  0  0  0
   57.2130   31.0940   44.2820 N   0  0  0  0  0  0  0  0  0  0  0  0
   55.9190   30.8400   44.4540 N   0  0  0  0  0  0  0  0  0  0  0  0
   55.7290   29.5910   44.8780 N   0  0  0  0  0  0  0  0  0  0  0  0
   56.9550   29.0440   44.9630 C   0  0  0  0  0  0  0  0  0  0  0  0
   57.3100   27.7530   45.3390 C   0  0  0  0  0  0  0  0  0  0  0  0
   58.6820   27.4270   45.3230 C   0  0  0  0  0  0  0  0  0  0  0  0
   59.6440   28.3910   44.9340 C   0  0  0  0  0  0  0  0  0  0  0  0
   59.2450   29.6890   44.5600 C   0  0  0  0  0  0  0  0  0  0  0  0
   57.8800   29.9700   44.5910 C   0  0  0  0  0  0  0  0  0  0  0  0
   59.9261   35.3617   47.6234 H   0  0  0  0  0  0  0  0  0  0  0  0
   60.3261   34.4871   46.1062 H   0  0  0  0  0  0  0  0  0  0  0  0
   59.0445   35.7457   46.1062 H   0  0  0  0  0  0  0  0  0  0  0  0
   58.7336   33.4071   47.9857 H   0  0  0  0  0  0  0  0  0  0  0  0
   57.4845   34.3540   47.1126 H   0  0  0  0  0  0  0  0  0  0  0  0
   56.7788   33.7117   45.1219 H   0  0  0  0  0  0  0  0  0  0  0  0
   58.3683   34.2780   44.4768 H   0  0  0  0  0  0  0  0  0  0  0  0
   57.0929   32.7042   42.9426 H   0  0  0  0  0  0  0  0  0  0  0  0
   58.7620   32.1725   43.3774 H   0  0  0  0  0  0  0  0  0  0  0  0
   56.5506   27.0152   45.6371 H   0  0  0  0  0  0  0  0  0  0  0  0
   59.0071   26.4174   45.6146 H   0  0  0  0  0  0  0  0  0  0  0  0
   60.7110   28.1239   44.9239 H   0  0  0  0  0  0  0  0  0  0  0  0
   59.9798   30.4491   44.2562 H   0  0  0  0  0  0  0  0  0  0  0  0
  1  2  1  0
  2  3  1  0
  3  4  1  0
  4  5  1  0
  5  6  1  0
  6  7  1  0
  7  8  2  0
  8  9  1  0
  9 10  2  0
 10 11  1  0
 11 12  2  0
 12 13  1  0
 13 14  2  0
 14  6  1  0
 14  9  1  0
  1 15  1  0
  1 16  1  0
  1 17  1  0
  2 18  1  0
  2 19  1  0
  4 20  1  0
  4 21  1  0
  5 22  1  0
  5 23  1  0
 10 24  1  0
 11 25  1  0
 12 26  1  0
 13 27  1  0
M  END
>  <UniqueID>  (3) 
3

>  <SMILES>  (3) 
CCOCCn1nnc2ccccc21

>  <Energy>  (3) 
67.11853990151329

>  <Genealogy>  (3) 
CCOCCn1nnc2ccccc21 (3D coordinates assigned)
CCOCCn1nnc2ccccc21 (optimized conformer: 67.11853990151329 kcal/mol)

>  <smiles>  (3) 
CCOCCn1nnc2ccccc21

>  <score_type>  (3) 
oracle

>  <origin>  (3) 
adg

>  <m_score__min__energy>  (3) 
-5.7800000000000002

>  <m_primary>  (3) 
energy

$$$$
3:0
     RDKit          3D

108114  0  0  0  0  0  0  0  0999 V2000
   57.0010   25.2290   47.2420 C   0  0  0  0  0  0  0  0  0  0  0  0
   56.0000   26.0060   46.4930 N   0  0  0  0  0  0  0  0  0  0  0  0
   55.2320   25.1030   45.6220 C   0  0  0  0  0  0  0  0  0  0  0  0
   56.6420   27.0700   45.6930 C   0  0  0  0  0  0  0  0  0  0  0  0
   58.1180   26.7440   45.4450 C   0  0  0  0  0  0  0  0  0  0  0  0
   58.8490   27.9330   45.0120 N   0  0  0  0  0  0  0  0  0  0  0  0
   58.7530   29.1540   45.7620 C   0  0  0  0  0  0  0  0  0  0  0  0
   58.3410   30.3380   45.1310 C   0  0  0  0  0  0  0  0  0  0  0  0
   58.0210   30.3440   43.7570 C   0  0  0  0  0  0  0  0  0  0  0  0
   57.6750   31.5290   43.1140 C   0  0  0  0  0  0  0  0  0  0  0  0
   57.6590   32.7250   43.8220 C   0  0  0  0  0  0  0  0  0  0  0  0
   57.9560   32.7400   45.1840 C   0  0  0  0  0  0  0  0  0  0  0  0
   58.2660   31.5420   45.8800 C   0  0  0  0  0  0  0  0  0  0  0  0
   58.5100   31.5300   47.2420 N   0  0  0  0  0  0  0  0  0  0  0  0
   58.1650   32.7110   48.0650 C   0  0  0  0  0  0  0  0  0  0  0  0
   59.0430   30.4000   47.8400 C   0  0  0  0  0  0  0  0  0  0  0  0
   59.5300   30.4200   49.1720 C   0  0  0  0  0  0  0  0  0  0  0  0
   60.0230   29.2600   49.7890 C   0  0  0  0  0  0  0  0  0  0  0  0
   60.4640   29.2900   51.1630 N   0  0  0  0  0  0  0  0  0  0  0  0
   61.8970   28.9260   51.2690 C   0  0  0  0  0  0  0  0  0  0  0  0
   62.5700   29.5970   52.4770 C   0  0  0  0  0  0  0  0  0  0  0  0
   61.6590   30.4350   53.1640 O   0  0  0  0  0  0  0  0  0  0  0  0
   60.9300   29.7340   54.1570 C   0  0  0  0  0  0  0  0  0  0  0  0
   59.4460   30.1240   54.1110 C   0  0  0  0  0  0  0  0  0  0  0  0
   58.9410   30.2640   52.7950 O   0  0  0  0  0  0  0  0  0  0  0  0
   57.5820   30.6670   52.7760 C   0  0  0  0  0  0  0  0  0  0  0  0
   57.4000   32.1930   52.7150 C   0  0  0  0  0  0  0  0  0  0  0  0
   58.3580   32.8290   51.8060 N   0  0  0  0  0  0  0  0  0  0  0  0
   59.7440   33.0360   52.1480 C   0  0  0  0  0  0  0  0  0  0  0  0
   60.0940   33.2630   53.4790 C   0  0  0  0  0  0  0  0  0  0  0  0
   61.4260   33.4620   53.8430 C   0  0  0  0  0  0  0  0  0  0  0  0
   62.4620   33.4580   52.8750 C   0  0  0  0  0  0  0  0  0  0  0  0
   62.1130   33.1750   51.5290 C   0  0  0  0  0  0  0  0  0  0  0  0
   60.7580   32.9910   51.1790 C   0  0  0  0  0  0  0  0  0  0  0  0
   63.1260   33.0780   50.5580 C   0  0  0  0  0  0  0  0  0  0  0  0
   62.7910   32.7990   49.1880 N   0  0  0  0  0  0  0  0  0  0  0  0
   62.6200   31.4020   48.7710 C   0  0  0  0  0  0  0  0  0  0  0  0
   62.4830   31.2910   47.2510 C   0  0  0  0  0  0  0  0  0  0  0  0
   61.4220   32.2710   46.7370 C   0  0  0  0  0  0  0  0  0  0  0  0
   61.6390   33.7270   47.2090 C   0  0  0  0  0  0  0  0  0  0  0  0
   62.7940   33.8910   48.2080 C   0  0  0  0  0  0  0  0  0  0  0  0
   64.4710   33.1850   50.9450 C   0  0  0  0  0  0  0  0  0  0  0  0
   65.5060   33.0130   50.0020 C   0  0  0  0  0  0  0  0  0  0  0  0
   66.8390   33.0700   50.3930 C   0  0  0  0  0  0  0  0  0  0  0  0
   67.1650   33.2750   51.7290 C   0  0  0  0  0  0  0  0  0  0  0  0
   66.1570   33.4580   52.6760 C   0  0  0  0  0  0  0  0  0  0  0  0
   64.7890   33.4580   52.3010 C   0  0  0  0  0  0  0  0  0  0  0  0
   63.7800   33.7040   53.2150 N   0  0  0  0  0  0  0  0  0  0  0  0
   64.1070   34.2720   54.5430 C   0  0  0  0  0  0  0  0  0  0  0  0
   60.0240   28.0560   49.0790 C   0  0  0  0  0  0  0  0  0  0  0  0
   59.5860   28.0170   47.7590 C   0  0  0  0  0  0  0  0  0  0  0  0
   59.1260   29.1830   47.1150 C   0  0  0  0  0  0  0  0  0  0  0  0
   56.8335   25.3590   48.3214 H   0  0  0  0  0  0  0  0  0  0  0  0
   56.9081   24.1642   46.9822 H   0  0  0  0  0  0  0  0  0  0  0  0
   58.0095   25.5831   46.9822 H   0  0  0  0  0  0  0  0  0  0  0  0
   54.6427   24.4102   46.2406 H   0  0  0  0  0  0  0  0  0  0  0  0
   54.5553   25.6937   44.9870 H   0  0  0  0  0  0  0  0  0  0  0  0
   55.9236   24.5299   44.9870 H   0  0  0  0  0  0  0  0  0  0  0  0
   56.1241   27.1576   44.7265 H   0  0  0  0  0  0  0  0  0  0  0  0
   56.5772   28.0178   46.2476 H   0  0  0  0  0  0  0  0  0  0  0  0
   58.5647   26.3659   46.3764 H   0  0  0  0  0  0  0  0  0  0  0  0
   58.1817   25.9841   44.6522 H   0  0  0  0  0  0  0  0  0  0  0  0
   59.5880   27.8590   44.2820 H   0  0  0  0  0  0  0  0  0  0  0  0
   58.0452   29.4028   43.1882 H   0  0  0  0  0  0  0  0  0  0  0  0
   57.4142   31.5190   42.0454 H   0  0  0  0  0  0  0  0  0  0  0  0
   57.4109   33.6639   43.3053 H   0  0  0  0  0  0  0  0  0  0  0  0
   57.9501   33.6958   45.7284 H   0  0  0  0  0  0  0  0  0  0  0  0
   58.2412   32.4501   49.1309 H   0  0  0  0  0  0  0  0  0  0  0  0
   58.8608   33.5321   47.8379 H   0  0  0  0  0  0  0  0  0  0  0  0
   57.1366   33.0284   47.8379 H   0  0  0  0  0  0  0  0  0  0  0  0
   59.5210   31.3657   49.7338 H   0  0  0  0  0  0  0  0  0  0  0  0
   59.8950   28.6210   51.7360 H   0  0  0  0  0  0  0  0  0  0  0  0
   60.2680   30.2410   51.5560 H   0  0  0  0  0  0  0  0  0  0  0  0
   61.9798   27.8344   51.3765 H   0  0  0  0  0  0  0  0  0  0  0  0
   62.4058   29.2740   50.3580 H   0  0  0  0  0  0  0  0  0  0  0  0
   62.9324   28.8190   53.1651 H   0  0  0  0  0  0  0  0  0  0  0  0
   63.4075   30.2116   52.1152 H   0  0  0  0  0  0  0  0  0  0  0  0
   61.0256   28.6525   53.9803 H   0  0  0  0  0  0  0  0  0  0  0  0
   61.3355   29.9942   55.1459 H   0  0  0  0  0  0  0  0  0  0  0  0
   58.8648   29.3451   54.6263 H   0  0  0  0  0  0  0  0  0  0  0  0
   59.3530   31.1048   54.6002 H   0  0  0  0  0  0  0  0  0  0  0  0
   57.0984   30.2223   51.8937 H   0  0  0  0  0  0  0  0  0  0  0  0
   57.1271   30.3223   53.7164 H   0  0  0  0  0  0  0  0  0  0  0  0
   56.3804   32.4145   52.3666 H   0  0  0  0  0  0  0  0  0  0  0  0
   57.5744   32.5945   53.7242 H   0  0  0  0  0  0  0  0  0  0  0  0
   58.0230   33.1770   50.8780 H   0  0  0  0  0  0  0  0  0  0  0  0
   59.3105   33.2854   54.2508 H   0  0  0  0  0  0  0  0  0  0  0  0
   61.6773   33.6252   54.9014 H   0  0  0  0  0  0  0  0  0  0  0  0
   60.4920   32.8090   50.1273 H   0  0  0  0  0  0  0  0  0  0  0  0
   63.4957   30.8209   49.0957 H   0  0  0  0  0  0  0  0  0  0  0  0
   61.7017   31.0105   49.2330 H   0  0  0  0  0  0  0  0  0  0  0  0
   63.4501   31.5250   46.7819 H   0  0  0  0  0  0  0  0  0  0  0  0
   62.1764   30.2663   46.9943 H   0  0  0  0  0  0  0  0  0  0  0  0
   61.4397   32.2563   45.6372 H   0  0  0  0  0  0  0  0  0  0  0  0
   60.4555   31.9415   47.1461 H   0  0  0  0  0  0  0  0  0  0  0  0
   61.8527   34.3489   46.3272 H   0  0  0  0  0  0  0  0  0  0  0  0
   60.7201   34.0345   47.7296 H   0  0  0  0  0  0  0  0  0  0  0  0
   63.7484   33.8828   47.6611 H   0  0  0  0  0  0  0  0  0  0  0  0
   62.6678   34.8449   48.7410 H   0  0  0  0  0  0  0  0  0  0  0  0
   65.2558   32.8319   48.9463 H   0  0  0  0  0  0  0  0  0  0  0  0
   67.6366   32.9528   49.6446 H   0  0  0  0  0  0  0  0  0  0  0  0
   68.2200   33.2929   52.0400 H   0  0  0  0  0  0  0  0  0  0  0  0
   66.4278   33.6049   53.7320 H   0  0  0  0  0  0  0  0  0  0  0  0
   63.7240   33.6067   55.3308 H   0  0  0  0  0  0  0  0  0  0  0  0
   65.1983   34.3675   54.6423 H   0  0  0  0  0  0  0  0  0  0  0  0
   63.6416   35.2637   54.6423 H   0  0  0  0  0  0  0  0  0  0  0  0
   60.3731   27.1339   49.5667 H   0  0  0  0  0  0  0  0  0  0  0  0
   59.5989   27.0634   47.2108 H   0  0  0  0  0  0  0  0  0  0  0  0
  1  2  1  0
  2  3  1  0
  2  4  1  0
  4  5  1  0
  5  6  1  0
  6  7  1  0
  7  8  2  0
  8  9  1  0
  9 10  2  0
 10 11  1  0
 11 12  2  0
 12 13  1  0
 13 14  2  0
 14 15  1  0
 14 16  1  0
 16 17  2  0
 17 18  1  0
 18 19  1  0
 19 20  1  0
 20 21  1  0
 21 22  1  0
 22 23  1  0
 23 24  1  0
 24 25  1  0
 25 26  1  0
 26 27  1  0
 27 28  1  0
 28 29  1  0
 29 30  2  0
 30 31  1  0
 31 32  2  0
 32 33  1  0
 33 34  2  0
 33 35  1  0
 35 36  1  0
 36 37  1  0
 37 38  1  0
 38 39  1  0
 39 40  1  0
 40 41  1  0
 35 42  2  0
 42 43  1  0
 43 44  2  0
 44 45  1  0
 45 46  2  0
 46 47  1  0
 47 48  2  0
 48 49  1  0
 18 50  2  0
 50 51  1  0
 51 52  2  0
 52  7  1  0
 13  8  1  0
 52 16  1  0
 34 29  1  0
 41 36  1  0
 47 42  1  0
 48 32  1  0
  1 53  1  0
  1 54  1  0
  1 55  1  0
  3 56  1  0
  3 57  1  0
  3 58  1  0
  4 59  1  0
  4 60  1  0
  5 61  1  0
  5 62  1  0
  6 63  1  0
  9 64  1  0
 10 65  1  0
 11 66  1  0
 12 67  1  0
 15 68  1  0
 15 69  1  0
 15 70  1  0
 17 71  1  0
 19 72  1  0
 19 73  1  0
 20 74  1  0
 20 75  1  0
 21 76  1  0
 21 77  1  0
 23 78  1  0
 23 79  1  0
 24 80  1  0
 24 81  1  0
 26 82  1  0
 26 83  1  0
 27 84  1  0
 27 85  1  0
 28 86  1  0
 30 87  1  0
 31 88  1  0
 34 89  1  0
 37 90  1  0
 37 91  1  0
 38 92  1  0
 38 93  1  0
 39 94  1  0
 39 95  1  0
 40 96  1  0
 40 97  1  0
 41 98  1  0
 41 99  1  0
 43100  1  0
 44101  1  0
 45102  1  0
 46103  1  0
 49104  1  0
 49105  1  0
 49106  1  0
 50107  1  0
 51108  1  0
M  CHG  3  14   1  19   1  48   1
M  END
>  <UniqueID>  (4) 
4

>  <SMILES>  (4) 
CN(C)CCNc1c2ccccc2[n+](C)c2cc([NH2+]CCOCCOCCNc3ccc4c(c3)c(N3CCCCC3)c3ccccc3[n+]4C)ccc12

>  <Energy>  (4) 
176.13709804891812

>  <Genealogy>  (4) 
CN(C)CCNc1c2ccccc2[n+](C)c2cc([NH2+]CCOCCOCCNc3ccc4c(c3)c(N3CCCCC3)c3ccccc3[n+]4C)ccc12 (protonated)
CN(C)CCNc1c2ccccc2[n+](C)c2cc([NH2+]CCOCCOCCNc3ccc4c(c3)c(N3CCCCC3)c3ccccc3[n+]4C)ccc12 (3D coordinates assigned)
CN(C)CCNc1c2ccccc2[n+](C)c2cc([NH2+]CCOCCOCCNc3ccc4c(c3)c(N3CCCCC3)c3ccccc3[n+]4C)ccc12 (nonaromatic ring conformer: 176.13709804891812 kcal/mol)

>  <smiles>  (4) 
CN(C)CCNc1c2ccccc2[n+](C)c2cc(NCCOCCOCCNc3ccc4c(c3)c(N3CCCCC3)c3ccccc3[n+]4C)ccc12

>  <score_type>  (4) 
oracle

>  <origin>  (4) 
adg

>  <m_score__min__energy>  (4) 
-5.54

>  <m_primary>  (4) 
energy

$$$$
4:0
     RDKit          3D

 59 61  0  0  0  0  0  0  0  0999 V2000
   63.3890   33.7640   46.8430 C   0  0  0  0  0  0  0  0  0  0  0  0
   63.1110   32.3720   47.4240 C   0  0  0  0  0  0  0  0  0  0  0  0
   63.2650   32.3090   48.9020 N   0  0  0  0  0  0  0  0  0  0  0  0
   64.6660   32.5360   49.3590 C   0  0  0  0  0  0  0  0  0  0  0  0
   65.0550   31.7950   50.6460 C   0  0  0  0  0  0  0  0  0  0  0  0
   62.2770   33.2230   49.5360 C   0  0  0  0  0  0  0  0  0  0  0  0
   61.3910   32.5320   50.5850 C   0  0  0  0  0  0  0  0  0  0  0  0
   61.0460   31.2440   50.1210 O   0  0  0  0  0  0  0  0  0  0  0  0
   59.7210   30.9180   50.4960 C   0  0  0  0  0  0  0  0  0  0  0  0
   58.8100   30.9420   49.2680 C   0  0  0  0  0  0  0  0  0  0  0  0
   59.6030   30.8880   48.0410 N   0  0  0  0  0  0  0  0  0  0  0  0
   59.0850   31.3880   46.7960 C   0  0  0  0  0  0  0  0  0  0  0  0
   59.3000   32.7290   46.4300 C   0  0  0  0  0  0  0  0  0  0  0  0
   59.9260   33.6290   47.3180 C   0  0  0  0  0  0  0  0  0  0  0  0
   60.0980   34.9670   46.9710 C   0  0  0  0  0  0  0  0  0  0  0  0
   59.6340   35.4340   45.7470 C   0  0  0  0  0  0  0  0  0  0  0  0
   59.0080   34.5640   44.8550 C   0  0  0  0  0  0  0  0  0  0  0  0
   58.8490   33.1880   45.1640 C   0  0  0  0  0  0  0  0  0  0  0  0
   58.2510   32.3100   44.2810 N   0  0  0  0  0  0  0  0  0  0  0  0
   58.0450   32.7050   42.8690 C   0  0  0  0  0  0  0  0  0  0  0  0
   57.8610   31.0550   44.7120 C   0  0  0  0  0  0  0  0  0  0  0  0
   57.0030   30.2340   43.9380 C   0  0  0  0  0  0  0  0  0  0  0  0
   56.6630   28.9490   44.3550 C   0  0  0  0  0  0  0  0  0  0  0  0
   57.1520   28.4350   45.5600 C   0  0  0  0  0  0  0  0  0  0  0  0
   56.8060   27.1010   45.9750 N   0  0  0  0  0  0  0  0  0  0  0  0
   57.6920   26.2900   46.3210 O   0  0  0  0  0  0  0  0  0  0  0  0
   55.4910   26.6920   45.9980 O   0  0  0  0  0  0  0  0  0  0  0  0
   57.9670   29.2490   46.3610 C   0  0  0  0  0  0  0  0  0  0  0  0
   58.3060   30.5620   45.9660 C   0  0  0  0  0  0  0  0  0  0  0  0
   63.5324   34.4820   47.6639 H   0  0  0  0  0  0  0  0  0  0  0  0
   64.2977   33.7283   46.2242 H   0  0  0  0  0  0  0  0  0  0  0  0
   62.5362   34.0800   46.2242 H   0  0  0  0  0  0  0  0  0  0  0  0
   62.0800   32.0866   47.1681 H   0  0  0  0  0  0  0  0  0  0  0  0
   63.8518   31.6843   46.9900 H   0  0  0  0  0  0  0  0  0  0  0  0
   63.0050   31.3360   49.1920 H   0  0  0  0  0  0  0  0  0  0  0  0
   65.3441   32.2076   48.5576 H   0  0  0  0  0  0  0  0  0  0  0  0
   64.7462   33.6095   49.5853 H   0  0  0  0  0  0  0  0  0  0  0  0
   64.7438   32.3878   51.5188 H   0  0  0  0  0  0  0  0  0  0  0  0
   64.5547   30.8156   50.6707 H   0  0  0  0  0  0  0  0  0  0  0  0
   66.1452   31.6506   50.6707 H   0  0  0  0  0  0  0  0  0  0  0  0
   62.8241   34.0416   50.0265 H   0  0  0  0  0  0  0  0  0  0  0  0
   61.6124   33.5862   48.7383 H   0  0  0  0  0  0  0  0  0  0  0  0
   61.9413   32.4468   51.5336 H   0  0  0  0  0  0  0  0  0  0  0  0
   60.4785   33.1243   50.7480 H   0  0  0  0  0  0  0  0  0  0  0  0
   59.7053   29.9125   50.9418 H   0  0  0  0  0  0  0  0  0  0  0  0
   59.3606   31.6558   51.2280 H   0  0  0  0  0  0  0  0  0  0  0  0
   58.1348   30.0742   49.3011 H   0  0  0  0  0  0  0  0  0  0  0  0
   58.2283   31.8756   49.2748 H   0  0  0  0  0  0  0  0  0  0  0  0
   60.6290   30.6960   48.1210 H   0  0  0  0  0  0  0  0  0  0  0  0
   60.2821   33.2702   48.2950 H   0  0  0  0  0  0  0  0  0  0  0  0
   60.6015   35.6547   47.6664 H   0  0  0  0  0  0  0  0  0  0  0  0
   59.7610   36.4937   45.4809 H   0  0  0  0  0  0  0  0  0  0  0  0
   58.6314   34.9504   43.8964 H   0  0  0  0  0  0  0  0  0  0  0  0
   57.5366   33.6798   42.8314 H   0  0  0  0  0  0  0  0  0  0  0  0
   59.0190   32.7797   42.3633 H   0  0  0  0  0  0  0  0  0  0  0  0
   57.4263   31.9490   42.3633 H   0  0  0  0  0  0  0  0  0  0  0  0
   56.5981   30.6187   42.9904 H   0  0  0  0  0  0  0  0  0  0  0  0
   56.0021   28.3314   43.7290 H   0  0  0  0  0  0  0  0  0  0  0  0
   58.3493   28.8571   47.3150 H   0  0  0  0  0  0  0  0  0  0  0  0
  1  2  1  0
  2  3  1  0
  3  4  1  0
  4  5  1  0
  3  6  1  0
  6  7  1  0
  7  8  1  0
  8  9  1  0
  9 10  1  0
 10 11  1  0
 11 12  1  0
 12 13  2  0
 13 14  1  0
 14 15  2  0
 15 16  1  0
 16 17  2  0
 17 18  1  0
 18 19  2  0
 19 20  1  0
 19 21  1  0
 21 22  2  0
 22 23  1  0
 23 24  2  0
 24 25  1  0
 25 26  2  0
 25 27  1  0
 24 28  1  0
 28 29  2  0
 29 12  1  0
 18 13  1  0
 29 21  1  0
  1 30  1  0
  1 31  1  0
  1 32  1  0
  2 33  1  0
  2 34  1  0
  3 35  1  0
  4 36  1  0
  4 37  1  0
  5 38  1  0
  5 39  1  0
  5 40  1  0
  6 41  1  0
  6 42  1  0
  7 43  1  0
  7 44  1  0
  9 45  1  0
  9 46  1  0
 10 47  1  0
 10 48  1  0
 11 49  1  0
 14 50  1  0
 15 51  1  0
 16 52  1  0
 17 53  1  0
 20 54  1  0
 20 55  1  0
 20 56  1  0
 22 57  1  0
 23 58  1  0
 28 59  1  0
M  CHG  4   3   1  19   1  25   1  27  -1
M  END
>  <UniqueID>  (5) 
5

>  <SMILES>  (5) 
CC[NH+](CC)CCOCCNc1c2ccccc2[n+](C)c2ccc([N+](=O)[O-])cc12

>  <Energy>  (5) 
90.12882938290339

>  <Genealogy>  (5) 
CC[NH+](CC)CCOCCNc1c2ccccc2[n+](C)c2ccc([N+](=O)[O-])cc12 (protonated)
CC[NH+](CC)CCOCCNc1c2ccccc2[n+](C)c2ccc([N+](=O)[O-])cc12 (3D coordinates assigned)
CC[NH+](CC)CCOCCNc1c2ccccc2[n+](C)c2ccc([N+](=O)[O-])cc12 (optimized conformer: 90.12882938290339 kcal/mol)

>  <smiles>  (5) 
CCN(CC)CCOCCNc1c2ccccc2[n+](C)c2ccc([N+](=O)[O-])cc12

>  <score_type>  (5) 
oracle

>  <origin>  (5) 
adg

>  <m_score__min__energy>  (5) 
-5.0599999999999996

>  <m_primary>  (5) 
energy

$$$$
5:0
     RDKit          3D

 60 62  0  0  0  0  0  0  0  0999 V2000
   65.5260   32.0330   50.3190 C   0  0  0  0  0  0  0  0  0  0  0  0
   65.2560   32.9470   49.2590 O   0  0  0  0  0  0  0  0  0  0  0  0
   63.9950   33.1320   48.6730 C   0  0  0  0  0  0  0  0  0  0  0  0
   63.8140   33.2200   47.2790 C   0  0  0  0  0  0  0  0  0  0  0  0
   62.5340   33.4040   46.7420 C   0  0  0  0  0  0  0  0  0  0  0  0
   61.4140   33.4970   47.5920 C   0  0  0  0  0  0  0  0  0  0  0  0
   60.1070   33.6810   47.1130 O   0  0  0  0  0  0  0  0  0  0  0  0
   59.6480   34.7950   46.3440 C   0  0  0  0  0  0  0  0  0  0  0  0
   58.2050   34.5900   45.8730 C   0  0  0  0  0  0  0  0  0  0  0  0
   58.1280   33.8560   44.1990 S   0  0  0  0  0  0  0  0  0  0  0  0
   57.8500   32.1760   44.7740 C   0  0  0  0  0  0  0  0  0  0  0  0
   58.0720   31.7760   46.0370 N   0  0  0  0  0  0  0  0  0  0  0  0
   57.7800   30.4880   46.1170 N   0  0  0  0  0  0  0  0  0  0  0  0
   57.3770   30.1140   44.8840 C   0  0  0  0  0  0  0  0  0  0  0  0
   56.9560   28.7060   44.5420 C   0  0  0  0  0  0  0  0  0  0  0  0
   57.0000   27.8200   45.7190 N   0  0  0  0  0  0  0  0  0  0  0  0
   57.7530   26.5820   45.4690 C   0  0  0  0  0  0  0  0  0  0  0  0
   59.2630   26.8360   45.5230 C   0  0  0  0  0  0  0  0  0  0  0  0
   59.5490   28.0090   46.3810 N   0  0  0  0  0  0  0  0  0  0  0  0
   60.4460   28.9720   45.7010 C   0  0  0  0  0  0  0  0  0  0  0  0
   60.9590   30.0770   46.6540 C   0  0  0  0  0  0  0  0  0  0  0  0
   60.1190   30.1580   47.9310 C   0  0  0  0  0  0  0  0  0  0  0  0
   60.0850   28.8030   48.6610 C   0  0  0  0  0  0  0  0  0  0  0  0
   60.1110   27.6110   47.6870 C   0  0  0  0  0  0  0  0  0  0  0  0
   57.4160   31.1500   44.0150 N   0  0  0  0  0  0  0  0  0  0  0  0
   57.0790   31.1500   42.5940 C   0  0  0  0  0  0  0  0  0  0  0  0
   61.6030   33.4140   48.9750 C   0  0  0  0  0  0  0  0  0  0  0  0
   62.8810   33.2320   49.5120 C   0  0  0  0  0  0  0  0  0  0  0  0
   65.3770   32.5375   51.2851 H   0  0  0  0  0  0  0  0  0  0  0  0
   64.8434   31.1736   50.2450 H   0  0  0  0  0  0  0  0  0  0  0  0
   66.5660   31.6825   50.2450 H   0  0  0  0  0  0  0  0  0  0  0  0
   64.6828   33.1438   46.6086 H   0  0  0  0  0  0  0  0  0  0  0  0
   62.4022   33.4762   45.6523 H   0  0  0  0  0  0  0  0  0  0  0  0
   59.6971   35.7026   46.9636 H   0  0  0  0  0  0  0  0  0  0  0  0
   60.2917   34.8934   45.4575 H   0  0  0  0  0  0  0  0  0  0  0  0
   57.6930   33.9193   46.5787 H   0  0  0  0  0  0  0  0  0  0  0  0
   57.7170   35.5751   45.8348 H   0  0  0  0  0  0  0  0  0  0  0  0
   58.4190   32.3590   46.8300 H   0  0  0  0  0  0  0  0  0  0  0  0
   55.9283   28.7269   44.1504 H   0  0  0  0  0  0  0  0  0  0  0  0
   57.6573   28.3124   43.7915 H   0  0  0  0  0  0  0  0  0  0  0  0
   57.4260   28.3270   46.5300 H   0  0  0  0  0  0  0  0  0  0  0  0
   57.4860   25.8381   46.2341 H   0  0  0  0  0  0  0  0  0  0  0  0
   57.4959   26.2127   44.4653 H   0  0  0  0  0  0  0  0  0  0  0  0
   59.7668   25.9502   45.9372 H   0  0  0  0  0  0  0  0  0  0  0  0
   59.6325   27.0339   44.5060 H   0  0  0  0  0  0  0  0  0  0  0  0
   61.3106   28.4246   45.2975 H   0  0  0  0  0  0  0  0  0  0  0  0
   59.8686   29.4606   44.9023 H   0  0  0  0  0  0  0  0  0  0  0  0
   62.0017   29.8569   46.9266 H   0  0  0  0  0  0  0  0  0  0  0  0
   60.8834   31.0423   46.1320 H   0  0  0  0  0  0  0  0  0  0  0  0
   60.5545   30.9151   48.5997 H   0  0  0  0  0  0  0  0  0  0  0  0
   59.0899   30.4310   47.6546 H   0  0  0  0  0  0  0  0  0  0  0  0
   60.9603   28.7368   49.3239 H   0  0  0  0  0  0  0  0  0  0  0  0
   59.1445   28.7515   49.2291 H   0  0  0  0  0  0  0  0  0  0  0  0
   61.1499   27.2767   47.5491 H   0  0  0  0  0  0  0  0  0  0  0  0
   59.5061   26.7925   48.1043 H   0  0  0  0  0  0  0  0  0  0  0  0
   56.9944   30.1129   42.2372 H   0  0  0  0  0  0  0  0  0  0  0  0
   56.1205   31.6685   42.4445 H   0  0  0  0  0  0  0  0  0  0  0  0
   57.8683   31.6685   42.0300 H   0  0  0  0  0  0  0  0  0  0  0  0
   60.7365   33.4928   49.6480 H   0  0  0  0  0  0  0  0  0  0  0  0
   63.0110   33.1670   50.6024 H   0  0  0  0  0  0  0  0  0  0  0  0
  1  2  1  0
  2  3  1  0
  3  4  2  0
  4  5  1  0
  5  6  2  0
  6  7  1  0
  7  8  1  0
  8  9  1  0
  9 10  1  0
 10 11  1  0
 11 12  2  0
 12 13  1  0
 13 14  2  0
 14 15  1  0
 15 16  1  0
 16 17  1  0
 17 18  1  0
 18 19  1  0
 19 20  1  0
 20 21  1  0
 21 22  1  0
 22 23  1  0
 23 24  1  0
 14 25  1  0
 25 26  1  0
  6 27  1  0
 27 28  2  0
 28  3  1  0
 25 11  1  0
 24 19  1  0
  1 29  1  0
  1 30  1  0
  1 31  1  0
  4 32  1  0
  5 33  1  0
  8 34  1  0
  8 35  1  0
  9 36  1  0
  9 37  1  0
 12 38  1  0
 15 39  1  0
 15 40  1  0
 16 41  1  0
 17 42  1  0
 17 43  1  0
 18 44  1  0
 18 45  1  0
 20 46  1  0
 20 47  1  0
 21 48  1  0
 21 49  1  0
 22 50  1  0
 22 51  1  0
 23 52  1  0
 23 53  1  0
 24 54  1  0
 24 55  1  0
 26 56  1  0
 26 57  1  0
 26 58  1  0
 27 59  1  0
 28 60  1  0
M  CHG  1  12   1
M  END
>  <UniqueID>  (6) 
6

>  <SMILES>  (6) 
COc1ccc(OCCSc2[nH+]nc(CNCCN3CCCCC3)n2C)cc1

>  <Energy>  (6) 
96.21091011985614

>  <Genealogy>  (6) 
COc1ccc(OCCSc2[nH+]nc(CNCCN3CCCCC3)n2C)cc1 (protonated)
COc1ccc(OCCSc2[nH+]nc(CNCCN3CCCCC3)n2C)cc1 (3D coordinates assigned)
COc1ccc(OCCSc2[nH+]nc(CNCCN3CCCCC3)n2C)cc1 (nonaromatic ring conformer: 96.21091011985614 kcal/mol)

>  <smiles>  (6) 
COc1ccc(OCCSc2nnc(CNCCN3CCCCC3)n2C)cc1

>  <score_type>  (6) 
oracle

>  <origin>  (6) 
adg

>  <m_score__min__energy>  (6) 
-5.6299999999999999

>  <m_primary>  (6) 
energy

$$$$
6:0
     RDKit          3D

 35 37  0  0  0  0  0  0  0  0999 V2000
   59.2810   35.3950   44.8860 C   0  0  0  0  0  0  0  0  0  0  0  0
   58.8340   34.1670   45.5360 N   0  0  0  0  0  0  0  0  0  0  0  0
   58.8250   33.9180   46.8670 C   0  0  0  0  0  0  0  0  0  0  0  0
   58.3130   32.6490   47.1220 C   0  0  0  0  0  0  0  0  0  0  0  0
   58.0040   32.1260   45.8850 C   0  0  0  0  0  0  0  0  0  0  0  0
   57.4550   30.8940   45.5370 C   0  0  0  0  0  0  0  0  0  0  0  0
   57.2430   30.6260   44.1670 C   0  0  0  0  0  0  0  0  0  0  0  0
   56.6130   29.3250   43.7450 C   0  0  0  0  0  0  0  0  0  0  0  0
   57.6480   28.3200   43.4620 N   0  0  0  0  0  0  0  0  0  0  0  0
   58.5770   28.2380   44.5650 C   0  0  0  0  0  0  0  0  0  0  0  0
   59.7990   28.9340   44.4980 C   0  0  0  0  0  0  0  0  0  0  0  0
   60.7030   28.8890   45.5630 C   0  0  0  0  0  0  0  0  0  0  0  0
   60.3940   28.1590   46.7110 C   0  0  0  0  0  0  0  0  0  0  0  0
   59.1810   27.4740   46.8000 C   0  0  0  0  0  0  0  0  0  0  0  0
   58.2660   27.5120   45.7390 C   0  0  0  0  0  0  0  0  0  0  0  0
   56.6100   26.5660   45.9480 Br  0  0  0  0  0  0  0  0  0  0  0  0
   57.5660   31.6080   43.1960 C   0  0  0  0  0  0  0  0  0  0  0  0
   58.1200   32.8420   43.5820 C   0  0  0  0  0  0  0  0  0  0  0  0
   58.3280   33.0680   44.9430 C   0  0  0  0  0  0  0  0  0  0  0  0
   59.5513   36.1375   45.6513 H   0  0  0  0  0  0  0  0  0  0  0  0
   60.1583   35.1793   44.2584 H   0  0  0  0  0  0  0  0  0  0  0  0
   58.4703   35.7937   44.2584 H   0  0  0  0  0  0  0  0  0  0  0  0
   59.1735   34.6202   47.6386 H   0  0  0  0  0  0  0  0  0  0  0  0
   58.1828   32.1665   48.1019 H   0  0  0  0  0  0  0  0  0  0  0  0
   57.1945   30.1522   46.3063 H   0  0  0  0  0  0  0  0  0  0  0  0
   55.9636   28.9582   44.5535 H   0  0  0  0  0  0  0  0  0  0  0  0
   56.0229   29.4949   42.8324 H   0  0  0  0  0  0  0  0  0  0  0  0
   57.2110   27.3880   43.2860 H   0  0  0  0  0  0  0  0  0  0  0  0
   58.1610   28.5900   42.5890 H   0  0  0  0  0  0  0  0  0  0  0  0
   60.0446   29.5186   43.5992 H   0  0  0  0  0  0  0  0  0  0  0  0
   61.6587   29.4295   45.4960 H   0  0  0  0  0  0  0  0  0  0  0  0
   61.1075   28.1231   47.5475 H   0  0  0  0  0  0  0  0  0  0  0  0
   58.9419   26.9011   47.7081 H   0  0  0  0  0  0  0  0  0  0  0  0
   57.3816   31.4027   42.1312 H   0  0  0  0  0  0  0  0  0  0  0  0
   58.3811   33.6051   42.8340 H   0  0  0  0  0  0  0  0  0  0  0  0
  1  2  1  0
  2  3  1  0
  3  4  2  0
  4  5  1  0
  5  6  2  0
  6  7  1  0
  7  8  1  0
  8  9  1  0
  9 10  1  0
 10 11  2  0
 11 12  1  0
 12 13  2  0
 13 14  1  0
 14 15  2  0
 15 16  1  0
  7 17  2  0
 17 18  1  0
 18 19  2  0
 19  2  1  0
 19  5  1  0
 15 10  1  0
  1 20  1  0
  1 21  1  0
  1 22  1  0
  3 23  1  0
  4 24  1  0
  6 25  1  0
  8 26  1  0
  8 27  1  0
  9 28  1  0
  9 29  1  0
 11 30  1  0
 12 31  1  0
 13 32  1  0
 14 33  1  0
 17 34  1  0
 18 35  1  0
M  CHG  1   9   1
M  END
>  <UniqueID>  (7) 
7

>  <SMILES>  (7) 
Cn1ccc2cc(C[NH2+]c3ccccc3Br)ccc21

>  <Energy>  (7) 
70.97924156937103

>  <Genealogy>  (7) 
Cn1ccc2cc(C[NH2+]c3ccccc3Br)ccc21 (protonated)
Cn1ccc2cc(C[NH2+]c3ccccc3Br)ccc21 (3D coordinates assigned)
Cn1ccc2cc(C[NH2+]c3ccccc3Br)ccc21 (optimized conformer: 70.97924156937103 kcal/mol)

>  <smiles>  (7) 
Cn1ccc2cc(CNc3ccccc3Br)ccc21

>  <score_type>  (7) 
oracle

>  <origin>  (7) 
adg

>  <m_score__min__energy>  (7) 
-5.9900000000000002

>  <m_primary>  (7) 
energy

$$$$
7:0
     RDKit          3D

 56 58  0  0  0  0  0  0  0  0999 V2000
   61.9380   33.8030   46.5670 C   0  0  0  0  0  0  0  0  0  0  0  0
   63.4420   33.5540   46.7350 C   0  0  0  0  0  0  0  0  0  0  0  0
   63.7560   32.5840   47.8170 N   0  0  0  0  0  0  0  0  0  0  0  0
   64.1030   33.2340   49.1120 C   0  0  0  0  0  0  0  0  0  0  0  0
   63.0450   34.2160   49.6370 C   0  0  0  0  0  0  0  0  0  0  0  0
   62.6480   31.6050   47.9950 C   0  0  0  0  0  0  0  0  0  0  0  0
   62.4580   31.1870   49.4710 C   0  0  0  0  0  0  0  0  0  0  0  0
   61.2340   30.2790   49.6730 C   0  0  0  0  0  0  0  0  0  0  0  0
   60.6070   29.8270   48.3480 C   0  0  0  0  0  0  0  0  0  0  0  0
   59.3220   30.4920   48.1270 N   0  0  0  0  0  0  0  0  0  0  0  0
   58.6700   30.4800   46.8430 C   0  0  0  0  0  0  0  0  0  0  0  0
   58.4650   31.6850   46.1490 C   0  0  0  0  0  0  0  0  0  0  0  0
   58.8360   32.9190   46.7250 C   0  0  0  0  0  0  0  0  0  0  0  0
   58.7080   34.1050   46.0060 C   0  0  0  0  0  0  0  0  0  0  0  0
   58.2220   34.0820   44.7060 C   0  0  0  0  0  0  0  0  0  0  0  0
   57.8280   32.8770   44.1250 C   0  0  0  0  0  0  0  0  0  0  0  0
   57.9000   31.6560   44.8460 C   0  0  0  0  0  0  0  0  0  0  0  0
   57.4590   30.4630   44.3050 N   0  0  0  0  0  0  0  0  0  0  0  0
   56.6290   30.4700   43.0780 C   0  0  0  0  0  0  0  0  0  0  0  0
   57.7510   29.2660   44.9320 C   0  0  0  0  0  0  0  0  0  0  0  0
   57.5250   28.0150   44.3010 C   0  0  0  0  0  0  0  0  0  0  0  0
   57.7380   26.8150   44.9810 C   0  0  0  0  0  0  0  0  0  0  0  0
   57.4060   25.1490   44.1050 Br  0  0  0  0  0  0  0  0  0  0  0  0
   58.1850   26.8280   46.2970 C   0  0  0  0  0  0  0  0  0  0  0  0
   58.4680   28.0390   46.9250 C   0  0  0  0  0  0  0  0  0  0  0  0
   58.3050   29.2620   46.2410 C   0  0  0  0  0  0  0  0  0  0  0  0
   61.4664   33.8811   47.5577 H   0  0  0  0  0  0  0  0  0  0  0  0
   61.7812   34.7393   46.0114 H   0  0  0  0  0  0  0  0  0  0  0  0
   61.4878   32.9672   46.0114 H   0  0  0  0  0  0  0  0  0  0  0  0
   63.8398   33.1620   45.7873 H   0  0  0  0  0  0  0  0  0  0  0  0
   63.9042   34.5134   47.0107 H   0  0  0  0  0  0  0  0  0  0  0  0
   64.6110   32.0530   47.5270 H   0  0  0  0  0  0  0  0  0  0  0  0
   64.2430   32.4450   49.8655 H   0  0  0  0  0  0  0  0  0  0  0  0
   65.0139   33.8236   48.9312 H   0  0  0  0  0  0  0  0  0  0  0  0
   63.0523   34.2093   50.7370 H   0  0  0  0  0  0  0  0  0  0  0  0
   63.2735   35.2293   49.2750 H   0  0  0  0  0  0  0  0  0  0  0  0
   62.0515   33.9127   49.2750 H   0  0  0  0  0  0  0  0  0  0  0  0
   61.7138   32.0603   47.6344 H   0  0  0  0  0  0  0  0  0  0  0  0
   62.9054   30.7016   47.4225 H   0  0  0  0  0  0  0  0  0  0  0  0
   63.3567   30.6466   49.8031 H   0  0  0  0  0  0  0  0  0  0  0  0
   62.2959   32.1022   50.0593 H   0  0  0  0  0  0  0  0  0  0  0  0
   61.5464   29.3875   50.2367 H   0  0  0  0  0  0  0  0  0  0  0  0
   60.4757   30.8601   50.2182 H   0  0  0  0  0  0  0  0  0  0  0  0
   61.2893   30.0774   47.5223 H   0  0  0  0  0  0  0  0  0  0  0  0
   60.4390   28.7407   48.3901 H   0  0  0  0  0  0  0  0  0  0  0  0
   58.9050   31.0610   48.8970 H   0  0  0  0  0  0  0  0  0  0  0  0
   59.2300   32.9443   47.7517 H   0  0  0  0  0  0  0  0  0  0  0  0
   58.9925   35.0614   46.4691 H   0  0  0  0  0  0  0  0  0  0  0  0
   58.1474   35.0175   44.1321 H   0  0  0  0  0  0  0  0  0  0  0  0
   57.4550   32.8724   43.0902 H   0  0  0  0  0  0  0  0  0  0  0  0
   55.5646   30.4790   43.3554 H   0  0  0  0  0  0  0  0  0  0  0  0
   56.8606   31.3662   42.4837 H   0  0  0  0  0  0  0  0  0  0  0  0
   56.8455   29.5700   42.4837 H   0  0  0  0  0  0  0  0  0  0  0  0
   57.1760   27.9908   43.2581 H   0  0  0  0  0  0  0  0  0  0  0  0
   58.3154   25.8819   46.8428 H   0  0  0  0  0  0  0  0  0  0  0  0
   58.8226   28.0416   47.9663 H   0  0  0  0  0  0  0  0  0  0  0  0
  1  2  1  0
  2  3  1  0
  3  4  1  0
  4  5  1  0
  3  6  1  0
  6  7  1  0
  7  8  1  0
  8  9  1  0
  9 10  1  0
 10 11  1  0
 11 12  2  0
 12 13  1  0
 13 14  2  0
 14 15  1  0
 15 16  2  0
 16 17  1  0
 17 18  2  0
 18 19  1  0
 18 20  1  0
 20 21  2  0
 21 22  1  0
 22 23  1  0
 22 24  2  0
 24 25  1  0
 25 26  2  0
 26 11  1  0
 17 12  1  0
 26 20  1  0
  1 27  1  0
  1 28  1  0
  1 29  1  0
  2 30  1  0
  2 31  1  0
  3 32  1  0
  4 33  1  0
  4 34  1  0
  5 35  1  0
  5 36  1  0
  5 37  1  0
  6 38  1  0
  6 39  1  0
  7 40  1  0
  7 41  1  0
  8 42  1  0
  8 43  1  0
  9 44  1  0
  9 45  1  0
 10 46  1  0
 13 47  1  0
 14 48  1  0
 15 49  1  0
 16 50  1  0
 19 51  1  0
 19 52  1  0
 19 53  1  0
 21 54  1  0
 24 55  1  0
 25 56  1  0
M  CHG  2   3   1  18   1
M  END
>  <UniqueID>  (8) 
8

>  <SMILES>  (8) 
CC[NH+](CC)CCCCNc1c2ccccc2[n+](C)c2cc(Br)ccc12

>  <Energy>  (8) 
81.82270628465349

>  <Genealogy>  (8) 
CC[NH+](CC)CCCCNc1c2ccccc2[n+](C)c2cc(Br)ccc12 (protonated)
CC[NH+](CC)CCCCNc1c2ccccc2[n+](C)c2cc(Br)ccc12 (3D coordinates assigned)
CC[NH+](CC)CCCCNc1c2ccccc2[n+](C)c2cc(Br)ccc12 (optimized conformer: 81.82270628465349 kcal/mol)

>  <smiles>  (8) 
CCN(CC)CCCCNc1c2ccccc2[n+](C)c2cc(Br)ccc12

>  <score_type>  (8) 
oracle

>  <origin>  (8) 
adg

>  <m_score__min__energy>  (8) 
-4.9900000000000002

>  <m_primary>  (8) 
energy

$$$$
8:0
     RDKit          3D

 57 59  0  0  0  0  0  0  0  0999 V2000
   58.8870   28.9530   48.0950 C   0  0  0  0  0  0  0  0  0  0  0  0
   58.2090   29.1860   46.7440 C   0  0  0  0  0  0  0  0  0  0  0  0
   58.9730   30.1490   45.9220 N   0  0  0  0  0  0  0  0  0  0  0  0
   60.3930   29.7650   45.8790 C   0  0  0  0  0  0  0  0  0  0  0  0
   58.4180   30.2850   44.5520 C   0  0  0  0  0  0  0  0  0  0  0  0
   57.7980   31.6770   44.3920 C   0  0  0  0  0  0  0  0  0  0  0  0
   56.9960   31.9960   45.5150 O   0  0  0  0  0  0  0  0  0  0  0  0
   57.0660   33.3820   45.7820 C   0  0  0  0  0  0  0  0  0  0  0  0
   58.2310   33.6660   46.7350 C   0  0  0  0  0  0  0  0  0  0  0  0
   58.9170   32.4300   47.1580 N   0  0  0  0  0  0  0  0  0  0  0  0
   59.8290   32.6690   48.2730 C   0  0  0  0  0  0  0  0  0  0  0  0
   61.1560   33.1210   48.0240 C   0  0  0  0  0  0  0  0  0  0  0  0
   61.6330   33.3530   46.7070 C   0  0  0  0  0  0  0  0  0  0  0  0
   62.9570   33.7140   46.4720 C   0  0  0  0  0  0  0  0  0  0  0  0
   63.8410   33.8470   47.5310 C   0  0  0  0  0  0  0  0  0  0  0  0
   63.3950   33.6670   48.8360 C   0  0  0  0  0  0  0  0  0  0  0  0
   62.0380   33.3530   49.1160 C   0  0  0  0  0  0  0  0  0  0  0  0
   61.5800   33.2670   50.4120 N   0  0  0  0  0  0  0  0  0  0  0  0
   62.3850   33.8380   51.5180 C   0  0  0  0  0  0  0  0  0  0  0  0
   60.3530   32.6970   50.6800 C   0  0  0  0  0  0  0  0  0  0  0  0
   59.9780   32.3620   52.0060 C   0  0  0  0  0  0  0  0  0  0  0  0
   58.7110   31.8770   52.3020 C   0  0  0  0  0  0  0  0  0  0  0  0
   57.7820   31.6790   51.2860 C   0  0  0  0  0  0  0  0  0  0  0  0
   56.3860   31.2310   51.6150 C   0  0  0  0  0  0  0  0  0  0  0  0
   58.1380   31.9550   49.9630 C   0  0  0  0  0  0  0  0  0  0  0  0
   59.4320   32.4320   49.6240 C   0  0  0  0  0  0  0  0  0  0  0  0
   58.1832   29.1949   48.9050 H   0  0  0  0  0  0  0  0  0  0  0  0
   59.1908   27.8989   48.1758 H   0  0  0  0  0  0  0  0  0  0  0  0
   59.7746   29.5977   48.1758 H   0  0  0  0  0  0  0  0  0  0  0  0
   58.1421   28.2288   46.2061 H   0  0  0  0  0  0  0  0  0  0  0  0
   57.2060   29.6002   46.9241 H   0  0  0  0  0  0  0  0  0  0  0  0
   60.7761   29.6614   46.9049 H   0  0  0  0  0  0  0  0  0  0  0  0
   60.4977   28.8063   45.3500 H   0  0  0  0  0  0  0  0  0  0  0  0
   60.9666   30.5403   45.3500 H   0  0  0  0  0  0  0  0  0  0  0  0
   59.2238   30.1548   43.8146 H   0  0  0  0  0  0  0  0  0  0  0  0
   57.6469   29.5175   44.3892 H   0  0  0  0  0  0  0  0  0  0  0  0
   58.6015   32.4223   44.2978 H   0  0  0  0  0  0  0  0  0  0  0  0
   57.1667   31.6833   43.4912 H   0  0  0  0  0  0  0  0  0  0  0  0
   57.2225   33.9283   44.8402 H   0  0  0  0  0  0  0  0  0  0  0  0
   56.1256   33.7111   46.2481 H   0  0  0  0  0  0  0  0  0  0  0  0
   58.9560   34.3170   46.2245 H   0  0  0  0  0  0  0  0  0  0  0  0
   57.8224   34.1509   47.6339 H   0  0  0  0  0  0  0  0  0  0  0  0
   59.4420   32.0320   46.3480 H   0  0  0  0  0  0  0  0  0  0  0  0
   58.2250   31.6760   47.3430 H   0  0  0  0  0  0  0  0  0  0  0  0
   60.9437   33.2455   45.8565 H   0  0  0  0  0  0  0  0  0  0  0  0
   63.3022   33.8941   45.4432 H   0  0  0  0  0  0  0  0  0  0  0  0
   64.8954   34.0949   47.3394 H   0  0  0  0  0  0  0  0  0  0  0  0
   64.1072   33.7698   49.6680 H   0  0  0  0  0  0  0  0  0  0  0  0
   61.9530   33.5316   52.4821 H   0  0  0  0  0  0  0  0  0  0  0  0
   63.4193   33.4705   51.4463 H   0  0  0  0  0  0  0  0  0  0  0  0
   62.3801   34.9357   51.4463 H   0  0  0  0  0  0  0  0  0  0  0  0
   60.7079   32.4893   52.8191 H   0  0  0  0  0  0  0  0  0  0  0  0
   58.4411   31.6486   53.3436 H   0  0  0  0  0  0  0  0  0  0  0  0
   56.2616   31.1911   52.7072 H   0  0  0  0  0  0  0  0  0  0  0  0
   55.6628   31.9422   51.1893 H   0  0  0  0  0  0  0  0  0  0  0  0
   56.2117   30.2318   51.1893 H   0  0  0  0  0  0  0  0  0  0  0  0
   57.3976   31.7989   49.1646 H   0  0  0  0  0  0  0  0  0  0  0  0
  1  2  1  0
  2  3  1  0
  3  4  1  0
  3  5  1  0
  5  6  1  0
  6  7  1  0
  7  8  1  0
  8  9  1  0
  9 10  1  0
 10 11  1  0
 11 12  2  0
 12 13  1  0
 13 14  2  0
 14 15  1  0
 15 16  2  0
 16 17  1  0
 17 18  2  0
 18 19  1  0
 18 20  1  0
 20 21  2  0
 21 22  1  0
 22 23  2  0
 23 24  1  0
 23 25  1  0
 25 26  2  0
 26 11  1  0
 17 12  1  0
 26 20  1  0
  1 27  1  0
  1 28  1  0
  1 29  1  0
  2 30  1  0
  2 31  1  0
  4 32  1  0
  4 33  1  0
  4 34  1  0
  5 35  1  0
  5 36  1  0
  6 37  1  0
  6 38  1  0
  8 39  1  0
  8 40  1  0
  9 41  1  0
  9 42  1  0
 10 43  1  0
 10 44  1  0
 13 45  1  0
 14 46  1  0
 15 47  1  0
 16 48  1  0
 19 49  1  0
 19 50  1  0
 19 51  1  0
 21 52  1  0
 22 53  1  0
 24 54  1  0
 24 55  1  0
 24 56  1  0
 25 57  1  0
M  CHG  2  10   1  18   1
M  END
>  <UniqueID>  (9) 
9

>  <SMILES>  (9) 
CCN(C)CCOCC[NH2+]c1c2ccccc2[n+](C)c2ccc(C)cc12

>  <Energy>  (9) 
85.46306306002296

>  <Genealogy>  (9) 
CCN(C)CCOCC[NH2+]c1c2ccccc2[n+](C)c2ccc(C)cc12 (protonated)
CCN(C)CCOCC[NH2+]c1c2ccccc2[n+](C)c2ccc(C)cc12 (3D coordinates assigned)
CCN(C)CCOCC[NH2+]c1c2ccccc2[n+](C)c2ccc(C)cc12 (optimized conformer: 85.46306306002296 kcal/mol)

>  <smiles>  (9) 
CCN(C)CCOCCNc1c2ccccc2[n+](C)c2ccc(C)cc12

>  <score_type>  (9) 
oracle

>  <origin>  (9) 
adg

>  <m_score__min__energy>  (9) 
-3.7599999999999998

>  <m_primary>  (9) 
energy

$$$$
9:0
     RDKit          3D

 57 59  0  0  0  0  0  0  0  0999 V2000
   60.7300   29.3360   45.6910 C   0  0  0  0  0  0  0  0  0  0  0  0
   59.7940   28.9820   44.5340 C   0  0  0  0  0  0  0  0  0  0  0  0
   58.3990   28.7930   45.0030 N   0  0  0  0  0  0  0  0  0  0  0  0
   58.2600   27.5270   45.7630 C   0  0  0  0  0  0  0  0  0  0  0  0
   58.2050   27.7920   47.2680 C   0  0  0  0  0  0  0  0  0  0  0  0
   57.4300   28.8630   43.8740 C   0  0  0  0  0  0  0  0  0  0  0  0
   56.0590   29.3400   44.3840 C   0  0  0  0  0  0  0  0  0  0  0  0
   56.0170   30.7490   44.5090 O   0  0  0  0  0  0  0  0  0  0  0  0
   57.0640   31.3710   43.7850 C   0  0  0  0  0  0  0  0  0  0  0  0
   57.4100   32.7540   44.3580 C   0  0  0  0  0  0  0  0  0  0  0  0
   57.2810   32.7850   45.8240 N   0  0  0  0  0  0  0  0  0  0  0  0
   58.5870   32.7160   46.4330 C   0  0  0  0  0  0  0  0  0  0  0  0
   59.5740   33.6560   46.1080 C   0  0  0  0  0  0  0  0  0  0  0  0
   60.8200   33.6260   46.7400 C   0  0  0  0  0  0  0  0  0  0  0  0
   61.1170   32.6660   47.7360 C   0  0  0  0  0  0  0  0  0  0  0  0
   62.3950   32.6830   48.3840 C   0  0  0  0  0  0  0  0  0  0  0  0
   63.2200   33.5540   47.9930 O   0  0  0  0  0  0  0  0  0  0  0  0
   62.8040   31.7860   49.4360 C   0  0  0  0  0  0  0  0  0  0  0  0
   64.0900   31.9080   50.0540 C   0  0  0  0  0  0  0  0  0  0  0  0
   64.9770   32.9200   49.6440 O   0  0  0  0  0  0  0  0  0  0  0  0
   66.3080   33.0920   50.1240 C   0  0  0  0  0  0  0  0  0  0  0  0
   64.4640   31.0110   51.0790 C   0  0  0  0  0  0  0  0  0  0  0  0
   63.6010   30.0030   51.4970 C   0  0  0  0  0  0  0  0  0  0  0  0
   62.3490   29.8730   50.9150 C   0  0  0  0  0  0  0  0  0  0  0  0
   61.9520   30.7520   49.9060 C   0  0  0  0  0  0  0  0  0  0  0  0
   60.4190   30.5840   49.2360 S   0  0  0  0  0  0  0  0  0  0  0  0
   60.1070   31.7290   48.0500 C   0  0  0  0  0  0  0  0  0  0  0  0
   58.8640   31.7500   47.4090 C   0  0  0  0  0  0  0  0  0  0  0  0
   60.2207   29.1434   46.6468 H   0  0  0  0  0  0  0  0  0  0  0  0
   61.6389   28.7195   45.6291 H   0  0  0  0  0  0  0  0  0  0  0  0
   61.0035   30.3997   45.6291 H   0  0  0  0  0  0  0  0  0  0  0  0
   59.8155   29.7961   43.7946 H   0  0  0  0  0  0  0  0  0  0  0  0
   60.1391   28.0382   44.0865 H   0  0  0  0  0  0  0  0  0  0  0  0
   57.3334   27.0217   45.4530 H   0  0  0  0  0  0  0  0  0  0  0  0
   59.1346   26.8944   45.5512 H   0  0  0  0  0  0  0  0  0  0  0  0
   58.3992   26.8561   47.8124 H   0  0  0  0  0  0  0  0  0  0  0  0
   58.9675   28.5378   47.5371 H   0  0  0  0  0  0  0  0  0  0  0  0
   57.2087   28.1727   47.5371 H   0  0  0  0  0  0  0  0  0  0  0  0
   57.8028   29.5693   43.1176 H   0  0  0  0  0  0  0  0  0  0  0  0
   57.3212   27.8626   43.4299 H   0  0  0  0  0  0  0  0  0  0  0  0
   55.2819   29.0202   43.6742 H   0  0  0  0  0  0  0  0  0  0  0  0
   55.8859   28.8988   45.3766 H   0  0  0  0  0  0  0  0  0  0  0  0
   57.9582   30.7321   43.8322 H   0  0  0  0  0  0  0  0  0  0  0  0
   56.7287   31.5053   42.7460 H   0  0  0  0  0  0  0  0  0  0  0  0
   58.4464   33.0031   44.0862 H   0  0  0  0  0  0  0  0  0  0  0  0
   56.7047   33.4854   43.9367 H   0  0  0  0  0  0  0  0  0  0  0  0
   56.8110   33.6740   46.1190 H   0  0  0  0  0  0  0  0  0  0  0  0
   56.6910   31.9820   46.1470 H   0  0  0  0  0  0  0  0  0  0  0  0
   59.3662   34.4243   45.3487 H   0  0  0  0  0  0  0  0  0  0  0  0
   61.5854   34.3637   46.4574 H   0  0  0  0  0  0  0  0  0  0  0  0
   66.3040   33.0915   51.2240 H   0  0  0  0  0  0  0  0  0  0  0  0
   66.9387   32.2679   49.7592 H   0  0  0  0  0  0  0  0  0  0  0  0
   66.7085   34.0494   49.7592 H   0  0  0  0  0  0  0  0  0  0  0  0
   65.4514   31.1108   51.5534 H   0  0  0  0  0  0  0  0  0  0  0  0
   63.9123   29.3078   52.2906 H   0  0  0  0  0  0  0  0  0  0  0  0
   61.6680   29.0763   51.2489 H   0  0  0  0  0  0  0  0  0  0  0  0
   58.0998   31.0040   47.6727 H   0  0  0  0  0  0  0  0  0  0  0  0
  1  2  1  0
  2  3  1  0
  3  4  1  0
  4  5  1  0
  3  6  1  0
  6  7  1  0
  7  8  1  0
  8  9  1  0
  9 10  1  0
 10 11  1  0
 11 12  1  0
 12 13  2  0
 13 14  1  0
 14 15  2  0
 15 16  1  0
 16 17  2  0
 16 18  1  0
 18 19  2  0
 19 20  1  0
 20 21  1  0
 19 22  1  0
 22 23  2  0
 23 24  1  0
 24 25  2  0
 25 26  1  0
 26 27  1  0
 27 28  2  0
 28 12  1  0
 27 15  1  0
 25 18  1  0
  1 29  1  0
  1 30  1  0
  1 31  1  0
  2 32  1  0
  2 33  1  0
  4 34  1  0
  4 35  1  0
  5 36  1  0
  5 37  1  0
  5 38  1  0
  6 39  1  0
  6 40  1  0
  7 41  1  0
  7 42  1  0
  9 43  1  0
  9 44  1  0
 10 45  1  0
 10 46  1  0
 11 47  1  0
 11 48  1  0
 13 49  1  0
 14 50  1  0
 21 51  1  0
 21 52  1  0
 21 53  1  0
 22 54  1  0
 23 55  1  0
 24 56  1  0
 28 57  1  0
M  CHG  1  11   1
M  END
>  <UniqueID>  (10) 
10

>  <SMILES>  (10) 
CCN(CC)CCOCC[NH2+]c1ccc2c(=O)c3c(OC)cccc3sc2c1

>  <Energy>  (10) 
76.54124195484751

>  <Genealogy>  (10) 
CCN(CC)CCOCC[NH2+]c1ccc2c(=O)c3c(OC)cccc3sc2c1 (protonated)
CCN(CC)CCOCC[NH2+]c1ccc2c(=O)c3c(OC)cccc3sc2c1 (3D coordinates assigned)
CCN(CC)CCOCC[NH2+]c1ccc2c(=O)c3c(OC)cccc3sc2c1 (optimized conformer: 76.54124195484751 kcal/mol)

>  <smiles>  (10) 
CCN(CC)CCOCCNc1ccc2c(=O)c3c(OC)cccc3sc2c1

>  <score_type>  (10) 
oracle

>  <origin>  (10) 
adg

>  <m_score__min__energy>  (10) 
-5.2599999999999998

>  <m_primary>  (10) 
energy

$$$$
10:0
     RDKit          3D

 46 48  0  0  0  0  0  0  0  0999 V2000
   55.9460   30.0840   43.4340 C   0  0  0  0  0  0  0  0  0  0  0  0
   56.6830   30.8310   42.3230 C   0  0  0  0  0  0  0  0  0  0  0  0
   57.7050   31.8390   42.8640 C   0  0  0  0  0  0  0  0  0  0  0  0
   58.1640   31.5340   44.2800 C   0  0  0  0  0  0  0  0  0  0  0  0
   58.7470   30.3090   44.4920 N   0  0  0  0  0  0  0  0  0  0  0  0
   59.0640   29.9420   45.7500 C   0  0  0  0  0  0  0  0  0  0  0  0
   58.8030   30.7310   46.8260 C   0  0  0  0  0  0  0  0  0  0  0  0
   59.1620   30.1290   47.9830 N   0  0  0  0  0  0  0  0  0  0  0  0
   59.6580   28.9300   47.6010 C   0  0  0  0  0  0  0  0  0  0  0  0
   60.1600   27.9240   48.4240 C   0  0  0  0  0  0  0  0  0  0  0  0
   60.6200   26.7410   47.8130 C   0  0  0  0  0  0  0  0  0  0  0  0
   60.5670   26.5900   46.4080 C   0  0  0  0  0  0  0  0  0  0  0  0
   60.0560   27.6180   45.5960 C   0  0  0  0  0  0  0  0  0  0  0  0
   59.6120   28.7760   46.2290 C   0  0  0  0  0  0  0  0  0  0  0  0
   58.2280   31.9780   46.6400 C   0  0  0  0  0  0  0  0  0  0  0  0
   57.9490   32.6900   47.6440 O   0  0  0  0  0  0  0  0  0  0  0  0
   57.9640   32.4090   45.3530 N   0  0  0  0  0  0  0  0  0  0  0  0
   57.4680   33.7960   45.1660 C   0  0  0  0  0  0  0  0  0  0  0  0
   58.6030   34.7960   44.8720 C   0  0  0  0  0  0  0  0  0  0  0  0
   59.6580   34.8010   45.9350 C   0  0  0  0  0  0  0  0  0  0  0  0
   59.6370   35.6850   46.8340 O   0  0  0  0  0  0  0  0  0  0  0  0
   60.6510   33.8160   45.9230 O   0  0  0  0  0  0  0  0  0  0  0  0
   61.4320   33.4760   47.0670 C   0  0  0  0  0  0  0  0  0  0  0  0
   62.9190   33.5540   46.7440 C   0  0  0  0  0  0  0  0  0  0  0  0
   56.2987   30.4415   44.4127 H   0  0  0  0  0  0  0  0  0  0  0  0
   54.8651   30.2672   43.3445 H   0  0  0  0  0  0  0  0  0  0  0  0
   56.1438   29.0056   43.3445 H   0  0  0  0  0  0  0  0  0  0  0  0
   57.2105   30.0974   41.6957 H   0  0  0  0  0  0  0  0  0  0  0  0
   55.9335   31.3942   41.7477 H   0  0  0  0  0  0  0  0  0  0  0  0
   58.5846   31.8320   42.2035 H   0  0  0  0  0  0  0  0  0  0  0  0
   57.2101   32.8211   42.8881 H   0  0  0  0  0  0  0  0  0  0  0  0
   58.9250   29.6500   43.7000 H   0  0  0  0  0  0  0  0  0  0  0  0
   59.0720   30.5040   48.9550 H   0  0  0  0  0  0  0  0  0  0  0  0
   60.1960   28.0496   49.5162 H   0  0  0  0  0  0  0  0  0  0  0  0
   61.0238   25.9278   48.4341 H   0  0  0  0  0  0  0  0  0  0  0  0
   60.9289   25.6597   45.9460 H   0  0  0  0  0  0  0  0  0  0  0  0
   60.0088   27.5114   44.5022 H   0  0  0  0  0  0  0  0  0  0  0  0
   56.7615   33.8070   44.3229 H   0  0  0  0  0  0  0  0  0  0  0  0
   56.9847   34.1066   46.1040 H   0  0  0  0  0  0  0  0  0  0  0  0
   59.0704   34.5262   43.9135 H   0  0  0  0  0  0  0  0  0  0  0  0
   58.1595   35.8021   44.8391 H   0  0  0  0  0  0  0  0  0  0  0  0
   61.2021   34.1770   47.8829 H   0  0  0  0  0  0  0  0  0  0  0  0
   61.1884   32.4468   47.3694 H   0  0  0  0  0  0  0  0  0  0  0  0
   63.4964   33.5843   47.6798 H   0  0  0  0  0  0  0  0  0  0  0  0
   63.2141   32.6701   46.1595 H   0  0  0  0  0  0  0  0  0  0  0  0
   63.1200   34.4639   46.1595 H   0  0  0  0  0  0  0  0  0  0  0  0
  1  2  1  0
  2  3  1  0
  3  4  1  0
  4  5  2  0
  5  6  1  0
  6  7  2  0
  7  8  1  0
  8  9  1  0
  9 10  2  0
 10 11  1  0
 11 12  2  0
 12 13  1  0
 13 14  2  0
  7 15  1  0
 15 16  2  0
 15 17  1  0
 17 18  1  0
 18 19  1  0
 19 20  1  0
 20 21  2  0
 20 22  1  0
 22 23  1  0
 23 24  1  0
 17  4  1  0
 14  6  1  0
 14  9  1  0
  1 25  1  0
  1 26  1  0
  1 27  1  0
  2 28  1  0
  2 29  1  0
  3 30  1  0
  3 31  1  0
  5 32  1  0
  8 33  1  0
 10 34  1  0
 11 35  1  0
 12 36  1  0
 13 37  1  0
 18 38  1  0
 18 39  1  0
 19 40  1  0
 19 41  1  0
 23 42  1  0
 23 43  1  0
 24 44  1  0
 24 45  1  0
 24 46  1  0
M  CHG  1   5   1
M  END
>  <UniqueID>  (11) 
11

>  <SMILES>  (11) 
CCCc1[nH+]c2c([nH]c3ccccc32)c(=O)n1CCC(=O)OCC

>  <Energy>  (11) 
86.43326484372695

>  <Genealogy>  (11) 
CCCc1[nH+]c2c([nH]c3ccccc32)c(=O)n1CCC(=O)OCC (protonated)
CCCc1[nH+]c2c([nH]c3ccccc32)c(=O)n1CCC(=O)OCC (3D coordinates assigned)
CCCc1[nH+]c2c([nH]c3ccccc32)c(=O)n1CCC(=O)OCC (optimized conformer: 86.43326484372695 kcal/mol)

>  <smiles>  (11) 
CCCc1nc2c([nH]c3ccccc32)c(=O)n1CCC(=O)OCC

>  <score_type>  (11) 
oracle

>  <origin>  (11) 
adg

>  <m_score__min__energy>  (11) 
-5.96

>  <m_primary>  (11) 
energy

$$$$
11:0
     RDKit          3D

 64 66  0  0  0  0  0  0  0  0999 V2000
   52.6590   30.3090   50.8830 C   0  0  0  0  0  0  0  0  0  0  0  0
   53.5290   30.8500   52.0150 C   0  0  0  0  0  0  0  0  0  0  0  0
   54.5690   29.8140   52.4550 C   0  0  0  0  0  0  0  0  0  0  0  0
   55.8790   30.4920   52.8710 C   0  0  0  0  0  0  0  0  0  0  0  0
   56.1920   31.6020   51.9700 N   0  0  0  0  0  0  0  0  0  0  0  0
   57.5270   32.0220   51.6190 C   0  0  0  0  0  0  0  0  0  0  0  0
   58.4270   32.4970   52.5760 C   0  0  0  0  0  0  0  0  0  0  0  0
   59.7140   32.8700   52.2080 C   0  0  0  0  0  0  0  0  0  0  0  0
   60.1560   32.7750   50.8670 C   0  0  0  0  0  0  0  0  0  0  0  0
   59.2260   32.3760   49.8700 C   0  0  0  0  0  0  0  0  0  0  0  0
   57.9250   31.9790   50.2780 C   0  0  0  0  0  0  0  0  0  0  0  0
   59.6210   32.3640   48.5010 C   0  0  0  0  0  0  0  0  0  0  0  0
   58.7000   31.8790   47.4780 N   0  0  0  0  0  0  0  0  0  0  0  0
   59.1000   30.5630   46.9390 C   0  0  0  0  0  0  0  0  0  0  0  0
   58.4310   30.2310   45.5890 C   0  0  0  0  0  0  0  0  0  0  0  0
   57.3880   31.2250   45.2360 N   0  0  0  0  0  0  0  0  0  0  0  0
   57.9580   32.3730   44.4800 C   0  0  0  0  0  0  0  0  0  0  0  0
   57.3920   33.6840   45.0150 C   0  0  0  0  0  0  0  0  0  0  0  0
   56.2930   30.5690   44.4820 C   0  0  0  0  0  0  0  0  0  0  0  0
   56.6340   30.4310   42.9990 C   0  0  0  0  0  0  0  0  0  0  0  0
   60.9160   32.8610   48.1640 C   0  0  0  0  0  0  0  0  0  0  0  0
   61.3670   32.9730   46.8210 C   0  0  0  0  0  0  0  0  0  0  0  0
   62.6110   33.5180   46.5170 C   0  0  0  0  0  0  0  0  0  0  0  0
   63.4370   33.9770   47.5290 C   0  0  0  0  0  0  0  0  0  0  0  0
   63.0420   33.8570   48.8560 C   0  0  0  0  0  0  0  0  0  0  0  0
   61.8020   33.2590   49.2060 C   0  0  0  0  0  0  0  0  0  0  0  0
   61.4590   33.0680   50.5260 N   0  0  0  0  0  0  0  0  0  0  0  0
   62.5000   33.1320   51.5770 C   0  0  0  0  0  0  0  0  0  0  0  0
   51.7971   29.7730   51.3071 H   0  0  0  0  0  0  0  0  0  0  0  0
   52.3023   31.1448   50.2632 H   0  0  0  0  0  0  0  0  0  0  0  0
   53.2508   29.6194   50.2632 H   0  0  0  0  0  0  0  0  0  0  0  0
   54.0484   31.7553   51.6677 H   0  0  0  0  0  0  0  0  0  0  0  0
   52.8813   31.0812   52.8735 H   0  0  0  0  0  0  0  0  0  0  0  0
   54.1714   29.2456   53.3087 H   0  0  0  0  0  0  0  0  0  0  0  0
   54.7755   29.1436   51.6077 H   0  0  0  0  0  0  0  0  0  0  0  0
   55.7776   30.8763   53.8967 H   0  0  0  0  0  0  0  0  0  0  0  0
   56.6927   29.7535   52.8206 H   0  0  0  0  0  0  0  0  0  0  0  0
   55.3820   32.1060   51.5420 H   0  0  0  0  0  0  0  0  0  0  0  0
   58.1148   32.5763   53.6278 H   0  0  0  0  0  0  0  0  0  0  0  0
   60.4048   33.2476   52.9763 H   0  0  0  0  0  0  0  0  0  0  0  0
   57.2103   31.6280   49.5190 H   0  0  0  0  0  0  0  0  0  0  0  0
   58.5450   32.5470   46.6980 H   0  0  0  0  0  0  0  0  0  0  0  0
   57.7390   31.8100   47.8790 H   0  0  0  0  0  0  0  0  0  0  0  0
   60.1910   30.5594   46.7989 H   0  0  0  0  0  0  0  0  0  0  0  0
   58.7741   29.8006   47.6619 H   0  0  0  0  0  0  0  0  0  0  0  0
   59.1994   30.2254   44.8019 H   0  0  0  0  0  0  0  0  0  0  0  0
   57.9505   29.2454   45.6769 H   0  0  0  0  0  0  0  0  0  0  0  0
   59.0522   32.3759   44.5928 H   0  0  0  0  0  0  0  0  0  0  0  0
   57.6922   32.2725   43.4173 H   0  0  0  0  0  0  0  0  0  0  0  0
   57.4001   33.6652   46.1148 H   0  0  0  0  0  0  0  0  0  0  0  0
   58.0084   34.5223   44.6581 H   0  0  0  0  0  0  0  0  0  0  0  0
   56.3592   33.8103   44.6581 H   0  0  0  0  0  0  0  0  0  0  0  0
   56.1200   29.5676   44.9030 H   0  0  0  0  0  0  0  0  0  0  0  0
   55.3922   31.1940   44.5707 H   0  0  0  0  0  0  0  0  0  0  0  0
   57.6489   30.0203   42.8928 H   0  0  0  0  0  0  0  0  0  0  0  0
   55.9124   29.7541   42.5183 H   0  0  0  0  0  0  0  0  0  0  0  0
   56.5862   31.4192   42.5183 H   0  0  0  0  0  0  0  0  0  0  0  0
   60.7192   32.6215   46.0045 H   0  0  0  0  0  0  0  0  0  0  0  0
   62.9391   33.5843   45.4692 H   0  0  0  0  0  0  0  0  0  0  0  0
   64.4056   34.4365   47.2827 H   0  0  0  0  0  0  0  0  0  0  0  0
   63.7028   34.2326   49.6512 H   0  0  0  0  0  0  0  0  0  0  0  0
   62.0230   33.1027   52.5678 H   0  0  0  0  0  0  0  0  0  0  0  0
   63.1803   32.2740   51.4720 H   0  0  0  0  0  0  0  0  0  0  0  0
   63.0701   34.0669   51.4720 H   0  0  0  0  0  0  0  0  0  0  0  0
  1  2  1  0
  2  3  1  0
  3  4  1  0
  4  5  1  0
  5  6  1  0
  6  7  2  0
  7  8  1  0
  8  9  2  0
  9 10  1  0
 10 11  2  0
 10 12  1  0
 12 13  1  0
 13 14  1  0
 14 15  1  0
 15 16  1  0
 16 17  1  0
 17 18  1  0
 16 19  1  0
 19 20  1  0
 12 21  2  0
 21 22  1  0
 22 23  2  0
 23 24  1  0
 24 25  2  0
 25 26  1  0
 26 27  2  0
 27 28  1  0
 11  6  1  0
 26 21  1  0
 27  9  1  0
  1 29  1  0
  1 30  1  0
  1 31  1  0
  2 32  1  0
  2 33  1  0
  3 34  1  0
  3 35  1  0
  4 36  1  0
  4 37  1  0
  5 38  1  0
  7 39  1  0
  8 40  1  0
 11 41  1  0
 13 42  1  0
 13 43  1  0
 14 44  1  0
 14 45  1  0
 15 46  1  0
 15 47  1  0
 17 48  1  0
 17 49  1  0
 18 50  1  0
 18 51  1  0
 18 52  1  0
 19 53  1  0
 19 54  1  0
 20 55  1  0
 20 56  1  0
 20 57  1  0
 22 58  1  0
 23 59  1  0
 24 60  1  0
 25 61  1  0
 28 62  1  0
 28 63  1  0
 28 64  1  0
M  CHG  2  13   1  27   1
M  END
>  <UniqueID>  (12) 
12

>  <SMILES>  (12) 
CCCCNc1ccc2c(c1)c([NH2+]CCN(CC)CC)c1ccccc1[n+]2C

>  <Energy>  (12) 
82.82889034892887

>  <Genealogy>  (12) 
CCCCNc1ccc2c(c1)c([NH2+]CCN(CC)CC)c1ccccc1[n+]2C (protonated)
CCCCNc1ccc2c(c1)c([NH2+]CCN(CC)CC)c1ccccc1[n+]2C (3D coordinates assigned)
CCCCNc1ccc2c(c1)c([NH2+]CCN(CC)CC)c1ccccc1[n+]2C (optimized conformer: 82.82889034892887 kcal/mol)

>  <smiles>  (12) 
CCCCNc1ccc2c(c1)c(NCCN(CC)CC)c1ccccc1[n+]2C

>  <score_type>  (12) 
oracle

>  <origin>  (12) 
adg

>  <m_score__min__energy>  (12) 
-4.6100000000000003

>  <m_primary>  (12) 
energy

$$$$
12:0
     RDKit          3D

 30 33  0  0  0  0  0  0  0  0999 V2000
   59.1280   28.1230   47.1000 C   0  0  0  0  0  0  0  0  0  0  0  0
   58.6180   29.0660   46.0550 C   0  0  0  0  0  0  0  0  0  0  0  0
   57.9320   28.5400   44.9870 N   0  0  0  0  0  0  0  0  0  0  0  0
   57.4520   29.3630   44.0150 C   0  0  0  0  0  0  0  0  0  0  0  0
   56.7720   28.9860   42.9240 N   0  0  0  0  0  0  0  0  0  0  0  0
   56.4970   30.0920   42.2400 N   0  0  0  0  0  0  0  0  0  0  0  0
   57.0200   31.1310   42.9370 C   0  0  0  0  0  0  0  0  0  0  0  0
   57.6240   30.6890   44.0570 N   0  0  0  0  0  0  0  0  0  0  0  0
   58.2900   31.2620   45.0880 C   0  0  0  0  0  0  0  0  0  0  0  0
   58.6150   32.5730   45.3610 C   0  0  0  0  0  0  0  0  0  0  0  0
   58.3790   33.7680   44.6800 C   0  0  0  0  0  0  0  0  0  0  0  0
   58.8760   34.9550   45.2410 C   0  0  0  0  0  0  0  0  0  0  0  0
   59.5930   34.9290   46.4520 C   0  0  0  0  0  0  0  0  0  0  0  0
   59.8230   33.7140   47.1220 C   0  0  0  0  0  0  0  0  0  0  0  0
   59.3170   32.5350   46.5560 C   0  0  0  0  0  0  0  0  0  0  0  0
   59.4270   31.2620   47.0320 N   0  0  0  0  0  0  0  0  0  0  0  0
   60.1170   30.8370   48.2530 C   0  0  0  0  0  0  0  0  0  0  0  0
   58.7970   30.4800   46.1100 C   0  0  0  0  0  0  0  0  0  0  0  0
   58.9085   28.5288   48.0986 H   0  0  0  0  0  0  0  0  0  0  0  0
   58.6351   27.1464   46.9846 H   0  0  0  0  0  0  0  0  0  0  0  0
   60.2151   28.0009   46.9846 H   0  0  0  0  0  0  0  0  0  0  0  0
   56.5010   28.0190   42.6420 H   0  0  0  0  0  0  0  0  0  0  0  0
   56.9596   32.1859   42.6310 H   0  0  0  0  0  0  0  0  0  0  0  0
   57.8205   33.7795   43.7324 H   0  0  0  0  0  0  0  0  0  0  0  0
   58.7036   35.9136   44.7298 H   0  0  0  0  0  0  0  0  0  0  0  0
   59.9769   35.8676   46.8783 H   0  0  0  0  0  0  0  0  0  0  0  0
   60.3859   33.6892   48.0667 H   0  0  0  0  0  0  0  0  0  0  0  0
   59.5539   31.1838   49.1320 H   0  0  0  0  0  0  0  0  0  0  0  0
   60.1865   29.7394   48.2717 H   0  0  0  0  0  0  0  0  0  0  0  0
   61.1285   31.2688   48.2717 H   0  0  0  0  0  0  0  0  0  0  0  0
  1  2  1  0
  2  3  2  0
  3  4  1  0
  4  5  2  0
  5  6  1  0
  6  7  2  0
  7  8  1  0
  8  9  1  0
  9 10  1  0
 10 11  2  0
 11 12  1  0
 12 13  2  0
 13 14  1  0
 14 15  2  0
 15 16  1  0
 16 17  1  0
 16 18  1  0
 18  2  1  0
  8  4  1  0
 18  9  2  0
 15 10  1  0
  1 19  1  0
  1 20  1  0
  1 21  1  0
  5 22  1  0
  7 23  1  0
 11 24  1  0
 12 25  1  0
 13 26  1  0
 14 27  1  0
 17 28  1  0
 17 29  1  0
 17 30  1  0
M  CHG  1   5   1
M  END
>  <UniqueID>  (13) 
13

>  <SMILES>  (13) 
Cc1nc2[nH+]ncn2c2c3ccccc3n(C)c12

>  <Energy>  (13) 
127.64388208965222

>  <Genealogy>  (13) 
Cc1nc2[nH+]ncn2c2c3ccccc3n(C)c12 (protonated)
Cc1nc2[nH+]ncn2c2c3ccccc3n(C)c12 (3D coordinates assigned)
Cc1nc2[nH+]ncn2c2c3ccccc3n(C)c12 (optimized conformer: 127.64388208965222 kcal/mol)

>  <smiles>  (13) 
Cc1nc2nncn2c2c3ccccc3n(C)c12

>  <score_type>  (13) 
oracle

>  <origin>  (13) 
adg

>  <m_score__min__energy>  (13) 
-5.75

>  <m_primary>  (13) 
energy

$$$$
13:0
     RDKit          3D

 57 61  0  0  0  0  0  0  0  0999 V2000
   64.8930   33.4530   50.9950 C   0  0  0  0  0  0  0  0  0  0  0  0
   65.3370   32.7400   49.7120 C   0  0  0  0  0  0  0  0  0  0  0  0
   64.1980   32.4950   48.7800 N   0  0  0  0  0  0  0  0  0  0  0  0
   63.7910   33.7510   48.0980 C   0  0  0  0  0  0  0  0  0  0  0  0
   63.3540   33.5240   46.6450 C   0  0  0  0  0  0  0  0  0  0  0  0
   63.0690   31.8030   49.4690 C   0  0  0  0  0  0  0  0  0  0  0  0
   62.1330   30.9880   48.5420 C   0  0  0  0  0  0  0  0  0  0  0  0
   60.8610   31.6770   48.3090 N   0  0  0  0  0  0  0  0  0  0  0  0
   59.9480   31.2850   47.2630 C   0  0  0  0  0  0  0  0  0  0  0  0
   59.7000   29.9340   47.0400 C   0  0  0  0  0  0  0  0  0  0  0  0
   58.8920   29.5200   45.9770 C   0  0  0  0  0  0  0  0  0  0  0  0
   58.6900   28.1470   45.7400 C   0  0  0  0  0  0  0  0  0  0  0  0
   59.1730   27.0850   46.4370 N   0  0  0  0  0  0  0  0  0  0  0  0
   58.7160   26.0000   45.7770 C   0  0  0  0  0  0  0  0  0  0  0  0
   58.9590   24.6620   46.0860 C   0  0  0  0  0  0  0  0  0  0  0  0
   58.4000   23.6790   45.2480 C   0  0  0  0  0  0  0  0  0  0  0  0
   57.6210   24.0510   44.1260 C   0  0  0  0  0  0  0  0  0  0  0  0
   57.3940   25.4060   43.8320 C   0  0  0  0  0  0  0  0  0  0  0  0
   57.9570   26.3550   44.6840 C   0  0  0  0  0  0  0  0  0  0  0  0
   57.9440   27.7300   44.6680 C   0  0  0  0  0  0  0  0  0  0  0  0
   57.3720   28.6250   43.7900 C   0  0  0  0  0  0  0  0  0  0  0  0
   57.5710   29.9900   44.0330 C   0  0  0  0  0  0  0  0  0  0  0  0
   58.3050   30.4510   45.1230 N   0  0  0  0  0  0  0  0  0  0  0  0
   58.4800   31.8100   45.3680 C   0  0  0  0  0  0  0  0  0  0  0  0
   57.8260   32.8200   44.6030 C   0  0  0  0  0  0  0  0  0  0  0  0
   58.0310   34.1750   44.8620 C   0  0  0  0  0  0  0  0  0  0  0  0
   58.8670   34.5740   45.8950 C   0  0  0  0  0  0  0  0  0  0  0  0
   59.5000   33.6200   46.6850 C   0  0  0  0  0  0  0  0  0  0  0  0
   59.3250   32.2410   46.4380 C   0  0  0  0  0  0  0  0  0  0  0  0
   65.2455   32.8869   51.8698 H   0  0  0  0  0  0  0  0  0  0  0  0
   65.3199   34.4665   51.0177 H   0  0  0  0  0  0  0  0  0  0  0  0
   63.7951   33.5170   51.0177 H   0  0  0  0  0  0  0  0  0  0  0  0
   66.0850   33.3638   49.2008 H   0  0  0  0  0  0  0  0  0  0  0  0
   65.7565   31.7637   49.9963 H   0  0  0  0  0  0  0  0  0  0  0  0
   64.5260   31.8260   48.0410 H   0  0  0  0  0  0  0  0  0  0  0  0
   62.9512   34.1956   48.6522 H   0  0  0  0  0  0  0  0  0  0  0  0
   64.6664   34.4168   48.0803 H   0  0  0  0  0  0  0  0  0  0  0  0
   62.3779   33.0170   46.6306 H   0  0  0  0  0  0  0  0  0  0  0  0
   63.2714   34.4932   46.1313 H   0  0  0  0  0  0  0  0  0  0  0  0
   64.0994   32.8991   46.1313 H   0  0  0  0  0  0  0  0  0  0  0  0
   63.4951   31.1143   50.2135 H   0  0  0  0  0  0  0  0  0  0  0  0
   62.4477   32.5961   49.9104 H   0  0  0  0  0  0  0  0  0  0  0  0
   62.6358   30.8330   47.5760 H   0  0  0  0  0  0  0  0  0  0  0  0
   61.9162   30.0284   49.0342 H   0  0  0  0  0  0  0  0  0  0  0  0
   60.6820   32.5790   48.8090 H   0  0  0  0  0  0  0  0  0  0  0  0
   60.1453   29.1825   47.7085 H   0  0  0  0  0  0  0  0  0  0  0  0
   59.7750   27.0810   47.2890 H   0  0  0  0  0  0  0  0  0  0  0  0
   59.5689   24.3834   46.9580 H   0  0  0  0  0  0  0  0  0  0  0  0
   58.5696   22.6143   45.4664 H   0  0  0  0  0  0  0  0  0  0  0  0
   57.1899   23.2728   43.4791 H   0  0  0  0  0  0  0  0  0  0  0  0
   56.7936   25.7072   42.9609 H   0  0  0  0  0  0  0  0  0  0  0  0
   56.7804   28.2798   42.9293 H   0  0  0  0  0  0  0  0  0  0  0  0
   57.1327   30.7226   43.3394 H   0  0  0  0  0  0  0  0  0  0  0  0
   57.1452   32.5242   43.7912 H   0  0  0  0  0  0  0  0  0  0  0  0
   57.5268   34.9321   44.2435 H   0  0  0  0  0  0  0  0  0  0  0  0
   59.0292   35.6445   46.0892 H   0  0  0  0  0  0  0  0  0  0  0  0
   60.1461   33.9446   47.5140 H   0  0  0  0  0  0  0  0  0  0  0  0
  1  2  1  0
  2  3  1  0
  3  4  1  0
  4  5  1  0
  3  6  1  0
  6  7  1  0
  7  8  1  0
  8  9  1  0
  9 10  2  0
 10 11  1  0
 11 12  2  0
 12 13  1  0
 13 14  1  0
 14 15  2  0
 15 16  1  0
 16 17  2  0
 17 18  1  0
 18 19  2  0
 19 20  1  0
 20 21  2  0
 21 22  1  0
 22 23  2  0
 23 24  1  0
 24 25  2  0
 25 26  1  0
 26 27  2  0
 27 28  1  0
 28 29  2  0
 29  9  1  0
 23 11  1  0
 29 24  1  0
 20 12  1  0
 19 14  1  0
  1 30  1  0
  1 31  1  0
  1 32  1  0
  2 33  1  0
  2 34  1  0
  3 35  1  0
  4 36  1  0
  4 37  1  0
  5 38  1  0
  5 39  1  0
  5 40  1  0
  6 41  1  0
  6 42  1  0
  7 43  1  0
  7 44  1  0
  8 45  1  0
 10 46  1  0
 13 47  1  0
 15 48  1  0
 16 49  1  0
 17 50  1  0
 18 51  1  0
 21 52  1  0
 22 53  1  0
 25 54  1  0
 26 55  1  0
 27 56  1  0
 28 57  1  0
M  CHG  2   3   1  23   1
M  END
>  <UniqueID>  (14) 
14

>  <SMILES>  (14) 
CC[NH+](CC)CCNc1cc2c3[nH]c4ccccc4c3cc[n+]2c2ccccc12

>  <Energy>  (14) 
127.50194525778844

>  <Genealogy>  (14) 
CC[NH+](CC)CCNc1cc2c3[nH]c4ccccc4c3cc[n+]2c2ccccc12 (protonated)
CC[NH+](CC)CCNc1cc2c3[nH]c4ccccc4c3cc[n+]2c2ccccc12 (3D coordinates assigned)
CC[NH+](CC)CCNc1cc2c3[nH]c4ccccc4c3cc[n+]2c2ccccc12 (optimized conformer: 127.50194525778844 kcal/mol)

>  <smiles>  (14) 
CCN(CC)CCNc1cc2c3[nH]c4ccccc4c3cc[n+]2c2ccccc12

>  <score_type>  (14) 
oracle

>  <origin>  (14) 
adg

>  <m_score__min__energy>  (14) 
-5.5

>  <m_primary>  (14) 
energy

$$$$
14:0
     RDKit          3D

 57 60  0  0  0  0  0  0  0  0999 V2000
   63.2860   34.1900   50.5400 C   0  0  0  0  0  0  0  0  0  0  0  0
   62.0270   33.4250   50.1410 C   0  0  0  0  0  0  0  0  0  0  0  0
   62.0940   33.0150   48.7170 N   0  0  0  0  0  0  0  0  0  0  0  0
   63.0620   33.8590   47.9720 C   0  0  0  0  0  0  0  0  0  0  0  0
   63.6430   33.0870   46.7860 C   0  0  0  0  0  0  0  0  0  0  0  0
   62.4270   31.5740   48.5930 C   0  0  0  0  0  0  0  0  0  0  0  0
   61.1780   30.7090   48.8390 C   0  0  0  0  0  0  0  0  0  0  0  0
   59.9260   31.4830   48.7270 N   0  0  0  0  0  0  0  0  0  0  0  0
   59.4790   31.6000   47.3450 C   0  0  0  0  0  0  0  0  0  0  0  0
   59.3870   32.8470   46.6670 C   0  0  0  0  0  0  0  0  0  0  0  0
   59.7350   34.0710   47.2940 C   0  0  0  0  0  0  0  0  0  0  0  0
   59.6430   35.2810   46.6120 C   0  0  0  0  0  0  0  0  0  0  0  0
   59.2040   35.3110   45.2970 C   0  0  0  0  0  0  0  0  0  0  0  0
   58.8560   34.1290   44.6490 C   0  0  0  0  0  0  0  0  0  0  0  0
   58.9360   32.8750   45.3090 C   0  0  0  0  0  0  0  0  0  0  0  0
   58.6020   31.7030   44.6550 N   0  0  0  0  0  0  0  0  0  0  0  0
   58.1390   31.7380   43.2480 C   0  0  0  0  0  0  0  0  0  0  0  0
   58.7120   30.4950   45.3020 C   0  0  0  0  0  0  0  0  0  0  0  0
   58.4180   29.3270   44.6590 N   0  0  0  0  0  0  0  0  0  0  0  0
   58.5160   28.1150   45.2650 C   0  0  0  0  0  0  0  0  0  0  0  0
   58.2190   26.9260   44.5700 C   0  0  0  0  0  0  0  0  0  0  0  0
   57.7820   26.9650   43.1290 C   0  0  0  0  0  0  0  0  0  0  0  0
   58.3590   25.6950   45.2350 C   0  0  0  0  0  0  0  0  0  0  0  0
   58.7680   25.6530   46.5750 C   0  0  0  0  0  0  0  0  0  0  0  0
   59.0500   26.8350   47.2630 C   0  0  0  0  0  0  0  0  0  0  0  0
   58.9320   28.0630   46.6080 C   0  0  0  0  0  0  0  0  0  0  0  0
   59.2300   29.2160   47.2540 N   0  0  0  0  0  0  0  0  0  0  0  0
   59.1390   30.4310   46.6430 C   0  0  0  0  0  0  0  0  0  0  0  0
   63.3568   34.2330   51.6369 H   0  0  0  0  0  0  0  0  0  0  0  0
   64.1707   33.6766   50.1353 H   0  0  0  0  0  0  0  0  0  0  0  0
   63.2379   35.2117   50.1353 H   0  0  0  0  0  0  0  0  0  0  0  0
   61.9339   32.5283   50.7713 H   0  0  0  0  0  0  0  0  0  0  0  0
   61.1548   34.0806   50.2804 H   0  0  0  0  0  0  0  0  0  0  0  0
   62.5483   34.7585   47.6019 H   0  0  0  0  0  0  0  0  0  0  0  0
   63.8818   34.1422   48.6485 H   0  0  0  0  0  0  0  0  0  0  0  0
   64.2658   32.2595   47.1568 H   0  0  0  0  0  0  0  0  0  0  0  0
   62.8229   32.6831   46.1742 H   0  0  0  0  0  0  0  0  0  0  0  0
   64.2581   33.7633   46.1742 H   0  0  0  0  0  0  0  0  0  0  0  0
   62.8103   31.3768   47.5810 H   0  0  0  0  0  0  0  0  0  0  0  0
   63.1896   31.3192   49.3436 H   0  0  0  0  0  0  0  0  0  0  0  0
   61.1589   29.8971   48.0970 H   0  0  0  0  0  0  0  0  0  0  0  0
   61.2388   30.3165   49.8648 H   0  0  0  0  0  0  0  0  0  0  0  0
   59.1870   30.9790   49.2720 H   0  0  0  0  0  0  0  0  0  0  0  0
   60.0070   32.3980   49.2180 H   0  0  0  0  0  0  0  0  0  0  0  0
   60.0836   34.0638   48.3373 H   0  0  0  0  0  0  0  0  0  0  0  0
   59.9198   36.2175   47.1184 H   0  0  0  0  0  0  0  0  0  0  0  0
   59.1306   36.2708   44.7647 H   0  0  0  0  0  0  0  0  0  0  0  0
   58.5122   34.1677   43.6048 H   0  0  0  0  0  0  0  0  0  0  0  0
   57.0424   31.8209   43.2248 H   0  0  0  0  0  0  0  0  0  0  0  0
   58.5831   32.6051   42.7373 H   0  0  0  0  0  0  0  0  0  0  0  0
   58.4477   30.8140   42.7373 H   0  0  0  0  0  0  0  0  0  0  0  0
   56.6874   27.0627   43.0803 H   0  0  0  0  0  0  0  0  0  0  0  0
   58.2496   27.8250   42.6272 H   0  0  0  0  0  0  0  0  0  0  0  0
   58.0899   26.0358   42.6272 H   0  0  0  0  0  0  0  0  0  0  0  0
   58.1460   24.7580   44.6996 H   0  0  0  0  0  0  0  0  0  0  0  0
   58.8673   24.6845   47.0870 H   0  0  0  0  0  0  0  0  0  0  0  0
   59.3638   26.7991   48.3167 H   0  0  0  0  0  0  0  0  0  0  0  0
  1  2  1  0
  2  3  1  0
  3  4  1  0
  4  5  1  0
  3  6  1  0
  6  7  1  0
  7  8  1  0
  8  9  1  0
  9 10  2  0
 10 11  1  0
 11 12  2  0
 12 13  1  0
 13 14  2  0
 14 15  1  0
 15 16  2  0
 16 17  1  0
 16 18  1  0
 18 19  2  0
 19 20  1  0
 20 21  2  0
 21 22  1  0
 21 23  1  0
 23 24  2  0
 24 25  1  0
 25 26  2  0
 26 27  1  0
 27 28  2  0
 28  9  1  0
 15 10  1  0
 28 18  1  0
 26 20  1  0
  1 29  1  0
  1 30  1  0
  1 31  1  0
  2 32  1  0
  2 33  1  0
  4 34  1  0
  4 35  1  0
  5 36  1  0
  5 37  1  0
  5 38  1  0
  6 39  1  0
  6 40  1  0
  7 41  1  0
  7 42  1  0
  8 43  1  0
  8 44  1  0
 11 45  1  0
 12 46  1  0
 13 47  1  0
 14 48  1  0
 17 49  1  0
 17 50  1  0
 17 51  1  0
 22 52  1  0
 22 53  1  0
 22 54  1  0
 23 55  1  0
 24 56  1  0
 25 57  1  0
M  CHG  2   8   1  16   1
M  END
>  <UniqueID>  (15) 
15

>  <SMILES>  (15) 
CCN(CC)CC[NH2+]c1c2ccccc2[n+](C)c2nc3c(C)cccc3nc12

>  <Energy>  (15) 
81.2924213666008

>  <Genealogy>  (15) 
CCN(CC)CC[NH2+]c1c2ccccc2[n+](C)c2nc3c(C)cccc3nc12 (protonated)
CCN(CC)CC[NH2+]c1c2ccccc2[n+](C)c2nc3c(C)cccc3nc12 (3D coordinates assigned)
CCN(CC)CC[NH2+]c1c2ccccc2[n+](C)c2nc3c(C)cccc3nc12 (optimized conformer: 81.2924213666008 kcal/mol)

>  <smiles>  (15) 
CCN(CC)CCNc1c2ccccc2[n+](C)c2nc3c(C)cccc3nc12

>  <score_type>  (15) 
oracle

>  <origin>  (15) 
adg

>  <m_score__min__energy>  (15) 
-5.1500000000000004

>  <m_primary>  (15) 
energy

$$$$
15:0
     RDKit          3D

 52 54  0  0  0  0  0  0  0  0999 V2000
   58.7940   27.9800   44.4850 C   0  0  0  0  0  0  0  0  0  0  0  0
   58.8560   26.7980   45.4540 C   0  0  0  0  0  0  0  0  0  0  0  0
   58.5380   27.1960   46.9040 C   0  0  0  0  0  0  0  0  0  0  0  0
   59.7320   27.0020   47.8460 C   0  0  0  0  0  0  0  0  0  0  0  0
   60.0270   28.2480   48.5520 N   0  0  0  0  0  0  0  0  0  0  0  0
   60.3910   29.4560   47.8650 C   0  0  0  0  0  0  0  0  0  0  0  0
   60.4870   29.4640   46.6080 O   0  0  0  0  0  0  0  0  0  0  0  0
   60.6620   30.7210   48.6430 C   0  0  0  0  0  0  0  0  0  0  0  0
   61.6240   31.6590   47.8770 C   0  0  0  0  0  0  0  0  0  0  0  0
   60.8610   32.7750   47.1520 C   0  0  0  0  0  0  0  0  0  0  0  0
   60.1040   33.6370   48.0990 N   0  0  0  0  0  0  0  0  0  0  0  0
   59.0350   34.3870   47.4050 C   0  0  0  0  0  0  0  0  0  0  0  0
   58.5640   33.6550   46.1730 C   0  0  0  0  0  0  0  0  0  0  0  0
   58.8800   34.1520   44.8970 C   0  0  0  0  0  0  0  0  0  0  0  0
   58.4710   33.4660   43.7490 C   0  0  0  0  0  0  0  0  0  0  0  0
   57.7520   32.2750   43.8690 C   0  0  0  0  0  0  0  0  0  0  0  0
   57.4090   31.7870   45.1380 C   0  0  0  0  0  0  0  0  0  0  0  0
   57.8280   32.4630   46.2880 C   0  0  0  0  0  0  0  0  0  0  0  0
   56.6440   30.6210   45.2330 O   0  0  0  0  0  0  0  0  0  0  0  0
   55.9710   30.0880   44.0910 C   0  0  0  0  0  0  0  0  0  0  0  0
   56.8540   30.2240   42.8440 C   0  0  0  0  0  0  0  0  0  0  0  0
   57.3600   31.5580   42.7340 O   0  0  0  0  0  0  0  0  0  0  0  0
   59.5700   32.9110   49.2840 C   0  0  0  0  0  0  0  0  0  0  0  0
   59.3340   31.4200   49.0080 C   0  0  0  0  0  0  0  0  0  0  0  0
   58.7447   28.9194   45.0552 H   0  0  0  0  0  0  0  0  0  0  0  0
   59.6933   27.9823   43.8515 H   0  0  0  0  0  0  0  0  0  0  0  0
   57.8994   27.8883   43.8515 H   0  0  0  0  0  0  0  0  0  0  0  0
   58.1274   26.0401   45.1302 H   0  0  0  0  0  0  0  0  0  0  0  0
   59.8853   26.4103   45.4363 H   0  0  0  0  0  0  0  0  0  0  0  0
   58.2443   28.2559   46.9217 H   0  0  0  0  0  0  0  0  0  0  0  0
   57.7263   26.5431   47.2575 H   0  0  0  0  0  0  0  0  0  0  0  0
   59.4927   26.2173   48.5788 H   0  0  0  0  0  0  0  0  0  0  0  0
   60.6115   26.7083   47.2542 H   0  0  0  0  0  0  0  0  0  0  0  0
   60.0150   28.2380   49.5960 H   0  0  0  0  0  0  0  0  0  0  0  0
   61.1682   30.4528   49.5821 H   0  0  0  0  0  0  0  0  0  0  0  0
   62.3264   32.1122   48.5920 H   0  0  0  0  0  0  0  0  0  0  0  0
   62.1617   31.0630   47.1248 H   0  0  0  0  0  0  0  0  0  0  0  0
   61.5812   33.3985   46.6019 H   0  0  0  0  0  0  0  0  0  0  0  0
   60.1389   32.3049   46.4682 H   0  0  0  0  0  0  0  0  0  0  0  0
   58.1852   34.5175   48.0912 H   0  0  0  0  0  0  0  0  0  0  0  0
   59.4390   35.3625   47.0964 H   0  0  0  0  0  0  0  0  0  0  0  0
   59.4525   35.0863   44.8006 H   0  0  0  0  0  0  0  0  0  0  0  0
   58.7153   33.8640   42.7531 H   0  0  0  0  0  0  0  0  0  0  0  0
   57.5818   32.0622   47.2823 H   0  0  0  0  0  0  0  0  0  0  0  0
   55.7481   29.0248   44.2641 H   0  0  0  0  0  0  0  0  0  0  0  0
   55.0369   30.6467   43.9319 H   0  0  0  0  0  0  0  0  0  0  0  0
   57.6972   29.5215   42.9186 H   0  0  0  0  0  0  0  0  0  0  0  0
   56.2504   29.9968   41.9529 H   0  0  0  0  0  0  0  0  0  0  0  0
   60.2908   33.0063   50.1094 H   0  0  0  0  0  0  0  0  0  0  0  0
   58.5985   33.3597   49.5386 H   0  0  0  0  0  0  0  0  0  0  0  0
   58.9115   30.9478   49.9072 H   0  0  0  0  0  0  0  0  0  0  0  0
   58.6357   31.3205   48.1639 H   0  0  0  0  0  0  0  0  0  0  0  0
  1  2  1  0
  2  3  1  0
  3  4  1  0
  4  5  1  0
  5  6  1  0
  6  7  2  0
  6  8  1  0
  8  9  1  0
  9 10  1  0
 10 11  1  0
 11 12  1  0
 12 13  1  0
 13 14  2  0
 14 15  1  0
 15 16  2  0
 16 17  1  0
 17 18  2  0
 17 19  1  0
 19 20  1  0
 20 21  1  0
 21 22  1  0
 11 23  1  0
 23 24  1  0
 24  8  1  0
 18 13  1  0
 22 16  1  0
  1 25  1  0
  1 26  1  0
  1 27  1  0
  2 28  1  0
  2 29  1  0
  3 30  1  0
  3 31  1  0
  4 32  1  0
  4 33  1  0
  5 34  1  0
  8 35  1  0
  9 36  1  0
  9 37  1  0
 10 38  1  0
 10 39  1  0
 12 40  1  0
 12 41  1  0
 14 42  1  0
 15 43  1  0
 18 44  1  0
 20 45  1  0
 20 46  1  0
 21 47  1  0
 21 48  1  0
 23 49  1  0
 23 50  1  0
 24 51  1  0
 24 52  1  0
M  END
>  <UniqueID>  (16) 
16

>  <SMILES>  (16) 
CCCCNC(=O)C1CCN(Cc2ccc3c(c2)OCCO3)CC1

>  <Energy>  (16) 
52.773973194088505

>  <Genealogy>  (16) 
CCCCNC(=O)C1CCN(Cc2ccc3c(c2)OCCO3)CC1 (3D coordinates assigned)
CCCCNC(=O)C1CCN(Cc2ccc3c(c2)OCCO3)CC1 (nonaromatic ring conformer: 52.773973194088505 kcal/mol)

>  <smiles>  (16) 
CCCCNC(=O)C1CCN(Cc2ccc3c(c2)OCCO3)CC1

>  <score_type>  (16) 
oracle

>  <origin>  (16) 
adg

>  <m_score__min__energy>  (16) 
-7.8700000000000001

>  <m_primary>  (16) 
energy

$$$$
16:0
     RDKit          3D

 68 69  0  0  0  0  0  0  0  0999 V2000
   58.1810   33.2440   52.2440 C   0  0  0  0  0  0  0  0  0  0  0  0
   59.2880   33.8280   51.3700 C   0  0  0  0  0  0  0  0  0  0  0  0
   59.6800   32.8550   50.3250 N   0  0  0  0  0  0  0  0  0  0  0  0
   58.5290   32.0320   49.8910 C   0  0  0  0  0  0  0  0  0  0  0  0
   58.8400   30.5520   50.0870 C   0  0  0  0  0  0  0  0  0  0  0  0
   60.8150   32.0110   50.7680 C   0  0  0  0  0  0  0  0  0  0  0  0
   62.1430   32.7880   50.6820 C   0  0  0  0  0  0  0  0  0  0  0  0
   62.0730   33.9450   49.7660 N   0  0  0  0  0  0  0  0  0  0  0  0
   63.1290   33.9090   48.7380 C   0  0  0  0  0  0  0  0  0  0  0  0
   62.5410   33.8410   47.3190 C   0  0  0  0  0  0  0  0  0  0  0  0
   61.6200   32.6620   47.1430 C   0  0  0  0  0  0  0  0  0  0  0  0
   62.0770   31.3600   47.3900 C   0  0  0  0  0  0  0  0  0  0  0  0
   61.2240   30.2680   47.2200 C   0  0  0  0  0  0  0  0  0  0  0  0
   59.8930   30.4560   46.8040 C   0  0  0  0  0  0  0  0  0  0  0  0
   58.9780   29.2940   46.6500 C   0  0  0  0  0  0  0  0  0  0  0  0
   59.1370   28.1430   47.4440 C   0  0  0  0  0  0  0  0  0  0  0  0
   58.2800   27.0490   47.2890 C   0  0  0  0  0  0  0  0  0  0  0  0
   57.2490   27.0890   46.3410 C   0  0  0  0  0  0  0  0  0  0  0  0
   56.1640   25.7140   46.1240 S   0  0  0  0  0  0  0  0  0  0  0  0
   56.1980   24.8380   47.3470 O   0  0  0  0  0  0  0  0  0  0  0  0
   54.7710   26.2550   45.9650 O   0  0  0  0  0  0  0  0  0  0  0  0
   56.6050   24.7860   44.7000 N   0  0  0  0  0  0  0  0  0  0  0  0
   57.9880   24.2610   44.7700 C   0  0  0  0  0  0  0  0  0  0  0  0
   58.1290   22.9570   45.5680 C   0  0  0  0  0  0  0  0  0  0  0  0
   55.6140   23.7310   44.3990 C   0  0  0  0  0  0  0  0  0  0  0  0
   55.8890   23.0980   43.0390 C   0  0  0  0  0  0  0  0  0  0  0  0
   57.0790   28.2350   45.5550 C   0  0  0  0  0  0  0  0  0  0  0  0
   57.9380   29.3260   45.7020 C   0  0  0  0  0  0  0  0  0  0  0  0
   59.4430   31.7640   46.5420 C   0  0  0  0  0  0  0  0  0  0  0  0
   60.3020   32.8550   46.7050 C   0  0  0  0  0  0  0  0  0  0  0  0
   58.4403   33.3808   53.3042 H   0  0  0  0  0  0  0  0  0  0  0  0
   57.2334   33.7596   52.0288 H   0  0  0  0  0  0  0  0  0  0  0  0
   58.0716   32.1708   52.0288 H   0  0  0  0  0  0  0  0  0  0  0  0
   58.9251   34.7494   50.8911 H   0  0  0  0  0  0  0  0  0  0  0  0
   60.1623   34.0515   51.9990 H   0  0  0  0  0  0  0  0  0  0  0  0
   57.6445   32.3001   50.4875 H   0  0  0  0  0  0  0  0  0  0  0  0
   58.3327   32.2208   48.8252 H   0  0  0  0  0  0  0  0  0  0  0  0
   58.8874   30.3266   51.1626 H   0  0  0  0  0  0  0  0  0  0  0  0
   58.0495   29.9462   49.6199 H   0  0  0  0  0  0  0  0  0  0  0  0
   59.8074   30.3156   49.6199 H   0  0  0  0  0  0  0  0  0  0  0  0
   60.6470   31.6988   51.8093 H   0  0  0  0  0  0  0  0  0  0  0  0
   60.8781   31.1322   50.1094 H   0  0  0  0  0  0  0  0  0  0  0  0
   62.4030   33.1512   51.6872 H   0  0  0  0  0  0  0  0  0  0  0  0
   62.9039   32.0991   50.2866 H   0  0  0  0  0  0  0  0  0  0  0  0
   61.1460   33.9070   49.2790 H   0  0  0  0  0  0  0  0  0  0  0  0
   62.1090   34.8410   50.3090 H   0  0  0  0  0  0  0  0  0  0  0  0
   63.7430   34.8174   48.8260 H   0  0  0  0  0  0  0  0  0  0  0  0
   63.7349   33.0055   48.9011 H   0  0  0  0  0  0  0  0  0  0  0  0
   61.9760   34.7646   47.1246 H   0  0  0  0  0  0  0  0  0  0  0  0
   63.3757   33.7273   46.6116 H   0  0  0  0  0  0  0  0  0  0  0  0
   63.1138   31.1978   47.7197 H   0  0  0  0  0  0  0  0  0  0  0  0
   61.5959   29.2510   47.4131 H   0  0  0  0  0  0  0  0  0  0  0  0
   59.9420   28.1036   48.1926 H   0  0  0  0  0  0  0  0  0  0  0  0
   58.4157   26.1537   47.9136 H   0  0  0  0  0  0  0  0  0  0  0  0
   58.3389   24.0766   43.7439 H   0  0  0  0  0  0  0  0  0  0  0  0
   58.5864   25.0190   45.2967 H   0  0  0  0  0  0  0  0  0  0  0  0
   58.1047   23.1815   46.6446 H   0  0  0  0  0  0  0  0  0  0  0  0
   57.2987   22.2811   45.3156 H   0  0  0  0  0  0  0  0  0  0  0  0
   59.0846   22.4742   45.3156 H   0  0  0  0  0  0  0  0  0  0  0  0
   55.6682   22.9538   45.1756 H   0  0  0  0  0  0  0  0  0  0  0  0
   54.6123   24.1851   44.3792 H   0  0  0  0  0  0  0  0  0  0  0  0
   56.3236   22.0976   43.1814 H   0  0  0  0  0  0  0  0  0  0  0  0
   54.9471   23.0121   42.4774 H   0  0  0  0  0  0  0  0  0  0  0  0
   56.5946   23.7278   42.4774 H   0  0  0  0  0  0  0  0  0  0  0  0
   56.2640   28.2762   44.8174 H   0  0  0  0  0  0  0  0  0  0  0  0
   57.8009   30.2173   45.0721 H   0  0  0  0  0  0  0  0  0  0  0  0
   58.4084   31.9288   46.2067 H   0  0  0  0  0  0  0  0  0  0  0  0
   59.9415   33.8714   46.4882 H   0  0  0  0  0  0  0  0  0  0  0  0
  1  2  1  0
  2  3  1  0
  3  4  1  0
  4  5  1  0
  3  6  1  0
  6  7  1  0
  7  8  1  0
  8  9  1  0
  9 10  1  0
 10 11  1  0
 11 12  2  0
 12 13  1  0
 13 14  2  0
 14 15  1  0
 15 16  2  0
 16 17  1  0
 17 18  2  0
 18 19  1  0
 19 20  2  0
 19 21  2  0
 19 22  1  0
 22 23  1  0
 23 24  1  0
 22 25  1  0
 25 26  1  0
 18 27  1  0
 27 28  2  0
 14 29  1  0
 29 30  2  0
 30 11  1  0
 28 15  1  0
  1 31  1  0
  1 32  1  0
  1 33  1  0
  2 34  1  0
  2 35  1  0
  4 36  1  0
  4 37  1  0
  5 38  1  0
  5 39  1  0
  5 40  1  0
  6 41  1  0
  6 42  1  0
  7 43  1  0
  7 44  1  0
  8 45  1  0
  8 46  1  0
  9 47  1  0
  9 48  1  0
 10 49  1  0
 10 50  1  0
 12 51  1  0
 13 52  1  0
 16 53  1  0
 17 54  1  0
 23 55  1  0
 23 56  1  0
 24 57  1  0
 24 58  1  0
 24 59  1  0
 25 60  1  0
 25 61  1  0
 26 62  1  0
 26 63  1  0
 26 64  1  0
 27 65  1  0
 28 66  1  0
 29 67  1  0
 30 68  1  0
M  CHG  1   8   1
M  END
>  <UniqueID>  (17) 
17

>  <SMILES>  (17) 
CCN(CC)CC[NH2+]CCc1ccc(-c2ccc(S(=O)(=O)N(CC)CC)cc2)cc1

>  <Energy>  (17) 
66.91113860289528

>  <Genealogy>  (17) 
CCN(CC)CC[NH2+]CCc1ccc(-c2ccc(S(=O)(=O)N(CC)CC)cc2)cc1 (protonated)
CCN(CC)CC[NH2+]CCc1ccc(-c2ccc(S(=O)(=O)N(CC)CC)cc2)cc1 (3D coordinates assigned)
CCN(CC)CC[NH2+]CCc1ccc(-c2ccc(S(=O)(=O)N(CC)CC)cc2)cc1 (optimized conformer: 66.91113860289528 kcal/mol)

>  <smiles>  (17) 
CCN(CC)CCNCCc1ccc(-c2ccc(S(=O)(=O)N(CC)CC)cc2)cc1

>  <score_type>  (17) 
oracle

>  <origin>  (17) 
adg

>  <m_score__min__energy>  (17) 
-6.6299999999999999

>  <m_primary>  (17) 
energy

$$$$
17:0
     RDKit          3D

 57 59  0  0  0  0  0  0  0  0999 V2000
   54.7840   26.2970   46.0110 O   0  0  0  0  0  0  0  0  0  0  0  0
   55.9980   26.4030   45.6850 C   0  0  0  0  0  0  0  0  0  0  0  0
   56.6320   27.6890   45.7100 N   0  0  0  0  0  0  0  0  0  0  0  0
   57.8010   28.0340   44.9100 C   0  0  0  0  0  0  0  0  0  0  0  0
   57.3750   28.6220   43.5610 C   0  0  0  0  0  0  0  0  0  0  0  0
   56.4860   29.8650   43.7220 C   0  0  0  0  0  0  0  0  0  0  0  0
   56.7060   30.5300   45.0170 N   0  0  0  0  0  0  0  0  0  0  0  0
   57.6760   31.6350   44.9490 C   0  0  0  0  0  0  0  0  0  0  0  0
   57.0370   33.0030   45.2500 C   0  0  0  0  0  0  0  0  0  0  0  0
   57.4720   33.4690   46.5750 N   0  0  0  0  0  0  0  0  0  0  0  0
   58.6940   34.2800   46.4870 C   0  0  0  0  0  0  0  0  0  0  0  0
   59.5440   34.1230   47.7540 C   0  0  0  0  0  0  0  0  0  0  0  0
   59.1140   32.9550   48.5290 N   0  0  0  0  0  0  0  0  0  0  0  0
   59.4160   31.5840   48.1850 C   0  0  0  0  0  0  0  0  0  0  0  0
   58.9660   30.5690   49.0560 C   0  0  0  0  0  0  0  0  0  0  0  0
   59.0650   29.1840   48.9510 C   0  0  0  0  0  0  0  0  0  0  0  0
   59.6550   28.4720   47.9270 C   0  0  0  0  0  0  0  0  0  0  0  0
   59.7050   27.0950   47.8460 C   0  0  0  0  0  0  0  0  0  0  0  0
   60.3930   26.7820   46.6910 C   0  0  0  0  0  0  0  0  0  0  0  0
   60.7900   27.8920   46.0350 N   0  0  0  0  0  0  0  0  0  0  0  0
   60.3560   28.9440   46.7550 C   0  0  0  0  0  0  0  0  0  0  0  0
   60.5900   30.2500   46.3620 C   0  0  0  0  0  0  0  0  0  0  0  0
   60.1640   31.4110   47.0020 C   0  0  0  0  0  0  0  0  0  0  0  0
   56.7630   25.2030   45.2740 C   0  0  0  0  0  0  0  0  0  0  0  0
   56.3700   24.4520   44.1490 C   0  0  0  0  0  0  0  0  0  0  0  0
   57.0900   23.3160   43.7690 C   0  0  0  0  0  0  0  0  0  0  0  0
   58.2050   22.9140   44.5050 C   0  0  0  0  0  0  0  0  0  0  0  0
   58.6050   23.6510   45.6220 C   0  0  0  0  0  0  0  0  0  0  0  0
   57.8890   24.7890   46.0070 C   0  0  0  0  0  0  0  0  0  0  0  0
   58.4051   28.7755   45.4533 H   0  0  0  0  0  0  0  0  0  0  0  0
   58.3899   27.1225   44.7301 H   0  0  0  0  0  0  0  0  0  0  0  0
   58.2766   28.9025   42.9967 H   0  0  0  0  0  0  0  0  0  0  0  0
   56.7906   27.8565   43.0294 H   0  0  0  0  0  0  0  0  0  0  0  0
   56.7162   30.5746   42.9136 H   0  0  0  0  0  0  0  0  0  0  0  0
   55.4354   29.5423   43.6773 H   0  0  0  0  0  0  0  0  0  0  0  0
   57.0360   29.8160   45.7090 H   0  0  0  0  0  0  0  0  0  0  0  0
   58.4735   31.4494   45.6835 H   0  0  0  0  0  0  0  0  0  0  0  0
   58.0699   31.6699   43.9225 H   0  0  0  0  0  0  0  0  0  0  0  0
   57.3497   33.7294   44.4855 H   0  0  0  0  0  0  0  0  0  0  0  0
   55.9414   32.9053   45.2383 H   0  0  0  0  0  0  0  0  0  0  0  0
   56.7160   34.0890   46.9540 H   0  0  0  0  0  0  0  0  0  0  0  0
   59.2813   33.9539   45.6160 H   0  0  0  0  0  0  0  0  0  0  0  0
   58.4089   35.3372   46.3824 H   0  0  0  0  0  0  0  0  0  0  0  0
   60.5985   33.9971   47.4673 H   0  0  0  0  0  0  0  0  0  0  0  0
   59.4203   35.0226   48.3748 H   0  0  0  0  0  0  0  0  0  0  0  0
   58.6580   33.1510   49.4500 H   0  0  0  0  0  0  0  0  0  0  0  0
   58.4560   30.9291   49.9617 H   0  0  0  0  0  0  0  0  0  0  0  0
   58.6267   28.5957   49.7707 H   0  0  0  0  0  0  0  0  0  0  0  0
   59.2773   26.3817   48.5659 H   0  0  0  0  0  0  0  0  0  0  0  0
   60.5926   25.7560   46.3484 H   0  0  0  0  0  0  0  0  0  0  0  0
   61.1776   30.3861   45.4421 H   0  0  0  0  0  0  0  0  0  0  0  0
   60.4591   32.3460   46.5034 H   0  0  0  0  0  0  0  0  0  0  0  0
   55.4904   24.7617   43.5656 H   0  0  0  0  0  0  0  0  0  0  0  0
   56.7768   22.7374   42.8874 H   0  0  0  0  0  0  0  0  0  0  0  0
   58.7684   22.0178   44.2060 H   0  0  0  0  0  0  0  0  0  0  0  0
   59.4857   23.3354   46.2006 H   0  0  0  0  0  0  0  0  0  0  0  0
   58.2088   25.3637   46.8887 H   0  0  0  0  0  0  0  0  0  0  0  0
  1  2  2  0
  2  3  1  0
  3  4  1  0
  4  5  1  0
  5  6  1  0
  6  7  1  0
  7  8  1  0
  8  9  1  0
  9 10  1  0
 10 11  1  0
 11 12  1  0
 12 13  1  0
 13 14  1  0
 14 15  2  0
 15 16  1  0
 16 17  2  0
 17 18  1  0
 18 19  2  0
 19 20  1  0
 20 21  2  0
 21 22  1  0
 22 23  2  0
  2 24  1  0
 24 25  2  0
 25 26  1  0
 26 27  2  0
 27 28  1  0
 28 29  2  0
 23 14  1  0
 29 24  1  0
 21 17  1  0
  4 30  1  0
  4 31  1  0
  5 32  1  0
  5 33  1  0
  6 34  1  0
  6 35  1  0
  7 36  1  0
  8 37  1  0
  8 38  1  0
  9 39  1  0
  9 40  1  0
 10 41  1  0
 11 42  1  0
 11 43  1  0
 12 44  1  0
 12 45  1  0
 13 46  1  0
 15 47  1  0
 16 48  1  0
 18 49  1  0
 19 50  1  0
 22 51  1  0
 23 52  1  0
 25 53  1  0
 26 54  1  0
 27 55  1  0
 28 56  1  0
 29 57  1  0
M  CHG  1   3  -1
M  END
>  <UniqueID>  (18) 
18

>  <SMILES>  (18) 
O=C([N-]CCCNCCNCCNc1ccc2ccnc-2cc1)c1ccccc1

>  <Energy>  (18) 
91.34691841282839

>  <Genealogy>  (18) 
O=C([N-]CCCNCCNCCNc1ccc2ccnc-2cc1)c1ccccc1 (protonated)
O=C([N-]CCCNCCNCCNc1ccc2ccnc-2cc1)c1ccccc1 (3D coordinates assigned)
O=C([N-]CCCNCCNCCNc1ccc2ccnc-2cc1)c1ccccc1 (optimized conformer: 91.34691841282839 kcal/mol)

>  <smiles>  (18) 
O=C(NCCCNCCNCCNc1ccc2ccnc-2cc1)c1ccccc1

>  <score_type>  (18) 
oracle

>  <origin>  (18) 
adg

>  <m_score__min__energy>  (18) 
-10.51

>  <m_primary>  (18) 
energy

$$$$
18:0
     RDKit          3D

 66 68  0  0  0  0  0  0  0  0999 V2000
   63.3690   33.8370   46.5150 C   0  0  0  0  0  0  0  0  0  0  0  0
   62.9950   32.5160   47.1770 C   0  0  0  0  0  0  0  0  0  0  0  0
   61.7260   32.6750   47.9330 N   0  0  0  0  0  0  0  0  0  0  0  0
   61.6770   33.9620   48.6640 C   0  0  0  0  0  0  0  0  0  0  0  0
   60.3220   34.1530   49.3450 C   0  0  0  0  0  0  0  0  0  0  0  0
   61.4870   31.5420   48.8550 C   0  0  0  0  0  0  0  0  0  0  0  0
   60.9320   30.3210   48.1100 C   0  0  0  0  0  0  0  0  0  0  0  0
   59.4870   30.4390   47.9130 N   0  0  0  0  0  0  0  0  0  0  0  0
   58.9080   30.5070   46.5980 C   0  0  0  0  0  0  0  0  0  0  0  0
   58.5630   31.7500   46.0390 C   0  0  0  0  0  0  0  0  0  0  0  0
   58.7440   32.9470   46.7660 C   0  0  0  0  0  0  0  0  0  0  0  0
   58.4630   34.1810   46.1860 C   0  0  0  0  0  0  0  0  0  0  0  0
   58.0050   34.2460   44.8750 C   0  0  0  0  0  0  0  0  0  0  0  0
   57.7840   33.0750   44.1500 C   0  0  0  0  0  0  0  0  0  0  0  0
   58.0110   31.8000   44.7290 C   0  0  0  0  0  0  0  0  0  0  0  0
   57.7190   30.6310   44.0540 N   0  0  0  0  0  0  0  0  0  0  0  0
   56.8840   30.6740   42.8320 C   0  0  0  0  0  0  0  0  0  0  0  0
   58.1720   29.4180   44.5390 C   0  0  0  0  0  0  0  0  0  0  0  0
   58.1140   28.2340   43.7600 C   0  0  0  0  0  0  0  0  0  0  0  0
   58.5280   27.0080   44.2770 C   0  0  0  0  0  0  0  0  0  0  0  0
   59.0290   26.9210   45.5760 C   0  0  0  0  0  0  0  0  0  0  0  0
   59.4610   25.5870   46.1270 C   0  0  0  0  0  0  0  0  0  0  0  0
   58.2850   24.7150   46.3370 N   0  0  0  0  0  0  0  0  0  0  0  0
   57.1310   25.4640   46.8950 C   0  0  0  0  0  0  0  0  0  0  0  0
   55.9030   25.5120   45.9750 C   0  0  0  0  0  0  0  0  0  0  0  0
   57.9640   23.9350   45.1170 C   0  0  0  0  0  0  0  0  0  0  0  0
   58.8780   22.7220   44.9640 C   0  0  0  0  0  0  0  0  0  0  0  0
   59.1250   28.0790   46.3530 C   0  0  0  0  0  0  0  0  0  0  0  0
   58.7310   29.3340   45.8420 C   0  0  0  0  0  0  0  0  0  0  0  0
   63.5817   34.5882   47.2899 H   0  0  0  0  0  0  0  0  0  0  0  0
   64.2618   33.6934   45.8887 H   0  0  0  0  0  0  0  0  0  0  0  0
   62.5334   34.1828   45.8887 H   0  0  0  0  0  0  0  0  0  0  0  0
   62.8658   31.7438   46.4044 H   0  0  0  0  0  0  0  0  0  0  0  0
   63.7957   32.2165   47.8692 H   0  0  0  0  0  0  0  0  0  0  0  0
   62.4683   33.9723   49.4280 H   0  0  0  0  0  0  0  0  0  0  0  0
   61.8262   34.7802   47.9441 H   0  0  0  0  0  0  0  0  0  0  0  0
   60.4545   34.1343   50.4368 H   0  0  0  0  0  0  0  0  0  0  0  0
   59.8935   35.1204   49.0441 H   0  0  0  0  0  0  0  0  0  0  0  0
   59.6428   33.3417   49.0441 H   0  0  0  0  0  0  0  0  0  0  0  0
   62.4367   31.2661   49.3366 H   0  0  0  0  0  0  0  0  0  0  0  0
   60.7459   31.8563   49.6046 H   0  0  0  0  0  0  0  0  0  0  0  0
   61.4237   30.2441   47.1290 H   0  0  0  0  0  0  0  0  0  0  0  0
   61.1313   29.4225   48.7125 H   0  0  0  0  0  0  0  0  0  0  0  0
   58.8550   30.2570   48.7260 H   0  0  0  0  0  0  0  0  0  0  0  0
   59.1111   32.9039   47.8020 H   0  0  0  0  0  0  0  0  0  0  0  0
   58.6035   35.1054   46.7655 H   0  0  0  0  0  0  0  0  0  0  0  0
   57.8163   35.2239   44.4080 H   0  0  0  0  0  0  0  0  0  0  0  0
   57.4276   33.1414   43.1115 H   0  0  0  0  0  0  0  0  0  0  0  0
   55.8224   30.7287   43.1150 H   0  0  0  0  0  0  0  0  0  0  0  0
   57.1508   31.5596   42.2366 H   0  0  0  0  0  0  0  0  0  0  0  0
   57.0584   29.7657   42.2366 H   0  0  0  0  0  0  0  0  0  0  0  0
   57.7351   28.2846   42.7285 H   0  0  0  0  0  0  0  0  0  0  0  0
   58.4593   26.1024   43.6564 H   0  0  0  0  0  0  0  0  0  0  0  0
   60.1478   25.1054   45.4154 H   0  0  0  0  0  0  0  0  0  0  0  0
   59.9674   25.7442   47.0907 H   0  0  0  0  0  0  0  0  0  0  0  0
   56.8346   24.9856   47.8401 H   0  0  0  0  0  0  0  0  0  0  0  0
   57.4653   26.5035   47.0277 H   0  0  0  0  0  0  0  0  0  0  0  0
   54.9887   25.5477   46.5855 H   0  0  0  0  0  0  0  0  0  0  0  0
   55.9553   26.4088   45.3401 H   0  0  0  0  0  0  0  0  0  0  0  0
   55.8851   24.6139   45.3401 H   0  0  0  0  0  0  0  0  0  0  0  0
   56.9214   23.5899   45.1789 H   0  0  0  0  0  0  0  0  0  0  0  0
   58.1127   24.5879   44.2443 H   0  0  0  0  0  0  0  0  0  0  0  0
   59.1601   22.3476   45.9591 H   0  0  0  0  0  0  0  0  0  0  0  0
   58.3490   21.9316   44.4113 H   0  0  0  0  0  0  0  0  0  0  0  0
   59.7836   23.0126   44.4113 H   0  0  0  0  0  0  0  0  0  0  0  0
   59.5141   28.0109   47.3796 H   0  0  0  0  0  0  0  0  0  0  0  0
  1  2  1  0
  2  3  1  0
  3  4  1  0
  4  5  1  0
  3  6  1  0
  6  7  1  0
  7  8  1  0
  8  9  1  0
  9 10  2  0
 10 11  1  0
 11 12  2  0
 12 13  1  0
 13 14  2  0
 14 15  1  0
 15 16  2  0
 16 17  1  0
 16 18  1  0
 18 19  2  0
 19 20  1  0
 20 21  2  0
 21 22  1  0
 22 23  1  0
 23 24  1  0
 24 25  1  0
 23 26  1  0
 26 27  1  0
 21 28  1  0
 28 29  2  0
 29  9  1  0
 15 10  1  0
 29 18  1  0
  1 30  1  0
  1 31  1  0
  1 32  1  0
  2 33  1  0
  2 34  1  0
  4 35  1  0
  4 36  1  0
  5 37  1  0
  5 38  1  0
  5 39  1  0
  6 40  1  0
  6 41  1  0
  7 42  1  0
  7 43  1  0
  8 44  1  0
 11 45  1  0
 12 46  1  0
 13 47  1  0
 14 48  1  0
 17 49  1  0
 17 50  1  0
 17 51  1  0
 19 52  1  0
 20 53  1  0
 22 54  1  0
 22 55  1  0
 24 56  1  0
 24 57  1  0
 25 58  1  0
 25 59  1  0
 25 60  1  0
 26 61  1  0
 26 62  1  0
 27 63  1  0
 27 64  1  0
 27 65  1  0
 28 66  1  0
M  CHG  1  16   1
M  END
>  <UniqueID>  (19) 
19

>  <SMILES>  (19) 
CCN(CC)CCNc1c2ccccc2[n+](C)c2ccc(CN(CC)CC)cc12

>  <Energy>  (19) 
88.72685867687571

>  <Genealogy>  (19) 
CCN(CC)CCNc1c2ccccc2[n+](C)c2ccc(CN(CC)CC)cc12 (3D coordinates assigned)
CCN(CC)CCNc1c2ccccc2[n+](C)c2ccc(CN(CC)CC)cc12 (optimized conformer: 88.72685867687571 kcal/mol)

>  <smiles>  (19) 
CCN(CC)CCNc1c2ccccc2[n+](C)c2ccc(CN(CC)CC)cc12

>  <score_type>  (19) 
oracle

>  <origin>  (19) 
adg

>  <m_score__min__energy>  (19) 
-6.1299999999999999

>  <m_primary>  (19) 
energy

$$$$
19:0
     RDKit          3D

 42 43  0  0  0  0  0  0  0  0999 V2000
   62.1890   33.8570   48.7880 C   0  0  0  0  0  0  0  0  0  0  0  0
   62.7020   33.0910   47.5910 C   0  0  0  0  0  0  0  0  0  0  0  0
   63.2640   33.8380   46.4110 C   0  0  0  0  0  0  0  0  0  0  0  0
   62.6680   31.7430   47.5500 C   0  0  0  0  0  0  0  0  0  0  0  0
   61.5360   30.9650   46.9290 C   0  0  0  0  0  0  0  0  0  0  0  0
   60.7180   30.3300   47.9690 N   0  0  0  0  0  0  0  0  0  0  0  0
   61.1510   30.4060   49.3680 C   0  0  0  0  0  0  0  0  0  0  0  0
   59.4960   29.6300   47.6570 C   0  0  0  0  0  0  0  0  0  0  0  0
   58.6960   29.3370   48.5880 O   0  0  0  0  0  0  0  0  0  0  0  0
   59.1100   29.2690   46.2440 C   0  0  0  0  0  0  0  0  0  0  0  0
   57.7890   29.9330   45.8430 C   0  0  0  0  0  0  0  0  0  0  0  0
   58.0330   31.1820   45.1180 N   0  0  0  0  0  0  0  0  0  0  0  0
   57.8480   31.3820   43.7910 C   0  0  0  0  0  0  0  0  0  0  0  0
   58.1330   32.6990   43.4490 C   0  0  0  0  0  0  0  0  0  0  0  0
   58.4980   33.3110   44.6300 C   0  0  0  0  0  0  0  0  0  0  0  0
   58.8840   34.6240   44.8830 C   0  0  0  0  0  0  0  0  0  0  0  0
   59.2050   34.9710   46.2070 C   0  0  0  0  0  0  0  0  0  0  0  0
   59.1220   34.0090   47.2380 C   0  0  0  0  0  0  0  0  0  0  0  0
   58.7210   32.6910   46.9540 C   0  0  0  0  0  0  0  0  0  0  0  0
   58.4230   32.3700   45.6260 C   0  0  0  0  0  0  0  0  0  0  0  0
   62.5217   33.3602   49.7113 H   0  0  0  0  0  0  0  0  0  0  0  0
   62.5821   34.8840   48.7621 H   0  0  0  0  0  0  0  0  0  0  0  0
   61.0896   33.8845   48.7621 H   0  0  0  0  0  0  0  0  0  0  0  0
   63.8896   34.6695   46.7676 H   0  0  0  0  0  0  0  0  0  0  0  0
   63.8742   33.1552   45.8016 H   0  0  0  0  0  0  0  0  0  0  0  0
   62.4388   34.2351   45.8016 H   0  0  0  0  0  0  0  0  0  0  0  0
   63.5069   31.1846   47.9910 H   0  0  0  0  0  0  0  0  0  0  0  0
   60.9066   31.6489   46.3406 H   0  0  0  0  0  0  0  0  0  0  0  0
   61.9559   30.1829   46.2794 H   0  0  0  0  0  0  0  0  0  0  0  0
   60.2848   30.2540   50.0287 H   0  0  0  0  0  0  0  0  0  0  0  0
   61.9018   29.6259   49.5624 H   0  0  0  0  0  0  0  0  0  0  0  0
   61.5912   31.3951   49.5624 H   0  0  0  0  0  0  0  0  0  0  0  0
   59.9025   29.6044   45.5589 H   0  0  0  0  0  0  0  0  0  0  0  0
   58.9828   28.1779   46.1860 H   0  0  0  0  0  0  0  0  0  0  0  0
   57.2218   29.2463   45.1974 H   0  0  0  0  0  0  0  0  0  0  0  0
   57.2181   30.1609   46.7552 H   0  0  0  0  0  0  0  0  0  0  0  0
   57.5177   30.6088   43.0817 H   0  0  0  0  0  0  0  0  0  0  0  0
   58.0789   33.1556   42.4497 H   0  0  0  0  0  0  0  0  0  0  0  0
   58.9362   35.3664   44.0730 H   0  0  0  0  0  0  0  0  0  0  0  0
   59.5227   35.9977   46.4415 H   0  0  0  0  0  0  0  0  0  0  0  0
   59.3728   34.2927   48.2708 H   0  0  0  0  0  0  0  0  0  0  0  0
   58.6443   31.9369   47.7511 H   0  0  0  0  0  0  0  0  0  0  0  0
  1  2  1  0
  2  3  1  0
  2  4  2  3
  4  5  1  0
  5  6  1  0
  6  7  1  0
  6  8  1  0
  8  9  2  0
  8 10  1  0
 10 11  1  0
 11 12  1  0
 12 13  1  0
 13 14  2  0
 14 15  1  0
 15 16  2  0
 16 17  1  0
 17 18  2  0
 18 19  1  0
 19 20  2  0
 20 12  1  0
 20 15  1  0
  1 21  1  0
  1 22  1  0
  1 23  1  0
  3 24  1  0
  3 25  1  0
  3 26  1  0
  4 27  1  0
  5 28  1  0
  5 29  1  0
  7 30  1  0
  7 31  1  0
  7 32  1  0
 10 33  1  0
 10 34  1  0
 11 35  1  0
 11 36  1  0
 13 37  1  0
 14 38  1  0
 16 39  1  0
 17 40  1  0
 18 41  1  0
 19 42  1  0
M  END
>  <UniqueID>  (20) 
20

>  <SMILES>  (20) 
CC(C)=CCN(C)C(=O)CCn1ccc2ccccc21

>  <Energy>  (20) 
62.15951189151613

>  <Genealogy>  (20) 
CC(C)=CCN(C)C(=O)CCn1ccc2ccccc21 (3D coordinates assigned)
CC(C)=CCN(C)C(=O)CCn1ccc2ccccc21 (optimized conformer: 62.15951189151613 kcal/mol)

>  <smiles>  (20) 
CC(C)=CCN(C)C(=O)CCn1ccc2ccccc21

>  <score_type>  (20) 
oracle

>  <origin>  (20) 
adg

>  <m_score__min__energy>  (20) 
-6.6100000000000003

>  <m_primary>  (20) 
energy

$$$$
20:0
     RDKit          3D

 58 60  0  0  0  0  0  0  0  0999 V2000
   62.0560   30.6690   49.8030 C   0  0  0  0  0  0  0  0  0  0  0  0
   62.1840   31.0210   48.3220 C   0  0  0  0  0  0  0  0  0  0  0  0
   62.3870   32.4750   48.1250 N   0  0  0  0  0  0  0  0  0  0  0  0
   63.6070   32.7620   47.3240 C   0  0  0  0  0  0  0  0  0  0  0  0
   63.3370   33.9280   46.3800 C   0  0  0  0  0  0  0  0  0  0  0  0
   62.4180   33.1720   49.4330 C   0  0  0  0  0  0  0  0  0  0  0  0
   61.8240   34.5830   49.3160 C   0  0  0  0  0  0  0  0  0  0  0  0
   60.3630   34.5230   49.2500 N   0  0  0  0  0  0  0  0  0  0  0  0
   59.6440   33.5010   48.5310 C   0  0  0  0  0  0  0  0  0  0  0  0
   59.2740   32.3220   49.1930 C   0  0  0  0  0  0  0  0  0  0  0  0
   58.6170   31.3020   48.5130 C   0  0  0  0  0  0  0  0  0  0  0  0
   58.3210   31.4340   47.1590 C   0  0  0  0  0  0  0  0  0  0  0  0
   58.6750   32.6010   46.4530 C   0  0  0  0  0  0  0  0  0  0  0  0
   58.3800   32.7570   45.0700 C   0  0  0  0  0  0  0  0  0  0  0  0
   57.6010   31.4820   44.1110 S   0  0  0  0  0  0  0  0  0  0  0  0
   57.4260   31.9620   42.6990 O   0  0  0  0  0  0  0  0  0  0  0  0
   56.2530   31.1470   44.6860 O   0  0  0  0  0  0  0  0  0  0  0  0
   58.5730   30.0420   44.0850 N   0  0  0  0  0  0  0  0  0  0  0  0
   58.4090   28.9520   45.0140 C   0  0  0  0  0  0  0  0  0  0  0  0
   57.2100   28.2150   45.0350 C   0  0  0  0  0  0  0  0  0  0  0  0
   57.0150   27.1970   45.9650 C   0  0  0  0  0  0  0  0  0  0  0  0
   58.0040   26.9070   46.9000 C   0  0  0  0  0  0  0  0  0  0  0  0
   59.2050   27.6220   46.9100 C   0  0  0  0  0  0  0  0  0  0  0  0
   60.4790   27.1710   48.2750 Br  0  0  0  0  0  0  0  0  0  0  0  0
   59.4330   28.6390   45.9490 C   0  0  0  0  0  0  0  0  0  0  0  0
   60.7340   29.4050   45.9320 C   0  0  0  0  0  0  0  0  0  0  0  0
   58.7030   33.9620   44.4300 C   0  0  0  0  0  0  0  0  0  0  0  0
   59.3200   34.9970   45.1250 C   0  0  0  0  0  0  0  0  0  0  0  0
   59.6330   34.8500   46.4730 C   0  0  0  0  0  0  0  0  0  0  0  0
   59.3330   33.6550   47.1550 C   0  0  0  0  0  0  0  0  0  0  0  0
   62.3689   31.5294   50.4127 H   0  0  0  0  0  0  0  0  0  0  0  0
   61.0094   30.4190   50.0313 H   0  0  0  0  0  0  0  0  0  0  0  0
   62.6976   29.8051   50.0313 H   0  0  0  0  0  0  0  0  0  0  0  0
   63.0430   30.4796   47.8989 H   0  0  0  0  0  0  0  0  0  0  0  0
   61.2509   30.7313   47.8166 H   0  0  0  0  0  0  0  0  0  0  0  0
   64.4354   33.0221   47.9993 H   0  0  0  0  0  0  0  0  0  0  0  0
   63.8760   31.8716   46.7368 H   0  0  0  0  0  0  0  0  0  0  0  0
   63.1272   34.8342   46.9672 H   0  0  0  0  0  0  0  0  0  0  0  0
   64.2195   34.0982   45.7458 H   0  0  0  0  0  0  0  0  0  0  0  0
   62.4695   33.6930   45.7458 H   0  0  0  0  0  0  0  0  0  0  0  0
   61.8323   32.5941   50.1631 H   0  0  0  0  0  0  0  0  0  0  0  0
   63.4644   33.2572   49.7612 H   0  0  0  0  0  0  0  0  0  0  0  0
   62.1222   35.1747   50.1940 H   0  0  0  0  0  0  0  0  0  0  0  0
   62.2017   35.0516   48.3952 H   0  0  0  0  0  0  0  0  0  0  0  0
   59.8230   35.2480   49.7740 H   0  0  0  0  0  0  0  0  0  0  0  0
   59.5057   32.2023   50.2616 H   0  0  0  0  0  0  0  0  0  0  0  0
   58.3294   30.3851   49.0484 H   0  0  0  0  0  0  0  0  0  0  0  0
   57.8044   30.6171   46.6338 H   0  0  0  0  0  0  0  0  0  0  0  0
   59.2970   29.9890   43.3340 H   0  0  0  0  0  0  0  0  0  0  0  0
   56.4174   28.4460   44.3080 H   0  0  0  0  0  0  0  0  0  0  0  0
   56.0777   26.6212   45.9605 H   0  0  0  0  0  0  0  0  0  0  0  0
   57.8392   26.1080   47.6378 H   0  0  0  0  0  0  0  0  0  0  0  0
   61.0600   29.5969   46.9649 H   0  0  0  0  0  0  0  0  0  0  0  0
   61.5006   28.8141   45.4094 H   0  0  0  0  0  0  0  0  0  0  0  0
   60.5892   30.3620   45.4094 H   0  0  0  0  0  0  0  0  0  0  0  0
   58.4652   34.0906   43.3637 H   0  0  0  0  0  0  0  0  0  0  0  0
   59.5618   35.9365   44.6064 H   0  0  0  0  0  0  0  0  0  0  0  0
   60.1200   35.6762   47.0116 H   0  0  0  0  0  0  0  0  0  0  0  0
  1  2  1  0
  2  3  1  0
  3  4  1  0
  4  5  1  0
  3  6  1  0
  6  7  1  0
  7  8  1  0
  8  9  1  0
  9 10  2  0
 10 11  1  0
 11 12  2  0
 12 13  1  0
 13 14  2  0
 14 15  1  0
 15 16  2  0
 15 17  2  0
 15 18  1  0
 18 19  1  0
 19 20  2  0
 20 21  1  0
 21 22  2  0
 22 23  1  0
 23 24  1  0
 23 25  2  0
 25 26  1  0
 14 27  1  0
 27 28  2  0
 28 29  1  0
 29 30  2  0
 30  9  1  0
 30 13  1  0
 25 19  1  0
  1 31  1  0
  1 32  1  0
  1 33  1  0
  2 34  1  0
  2 35  1  0
  4 36  1  0
  4 37  1  0
  5 38  1  0
  5 39  1  0
  5 40  1  0
  6 41  1  0
  6 42  1  0
  7 43  1  0
  7 44  1  0
  8 45  1  0
 10 46  1  0
 11 47  1  0
 12 48  1  0
 18 49  1  0
 20 50  1  0
 21 51  1  0
 22 52  1  0
 26 53  1  0
 26 54  1  0
 26 55  1  0
 27 56  1  0
 28 57  1  0
 29 58  1  0
M  END
>  <UniqueID>  (21) 
21

>  <SMILES>  (21) 
CCN(CC)CCNc1cccc2c(S(=O)(=O)Nc3cccc(Br)c3C)cccc12

>  <Energy>  (21) 
75.30854212587576

>  <Genealogy>  (21) 
CCN(CC)CCNc1cccc2c(S(=O)(=O)Nc3cccc(Br)c3C)cccc12 (3D coordinates assigned)
CCN(CC)CCNc1cccc2c(S(=O)(=O)Nc3cccc(Br)c3C)cccc12 (optimized conformer: 75.30854212587576 kcal/mol)

>  <smiles>  (21) 
CCN(CC)CCNc1cccc2c(S(=O)(=O)Nc3cccc(Br)c3C)cccc12

>  <score_type>  (21) 
oracle

>  <origin>  (21) 
adg

>  <m_score__min__energy>  (21) 
-9.7200000000000006

>  <m_primary>  (21) 
energy

$$$$
21:0
     RDKit          3D

 79 82  0  0  0  0  0  0  0  0999 V2000
   59.1810   28.9490   44.7740 C   0  0  0  0  0  0  0  0  0  0  0  0
   57.7080   29.1150   45.1350 C   0  0  0  0  0  0  0  0  0  0  0  0
   57.3650   30.5530   45.2340 N   0  0  0  0  0  0  0  0  0  0  0  0
   56.5240   30.9870   44.0940 C   0  0  0  0  0  0  0  0  0  0  0  0
   55.6000   29.8520   43.6590 C   0  0  0  0  0  0  0  0  0  0  0  0
   58.5820   31.3900   45.3550 C   0  0  0  0  0  0  0  0  0  0  0  0
   58.8160   31.8120   46.8140 C   0  0  0  0  0  0  0  0  0  0  0  0
   59.6830   30.8540   47.5200 N   0  0  0  0  0  0  0  0  0  0  0  0
   60.3570   31.5010   48.6360 C   0  0  0  0  0  0  0  0  0  0  0  0
   61.5350   32.2650   48.4230 C   0  0  0  0  0  0  0  0  0  0  0  0
   62.1740   32.3120   47.1580 C   0  0  0  0  0  0  0  0  0  0  0  0
   63.2600   33.1500   46.9310 C   0  0  0  0  0  0  0  0  0  0  0  0
   63.7380   33.9590   47.9510 C   0  0  0  0  0  0  0  0  0  0  0  0
   63.1680   33.8920   49.2190 C   0  0  0  0  0  0  0  0  0  0  0  0
   62.1000   33.0020   49.5010 C   0  0  0  0  0  0  0  0  0  0  0  0
   61.6040   32.8560   50.7820 N   0  0  0  0  0  0  0  0  0  0  0  0
   62.3720   33.3820   51.9350 C   0  0  0  0  0  0  0  0  0  0  0  0
   60.4260   32.1690   50.9990 C   0  0  0  0  0  0  0  0  0  0  0  0
   59.7840   32.1880   52.2640 C   0  0  0  0  0  0  0  0  0  0  0  0
   58.6580   31.4130   52.5180 C   0  0  0  0  0  0  0  0  0  0  0  0
   58.1170   30.6070   51.5130 C   0  0  0  0  0  0  0  0  0  0  0  0
   57.0020   29.7830   51.7240 O   0  0  0  0  0  0  0  0  0  0  0  0
   56.6370   29.2060   52.9740 C   0  0  0  0  0  0  0  0  0  0  0  0
   55.4960   30.0100   53.6490 C   0  0  0  0  0  0  0  0  0  0  0  0
   54.1070   29.8610   53.0730 N   0  0  0  0  0  0  0  0  0  0  0  0
   53.7760   28.4060   53.0520 C   0  0  0  0  0  0  0  0  0  0  0  0
   53.1930   30.5670   54.0440 C   0  0  0  0  0  0  0  0  0  0  0  0
   51.6920   30.2110   54.0450 C   0  0  0  0  0  0  0  0  0  0  0  0
   50.9580   30.3710   52.7070 C   0  0  0  0  0  0  0  0  0  0  0  0
   51.6250   31.3280   51.6990 C   0  0  0  0  0  0  0  0  0  0  0  0
   52.7880   30.7110   50.9240 C   0  0  0  0  0  0  0  0  0  0  0  0
   54.1190   30.4570   51.6880 C   0  0  0  0  0  0  0  0  0  0  0  0
   58.6930   30.6220   50.2450 C   0  0  0  0  0  0  0  0  0  0  0  0
   59.8200   31.4270   49.9480 C   0  0  0  0  0  0  0  0  0  0  0  0
   59.7789   28.8816   45.6949 H   0  0  0  0  0  0  0  0  0  0  0  0
   59.3125   28.0303   44.1834 H   0  0  0  0  0  0  0  0  0  0  0  0
   59.5137   29.8153   44.1834 H   0  0  0  0  0  0  0  0  0  0  0  0
   57.0880   28.6462   44.3567 H   0  0  0  0  0  0  0  0  0  0  0  0
   57.5196   28.6331   46.1057 H   0  0  0  0  0  0  0  0  0  0  0  0
   55.9177   31.8528   44.3985 H   0  0  0  0  0  0  0  0  0  0  0  0
   57.1754   31.2627   43.2516 H   0  0  0  0  0  0  0  0  0  0  0  0
   55.1916   29.3503   44.5486 H   0  0  0  0  0  0  0  0  0  0  0  0
   54.7749   30.2610   43.0575 H   0  0  0  0  0  0  0  0  0  0  0  0
   56.1679   29.1270   43.0575 H   0  0  0  0  0  0  0  0  0  0  0  0
   59.4510   30.8147   45.0029 H   0  0  0  0  0  0  0  0  0  0  0  0
   58.4472   32.2955   44.7451 H   0  0  0  0  0  0  0  0  0  0  0  0
   59.2931   32.8031   46.8274 H   0  0  0  0  0  0  0  0  0  0  0  0
   57.8428   31.8392   47.3259 H   0  0  0  0  0  0  0  0  0  0  0  0
   60.3750   30.4300   46.8640 H   0  0  0  0  0  0  0  0  0  0  0  0
   59.1350   30.0250   47.8400 H   0  0  0  0  0  0  0  0  0  0  0  0
   61.8039   31.6741   46.3418 H   0  0  0  0  0  0  0  0  0  0  0  0
   63.7404   33.1713   45.9417 H   0  0  0  0  0  0  0  0  0  0  0  0
   64.5683   34.6542   47.7577 H   0  0  0  0  0  0  0  0  0  0  0  0
   63.5533   34.5421   50.0183 H   0  0  0  0  0  0  0  0  0  0  0  0
   61.8963   33.0562   52.8718 H   0  0  0  0  0  0  0  0  0  0  0  0
   63.4024   32.9991   51.8946 H   0  0  0  0  0  0  0  0  0  0  0  0
   62.3874   34.4811   51.8946 H   0  0  0  0  0  0  0  0  0  0  0  0
   60.1860   32.8301   53.0615 H   0  0  0  0  0  0  0  0  0  0  0  0
   58.1913   31.4344   53.5139 H   0  0  0  0  0  0  0  0  0  0  0  0
   56.2983   28.1728   52.8073 H   0  0  0  0  0  0  0  0  0  0  0  0
   57.5152   29.2234   53.6361 H   0  0  0  0  0  0  0  0  0  0  0  0
   55.4515   29.6986   54.7031 H   0  0  0  0  0  0  0  0  0  0  0  0
   55.7583   31.0653   53.4829 H   0  0  0  0  0  0  0  0  0  0  0  0
   53.6914   28.0343   54.0838 H   0  0  0  0  0  0  0  0  0  0  0  0
   52.8205   28.2548   52.5283 H   0  0  0  0  0  0  0  0  0  0  0  0
   54.5721   27.8564   52.5283 H   0  0  0  0  0  0  0  0  0  0  0  0
   53.5746   30.3615   55.0550 H   0  0  0  0  0  0  0  0  0  0  0  0
   53.2171   31.6169   53.7165 H   0  0  0  0  0  0  0  0  0  0  0  0
   51.5962   29.1606   54.3571 H   0  0  0  0  0  0  0  0  0  0  0  0
   51.2187   30.9309   54.7289 H   0  0  0  0  0  0  0  0  0  0  0  0
   50.8873   29.3787   52.2376 H   0  0  0  0  0  0  0  0  0  0  0  0
   49.9812   30.8159   52.9477 H   0  0  0  0  0  0  0  0  0  0  0  0
   50.8626   31.6532   50.9758 H   0  0  0  0  0  0  0  0  0  0  0  0
   52.0418   32.1616   52.2832 H   0  0  0  0  0  0  0  0  0  0  0  0
   52.4441   29.7416   50.5341 H   0  0  0  0  0  0  0  0  0  0  0  0
   53.0450   31.4653   50.1658 H   0  0  0  0  0  0  0  0  0  0  0  0
   54.7184   29.7816   51.0599 H   0  0  0  0  0  0  0  0  0  0  0  0
   54.5019   31.4737   51.8606 H   0  0  0  0  0  0  0  0  0  0  0  0
   58.2613   29.9921   49.4533 H   0  0  0  0  0  0  0  0  0  0  0  0
  1  2  1  0
  2  3  1  0
  3  4  1  0
  4  5  1  0
  3  6  1  0
  6  7  1  0
  7  8  1  0
  8  9  1  0
  9 10  2  0
 10 11  1  0
 11 12  2  0
 12 13  1  0
 13 14  2  0
 14 15  1  0
 15 16  2  0
 16 17  1  0
 16 18  1  0
 18 19  2  0
 19 20  1  0
 20 21  2  0
 21 22  1  0
 22 23  1  0
 23 24  1  0
 24 25  1  0
 25 26  1  0
 25 27  1  0
 27 28  1  0
 28 29  1  0
 29 30  1  0
 30 31  1  0
 31 32  1  0
 21 33  1  0
 33 34  2  0
 34  9  1  0
 15 10  1  0
 34 18  1  0
 32 25  1  0
  1 35  1  0
  1 36  1  0
  1 37  1  0
  2 38  1  0
  2 39  1  0
  4 40  1  0
  4 41  1  0
  5 42  1  0
  5 43  1  0
  5 44  1  0
  6 45  1  0
  6 46  1  0
  7 47  1  0
  7 48  1  0
  8 49  1  0
  8 50  1  0
 11 51  1  0
 12 52  1  0
 13 53  1  0
 14 54  1  0
 17 55  1  0
 17 56  1  0
 17 57  1  0
 19 58  1  0
 20 59  1  0
 23 60  1  0
 23 61  1  0
 24 62  1  0
 24 63  1  0
 26 64  1  0
 26 65  1  0
 26 66  1  0
 27 67  1  0
 27 68  1  0
 28 69  1  0
 28 70  1  0
 29 71  1  0
 29 72  1  0
 30 73  1  0
 30 74  1  0
 31 75  1  0
 31 76  1  0
 32 77  1  0
 32 78  1  0
 33 79  1  0
M  CHG  3   8   1  16   1  25   1
M  END
>  <UniqueID>  (22) 
22

>  <SMILES>  (22) 
CCN(CC)CC[NH2+]c1c2ccccc2[n+](C)c2ccc(OCC[N+]3(C)CCCCCC3)cc12

>  <Energy>  (22) 
141.22609897098627

>  <Genealogy>  (22) 
CCN(CC)CC[NH2+]c1c2ccccc2[n+](C)c2ccc(OCC[N+]3(C)CCCCCC3)cc12 (protonated)
CCN(CC)CC[NH2+]c1c2ccccc2[n+](C)c2ccc(OCC[N+]3(C)CCCCCC3)cc12 (3D coordinates assigned)
CCN(CC)CC[NH2+]c1c2ccccc2[n+](C)c2ccc(OCC[N+]3(C)CCCCCC3)cc12 (nonaromatic ring conformer: 141.22609897098627 kcal/mol)

>  <smiles>  (22) 
CCN(CC)CCNc1c2ccccc2[n+](C)c2ccc(OCC[N+]3(C)CCCCCC3)cc12

>  <score_type>  (22) 
oracle

>  <origin>  (22) 
adg

>  <m_score__min__energy>  (22) 
-1.8

>  <m_primary>  (22) 
energy

$$$$
22:0
     RDKit          3D

 40 42  0  0  0  0  0  0  0  0999 V2000
   63.2730   33.5240   46.7380 C   0  0  0  0  0  0  0  0  0  0  0  0
   63.1200   32.2530   47.5710 C   0  0  0  0  0  0  0  0  0  0  0  0
   61.9230   31.5120   47.1520 N   0  0  0  0  0  0  0  0  0  0  0  0
   61.3860   30.6640   48.2290 C   0  0  0  0  0  0  0  0  0  0  0  0
   59.9880   31.1470   48.6180 C   0  0  0  0  0  0  0  0  0  0  0  0
   59.2420   31.5760   47.4280 N   0  0  0  0  0  0  0  0  0  0  0  0
   59.1980   32.8280   46.9020 C   0  0  0  0  0  0  0  0  0  0  0  0
   58.5390   32.8240   45.6830 C   0  0  0  0  0  0  0  0  0  0  0  0
   58.1350   31.5250   45.4720 C   0  0  0  0  0  0  0  0  0  0  0  0
   57.4410   30.9460   44.4110 C   0  0  0  0  0  0  0  0  0  0  0  0
   57.2100   29.5600   44.4570 C   0  0  0  0  0  0  0  0  0  0  0  0
   57.6770   28.7930   45.5470 C   0  0  0  0  0  0  0  0  0  0  0  0
   57.3650   26.9090   45.5840 Br  0  0  0  0  0  0  0  0  0  0  0  0
   58.3740   29.4050   46.6050 C   0  0  0  0  0  0  0  0  0  0  0  0
   58.5860   30.7870   46.5420 C   0  0  0  0  0  0  0  0  0  0  0  0
   58.2950   34.0420   44.8440 C   0  0  0  0  0  0  0  0  0  0  0  0
   59.2660   35.1680   45.2410 C   0  0  0  0  0  0  0  0  0  0  0  0
   59.3540   35.3270   46.7720 C   0  0  0  0  0  0  0  0  0  0  0  0
   59.8890   34.0490   47.4470 C   0  0  0  0  0  0  0  0  0  0  0  0
   63.3773   34.3907   47.4073 H   0  0  0  0  0  0  0  0  0  0  0  0
   64.1676   33.4410   46.1034 H   0  0  0  0  0  0  0  0  0  0  0  0
   62.3842   33.6557   46.1034 H   0  0  0  0  0  0  0  0  0  0  0  0
   64.0075   31.6182   47.4314 H   0  0  0  0  0  0  0  0  0  0  0  0
   63.0181   32.5290   48.6309 H   0  0  0  0  0  0  0  0  0  0  0  0
   62.1820   30.8930   46.3480 H   0  0  0  0  0  0  0  0  0  0  0  0
   61.3289   29.6224   47.8800 H   0  0  0  0  0  0  0  0  0  0  0  0
   62.0488   30.7247   49.1048 H   0  0  0  0  0  0  0  0  0  0  0  0
   59.4450   30.3260   49.1090 H   0  0  0  0  0  0  0  0  0  0  0  0
   60.0851   32.0014   49.3040 H   0  0  0  0  0  0  0  0  0  0  0  0
   57.0857   31.5534   43.5655 H   0  0  0  0  0  0  0  0  0  0  0  0
   56.6620   29.0698   43.6388 H   0  0  0  0  0  0  0  0  0  0  0  0
   58.7417   28.8143   47.4570 H   0  0  0  0  0  0  0  0  0  0  0  0
   58.4468   33.7889   43.7843 H   0  0  0  0  0  0  0  0  0  0  0  0
   57.2629   34.3865   45.0054 H   0  0  0  0  0  0  0  0  0  0  0  0
   60.2661   34.9321   44.8484 H   0  0  0  0  0  0  0  0  0  0  0  0
   58.8908   36.1114   44.8178 H   0  0  0  0  0  0  0  0  0  0  0  0
   60.0295   36.1632   47.0055 H   0  0  0  0  0  0  0  0  0  0  0  0
   58.3414   35.5199   47.1559 H   0  0  0  0  0  0  0  0  0  0  0  0
   60.9695   33.9665   47.2580 H   0  0  0  0  0  0  0  0  0  0  0  0
   59.6933   34.1123   48.5276 H   0  0  0  0  0  0  0  0  0  0  0  0
  1  2  1  0
  2  3  1  0
  3  4  1  0
  4  5  1  0
  5  6  1  0
  6  7  1  0
  7  8  2  0
  8  9  1  0
  9 10  2  0
 10 11  1  0
 11 12  2  0
 12 13  1  0
 12 14  1  0
 14 15  2  0
  8 16  1  0
 16 17  1  0
 17 18  1  0
 18 19  1  0
 15  6  1  0
 19  7  1  0
 15  9  1  0
  1 20  1  0
  1 21  1  0
  1 22  1  0
  2 23  1  0
  2 24  1  0
  3 25  1  0
  4 26  1  0
  4 27  1  0
  5 28  1  0
  5 29  1  0
 10 30  1  0
 11 31  1  0
 14 32  1  0
 16 33  1  0
 16 34  1  0
 17 35  1  0
 17 36  1  0
 18 37  1  0
 18 38  1  0
 19 39  1  0
 19 40  1  0
M  END
>  <UniqueID>  (23) 
23

>  <SMILES>  (23) 
CCNCCn1c2c(c3ccc(Br)cc31)CCCC2

>  <Energy>  (23) 
67.21432874270035

>  <Genealogy>  (23) 
CCNCCn1c2c(c3ccc(Br)cc31)CCCC2 (3D coordinates assigned)
CCNCCn1c2c(c3ccc(Br)cc31)CCCC2 (nonaromatic ring conformer: 67.21432874270035 kcal/mol)

>  <smiles>  (23) 
CCNCCn1c2c(c3ccc(Br)cc31)CCCC2

>  <score_type>  (23) 
oracle

>  <origin>  (23) 
adg

>  <m_score__min__energy>  (23) 
-7.2000000000000002

>  <m_primary>  (23) 
energy

$$$$
23:0
     RDKit          3D

 39 40  0  0  0  0  0  0  0  0999 V2000
   56.2230   29.7340   43.0430 C   0  0  0  0  0  0  0  0  0  0  0  0
   57.4850   29.6060   43.8890 C   0  0  0  0  0  0  0  0  0  0  0  0
   57.7040   30.8280   44.6600 N   0  0  0  0  0  0  0  0  0  0  0  0
   57.7370   30.8440   45.9850 N   0  0  0  0  0  0  0  0  0  0  0  0
   57.9840   32.1090   46.3750 C   0  0  0  0  0  0  0  0  0  0  0  0
   58.1440   32.5210   47.8020 C   0  0  0  0  0  0  0  0  0  0  0  0
   58.1340   32.9210   45.2620 C   0  0  0  0  0  0  0  0  0  0  0  0
   58.4470   34.3920   45.2520 C   0  0  0  0  0  0  0  0  0  0  0  0
   59.5790   34.6790   46.1560 N   0  0  0  0  0  0  0  0  0  0  0  0
   60.0180   36.0750   45.9860 C   0  0  0  0  0  0  0  0  0  0  0  0
   60.7030   33.7490   45.9150 C   0  0  0  0  0  0  0  0  0  0  0  0
   61.6530   33.7820   47.0710 C   0  0  0  0  0  0  0  0  0  0  0  0
   63.0070   33.4790   47.0140 C   0  0  0  0  0  0  0  0  0  0  0  0
   63.6420   33.5700   48.2570 C   0  0  0  0  0  0  0  0  0  0  0  0
   62.7920   33.9410   49.2920 C   0  0  0  0  0  0  0  0  0  0  0  0
   61.2480   34.1540   48.6590 S   0  0  0  0  0  0  0  0  0  0  0  0
   57.9680   32.0680   44.1830 C   0  0  0  0  0  0  0  0  0  0  0  0
   57.9940   32.4550   42.7310 C   0  0  0  0  0  0  0  0  0  0  0  0
   55.3470   29.8228   43.7024 H   0  0  0  0  0  0  0  0  0  0  0  0
   56.2964   30.6293   42.4081 H   0  0  0  0  0  0  0  0  0  0  0  0
   56.1151   28.8422   42.4081 H   0  0  0  0  0  0  0  0  0  0  0  0
   57.3749   28.7563   44.5789 H   0  0  0  0  0  0  0  0  0  0  0  0
   58.3464   29.4424   43.2247 H   0  0  0  0  0  0  0  0  0  0  0  0
   57.8246   31.6987   48.4591 H   0  0  0  0  0  0  0  0  0  0  0  0
   59.1998   32.7587   47.9988 H   0  0  0  0  0  0  0  0  0  0  0  0
   57.5254   33.4090   47.9988 H   0  0  0  0  0  0  0  0  0  0  0  0
   58.7113   34.7003   44.2297 H   0  0  0  0  0  0  0  0  0  0  0  0
   57.5631   34.9493   45.5958 H   0  0  0  0  0  0  0  0  0  0  0  0
   60.1632   36.5366   46.9739 H   0  0  0  0  0  0  0  0  0  0  0  0
   60.9661   36.0959   45.4286 H   0  0  0  0  0  0  0  0  0  0  0  0
   59.2525   36.6348   45.4286 H   0  0  0  0  0  0  0  0  0  0  0  0
   60.3114   32.7281   45.7946 H   0  0  0  0  0  0  0  0  0  0  0  0
   61.2350   34.0552   45.0022 H   0  0  0  0  0  0  0  0  0  0  0  0
   63.5268   33.1965   46.0866 H   0  0  0  0  0  0  0  0  0  0  0  0
   64.7134   33.3670   48.4017 H   0  0  0  0  0  0  0  0  0  0  0  0
   63.0797   34.0729   50.3455 H   0  0  0  0  0  0  0  0  0  0  0  0
   58.0675   33.5491   42.6444 H   0  0  0  0  0  0  0  0  0  0  0  0
   58.8629   31.9894   42.2429 H   0  0  0  0  0  0  0  0  0  0  0  0
   57.0706   32.1098   42.2429 H   0  0  0  0  0  0  0  0  0  0  0  0
  1  2  1  0
  2  3  1  0
  3  4  1  0
  4  5  2  0
  5  6  1  0
  5  7  1  0
  7  8  1  0
  8  9  1  0
  9 10  1  0
  9 11  1  0
 11 12  1  0
 12 13  2  0
 13 14  1  0
 14 15  2  0
 15 16  1  0
  7 17  2  0
 17 18  1  0
 17  3  1  0
 16 12  1  0
  1 19  1  0
  1 20  1  0
  1 21  1  0
  2 22  1  0
  2 23  1  0
  6 24  1  0
  6 25  1  0
  6 26  1  0
  8 27  1  0
  8 28  1  0
 10 29  1  0
 10 30  1  0
 10 31  1  0
 11 32  1  0
 11 33  1  0
 13 34  1  0
 14 35  1  0
 15 36  1  0
 18 37  1  0
 18 38  1  0
 18 39  1  0
M  END
>  <UniqueID>  (24) 
24

>  <SMILES>  (24) 
CCn1nc(C)c(CN(C)Cc2cccs2)c1C

>  <Energy>  (24) 
87.62999589325638

>  <Genealogy>  (24) 
CCn1nc(C)c(CN(C)Cc2cccs2)c1C (3D coordinates assigned)
CCn1nc(C)c(CN(C)Cc2cccs2)c1C (optimized conformer: 87.62999589325638 kcal/mol)

>  <smiles>  (24) 
CCn1nc(C)c(CN(C)Cc2cccs2)c1C

>  <score_type>  (24) 
oracle

>  <origin>  (24) 
adg

>  <m_score__min__energy>  (24) 
-6.4699999999999998

>  <m_primary>  (24) 
energy

$$$$
24:0
     RDKit          3D

 42 44  0  0  0  0  0  0  0  0999 V2000
   57.7610   27.9850   46.0670 C   0  0  0  0  0  0  0  0  0  0  0  0
   57.5120   29.1250   45.1930 N   0  0  0  0  0  0  0  0  0  0  0  0
   56.3910   29.3550   44.4830 C   0  0  0  0  0  0  0  0  0  0  0  0
   56.4720   30.5880   43.8660 C   0  0  0  0  0  0  0  0  0  0  0  0
   57.6990   31.1200   44.2240 C   0  0  0  0  0  0  0  0  0  0  0  0
   58.2120   32.4980   43.9030 C   0  0  0  0  0  0  0  0  0  0  0  0
   57.6520   33.5700   44.7560 N   0  0  0  0  0  0  0  0  0  0  0  0
   57.0270   33.1400   46.0190 C   0  0  0  0  0  0  0  0  0  0  0  0
   58.0450   32.9080   47.1420 C   0  0  0  0  0  0  0  0  0  0  0  0
   59.0470   33.9790   47.2250 N   0  0  0  0  0  0  0  0  0  0  0  0
   59.8790   34.0650   48.4330 C   0  0  0  0  0  0  0  0  0  0  0  0
   61.2350   33.4580   48.1870 C   0  0  0  0  0  0  0  0  0  0  0  0
   61.3480   32.2370   47.4990 C   0  0  0  0  0  0  0  0  0  0  0  0
   62.6070   31.6760   47.2620 C   0  0  0  0  0  0  0  0  0  0  0  0
   63.7600   32.3330   47.6990 C   0  0  0  0  0  0  0  0  0  0  0  0
   63.6570   33.5510   48.3730 C   0  0  0  0  0  0  0  0  0  0  0  0
   62.4000   34.1140   48.6160 C   0  0  0  0  0  0  0  0  0  0  0  0
   59.3690   34.7730   46.0660 C   0  0  0  0  0  0  0  0  0  0  0  0
   60.3810   35.5240   46.0680 O   0  0  0  0  0  0  0  0  0  0  0  0
   58.4620   34.7940   44.8720 C   0  0  0  0  0  0  0  0  0  0  0  0
   58.3070   30.2020   45.0600 C   0  0  0  0  0  0  0  0  0  0  0  0
   57.6910   28.3057   47.1169 H   0  0  0  0  0  0  0  0  0  0  0  0
   57.0125   27.2029   45.8718 H   0  0  0  0  0  0  0  0  0  0  0  0
   58.7674   27.5862   45.8718 H   0  0  0  0  0  0  0  0  0  0  0  0
   55.5384   28.6642   44.4060 H   0  0  0  0  0  0  0  0  0  0  0  0
   55.7136   31.0539   43.2197 H   0  0  0  0  0  0  0  0  0  0  0  0
   59.3052   32.4959   44.0255 H   0  0  0  0  0  0  0  0  0  0  0  0
   57.8979   32.7190   42.8722 H   0  0  0  0  0  0  0  0  0  0  0  0
   56.3192   33.9174   46.3425 H   0  0  0  0  0  0  0  0  0  0  0  0
   56.5237   32.1808   45.8275 H   0  0  0  0  0  0  0  0  0  0  0  0
   57.5069   32.8537   48.0999 H   0  0  0  0  0  0  0  0  0  0  0  0
   58.5764   31.9703   46.9221 H   0  0  0  0  0  0  0  0  0  0  0  0
   60.0014   35.1217   48.7132 H   0  0  0  0  0  0  0  0  0  0  0  0
   59.3844   33.5110   49.2444 H   0  0  0  0  0  0  0  0  0  0  0  0
   60.4429   31.7211   47.1459 H   0  0  0  0  0  0  0  0  0  0  0  0
   62.6896   30.7163   46.7309 H   0  0  0  0  0  0  0  0  0  0  0  0
   64.7494   31.8902   47.5118 H   0  0  0  0  0  0  0  0  0  0  0  0
   64.5658   34.0688   48.7135 H   0  0  0  0  0  0  0  0  0  0  0  0
   62.3237   35.0751   49.1456 H   0  0  0  0  0  0  0  0  0  0  0  0
   57.7858   35.6573   44.9581 H   0  0  0  0  0  0  0  0  0  0  0  0
   59.0939   34.8623   43.9742 H   0  0  0  0  0  0  0  0  0  0  0  0
   59.2876   30.3319   45.5412 H   0  0  0  0  0  0  0  0  0  0  0  0
  1  2  1  0
  2  3  1  0
  3  4  2  0
  4  5  1  0
  5  6  1  0
  6  7  1  0
  7  8  1  0
  8  9  1  0
  9 10  1  0
 10 11  1  0
 11 12  1  0
 12 13  2  0
 13 14  1  0
 14 15  2  0
 15 16  1  0
 16 17  2  0
 10 18  1  0
 18 19  2  0
 18 20  1  0
  5 21  2  0
 21  2  1  0
 20  7  1  0
 17 12  1  0
  1 22  1  0
  1 23  1  0
  1 24  1  0
  3 25  1  0
  4 26  1  0
  6 27  1  0
  6 28  1  0
  8 29  1  0
  8 30  1  0
  9 31  1  0
  9 32  1  0
 11 33  1  0
 11 34  1  0
 13 35  1  0
 14 36  1  0
 15 37  1  0
 16 38  1  0
 17 39  1  0
 20 40  1  0
 20 41  1  0
 21 42  1  0
M  END
>  <UniqueID>  (25) 
25

>  <SMILES>  (25) 
Cn1ccc(CN2CCN(Cc3ccccc3)C(=O)C2)c1

>  <Energy>  (25) 
70.29760719993283

>  <Genealogy>  (25) 
Cn1ccc(CN2CCN(Cc3ccccc3)C(=O)C2)c1 (3D coordinates assigned)
Cn1ccc(CN2CCN(Cc3ccccc3)C(=O)C2)c1 (nonaromatic ring conformer: 70.29760719993283 kcal/mol)

>  <smiles>  (25) 
Cn1ccc(CN2CCN(Cc3ccccc3)C(=O)C2)c1

>  <score_type>  (25) 
oracle

>  <origin>  (25) 
adg

>  <m_score__min__energy>  (25) 
-7.04

>  <m_primary>  (25) 
energy

$$$$
25:0
     RDKit          3D

 44 46  0  0  0  0  0  0  0  0999 V2000
   57.3940   31.5930   43.9070 C   0  0  0  0  0  0  0  0  0  0  0  0
   58.3630   31.6160   45.0250 N   0  0  0  0  0  0  0  0  0  0  0  0
   58.8920   32.8180   45.4560 C   0  0  0  0  0  0  0  0  0  0  0  0
   58.7730   34.0050   44.6870 C   0  0  0  0  0  0  0  0  0  0  0  0
   59.2610   35.2220   45.1600 C   0  0  0  0  0  0  0  0  0  0  0  0
   59.8920   35.2890   46.3970 C   0  0  0  0  0  0  0  0  0  0  0  0
   60.0630   34.1350   47.1560 C   0  0  0  0  0  0  0  0  0  0  0  0
   59.5880   32.8890   46.6930 C   0  0  0  0  0  0  0  0  0  0  0  0
   59.7890   31.7150   47.4420 C   0  0  0  0  0  0  0  0  0  0  0  0
   60.4140   31.7750   48.7360 N   0  0  0  0  0  0  0  0  0  0  0  0
   61.8700   31.7300   48.8760 C   0  0  0  0  0  0  0  0  0  0  0  0
   62.5580   31.6530   47.5010 C   0  0  0  0  0  0  0  0  0  0  0  0
   63.7180   32.5720   47.3800 N   0  0  0  0  0  0  0  0  0  0  0  0
   64.1410   33.0820   48.6970 C   0  0  0  0  0  0  0  0  0  0  0  0
   63.3750   33.7060   46.5040 C   0  0  0  0  0  0  0  0  0  0  0  0
   59.4220   30.4750   46.8900 C   0  0  0  0  0  0  0  0  0  0  0  0
   59.7670   29.2680   47.5320 C   0  0  0  0  0  0  0  0  0  0  0  0
   59.4400   28.0380   46.9640 C   0  0  0  0  0  0  0  0  0  0  0  0
   58.7860   27.9890   45.7380 C   0  0  0  0  0  0  0  0  0  0  0  0
   58.4170   26.4370   45.0070 Cl  0  0  0  0  0  0  0  0  0  0  0  0
   58.4390   29.1710   45.0800 C   0  0  0  0  0  0  0  0  0  0  0  0
   58.7250   30.4390   45.6520 C   0  0  0  0  0  0  0  0  0  0  0  0
   56.3705   31.5687   44.3093 H   0  0  0  0  0  0  0  0  0  0  0  0
   57.5243   32.4945   43.2903 H   0  0  0  0  0  0  0  0  0  0  0  0
   57.5669   30.6987   43.2903 H   0  0  0  0  0  0  0  0  0  0  0  0
   58.2874   33.9638   43.7009 H   0  0  0  0  0  0  0  0  0  0  0  0
   59.1465   36.1320   44.5528 H   0  0  0  0  0  0  0  0  0  0  0  0
   60.2565   36.2551   46.7763 H   0  0  0  0  0  0  0  0  0  0  0  0
   60.5743   34.1946   48.1281 H   0  0  0  0  0  0  0  0  0  0  0  0
   59.8220   31.6570   49.5880 H   0  0  0  0  0  0  0  0  0  0  0  0
   62.2089   32.6378   49.3967 H   0  0  0  0  0  0  0  0  0  0  0  0
   62.1376   30.8312   49.4509 H   0  0  0  0  0  0  0  0  0  0  0  0
   62.9090   30.6227   47.3420 H   0  0  0  0  0  0  0  0  0  0  0  0
   61.8181   31.9561   46.7456 H   0  0  0  0  0  0  0  0  0  0  0  0
   64.5300   32.0750   46.9470 H   0  0  0  0  0  0  0  0  0  0  0  0
   63.6548   32.4958   49.4906 H   0  0  0  0  0  0  0  0  0  0  0  0
   65.2332   32.9920   48.7915 H   0  0  0  0  0  0  0  0  0  0  0  0
   63.8506   34.1388   48.7915 H   0  0  0  0  0  0  0  0  0  0  0  0
   63.1111   34.5784   47.1199 H   0  0  0  0  0  0  0  0  0  0  0  0
   64.2386   33.9531   45.8691 H   0  0  0  0  0  0  0  0  0  0  0  0
   62.5192   33.4331   45.8691 H   0  0  0  0  0  0  0  0  0  0  0  0
   60.3010   29.2975   48.4933 H   0  0  0  0  0  0  0  0  0  0  0  0
   59.6995   27.1052   47.4861 H   0  0  0  0  0  0  0  0  0  0  0  0
   57.9361   29.1190   44.1031 H   0  0  0  0  0  0  0  0  0  0  0  0
  1  2  1  0
  2  3  2  0
  3  4  1  0
  4  5  2  0
  5  6  1  0
  6  7  2  0
  7  8  1  0
  8  9  2  0
  9 10  1  0
 10 11  1  0
 11 12  1  0
 12 13  1  0
 13 14  1  0
 13 15  1  0
  9 16  1  0
 16 17  2  0
 17 18  1  0
 18 19  2  0
 19 20  1  0
 19 21  1  0
 21 22  2  0
 22  2  1  0
  8  3  1  0
 22 16  1  0
  1 23  1  0
  1 24  1  0
  1 25  1  0
  4 26  1  0
  5 27  1  0
  6 28  1  0
  7 29  1  0
 10 30  1  0
 11 31  1  0
 11 32  1  0
 12 33  1  0
 12 34  1  0
 13 35  1  0
 14 36  1  0
 14 37  1  0
 14 38  1  0
 15 39  1  0
 15 40  1  0
 15 41  1  0
 17 42  1  0
 18 43  1  0
 21 44  1  0
M  CHG  2   2   1  13   1
M  END
>  <UniqueID>  (26) 
26

>  <SMILES>  (26) 
C[n+]1c2ccccc2c(NCC[NH+](C)C)c2ccc(Cl)cc21

>  <Energy>  (26) 
71.21781989834523

>  <Genealogy>  (26) 
C[n+]1c2ccccc2c(NCC[NH+](C)C)c2ccc(Cl)cc21 (protonated)
C[n+]1c2ccccc2c(NCC[NH+](C)C)c2ccc(Cl)cc21 (3D coordinates assigned)
C[n+]1c2ccccc2c(NCC[NH+](C)C)c2ccc(Cl)cc21 (optimized conformer: 71.21781989834523 kcal/mol)

>  <smiles>  (26) 
CN(C)CCNc1c2ccccc2[n+](C)c2cc(Cl)ccc12

>  <score_type>  (26) 
oracle

>  <origin>  (26) 
adg

>  <m_score__min__energy>  (26) 
-4.5700000000000003

>  <m_primary>  (26) 
energy

$$$$
26:0
     RDKit          3D

 28 29  0  0  0  0  0  0  0  0999 V2000
   59.6585   31.0646   47.0908 H   0  0  0  0  0  0  0  0  0  0  0  0
   58.8830   31.5910   46.5150 C   0  0  0  0  0  0  0  0  0  0  0  0
   58.6320   32.8870   46.7700 C   0  0  0  0  0  0  0  0  0  0  0  0
   59.3450   33.5940   47.8550 C   0  0  0  0  0  0  0  0  0  0  0  0
   58.8466   33.6632   48.8332 H   0  0  0  0  0  0  0  0  0  0  0  0
   60.5560   34.1570   47.7320 C   0  0  0  0  0  0  0  0  0  0  0  0
   60.8432   34.9137   48.4769 H   0  0  0  0  0  0  0  0  0  0  0  0
   61.5490   33.8320   46.6540 C   0  0  0  0  0  0  0  0  0  0  0  0
   61.1889   32.9690   46.0747 H   0  0  0  0  0  0  0  0  0  0  0  0
   61.6628   34.7032   45.9922 H   0  0  0  0  0  0  0  0  0  0  0  0
   63.2640   33.4040   47.4440 Br  0  0  0  0  0  0  0  0  0  0  0  0
   57.6260   33.6640   45.9380 C   0  0  1  0  0  0  0  0  0  0  0  0
   57.0453   34.2861   46.6350 H   0  0  0  0  0  0  0  0  0  0  0  0
   58.3570   34.5380   44.9200 C   0  0  0  0  0  0  0  0  0  0  0  0
   58.9757   35.2778   45.4491 H   0  0  0  0  0  0  0  0  0  0  0  0
   58.9997   33.9065   44.2890 H   0  0  0  0  0  0  0  0  0  0  0  0
   57.6218   35.0589   44.2890 H   0  0  0  0  0  0  0  0  0  0  0  0
   56.7100   32.8060   45.2440 O   0  0  0  0  0  0  0  0  0  0  0  0
   57.0370   31.4980   44.8760 C   0  0  0  0  0  0  0  0  0  0  0  0
   56.2650   30.8140   43.9320 C   0  0  0  0  0  0  0  0  0  0  0  0
   55.3970   31.3068   43.4696 H   0  0  0  0  0  0  0  0  0  0  0  0
   56.5970   29.5030   43.5760 C   0  0  0  0  0  0  0  0  0  0  0  0
   55.9937   28.9675   42.8281 H   0  0  0  0  0  0  0  0  0  0  0  0
   57.6960   28.8710   44.1700 C   0  0  0  0  0  0  0  0  0  0  0  0
   58.1440   27.0790   43.6870 Br  0  0  0  0  0  0  0  0  0  0  0  0
   58.4620   29.5500   45.1260 C   0  0  0  0  0  0  0  0  0  0  0  0
   59.3191   29.0506   45.6014 H   0  0  0  0  0  0  0  0  0  0  0  0
   58.1340   30.8680   45.4760 C   0  0  0  0  0  0  0  0  0  0  0  0
  1  2  1  0
  2  3  2  0
  3  4  1  0
  4  5  1  0
  4  6  2  0
  6  7  1  0
  6  8  1  0
  8  9  1  0
  8 10  1  0
  8 11  1  0
  3 12  1  0
 12 13  1  1
 12 14  1  0
 14 15  1  0
 14 16  1  0
 14 17  1  0
 12 18  1  0
 18 19  1  0
 19 20  2  0
 20 21  1  0
 20 22  1  0
 22 23  1  0
 22 24  2  0
 24 25  1  0
 24 26  1  0
 26 27  1  0
 26 28  2  0
 28  2  1  0
 28 19  1  0
M  END
>  <UniqueID>  (27) 
27

>  <SMILES>  (27) 
C[C@H]1Oc2ccc(Br)cc2C=C1/C=C\CBr

>  <Energy>  (27) 
32.831328581752565

>  <Genealogy>  (27) 
C[C@H]1Oc2ccc(Br)cc2C=C1C=CCBr (chirality)
C[C@H]1Oc2ccc(Br)cc2C=C1/C=C\CBr (cis-trans isomerization)
C[C@H]1Oc2ccc(Br)cc2C=C1/C=C\CBr (3D coordinates assigned)
C[C@H]1Oc2ccc(Br)cc2C=C1/C=C\CBr (nonaromatic ring conformer: 32.831328581752565 kcal/mol)

>  <smiles>  (27) 
CC1Oc2ccc(Br)cc2C=C1C=CCBr

>  <score_type>  (27) 
oracle

>  <origin>  (27) 
adg

>  <m_score__min__energy>  (27) 
-7.2300000000000004

>  <m_primary>  (27) 
energy

$$$$
27:0
     RDKit          3D

 57 60  0  0  0  0  0  0  0  0999 V2000
   62.9700   33.8320   46.4500 C   0  0  0  0  0  0  0  0  0  0  0  0
   63.2990   32.8530   47.5770 C   0  0  0  0  0  0  0  0  0  0  0  0
   62.0980   32.5420   48.3840 N   0  0  0  0  0  0  0  0  0  0  0  0
   62.0170   33.3830   49.6070 C   0  0  0  0  0  0  0  0  0  0  0  0
   63.4160   33.8230   50.0190 C   0  0  0  0  0  0  0  0  0  0  0  0
   62.0500   31.0980   48.7090 C   0  0  0  0  0  0  0  0  0  0  0  0
   60.6640   30.6880   49.2220 C   0  0  0  0  0  0  0  0  0  0  0  0
   59.6330   31.5870   48.7050 N   0  0  0  0  0  0  0  0  0  0  0  0
   59.3210   31.6290   47.3010 C   0  0  0  0  0  0  0  0  0  0  0  0
   59.2750   32.8610   46.6210 C   0  0  0  0  0  0  0  0  0  0  0  0
   59.6220   34.0620   47.2770 C   0  0  0  0  0  0  0  0  0  0  0  0
   59.5730   35.2810   46.6050 C   0  0  0  0  0  0  0  0  0  0  0  0
   59.1890   35.3260   45.2690 C   0  0  0  0  0  0  0  0  0  0  0  0
   58.8600   34.1510   44.5940 C   0  0  0  0  0  0  0  0  0  0  0  0
   58.8990   32.8930   45.2490 C   0  0  0  0  0  0  0  0  0  0  0  0
   58.5900   31.7200   44.5850 N   0  0  0  0  0  0  0  0  0  0  0  0
   58.1740   31.7620   43.1660 C   0  0  0  0  0  0  0  0  0  0  0  0
   58.6830   30.5080   45.2340 C   0  0  0  0  0  0  0  0  0  0  0  0
   58.4090   29.3490   44.5700 N   0  0  0  0  0  0  0  0  0  0  0  0
   58.4730   28.1220   45.1500 C   0  0  0  0  0  0  0  0  0  0  0  0
   58.1740   26.9630   44.4070 C   0  0  0  0  0  0  0  0  0  0  0  0
   57.7790   27.0610   42.9590 C   0  0  0  0  0  0  0  0  0  0  0  0
   58.2440   25.7070   45.0340 C   0  0  0  0  0  0  0  0  0  0  0  0
   58.6090   25.6080   46.3790 C   0  0  0  0  0  0  0  0  0  0  0  0
   58.9070   26.7560   47.1150 C   0  0  0  0  0  0  0  0  0  0  0  0
   58.8410   28.0170   46.5050 C   0  0  0  0  0  0  0  0  0  0  0  0
   59.1330   29.1820   47.2210 C   0  0  0  0  0  0  0  0  0  0  0  0
   59.0560   30.4430   46.5970 C   0  0  0  0  0  0  0  0  0  0  0  0
   62.6475   34.7916   46.8804 H   0  0  0  0  0  0  0  0  0  0  0  0
   63.8642   33.9905   45.8293 H   0  0  0  0  0  0  0  0  0  0  0  0
   62.1615   33.4183   45.8293 H   0  0  0  0  0  0  0  0  0  0  0  0
   63.6890   31.9216   47.1406 H   0  0  0  0  0  0  0  0  0  0  0  0
   64.0490   33.3177   48.2339 H   0  0  0  0  0  0  0  0  0  0  0  0
   61.4002   34.2702   49.4009 H   0  0  0  0  0  0  0  0  0  0  0  0
   61.5631   32.7997   50.4217 H   0  0  0  0  0  0  0  0  0  0  0  0
   63.4852   33.8448   51.1166 H   0  0  0  0  0  0  0  0  0  0  0  0
   64.1560   33.1142   49.6190 H   0  0  0  0  0  0  0  0  0  0  0  0
   63.6171   34.8278   49.6190 H   0  0  0  0  0  0  0  0  0  0  0  0
   62.2825   30.5189   47.8031 H   0  0  0  0  0  0  0  0  0  0  0  0
   62.7869   30.8955   49.5002 H   0  0  0  0  0  0  0  0  0  0  0  0
   60.4462   29.6615   48.8919 H   0  0  0  0  0  0  0  0  0  0  0  0
   60.6632   30.7448   50.3205 H   0  0  0  0  0  0  0  0  0  0  0  0
   59.3050   32.3700   49.3150 H   0  0  0  0  0  0  0  0  0  0  0  0
   59.9347   34.0347   48.3313 H   0  0  0  0  0  0  0  0  0  0  0  0
   59.8384   36.2095   47.1317 H   0  0  0  0  0  0  0  0  0  0  0  0
   59.1447   36.2912   44.7433 H   0  0  0  0  0  0  0  0  0  0  0  0
   58.5651   34.2003   43.5354 H   0  0  0  0  0  0  0  0  0  0  0  0
   57.0811   31.8723   43.1074 H   0  0  0  0  0  0  0  0  0  0  0  0
   58.6560   32.6160   42.6677 H   0  0  0  0  0  0  0  0  0  0  0  0
   58.4756   30.8288   42.6677 H   0  0  0  0  0  0  0  0  0  0  0  0
   56.7137   27.3253   42.8866 H   0  0  0  0  0  0  0  0  0  0  0  0
   58.3835   27.8364   42.4657 H   0  0  0  0  0  0  0  0  0  0  0  0
   57.9509   26.0930   42.4657 H   0  0  0  0  0  0  0  0  0  0  0  0
   58.0101   24.7967   44.4625 H   0  0  0  0  0  0  0  0  0  0  0  0
   58.6618   24.6203   46.8604 H   0  0  0  0  0  0  0  0  0  0  0  0
   59.1937   26.6715   48.1736 H   0  0  0  0  0  0  0  0  0  0  0  0
   59.4250   29.1136   48.2793 H   0  0  0  0  0  0  0  0  0  0  0  0
  1  2  1  0
  2  3  1  0
  3  4  1  0
  4  5  1  0
  3  6  1  0
  6  7  1  0
  7  8  1  0
  8  9  1  0
  9 10  2  0
 10 11  1  0
 11 12  2  0
 12 13  1  0
 13 14  2  0
 14 15  1  0
 15 16  2  0
 16 17  1  0
 16 18  1  0
 18 19  2  0
 19 20  1  0
 20 21  2  0
 21 22  1  0
 21 23  1  0
 23 24  2  0
 24 25  1  0
 25 26  2  0
 26 27  1  0
 27 28  2  0
 28  9  1  0
 15 10  1  0
 28 18  1  0
 26 20  1  0
  1 29  1  0
  1 30  1  0
  1 31  1  0
  2 32  1  0
  2 33  1  0
  4 34  1  0
  4 35  1  0
  5 36  1  0
  5 37  1  0
  5 38  1  0
  6 39  1  0
  6 40  1  0
  7 41  1  0
  7 42  1  0
  8 43  1  0
 11 44  1  0
 12 45  1  0
 13 46  1  0
 14 47  1  0
 17 48  1  0
 17 49  1  0
 17 50  1  0
 22 51  1  0
 22 52  1  0
 22 53  1  0
 23 54  1  0
 24 55  1  0
 25 56  1  0
 27 57  1  0
M  CHG  1  16   1
M  END
>  <UniqueID>  (28) 
28

>  <SMILES>  (28) 
CCN(CC)CCNc1c2ccccc2[n+](C)c2nc3c(C)cccc3cc12

>  <Energy>  (28) 
79.53767383529335

>  <Genealogy>  (28) 
CCN(CC)CCNc1c2ccccc2[n+](C)c2nc3c(C)cccc3cc12 (3D coordinates assigned)
CCN(CC)CCNc1c2ccccc2[n+](C)c2nc3c(C)cccc3cc12 (optimized conformer: 79.53767383529335 kcal/mol)

>  <smiles>  (28) 
CCN(CC)CCNc1c2ccccc2[n+](C)c2nc3c(C)cccc3cc12

>  <score_type>  (28) 
oracle

>  <origin>  (28) 
adg

>  <m_score__min__energy>  (28) 
-6.71

>  <m_primary>  (28) 
energy

$$$$
28:0
     RDKit          3D

 62 65  0  0  0  0  0  0  0  0999 V2000
   64.0150   32.8000   51.0510 C   0  0  0  0  0  0  0  0  0  0  0  0
   62.5930   33.3670   51.1290 C   0  0  0  0  0  0  0  0  0  0  0  0
   61.8050   33.1560   49.8850 N   0  0  0  0  0  0  0  0  0  0  0  0
   62.0820   34.1730   48.8310 C   0  0  0  0  0  0  0  0  0  0  0  0
   63.2610   33.8400   47.9050 C   0  0  0  0  0  0  0  0  0  0  0  0
   60.3640   33.0380   50.2330 C   0  0  0  0  0  0  0  0  0  0  0  0
   59.7550   31.6540   49.9330 C   0  0  0  0  0  0  0  0  0  0  0  0
   60.7530   30.6520   49.8560 O   0  0  0  0  0  0  0  0  0  0  0  0
   60.1840   29.3620   49.7360 C   0  0  0  0  0  0  0  0  0  0  0  0
   60.7580   28.6400   48.5080 C   0  0  0  0  0  0  0  0  0  0  0  0
   59.8380   28.7300   47.3630 N   0  0  0  0  0  0  0  0  0  0  0  0
   58.9920   27.7330   46.9940 C   0  0  0  0  0  0  0  0  0  0  0  0
   58.9360   26.4310   47.5140 C   0  0  0  0  0  0  0  0  0  0  0  0
   57.9220   25.5720   47.0640 C   0  0  0  0  0  0  0  0  0  0  0  0
   56.9640   26.0250   46.1380 C   0  0  0  0  0  0  0  0  0  0  0  0
   55.5540   24.8600   45.5830 Br  0  0  0  0  0  0  0  0  0  0  0  0
   57.0180   27.3390   45.6430 C   0  0  0  0  0  0  0  0  0  0  0  0
   58.0690   28.1670   46.0640 C   0  0  0  0  0  0  0  0  0  0  0  0
   58.3600   29.5040   45.8210 C   0  0  0  0  0  0  0  0  0  0  0  0
   57.7460   30.4660   45.0060 C   0  0  0  0  0  0  0  0  0  0  0  0
   56.7390   30.0700   43.9520 C   0  0  0  0  0  0  0  0  0  0  0  0
   58.1250   31.8160   45.2170 C   0  0  0  0  0  0  0  0  0  0  0  0
   57.3970   32.8840   44.6440 C   0  0  0  0  0  0  0  0  0  0  0  0
   57.7760   34.2070   44.8610 C   0  0  0  0  0  0  0  0  0  0  0  0
   58.8710   34.4970   45.6650 C   0  0  0  0  0  0  0  0  0  0  0  0
   59.6000   33.4690   46.2580 C   0  0  0  0  0  0  0  0  0  0  0  0
   59.2580   32.1110   46.0450 C   0  0  0  0  0  0  0  0  0  0  0  0
   59.9870   31.0860   46.6260 N   0  0  0  0  0  0  0  0  0  0  0  0
   61.3500   31.3530   47.1220 C   0  0  0  0  0  0  0  0  0  0  0  0
   59.4500   29.8170   46.6210 C   0  0  0  0  0  0  0  0  0  0  0  0
   64.4042   32.6448   52.0681 H   0  0  0  0  0  0  0  0  0  0  0  0
   63.9980   31.8399   50.5145 H   0  0  0  0  0  0  0  0  0  0  0  0
   64.6633   33.5084   50.5145 H   0  0  0  0  0  0  0  0  0  0  0  0
   62.0674   32.8775   51.9622 H   0  0  0  0  0  0  0  0  0  0  0  0
   62.6836   34.4533   51.2763 H   0  0  0  0  0  0  0  0  0  0  0  0
   62.1030   32.2290   49.4970 H   0  0  0  0  0  0  0  0  0  0  0  0
   61.1794   34.2771   48.2110 H   0  0  0  0  0  0  0  0  0  0  0  0
   62.3564   35.0980   49.3594 H   0  0  0  0  0  0  0  0  0  0  0  0
   64.1443   33.5905   48.5113 H   0  0  0  0  0  0  0  0  0  0  0  0
   62.9975   32.9811   47.2702 H   0  0  0  0  0  0  0  0  0  0  0  0
   63.4857   34.7098   47.2702 H   0  0  0  0  0  0  0  0  0  0  0  0
   60.2508   33.2394   51.3085 H   0  0  0  0  0  0  0  0  0  0  0  0
   59.8259   33.7639   49.6057 H   0  0  0  0  0  0  0  0  0  0  0  0
   59.0483   31.3934   50.7346 H   0  0  0  0  0  0  0  0  0  0  0  0
   59.2434   31.7061   48.9606 H   0  0  0  0  0  0  0  0  0  0  0  0
   60.4128   28.7787   50.6401 H   0  0  0  0  0  0  0  0  0  0  0  0
   59.0948   29.4603   49.6174 H   0  0  0  0  0  0  0  0  0  0  0  0
   61.7178   29.1029   48.2350 H   0  0  0  0  0  0  0  0  0  0  0  0
   60.8989   27.5787   48.7606 H   0  0  0  0  0  0  0  0  0  0  0  0
   59.6711   26.0911   48.2583 H   0  0  0  0  0  0  0  0  0  0  0  0
   57.8756   24.5383   47.4372 H   0  0  0  0  0  0  0  0  0  0  0  0
   56.2548   27.7092   44.9426 H   0  0  0  0  0  0  0  0  0  0  0  0
   55.8211   29.7091   44.4391 H   0  0  0  0  0  0  0  0  0  0  0  0
   56.5026   30.9421   43.3247 H   0  0  0  0  0  0  0  0  0  0  0  0
   57.1600   29.2705   43.3247 H   0  0  0  0  0  0  0  0  0  0  0  0
   56.5189   32.6673   44.0180 H   0  0  0  0  0  0  0  0  0  0  0  0
   57.2065   35.0242   44.3943 H   0  0  0  0  0  0  0  0  0  0  0  0
   59.1638   35.5437   45.8342 H   0  0  0  0  0  0  0  0  0  0  0  0
   60.4562   33.7160   46.9029 H   0  0  0  0  0  0  0  0  0  0  0  0
   61.3466   31.3523   48.2220 H   0  0  0  0  0  0  0  0  0  0  0  0
   62.0327   30.5715   46.7570 H   0  0  0  0  0  0  0  0  0  0  0  0
   61.6874   32.3343   46.7570 H   0  0  0  0  0  0  0  0  0  0  0  0
  1  2  1  0
  2  3  1  0
  3  4  1  0
  4  5  1  0
  3  6  1  0
  6  7  1  0
  7  8  1  0
  8  9  1  0
  9 10  1  0
 10 11  1  0
 11 12  1  0
 12 13  2  0
 13 14  1  0
 14 15  2  0
 15 16  1  0
 15 17  1  0
 17 18  2  0
 18 19  1  0
 19 20  2  0
 20 21  1  0
 20 22  1  0
 22 23  2  0
 23 24  1  0
 24 25  2  0
 25 26  1  0
 26 27  2  0
 27 28  1  0
 28 29  1  0
 28 30  2  0
 30 11  1  0
 18 12  1  0
 30 19  1  0
 27 22  1  0
  1 31  1  0
  1 32  1  0
  1 33  1  0
  2 34  1  0
  2 35  1  0
  3 36  1  0
  4 37  1  0
  4 38  1  0
  5 39  1  0
  5 40  1  0
  5 41  1  0
  6 42  1  0
  6 43  1  0
  7 44  1  0
  7 45  1  0
  9 46  1  0
  9 47  1  0
 10 48  1  0
 10 49  1  0
 13 50  1  0
 14 51  1  0
 17 52  1  0
 21 53  1  0
 21 54  1  0
 21 55  1  0
 23 56  1  0
 24 57  1  0
 25 58  1  0
 26 59  1  0
 29 60  1  0
 29 61  1  0
 29 62  1  0
M  CHG  2   3   1  28   1
M  END
>  <UniqueID>  (29) 
29

>  <SMILES>  (29) 
CC[NH+](CC)CCOCCn1c2ccc(Br)cc2c2c(C)c3ccccc3[n+](C)c21

>  <Energy>  (29) 
137.15756438880538

>  <Genealogy>  (29) 
CC[NH+](CC)CCOCCn1c2ccc(Br)cc2c2c(C)c3ccccc3[n+](C)c21 (protonated)
CC[NH+](CC)CCOCCn1c2ccc(Br)cc2c2c(C)c3ccccc3[n+](C)c21 (3D coordinates assigned)
CC[NH+](CC)CCOCCn1c2ccc(Br)cc2c2c(C)c3ccccc3[n+](C)c21 (optimized conformer: 137.15756438880538 kcal/mol)

>  <smiles>  (29) 
CCN(CC)CCOCCn1c2ccc(Br)cc2c2c(C)c3ccccc3[n+](C)c21

>  <score_type>  (29) 
oracle

>  <origin>  (29) 
adg

>  <m_score__min__energy>  (29) 
-5.54

>  <m_primary>  (29) 
energy

$$$$
29:0
     RDKit          3D

 47 47  0  0  0  0  0  0  0  0999 V2000
   59.5840   35.0700   46.1770 C   0  0  0  0  0  0  0  0  0  0  0  0
   59.2690   34.3210   44.8750 C   0  0  0  0  0  0  0  0  0  0  0  0
   58.2660   33.2430   45.0760 N   0  0  1  0  0  0  0  0  0  0  0  0
   57.0420   33.8140   45.6720 C   0  0  0  0  0  0  0  0  0  0  0  0
   57.9480   32.5620   43.7910 C   0  0  0  0  0  0  0  0  0  0  0  0
   57.4940   31.1120   43.9970 C   0  0  0  0  0  0  0  0  0  0  0  0
   57.4230   30.8440   45.3830 O   0  0  0  0  0  0  0  0  0  0  0  0
   58.1490   29.6700   45.6990 C   0  0  0  0  0  0  0  0  0  0  0  0
   59.5190   30.0390   46.2730 C   0  0  0  0  0  0  0  0  0  0  0  0
   59.6090   31.4470   46.4970 O   0  0  0  0  0  0  0  0  0  0  0  0
   59.7780   32.0730   47.7460 C   0  0  0  0  0  0  0  0  0  0  0  0
   58.7090   32.2180   48.6540 C   0  0  0  0  0  0  0  0  0  0  0  0
   58.9000   32.8500   49.8820 C   0  0  0  0  0  0  0  0  0  0  0  0
   60.1540   33.3510   50.2240 C   0  0  0  0  0  0  0  0  0  0  0  0
   61.2240   33.2190   49.3390 C   0  0  0  0  0  0  0  0  0  0  0  0
   61.0540   32.5810   48.0920 C   0  0  0  0  0  0  0  0  0  0  0  0
   62.2370   32.4490   47.1420 C   0  0  0  0  0  0  0  0  0  0  0  0
   62.7660   33.8280   46.7270 C   0  0  0  0  0  0  0  0  0  0  0  0
   63.3520   31.5940   47.7590 C   0  0  0  0  0  0  0  0  0  0  0  0
   59.3182   34.4379   47.0371 H   0  0  0  0  0  0  0  0  0  0  0  0
   60.6577   35.3063   46.2135 H   0  0  0  0  0  0  0  0  0  0  0  0
   59.0019   36.0026   46.2135 H   0  0  0  0  0  0  0  0  0  0  0  0
   58.8754   35.0385   44.1399 H   0  0  0  0  0  0  0  0  0  0  0  0
   60.1998   33.8543   44.5203 H   0  0  0  0  0  0  0  0  0  0  0  0
   58.6510   32.5500   45.7620 H   0  0  0  0  0  0  0  0  0  0  0  0
   57.1174   33.7788   46.7688 H   0  0  0  0  0  0  0  0  0  0  0  0
   56.9280   34.8583   45.3456 H   0  0  0  0  0  0  0  0  0  0  0  0
   56.1686   33.2304   45.3456 H   0  0  0  0  0  0  0  0  0  0  0  0
   57.1428   33.1164   43.2868 H   0  0  0  0  0  0  0  0  0  0  0  0
   58.8651   32.5442   43.1839 H   0  0  0  0  0  0  0  0  0  0  0  0
   56.5028   30.9679   43.5424 H   0  0  0  0  0  0  0  0  0  0  0  0
   58.2121   30.4270   43.5226 H   0  0  0  0  0  0  0  0  0  0  0  0
   57.5885   29.0844   46.4425 H   0  0  0  0  0  0  0  0  0  0  0  0
   58.2895   29.0757   44.7841 H   0  0  0  0  0  0  0  0  0  0  0  0
   59.6650   29.5113   47.2271 H   0  0  0  0  0  0  0  0  0  0  0  0
   60.2959   29.7448   45.5520 H   0  0  0  0  0  0  0  0  0  0  0  0
   57.7144   31.8286   48.3909 H   0  0  0  0  0  0  0  0  0  0  0  0
   58.0583   32.9533   50.5826 H   0  0  0  0  0  0  0  0  0  0  0  0
   60.3005   33.8511   51.1927 H   0  0  0  0  0  0  0  0  0  0  0  0
   62.2114   33.6167   49.6163 H   0  0  0  0  0  0  0  0  0  0  0  0
   61.8836   31.9351   46.2359 H   0  0  0  0  0  0  0  0  0  0  0  0
   62.9929   34.4195   47.6262 H   0  0  0  0  0  0  0  0  0  0  0  0
   63.6808   33.7049   46.1286 H   0  0  0  0  0  0  0  0  0  0  0  0
   62.0036   34.3483   46.1286 H   0  0  0  0  0  0  0  0  0  0  0  0
   63.2875   31.6434   48.8560 H   0  0  0  0  0  0  0  0  0  0  0  0
   63.2373   30.5501   47.4316 H   0  0  0  0  0  0  0  0  0  0  0  0
   64.3304   31.9756   47.4316 H   0  0  0  0  0  0  0  0  0  0  0  0
  1  2  1  0
  2  3  1  0
  3  4  1  0
  3  5  1  0
  5  6  1  0
  6  7  1  0
  7  8  1  0
  8  9  1  0
  9 10  1  0
 10 11  1  0
 11 12  2  0
 12 13  1  0
 13 14  2  0
 14 15  1  0
 15 16  2  0
 16 17  1  0
 17 18  1  0
 17 19  1  0
 16 11  1  0
  1 20  1  0
  1 21  1  0
  1 22  1  0
  2 23  1  0
  2 24  1  0
  3 25  1  1
  4 26  1  0
  4 27  1  0
  4 28  1  0
  5 29  1  0
  5 30  1  0
  6 31  1  0
  6 32  1  0
  8 33  1  0
  8 34  1  0
  9 35  1  0
  9 36  1  0
 12 37  1  0
 13 38  1  0
 14 39  1  0
 15 40  1  0
 17 41  1  0
 18 42  1  0
 18 43  1  0
 18 44  1  0
 19 45  1  0
 19 46  1  0
 19 47  1  0
M  CHG  1   3   1
M  END
>  <UniqueID>  (30) 
30

>  <SMILES>  (30) 
CC[N@@H+](C)CCOCCOc1ccccc1C(C)C

>  <Energy>  (30) 
42.44789768345449

>  <Genealogy>  (30) 
CC[NH+](C)CCOCCOc1ccccc1C(C)C (protonated)
CC[N@@H+](C)CCOCCOc1ccccc1C(C)C (chirality)
CC[N@@H+](C)CCOCCOc1ccccc1C(C)C (3D coordinates assigned)
CC[N@@H+](C)CCOCCOc1ccccc1C(C)C (optimized conformer: 42.44789768345449 kcal/mol)

>  <smiles>  (30) 
CCN(C)CCOCCOc1ccccc1C(C)C

>  <score_type>  (30) 
oracle

>  <origin>  (30) 
adg

>  <m_score__min__energy>  (30) 
-4.3600000000000003

>  <m_primary>  (30) 
energy

$$$$
30:0
     RDKit          3D

 37 39  0  0  0  0  0  0  0  0999 V2000
   56.5060   29.7440   42.7650 C   0  0  0  0  0  0  0  0  0  0  0  0
   55.5680   30.0750   43.9210 C   0  0  0  0  0  0  0  0  0  0  0  0
   55.5210   28.9750   44.8810 N   0  0  0  0  0  0  0  0  0  0  0  0
   56.6560   28.3350   45.4800 C   0  0  0  0  0  0  0  0  0  0  0  0
   56.6250   27.0880   45.6570 O   0  0  0  0  0  0  0  0  0  0  0  0
   57.8620   29.0840   45.8790 C   0  0  0  0  0  0  0  0  0  0  0  0
   59.0900   28.4080   46.0910 C   0  0  0  0  0  0  0  0  0  0  0  0
   60.2470   29.1190   46.4520 C   0  0  0  0  0  0  0  0  0  0  0  0
   60.1470   30.5000   46.5870 C   0  0  0  0  0  0  0  0  0  0  0  0
   61.0880   31.4560   46.8920 C   0  0  0  0  0  0  0  0  0  0  0  0
   62.4500   31.3530   47.1730 C   0  0  0  0  0  0  0  0  0  0  0  0
   63.1590   32.5410   47.4180 C   0  0  0  0  0  0  0  0  0  0  0  0
   62.5020   33.7900   47.3720 C   0  0  0  0  0  0  0  0  0  0  0  0
   61.1270   33.8670   47.0830 C   0  0  0  0  0  0  0  0  0  0  0  0
   60.4360   32.6730   46.8500 C   0  0  0  0  0  0  0  0  0  0  0  0
   59.1220   32.5120   46.5450 N   0  0  0  0  0  0  0  0  0  0  0  0
   58.1200   33.5630   46.3450 C   0  0  0  0  0  0  0  0  0  0  0  0
   57.8130   33.7250   44.8610 C   0  0  0  0  0  0  0  0  0  0  0  0
   58.9620   31.1750   46.3710 C   0  0  0  0  0  0  0  0  0  0  0  0
   57.8010   30.4890   45.9990 C   0  0  0  0  0  0  0  0  0  0  0  0
   57.4728   29.4028   43.1635 H   0  0  0  0  0  0  0  0  0  0  0  0
   56.0620   28.9483   42.1488 H   0  0  0  0  0  0  0  0  0  0  0  0
   56.6597   30.6422   42.1488 H   0  0  0  0  0  0  0  0  0  0  0  0
   55.9275   30.9821   44.4289 H   0  0  0  0  0  0  0  0  0  0  0  0
   54.5567   30.2367   43.5197 H   0  0  0  0  0  0  0  0  0  0  0  0
   59.1376   27.3155   45.9716 H   0  0  0  0  0  0  0  0  0  0  0  0
   61.2018   28.6000   46.6225 H   0  0  0  0  0  0  0  0  0  0  0  0
   62.9523   30.3748   47.2019 H   0  0  0  0  0  0  0  0  0  0  0  0
   64.2340   32.4978   47.6474 H   0  0  0  0  0  0  0  0  0  0  0  0
   63.0706   34.7119   47.5640 H   0  0  0  0  0  0  0  0  0  0  0  0
   60.6106   34.8374   47.0415 H   0  0  0  0  0  0  0  0  0  0  0  0
   57.1975   33.2913   46.8789 H   0  0  0  0  0  0  0  0  0  0  0  0
   58.5148   34.5129   46.7347 H   0  0  0  0  0  0  0  0  0  0  0  0
   56.8460   34.2353   44.7402 H   0  0  0  0  0  0  0  0  0  0  0  0
   58.6049   34.3227   44.3859 H   0  0  0  0  0  0  0  0  0  0  0  0
   57.7665   32.7340   44.3859 H   0  0  0  0  0  0  0  0  0  0  0  0
   56.8638   31.0311   45.8048 H   0  0  0  0  0  0  0  0  0  0  0  0
  1  2  1  0
  2  3  1  0
  3  4  1  0
  4  5  2  0
  4  6  1  0
  6  7  2  0
  7  8  1  0
  8  9  2  0
  9 10  1  0
 10 11  2  0
 11 12  1  0
 12 13  2  0
 13 14  1  0
 14 15  2  0
 15 16  1  0
 16 17  1  0
 17 18  1  0
 16 19  1  0
 19 20  2  0
 20  6  1  0
 19  9  1  0
 15 10  1  0
  1 21  1  0
  1 22  1  0
  1 23  1  0
  2 24  1  0
  2 25  1  0
  7 26  1  0
  8 27  1  0
 11 28  1  0
 12 29  1  0
 13 30  1  0
 14 31  1  0
 17 32  1  0
 17 33  1  0
 18 34  1  0
 18 35  1  0
 18 36  1  0
 20 37  1  0
M  CHG  1   3  -1
M  END
>  <UniqueID>  (31) 
31

>  <SMILES>  (31) 
CC[N-]C(=O)c1ccc2c3ccccc3n(CC)c2c1

>  <Energy>  (31) 
78.80493945345128

>  <Genealogy>  (31) 
CC[N-]C(=O)c1ccc2c3ccccc3n(CC)c2c1 (protonated)
CC[N-]C(=O)c1ccc2c3ccccc3n(CC)c2c1 (3D coordinates assigned)
CC[N-]C(=O)c1ccc2c3ccccc3n(CC)c2c1 (optimized conformer: 78.80493945345128 kcal/mol)

>  <smiles>  (31) 
CCNC(=O)c1ccc2c3ccccc3n(CC)c2c1

>  <score_type>  (31) 
oracle

>  <origin>  (31) 
adg

>  <m_score__min__energy>  (31) 
-9.3000000000000007

>  <m_primary>  (31) 
energy

$$$$
