0:0
     RDKit          3D

 62 65  0  0  0  0  0  0  0  0999 V2000
   57.5790   31.3550   43.3970 C   0  0  0  0  0  0  0  0  0  0  0  0
   56.5310   31.1140   44.4760 C   0  0  0  0  0  0  0  0  0  0  0  0
   56.4070   29.7250   44.6950 O   0  0  0  0  0  0  0  0  0  0  0  0
   57.0090   29.0240   43.6280 C   0  0  0  0  0  0  0  0  0  0  0  0
   57.7770   27.8250   44.1900 C   0  0  0  0  0  0  0  0  0  0  0  0
   57.9470   27.9440   45.6480 N   0  0  0  0  0  0  0  0  0  0  0  0
   57.1860   27.0590   46.5430 C   0  0  0  0  0  0  0  0  0  0  0  0
   56.4650   25.9670   45.7530 C   0  0  0  0  0  0  0  0  0  0  0  0
   55.0740   26.0570   45.9870 O   0  0  0  0  0  0  0  0  0  0  0  0
   54.4590   24.8460   45.6220 C   0  0  0  0  0  0  0  0  0  0  0  0
   58.8620   28.9040   46.2190 C   0  0  0  0  0  0  0  0  0  0  0  0
   60.0690   28.9120   45.8530 O   0  0  0  0  0  0  0  0  0  0  0  0
   58.3990   29.9620   47.1860 C   0  0  0  0  0  0  0  0  0  0  0  0
   59.4350   30.9830   47.3610 N   0  0  0  0  0  0  0  0  0  0  0  0
   60.5980   30.8020   48.0280 C   0  0  0  0  0  0  0  0  0  0  0  0
   61.3450   31.9750   48.0450 C   0  0  0  0  0  0  0  0  0  0  0  0
   62.6660   32.1150   48.6920 C   0  0  0  0  0  0  0  0  0  0  0  0
   63.0610   31.3110   49.7110 N   0  0  0  0  0  0  0  0  0  0  0  0
   64.3150   31.6210   50.1290 C   0  0  0  0  0  0  0  0  0  0  0  0
   64.9790   30.9760   51.1690 C   0  0  0  0  0  0  0  0  0  0  0  0
   66.2760   31.3920   51.5280 C   0  0  0  0  0  0  0  0  0  0  0  0
   67.0110   30.5240   52.8700 Cl  0  0  0  0  0  0  0  0  0  0  0  0
   66.9010   32.4730   50.8210 C   0  0  0  0  0  0  0  0  0  0  0  0
   68.1850   32.9840   51.0870 O   0  0  0  0  0  0  0  0  0  0  0  0
   68.7510   34.1960   50.6090 C   0  0  0  0  0  0  0  0  0  0  0  0
   66.2000   33.0990   49.7730 C   0  0  0  0  0  0  0  0  0  0  0  0
   64.9230   32.6560   49.4540 C   0  0  0  0  0  0  0  0  0  0  0  0
   63.8750   33.2290   48.2780 S   0  0  0  0  0  0  0  0  0  0  0  0
   60.5800   32.9140   47.3630 C   0  0  0  0  0  0  0  0  0  0  0  0
   60.7920   34.2690   47.0880 C   0  0  0  0  0  0  0  0  0  0  0  0
   59.7990   34.9680   46.3840 C   0  0  0  0  0  0  0  0  0  0  0  0
   58.6180   34.3170   45.9790 C   0  0  0  0  0  0  0  0  0  0  0  0
   58.4160   32.9610   46.2730 C   0  0  0  0  0  0  0  0  0  0  0  0
   59.4230   32.2760   46.9670 C   0  0  0  0  0  0  0  0  0  0  0  0
   58.5471   31.5776   43.8694 H   0  0  0  0  0  0  0  0  0  0  0  0
   57.6746   30.4554   42.7712 H   0  0  0  0  0  0  0  0  0  0  0  0
   57.2720   32.2060   42.7712 H   0  0  0  0  0  0  0  0  0  0  0  0
   56.8416   31.6080   45.4085 H   0  0  0  0  0  0  0  0  0  0  0  0
   55.5639   31.5269   44.1532 H   0  0  0  0  0  0  0  0  0  0  0  0
   56.2323   28.6717   42.9333 H   0  0  0  0  0  0  0  0  0  0  0  0
   57.7003   29.6889   43.0894 H   0  0  0  0  0  0  0  0  0  0  0  0
   57.2190   26.9037   43.9668 H   0  0  0  0  0  0  0  0  0  0  0  0
   58.7721   27.7955   43.7222 H   0  0  0  0  0  0  0  0  0  0  0  0
   57.8781   26.5886   47.2570 H   0  0  0  0  0  0  0  0  0  0  0  0
   56.4339   27.6612   47.0738 H   0  0  0  0  0  0  0  0  0  0  0  0
   56.6655   26.0980   44.6794 H   0  0  0  0  0  0  0  0  0  0  0  0
   56.8282   24.9802   46.0759 H   0  0  0  0  0  0  0  0  0  0  0  0
   54.1768   24.2903   46.5284 H   0  0  0  0  0  0  0  0  0  0  0  0
   53.5588   25.0569   45.0261 H   0  0  0  0  0  0  0  0  0  0  0  0
   55.1604   24.2436   45.0261 H   0  0  0  0  0  0  0  0  0  0  0  0
   57.4860   30.4353   46.7955 H   0  0  0  0  0  0  0  0  0  0  0  0
   58.1944   29.4911   48.1588 H   0  0  0  0  0  0  0  0  0  0  0  0
   60.9104   29.8556   48.4936 H   0  0  0  0  0  0  0  0  0  0  0  0
   64.4943   30.1476   51.7064 H   0  0  0  0  0  0  0  0  0  0  0  0
   69.0448   34.8251   51.4622 H   0  0  0  0  0  0  0  0  0  0  0  0
   69.6370   33.9707   49.9973 H   0  0  0  0  0  0  0  0  0  0  0  0
   68.0095   34.7308   49.9973 H   0  0  0  0  0  0  0  0  0  0  0  0
   66.6578   33.9284   49.2139 H   0  0  0  0  0  0  0  0  0  0  0  0
   61.7131   34.7737   47.4150 H   0  0  0  0  0  0  0  0  0  0  0  0
   59.9445   36.0322   46.1469 H   0  0  0  0  0  0  0  0  0  0  0  0
   57.8479   34.8765   45.4277 H   0  0  0  0  0  0  0  0  0  0  0  0
   57.4920   32.4484   45.9672 H   0  0  0  0  0  0  0  0  0  0  0  0
  1  2  1  0
  2  3  1  0
  3  4  1  0
  4  5  1  0
  5  6  1  0
  6  7  1  0
  7  8  1  0
  8  9  1  0
  9 10  1  0
  6 11  1  0
 11 12  2  0
 11 13  1  0
 13 14  1  0
 14 15  1  0
 15 16  2  0
 16 17  1  0
 17 18  2  0
 18 19  1  0
 19 20  2  0
 20 21  1  0
 21 22  1  0
 21 23  2  0
 23 24  1  0
 24 25  1  0
 23 26  1  0
 26 27  2  0
 27 28  1  0
 16 29  1  0
 29 30  2  0
 30 31  1  0
 31 32  2  0
 32 33  1  0
 33 34  2  0
 34 14  1  0
 28 17  1  0
 34 29  1  0
 27 19  1  0
  1 35  1  0
  1 36  1  0
  1 37  1  0
  2 38  1  0
  2 39  1  0
  4 40  1  0
  4 41  1  0
  5 42  1  0
  5 43  1  0
  7 44  1  0
  7 45  1  0
  8 46  1  0
  8 47  1  0
 10 48  1  0
 10 49  1  0
 10 50  1  0
 13 51  1  0
 13 52  1  0
 15 53  1  0
 20 54  1  0
 25 55  1  0
 25 56  1  0
 25 57  1  0
 26 58  1  0
 30 59  1  0
 31 60  1  0
 32 61  1  0
 33 62  1  0
M  END
>  <UniqueID>  (1) 
1

>  <SMILES>  (1) 
CCOCCN(CCOC)C(=O)Cn1cc(-c2nc3cc(Cl)c(OC)cc3s2)c2ccccc21

>  <Energy>  (1) 
133.7871235371213

>  <Genealogy>  (1) 
CCOCCN(CCOC)C(=O)Cn1cc(-c2nc3cc(Cl)c(OC)cc3s2)c2ccccc21 (3D coordinates assigned)
CCOCCN(CCOC)C(=O)Cn1cc(-c2nc3cc(Cl)c(OC)cc3s2)c2ccccc21 (optimized conformer: 133.7871235371213 kcal/mol)

>  <smiles>  (1) 
CCOCCN(CCOC)C(=O)Cn1cc(-c2nc3cc(Cl)c(OC)cc3s2)c2ccccc21

>  <score_type>  (1) 
oracle

>  <origin>  (1) 
adg

>  <m_score__min__energy>  (1) 
-8.2599999999999998

>  <m_primary>  (1) 
energy

$$$$
1:0
     RDKit          3D

 44 46  0  0  0  0  0  0  0  0999 V2000
   60.4290   33.6760   46.0160 C   0  0  0  0  0  0  0  0  0  0  0  0
   60.3310   33.1650   47.4670 C   0  0  1  0  0  0  0  0  0  0  0  0
   59.8590   34.3240   48.3690 C   0  0  0  0  0  0  0  0  0  0  0  0
   59.7920   33.8860   49.8350 C   0  0  0  0  0  0  0  0  0  0  0  0
   59.1850   32.4830   50.0120 C   0  0  0  0  0  0  0  0  0  0  0  0
   58.5240   31.9640   48.7270 C   0  0  0  0  0  0  0  0  0  0  0  0
   59.4480   31.9560   47.5630 N   0  0  2  0  0  0  0  0  0  0  0  0
   60.3990   30.4800   47.5490 S   0  0  0  0  0  0  0  0  0  0  0  0
   61.6570   30.6730   46.7490 O   0  0  0  0  0  0  0  0  0  0  0  0
   60.7830   30.1010   48.9530 O   0  0  0  0  0  0  0  0  0  0  0  0
   59.4670   29.1540   46.8590 C   0  0  0  0  0  0  0  0  0  0  0  0
   60.0060   27.8630   46.7950 C   0  0  0  0  0  0  0  0  0  0  0  0
   59.2640   26.8220   46.2310 C   0  0  0  0  0  0  0  0  0  0  0  0
   57.9880   27.0670   45.7170 C   0  0  0  0  0  0  0  0  0  0  0  0
   57.4490   28.3660   45.7500 C   0  0  0  0  0  0  0  0  0  0  0  0
   56.1370   28.6600   45.2470 N   0  0  0  0  0  0  0  0  0  0  0  0
   55.7920   29.6850   44.3070 C   0  0  0  0  0  0  0  0  0  0  0  0
   54.7510   29.5910   43.6040 O   0  0  0  0  0  0  0  0  0  0  0  0
   56.6850   30.8320   44.1190 C   0  0  0  0  0  0  0  0  0  0  0  0
   57.2690   31.2220   42.9290 C   0  0  0  0  0  0  0  0  0  0  0  0
   58.0190   32.3380   43.2310 C   0  0  0  0  0  0  0  0  0  0  0  0
   57.8480   32.5590   44.5820 C   0  0  0  0  0  0  0  0  0  0  0  0
   57.0480   31.6470   45.0830 O   0  0  0  0  0  0  0  0  0  0  0  0
   58.1880   29.3980   46.3400 C   0  0  0  0  0  0  0  0  0  0  0  0
   60.6362   34.7563   46.0209 H   0  0  0  0  0  0  0  0  0  0  0  0
   61.2424   33.1490   45.4958 H   0  0  0  0  0  0  0  0  0  0  0  0
   59.4783   33.4873   45.4958 H   0  0  0  0  0  0  0  0  0  0  0  0
   61.3208   32.8351   47.8155 H   0  0  0  0  0  0  0  0  0  0  0  0
   60.5647   35.1626   48.2760 H   0  0  0  0  0  0  0  0  0  0  0  0
   58.8523   34.6302   48.0483 H   0  0  0  0  0  0  0  0  0  0  0  0
   60.8117   33.8822   50.2474 H   0  0  0  0  0  0  0  0  0  0  0  0
   59.1403   34.5974   50.3633 H   0  0  0  0  0  0  0  0  0  0  0  0
   59.9848   31.7865   50.3038 H   0  0  0  0  0  0  0  0  0  0  0  0
   58.4062   32.5501   50.7859 H   0  0  0  0  0  0  0  0  0  0  0  0
   58.1730   30.9365   48.9033 H   0  0  0  0  0  0  0  0  0  0  0  0
   57.6944   32.6446   48.4848 H   0  0  0  0  0  0  0  0  0  0  0  0
   58.8360   31.9030   46.7130 H   0  0  0  0  0  0  0  0  0  0  0  0
   61.0144   27.6683   47.1891 H   0  0  0  0  0  0  0  0  0  0  0  0
   59.6856   25.8068   46.1915 H   0  0  0  0  0  0  0  0  0  0  0  0
   57.4031   26.2415   45.2852 H   0  0  0  0  0  0  0  0  0  0  0  0
   57.1583   30.7418   41.9456 H   0  0  0  0  0  0  0  0  0  0  0  0
   58.6302   32.9322   42.5357 H   0  0  0  0  0  0  0  0  0  0  0  0
   58.3122   33.3764   45.1533 H   0  0  0  0  0  0  0  0  0  0  0  0
   57.7610   30.4101   46.3969 H   0  0  0  0  0  0  0  0  0  0  0  0
  1  2  1  0
  2  3  1  0
  3  4  1  0
  4  5  1  0
  5  6  1  0
  6  7  1  0
  7  8  1  0
  8  9  2  0
  8 10  2  0
  8 11  1  0
 11 12  2  0
 12 13  1  0
 13 14  2  0
 14 15  1  0
 15 16  1  0
 16 17  1  0
 17 18  2  0
 17 19  1  0
 19 20  2  0
 20 21  1  0
 21 22  2  0
 22 23  1  0
 15 24  2  0
  7  2  1  0
 24 11  1  0
 23 19  1  0
  1 25  1  0
  1 26  1  0
  1 27  1  0
  2 28  1  1
  3 29  1  0
  3 30  1  0
  4 31  1  0
  4 32  1  0
  5 33  1  0
  5 34  1  0
  6 35  1  0
  6 36  1  0
  7 37  1  6
 12 38  1  0
 13 39  1  0
 14 40  1  0
 20 41  1  0
 21 42  1  0
 22 43  1  0
 24 44  1  0
M  CHG  2   7   1  16  -1
M  END
>  <UniqueID>  (2) 
2

>  <SMILES>  (2) 
C[C@H]1CCCC[N@@H+]1S(=O)(=O)c1cccc([N-]C(=O)c2ccco2)c1

>  <Energy>  (2) 
79.15620160617367

>  <Genealogy>  (2) 
CC1CCCC[NH+]1S(=O)(=O)c1cccc([N-]C(=O)c2ccco2)c1 (protonated)
C[C@H]1CCCC[N@@H+]1S(=O)(=O)c1cccc([N-]C(=O)c2ccco2)c1 (chirality)
C[C@H]1CCCC[N@@H+]1S(=O)(=O)c1cccc([N-]C(=O)c2ccco2)c1 (3D coordinates assigned)
C[C@H]1CCCC[N@@H+]1S(=O)(=O)c1cccc([N-]C(=O)c2ccco2)c1 (nonaromatic ring conformer: 79.15620160617367 kcal/mol)

>  <smiles>  (2) 
CC1CCCCN1S(=O)(=O)c1cccc(NC(=O)c2ccco2)c1

>  <score_type>  (2) 
oracle

>  <origin>  (2) 
adg

>  <m_score__min__energy>  (2) 
-8.75

>  <m_primary>  (2) 
energy

$$$$
2:0
     RDKit          3D

 27 27  0  0  0  0  0  0  0  0999 V2000
   57.7170   34.0950   45.0130 C   0  0  0  0  0  0  0  0  0  0  0  0
   57.3950   32.7380   45.6340 C   0  0  0  0  0  0  0  0  0  0  0  0
   57.7430   31.6470   44.7140 N   0  0  0  0  0  0  0  0  0  0  0  0
   57.9580   31.9440   43.2980 C   0  0  0  0  0  0  0  0  0  0  0  0
   58.0940   30.3510   45.2300 C   0  0  0  0  0  0  0  0  0  0  0  0
   59.4120   30.1040   45.6500 C   0  0  0  0  0  0  0  0  0  0  0  0
   59.7660   28.8580   46.1690 C   0  0  0  0  0  0  0  0  0  0  0  0
   58.8110   27.8460   46.2700 C   0  0  0  0  0  0  0  0  0  0  0  0
   57.4990   28.0750   45.8470 C   0  0  0  0  0  0  0  0  0  0  0  0
   57.1290   29.3270   45.3160 C   0  0  0  0  0  0  0  0  0  0  0  0
   55.8290   29.5810   44.8520 O   0  0  0  0  0  0  0  0  0  0  0  0
   55.4740   29.7180   43.4800 C   0  0  0  0  0  0  0  0  0  0  0  0
   57.8917   34.8314   45.8113 H   0  0  0  0  0  0  0  0  0  0  0  0
   58.6195   34.0083   44.3901 H   0  0  0  0  0  0  0  0  0  0  0  0
   56.8718   34.4231   44.3901 H   0  0  0  0  0  0  0  0  0  0  0  0
   57.9697   32.6219   46.5647 H   0  0  0  0  0  0  0  0  0  0  0  0
   56.3158   32.6928   45.8420 H   0  0  0  0  0  0  0  0  0  0  0  0
   58.6006   32.8317   43.2030 H   0  0  0  0  0  0  0  0  0  0  0  0
   58.4451   31.0852   42.8131 H   0  0  0  0  0  0  0  0  0  0  0  0
   56.9900   32.1385   42.8131 H   0  0  0  0  0  0  0  0  0  0  0  0
   60.1693   30.8977   45.5692 H   0  0  0  0  0  0  0  0  0  0  0  0
   60.7990   28.6735   46.4988 H   0  0  0  0  0  0  0  0  0  0  0  0
   59.0913   26.8659   46.6834 H   0  0  0  0  0  0  0  0  0  0  0  0
   56.7504   27.2732   45.9290 H   0  0  0  0  0  0  0  0  0  0  0  0
   54.4502   30.1131   43.4038 H   0  0  0  0  0  0  0  0  0  0  0  0
   56.1721   30.4113   42.9881 H   0  0  0  0  0  0  0  0  0  0  0  0
   55.5254   28.7355   42.9881 H   0  0  0  0  0  0  0  0  0  0  0  0
  1  2  1  0
  2  3  1  0
  3  4  1  0
  3  5  1  0
  5  6  2  0
  6  7  1  0
  7  8  2  0
  8  9  1  0
  9 10  2  0
 10 11  1  0
 11 12  1  0
 10  5  1  0
  1 13  1  0
  1 14  1  0
  1 15  1  0
  2 16  1  0
  2 17  1  0
  4 18  1  0
  4 19  1  0
  4 20  1  0
  6 21  1  0
  7 22  1  0
  8 23  1  0
  9 24  1  0
 12 25  1  0
 12 26  1  0
 12 27  1  0
M  END
>  <UniqueID>  (3) 
3

>  <SMILES>  (3) 
CCN(C)c1ccccc1OC

>  <Energy>  (3) 
25.309327210204152

>  <Genealogy>  (3) 
CCN(C)c1ccccc1OC (3D coordinates assigned)
CCN(C)c1ccccc1OC (optimized conformer: 25.309327210204152 kcal/mol)

>  <smiles>  (3) 
CCN(C)c1ccccc1OC

>  <score_type>  (3) 
oracle

>  <origin>  (3) 
adg

>  <m_score__min__energy>  (3) 
-4.4199999999999999

>  <m_primary>  (3) 
energy

$$$$
3:0
     RDKit          3D

 47 49  0  0  0  0  0  0  0  0999 V2000
   63.7620   32.2720   48.6880 C   0  0  0  0  0  0  0  0  0  0  0  0
   62.3010   32.2090   48.3840 C   0  0  0  0  0  0  0  0  0  0  0  0
   61.6880   32.9750   47.5130 O   0  0  0  0  0  0  0  0  0  0  0  0
   60.4170   32.6250   47.5080 C   0  0  0  0  0  0  0  0  0  0  0  0
   59.4020   33.2660   46.6390 C   0  0  0  0  0  0  0  0  0  0  0  0
   59.7590   34.2160   45.6620 C   0  0  0  0  0  0  0  0  0  0  0  0
   58.7800   34.8030   44.8560 C   0  0  0  0  0  0  0  0  0  0  0  0
   57.4370   34.4520   45.0130 C   0  0  0  0  0  0  0  0  0  0  0  0
   57.0710   33.5110   45.9770 C   0  0  0  0  0  0  0  0  0  0  0  0
   58.0460   32.9200   46.7860 C   0  0  0  0  0  0  0  0  0  0  0  0
   60.1750   31.6190   48.3780 N   0  0  0  0  0  0  0  0  0  0  0  0
   61.3670   31.3610   48.9440 C   0  0  0  0  0  0  0  0  0  0  0  0
   61.6130   30.2620   49.9340 C   0  0  0  0  0  0  0  0  0  0  0  0
   61.1160   28.9280   49.3880 C   0  0  0  0  0  0  0  0  0  0  0  0
   59.7470   29.0520   49.0100 O   0  0  0  0  0  0  0  0  0  0  0  0
   59.2490   28.7660   47.7310 C   0  0  0  0  0  0  0  0  0  0  0  0
   58.1420   27.9200   47.5230 C   0  0  0  0  0  0  0  0  0  0  0  0
   57.6820   27.6670   46.2270 C   0  0  0  0  0  0  0  0  0  0  0  0
   58.3220   28.2470   45.1210 C   0  0  0  0  0  0  0  0  0  0  0  0
   57.8080   28.0020   43.7250 C   0  0  0  0  0  0  0  0  0  0  0  0
   56.9000   29.1400   43.2430 C   0  0  0  0  0  0  0  0  0  0  0  0
   56.0600   29.6860   44.3570 C   0  0  0  0  0  0  0  0  0  0  0  0
   55.1520   28.9810   44.8690 O   0  0  0  0  0  0  0  0  0  0  0  0
   56.3090   30.9580   44.8580 O   0  0  0  0  0  0  0  0  0  0  0  0
   59.4200   29.0960   45.3300 C   0  0  0  0  0  0  0  0  0  0  0  0
   59.8790   29.3500   46.6260 C   0  0  0  0  0  0  0  0  0  0  0  0
   63.9098   32.2784   49.7780 H   0  0  0  0  0  0  0  0  0  0  0  0
   64.2648   31.3947   48.2549 H   0  0  0  0  0  0  0  0  0  0  0  0
   64.1874   33.1893   48.2549 H   0  0  0  0  0  0  0  0  0  0  0  0
   60.8145   34.4974   45.5328 H   0  0  0  0  0  0  0  0  0  0  0  0
   59.0678   35.5438   44.0955 H   0  0  0  0  0  0  0  0  0  0  0  0
   56.6686   34.9167   44.3776 H   0  0  0  0  0  0  0  0  0  0  0  0
   56.0136   33.2341   46.1003 H   0  0  0  0  0  0  0  0  0  0  0  0
   57.7509   32.1788   47.5433 H   0  0  0  0  0  0  0  0  0  0  0  0
   59.2760   31.1270   48.5750 H   0  0  0  0  0  0  0  0  0  0  0  0
   62.6922   30.1911   50.1349 H   0  0  0  0  0  0  0  0  0  0  0  0
   61.0680   30.4912   50.8616 H   0  0  0  0  0  0  0  0  0  0  0  0
   61.7150   28.6446   48.5100 H   0  0  0  0  0  0  0  0  0  0  0  0
   61.2147   28.1538   50.1632 H   0  0  0  0  0  0  0  0  0  0  0  0
   57.6374   27.4565   48.3836 H   0  0  0  0  0  0  0  0  0  0  0  0
   56.8135   27.0096   46.0736 H   0  0  0  0  0  0  0  0  0  0  0  0
   58.6647   27.9161   43.0404 H   0  0  0  0  0  0  0  0  0  0  0  0
   57.2161   27.0749   43.7370 H   0  0  0  0  0  0  0  0  0  0  0  0
   57.5260   29.9491   42.8386 H   0  0  0  0  0  0  0  0  0  0  0  0
   56.2276   28.7393   42.4702 H   0  0  0  0  0  0  0  0  0  0  0  0
   59.9218   29.5637   44.4701 H   0  0  0  0  0  0  0  0  0  0  0  0
   60.7424   30.0143   46.7785 H   0  0  0  0  0  0  0  0  0  0  0  0
  1  2  1  0
  2  3  1  0
  3  4  1  0
  4  5  1  0
  5  6  2  0
  6  7  1  0
  7  8  2  0
  8  9  1  0
  9 10  2  0
  4 11  2  0
 11 12  1  0
 12 13  1  0
 13 14  1  0
 14 15  1  0
 15 16  1  0
 16 17  2  0
 17 18  1  0
 18 19  2  0
 19 20  1  0
 20 21  1  0
 21 22  1  0
 22 23  2  0
 22 24  1  0
 19 25  1  0
 25 26  2  0
 12  2  2  0
 26 16  1  0
 10  5  1  0
  1 27  1  0
  1 28  1  0
  1 29  1  0
  6 30  1  0
  7 31  1  0
  8 32  1  0
  9 33  1  0
 10 34  1  0
 11 35  1  0
 13 36  1  0
 13 37  1  0
 14 38  1  0
 14 39  1  0
 17 40  1  0
 18 41  1  0
 20 42  1  0
 20 43  1  0
 21 44  1  0
 21 45  1  0
 25 46  1  0
 26 47  1  0
M  CHG  2  11   1  24  -1
M  END
>  <UniqueID>  (4) 
4

>  <SMILES>  (4) 
Cc1oc(-c2ccccc2)[nH+]c1CCOc1ccc(CCC(=O)[O-])cc1

>  <Energy>  (4) 
72.38623169460706

>  <Genealogy>  (4) 
Cc1oc(-c2ccccc2)[nH+]c1CCOc1ccc(CCC(=O)[O-])cc1 (protonated)
Cc1oc(-c2ccccc2)[nH+]c1CCOc1ccc(CCC(=O)[O-])cc1 (3D coordinates assigned)
Cc1oc(-c2ccccc2)[nH+]c1CCOc1ccc(CCC(=O)[O-])cc1 (optimized conformer: 72.38623169460706 kcal/mol)

>  <smiles>  (4) 
Cc1oc(-c2ccccc2)nc1CCOc1ccc(CCC(=O)O)cc1

>  <score_type>  (4) 
oracle

>  <origin>  (4) 
adg

>  <m_score__min__energy>  (4) 
-10.41

>  <m_primary>  (4) 
energy

$$$$
4:0
     RDKit          3D

 56 60  0  0  0  0  0  0  0  0999 V2000
   57.7570   31.8970   42.6280 C   0  0  0  0  0  0  0  0  0  0  0  0
   57.5620   33.0950   43.3740 O   0  0  0  0  0  0  0  0  0  0  0  0
   57.9520   33.2670   44.7100 C   0  0  0  0  0  0  0  0  0  0  0  0
   57.0390   33.1390   45.7900 C   0  0  0  0  0  0  0  0  0  0  0  0
   57.4700   33.3170   47.1160 C   0  0  0  0  0  0  0  0  0  0  0  0
   58.8090   33.6270   47.3470 C   0  0  0  0  0  0  0  0  0  0  0  0
   59.6920   33.7510   46.3000 C   0  0  0  0  0  0  0  0  0  0  0  0
   59.2990   33.5750   44.9750 C   0  0  0  0  0  0  0  0  0  0  0  0
   60.9820   34.0600   46.8600 C   0  0  0  0  0  0  0  0  0  0  0  0
   62.0580   34.1520   46.2130 O   0  0  0  0  0  0  0  0  0  0  0  0
   60.8760   34.1730   48.2780 N   0  0  0  0  0  0  0  0  0  0  0  0
   61.9970   34.2760   49.2150 C   0  0  0  0  0  0  0  0  0  0  0  0
   62.8460   32.9880   49.2610 C   0  0  2  0  0  0  0  0  0  0  0  0
   62.1050   31.8110   48.7810 C   0  0  0  0  0  0  0  0  0  0  0  0
   61.5000   30.8440   48.3930 C   0  0  0  0  0  0  0  0  0  0  0  0
   60.7710   29.6940   47.9260 C   0  0  0  0  0  0  0  0  0  0  0  0
   60.5690   28.6010   48.7760 C   0  0  0  0  0  0  0  0  0  0  0  0
   59.8690   27.4790   48.3230 C   0  0  0  0  0  0  0  0  0  0  0  0
   59.3670   27.4480   47.0160 C   0  0  0  0  0  0  0  0  0  0  0  0
   58.6980   26.3570   46.5750 N   0  0  0  0  0  0  0  0  0  0  0  0
   58.1960   26.2850   45.3150 C   0  0  0  0  0  0  0  0  0  0  0  0
   57.4750   25.0260   44.9190 C   0  0  0  0  0  0  0  0  0  0  0  0
   58.3400   27.3470   44.4520 N   0  0  0  0  0  0  0  0  0  0  0  0
   57.8010   27.2650   43.0800 C   0  0  0  0  0  0  0  0  0  0  0  0
   59.0380   28.4620   44.8520 C   0  0  0  0  0  0  0  0  0  0  0  0
   59.2180   29.4260   44.0540 O   0  0  0  0  0  0  0  0  0  0  0  0
   59.5620   28.5400   46.1550 C   0  0  0  0  0  0  0  0  0  0  0  0
   60.2700   29.6670   46.6170 C   0  0  0  0  0  0  0  0  0  0  0  0
   63.2990   32.7490   50.6320 N   0  0  0  0  0  0  0  0  0  0  0  0
   64.7190   32.7890   50.6440 C   0  0  0  0  0  0  0  0  0  0  0  0
   65.4080   32.6230   51.6830 O   0  0  0  0  0  0  0  0  0  0  0  0
   65.2780   33.0250   49.3680 N   0  0  0  0  0  0  0  0  0  0  0  0
   64.1490   33.1260   48.5130 C   0  0  0  0  0  0  0  0  0  0  0  0
   64.2510   33.2640   47.2650 O   0  0  0  0  0  0  0  0  0  0  0  0
   59.4980   33.8400   48.6640 C   0  0  0  0  0  0  0  0  0  0  0  0
   57.8944   31.0527   43.3196 H   0  0  0  0  0  0  0  0  0  0  0  0
   56.8771   31.7124   41.9942 H   0  0  0  0  0  0  0  0  0  0  0  0
   58.6500   32.0010   41.9942 H   0  0  0  0  0  0  0  0  0  0  0  0
   55.9850   32.8984   45.5871 H   0  0  0  0  0  0  0  0  0  0  0  0
   56.7650   33.2138   47.9541 H   0  0  0  0  0  0  0  0  0  0  0  0
   60.0252   33.6746   44.1548 H   0  0  0  0  0  0  0  0  0  0  0  0
   62.6407   35.1124   48.9051 H   0  0  0  0  0  0  0  0  0  0  0  0
   61.5802   34.4388   50.2199 H   0  0  0  0  0  0  0  0  0  0  0  0
   60.9620   28.6247   49.8031 H   0  0  0  0  0  0  0  0  0  0  0  0
   59.7125   26.6207   48.9930 H   0  0  0  0  0  0  0  0  0  0  0  0
   57.1635   24.4821   45.8229 H   0  0  0  0  0  0  0  0  0  0  0  0
   56.5877   25.2839   44.3222 H   0  0  0  0  0  0  0  0  0  0  0  0
   58.1465   24.3912   44.3222 H   0  0  0  0  0  0  0  0  0  0  0  0
   56.7143   27.0997   43.1222 H   0  0  0  0  0  0  0  0  0  0  0  0
   58.0085   28.2050   42.5478 H   0  0  0  0  0  0  0  0  0  0  0  0
   58.2786   26.4292   42.5478 H   0  0  0  0  0  0  0  0  0  0  0  0
   60.4299   30.5268   45.9498 H   0  0  0  0  0  0  0  0  0  0  0  0
   62.6880   32.5910   51.4630 H   0  0  0  0  0  0  0  0  0  0  0  0
   66.2880   33.0600   49.1060 H   0  0  0  0  0  0  0  0  0  0  0  0
   59.4705   32.9257   49.2749 H   0  0  0  0  0  0  0  0  0  0  0  0
   59.0229   34.6211   49.2756 H   0  0  0  0  0  0  0  0  0  0  0  0
  1  2  1  0
  2  3  1  0
  3  4  2  0
  4  5  1  0
  5  6  2  0
  6  7  1  0
  7  8  2  0
  7  9  1  0
  9 10  2  0
  9 11  1  0
 11 12  1  0
 12 13  1  0
 13 14  1  6
 14 15  3  0
 15 16  1  0
 16 17  2  0
 17 18  1  0
 18 19  2  0
 19 20  1  0
 20 21  2  0
 21 22  1  0
 21 23  1  0
 23 24  1  0
 23 25  1  0
 25 26  2  0
 25 27  1  0
 27 28  2  0
 13 29  1  0
 29 30  1  0
 30 31  2  0
 30 32  1  0
 32 33  1  0
 33 34  2  0
 11 35  1  0
  8  3  1  0
 33 13  1  0
 35  6  1  0
 28 16  1  0
 27 19  1  0
  1 36  1  0
  1 37  1  0
  1 38  1  0
  4 39  1  0
  5 40  1  0
  8 41  1  0
 12 42  1  0
 12 43  1  0
 17 44  1  0
 18 45  1  0
 22 46  1  0
 22 47  1  0
 22 48  1  0
 24 49  1  0
 24 50  1  0
 24 51  1  0
 28 52  1  0
 29 53  1  0
 32 54  1  0
 35 55  1  0
 35 56  1  0
M  END
>  <UniqueID>  (5) 
5

>  <SMILES>  (5) 
COc1ccc2c(c1)C(=O)N(C[C@]1(C#Cc3ccc4nc(C)n(C)c(=O)c4c3)NC(=O)NC1=O)C2

>  <Energy>  (5) 
101.8051744286793

>  <Genealogy>  (5) 
COc1ccc2c(c1)C(=O)N(C[C@]1(C#Cc3ccc4nc(C)n(C)c(=O)c4c3)NC(=O)NC1=O)C2 (chirality)
COc1ccc2c(c1)C(=O)N(C[C@]1(C#Cc3ccc4nc(C)n(C)c(=O)c4c3)NC(=O)NC1=O)C2 (3D coordinates assigned)
COc1ccc2c(c1)C(=O)N(C[C@]1(C#Cc3ccc4nc(C)n(C)c(=O)c4c3)NC(=O)NC1=O)C2 (nonaromatic ring conformer: 101.8051744286793 kcal/mol)

>  <smiles>  (5) 
COc1ccc2c(c1)C(=O)N(CC1(C#Cc3ccc4nc(C)n(C)c(=O)c4c3)NC(=O)NC1=O)C2

>  <score_type>  (5) 
oracle

>  <origin>  (5) 
adg

>  <m_score__min__energy>  (5) 
-8.9000000000000004

>  <m_primary>  (5) 
energy

$$$$
5:0
     RDKit          3D

 67 71  0  0  0  0  0  0  0  0999 V2000
   59.4150   34.5130   46.3260 C   0  0  0  0  0  0  0  0  0  0  0  0
   58.1490   33.7640   45.9140 C   0  0  0  0  0  0  0  0  0  0  0  0
   58.4640   32.4650   45.1580 C   0  0  0  0  0  0  0  0  0  0  0  0
   58.1430   31.1910   45.9640 C   0  0  0  0  0  0  0  0  0  0  0  0
   59.1980   30.8810   47.0010 C   0  0  0  0  0  0  0  0  0  0  0  0
   59.2580   31.3950   48.2830 C   0  0  0  0  0  0  0  0  0  0  0  0
   58.4580   32.3030   48.9740 C   0  0  0  0  0  0  0  0  0  0  0  0
   58.8210   32.6210   50.2940 C   0  0  0  0  0  0  0  0  0  0  0  0
   59.9660   32.0410   50.8840 C   0  0  0  0  0  0  0  0  0  0  0  0
   60.7740   31.1350   50.1550 C   0  0  0  0  0  0  0  0  0  0  0  0
   61.9530   30.5270   50.7140 N   0  0  0  0  0  0  0  0  0  0  0  0
   63.3170   30.9790   50.4380 C   0  0  0  0  0  0  0  0  0  0  0  0
   63.3230   31.9870   49.3180 C   0  0  0  0  0  0  0  0  0  0  0  0
   63.6340   31.5960   48.0040 C   0  0  0  0  0  0  0  0  0  0  0  0
   63.6290   32.5380   46.9700 C   0  0  0  0  0  0  0  0  0  0  0  0
   63.3200   33.8740   47.2410 C   0  0  0  0  0  0  0  0  0  0  0  0
   63.0180   34.2720   48.5450 C   0  0  0  0  0  0  0  0  0  0  0  0
   63.0210   33.3330   49.5820 C   0  0  0  0  0  0  0  0  0  0  0  0
   60.3820   30.8500   48.8430 C   0  0  0  0  0  0  0  0  0  0  0  0
   61.0070   30.0570   47.9540 N   0  0  0  0  0  0  0  0  0  0  0  0
   60.2910   30.0860   46.8340 N   0  0  0  0  0  0  0  0  0  0  0  0
   60.7120   29.3780   45.6240 C   0  0  0  0  0  0  0  0  0  0  0  0
   59.8780   28.1450   45.3910 C   0  0  0  0  0  0  0  0  0  0  0  0
   59.9730   27.0550   46.2700 C   0  0  0  0  0  0  0  0  0  0  0  0
   59.1730   25.9240   46.0830 C   0  0  0  0  0  0  0  0  0  0  0  0
   58.2510   25.8760   45.0270 C   0  0  0  0  0  0  0  0  0  0  0  0
   57.4200   24.6690   44.8190 C   0  0  0  0  0  0  0  0  0  0  0  0
   58.0210   23.5490   44.2160 C   0  0  0  0  0  0  0  0  0  0  0  0
   57.2700   22.4110   43.9210 C   0  0  0  0  0  0  0  0  0  0  0  0
   55.9110   22.3750   44.2210 C   0  0  0  0  0  0  0  0  0  0  0  0
   55.2980   23.4700   44.8310 C   0  0  0  0  0  0  0  0  0  0  0  0
   56.0380   24.6230   45.1540 C   0  0  0  0  0  0  0  0  0  0  0  0
   55.3460   25.7230   45.8740 C   0  0  0  0  0  0  0  0  0  0  0  0
   55.9550   26.4270   46.7220 O   0  0  0  0  0  0  0  0  0  0  0  0
   53.9940   25.9600   45.6520 O   0  0  0  0  0  0  0  0  0  0  0  0
   58.1480   26.9680   44.1520 C   0  0  0  0  0  0  0  0  0  0  0  0
   58.9440   28.1010   44.3430 C   0  0  0  0  0  0  0  0  0  0  0  0
   59.4781   34.5504   47.4236 H   0  0  0  0  0  0  0  0  0  0  0  0
   60.2966   33.9910   45.9256 H   0  0  0  0  0  0  0  0  0  0  0  0
   59.3819   35.5370   45.9256 H   0  0  0  0  0  0  0  0  0  0  0  0
   57.5734   33.5170   46.8182 H   0  0  0  0  0  0  0  0  0  0  0  0
   57.5747   34.4165   45.2398 H   0  0  0  0  0  0  0  0  0  0  0  0
   57.8716   32.4491   44.2313 H   0  0  0  0  0  0  0  0  0  0  0  0
   59.5463   32.4594   44.9616 H   0  0  0  0  0  0  0  0  0  0  0  0
   57.1778   31.3295   46.4732 H   0  0  0  0  0  0  0  0  0  0  0  0
   58.1105   30.3481   45.2580 H   0  0  0  0  0  0  0  0  0  0  0  0
   57.5730   32.7552   48.5026 H   0  0  0  0  0  0  0  0  0  0  0  0
   58.2081   33.3277   50.8728 H   0  0  0  0  0  0  0  0  0  0  0  0
   60.2327   32.2958   51.9203 H   0  0  0  0  0  0  0  0  0  0  0  0
   61.8370   29.7650   51.4200 H   0  0  0  0  0  0  0  0  0  0  0  0
   63.7351   31.4421   51.3439 H   0  0  0  0  0  0  0  0  0  0  0  0
   63.9252   30.1124   50.1396 H   0  0  0  0  0  0  0  0  0  0  0  0
   63.8820   30.5462   47.7883 H   0  0  0  0  0  0  0  0  0  0  0  0
   63.8685   32.2271   45.9424 H   0  0  0  0  0  0  0  0  0  0  0  0
   63.3147   34.6128   46.4260 H   0  0  0  0  0  0  0  0  0  0  0  0
   62.7776   35.3243   48.7569 H   0  0  0  0  0  0  0  0  0  0  0  0
   62.7858   33.6502   50.6087 H   0  0  0  0  0  0  0  0  0  0  0  0
   60.6055   30.0507   44.7602 H   0  0  0  0  0  0  0  0  0  0  0  0
   61.7600   29.0686   45.7505 H   0  0  0  0  0  0  0  0  0  0  0  0
   60.6811   27.0909   47.1110 H   0  0  0  0  0  0  0  0  0  0  0  0
   59.2670   25.0677   46.7671 H   0  0  0  0  0  0  0  0  0  0  0  0
   59.0940   23.5708   43.9747 H   0  0  0  0  0  0  0  0  0  0  0  0
   57.7521   21.5412   43.4509 H   0  0  0  0  0  0  0  0  0  0  0  0
   55.3188   21.4808   43.9765 H   0  0  0  0  0  0  0  0  0  0  0  0
   54.2233   23.4317   45.0623 H   0  0  0  0  0  0  0  0  0  0  0  0
   57.4381   26.9323   43.3125 H   0  0  0  0  0  0  0  0  0  0  0  0
   58.8383   28.9634   43.6684 H   0  0  0  0  0  0  0  0  0  0  0  0
  1  2  1  0
  2  3  1  0
  3  4  1  0
  4  5  1  0
  5  6  2  0
  6  7  1  0
  7  8  2  0
  8  9  1  0
  9 10  2  0
 10 11  1  0
 11 12  1  0
 12 13  1  0
 13 14  2  0
 14 15  1  0
 15 16  2  0
 16 17  1  0
 17 18  2  0
 10 19  1  0
 19 20  2  0
 20 21  1  0
 21 22  1  0
 22 23  1  0
 23 24  2  0
 24 25  1  0
 25 26  2  0
 26 27  1  0
 27 28  2  0
 28 29  1  0
 29 30  2  0
 30 31  1  0
 31 32  2  0
 32 33  1  0
 33 34  2  0
 33 35  1  0
 26 36  1  0
 36 37  2  0
 21  5  1  0
 37 23  1  0
 19  6  1  0
 32 27  1  0
 18 13  1  0
  1 38  1  0
  1 39  1  0
  1 40  1  0
  2 41  1  0
  2 42  1  0
  3 43  1  0
  3 44  1  0
  4 45  1  0
  4 46  1  0
  7 47  1  0
  8 48  1  0
  9 49  1  0
 11 50  1  0
 12 51  1  0
 12 52  1  0
 14 53  1  0
 15 54  1  0
 16 55  1  0
 17 56  1  0
 18 57  1  0
 22 58  1  0
 22 59  1  0
 24 60  1  0
 25 61  1  0
 28 62  1  0
 29 63  1  0
 30 64  1  0
 31 65  1  0
 36 66  1  0
 37 67  1  0
M  CHG  1  35  -1
M  END
>  <UniqueID>  (6) 
6

>  <SMILES>  (6) 
CCCCc1c2cccc(NCc3ccccc3)c2nn1Cc1ccc(-c2ccccc2C(=O)[O-])cc1

>  <Energy>  (6) 
113.23263063341844

>  <Genealogy>  (6) 
CCCCc1c2cccc(NCc3ccccc3)c2nn1Cc1ccc(-c2ccccc2C(=O)[O-])cc1 (protonated)
CCCCc1c2cccc(NCc3ccccc3)c2nn1Cc1ccc(-c2ccccc2C(=O)[O-])cc1 (3D coordinates assigned)
CCCCc1c2cccc(NCc3ccccc3)c2nn1Cc1ccc(-c2ccccc2C(=O)[O-])cc1 (optimized conformer: 113.23263063341844 kcal/mol)

>  <smiles>  (6) 
CCCCc1c2cccc(NCc3ccccc3)c2nn1Cc1ccc(-c2ccccc2C(=O)O)cc1

>  <score_type>  (6) 
oracle

>  <origin>  (6) 
adg

>  <m_score__min__energy>  (6) 
-12.67

>  <m_primary>  (6) 
energy

$$$$
6:0
     RDKit          3D

 64 67  0  0  0  0  0  0  0  0999 V2000
   56.0250   29.8700   53.2010 C   0  0  0  0  0  0  0  0  0  0  0  0
   56.2270   30.5840   51.9830 O   0  0  0  0  0  0  0  0  0  0  0  0
   57.4660   30.7170   51.3410 C   0  0  0  0  0  0  0  0  0  0  0  0
   58.4030   29.6680   51.2810 C   0  0  0  0  0  0  0  0  0  0  0  0
   59.6230   29.8510   50.6240 C   0  0  0  0  0  0  0  0  0  0  0  0
   59.9310   31.0720   50.0100 C   0  0  0  0  0  0  0  0  0  0  0  0
   61.1650   31.1910   49.3490 O   0  0  0  0  0  0  0  0  0  0  0  0
   61.5330   30.5210   48.1420 C   0  0  0  0  0  0  0  0  0  0  0  0
   61.3320   31.4150   46.8780 C   0  0  1  0  0  0  0  0  0  0  0  0
   59.9420   31.1390   46.2730 C   0  0  0  0  0  0  0  0  0  0  0  0
   59.5850   29.8300   45.8870 C   0  0  0  0  0  0  0  0  0  0  0  0
   58.3190   29.5450   45.3450 C   0  0  0  0  0  0  0  0  0  0  0  0
   57.9400   28.2440   44.9740 O   0  0  0  0  0  0  0  0  0  0  0  0
   58.5070   27.5160   43.8900 C   0  0  0  0  0  0  0  0  0  0  0  0
   57.3960   30.5820   45.1600 C   0  0  0  0  0  0  0  0  0  0  0  0
   56.1310   30.2650   44.6420 O   0  0  0  0  0  0  0  0  0  0  0  0
   55.9020   29.7190   43.3470 C   0  0  0  0  0  0  0  0  0  0  0  0
   57.7630   31.9000   45.4840 C   0  0  0  0  0  0  0  0  0  0  0  0
   59.0370   32.1850   45.9950 C   0  0  0  0  0  0  0  0  0  0  0  0
   59.4150   33.6110   46.2380 C   0  0  0  0  0  0  0  0  0  0  0  0
   60.9320   33.7620   46.2210 C   0  0  0  0  0  0  0  0  0  0  0  0
   61.5480   32.8620   47.2140 N   0  0  2  0  0  0  0  0  0  0  0  0
   63.2610   33.2690   47.3630 S   0  0  0  0  0  0  0  0  0  0  0  0
   64.1040   32.1890   46.7420 O   0  0  0  0  0  0  0  0  0  0  0  0
   63.5670   34.5610   46.6560 O   0  0  0  0  0  0  0  0  0  0  0  0
   63.7410   33.4880   49.0500 C   0  0  0  0  0  0  0  0  0  0  0  0
   62.8440   34.0640   49.9620 C   0  0  0  0  0  0  0  0  0  0  0  0
   63.2120   34.2440   51.2980 C   0  0  0  0  0  0  0  0  0  0  0  0
   64.4720   33.8260   51.7480 C   0  0  0  0  0  0  0  0  0  0  0  0
   64.8840   34.0700   53.1710 C   0  0  0  0  0  0  0  0  0  0  0  0
   65.3660   33.2390   50.8420 C   0  0  0  0  0  0  0  0  0  0  0  0
   64.9950   33.0540   49.5060 C   0  0  0  0  0  0  0  0  0  0  0  0
   58.9980   32.1230   50.0820 C   0  0  0  0  0  0  0  0  0  0  0  0
   57.7780   31.9430   50.7400 C   0  0  0  0  0  0  0  0  0  0  0  0
   56.2142   30.5387   54.0537 H   0  0  0  0  0  0  0  0  0  0  0  0
   54.9883   29.5048   53.2444 H   0  0  0  0  0  0  0  0  0  0  0  0
   56.7167   29.0158   53.2444 H   0  0  0  0  0  0  0  0  0  0  0  0
   58.1742   28.7010   51.7528 H   0  0  0  0  0  0  0  0  0  0  0  0
   60.3501   29.0264   50.5886 H   0  0  0  0  0  0  0  0  0  0  0  0
   62.5930   30.2343   48.2066 H   0  0  0  0  0  0  0  0  0  0  0  0
   60.8821   29.6406   48.0361 H   0  0  0  0  0  0  0  0  0  0  0  0
   62.0822   31.1621   46.1143 H   0  0  0  0  0  0  0  0  0  0  0  0
   60.3125   29.0146   46.0127 H   0  0  0  0  0  0  0  0  0  0  0  0
   59.1383   26.7055   44.2830 H   0  0  0  0  0  0  0  0  0  0  0  0
   57.7018   27.0881   43.2747 H   0  0  0  0  0  0  0  0  0  0  0  0
   59.1190   28.1919   43.2747 H   0  0  0  0  0  0  0  0  0  0  0  0
   55.4782   28.7086   43.4448 H   0  0  0  0  0  0  0  0  0  0  0  0
   55.1972   30.3607   42.7979 H   0  0  0  0  0  0  0  0  0  0  0  0
   56.8537   29.6659   42.7979 H   0  0  0  0  0  0  0  0  0  0  0  0
   57.0420   32.7172   45.3348 H   0  0  0  0  0  0  0  0  0  0  0  0
   58.9778   34.2424   45.4504 H   0  0  0  0  0  0  0  0  0  0  0  0
   59.0337   33.9215   47.2220 H   0  0  0  0  0  0  0  0  0  0  0  0
   61.3104   33.5102   45.2193 H   0  0  0  0  0  0  0  0  0  0  0  0
   61.1906   34.8014   46.4717 H   0  0  0  0  0  0  0  0  0  0  0  0
   61.0930   33.0700   48.1300 H   0  0  0  0  0  0  0  0  0  0  0  0
   61.8450   34.3758   49.6234 H   0  0  0  0  0  0  0  0  0  0  0  0
   62.5092   34.7162   52.0002 H   0  0  0  0  0  0  0  0  0  0  0  0
   64.1389   33.6287   53.8493 H   0  0  0  0  0  0  0  0  0  0  0  0
   65.8652   33.6072   53.3531 H   0  0  0  0  0  0  0  0  0  0  0  0
   64.9498   35.1528   53.3531 H   0  0  0  0  0  0  0  0  0  0  0  0
   66.3629   32.9227   51.1828 H   0  0  0  0  0  0  0  0  0  0  0  0
   65.6909   32.5651   48.8083 H   0  0  0  0  0  0  0  0  0  0  0  0
   59.2303   33.0926   49.6174 H   0  0  0  0  0  0  0  0  0  0  0  0
   57.0563   32.7719   50.7862 H   0  0  0  0  0  0  0  0  0  0  0  0
  1  2  1  0
  2  3  1  0
  3  4  2  0
  4  5  1  0
  5  6  2  0
  6  7  1  0
  7  8  1  0
  8  9  1  0
  9 10  1  0
 10 11  2  0
 11 12  1  0
 12 13  1  0
 13 14  1  0
 12 15  2  0
 15 16  1  0
 16 17  1  0
 15 18  1  0
 18 19  2  0
 19 20  1  0
 20 21  1  0
 21 22  1  0
 22 23  1  0
 23 24  2  0
 23 25  2  0
 23 26  1  0
 26 27  2  0
 27 28  1  0
 28 29  2  0
 29 30  1  0
 29 31  1  0
 31 32  2  0
  6 33  1  0
 33 34  2  0
 34  3  1  0
 22  9  1  0
 32 26  1  0
 19 10  1  0
  1 35  1  0
  1 36  1  0
  1 37  1  0
  4 38  1  0
  5 39  1  0
  8 40  1  0
  8 41  1  0
  9 42  1  6
 11 43  1  0
 14 44  1  0
 14 45  1  0
 14 46  1  0
 17 47  1  0
 17 48  1  0
 17 49  1  0
 18 50  1  0
 20 51  1  0
 20 52  1  0
 21 53  1  0
 21 54  1  0
 22 55  1  1
 27 56  1  0
 28 57  1  0
 30 58  1  0
 30 59  1  0
 30 60  1  0
 31 61  1  0
 32 62  1  0
 33 63  1  0
 34 64  1  0
M  CHG  1  22   1
M  END
>  <UniqueID>  (7) 
7

>  <SMILES>  (7) 
COc1ccc(OC[C@H]2c3cc(OC)c(OC)cc3CC[N@@H+]2S(=O)(=O)c2ccc(C)cc2)cc1

>  <Energy>  (7) 
74.5188580647941

>  <Genealogy>  (7) 
COc1ccc(OCC2c3cc(OC)c(OC)cc3CC[NH+]2S(=O)(=O)c2ccc(C)cc2)cc1 (protonated)
COc1ccc(OC[C@H]2c3cc(OC)c(OC)cc3CC[N@@H+]2S(=O)(=O)c2ccc(C)cc2)cc1 (chirality)
COc1ccc(OC[C@H]2c3cc(OC)c(OC)cc3CC[N@@H+]2S(=O)(=O)c2ccc(C)cc2)cc1 (3D coordinates assigned)
COc1ccc(OC[C@H]2c3cc(OC)c(OC)cc3CC[N@@H+]2S(=O)(=O)c2ccc(C)cc2)cc1 (nonaromatic ring conformer: 74.5188580647941 kcal/mol)

>  <smiles>  (7) 
COc1ccc(OCC2c3cc(OC)c(OC)cc3CCN2S(=O)(=O)c2ccc(C)cc2)cc1

>  <score_type>  (7) 
oracle

>  <origin>  (7) 
adg

>  <m_score__min__energy>  (7) 
-7.0199999999999996

>  <m_primary>  (7) 
energy

$$$$
7:0
     RDKit          3D

 51 54  0  0  0  0  0  0  0  0999 V2000
   58.9170   34.6680   46.1460 C   0  0  0  0  0  0  0  0  0  0  0  0
   59.0140   33.6670   45.1390 O   0  0  0  0  0  0  0  0  0  0  0  0
   58.4880   32.3690   45.2520 C   0  0  0  0  0  0  0  0  0  0  0  0
   57.2070   32.0470   44.7350 C   0  0  0  0  0  0  0  0  0  0  0  0
   56.7530   30.7420   44.8730 C   0  0  0  0  0  0  0  0  0  0  0  0
   55.5620   30.2480   44.4950 N   0  0  0  0  0  0  0  0  0  0  0  0
   55.5360   28.9660   44.8460 N   0  0  0  0  0  0  0  0  0  0  0  0
   56.7090   28.6430   45.4410 C   0  0  0  0  0  0  0  0  0  0  0  0
   57.0200   27.2930   45.9520 C   0  0  0  0  0  0  0  0  0  0  0  0
   58.3280   26.9370   46.3220 C   0  0  0  0  0  0  0  0  0  0  0  0
   58.5850   25.6460   46.7890 C   0  0  0  0  0  0  0  0  0  0  0  0
   57.5780   24.7370   46.8720 N   0  0  0  0  0  0  0  0  0  0  0  0
   56.3070   25.0470   46.5050 C   0  0  0  0  0  0  0  0  0  0  0  0
   56.0060   26.3260   46.0310 C   0  0  0  0  0  0  0  0  0  0  0  0
   57.5020   29.7760   45.4760 C   0  0  0  0  0  0  0  0  0  0  0  0
   58.7520   30.0500   46.0260 C   0  0  0  0  0  0  0  0  0  0  0  0
   59.2650   31.3670   45.9040 C   0  0  0  0  0  0  0  0  0  0  0  0
   60.5600   31.7050   46.4430 N   0  0  0  0  0  0  0  0  0  0  0  0
   61.4180   30.7400   47.1360 C   0  0  0  0  0  0  0  0  0  0  0  0
   61.3890   30.9660   48.6520 C   0  0  0  0  0  0  0  0  0  0  0  0
   62.7780   31.3120   49.2040 C   0  0  0  0  0  0  0  0  0  0  0  0
   62.8090   32.7070   49.7040 N   0  0  0  0  0  0  0  0  0  0  0  0
   61.5330   33.4240   49.4660 C   0  0  0  0  0  0  0  0  0  0  0  0
   61.5330   34.2020   48.1350 C   0  0  0  0  0  0  0  0  0  0  0  0
   62.4260   33.6130   47.2140 O   0  0  0  0  0  0  0  0  0  0  0  0
   63.7620   33.7830   47.6570 C   0  0  0  0  0  0  0  0  0  0  0  0
   63.9490   33.4690   49.1600 C   0  0  0  0  0  0  0  0  0  0  0  0
   58.9628   34.1955   47.1383 H   0  0  0  0  0  0  0  0  0  0  0  0
   59.7506   35.3777   46.0390 H   0  0  0  0  0  0  0  0  0  0  0  0
   57.9627   35.2045   46.0390 H   0  0  0  0  0  0  0  0  0  0  0  0
   56.5900   32.8103   44.2383 H   0  0  0  0  0  0  0  0  0  0  0  0
   59.1442   27.6703   46.2444 H   0  0  0  0  0  0  0  0  0  0  0  0
   59.6047   25.3643   47.0903 H   0  0  0  0  0  0  0  0  0  0  0  0
   55.5134   24.2891   46.5813 H   0  0  0  0  0  0  0  0  0  0  0  0
   54.9800   26.5739   45.7214 H   0  0  0  0  0  0  0  0  0  0  0  0
   59.3262   29.2659   46.5413 H   0  0  0  0  0  0  0  0  0  0  0  0
   60.9110   32.6830   46.3280 H   0  0  0  0  0  0  0  0  0  0  0  0
   61.0633   29.7219   46.9175 H   0  0  0  0  0  0  0  0  0  0  0  0
   62.4510   30.8733   46.7822 H   0  0  0  0  0  0  0  0  0  0  0  0
   60.7008   31.7946   48.8752 H   0  0  0  0  0  0  0  0  0  0  0  0
   61.0541   30.0336   49.1300 H   0  0  0  0  0  0  0  0  0  0  0  0
   63.0196   30.6267   50.0298 H   0  0  0  0  0  0  0  0  0  0  0  0
   63.5163   31.2091   48.3951 H   0  0  0  0  0  0  0  0  0  0  0  0
   60.7142   32.6898   49.4456 H   0  0  0  0  0  0  0  0  0  0  0  0
   61.4021   34.1528   50.2794 H   0  0  0  0  0  0  0  0  0  0  0  0
   60.5181   34.1924   47.7109 H   0  0  0  0  0  0  0  0  0  0  0  0
   61.8551   35.2357   48.3290 H   0  0  0  0  0  0  0  0  0  0  0  0
   64.4113   33.1116   47.0759 H   0  0  0  0  0  0  0  0  0  0  0  0
   64.0240   34.8410   47.5085 H   0  0  0  0  0  0  0  0  0  0  0  0
   64.8673   32.8774   49.2890 H   0  0  0  0  0  0  0  0  0  0  0  0
   64.0149   34.4228   49.7040 H   0  0  0  0  0  0  0  0  0  0  0  0
  1  2  1  0
  2  3  1  0
  3  4  2  0
  4  5  1  0
  5  6  1  0
  6  7  1  0
  7  8  2  0
  8  9  1  0
  9 10  2  0
 10 11  1  0
 11 12  2  0
 12 13  1  0
 13 14  2  0
  8 15  1  0
 15 16  1  0
 16 17  2  0
 17 18  1  0
 18 19  1  0
 19 20  1  0
 20 21  1  0
 21 22  1  0
 22 23  1  0
 23 24  1  0
 24 25  1  0
 25 26  1  0
 26 27  1  0
 17  3  1  0
 27 22  1  0
 15  5  2  0
 14  9  1  0
  1 28  1  0
  1 29  1  0
  1 30  1  0
  4 31  1  0
 10 32  1  0
 11 33  1  0
 13 34  1  0
 14 35  1  0
 16 36  1  0
 18 37  1  0
 19 38  1  0
 19 39  1  0
 20 40  1  0
 20 41  1  0
 21 42  1  0
 21 43  1  0
 23 44  1  0
 23 45  1  0
 24 46  1  0
 24 47  1  0
 26 48  1  0
 26 49  1  0
 27 50  1  0
 27 51  1  0
M  CHG  1   6  -1
M  END
>  <UniqueID>  (8) 
8

>  <SMILES>  (8) 
COc1cc2[n-]nc(-c3ccncc3)c2cc1NCCCN1CCOCC1

>  <Energy>  (8) 
105.04479205274963

>  <Genealogy>  (8) 
COc1cc2[n-]nc(-c3ccncc3)c2cc1NCCCN1CCOCC1 (protonated)
COc1cc2[n-]nc(-c3ccncc3)c2cc1NCCCN1CCOCC1 (3D coordinates assigned)
COc1cc2[n-]nc(-c3ccncc3)c2cc1NCCCN1CCOCC1 (nonaromatic ring conformer: 105.04479205274963 kcal/mol)

>  <smiles>  (8) 
COc1cc2[nH]nc(-c3ccncc3)c2cc1NCCCN1CCOCC1

>  <score_type>  (8) 
oracle

>  <origin>  (8) 
adg

>  <m_score__min__energy>  (8) 
-9.0800000000000001

>  <m_primary>  (8) 
energy

$$$$
8:0
     RDKit          3D

 52 54  0  0  0  0  0  0  0  0999 V2000
   60.7360   30.0420   46.3000 C   0  0  0  0  0  0  0  0  0  0  0  0
   61.1990   30.5440   47.5490 O   0  0  0  0  0  0  0  0  0  0  0  0
   62.0500   31.6510   47.6960 C   0  0  0  0  0  0  0  0  0  0  0  0
   62.0900   32.6960   46.7510 C   0  0  0  0  0  0  0  0  0  0  0  0
   62.9510   33.7790   46.9360 C   0  0  0  0  0  0  0  0  0  0  0  0
   63.7790   33.8310   48.0600 C   0  0  0  0  0  0  0  0  0  0  0  0
   63.7490   32.8020   49.0020 C   0  0  0  0  0  0  0  0  0  0  0  0
   62.8810   31.7050   48.8270 C   0  0  0  0  0  0  0  0  0  0  0  0
   62.8160   30.6420   49.7420 O   0  0  0  0  0  0  0  0  0  0  0  0
   62.4210   30.7340   51.1110 C   0  0  0  0  0  0  0  0  0  0  0  0
   61.1810   29.8610   51.3710 C   0  0  0  0  0  0  0  0  0  0  0  0
   60.3570   29.6620   50.1510 N   0  0  1  0  0  0  0  0  0  0  0  0
   60.6770   28.3670   49.5220 C   0  0  0  0  0  0  0  0  0  0  0  0
   58.8930   29.8110   50.3810 C   0  0  0  0  0  0  0  0  0  0  0  0
   58.4950   31.0850   51.1110 C   0  0  0  0  0  0  0  0  0  0  0  0
   57.6730   31.0180   52.2470 C   0  0  0  0  0  0  0  0  0  0  0  0
   57.3210   32.1800   52.9340 C   0  0  0  0  0  0  0  0  0  0  0  0
   57.7810   33.4100   52.4700 C   0  0  0  0  0  0  0  0  0  0  0  0
   58.5530   33.4710   51.3550 N   0  0  0  0  0  0  0  0  0  0  0  0
   58.9110   32.3550   50.6570 C   0  0  0  0  0  0  0  0  0  0  0  0
   59.7190   32.4580   49.5150 O   0  0  0  0  0  0  0  0  0  0  0  0
   59.4030   33.1770   48.3510 C   0  0  0  0  0  0  0  0  0  0  0  0
   59.7450   34.5330   48.1900 C   0  0  0  0  0  0  0  0  0  0  0  0
   59.3990   35.2120   47.0150 C   0  0  0  0  0  0  0  0  0  0  0  0
   58.6990   34.5500   46.0030 C   0  0  0  0  0  0  0  0  0  0  0  0
   58.3350   33.2090   46.1670 C   0  0  0  0  0  0  0  0  0  0  0  0
   57.4270   32.3860   44.9120 Cl  0  0  0  0  0  0  0  0  0  0  0  0
   58.6790   32.5310   47.3390 C   0  0  0  0  0  0  0  0  0  0  0  0
   59.9998   29.2438   46.4758 H   0  0  0  0  0  0  0  0  0  0  0  0
   60.2650   30.8561   45.7295 H   0  0  0  0  0  0  0  0  0  0  0  0
   61.5854   29.6382   45.7295 H   0  0  0  0  0  0  0  0  0  0  0  0
   61.4402   32.6579   45.8643 H   0  0  0  0  0  0  0  0  0  0  0  0
   62.9776   34.5924   46.1959 H   0  0  0  0  0  0  0  0  0  0  0  0
   64.4566   34.6857   48.2029 H   0  0  0  0  0  0  0  0  0  0  0  0
   64.4048   32.8469   49.8840 H   0  0  0  0  0  0  0  0  0  0  0  0
   63.2472   30.3899   51.7506 H   0  0  0  0  0  0  0  0  0  0  0  0
   62.1752   31.7810   51.3420 H   0  0  0  0  0  0  0  0  0  0  0  0
   61.5125   28.8779   51.7365 H   0  0  0  0  0  0  0  0  0  0  0  0
   60.5573   30.3804   52.1134 H   0  0  0  0  0  0  0  0  0  0  0  0
   60.6290   30.3960   49.4540 H   0  0  0  0  0  0  0  0  0  0  0  0
   60.8627   27.6156   50.3037 H   0  0  0  0  0  0  0  0  0  0  0  0
   59.8316   28.0443   48.8966 H   0  0  0  0  0  0  0  0  0  0  0  0
   61.5754   28.4752   48.8966 H   0  0  0  0  0  0  0  0  0  0  0  0
   58.3892   29.8038   49.4032 H   0  0  0  0  0  0  0  0  0  0  0  0
   58.5912   28.9733   51.0269 H   0  0  0  0  0  0  0  0  0  0  0  0
   57.3040   30.0429   52.5977 H   0  0  0  0  0  0  0  0  0  0  0  0
   56.6876   32.1254   53.8316 H   0  0  0  0  0  0  0  0  0  0  0  0
   57.5185   34.3331   53.0076 H   0  0  0  0  0  0  0  0  0  0  0  0
   60.2856   35.0609   48.9894 H   0  0  0  0  0  0  0  0  0  0  0  0
   59.6788   36.2683   46.8886 H   0  0  0  0  0  0  0  0  0  0  0  0
   58.4342   35.0829   45.0778 H   0  0  0  0  0  0  0  0  0  0  0  0
   58.3791   31.4807   47.4690 H   0  0  0  0  0  0  0  0  0  0  0  0
  1  2  1  0
  2  3  1  0
  3  4  2  0
  4  5  1  0
  5  6  2  0
  6  7  1  0
  7  8  2  0
  8  9  1  0
  9 10  1  0
 10 11  1  0
 11 12  1  0
 12 13  1  0
 12 14  1  0
 14 15  1  0
 15 16  2  0
 16 17  1  0
 17 18  2  0
 18 19  1  0
 19 20  2  0
 20 21  1  0
 21 22  1  0
 22 23  2  0
 23 24  1  0
 24 25  2  0
 25 26  1  0
 26 27  1  0
 26 28  2  0
  8  3  1  0
 20 15  1  0
 28 22  1  0
  1 29  1  0
  1 30  1  0
  1 31  1  0
  4 32  1  0
  5 33  1  0
  6 34  1  0
  7 35  1  0
 10 36  1  0
 10 37  1  0
 11 38  1  0
 11 39  1  0
 12 40  1  6
 13 41  1  0
 13 42  1  0
 13 43  1  0
 14 44  1  0
 14 45  1  0
 16 46  1  0
 17 47  1  0
 18 48  1  0
 23 49  1  0
 24 50  1  0
 25 51  1  0
 28 52  1  0
M  CHG  1  12   1
M  END
>  <UniqueID>  (9) 
9

>  <SMILES>  (9) 
COc1ccccc1OCC[N@@H+](C)Cc1cccnc1Oc1cccc(Cl)c1

>  <Energy>  (9) 
61.877023455337465

>  <Genealogy>  (9) 
COc1ccccc1OCC[NH+](C)Cc1cccnc1Oc1cccc(Cl)c1 (protonated)
COc1ccccc1OCC[N@@H+](C)Cc1cccnc1Oc1cccc(Cl)c1 (chirality)
COc1ccccc1OCC[N@@H+](C)Cc1cccnc1Oc1cccc(Cl)c1 (3D coordinates assigned)
COc1ccccc1OCC[N@@H+](C)Cc1cccnc1Oc1cccc(Cl)c1 (optimized conformer: 61.877023455337465 kcal/mol)

>  <smiles>  (9) 
COc1ccccc1OCCN(C)Cc1cccnc1Oc1cccc(Cl)c1

>  <score_type>  (9) 
oracle

>  <origin>  (9) 
adg

>  <m_score__min__energy>  (9) 
-5.7999999999999998

>  <m_primary>  (9) 
energy

$$$$
9:0
     RDKit          3D

 33 34  0  0  0  0  0  0  0  0999 V2000
   59.3790   34.8560   46.4200 C   0  0  0  0  0  0  0  0  0  0  0  0
   58.9680   34.6360   44.9650 C   0  0  0  0  0  0  0  0  0  0  0  0
   57.6190   33.9150   44.8430 C   0  0  0  0  0  0  0  0  0  0  0  0
   57.7620   32.4370   45.0550 C   0  0  0  0  0  0  0  0  0  0  0  0
   56.7350   31.5630   44.8780 N   0  0  0  0  0  0  0  0  0  0  0  0
   57.3190   30.3780   45.1350 C   0  0  0  0  0  0  0  0  0  0  0  0
   56.7500   29.1180   45.1340 C   0  0  0  0  0  0  0  0  0  0  0  0
   55.5260   28.9760   44.8640 O   0  0  0  0  0  0  0  0  0  0  0  0
   57.5490   28.0400   45.4420 N   0  0  0  0  0  0  0  0  0  0  0  0
   56.9690   26.6880   45.4910 C   0  0  0  0  0  0  0  0  0  0  0  0
   58.8790   28.2340   45.7830 C   0  0  0  0  0  0  0  0  0  0  0  0
   59.5860   27.2440   46.1280 O   0  0  0  0  0  0  0  0  0  0  0  0
   59.4390   29.4960   45.7580 N   0  0  0  0  0  0  0  0  0  0  0  0
   60.8510   29.7160   46.1190 C   0  0  0  0  0  0  0  0  0  0  0  0
   60.9510   30.5300   47.4050 C   0  0  0  0  0  0  0  0  0  0  0  0
   58.6240   30.5410   45.4410 C   0  0  0  0  0  0  0  0  0  0  0  0
   58.9330   31.8460   45.3980 N   0  0  0  0  0  0  0  0  0  0  0  0
   58.6069   34.4427   47.0856 H   0  0  0  0  0  0  0  0  0  0  0  0
   60.3369   34.3500   46.6110 H   0  0  0  0  0  0  0  0  0  0  0  0
   59.4892   35.9337   46.6110 H   0  0  0  0  0  0  0  0  0  0  0  0
   58.8926   35.6140   44.4671 H   0  0  0  0  0  0  0  0  0  0  0  0
   59.7322   34.0019   44.4919 H   0  0  0  0  0  0  0  0  0  0  0  0
   56.9287   34.3189   45.5983 H   0  0  0  0  0  0  0  0  0  0  0  0
   57.2306   34.0810   43.8273 H   0  0  0  0  0  0  0  0  0  0  0  0
   56.8381   26.3829   46.5397 H   0  0  0  0  0  0  0  0  0  0  0  0
   55.9923   26.6894   44.9849 H   0  0  0  0  0  0  0  0  0  0  0  0
   57.6431   25.9813   44.9849 H   0  0  0  0  0  0  0  0  0  0  0  0
   61.3430   28.7433   46.2667 H   0  0  0  0  0  0  0  0  0  0  0  0
   61.3445   30.2701   45.3070 H   0  0  0  0  0  0  0  0  0  0  0  0
   60.8684   29.8578   48.2718 H   0  0  0  0  0  0  0  0  0  0  0  0
   61.9198   31.0501   47.4353 H   0  0  0  0  0  0  0  0  0  0  0  0
   60.1369   31.2691   47.4353 H   0  0  0  0  0  0  0  0  0  0  0  0
   59.8470   32.3130   45.5860 H   0  0  0  0  0  0  0  0  0  0  0  0
  1  2  1  0
  2  3  1  0
  3  4  1  0
  4  5  2  0
  5  6  1  0
  6  7  1  0
  7  8  2  0
  7  9  1  0
  9 10  1  0
  9 11  1  0
 11 12  2  0
 11 13  1  0
 13 14  1  0
 14 15  1  0
 13 16  1  0
 16 17  1  0
 17  4  1  0
 16  6  2  0
  1 18  1  0
  1 19  1  0
  1 20  1  0
  2 21  1  0
  2 22  1  0
  3 23  1  0
  3 24  1  0
 10 25  1  0
 10 26  1  0
 10 27  1  0
 14 28  1  0
 14 29  1  0
 15 30  1  0
 15 31  1  0
 15 32  1  0
 17 33  1  0
M  END
>  <UniqueID>  (10) 
10

>  <SMILES>  (10) 
CCCc1nc2c(=O)n(C)c(=O)n(CC)c2[nH]1

>  <Energy>  (10) 
68.36870641276589

>  <Genealogy>  (10) 
CCCc1nc2c(=O)n(C)c(=O)n(CC)c2[nH]1 (3D coordinates assigned)
CCCc1nc2c(=O)n(C)c(=O)n(CC)c2[nH]1 (optimized conformer: 68.36870641276589 kcal/mol)

>  <smiles>  (10) 
CCCc1nc2c(=O)n(C)c(=O)n(CC)c2[nH]1

>  <score_type>  (10) 
oracle

>  <origin>  (10) 
adg

>  <m_score__min__energy>  (10) 
-5.6299999999999999

>  <m_primary>  (10) 
energy

$$$$
10:0
     RDKit          3D

 36 38  0  0  0  0  0  0  0  0999 V2000
   56.6490   21.5200   42.6650 C   0  0  0  0  0  0  0  0  0  0  0  0
   57.4900   22.0320   43.7410 N   0  0  0  0  0  0  0  0  0  0  0  0
   58.2360   21.2810   44.5440 N   0  0  0  0  0  0  0  0  0  0  0  0
   58.8800   22.0740   45.4320 C   0  0  0  0  0  0  0  0  0  0  0  0
   58.5130   23.3780   45.1670 C   0  0  0  0  0  0  0  0  0  0  0  0
   58.8680   24.5830   45.7670 C   0  0  0  0  0  0  0  0  0  0  0  0
   58.2930   25.7620   45.2500 C   0  0  0  0  0  0  0  0  0  0  0  0
   58.6920   27.3500   45.9860 S   0  0  0  0  0  0  0  0  0  0  0  0
   58.1370   28.3380   44.5520 C   0  0  0  0  0  0  0  0  0  0  0  0
   56.7910   28.9420   44.8020 C   0  0  0  0  0  0  0  0  0  0  0  0
   55.8590   28.2210   45.2510 O   0  0  0  0  0  0  0  0  0  0  0  0
   56.5900   30.3420   44.5780 N   0  0  0  0  0  0  0  0  0  0  0  0
   57.4130   31.4080   45.0730 C   0  0  0  0  0  0  0  0  0  0  0  0
   57.3870   32.6420   44.4100 C   0  0  0  0  0  0  0  0  0  0  0  0
   58.1540   33.7140   44.8770 C   0  0  0  0  0  0  0  0  0  0  0  0
   58.9410   33.5650   46.0240 C   0  0  0  0  0  0  0  0  0  0  0  0
   59.9830   35.0320   46.6650 Br  0  0  0  0  0  0  0  0  0  0  0  0
   58.9540   32.3450   46.7060 C   0  0  0  0  0  0  0  0  0  0  0  0
   58.1900   31.2710   46.2400 C   0  0  0  0  0  0  0  0  0  0  0  0
   57.4040   25.7010   44.1470 C   0  0  0  0  0  0  0  0  0  0  0  0
   57.0670   24.4640   43.5670 C   0  0  0  0  0  0  0  0  0  0  0  0
   57.6470   23.3170   44.1090 C   0  0  0  0  0  0  0  0  0  0  0  0
   55.7840   20.9934   43.0946 H   0  0  0  0  0  0  0  0  0  0  0  0
   56.2973   22.3574   42.0444 H   0  0  0  0  0  0  0  0  0  0  0  0
   57.2314   20.8231   42.0444 H   0  0  0  0  0  0  0  0  0  0  0  0
   58.3070   20.2390   44.4920 H   0  0  0  0  0  0  0  0  0  0  0  0
   59.5700   21.7402   46.2210 H   0  0  0  0  0  0  0  0  0  0  0  0
   59.5707   24.6141   46.6127 H   0  0  0  0  0  0  0  0  0  0  0  0
   58.8634   29.1432   44.3678 H   0  0  0  0  0  0  0  0  0  0  0  0
   58.0651   27.6745   43.6776 H   0  0  0  0  0  0  0  0  0  0  0  0
   56.7589   32.7685   43.5159 H   0  0  0  0  0  0  0  0  0  0  0  0
   58.1385   34.6751   44.3421 H   0  0  0  0  0  0  0  0  0  0  0  0
   59.5671   32.2296   47.6120 H   0  0  0  0  0  0  0  0  0  0  0  0
   58.1956   30.3162   46.7862 H   0  0  0  0  0  0  0  0  0  0  0  0
   56.9741   26.6286   43.7412 H   0  0  0  0  0  0  0  0  0  0  0  0
   56.3714   24.4037   42.7170 H   0  0  0  0  0  0  0  0  0  0  0  0
  1  2  1  0
  2  3  1  0
  3  4  2  0
  4  5  1  0
  5  6  2  0
  6  7  1  0
  7  8  1  0
  8  9  1  0
  9 10  1  0
 10 11  2  0
 10 12  1  0
 12 13  1  0
 13 14  2  0
 14 15  1  0
 15 16  2  0
 16 17  1  0
 16 18  1  0
 18 19  2  0
  7 20  2  0
 20 21  1  0
 21 22  2  0
 22  2  1  0
 22  5  1  0
 19 13  1  0
  1 23  1  0
  1 24  1  0
  1 25  1  0
  3 26  1  0
  4 27  1  0
  6 28  1  0
  9 29  1  0
  9 30  1  0
 14 31  1  0
 15 32  1  0
 18 33  1  0
 19 34  1  0
 20 35  1  0
 21 36  1  0
M  CHG  2   3   1  12  -1
M  END
>  <UniqueID>  (11) 
11

>  <SMILES>  (11) 
Cn1[nH+]cc2cc(SCC(=O)[N-]c3ccc(Br)cc3)ccc21

>  <Energy>  (11) 
74.02227468618804

>  <Genealogy>  (11) 
Cn1[nH+]cc2cc(SCC(=O)[N-]c3ccc(Br)cc3)ccc21 (protonated)
Cn1[nH+]cc2cc(SCC(=O)[N-]c3ccc(Br)cc3)ccc21 (3D coordinates assigned)
Cn1[nH+]cc2cc(SCC(=O)[N-]c3ccc(Br)cc3)ccc21 (optimized conformer: 74.02227468618804 kcal/mol)

>  <smiles>  (11) 
Cn1ncc2cc(SCC(=O)Nc3ccc(Br)cc3)ccc21

>  <score_type>  (11) 
oracle

>  <origin>  (11) 
adg

>  <m_score__min__energy>  (11) 
-8.7599999999999998

>  <m_primary>  (11) 
energy

$$$$
11:0
     RDKit          3D

 51 53  0  0  0  0  0  0  0  0999 V2000
   57.0680   30.1470   44.0480 C   0  0  0  0  0  0  0  0  0  0  0  0
   57.2450   30.8860   45.2530 O   0  0  0  0  0  0  0  0  0  0  0  0
   57.8000   32.1720   45.3190 C   0  0  0  0  0  0  0  0  0  0  0  0
   57.0180   33.2540   44.9050 C   0  0  0  0  0  0  0  0  0  0  0  0
   57.5300   34.5510   44.9420 C   0  0  0  0  0  0  0  0  0  0  0  0
   58.8260   34.7810   45.4080 C   0  0  0  0  0  0  0  0  0  0  0  0
   59.6180   33.7140   45.8710 C   0  0  0  0  0  0  0  0  0  0  0  0
   61.0380   33.9700   46.3440 C   0  0  0  0  0  0  0  0  0  0  0  0
   61.3020   33.6220   47.7660 N   0  0  0  0  0  0  0  0  0  0  0  0
   60.1080   33.6170   48.6460 C   0  0  0  0  0  0  0  0  0  0  0  0
   60.1370   32.4950   49.6990 C   0  0  0  0  0  0  0  0  0  0  0  0
   60.4720   31.1820   49.1040 N   0  0  0  0  0  0  0  0  0  0  0  0
   59.3020   30.5450   48.4620 C   0  0  0  0  0  0  0  0  0  0  0  0
   59.7180   29.2830   47.7410 C   0  0  0  0  0  0  0  0  0  0  0  0
   59.6050   29.2150   46.3440 C   0  0  0  0  0  0  0  0  0  0  0  0
   60.0050   28.0710   45.6580 C   0  0  0  0  0  0  0  0  0  0  0  0
   60.5200   26.9920   46.3740 C   0  0  0  0  0  0  0  0  0  0  0  0
   60.6260   27.0610   47.7260 N   0  0  0  0  0  0  0  0  0  0  0  0
   60.2440   28.1640   48.4290 C   0  0  0  0  0  0  0  0  0  0  0  0
   60.4040   28.1500   49.9220 C   0  0  0  0  0  0  0  0  0  0  0  0
   61.6730   31.1980   48.2230 C   0  0  0  0  0  0  0  0  0  0  0  0
   62.3170   32.5920   48.1010 C   0  0  1  0  0  0  0  0  0  0  0  0
   63.5590   32.5960   47.1970 C   0  0  0  0  0  0  0  0  0  0  0  0
   59.1070   32.4080   45.7890 C   0  0  0  0  0  0  0  0  0  0  0  0
   56.8181   29.1037   44.2911 H   0  0  0  0  0  0  0  0  0  0  0  0
   56.2512   30.5925   43.4613 H   0  0  0  0  0  0  0  0  0  0  0  0
   57.9980   30.1741   43.4613 H   0  0  0  0  0  0  0  0  0  0  0  0
   55.9921   33.0816   44.5476 H   0  0  0  0  0  0  0  0  0  0  0  0
   56.9111   35.3949   44.6032 H   0  0  0  0  0  0  0  0  0  0  0  0
   59.2308   35.8038   45.4132 H   0  0  0  0  0  0  0  0  0  0  0  0
   61.7186   33.3764   45.7159 H   0  0  0  0  0  0  0  0  0  0  0  0
   61.1981   35.0550   46.2594 H   0  0  0  0  0  0  0  0  0  0  0  0
   60.0533   34.5843   49.1669 H   0  0  0  0  0  0  0  0  0  0  0  0
   59.2304   33.4428   48.0061 H   0  0  0  0  0  0  0  0  0  0  0  0
   60.8915   32.7424   50.4603 H   0  0  0  0  0  0  0  0  0  0  0  0
   59.1329   32.4200   50.1420 H   0  0  0  0  0  0  0  0  0  0  0  0
   58.5581   30.2937   49.2324 H   0  0  0  0  0  0  0  0  0  0  0  0
   58.8696   31.2461   47.7330 H   0  0  0  0  0  0  0  0  0  0  0  0
   59.1976   30.0714   45.7868 H   0  0  0  0  0  0  0  0  0  0  0  0
   59.9154   28.0196   44.5629 H   0  0  0  0  0  0  0  0  0  0  0  0
   60.8410   26.0835   45.8434 H   0  0  0  0  0  0  0  0  0  0  0  0
   59.4159   28.2365   50.3975 H   0  0  0  0  0  0  0  0  0  0  0  0
   60.8784   27.2069   50.2311 H   0  0  0  0  0  0  0  0  0  0  0  0
   61.0350   28.9964   50.2311 H   0  0  0  0  0  0  0  0  0  0  0  0
   62.4190   30.5031   48.6361 H   0  0  0  0  0  0  0  0  0  0  0  0
   61.3442   30.9004   47.2164 H   0  0  0  0  0  0  0  0  0  0  0  0
   62.7113   32.8722   49.0889 H   0  0  0  0  0  0  0  0  0  0  0  0
   64.4658   32.5989   47.8197 H   0  0  0  0  0  0  0  0  0  0  0  0
   63.5532   31.6978   46.5620 H   0  0  0  0  0  0  0  0  0  0  0  0
   63.5474   33.4941   46.5620 H   0  0  0  0  0  0  0  0  0  0  0  0
   59.7354   31.5588   46.0957 H   0  0  0  0  0  0  0  0  0  0  0  0
  1  2  1  0
  2  3  1  0
  3  4  2  0
  4  5  1  0
  5  6  2  0
  6  7  1  0
  7  8  1  0
  8  9  1  0
  9 10  1  0
 10 11  1  0
 11 12  1  0
 12 13  1  0
 13 14  1  0
 14 15  2  0
 15 16  1  0
 16 17  2  0
 17 18  1  0
 18 19  2  0
 19 20  1  0
 12 21  1  0
 21 22  1  0
 22 23  1  0
  7 24  2  0
 24  3  1  0
 22  9  1  0
 19 14  1  0
  1 25  1  0
  1 26  1  0
  1 27  1  0
  4 28  1  0
  5 29  1  0
  6 30  1  0
  8 31  1  0
  8 32  1  0
 10 33  1  0
 10 34  1  0
 11 35  1  0
 11 36  1  0
 13 37  1  0
 13 38  1  0
 15 39  1  0
 16 40  1  0
 17 41  1  0
 20 42  1  0
 20 43  1  0
 20 44  1  0
 21 45  1  0
 21 46  1  0
 22 47  1  1
 23 48  1  0
 23 49  1  0
 23 50  1  0
 24 51  1  0
M  END
>  <UniqueID>  (12) 
12

>  <SMILES>  (12) 
COc1cccc(CN2CCN(Cc3cccnc3C)C[C@H]2C)c1

>  <Energy>  (12) 
73.2232952853144

>  <Genealogy>  (12) 
COc1cccc(CN2CCN(Cc3cccnc3C)C[C@H]2C)c1 (chirality)
COc1cccc(CN2CCN(Cc3cccnc3C)C[C@H]2C)c1 (3D coordinates assigned)
COc1cccc(CN2CCN(Cc3cccnc3C)C[C@H]2C)c1 (nonaromatic ring conformer: 73.2232952853144 kcal/mol)

>  <smiles>  (12) 
COc1cccc(CN2CCN(Cc3cccnc3C)CC2C)c1

>  <score_type>  (12) 
oracle

>  <origin>  (12) 
adg

>  <m_score__min__energy>  (12) 
-7.9299999999999997

>  <m_primary>  (12) 
energy

$$$$
12:0
     RDKit          3D

 58 60  0  0  0  0  0  0  0  0999 V2000
   57.5360   33.3758   46.5470 H   0  0  0  0  0  0  0  0  0  0  0  0
   58.2380   33.1800   45.7230 C   0  0  0  0  0  0  0  0  0  0  0  0
   59.4680   33.7020   45.7980 C   0  0  0  0  0  0  0  0  0  0  0  0
   60.2625   33.3025   45.1506 H   0  0  0  0  0  0  0  0  0  0  0  0
   59.7880   34.8250   46.7500 C   0  0  0  0  0  0  0  0  0  0  0  0
   58.9254   34.9748   47.4160 H   0  0  0  0  0  0  0  0  0  0  0  0
   60.0018   35.7166   46.1423 H   0  0  0  0  0  0  0  0  0  0  0  0
   60.9830   34.5640   47.5810 N   0  0  0  0  0  0  0  0  0  0  0  0
   62.0730   33.8270   46.9010 C   0  0  0  0  0  0  0  0  0  0  0  0
   63.0006   34.4113   46.9910 H   0  0  0  0  0  0  0  0  0  0  0  0
   61.7737   33.6913   45.8512 H   0  0  0  0  0  0  0  0  0  0  0  0
   62.3140   32.4320   47.4940 C   0  0  0  0  0  0  0  0  0  0  0  0
   62.9955   32.5135   48.3536 H   0  0  0  0  0  0  0  0  0  0  0  0
   62.7613   31.7836   46.7262 H   0  0  0  0  0  0  0  0  0  0  0  0
   61.0360   31.8500   47.9370 N   0  0  0  0  0  0  0  0  0  0  0  0
   61.1840   30.4150   48.2630 C   0  0  0  0  0  0  0  0  0  0  0  0
   60.9237   30.2524   49.3193 H   0  0  0  0  0  0  0  0  0  0  0  0
   62.2255   30.1091   48.0849 H   0  0  0  0  0  0  0  0  0  0  0  0
   60.2720   29.5950   47.3930 C   0  0  0  0  0  0  0  0  0  0  0  0
   59.2280   28.8580   47.9730 C   0  0  0  0  0  0  0  0  0  0  0  0
   59.1028   28.8536   49.0658 H   0  0  0  0  0  0  0  0  0  0  0  0
   58.3470   28.1300   47.1700 C   0  0  0  0  0  0  0  0  0  0  0  0
   57.5411   27.5431   47.6350 H   0  0  0  0  0  0  0  0  0  0  0  0
   58.4840   28.1430   45.7740 C   0  0  0  0  0  0  0  0  0  0  0  0
   57.4860   27.4120   44.9090 C   0  0  0  0  0  0  0  0  0  0  0  0
   56.9212   28.1481   44.3180 H   0  0  0  0  0  0  0  0  0  0  0  0
   56.8193   26.8375   45.5689 H   0  0  0  0  0  0  0  0  0  0  0  0
   58.1480   26.4610   43.9840 N   0  0  0  0  0  0  0  0  0  0  0  0
   59.1450   26.3300   44.2760 H   0  0  0  0  0  0  0  0  0  0  0  0
   58.1500   27.0090   42.6160 C   0  0  0  0  0  0  0  0  0  0  0  0
   58.1540   28.1081   42.6613 H   0  0  0  0  0  0  0  0  0  0  0  0
   59.0469   26.6607   42.0828 H   0  0  0  0  0  0  0  0  0  0  0  0
   57.2506   26.6673   42.0828 H   0  0  0  0  0  0  0  0  0  0  0  0
   57.4790   25.1460   43.9920 C   0  0  0  0  0  0  0  0  0  0  0  0
   57.3153   24.8242   45.0311 H   0  0  0  0  0  0  0  0  0  0  0  0
   56.5110   25.2239   43.4755 H   0  0  0  0  0  0  0  0  0  0  0  0
   58.1120   24.4094   43.4755 H   0  0  0  0  0  0  0  0  0  0  0  0
   59.5320   28.8750   45.1930 C   0  0  0  0  0  0  0  0  0  0  0  0
   59.6518   28.8852   44.0996 H   0  0  0  0  0  0  0  0  0  0  0  0
   60.4240   29.5910   45.9970 C   0  0  0  0  0  0  0  0  0  0  0  0
   61.2482   30.1535   45.5341 H   0  0  0  0  0  0  0  0  0  0  0  0
   60.5080   32.5980   49.0960 C   0  0  0  0  0  0  0  0  0  0  0  0
   61.0318   32.2576   50.0014 H   0  0  0  0  0  0  0  0  0  0  0  0
   59.4269   32.4023   49.1500 H   0  0  0  0  0  0  0  0  0  0  0  0
   60.6960   34.1260   48.9630 C   0  0  0  0  0  0  0  0  0  0  0  0
   61.5340   34.4315   49.6067 H   0  0  0  0  0  0  0  0  0  0  0  0
   59.7482   34.5971   49.2627 H   0  0  0  0  0  0  0  0  0  0  0  0
   57.7750   32.3520   44.5860 C   0  0  0  0  0  0  0  0  0  0  0  0
   57.0280   31.1700   44.7710 C   0  0  0  0  0  0  0  0  0  0  0  0
   56.7394   30.8577   45.7855 H   0  0  0  0  0  0  0  0  0  0  0  0
   56.6530   30.3940   43.6710 C   0  0  0  0  0  0  0  0  0  0  0  0
   56.0743   29.4710   43.8230 H   0  0  0  0  0  0  0  0  0  0  0  0
   57.0110   30.7870   42.3780 C   0  0  0  0  0  0  0  0  0  0  0  0
   56.7084   30.1773   41.5139 H   0  0  0  0  0  0  0  0  0  0  0  0
   57.7530   31.9540   42.1840 C   0  0  0  0  0  0  0  0  0  0  0  0
   58.0325   32.2647   41.1665 H   0  0  0  0  0  0  0  0  0  0  0  0
   58.1410   32.7280   43.2820 C   0  0  0  0  0  0  0  0  0  0  0  0
   58.7375   33.6386   43.1240 H   0  0  0  0  0  0  0  0  0  0  0  0
  1  2  1  0
  2  3  2  0
  3  4  1  0
  3  5  1  0
  5  6  1  0
  5  7  1  0
  5  8  1  0
  8  9  1  0
  9 10  1  0
  9 11  1  0
  9 12  1  0
 12 13  1  0
 12 14  1  0
 12 15  1  0
 15 16  1  0
 16 17  1  0
 16 18  1  0
 16 19  1  0
 19 20  2  0
 20 21  1  0
 20 22  1  0
 22 23  1  0
 22 24  2  0
 24 25  1  0
 25 26  1  0
 25 27  1  0
 25 28  1  0
 28 29  1  0
 28 30  1  0
 30 31  1  0
 30 32  1  0
 30 33  1  0
 28 34  1  0
 34 35  1  0
 34 36  1  0
 34 37  1  0
 24 38  1  0
 38 39  1  0
 38 40  2  0
 40 41  1  0
 15 42  1  0
 42 43  1  0
 42 44  1  0
 42 45  1  0
 45 46  1  0
 45 47  1  0
  2 48  1  0
 48 49  2  0
 49 50  1  0
 49 51  1  0
 51 52  1  0
 51 53  2  0
 53 54  1  0
 53 55  1  0
 55 56  1  0
 55 57  2  0
 57 58  1  0
 45  8  1  0
 57 48  1  0
 40 19  1  0
M  CHG  1  28   1
M  END
>  <UniqueID>  (13) 
13

>  <SMILES>  (13) 
C[NH+](C)Cc1ccc(CN2CCN(C/C=C/c3ccccc3)CC2)cc1

>  <Energy>  (13) 
69.76325624193265

>  <Genealogy>  (13) 
C[NH+](C)Cc1ccc(CN2CCN(CC=Cc3ccccc3)CC2)cc1 (protonated)
C[NH+](C)Cc1ccc(CN2CCN(C/C=C/c3ccccc3)CC2)cc1 (cis-trans isomerization)
C[NH+](C)Cc1ccc(CN2CCN(C/C=C/c3ccccc3)CC2)cc1 (3D coordinates assigned)
C[NH+](C)Cc1ccc(CN2CCN(C/C=C/c3ccccc3)CC2)cc1 (nonaromatic ring conformer: 69.76325624193265 kcal/mol)

>  <smiles>  (13) 
CN(C)Cc1ccc(CN2CCN(CC=Cc3ccccc3)CC2)cc1

>  <score_type>  (13) 
oracle

>  <origin>  (13) 
adg

>  <m_score__min__energy>  (13) 
-7.0800000000000001

>  <m_primary>  (13) 
energy

$$$$
13:0
     RDKit          3D

 75 77  0  0  0  0  0  0  0  0999 V2000
   63.1040   30.8350   50.8030 C   0  0  0  0  0  0  0  0  0  0  0  0
   61.7640   30.9560   51.5350 C   0  0  0  0  0  0  0  0  0  0  0  0
   60.6700   30.3430   50.7470 N   0  0  0  0  0  0  0  0  0  0  0  0
   61.1810   29.3340   49.7810 C   0  0  0  0  0  0  0  0  0  0  0  0
   60.7570   27.9360   50.2210 C   0  0  0  0  0  0  0  0  0  0  0  0
   59.6330   29.7740   51.6420 C   0  0  0  0  0  0  0  0  0  0  0  0
   58.2120   30.0970   51.1410 C   0  0  0  0  0  0  0  0  0  0  0  0
   57.5530   31.2820   51.8740 C   0  0  0  0  0  0  0  0  0  0  0  0
   58.5830   32.2090   52.5340 C   0  0  0  0  0  0  0  0  0  0  0  0
   58.8870   33.4200   51.6310 C   0  0  0  0  0  0  0  0  0  0  0  0
   59.9440   33.1310   50.6500 N   0  0  0  0  0  0  0  0  0  0  0  0
   60.0990   34.2180   49.6750 C   0  0  0  0  0  0  0  0  0  0  0  0
   61.2590   33.9090   48.7510 C   0  0  0  0  0  0  0  0  0  0  0  0
   62.5560   33.8340   49.2920 C   0  0  0  0  0  0  0  0  0  0  0  0
   63.6400   33.4650   48.4910 C   0  0  0  0  0  0  0  0  0  0  0  0
   63.4400   33.1270   47.1520 C   0  0  0  0  0  0  0  0  0  0  0  0
   62.1610   33.2000   46.5960 C   0  0  0  0  0  0  0  0  0  0  0  0
   61.0640   33.6000   47.3770 C   0  0  0  0  0  0  0  0  0  0  0  0
   59.7590   33.8060   46.7040 C   0  0  0  0  0  0  0  0  0  0  0  0
   59.7180   34.6810   45.6040 C   0  0  0  0  0  0  0  0  0  0  0  0
   58.5420   34.8560   44.8730 C   0  0  0  0  0  0  0  0  0  0  0  0
   57.3980   34.1390   45.2120 C   0  0  0  0  0  0  0  0  0  0  0  0
   57.4260   33.2460   46.2850 C   0  0  0  0  0  0  0  0  0  0  0  0
   58.5980   33.0670   47.0460 C   0  0  0  0  0  0  0  0  0  0  0  0
   58.5560   32.1270   48.1900 C   0  0  0  0  0  0  0  0  0  0  0  0
   57.7620   32.3520   49.1460 O   0  0  0  0  0  0  0  0  0  0  0  0
   59.4300   31.0360   48.2560 O   0  0  0  0  0  0  0  0  0  0  0  0
   59.7380   30.2580   47.1040 C   0  0  0  0  0  0  0  0  0  0  0  0
   58.5480   29.3880   46.6920 C   0  0  0  0  0  0  0  0  0  0  0  0
   57.9270   29.7910   45.3740 C   0  0  0  0  0  0  0  0  0  0  0  0
   58.5190   30.7850   44.5720 C   0  0  0  0  0  0  0  0  0  0  0  0
   57.8920   31.2150   43.3980 C   0  0  0  0  0  0  0  0  0  0  0  0
   56.6490   30.6900   43.0340 C   0  0  0  0  0  0  0  0  0  0  0  0
   56.0380   29.7250   43.8400 C   0  0  0  0  0  0  0  0  0  0  0  0
   56.6750   29.2690   44.9990 C   0  0  0  0  0  0  0  0  0  0  0  0
   63.9184   30.7615   51.5388 H   0  0  0  0  0  0  0  0  0  0  0  0
   63.0972   29.9338   50.1723 H   0  0  0  0  0  0  0  0  0  0  0  0
   63.2587   31.7228   50.1723 H   0  0  0  0  0  0  0  0  0  0  0  0
   61.8375   30.4448   52.5062 H   0  0  0  0  0  0  0  0  0  0  0  0
   61.5378   32.0231   51.6765 H   0  0  0  0  0  0  0  0  0  0  0  0
   60.7694   29.5431   48.7826 H   0  0  0  0  0  0  0  0  0  0  0  0
   62.2792   29.3868   49.7477 H   0  0  0  0  0  0  0  0  0  0  0  0
   60.7419   27.8862   51.3198 H   0  0  0  0  0  0  0  0  0  0  0  0
   59.7522   27.7176   49.8302 H   0  0  0  0  0  0  0  0  0  0  0  0
   61.4712   27.1962   49.8302 H   0  0  0  0  0  0  0  0  0  0  0  0
   59.7573   28.6818   51.6833 H   0  0  0  0  0  0  0  0  0  0  0  0
   59.7562   30.2214   52.6393 H   0  0  0  0  0  0  0  0  0  0  0  0
   58.2678   30.3388   50.0693 H   0  0  0  0  0  0  0  0  0  0  0  0
   57.5914   29.2105   51.3385 H   0  0  0  0  0  0  0  0  0  0  0  0
   56.9676   31.8650   51.1477 H   0  0  0  0  0  0  0  0  0  0  0  0
   56.9145   30.8704   52.6696 H   0  0  0  0  0  0  0  0  0  0  0  0
   58.1832   32.5666   53.4944 H   0  0  0  0  0  0  0  0  0  0  0  0
   59.5140   31.6452   52.6930 H   0  0  0  0  0  0  0  0  0  0  0  0
   57.9697   33.6985   51.0915 H   0  0  0  0  0  0  0  0  0  0  0  0
   59.2386   34.2404   52.2739 H   0  0  0  0  0  0  0  0  0  0  0  0
   59.7090   32.2440   50.1450 H   0  0  0  0  0  0  0  0  0  0  0  0
   59.1760   34.3147   49.0844 H   0  0  0  0  0  0  0  0  0  0  0  0
   60.2959   35.1607   50.2065 H   0  0  0  0  0  0  0  0  0  0  0  0
   62.7179   34.0679   50.3546 H   0  0  0  0  0  0  0  0  0  0  0  0
   64.6538   33.4409   48.9172 H   0  0  0  0  0  0  0  0  0  0  0  0
   64.2903   32.8028   46.5340 H   0  0  0  0  0  0  0  0  0  0  0  0
   62.0113   32.9420   45.5372 H   0  0  0  0  0  0  0  0  0  0  0  0
   60.6240   35.2344   45.3161 H   0  0  0  0  0  0  0  0  0  0  0  0
   58.5191   35.5607   44.0287 H   0  0  0  0  0  0  0  0  0  0  0  0
   56.4719   34.2760   44.6345 H   0  0  0  0  0  0  0  0  0  0  0  0
   56.5211   32.6747   46.5395 H   0  0  0  0  0  0  0  0  0  0  0  0
   59.9948   30.9320   46.2735 H   0  0  0  0  0  0  0  0  0  0  0  0
   60.5857   29.5993   47.3438 H   0  0  0  0  0  0  0  0  0  0  0  0
   58.8916   28.3463   46.6097 H   0  0  0  0  0  0  0  0  0  0  0  0
   57.7746   29.5156   47.4637 H   0  0  0  0  0  0  0  0  0  0  0  0
   59.4812   31.2265   44.8706 H   0  0  0  0  0  0  0  0  0  0  0  0
   58.3781   31.9678   42.7600 H   0  0  0  0  0  0  0  0  0  0  0  0
   56.1525   31.0354   42.1152 H   0  0  0  0  0  0  0  0  0  0  0  0
   55.0527   29.3227   43.5619 H   0  0  0  0  0  0  0  0  0  0  0  0
   56.1949   28.4986   45.6203 H   0  0  0  0  0  0  0  0  0  0  0  0
  1  2  1  0
  2  3  1  0
  3  4  1  0
  4  5  1  0
  3  6  1  0
  6  7  1  0
  7  8  1  0
  8  9  1  0
  9 10  1  0
 10 11  1  0
 11 12  1  0
 12 13  1  0
 13 14  2  0
 14 15  1  0
 15 16  2  0
 16 17  1  0
 17 18  2  0
 18 19  1  0
 19 20  2  0
 20 21  1  0
 21 22  2  0
 22 23  1  0
 23 24  2  0
 24 25  1  0
 25 26  2  0
 25 27  1  0
 27 28  1  0
 28 29  1  0
 29 30  1  0
 30 31  2  0
 31 32  1  0
 32 33  2  0
 33 34  1  0
 34 35  2  0
 18 13  1  0
 24 19  1  0
 35 30  1  0
  1 36  1  0
  1 37  1  0
  1 38  1  0
  2 39  1  0
  2 40  1  0
  4 41  1  0
  4 42  1  0
  5 43  1  0
  5 44  1  0
  5 45  1  0
  6 46  1  0
  6 47  1  0
  7 48  1  0
  7 49  1  0
  8 50  1  0
  8 51  1  0
  9 52  1  0
  9 53  1  0
 10 54  1  0
 10 55  1  0
 11 56  1  0
 12 57  1  0
 12 58  1  0
 14 59  1  0
 15 60  1  0
 16 61  1  0
 17 62  1  0
 20 63  1  0
 21 64  1  0
 22 65  1  0
 23 66  1  0
 28 67  1  0
 28 68  1  0
 29 69  1  0
 29 70  1  0
 31 71  1  0
 32 72  1  0
 33 73  1  0
 34 74  1  0
 35 75  1  0
M  END
>  <UniqueID>  (14) 
14

>  <SMILES>  (14) 
CCN(CC)CCCCCNCc1ccccc1-c1ccccc1C(=O)OCCc1ccccc1

>  <Energy>  (14) 
72.83535300109358

>  <Genealogy>  (14) 
CCN(CC)CCCCCNCc1ccccc1-c1ccccc1C(=O)OCCc1ccccc1 (3D coordinates assigned)
CCN(CC)CCCCCNCc1ccccc1-c1ccccc1C(=O)OCCc1ccccc1 (optimized conformer: 72.83535300109358 kcal/mol)

>  <smiles>  (14) 
CCN(CC)CCCCCNCc1ccccc1-c1ccccc1C(=O)OCCc1ccccc1

>  <score_type>  (14) 
oracle

>  <origin>  (14) 
adg

>  <m_score__min__energy>  (14) 
-8.3100000000000005

>  <m_primary>  (14) 
energy

$$$$
14:0
     RDKit          3D

 33 34  0  0  0  0  0  0  0  0999 V2000
   56.4680   30.1650   43.4530 C   0  0  0  0  0  0  0  0  0  0  0  0
   56.4660   30.7310   44.7600 O   0  0  0  0  0  0  0  0  0  0  0  0
   57.3900   31.6850   45.2160 C   0  0  0  0  0  0  0  0  0  0  0  0
   57.2930   33.0430   44.8600 C   0  0  0  0  0  0  0  0  0  0  0  0
   58.2300   33.9670   45.3270 C   0  0  0  0  0  0  0  0  0  0  0  0
   59.2870   33.5550   46.1510 C   0  0  0  0  0  0  0  0  0  0  0  0
   60.2600   34.5640   46.7100 C   0  0  0  0  0  0  0  0  0  0  0  0
   60.0060   35.8000   46.1470 F   0  0  0  0  0  0  0  0  0  0  0  0
   61.5640   34.1980   46.4250 F   0  0  0  0  0  0  0  0  0  0  0  0
   60.1280   34.6590   48.0840 F   0  0  0  0  0  0  0  0  0  0  0  0
   59.3690   32.2060   46.5310 C   0  0  0  0  0  0  0  0  0  0  0  0
   58.4430   31.2630   46.0490 C   0  0  0  0  0  0  0  0  0  0  0  0
   58.5240   29.8840   46.4520 N   0  0  0  0  0  0  0  0  0  0  0  0
   58.9810   28.8280   45.5950 C   0  0  0  0  0  0  0  0  0  0  0  0
   59.1250   29.0200   44.3570 O   0  0  0  0  0  0  0  0  0  0  0  0
   59.2970   27.4820   46.1710 C   0  0  0  0  0  0  0  0  0  0  0  0
   58.0600   26.7540   46.4350 N   0  0  0  0  0  0  0  0  0  0  0  0
   57.9350   25.5670   47.0510 C   0  0  0  0  0  0  0  0  0  0  0  0
   56.6060   25.2110   47.0110 C   0  0  0  0  0  0  0  0  0  0  0  0
   55.9000   26.1610   46.3620 N   0  0  0  0  0  0  0  0  0  0  0  0
   56.8220   27.0860   46.0200 C   0  0  0  0  0  0  0  0  0  0  0  0
   56.4719   29.0676   43.5287 H   0  0  0  0  0  0  0  0  0  0  0  0
   55.5687   30.4920   42.9105 H   0  0  0  0  0  0  0  0  0  0  0  0
   57.3650   30.4983   42.9105 H   0  0  0  0  0  0  0  0  0  0  0  0
   56.4727   33.3792   44.2088 H   0  0  0  0  0  0  0  0  0  0  0  0
   58.1382   35.0266   45.0462 H   0  0  0  0  0  0  0  0  0  0  0  0
   60.1677   31.8822   47.2145 H   0  0  0  0  0  0  0  0  0  0  0  0
   58.1810   29.6240   47.4050 H   0  0  0  0  0  0  0  0  0  0  0  0
   59.9097   26.9135   45.4558 H   0  0  0  0  0  0  0  0  0  0  0  0
   59.8504   27.6110   47.1129 H   0  0  0  0  0  0  0  0  0  0  0  0
   58.7491   24.9837   47.5060 H   0  0  0  0  0  0  0  0  0  0  0  0
   56.1833   24.2917   47.4425 H   0  0  0  0  0  0  0  0  0  0  0  0
   56.5888   28.0067   45.4652 H   0  0  0  0  0  0  0  0  0  0  0  0
  1  2  1  0
  2  3  1  0
  3  4  2  0
  4  5  1  0
  5  6  2  0
  6  7  1  0
  7  8  1  0
  7  9  1  0
  7 10  1  0
  6 11  1  0
 11 12  2  0
 12 13  1  0
 13 14  1  0
 14 15  2  0
 14 16  1  0
 16 17  1  0
 17 18  1  0
 18 19  2  0
 19 20  1  0
 20 21  2  0
 12  3  1  0
 21 17  1  0
  1 22  1  0
  1 23  1  0
  1 24  1  0
  4 25  1  0
  5 26  1  0
 11 27  1  0
 13 28  1  0
 16 29  1  0
 16 30  1  0
 18 31  1  0
 19 32  1  0
 21 33  1  0
M  END
>  <UniqueID>  (15) 
15

>  <SMILES>  (15) 
COc1ccc(C(F)(F)F)cc1NC(=O)Cn1ccnc1

>  <Energy>  (15) 
63.522997918493886

>  <Genealogy>  (15) 
COc1ccc(C(F)(F)F)cc1NC(=O)Cn1ccnc1 (3D coordinates assigned)
COc1ccc(C(F)(F)F)cc1NC(=O)Cn1ccnc1 (optimized conformer: 63.522997918493886 kcal/mol)

>  <smiles>  (15) 
COc1ccc(C(F)(F)F)cc1NC(=O)Cn1ccnc1

>  <score_type>  (15) 
oracle

>  <origin>  (15) 
adg

>  <m_score__min__energy>  (15) 
-5.8300000000000001

>  <m_primary>  (15) 
energy

$$$$
15:0
     RDKit          3D

 50 53  0  0  0  0  0  0  0  0999 V2000
   57.8360   31.6690   44.1310 C   0  0  0  0  0  0  0  0  0  0  0  0
   57.6790   32.8140   44.4730 C   0  0  0  0  0  0  0  0  0  0  0  0
   57.4900   34.2060   44.8910 C   0  0  0  0  0  0  0  0  0  0  0  0
   58.0310   34.3890   46.2430 N   0  0  0  0  0  0  0  0  0  0  0  0
   59.4980   34.2770   46.2490 C   0  0  0  0  0  0  0  0  0  0  0  0
   60.0310   33.5690   47.4890 C   0  0  0  0  0  0  0  0  0  0  0  0
   59.1300   33.0130   48.4230 C   0  0  0  0  0  0  0  0  0  0  0  0
   59.5810   32.3800   49.5900 C   0  0  0  0  0  0  0  0  0  0  0  0
   58.6090   31.8400   50.5750 C   0  0  0  0  0  0  0  0  0  0  0  0
   58.0070   32.6800   51.5250 C   0  0  0  0  0  0  0  0  0  0  0  0
   57.0970   32.1620   52.4460 C   0  0  0  0  0  0  0  0  0  0  0  0
   56.7780   30.7970   52.4130 C   0  0  0  0  0  0  0  0  0  0  0  0
   55.8500   30.2290   53.3570 N   0  0  0  0  0  0  0  0  0  0  0  0
   56.1240   30.2980   54.7970 C   0  0  0  0  0  0  0  0  0  0  0  0
   55.3690   29.1810   55.5230 C   0  0  0  0  0  0  0  0  0  0  0  0
   53.9940   29.2050   55.1900 O   0  0  0  0  0  0  0  0  0  0  0  0
   53.8310   28.9110   53.8150 C   0  0  0  0  0  0  0  0  0  0  0  0
   54.4600   30.0040   52.9460 C   0  0  0  0  0  0  0  0  0  0  0  0
   57.3810   29.9970   51.4910 N   0  0  0  0  0  0  0  0  0  0  0  0
   58.2740   30.4760   50.5860 C   0  0  0  0  0  0  0  0  0  0  0  0
   60.9590   32.2660   49.8170 C   0  0  0  0  0  0  0  0  0  0  0  0
   61.8810   32.7540   48.8840 C   0  0  0  0  0  0  0  0  0  0  0  0
   63.2200   32.6040   49.1120 N   0  0  0  0  0  0  0  0  0  0  0  0
   64.1490   33.0390   48.2210 C   0  0  0  0  0  0  0  0  0  0  0  0
   63.7520   33.6510   47.0360 C   0  0  0  0  0  0  0  0  0  0  0  0
   62.3950   33.8260   46.7720 C   0  0  0  0  0  0  0  0  0  0  0  0
   61.4250   33.3950   47.7020 C   0  0  0  0  0  0  0  0  0  0  0  0
   57.9793   30.6240   43.8189 H   0  0  0  0  0  0  0  0  0  0  0  0
   58.0159   34.8732   44.1923 H   0  0  0  0  0  0  0  0  0  0  0  0
   56.4166   34.4464   44.8901 H   0  0  0  0  0  0  0  0  0  0  0  0
   57.6500   33.6210   46.8450 H   0  0  0  0  0  0  0  0  0  0  0  0
   59.8109   33.7109   45.3593 H   0  0  0  0  0  0  0  0  0  0  0  0
   59.9082   35.2977   46.2483 H   0  0  0  0  0  0  0  0  0  0  0  0
   58.0489   33.0779   48.2307 H   0  0  0  0  0  0  0  0  0  0  0  0
   58.2542   33.7517   51.5430 H   0  0  0  0  0  0  0  0  0  0  0  0
   56.6320   32.8206   53.1943 H   0  0  0  0  0  0  0  0  0  0  0  0
   57.2041   30.1805   54.9692 H   0  0  0  0  0  0  0  0  0  0  0  0
   55.7908   31.2724   55.1837 H   0  0  0  0  0  0  0  0  0  0  0  0
   55.7939   28.2094   55.2307 H   0  0  0  0  0  0  0  0  0  0  0  0
   55.4718   29.3332   56.6076 H   0  0  0  0  0  0  0  0  0  0  0  0
   54.3163   27.9493   53.5920 H   0  0  0  0  0  0  0  0  0  0  0  0
   52.7553   28.8585   53.5911 H   0  0  0  0  0  0  0  0  0  0  0  0
   54.4374   29.6903   51.8919 H   0  0  0  0  0  0  0  0  0  0  0  0
   53.8902   30.9370   53.0681 H   0  0  0  0  0  0  0  0  0  0  0  0
   58.7367   29.7926   49.8587 H   0  0  0  0  0  0  0  0  0  0  0  0
   61.3203   31.7874   50.7392 H   0  0  0  0  0  0  0  0  0  0  0  0
   63.5550   32.1390   49.9860 H   0  0  0  0  0  0  0  0  0  0  0  0
   65.2194   32.9068   48.4373 H   0  0  0  0  0  0  0  0  0  0  0  0
   64.5052   33.9947   46.3117 H   0  0  0  0  0  0  0  0  0  0  0  0
   62.0779   34.3030   45.8329 H   0  0  0  0  0  0  0  0  0  0  0  0
  1  2  3  0
  2  3  1  0
  3  4  1  0
  4  5  1  0
  5  6  1  0
  6  7  2  0
  7  8  1  0
  8  9  1  0
  9 10  2  0
 10 11  1  0
 11 12  2  0
 12 13  1  0
 13 14  1  0
 14 15  1  0
 15 16  1  0
 16 17  1  0
 17 18  1  0
 12 19  1  0
 19 20  2  0
  8 21  2  0
 21 22  1  0
 22 23  2  0
 23 24  1  0
 24 25  2  0
 25 26  1  0
 26 27  2  0
 27  6  1  0
 20  9  1  0
 27 22  1  0
 18 13  1  0
  1 28  1  0
  3 29  1  0
  3 30  1  0
  4 31  1  0
  5 32  1  0
  5 33  1  0
  7 34  1  0
 10 35  1  0
 11 36  1  0
 14 37  1  0
 14 38  1  0
 15 39  1  0
 15 40  1  0
 17 41  1  0
 17 42  1  0
 18 43  1  0
 18 44  1  0
 20 45  1  0
 21 46  1  0
 23 47  1  0
 24 48  1  0
 25 49  1  0
 26 50  1  0
M  CHG  1  23   1
M  END
>  <UniqueID>  (16) 
16

>  <SMILES>  (16) 
C#CCNCc1cc(-c2ccc(N3CCOCC3)nc2)cc2[nH+]cccc12

>  <Energy>  (16) 
67.73427928795566

>  <Genealogy>  (16) 
C#CCNCc1cc(-c2ccc(N3CCOCC3)nc2)cc2[nH+]cccc12 (protonated)
C#CCNCc1cc(-c2ccc(N3CCOCC3)nc2)cc2[nH+]cccc12 (3D coordinates assigned)
C#CCNCc1cc(-c2ccc(N3CCOCC3)nc2)cc2[nH+]cccc12 (nonaromatic ring conformer: 67.73427928795566 kcal/mol)

>  <smiles>  (16) 
C#CCNCc1cc(-c2ccc(N3CCOCC3)nc2)cc2ncccc12

>  <score_type>  (16) 
oracle

>  <origin>  (16) 
adg

>  <m_score__min__energy>  (16) 
-6.54

>  <m_primary>  (16) 
energy

$$$$
16:0
     RDKit          3D

 61 65  0  0  0  0  0  0  0  0999 V2000
   56.2280   23.4280   43.1200 C   0  0  0  0  0  0  0  0  0  0  0  0
   57.3850   24.0740   43.8920 C   0  0  0  0  0  0  0  0  0  0  0  0
   57.0240   25.4020   44.4580 N   0  0  0  0  0  0  0  0  0  0  0  0
   56.2260   25.2500   45.7040 C   0  0  0  0  0  0  0  0  0  0  0  0
   56.6170   24.0150   46.5250 C   0  0  0  0  0  0  0  0  0  0  0  0
   58.2340   26.2550   44.6260 C   0  0  0  0  0  0  0  0  0  0  0  0
   58.4840   26.7290   46.0720 C   0  0  0  0  0  0  0  0  0  0  0  0
   57.6520   27.8910   46.3820 N   0  0  0  0  0  0  0  0  0  0  0  0
   58.1060   29.2080   46.0560 C   0  0  0  0  0  0  0  0  0  0  0  0
   59.0520   29.8280   46.8590 C   0  0  0  0  0  0  0  0  0  0  0  0
   59.5400   31.0760   46.5500 C   0  0  0  0  0  0  0  0  0  0  0  0
   59.0300   31.8210   45.5160 N   0  0  0  0  0  0  0  0  0  0  0  0
   59.3360   33.2570   45.4170 C   0  0  0  0  0  0  0  0  0  0  0  0
   58.1640   31.2030   44.6250 C   0  0  0  0  0  0  0  0  0  0  0  0
   57.7580   31.8300   43.4220 C   0  0  0  0  0  0  0  0  0  0  0  0
   56.8470   31.2130   42.5630 C   0  0  0  0  0  0  0  0  0  0  0  0
   56.3240   29.9610   42.8730 C   0  0  0  0  0  0  0  0  0  0  0  0
   56.7270   29.3000   44.0310 C   0  0  0  0  0  0  0  0  0  0  0  0
   57.6620   29.8890   44.9030 C   0  0  0  0  0  0  0  0  0  0  0  0
   60.5830   31.3690   47.5410 C   0  0  0  0  0  0  0  0  0  0  0  0
   61.5300   32.4000   47.5690 C   0  0  0  0  0  0  0  0  0  0  0  0
   62.4730   32.4160   48.6100 C   0  0  0  0  0  0  0  0  0  0  0  0
   63.4180   33.4510   48.6950 C   0  0  0  0  0  0  0  0  0  0  0  0
   64.3550   33.4660   49.7300 C   0  0  0  0  0  0  0  0  0  0  0  0
   64.3630   32.4480   50.6860 C   0  0  0  0  0  0  0  0  0  0  0  0
   63.4350   31.4060   50.6130 C   0  0  0  0  0  0  0  0  0  0  0  0
   62.4830   31.3760   49.5780 C   0  0  0  0  0  0  0  0  0  0  0  0
   61.5520   30.3240   49.4560 C   0  0  0  0  0  0  0  0  0  0  0  0
   61.5550   29.3590   50.2680 O   0  0  0  0  0  0  0  0  0  0  0  0
   60.6490   30.3550   48.4370 N   0  0  0  0  0  0  0  0  0  0  0  0
   59.6970   29.2960   48.1010 C   0  0  0  0  0  0  0  0  0  0  0  0
   55.4956   23.0190   43.8315 H   0  0  0  0  0  0  0  0  0  0  0  0
   55.7414   24.1850   42.4874 H   0  0  0  0  0  0  0  0  0  0  0  0
   56.6171   22.6166   42.4874 H   0  0  0  0  0  0  0  0  0  0  0  0
   57.6745   23.4063   44.7169 H   0  0  0  0  0  0  0  0  0  0  0  0
   58.2133   24.2272   43.1845 H   0  0  0  0  0  0  0  0  0  0  0  0
   56.4220   25.8960   43.7570 H   0  0  0  0  0  0  0  0  0  0  0  0
   56.3752   26.1449   46.3260 H   0  0  0  0  0  0  0  0  0  0  0  0
   55.1747   25.1247   45.4056 H   0  0  0  0  0  0  0  0  0  0  0  0
   56.5429   24.2490   47.5973 H   0  0  0  0  0  0  0  0  0  0  0  0
   55.9380   23.1840   46.2833 H   0  0  0  0  0  0  0  0  0  0  0  0
   57.6505   23.7262   46.2833 H   0  0  0  0  0  0  0  0  0  0  0  0
   59.1104   25.6774   44.2970 H   0  0  0  0  0  0  0  0  0  0  0  0
   58.0659   27.1600   44.0238 H   0  0  0  0  0  0  0  0  0  0  0  0
   58.2393   25.9128   46.7677 H   0  0  0  0  0  0  0  0  0  0  0  0
   59.5420   27.0117   46.1754 H   0  0  0  0  0  0  0  0  0  0  0  0
   56.8400   27.7990   47.0350 H   0  0  0  0  0  0  0  0  0  0  0  0
   59.4268   33.6830   46.4271 H   0  0  0  0  0  0  0  0  0  0  0  0
   60.2834   33.3935   44.8750 H   0  0  0  0  0  0  0  0  0  0  0  0
   58.5266   33.7679   44.8750 H   0  0  0  0  0  0  0  0  0  0  0  0
   58.1663   32.8174   43.1607 H   0  0  0  0  0  0  0  0  0  0  0  0
   56.5407   31.7192   41.6357 H   0  0  0  0  0  0  0  0  0  0  0  0
   55.5900   29.4919   42.2013 H   0  0  0  0  0  0  0  0  0  0  0  0
   56.3110   28.3092   44.2661 H   0  0  0  0  0  0  0  0  0  0  0  0
   61.5354   33.1799   46.7933 H   0  0  0  0  0  0  0  0  0  0  0  0
   63.4201   34.2536   47.9428 H   0  0  0  0  0  0  0  0  0  0  0  0
   65.0895   34.2825   49.7926 H   0  0  0  0  0  0  0  0  0  0  0  0
   65.1029   32.4666   51.4998 H   0  0  0  0  0  0  0  0  0  0  0  0
   63.4490   30.6060   51.3679 H   0  0  0  0  0  0  0  0  0  0  0  0
   60.2127   28.3442   47.9056 H   0  0  0  0  0  0  0  0  0  0  0  0
   58.9827   29.0741   48.9075 H   0  0  0  0  0  0  0  0  0  0  0  0
  1  2  1  0
  2  3  1  0
  3  4  1  0
  4  5  1  0
  3  6  1  0
  6  7  1  0
  7  8  1  0
  8  9  1  0
  9 10  2  0
 10 11  1  0
 11 12  2  0
 12 13  1  0
 12 14  1  0
 14 15  2  0
 15 16  1  0
 16 17  2  0
 17 18  1  0
 18 19  2  0
 11 20  1  0
 20 21  2  0
 21 22  1  0
 22 23  2  0
 23 24  1  0
 24 25  2  0
 25 26  1  0
 26 27  2  0
 27 28  1  0
 28 29  2  0
 28 30  1  0
 30 31  1  0
 19  9  1  0
 30 20  1  0
 31 10  1  0
 19 14  1  0
 27 22  1  0
  1 32  1  0
  1 33  1  0
  1 34  1  0
  2 35  1  0
  2 36  1  0
  3 37  1  0
  4 38  1  0
  4 39  1  0
  5 40  1  0
  5 41  1  0
  5 42  1  0
  6 43  1  0
  6 44  1  0
  7 45  1  0
  7 46  1  0
  8 47  1  0
 13 48  1  0
 13 49  1  0
 13 50  1  0
 15 51  1  0
 16 52  1  0
 17 53  1  0
 18 54  1  0
 21 55  1  0
 23 56  1  0
 24 57  1  0
 25 58  1  0
 26 59  1  0
 31 60  1  0
 31 61  1  0
M  CHG  2   3   1  12   1
M  END
>  <UniqueID>  (17) 
17

>  <SMILES>  (17) 
CC[NH+](CC)CCNc1c2c([n+](C)c3ccccc13)-c1cc3ccccc3c(=O)n1C2

>  <Energy>  (17) 
117.82970422532222

>  <Genealogy>  (17) 
CC[NH+](CC)CCNc1c2c([n+](C)c3ccccc13)-c1cc3ccccc3c(=O)n1C2 (protonated)
CC[NH+](CC)CCNc1c2c([n+](C)c3ccccc13)-c1cc3ccccc3c(=O)n1C2 (3D coordinates assigned)
CC[NH+](CC)CCNc1c2c([n+](C)c3ccccc13)-c1cc3ccccc3c(=O)n1C2 (nonaromatic ring conformer: 117.82970422532222 kcal/mol)

>  <smiles>  (17) 
CCN(CC)CCNc1c2c([n+](C)c3ccccc13)-c1cc3ccccc3c(=O)n1C2

>  <score_type>  (17) 
oracle

>  <origin>  (17) 
adg

>  <m_score__min__energy>  (17) 
-6.0599999999999996

>  <m_primary>  (17) 
energy

$$$$
17:0
     RDKit          3D

 50 51  0  0  0  0  0  0  0  0999 V2000
   60.2160   29.1500   47.6440 C   0  0  0  0  0  0  0  0  0  0  0  0
   58.9290   29.9650   47.6830 C   0  0  0  0  0  0  0  0  0  0  0  0
   59.1220   31.2270   48.4120 N   0  0  0  0  0  0  0  0  0  0  0  0
   58.8880   31.2760   49.8580 C   0  0  0  0  0  0  0  0  0  0  0  0
   59.1450   32.6740   50.4130 C   0  0  0  0  0  0  0  0  0  0  0  0
   59.9010   32.2660   47.7970 C   0  0  0  0  0  0  0  0  0  0  0  0
   61.2520   32.1260   47.7710 N   0  0  0  0  0  0  0  0  0  0  0  0
   62.0450   33.0130   47.1280 C   0  0  0  0  0  0  0  0  0  0  0  0
   63.5290   32.8540   47.1650 C   0  0  0  0  0  0  0  0  0  0  0  0
   61.4910   34.0590   46.4700 N   0  0  0  0  0  0  0  0  0  0  0  0
   60.1470   34.2570   46.4390 C   0  0  0  0  0  0  0  0  0  0  0  0
   59.6470   35.4130   45.6200 C   0  0  0  0  0  0  0  0  0  0  0  0
   59.2930   33.3850   47.1700 C   0  0  0  0  0  0  0  0  0  0  0  0
   57.7780   33.5800   47.2300 C   0  0  0  0  0  0  0  0  0  0  0  0
   57.0340   32.8630   46.1760 N   0  0  0  0  0  0  0  0  0  0  0  0
   57.2180   33.4210   44.8290 C   0  0  0  0  0  0  0  0  0  0  0  0
   58.0930   32.4900   43.9820 C   0  0  0  0  0  0  0  0  0  0  0  0
   57.8020   31.0480   44.2920 C   0  0  0  0  0  0  0  0  0  0  0  0
   58.8310   30.0940   44.3020 C   0  0  0  0  0  0  0  0  0  0  0  0
   58.5240   28.7570   44.5730 C   0  0  0  0  0  0  0  0  0  0  0  0
   57.2020   28.3850   44.8270 C   0  0  0  0  0  0  0  0  0  0  0  0
   56.2020   29.3610   44.8030 C   0  0  0  0  0  0  0  0  0  0  0  0
   56.5200   30.6570   44.5370 N   0  0  0  0  0  0  0  0  0  0  0  0
   60.5481   28.9397   48.6714 H   0  0  0  0  0  0  0  0  0  0  0  0
   60.0340   28.2022   47.1162 H   0  0  0  0  0  0  0  0  0  0  0  0
   60.9950   29.7198   47.1162 H   0  0  0  0  0  0  0  0  0  0  0  0
   58.6151   30.1898   46.6530 H   0  0  0  0  0  0  0  0  0  0  0  0
   58.1589   29.3762   48.2028 H   0  0  0  0  0  0  0  0  0  0  0  0
   57.8441   30.9956   50.0620 H   0  0  0  0  0  0  0  0  0  0  0  0
   59.5811   30.5752   50.3463 H   0  0  0  0  0  0  0  0  0  0  0  0
   59.1386   32.6389   51.5124 H   0  0  0  0  0  0  0  0  0  0  0  0
   60.1242   33.0330   50.0633 H   0  0  0  0  0  0  0  0  0  0  0  0
   58.3575   33.3578   50.0633 H   0  0  0  0  0  0  0  0  0  0  0  0
   63.8679   32.8177   48.2109 H   0  0  0  0  0  0  0  0  0  0  0  0
   63.8106   31.9205   46.6557 H   0  0  0  0  0  0  0  0  0  0  0  0
   64.0019   33.7066   46.6557 H   0  0  0  0  0  0  0  0  0  0  0  0
   59.3005   36.2140   46.2896 H   0  0  0  0  0  0  0  0  0  0  0  0
   60.4615   35.7922   44.9854 H   0  0  0  0  0  0  0  0  0  0  0  0
   58.8128   35.0791   44.9854 H   0  0  0  0  0  0  0  0  0  0  0  0
   57.4225   33.2222   48.2076 H   0  0  0  0  0  0  0  0  0  0  0  0
   57.5908   34.6529   47.0753 H   0  0  0  0  0  0  0  0  0  0  0  0
   57.2890   31.8520   46.1680 H   0  0  0  0  0  0  0  0  0  0  0  0
   56.2362   33.5348   44.3462 H   0  0  0  0  0  0  0  0  0  0  0  0
   57.7131   34.3998   44.9119 H   0  0  0  0  0  0  0  0  0  0  0  0
   57.8912   32.6769   42.9169 H   0  0  0  0  0  0  0  0  0  0  0  0
   59.1487   32.6927   44.2153 H   0  0  0  0  0  0  0  0  0  0  0  0
   59.8693   30.3951   44.0986 H   0  0  0  0  0  0  0  0  0  0  0  0
   59.3219   27.9999   44.5861 H   0  0  0  0  0  0  0  0  0  0  0  0
   56.9508   27.3362   45.0434 H   0  0  0  0  0  0  0  0  0  0  0  0
   55.1565   29.0811   44.9994 H   0  0  0  0  0  0  0  0  0  0  0  0
  1  2  1  0
  2  3  1  0
  3  4  1  0
  4  5  1  0
  3  6  1  0
  6  7  2  0
  7  8  1  0
  8  9  1  0
  8 10  2  0
 10 11  1  0
 11 12  1  0
 11 13  2  0
 13 14  1  0
 14 15  1  0
 15 16  1  0
 16 17  1  0
 17 18  1  0
 18 19  2  0
 19 20  1  0
 20 21  2  0
 21 22  1  0
 22 23  2  0
 13  6  1  0
 23 18  1  0
  1 24  1  0
  1 25  1  0
  1 26  1  0
  2 27  1  0
  2 28  1  0
  4 29  1  0
  4 30  1  0
  5 31  1  0
  5 32  1  0
  5 33  1  0
  9 34  1  0
  9 35  1  0
  9 36  1  0
 12 37  1  0
 12 38  1  0
 12 39  1  0
 14 40  1  0
 14 41  1  0
 15 42  1  0
 16 43  1  0
 16 44  1  0
 17 45  1  0
 17 46  1  0
 19 47  1  0
 20 48  1  0
 21 49  1  0
 22 50  1  0
M  END
>  <UniqueID>  (18) 
18

>  <SMILES>  (18) 
CCN(CC)c1nc(C)nc(C)c1CNCCc1ccccn1

>  <Energy>  (18) 
49.45283938312294

>  <Genealogy>  (18) 
CCN(CC)c1nc(C)nc(C)c1CNCCc1ccccn1 (3D coordinates assigned)
CCN(CC)c1nc(C)nc(C)c1CNCCc1ccccn1 (optimized conformer: 49.45283938312294 kcal/mol)

>  <smiles>  (18) 
CCN(CC)c1nc(C)nc(C)c1CNCCc1ccccn1

>  <score_type>  (18) 
oracle

>  <origin>  (18) 
adg

>  <m_score__min__energy>  (18) 
-6.3399999999999999

>  <m_primary>  (18) 
energy

$$$$
18:0
     RDKit          3D

 59 63  0  0  0  0  0  0  0  0999 V2000
   59.2980   35.2760   46.7730 C   0  0  0  0  0  0  0  0  0  0  0  0
   59.5820   33.7990   46.7520 C   0  0  0  0  0  0  0  0  0  0  0  0
   59.2520   32.9450   45.6940 C   0  0  0  0  0  0  0  0  0  0  0  0
   58.5170   33.2940   44.4250 C   0  0  0  0  0  0  0  0  0  0  0  0
   57.6300   32.1580   43.9840 C   0  0  0  0  0  0  0  0  0  0  0  0
   57.6940   31.6510   42.6790 C   0  0  0  0  0  0  0  0  0  0  0  0
   56.8840   30.6280   42.3050 N   0  0  0  0  0  0  0  0  0  0  0  0
   56.0060   30.0750   43.1800 C   0  0  0  0  0  0  0  0  0  0  0  0
   55.9310   30.5410   44.4530 N   0  0  0  0  0  0  0  0  0  0  0  0
   56.7220   31.5630   44.8710 C   0  0  0  0  0  0  0  0  0  0  0  0
   59.6320   31.6830   46.1030 C   0  0  0  0  0  0  0  0  0  0  0  0
   59.4990   30.4440   45.4730 C   0  0  0  0  0  0  0  0  0  0  0  0
   59.9410   29.3000   46.1600 C   0  0  0  0  0  0  0  0  0  0  0  0
   59.7920   27.7200   45.4160 S   0  0  0  0  0  0  0  0  0  0  0  0
   58.5490   27.7110   44.1450 C   0  0  0  0  0  0  0  0  0  0  0  0
   59.4870   26.5460   46.5770 O   0  0  0  0  0  0  0  0  0  0  0  0
   60.4950   29.4180   47.4520 C   0  0  0  0  0  0  0  0  0  0  0  0
   60.6150   30.6770   48.0640 C   0  0  0  0  0  0  0  0  0  0  0  0
   60.1810   31.8060   47.3550 C   0  0  0  0  0  0  0  0  0  0  0  0
   60.1840   33.0990   47.7610 N   0  0  0  0  0  0  0  0  0  0  0  0
   60.6600   33.5750   49.0810 C   0  0  0  0  0  0  0  0  0  0  0  0
   59.6950   33.2350   50.2070 C   0  0  0  0  0  0  0  0  0  0  0  0
   59.7630   33.8400   51.4810 C   0  0  0  0  0  0  0  0  0  0  0  0
   58.8550   33.4830   52.4840 C   0  0  0  0  0  0  0  0  0  0  0  0
   57.8710   32.5250   52.2300 C   0  0  0  0  0  0  0  0  0  0  0  0
   57.7910   31.9200   50.9740 C   0  0  0  0  0  0  0  0  0  0  0  0
   58.6960   32.2740   49.9680 C   0  0  0  0  0  0  0  0  0  0  0  0
   62.1040   33.1680   49.3440 C   0  0  0  0  0  0  0  0  0  0  0  0
   62.4010   32.4070   50.4910 C   0  0  0  0  0  0  0  0  0  0  0  0
   63.7110   31.9930   50.7500 C   0  0  0  0  0  0  0  0  0  0  0  0
   64.7380   32.3270   49.8660 C   0  0  0  0  0  0  0  0  0  0  0  0
   64.4570   33.0740   48.7190 C   0  0  0  0  0  0  0  0  0  0  0  0
   63.1490   33.4900   48.4540 C   0  0  0  0  0  0  0  0  0  0  0  0
   59.2315   35.6218   47.8151 H   0  0  0  0  0  0  0  0  0  0  0  0
   60.1094   35.8127   46.2596 H   0  0  0  0  0  0  0  0  0  0  0  0
   58.3454   35.4736   46.2596 H   0  0  0  0  0  0  0  0  0  0  0  0
   57.8979   34.1859   44.6017 H   0  0  0  0  0  0  0  0  0  0  0  0
   59.2565   33.4883   43.6341 H   0  0  0  0  0  0  0  0  0  0  0  0
   58.4020   32.0829   41.9564 H   0  0  0  0  0  0  0  0  0  0  0  0
   55.3550   29.2490   42.8576 H   0  0  0  0  0  0  0  0  0  0  0  0
   56.6500   31.9245   45.9074 H   0  0  0  0  0  0  0  0  0  0  0  0
   59.0606   30.3653   44.4672 H   0  0  0  0  0  0  0  0  0  0  0  0
   57.5512   27.7038   44.6080 H   0  0  0  0  0  0  0  0  0  0  0  0
   58.6568   28.6099   43.5203 H   0  0  0  0  0  0  0  0  0  0  0  0
   58.6698   26.8137   43.5203 H   0  0  0  0  0  0  0  0  0  0  0  0
   60.3450   26.0620   46.6720 H   0  0  0  0  0  0  0  0  0  0  0  0
   60.8356   28.5176   47.9843 H   0  0  0  0  0  0  0  0  0  0  0  0
   61.0389   30.7745   49.0743 H   0  0  0  0  0  0  0  0  0  0  0  0
   60.6701   34.6746   49.0513 H   0  0  0  0  0  0  0  0  0  0  0  0
   60.5346   34.5967   51.6863 H   0  0  0  0  0  0  0  0  0  0  0  0
   58.9163   33.9578   53.4744 H   0  0  0  0  0  0  0  0  0  0  0  0
   57.1582   32.2467   53.0202 H   0  0  0  0  0  0  0  0  0  0  0  0
   57.0161   31.1649   50.7757 H   0  0  0  0  0  0  0  0  0  0  0  0
   58.6258   31.7960   48.9798 H   0  0  0  0  0  0  0  0  0  0  0  0
   61.5954   32.1360   51.1892 H   0  0  0  0  0  0  0  0  0  0  0  0
   63.9325   31.4032   51.6517 H   0  0  0  0  0  0  0  0  0  0  0  0
   65.7686   32.0022   50.0721 H   0  0  0  0  0  0  0  0  0  0  0  0
   65.2674   33.3354   48.0226 H   0  0  0  0  0  0  0  0  0  0  0  0
   62.9338   34.0720   47.5457 H   0  0  0  0  0  0  0  0  0  0  0  0
  1  2  1  0
  2  3  2  0
  3  4  1  0
  4  5  1  0
  5  6  2  0
  6  7  1  0
  7  8  2  0
  8  9  1  0
  9 10  2  0
  3 11  1  0
 11 12  2  0
 12 13  1  0
 13 14  1  0
 14 15  1  0
 14 16  1  1
 13 17  2  0
 17 18  1  0
 18 19  2  0
 19 20  1  0
 20 21  1  0
 21 22  1  0
 22 23  2  0
 23 24  1  0
 24 25  2  0
 25 26  1  0
 26 27  2  0
 21 28  1  0
 28 29  2  0
 29 30  1  0
 30 31  2  0
 31 32  1  0
 32 33  2  0
 20  2  1  0
 27 22  1  0
 33 28  1  0
 10  5  1  0
 19 11  1  0
  1 34  1  0
  1 35  1  0
  1 36  1  0
  4 37  1  0
  4 38  1  0
  6 39  1  0
  8 40  1  0
 10 41  1  0
 12 42  1  0
 15 43  1  0
 15 44  1  0
 15 45  1  0
 16 46  1  0
 17 47  1  0
 18 48  1  0
 21 49  1  0
 23 50  1  0
 24 51  1  0
 25 52  1  0
 26 53  1  0
 27 54  1  0
 29 55  1  0
 30 56  1  0
 31 57  1  0
 32 58  1  0
 33 59  1  0
M  CHG  1  14   1
M  END
>  <UniqueID>  (19) 
19

>  <SMILES>  (19) 
Cc1c(Cc2cncnc2)c2cc([S@+](C)O)ccc2n1C(c1ccccc1)c1ccccc1

>  <Energy>  (19) 
99.50913186384987

>  <Genealogy>  (19) 
Cc1c(Cc2cncnc2)c2cc([S+](C)O)ccc2n1C(c1ccccc1)c1ccccc1 (protonated)
Cc1c(Cc2cncnc2)c2cc([S@+](C)O)ccc2n1C(c1ccccc1)c1ccccc1 (chirality)
Cc1c(Cc2cncnc2)c2cc([S@+](C)O)ccc2n1C(c1ccccc1)c1ccccc1 (3D coordinates assigned)
Cc1c(Cc2cncnc2)c2cc([S@+](C)O)ccc2n1C(c1ccccc1)c1ccccc1 (optimized conformer: 99.50913186384987 kcal/mol)

>  <smiles>  (19) 
Cc1c(Cc2cncnc2)c2cc([S+](C)[O-])ccc2n1C(c1ccccc1)c1ccccc1

>  <score_type>  (19) 
oracle

>  <origin>  (19) 
adg

>  <m_score__min__energy>  (19) 
-8.3399999999999999

>  <m_primary>  (19) 
energy

$$$$
19:0
     RDKit          3D

 35 37  0  0  0  0  0  0  0  0999 V2000
   65.0140   35.6950   53.1500 C   0  0  0  0  0  0  0  0  0  0  0  0
   64.3950   34.4790   52.7400 O   0  0  0  0  0  0  0  0  0  0  0  0
   64.2380   34.0770   51.4040 C   0  0  0  0  0  0  0  0  0  0  0  0
   63.0460   34.3080   50.6900 C   0  0  0  0  0  0  0  0  0  0  0  0
   62.9300   33.8930   49.3610 C   0  0  0  0  0  0  0  0  0  0  0  0
   61.7820   34.1130   48.6700 N   0  0  0  0  0  0  0  0  0  0  0  0
   61.6420   33.7190   47.3750 C   0  0  0  0  0  0  0  0  0  0  0  0
   60.3700   33.9850   46.6720 C   0  0  0  0  0  0  0  0  0  0  0  0
   59.9770   35.1330   46.0010 C   0  0  0  0  0  0  0  0  0  0  0  0
   58.7320   34.9600   45.5160 N   0  0  0  0  0  0  0  0  0  0  0  0
   58.3390   33.7390   45.8480 N   0  0  0  0  0  0  0  0  0  0  0  0
   57.0170   33.2040   45.5550 C   0  0  0  0  0  0  0  0  0  0  0  0
   59.2970   33.1210   46.5600 C   0  0  0  0  0  0  0  0  0  0  0  0
   62.7150   33.0690   46.7430 C   0  0  0  0  0  0  0  0  0  0  0  0
   63.8690   32.8450   47.4300 N   0  0  0  0  0  0  0  0  0  0  0  0
   64.0040   33.2420   48.7270 C   0  0  0  0  0  0  0  0  0  0  0  0
   65.1910   33.0110   49.4330 C   0  0  0  0  0  0  0  0  0  0  0  0
   65.3140   33.4280   50.7740 C   0  0  0  0  0  0  0  0  0  0  0  0
   66.4880   33.2150   51.5150 O   0  0  0  0  0  0  0  0  0  0  0  0
   67.8070   33.3490   50.9950 C   0  0  0  0  0  0  0  0  0  0  0  0
   65.0379   35.7420   54.2487 H   0  0  0  0  0  0  0  0  0  0  0  0
   66.0414   35.7335   52.7589 H   0  0  0  0  0  0  0  0  0  0  0  0
   64.4406   36.5484   52.7589 H   0  0  0  0  0  0  0  0  0  0  0  0
   62.2033   34.8170   51.1806 H   0  0  0  0  0  0  0  0  0  0  0  0
   60.5857   36.0416   45.8832 H   0  0  0  0  0  0  0  0  0  0  0  0
   56.4906   32.9910   46.4971 H   0  0  0  0  0  0  0  0  0  0  0  0
   56.4439   33.9410   44.9733 H   0  0  0  0  0  0  0  0  0  0  0  0
   57.1177   32.2759   44.9733 H   0  0  0  0  0  0  0  0  0  0  0  0
   59.2375   32.1060   46.9798 H   0  0  0  0  0  0  0  0  0  0  0  0
   62.6232   32.7421   45.6967 H   0  0  0  0  0  0  0  0  0  0  0  0
   64.6560   32.3600   46.9410 H   0  0  0  0  0  0  0  0  0  0  0  0
   66.0315   32.5017   48.9389 H   0  0  0  0  0  0  0  0  0  0  0  0
   68.5233   33.4218   51.8266 H   0  0  0  0  0  0  0  0  0  0  0  0
   68.0490   32.4708   50.3784 H   0  0  0  0  0  0  0  0  0  0  0  0
   67.8675   34.2579   50.3784 H   0  0  0  0  0  0  0  0  0  0  0  0
  1  2  1  0
  2  3  1  0
  3  4  2  0
  4  5  1  0
  5  6  2  0
  6  7  1  0
  7  8  1  0
  8  9  1  0
  9 10  2  0
 10 11  1  0
 11 12  1  0
 11 13  1  0
  7 14  2  0
 14 15  1  0
 15 16  2  0
 16 17  1  0
 17 18  2  0
 18 19  1  0
 19 20  1  0
 18  3  1  0
 16  5  1  0
 13  8  2  0
  1 21  1  0
  1 22  1  0
  1 23  1  0
  4 24  1  0
  9 25  1  0
 12 26  1  0
 12 27  1  0
 12 28  1  0
 13 29  1  0
 14 30  1  0
 15 31  1  0
 17 32  1  0
 20 33  1  0
 20 34  1  0
 20 35  1  0
M  CHG  1  15   1
M  END
>  <UniqueID>  (20) 
20

>  <SMILES>  (20) 
COc1cc2nc(-c3cnn(C)c3)c[nH+]c2cc1OC

>  <Energy>  (20) 
69.21651878989142

>  <Genealogy>  (20) 
COc1cc2nc(-c3cnn(C)c3)c[nH+]c2cc1OC (protonated)
COc1cc2nc(-c3cnn(C)c3)c[nH+]c2cc1OC (3D coordinates assigned)
COc1cc2nc(-c3cnn(C)c3)c[nH+]c2cc1OC (optimized conformer: 69.21651878989142 kcal/mol)

>  <smiles>  (20) 
COc1cc2ncc(-c3cnn(C)c3)nc2cc1OC

>  <score_type>  (20) 
oracle

>  <origin>  (20) 
adg

>  <m_score__min__energy>  (20) 
-4.2400000000000002

>  <m_primary>  (20) 
energy

$$$$
20:0
     RDKit          3D

 43 43  0  0  0  0  0  0  0  0999 V2000
   59.2830   33.5050   48.3870 C   0  0  0  0  0  0  0  0  0  0  0  0
   58.1330   33.0620   47.4920 C   0  0  0  0  0  0  0  0  0  0  0  0
   58.6110   32.9510   46.0930 N   0  0  0  0  0  0  0  0  0  0  0  0
   59.7460   33.8480   45.7830 C   0  0  0  0  0  0  0  0  0  0  0  0
   59.2640   35.1070   45.0690 C   0  0  0  0  0  0  0  0  0  0  0  0
   57.5160   33.0510   45.1010 C   0  0  0  0  0  0  0  0  0  0  0  0
   57.7210   32.1560   43.8630 C   0  0  0  0  0  0  0  0  0  0  0  0
   57.2470   30.7520   44.1460 C   0  0  0  0  0  0  0  0  0  0  0  0
   56.0890   30.5920   44.5060 O   0  0  0  0  0  0  0  0  0  0  0  0
   58.1400   29.6120   43.9880 N   0  0  1  0  0  0  0  0  0  0  0  0
   59.3240   29.7260   44.8770 C   0  0  0  0  0  0  0  0  0  0  0  0
   59.0260   29.3750   46.3420 C   0  0  0  0  0  0  0  0  0  0  0  0
   58.3820   27.9970   46.4520 C   0  0  0  0  0  0  0  0  0  0  0  0
   57.1290   27.9180   45.5820 C   0  0  0  0  0  0  0  0  0  0  0  0
   57.4110   28.3160   44.1120 C   0  0  2  0  0  0  0  0  0  0  0  0
   58.1450   27.1820   43.3670 C   0  0  0  0  0  0  0  0  0  0  0  0
   58.9912   33.3926   49.4416 H   0  0  0  0  0  0  0  0  0  0  0  0
   60.1671   32.8831   48.1829 H   0  0  0  0  0  0  0  0  0  0  0  0
   59.5213   34.5593   48.1829 H   0  0  0  0  0  0  0  0  0  0  0  0
   57.7601   32.0842   47.8309 H   0  0  0  0  0  0  0  0  0  0  0  0
   57.3209   33.8020   47.5447 H   0  0  0  0  0  0  0  0  0  0  0  0
   60.2456   34.1342   46.7203 H   0  0  0  0  0  0  0  0  0  0  0  0
   60.4457   33.3149   45.1226 H   0  0  0  0  0  0  0  0  0  0  0  0
   58.9746   35.8629   45.8139 H   0  0  0  0  0  0  0  0  0  0  0  0
   60.0737   35.5041   44.4391 H   0  0  0  0  0  0  0  0  0  0  0  0
   58.3961   34.8618   44.4391 H   0  0  0  0  0  0  0  0  0  0  0  0
   56.5756   32.7575   45.5904 H   0  0  0  0  0  0  0  0  0  0  0  0
   57.4961   34.0921   44.7465 H   0  0  0  0  0  0  0  0  0  0  0  0
   57.1492   32.5685   43.0186 H   0  0  0  0  0  0  0  0  0  0  0  0
   58.7925   32.1283   43.6157 H   0  0  0  0  0  0  0  0  0  0  0  0
   58.5160   29.6580   43.0120 H   0  0  0  0  0  0  0  0  0  0  0  0
   60.1039   29.0441   44.5073 H   0  0  0  0  0  0  0  0  0  0  0  0
   59.6450   30.7779   44.8551 H   0  0  0  0  0  0  0  0  0  0  0  0
   59.9669   29.3792   46.9118 H   0  0  0  0  0  0  0  0  0  0  0  0
   58.3278   30.1223   46.7471 H   0  0  0  0  0  0  0  0  0  0  0  0
   59.1015   27.2342   46.1197 H   0  0  0  0  0  0  0  0  0  0  0  0
   58.0977   27.8211   47.5000 H   0  0  0  0  0  0  0  0  0  0  0  0
   56.7479   26.8863   45.6027 H   0  0  0  0  0  0  0  0  0  0  0  0
   56.3912   28.6258   45.9877 H   0  0  0  0  0  0  0  0  0  0  0  0
   56.4329   28.4704   43.6330 H   0  0  0  0  0  0  0  0  0  0  0  0
   58.5916   26.4920   44.0981 H   0  0  0  0  0  0  0  0  0  0  0  0
   57.4294   26.6347   42.7359 H   0  0  0  0  0  0  0  0  0  0  0  0
   58.9374   27.6107   42.7359 H   0  0  0  0  0  0  0  0  0  0  0  0
  1  2  1  0
  2  3  1  0
  3  4  1  0
  4  5  1  0
  3  6  1  0
  6  7  1  0
  7  8  1  0
  8  9  2  0
  8 10  1  0
 10 11  1  0
 11 12  1  0
 12 13  1  0
 13 14  1  0
 14 15  1  0
 15 16  1  0
 15 10  1  0
  1 17  1  0
  1 18  1  0
  1 19  1  0
  2 20  1  0
  2 21  1  0
  4 22  1  0
  4 23  1  0
  5 24  1  0
  5 25  1  0
  5 26  1  0
  6 27  1  0
  6 28  1  0
  7 29  1  0
  7 30  1  0
 10 31  1  6
 11 32  1  0
 11 33  1  0
 12 34  1  0
 12 35  1  0
 13 36  1  0
 13 37  1  0
 14 38  1  0
 14 39  1  0
 15 40  1  6
 16 41  1  0
 16 42  1  0
 16 43  1  0
M  CHG  1  10   1
M  END
>  <UniqueID>  (21) 
21

>  <SMILES>  (21) 
CCN(CC)CCC(=O)[N@H+]1CCCC[C@@H]1C

>  <Energy>  (21) 
39.12966052703091

>  <Genealogy>  (21) 
CCN(CC)CCC(=O)[NH+]1CCCCC1C (protonated)
CCN(CC)CCC(=O)[N@H+]1CCCC[C@@H]1C (chirality)
CCN(CC)CCC(=O)[N@H+]1CCCC[C@@H]1C (3D coordinates assigned)
CCN(CC)CCC(=O)[N@H+]1CCCC[C@@H]1C (nonaromatic ring conformer: 39.12966052703091 kcal/mol)

>  <smiles>  (21) 
CCN(CC)CCC(=O)N1CCCCC1C

>  <score_type>  (21) 
oracle

>  <origin>  (21) 
adg

>  <m_score__min__energy>  (21) 
-4.9400000000000004

>  <m_primary>  (21) 
energy

$$$$
21:0
     RDKit          3D

 48 51  0  0  0  0  0  0  0  0999 V2000
   67.0290   33.0020   50.4840 C   0  0  0  0  0  0  0  0  0  0  0  0
   66.0200   32.0160   51.0940 C   0  0  0  0  0  0  0  0  0  0  0  0
   64.6060   32.4600   51.0140 N   0  0  0  0  0  0  0  0  0  0  0  0
   63.7400   31.4900   50.2780 C   0  0  0  0  0  0  0  0  0  0  0  0
   63.0010   32.1000   49.0750 C   0  0  0  0  0  0  0  0  0  0  0  0
   62.3370   33.3510   49.4650 N   0  0  0  0  0  0  0  0  0  0  0  0
   61.0630   33.7430   48.9130 C   0  0  0  0  0  0  0  0  0  0  0  0
   60.3450   34.5680   49.5440 O   0  0  0  0  0  0  0  0  0  0  0  0
   60.5570   33.1960   47.5970 C   0  0  2  0  0  0  0  0  0  0  0  0
   59.8350   34.2930   46.7830 C   0  0  0  0  0  0  0  0  0  0  0  0
   59.4270   33.7820   45.3880 C   0  0  0  0  0  0  0  0  0  0  0  0
   58.7840   32.4220   45.4630 C   0  0  0  0  0  0  0  0  0  0  0  0
   58.9430   31.5860   46.5700 C   0  0  0  0  0  0  0  0  0  0  0  0
   58.1480   30.1200   46.3040 S   0  0  0  0  0  0  0  0  0  0  0  0
   57.6380   30.5210   44.7530 C   0  0  0  0  0  0  0  0  0  0  0  0
   56.9050   29.7380   43.8640 C   0  0  0  0  0  0  0  0  0  0  0  0
   56.6010   30.2720   42.6020 C   0  0  0  0  0  0  0  0  0  0  0  0
   57.0310   31.5660   42.2550 C   0  0  0  0  0  0  0  0  0  0  0  0
   57.7680   32.3410   43.1680 C   0  0  0  0  0  0  0  0  0  0  0  0
   58.0660   31.8030   44.4270 C   0  0  0  0  0  0  0  0  0  0  0  0
   59.6160   31.9970   47.8430 C   0  0  0  0  0  0  0  0  0  0  0  0
   63.0220   34.2680   50.3860 C   0  0  0  0  0  0  0  0  0  0  0  0
   64.4900   33.8640   50.5550 C   0  0  0  0  0  0  0  0  0  0  0  0
   67.5641   33.5249   51.2904 H   0  0  0  0  0  0  0  0  0  0  0  0
   67.7502   32.4510   49.8625 H   0  0  0  0  0  0  0  0  0  0  0  0
   66.4948   33.7357   49.8625 H   0  0  0  0  0  0  0  0  0  0  0  0
   66.1105   31.0575   50.5620 H   0  0  0  0  0  0  0  0  0  0  0  0
   66.2648   31.9367   52.1635 H   0  0  0  0  0  0  0  0  0  0  0  0
   64.2680   32.4620   52.0080 H   0  0  0  0  0  0  0  0  0  0  0  0
   64.3734   30.6675   49.9142 H   0  0  0  0  0  0  0  0  0  0  0  0
   62.9698   31.1498   50.9859 H   0  0  0  0  0  0  0  0  0  0  0  0
   63.7240   32.3079   48.2725 H   0  0  0  0  0  0  0  0  0  0  0  0
   62.2414   31.3867   48.7227 H   0  0  0  0  0  0  0  0  0  0  0  0
   61.4221   32.8521   47.0111 H   0  0  0  0  0  0  0  0  0  0  0  0
   58.9320   34.6065   47.3274 H   0  0  0  0  0  0  0  0  0  0  0  0
   60.5263   35.1387   46.6531 H   0  0  0  0  0  0  0  0  0  0  0  0
   58.7130   34.4906   44.9428 H   0  0  0  0  0  0  0  0  0  0  0  0
   60.3346   33.7004   44.7720 H   0  0  0  0  0  0  0  0  0  0  0  0
   56.5730   28.7273   44.1438 H   0  0  0  0  0  0  0  0  0  0  0  0
   56.0235   29.6756   41.8804 H   0  0  0  0  0  0  0  0  0  0  0  0
   56.7890   31.9742   41.2626 H   0  0  0  0  0  0  0  0  0  0  0  0
   58.1050   33.3528   42.8983 H   0  0  0  0  0  0  0  0  0  0  0  0
   58.8514   32.2828   48.5803 H   0  0  0  0  0  0  0  0  0  0  0  0
   60.2100   31.1512   48.2195 H   0  0  0  0  0  0  0  0  0  0  0  0
   62.9723   35.2900   49.9823 H   0  0  0  0  0  0  0  0  0  0  0  0
   62.5260   34.2222   51.3668 H   0  0  0  0  0  0  0  0  0  0  0  0
   65.0056   33.9702   49.5891 H   0  0  0  0  0  0  0  0  0  0  0  0
   64.9483   34.5184   51.3111 H   0  0  0  0  0  0  0  0  0  0  0  0
  1  2  1  0
  2  3  1  0
  3  4  1  0
  4  5  1  0
  5  6  1  0
  6  7  1  0
  7  8  2  0
  7  9  1  0
  9 10  1  0
 10 11  1  0
 11 12  1  0
 12 13  2  0
 13 14  1  0
 14 15  1  0
 15 16  2  0
 16 17  1  0
 17 18  2  0
 18 19  1  0
 19 20  2  0
 13 21  1  0
  6 22  1  0
 22 23  1  0
 23  3  1  0
 21  9  1  0
 20 12  1  0
 20 15  1  0
  1 24  1  0
  1 25  1  0
  1 26  1  0
  2 27  1  0
  2 28  1  0
  3 29  1  0
  4 30  1  0
  4 31  1  0
  5 32  1  0
  5 33  1  0
  9 34  1  6
 10 35  1  0
 10 36  1  0
 11 37  1  0
 11 38  1  0
 16 39  1  0
 17 40  1  0
 18 41  1  0
 19 42  1  0
 21 43  1  0
 21 44  1  0
 22 45  1  0
 22 46  1  0
 23 47  1  0
 23 48  1  0
M  CHG  1   3   1
M  END
>  <UniqueID>  (22) 
22

>  <SMILES>  (22) 
CC[NH+]1CCN(C(=O)[C@@H]2CCc3c(sc4ccccc34)C2)CC1

>  <Energy>  (22) 
89.98047539408411

>  <Genealogy>  (22) 
CC[NH+]1CCN(C(=O)C2CCc3c(sc4ccccc34)C2)CC1 (protonated)
CC[NH+]1CCN(C(=O)[C@@H]2CCc3c(sc4ccccc34)C2)CC1 (chirality)
CC[NH+]1CCN(C(=O)[C@@H]2CCc3c(sc4ccccc34)C2)CC1 (3D coordinates assigned)
CC[NH+]1CCN(C(=O)[C@@H]2CCc3c(sc4ccccc34)C2)CC1 (nonaromatic ring conformer: 89.98047539408411 kcal/mol)

>  <smiles>  (22) 
CCN1CCN(C(=O)C2CCc3c(sc4ccccc34)C2)CC1

>  <score_type>  (22) 
oracle

>  <origin>  (22) 
adg

>  <m_score__min__energy>  (22) 
-6.6900000000000004

>  <m_primary>  (22) 
energy

$$$$
22:0
     RDKit          3D

 30 31  0  0  0  0  0  0  0  0999 V2000
   56.5460   29.7970   43.3390 C   0  0  0  0  0  0  0  0  0  0  0  0
   56.4440   30.5140   44.5660 O   0  0  0  0  0  0  0  0  0  0  0  0
   57.3690   31.4750   45.0000 C   0  0  0  0  0  0  0  0  0  0  0  0
   57.4080   32.7790   44.4760 C   0  0  0  0  0  0  0  0  0  0  0  0
   58.3500   33.7000   44.9420 C   0  0  0  0  0  0  0  0  0  0  0  0
   59.2740   33.3410   45.9400 C   0  0  0  0  0  0  0  0  0  0  0  0
   60.2890   34.3690   46.4290 C   0  0  0  0  0  0  0  0  0  0  0  0
   59.9320   34.9400   47.8190 C   0  0  0  0  0  0  0  0  0  0  0  0
   60.3490   34.0230   48.9380 C   0  0  0  0  0  0  0  0  0  0  0  0
   59.6060   33.8510   49.8920 O   0  0  0  0  0  0  0  0  0  0  0  0
   61.7170   33.4010   48.9320 C   0  0  0  0  0  0  0  0  0  0  0  0
   62.0860   32.9700   47.5410 C   0  0  0  0  0  0  0  0  0  0  0  0
   62.7380   31.9510   47.3730 O   0  0  0  0  0  0  0  0  0  0  0  0
   61.7420   33.8430   46.3630 C   0  0  0  0  0  0  0  0  0  0  0  0
   59.2290   32.0320   46.4600 C   0  0  0  0  0  0  0  0  0  0  0  0
   58.2860   31.1140   45.9920 C   0  0  0  0  0  0  0  0  0  0  0  0
   56.6980   28.7283   43.5504 H   0  0  0  0  0  0  0  0  0  0  0  0
   55.6202   29.9281   42.7597 H   0  0  0  0  0  0  0  0  0  0  0  0
   57.3985   30.1811   42.7597 H   0  0  0  0  0  0  0  0  0  0  0  0
   56.6929   33.0760   43.6947 H   0  0  0  0  0  0  0  0  0  0  0  0
   58.3692   34.7172   44.5237 H   0  0  0  0  0  0  0  0  0  0  0  0
   60.2330   35.2132   45.7260 H   0  0  0  0  0  0  0  0  0  0  0  0
   60.4412   35.9068   47.9456 H   0  0  0  0  0  0  0  0  0  0  0  0
   58.8388   35.0524   47.8659 H   0  0  0  0  0  0  0  0  0  0  0  0
   62.4519   34.1364   49.2913 H   0  0  0  0  0  0  0  0  0  0  0  0
   61.7132   32.5203   49.5910 H   0  0  0  0  0  0  0  0  0  0  0  0
   62.4291   34.7019   46.3462 H   0  0  0  0  0  0  0  0  0  0  0  0
   61.8392   33.2341   45.4521 H   0  0  0  0  0  0  0  0  0  0  0  0
   59.9425   31.7306   47.2411 H   0  0  0  0  0  0  0  0  0  0  0  0
   58.2645   30.0961   46.4083 H   0  0  0  0  0  0  0  0  0  0  0  0
  1  2  1  0
  2  3  1  0
  3  4  2  0
  4  5  1  0
  5  6  2  0
  6  7  1  0
  7  8  1  0
  8  9  1  0
  9 10  2  0
  9 11  1  0
 11 12  1  0
 12 13  2  0
 12 14  1  0
  6 15  1  0
 15 16  2  0
 16  3  1  0
 14  7  1  0
  1 17  1  0
  1 18  1  0
  1 19  1  0
  4 20  1  0
  5 21  1  0
  7 22  1  0
  8 23  1  0
  8 24  1  0
 11 25  1  0
 11 26  1  0
 14 27  1  0
 14 28  1  0
 15 29  1  0
 16 30  1  0
M  END
>  <UniqueID>  (23) 
23

>  <SMILES>  (23) 
COc1ccc(C2CC(=O)CC(=O)C2)cc1

>  <Energy>  (23) 
30.442148071889786

>  <Genealogy>  (23) 
COc1ccc(C2CC(=O)CC(=O)C2)cc1 (3D coordinates assigned)
COc1ccc(C2CC(=O)CC(=O)C2)cc1 (nonaromatic ring conformer: 30.442148071889786 kcal/mol)

>  <smiles>  (23) 
COc1ccc(C2CC(=O)CC(=O)C2)cc1

>  <score_type>  (23) 
oracle

>  <origin>  (23) 
adg

>  <m_score__min__energy>  (23) 
-6.25

>  <m_primary>  (23) 
energy

$$$$
23:0
     RDKit          3D

 35 38  0  0  0  0  0  0  0  0999 V2000
   59.5070   26.6980   46.0720 Br  0  0  0  0  0  0  0  0  0  0  0  0
   57.6290   26.5990   45.9380 C   0  0  0  0  0  0  0  0  0  0  0  0
   56.9050   25.4780   46.2050 N   0  0  0  0  0  0  0  0  0  0  0  0
   55.6010   25.7940   45.9980 C   0  0  0  0  0  0  0  0  0  0  0  0
   55.5620   27.0410   45.6290 O   0  0  0  0  0  0  0  0  0  0  0  0
   56.7540   27.5910   45.5710 C   0  0  0  0  0  0  0  0  0  0  0  0
   56.9730   28.9680   45.1850 C   0  0  0  0  0  0  0  0  0  0  0  0
   56.3880   29.5950   44.1150 C   0  0  0  0  0  0  0  0  0  0  0  0
   56.6520   30.9320   43.8060 C   0  0  0  0  0  0  0  0  0  0  0  0
   57.5170   31.6870   44.5680 C   0  0  0  0  0  0  0  0  0  0  0  0
   57.7540   33.0920   44.1910 C   0  0  0  0  0  0  0  0  0  0  0  0
   57.7550   34.1660   45.6700 S   0  0  0  0  0  0  0  0  0  0  0  0
   59.3680   34.0360   46.4640 C   0  0  0  0  0  0  0  0  0  0  0  0
   59.5940   34.0600   47.7960 N   0  0  0  0  0  0  0  0  0  0  0  0
   60.9170   33.9390   48.0380 C   0  0  0  0  0  0  0  0  0  0  0  0
   61.6660   33.9050   49.2130 C   0  0  0  0  0  0  0  0  0  0  0  0
   63.0440   33.7680   49.1070 C   0  0  0  0  0  0  0  0  0  0  0  0
   63.6230   33.6700   47.8580 C   0  0  0  0  0  0  0  0  0  0  0  0
   62.8900   33.7010   46.6890 C   0  0  0  0  0  0  0  0  0  0  0  0
   61.5160   33.8390   46.7960 C   0  0  0  0  0  0  0  0  0  0  0  0
   60.5600   33.8990   45.8320 N   0  0  0  0  0  0  0  0  0  0  0  0
   58.1080   31.0680   45.6430 C   0  0  0  0  0  0  0  0  0  0  0  0
   57.8450   29.7490   45.9420 C   0  0  0  0  0  0  0  0  0  0  0  0
   54.7389   25.1217   46.1195 H   0  0  0  0  0  0  0  0  0  0  0  0
   55.6900   29.0286   43.4809 H   0  0  0  0  0  0  0  0  0  0  0  0
   56.1591   31.3913   42.9365 H   0  0  0  0  0  0  0  0  0  0  0  0
   58.7283   33.1711   43.6865 H   0  0  0  0  0  0  0  0  0  0  0  0
   56.9480   33.4183   43.5173 H   0  0  0  0  0  0  0  0  0  0  0  0
   61.1795   33.9844   50.1964 H   0  0  0  0  0  0  0  0  0  0  0  0
   63.6692   33.7378   50.0116 H   0  0  0  0  0  0  0  0  0  0  0  0
   64.7157   33.5626   47.7914 H   0  0  0  0  0  0  0  0  0  0  0  0
   63.3795   33.6190   45.7073 H   0  0  0  0  0  0  0  0  0  0  0  0
   60.7300   33.8470   44.7880 H   0  0  0  0  0  0  0  0  0  0  0  0
   58.8044   31.6364   46.2770 H   0  0  0  0  0  0  0  0  0  0  0  0
   58.3423   29.2947   46.8116 H   0  0  0  0  0  0  0  0  0  0  0  0
  1  2  1  0
  2  3  1  0
  3  4  2  0
  4  5  1  0
  5  6  1  0
  6  7  1  0
  7  8  2  0
  8  9  1  0
  9 10  2  0
 10 11  1  0
 11 12  1  0
 12 13  1  0
 13 14  2  0
 14 15  1  0
 15 16  2  0
 16 17  1  0
 17 18  2  0
 18 19  1  0
 19 20  2  0
 20 21  1  0
 10 22  1  0
 22 23  2  0
  6  2  2  0
 23  7  1  0
 21 13  1  0
 20 15  1  0
  4 24  1  0
  8 25  1  0
  9 26  1  0
 11 27  1  0
 11 28  1  0
 16 29  1  0
 17 30  1  0
 18 31  1  0
 19 32  1  0
 21 33  1  0
 22 34  1  0
 23 35  1  0
M  END
>  <smiles>  (24) 
Brc1ncoc1-c1ccc(CSc2nc3ccccc3[nH]2)cc1

>  <score_type>  (24) 
oracle

>  <origin>  (24) 
adg

>  <m_score__min__energy>  (24) 
-8.6699999999999999

>  <m_primary>  (24) 
energy

$$$$
24:0
     RDKit          3D

 52 54  0  0  0  0  0  0  0  0999 V2000
   59.2220   30.8010   48.0120 C   0  0  0  0  0  0  0  0  0  0  0  0
   58.2110   30.5920   47.0330 O   0  0  0  0  0  0  0  0  0  0  0  0
   58.0940   31.3210   45.8390 C   0  0  0  0  0  0  0  0  0  0  0  0
   57.7710   32.6930   45.8330 C   0  0  0  0  0  0  0  0  0  0  0  0
   57.6330   33.3800   44.6240 C   0  0  0  0  0  0  0  0  0  0  0  0
   57.8130   32.7100   43.4130 C   0  0  0  0  0  0  0  0  0  0  0  0
   58.1370   31.3520   43.4070 C   0  0  0  0  0  0  0  0  0  0  0  0
   58.2900   30.6540   44.6140 C   0  0  0  0  0  0  0  0  0  0  0  0
   58.6260   29.2570   44.5970 N   0  0  0  0  0  0  0  0  0  0  0  0
   57.7610   28.3050   43.8900 C   0  0  0  0  0  0  0  0  0  0  0  0
   58.0560   26.8670   44.3410 C   0  0  0  0  0  0  0  0  0  0  0  0
   58.3960   26.8470   45.7780 N   0  0  0  0  0  0  0  0  0  0  0  0
   58.4450   25.4830   46.2670 C   0  0  0  0  0  0  0  0  0  0  0  0
   58.9820   24.6100   45.5930 O   0  0  0  0  0  0  0  0  0  0  0  0
   57.7830   25.1280   47.5790 C   0  0  0  0  0  0  0  0  0  0  0  0
   56.3430   24.6220   47.4080 C   0  0  0  0  0  0  0  0  0  0  0  0
   55.6680   25.2920   46.2390 C   0  0  0  0  0  0  0  0  0  0  0  0
   55.5930   26.5490   46.2070 O   0  0  0  0  0  0  0  0  0  0  0  0
   55.1450   24.5410   45.1350 N   0  0  0  0  0  0  0  0  0  0  0  0
   55.7250   23.3640   44.5560 C   0  0  0  0  0  0  0  0  0  0  0  0
   55.8540   22.1700   45.2880 C   0  0  0  0  0  0  0  0  0  0  0  0
   56.3930   21.0290   44.6830 C   0  0  0  0  0  0  0  0  0  0  0  0
   56.7910   21.0690   43.3450 C   0  0  0  0  0  0  0  0  0  0  0  0
   56.6410   22.2450   42.6050 C   0  0  0  0  0  0  0  0  0  0  0  0
   56.1010   23.3860   43.2070 C   0  0  0  0  0  0  0  0  0  0  0  0
   59.6810   27.5390   46.0490 C   0  0  0  0  0  0  0  0  0  0  0  0
   59.8930   28.7910   45.1710 C   0  0  0  0  0  0  0  0  0  0  0  0
   58.7837   30.7104   49.0168 H   0  0  0  0  0  0  0  0  0  0  0  0
   60.0138   30.0476   47.8880 H   0  0  0  0  0  0  0  0  0  0  0  0
   59.6501   31.8066   47.8880 H   0  0  0  0  0  0  0  0  0  0  0  0
   57.6269   33.2255   46.7847 H   0  0  0  0  0  0  0  0  0  0  0  0
   57.3820   34.4510   44.6268 H   0  0  0  0  0  0  0  0  0  0  0  0
   57.6995   33.2522   42.4627 H   0  0  0  0  0  0  0  0  0  0  0  0
   58.2731   30.8265   42.4503 H   0  0  0  0  0  0  0  0  0  0  0  0
   56.7091   28.5429   44.1065 H   0  0  0  0  0  0  0  0  0  0  0  0
   57.9552   28.3844   42.8102 H   0  0  0  0  0  0  0  0  0  0  0  0
   57.1676   26.2418   44.1683 H   0  0  0  0  0  0  0  0  0  0  0  0
   58.9064   26.4753   43.7637 H   0  0  0  0  0  0  0  0  0  0  0  0
   57.6400   27.3560   46.2960 H   0  0  0  0  0  0  0  0  0  0  0  0
   58.3752   24.3408   48.0685 H   0  0  0  0  0  0  0  0  0  0  0  0
   57.7392   26.0457   48.1839 H   0  0  0  0  0  0  0  0  0  0  0  0
   56.3618   23.5354   47.2376 H   0  0  0  0  0  0  0  0  0  0  0  0
   55.7781   24.8603   48.3213 H   0  0  0  0  0  0  0  0  0  0  0  0
   55.5304   22.1329   46.3387 H   0  0  0  0  0  0  0  0  0  0  0  0
   56.5032   20.1001   45.2617 H   0  0  0  0  0  0  0  0  0  0  0  0
   57.2229   20.1741   42.8732 H   0  0  0  0  0  0  0  0  0  0  0  0
   56.9477   22.2732   41.5490 H   0  0  0  0  0  0  0  0  0  0  0  0
   55.9709   24.3057   42.6178 H   0  0  0  0  0  0  0  0  0  0  0  0
   59.6973   27.8456   47.1053 H   0  0  0  0  0  0  0  0  0  0  0  0
   60.4899   26.8322   45.8121 H   0  0  0  0  0  0  0  0  0  0  0  0
   60.3240   29.5932   45.7881 H   0  0  0  0  0  0  0  0  0  0  0  0
   60.5727   28.5277   44.3472 H   0  0  0  0  0  0  0  0  0  0  0  0
  1  2  1  0
  2  3  1  0
  3  4  2  0
  4  5  1  0
  5  6  2  0
  6  7  1  0
  7  8  2  0
  8  9  1  0
  9 10  1  0
 10 11  1  0
 11 12  1  0
 12 13  1  0
 13 14  2  0
 13 15  1  0
 15 16  1  0
 16 17  1  0
 17 18  2  0
 17 19  1  0
 19 20  1  0
 20 21  2  0
 21 22  1  0
 22 23  2  0
 23 24  1  0
 24 25  2  0
 12 26  1  0
 26 27  1  0
  8  3  1  0
 27  9  1  0
 25 20  1  0
  1 28  1  0
  1 29  1  0
  1 30  1  0
  4 31  1  0
  5 32  1  0
  6 33  1  0
  7 34  1  0
 10 35  1  0
 10 36  1  0
 11 37  1  0
 11 38  1  0
 12 39  1  0
 15 40  1  0
 15 41  1  0
 16 42  1  0
 16 43  1  0
 21 44  1  0
 22 45  1  0
 23 46  1  0
 24 47  1  0
 25 48  1  0
 26 49  1  0
 26 50  1  0
 27 51  1  0
 27 52  1  0
M  CHG  2  12   1  19  -1
M  END
>  <UniqueID>  (25) 
24

>  <SMILES>  (25) 
COc1ccccc1N1CC[NH+](C(=O)CCC(=O)[N-]c2ccccc2)CC1

>  <Energy>  (25) 
66.67350508757171

>  <Genealogy>  (25) 
COc1ccccc1N1CC[NH+](C(=O)CCC(=O)[N-]c2ccccc2)CC1 (protonated)
COc1ccccc1N1CC[NH+](C(=O)CCC(=O)[N-]c2ccccc2)CC1 (3D coordinates assigned)
COc1ccccc1N1CC[NH+](C(=O)CCC(=O)[N-]c2ccccc2)CC1 (nonaromatic ring conformer: 66.67350508757171 kcal/mol)

>  <smiles>  (25) 
COc1ccccc1N1CCN(C(=O)CCC(=O)Nc2ccccc2)CC1

>  <score_type>  (25) 
oracle

>  <origin>  (25) 
adg

>  <m_score__min__energy>  (25) 
-7.5899999999999999

>  <m_primary>  (25) 
energy

$$$$
25:0
     RDKit          3D

 55 57  0  0  0  0  0  0  0  0999 V2000
   58.1810   34.5120   44.8810 C   0  0  0  0  0  0  0  0  0  0  0  0
   58.9710   33.4660   45.5640 N   0  0  0  0  0  0  0  0  0  0  0  0
   58.1070   32.3230   45.9390 C   0  0  0  0  0  0  0  0  0  0  0  0
   57.0350   32.0790   44.8690 C   0  0  0  0  0  0  0  0  0  0  0  0
   56.6780   30.7100   44.8430 O   0  0  0  0  0  0  0  0  0  0  0  0
   57.2500   30.0670   43.7210 C   0  0  0  0  0  0  0  0  0  0  0  0
   57.3750   28.5670   43.9890 C   0  0  0  0  0  0  0  0  0  0  0  0
   58.0810   28.2860   45.3000 C   0  0  0  0  0  0  0  0  0  0  0  0
   59.1320   29.1350   45.6920 C   0  0  0  0  0  0  0  0  0  0  0  0
   59.7990   28.9330   46.9020 C   0  0  0  0  0  0  0  0  0  0  0  0
   59.4250   27.8810   47.7400 C   0  0  0  0  0  0  0  0  0  0  0  0
   58.3860   27.0270   47.3670 C   0  0  0  0  0  0  0  0  0  0  0  0
   57.7070   27.2140   46.1490 C   0  0  0  0  0  0  0  0  0  0  0  0
   56.6190   26.2760   45.7980 C   0  0  0  0  0  0  0  0  0  0  0  0
   55.4280   26.6260   46.0120 O   0  0  0  0  0  0  0  0  0  0  0  0
   56.8960   24.9540   45.1810 C   0  0  0  0  0  0  0  0  0  0  0  0
   58.1060   24.2740   45.4280 C   0  0  0  0  0  0  0  0  0  0  0  0
   58.3470   23.0230   44.8530 C   0  0  0  0  0  0  0  0  0  0  0  0
   57.3850   22.4320   44.0310 C   0  0  0  0  0  0  0  0  0  0  0  0
   56.1790   23.0900   43.7850 C   0  0  0  0  0  0  0  0  0  0  0  0
   55.9320   24.3410   44.3570 C   0  0  0  0  0  0  0  0  0  0  0  0
   59.6370   34.0300   46.7590 C   0  0  0  0  0  0  0  0  0  0  0  0
   60.9380   33.3180   47.0340 C   0  0  0  0  0  0  0  0  0  0  0  0
   60.9590   32.1150   47.7600 C   0  0  0  0  0  0  0  0  0  0  0  0
   62.1710   31.4660   48.0120 C   0  0  0  0  0  0  0  0  0  0  0  0
   63.3690   32.0120   47.5430 C   0  0  0  0  0  0  0  0  0  0  0  0
   63.3560   33.2120   46.8250 C   0  0  0  0  0  0  0  0  0  0  0  0
   62.1460   33.8640   46.5700 C   0  0  0  0  0  0  0  0  0  0  0  0
   57.6962   35.1539   45.6313 H   0  0  0  0  0  0  0  0  0  0  0  0
   58.8461   35.1216   44.2517 H   0  0  0  0  0  0  0  0  0  0  0  0
   57.4127   34.0390   44.2517 H   0  0  0  0  0  0  0  0  0  0  0  0
   58.7270   31.4201   46.0413 H   0  0  0  0  0  0  0  0  0  0  0  0
   57.6089   32.5543   46.8921 H   0  0  0  0  0  0  0  0  0  0  0  0
   56.1453   32.6829   45.1008 H   0  0  0  0  0  0  0  0  0  0  0  0
   57.4356   32.3658   43.8855 H   0  0  0  0  0  0  0  0  0  0  0  0
   56.6088   30.2283   42.8419 H   0  0  0  0  0  0  0  0  0  0  0  0
   58.2496   30.4861   43.5338 H   0  0  0  0  0  0  0  0  0  0  0  0
   56.3676   28.1268   44.0257 H   0  0  0  0  0  0  0  0  0  0  0  0
   57.9712   28.1235   43.1779 H   0  0  0  0  0  0  0  0  0  0  0  0
   59.4317   29.9672   45.0381 H   0  0  0  0  0  0  0  0  0  0  0  0
   60.6201   29.6036   47.1952 H   0  0  0  0  0  0  0  0  0  0  0  0
   59.9492   27.7251   48.6944 H   0  0  0  0  0  0  0  0  0  0  0  0
   58.0953   26.2000   48.0315 H   0  0  0  0  0  0  0  0  0  0  0  0
   58.8663   24.7314   46.0782 H   0  0  0  0  0  0  0  0  0  0  0  0
   59.2964   22.5029   45.0483 H   0  0  0  0  0  0  0  0  0  0  0  0
   57.5777   21.4484   43.5777 H   0  0  0  0  0  0  0  0  0  0  0  0
   55.4209   22.6228   43.1392 H   0  0  0  0  0  0  0  0  0  0  0  0
   54.9771   24.8510   44.1621 H   0  0  0  0  0  0  0  0  0  0  0  0
   59.8394   35.0977   46.5887 H   0  0  0  0  0  0  0  0  0  0  0  0
   58.9736   33.8993   47.6267 H   0  0  0  0  0  0  0  0  0  0  0  0
   60.0182   31.6825   48.1313 H   0  0  0  0  0  0  0  0  0  0  0  0
   62.1819   30.5242   48.5802 H   0  0  0  0  0  0  0  0  0  0  0  0
   64.3217   31.4981   47.7385 H   0  0  0  0  0  0  0  0  0  0  0  0
   64.2997   33.6437   46.4602 H   0  0  0  0  0  0  0  0  0  0  0  0
   62.1400   34.8074   46.0043 H   0  0  0  0  0  0  0  0  0  0  0  0
  1  2  1  0
  2  3  1  0
  3  4  1  0
  4  5  1  0
  5  6  1  0
  6  7  1  0
  7  8  1  0
  8  9  2  0
  9 10  1  0
 10 11  2  0
 11 12  1  0
 12 13  2  0
 13 14  1  0
 14 15  2  0
 14 16  1  0
 16 17  2  0
 17 18  1  0
 18 19  2  0
 19 20  1  0
 20 21  2  0
  2 22  1  0
 22 23  1  0
 23 24  2  0
 24 25  1  0
 25 26  2  0
 26 27  1  0
 27 28  2  0
 13  8  1  0
 21 16  1  0
 28 23  1  0
  1 29  1  0
  1 30  1  0
  1 31  1  0
  3 32  1  0
  3 33  1  0
  4 34  1  0
  4 35  1  0
  6 36  1  0
  6 37  1  0
  7 38  1  0
  7 39  1  0
  9 40  1  0
 10 41  1  0
 11 42  1  0
 12 43  1  0
 17 44  1  0
 18 45  1  0
 19 46  1  0
 20 47  1  0
 21 48  1  0
 22 49  1  0
 22 50  1  0
 24 51  1  0
 25 52  1  0
 26 53  1  0
 27 54  1  0
 28 55  1  0
M  END
>  <UniqueID>  (26) 
25

>  <SMILES>  (26) 
CN(CCOCCc1ccccc1C(=O)c1ccccc1)Cc1ccccc1

>  <Energy>  (26) 
66.5700444401287

>  <Genealogy>  (26) 
CN(CCOCCc1ccccc1C(=O)c1ccccc1)Cc1ccccc1 (3D coordinates assigned)
CN(CCOCCc1ccccc1C(=O)c1ccccc1)Cc1ccccc1 (optimized conformer: 66.5700444401287 kcal/mol)

>  <smiles>  (26) 
CN(CCOCCc1ccccc1C(=O)c1ccccc1)Cc1ccccc1

>  <score_type>  (26) 
oracle

>  <origin>  (26) 
adg

>  <m_score__min__energy>  (26) 
-9.2100000000000009

>  <m_primary>  (26) 
energy

$$$$
26:0
     RDKit          3D

 43 45  0  0  0  0  0  0  0  0999 V2000
   56.8210   28.1100   45.4650 C   0  0  0  0  0  0  0  0  0  0  0  0
   56.7280   29.0150   44.2420 C   0  0  0  0  0  0  0  0  0  0  0  0
   56.3190   30.3650   44.6430 N   0  0  0  0  0  0  0  0  0  0  0  0
   56.9910   31.3670   43.8080 C   0  0  0  0  0  0  0  0  0  0  0  0
   58.4810   31.4140   44.1410 C   0  0  0  0  0  0  0  0  0  0  0  0
   58.6900   31.2940   45.5860 N   0  0  0  0  0  0  0  0  0  0  0  0
   58.2780   32.1350   46.5740 C   0  0  0  0  0  0  0  0  0  0  0  0
   57.4290   33.6930   46.2850 S   0  0  0  0  0  0  0  0  0  0  0  0
   58.9430   34.6530   45.9250 C   0  0  0  0  0  0  0  0  0  0  0  0
   60.0560   34.3150   46.8760 C   0  0  0  0  0  0  0  0  0  0  0  0
   59.8960   34.5100   48.2590 C   0  0  0  0  0  0  0  0  0  0  0  0
   60.9370   34.2010   49.1390 C   0  0  0  0  0  0  0  0  0  0  0  0
   62.1440   33.6940   48.6460 C   0  0  0  0  0  0  0  0  0  0  0  0
   62.3080   33.4900   47.2720 C   0  0  0  0  0  0  0  0  0  0  0  0
   61.2690   33.7960   46.3890 C   0  0  0  0  0  0  0  0  0  0  0  0
   58.5520   31.6800   47.8240 N   0  0  0  0  0  0  0  0  0  0  0  0
   59.1830   30.5160   47.5890 C   0  0  0  0  0  0  0  0  0  0  0  0
   59.6900   29.6220   48.5290 C   0  0  0  0  0  0  0  0  0  0  0  0
   60.3040   28.4470   48.0530 C   0  0  0  0  0  0  0  0  0  0  0  0
   60.3890   28.1990   46.6640 C   0  0  0  0  0  0  0  0  0  0  0  0
   59.8650   29.1210   45.7400 C   0  0  0  0  0  0  0  0  0  0  0  0
   59.2700   30.2790   46.2480 C   0  0  0  0  0  0  0  0  0  0  0  0
   56.7583   28.7201   46.3782 H   0  0  0  0  0  0  0  0  0  0  0  0
   55.9925   27.3866   45.4497 H   0  0  0  0  0  0  0  0  0  0  0  0
   57.7793   27.5702   45.4497 H   0  0  0  0  0  0  0  0  0  0  0  0
   57.7107   29.0638   43.7501 H   0  0  0  0  0  0  0  0  0  0  0  0
   55.9809   28.6045   43.5467 H   0  0  0  0  0  0  0  0  0  0  0  0
   56.6320   30.5140   45.6320 H   0  0  0  0  0  0  0  0  0  0  0  0
   56.8633   31.1021   42.7480 H   0  0  0  0  0  0  0  0  0  0  0  0
   56.5472   32.3544   44.0032 H   0  0  0  0  0  0  0  0  0  0  0  0
   58.9917   30.5835   43.6316 H   0  0  0  0  0  0  0  0  0  0  0  0
   58.8901   32.3772   43.8021 H   0  0  0  0  0  0  0  0  0  0  0  0
   59.2709   34.4297   44.8990 H   0  0  0  0  0  0  0  0  0  0  0  0
   58.7067   35.7211   46.0403 H   0  0  0  0  0  0  0  0  0  0  0  0
   58.9478   34.9073   48.6501 H   0  0  0  0  0  0  0  0  0  0  0  0
   60.8071   34.3566   50.2202 H   0  0  0  0  0  0  0  0  0  0  0  0
   62.9643   33.4557   49.3391 H   0  0  0  0  0  0  0  0  0  0  0  0
   63.2563   33.0881   46.8859 H   0  0  0  0  0  0  0  0  0  0  0  0
   61.4003   33.6304   45.3095 H   0  0  0  0  0  0  0  0  0  0  0  0
   59.6135   29.8267   49.6071 H   0  0  0  0  0  0  0  0  0  0  0  0
   60.7193   27.7191   48.7655 H   0  0  0  0  0  0  0  0  0  0  0  0
   60.8688   27.2775   46.3028 H   0  0  0  0  0  0  0  0  0  0  0  0
   59.9215   28.9373   44.6569 H   0  0  0  0  0  0  0  0  0  0  0  0
  1  2  1  0
  2  3  1  0
  3  4  1  0
  4  5  1  0
  5  6  1  0
  6  7  1  0
  7  8  1  0
  8  9  1  0
  9 10  1  0
 10 11  2  0
 11 12  1  0
 12 13  2  0
 13 14  1  0
 14 15  2  0
  7 16  2  0
 16 17  1  0
 17 18  2  0
 18 19  1  0
 19 20  2  0
 20 21  1  0
 21 22  2  0
 22  6  1  0
 15 10  1  0
 22 17  1  0
  1 23  1  0
  1 24  1  0
  1 25  1  0
  2 26  1  0
  2 27  1  0
  3 28  1  0
  4 29  1  0
  4 30  1  0
  5 31  1  0
  5 32  1  0
  9 33  1  0
  9 34  1  0
 11 35  1  0
 12 36  1  0
 13 37  1  0
 14 38  1  0
 15 39  1  0
 18 40  1  0
 19 41  1  0
 20 42  1  0
 21 43  1  0
M  END
>  <UniqueID>  (27) 
26

>  <SMILES>  (27) 
CCNCCn1c(SCc2ccccc2)nc2ccccc21

>  <Energy>  (27) 
69.42118757327859

>  <Genealogy>  (27) 
CCNCCn1c(SCc2ccccc2)nc2ccccc21 (3D coordinates assigned)
CCNCCn1c(SCc2ccccc2)nc2ccccc21 (optimized conformer: 69.42118757327859 kcal/mol)

>  <smiles>  (27) 
CCNCCn1c(SCc2ccccc2)nc2ccccc21

>  <score_type>  (27) 
oracle

>  <origin>  (27) 
adg

>  <m_score__min__energy>  (27) 
-7.0499999999999998

>  <m_primary>  (27) 
energy

$$$$
27:0
     RDKit          3D

 39 41  0  0  0  0  0  0  0  0999 V2000
   57.0160   34.3520   44.8490 C   0  0  0  0  0  0  0  0  0  0  0  0
   57.6190   33.0010   45.0620 C   0  0  0  0  0  0  0  0  0  0  0  0
   57.8210   32.1150   44.0550 N   0  0  0  0  0  0  0  0  0  0  0  0
   58.2910   31.0260   44.6960 C   0  0  0  0  0  0  0  0  0  0  0  0
   58.6280   29.8580   44.0950 N   0  0  0  0  0  0  0  0  0  0  0  0
   59.0730   28.8200   44.8620 C   0  0  0  0  0  0  0  0  0  0  0  0
   59.1790   28.9610   46.2580 C   0  0  0  0  0  0  0  0  0  0  0  0
   58.8180   30.1810   46.8440 C   0  0  0  0  0  0  0  0  0  0  0  0
   58.3810   31.1750   46.0280 N   0  0  0  0  0  0  0  0  0  0  0  0
   57.9530   32.4250   46.2850 C   0  0  0  0  0  0  0  0  0  0  0  0
   57.7690   33.0320   47.6560 C   0  0  0  0  0  0  0  0  0  0  0  0
   59.0060   33.6420   48.1700 N   0  0  0  0  0  0  0  0  0  0  0  0
   59.5480   34.6980   47.2930 C   0  0  0  0  0  0  0  0  0  0  0  0
   60.7360   34.1990   46.4530 C   0  0  0  0  0  0  0  0  0  0  0  0
   61.9110   33.8740   47.3350 C   0  0  0  0  0  0  0  0  0  0  0  0
   63.0440   33.2390   46.8010 C   0  0  0  0  0  0  0  0  0  0  0  0
   64.1190   32.9010   47.6300 C   0  0  0  0  0  0  0  0  0  0  0  0
   64.0660   33.1880   48.9970 C   0  0  0  0  0  0  0  0  0  0  0  0
   65.5340   32.7240   50.1280 Br  0  0  0  0  0  0  0  0  0  0  0  0
   62.9360   33.8100   49.5380 C   0  0  0  0  0  0  0  0  0  0  0  0
   61.8610   34.1490   48.7120 C   0  0  0  0  0  0  0  0  0  0  0  0
   56.8078   34.8184   45.8233 H   0  0  0  0  0  0  0  0  0  0  0  0
   57.7184   34.9820   44.2835 H   0  0  0  0  0  0  0  0  0  0  0  0
   56.0780   34.2499   44.2835 H   0  0  0  0  0  0  0  0  0  0  0  0
   58.5460   29.7500   43.0590 H   0  0  0  0  0  0  0  0  0  0  0  0
   59.3503   27.8679   44.3859 H   0  0  0  0  0  0  0  0  0  0  0  0
   59.5392   28.1273   46.8786 H   0  0  0  0  0  0  0  0  0  0  0  0
   58.8863   30.3295   47.9318 H   0  0  0  0  0  0  0  0  0  0  0  0
   56.9907   33.8071   47.5976 H   0  0  0  0  0  0  0  0  0  0  0  0
   57.4821   32.2239   48.3449 H   0  0  0  0  0  0  0  0  0  0  0  0
   59.7200   32.9010   48.3680 H   0  0  0  0  0  0  0  0  0  0  0  0
   58.7521   35.0388   46.6145 H   0  0  0  0  0  0  0  0  0  0  0  0
   59.9059   35.5186   47.9321 H   0  0  0  0  0  0  0  0  0  0  0  0
   60.4355   33.2945   45.9039 H   0  0  0  0  0  0  0  0  0  0  0  0
   61.0301   34.9920   45.7497 H   0  0  0  0  0  0  0  0  0  0  0  0
   63.0864   33.0065   45.7267 H   0  0  0  0  0  0  0  0  0  0  0  0
   65.0067   32.4090   47.2058 H   0  0  0  0  0  0  0  0  0  0  0  0
   62.8935   34.0325   50.6144 H   0  0  0  0  0  0  0  0  0  0  0  0
   60.9717   34.6333   49.1417 H   0  0  0  0  0  0  0  0  0  0  0  0
  1  2  1  0
  2  3  1  0
  3  4  2  0
  4  5  1  0
  5  6  2  0
  6  7  1  0
  7  8  2  0
  8  9  1  0
  9 10  1  0
 10 11  1  0
 11 12  1  0
 12 13  1  0
 13 14  1  0
 14 15  1  0
 15 16  2  0
 16 17  1  0
 17 18  2  0
 18 19  1  0
 18 20  1  0
 20 21  2  0
 10  2  2  0
 21 15  1  0
  9  4  1  0
  1 22  1  0
  1 23  1  0
  1 24  1  0
  5 25  1  0
  6 26  1  0
  7 27  1  0
  8 28  1  0
 11 29  1  0
 11 30  1  0
 12 31  1  0
 13 32  1  0
 13 33  1  0
 14 34  1  0
 14 35  1  0
 16 36  1  0
 17 37  1  0
 20 38  1  0
 21 39  1  0
M  CHG  1   5   1
M  END
>  <UniqueID>  (28) 
27

>  <SMILES>  (28) 
Cc1nc2[nH+]cccn2c1CNCCc1ccc(Br)cc1

>  <Energy>  (28) 
72.71197161426203

>  <Genealogy>  (28) 
Cc1nc2[nH+]cccn2c1CNCCc1ccc(Br)cc1 (protonated)
Cc1nc2[nH+]cccn2c1CNCCc1ccc(Br)cc1 (3D coordinates assigned)
Cc1nc2[nH+]cccn2c1CNCCc1ccc(Br)cc1 (optimized conformer: 72.71197161426203 kcal/mol)

>  <smiles>  (28) 
Cc1nc2ncccn2c1CNCCc1ccc(Br)cc1

>  <score_type>  (28) 
oracle

>  <origin>  (28) 
adg

>  <m_score__min__energy>  (28) 
-6.2800000000000002

>  <m_primary>  (28) 
energy

$$$$
28:0
     RDKit          3D

 33 35  0  0  0  0  0  0  0  0999 V2000
   64.9250   32.3730   49.9930 C   0  0  0  0  0  0  0  0  0  0  0  0
   64.6540   32.7900   48.6590 O   0  0  0  0  0  0  0  0  0  0  0  0
   63.3750   32.7390   48.0970 C   0  0  0  0  0  0  0  0  0  0  0  0
   63.0620   33.5810   47.0260 C   0  0  0  0  0  0  0  0  0  0  0  0
   61.7850   33.5300   46.4640 C   0  0  0  0  0  0  0  0  0  0  0  0
   60.8260   32.6450   46.9770 C   0  0  0  0  0  0  0  0  0  0  0  0
   59.4710   32.5670   46.3870 C   0  0  0  0  0  0  0  0  0  0  0  0
   58.5610   33.6560   46.4220 C   0  0  0  0  0  0  0  0  0  0  0  0
   58.9000   34.9660   47.0810 C   0  0  0  0  0  0  0  0  0  0  0  0
   57.3010   33.4960   45.7990 C   0  0  0  0  0  0  0  0  0  0  0  0
   56.9590   32.3170   45.2060 N   0  0  0  0  0  0  0  0  0  0  0  0
   57.8470   31.2970   45.2230 C   0  0  0  0  0  0  0  0  0  0  0  0
   57.7050   30.0480   44.6690 C   0  0  0  0  0  0  0  0  0  0  0  0
   58.9240   29.4430   44.9650 C   0  0  0  0  0  0  0  0  0  0  0  0
   59.3400   28.0790   44.5290 C   0  0  0  0  0  0  0  0  0  0  0  0
   59.7360   30.2980   45.6320 N   0  0  0  0  0  0  0  0  0  0  0  0
   59.0510   31.4180   45.7900 N   0  0  0  0  0  0  0  0  0  0  0  0
   61.1840   31.8110   48.0460 C   0  0  0  0  0  0  0  0  0  0  0  0
   62.4340   31.8780   48.5770 N   0  0  0  0  0  0  0  0  0  0  0  0
   64.4653   33.0804   50.6988 H   0  0  0  0  0  0  0  0  0  0  0  0
   64.5065   31.3688   50.1554 H   0  0  0  0  0  0  0  0  0  0  0  0
   66.0126   32.3476   50.1554 H   0  0  0  0  0  0  0  0  0  0  0  0
   63.8153   34.2777   46.6295 H   0  0  0  0  0  0  0  0  0  0  0  0
   61.5308   34.1850   45.6176 H   0  0  0  0  0  0  0  0  0  0  0  0
   58.8688   34.8455   48.1739 H   0  0  0  0  0  0  0  0  0  0  0  0
   59.9090   35.2799   46.7753 H   0  0  0  0  0  0  0  0  0  0  0  0
   58.1700   35.7300   46.7753 H   0  0  0  0  0  0  0  0  0  0  0  0
   56.5880   34.3336   45.7930 H   0  0  0  0  0  0  0  0  0  0  0  0
   56.8438   29.6302   44.1271 H   0  0  0  0  0  0  0  0  0  0  0  0
   59.5307   27.4536   45.4136 H   0  0  0  0  0  0  0  0  0  0  0  0
   58.5390   27.6266   43.9259 H   0  0  0  0  0  0  0  0  0  0  0  0
   60.2571   28.1506   43.9259 H   0  0  0  0  0  0  0  0  0  0  0  0
   60.4514   31.1004   48.4562 H   0  0  0  0  0  0  0  0  0  0  0  0
  1  2  1  0
  2  3  1  0
  3  4  2  0
  4  5  1  0
  5  6  2  0
  6  7  1  0
  7  8  2  0
  8  9  1  0
  8 10  1  0
 10 11  2  0
 11 12  1  0
 12 13  2  0
 13 14  1  0
 14 15  1  0
 14 16  2  0
 16 17  1  0
  6 18  1  0
 18 19  2  0
 19  3  1  0
 17  7  1  0
 17 12  1  0
  1 20  1  0
  1 21  1  0
  1 22  1  0
  4 23  1  0
  5 24  1  0
  9 25  1  0
  9 26  1  0
  9 27  1  0
 10 28  1  0
 13 29  1  0
 15 30  1  0
 15 31  1  0
 15 32  1  0
 18 33  1  0
M  END
>  <UniqueID>  (29) 
28

>  <SMILES>  (29) 
COc1ccc(-c2c(C)cnc3cc(C)nn23)cn1

>  <Energy>  (29) 
75.99355438219632

>  <Genealogy>  (29) 
COc1ccc(-c2c(C)cnc3cc(C)nn23)cn1 (3D coordinates assigned)
COc1ccc(-c2c(C)cnc3cc(C)nn23)cn1 (optimized conformer: 75.99355438219632 kcal/mol)

>  <smiles>  (29) 
COc1ccc(-c2c(C)cnc3cc(C)nn23)cn1

>  <score_type>  (29) 
oracle

>  <origin>  (29) 
adg

>  <m_score__min__energy>  (29) 
-6.29

>  <m_primary>  (29) 
energy

$$$$
29:0
     RDKit          3D

 51 54  0  0  0  0  0  0  0  0999 V2000
   57.8200   30.6800   46.0450 O   0  0  0  0  0  0  0  0  0  0  0  0
   58.6930   30.1700   46.8010 C   0  0  0  0  0  0  0  0  0  0  0  0
   59.6010   31.0180   47.4890 C   0  0  0  0  0  0  0  0  0  0  0  0
   59.4980   32.5420   47.2810 C   0  0  0  0  0  0  0  0  0  0  0  0
   60.4820   33.0500   46.2080 C   0  0  0  0  0  0  0  0  0  0  0  0
   60.3210   34.5620   45.9980 C   0  0  0  0  0  0  0  0  0  0  0  0
   58.8760   34.9750   45.6360 C   0  0  0  0  0  0  0  0  0  0  0  0
   57.8490   33.8410   45.7850 C   0  0  0  0  0  0  0  0  0  0  0  0
   58.0460   33.0690   47.0970 C   0  0  0  0  0  0  0  0  0  0  0  0
   60.5430   30.4050   48.3670 C   0  0  0  0  0  0  0  0  0  0  0  0
   61.5120   31.1680   49.1820 C   0  0  0  0  0  0  0  0  0  0  0  0
   61.4820   31.0700   50.5820 C   0  0  0  0  0  0  0  0  0  0  0  0
   62.4590   31.7080   51.3530 C   0  0  0  0  0  0  0  0  0  0  0  0
   63.4970   32.4060   50.7300 C   0  0  0  0  0  0  0  0  0  0  0  0
   63.5720   32.4480   49.3350 C   0  0  0  0  0  0  0  0  0  0  0  0
   62.5950   31.8130   48.5610 C   0  0  0  0  0  0  0  0  0  0  0  0
   60.5770   29.0500   48.4910 N   0  0  0  0  0  0  0  0  0  0  0  0
   59.7290   28.2270   47.8190 C   0  0  0  0  0  0  0  0  0  0  0  0
   59.8260   26.8390   47.9970 C   0  0  0  0  0  0  0  0  0  0  0  0
   58.9610   25.9810   47.3270 C   0  0  0  0  0  0  0  0  0  0  0  0
   57.9910   26.4920   46.4700 C   0  0  0  0  0  0  0  0  0  0  0  0
   57.8710   27.8820   46.2630 C   0  0  0  0  0  0  0  0  0  0  0  0
   56.8900   28.4100   45.4020 O   0  0  0  0  0  0  0  0  0  0  0  0
   57.0820   28.8460   44.0550 C   0  0  0  0  0  0  0  0  0  0  0  0
   55.9820   29.8190   43.6290 C   0  0  0  0  0  0  0  0  0  0  0  0
   56.2480   31.0920   44.0940 F   0  0  0  0  0  0  0  0  0  0  0  0
   54.7660   29.3970   44.1350 F   0  0  0  0  0  0  0  0  0  0  0  0
   55.9070   29.8520   42.2490 F   0  0  0  0  0  0  0  0  0  0  0  0
   58.7520   28.7650   46.9510 C   0  0  0  0  0  0  0  0  0  0  0  0
   59.8181   32.9910   48.2328 H   0  0  0  0  0  0  0  0  0  0  0  0
   61.5114   32.8379   46.5325 H   0  0  0  0  0  0  0  0  0  0  0  0
   60.2678   32.5360   45.2594 H   0  0  0  0  0  0  0  0  0  0  0  0
   60.6098   35.0768   46.9262 H   0  0  0  0  0  0  0  0  0  0  0  0
   60.9641   34.8453   45.1518 H   0  0  0  0  0  0  0  0  0  0  0  0
   58.5766   35.8026   46.2959 H   0  0  0  0  0  0  0  0  0  0  0  0
   58.8824   35.2630   44.5744 H   0  0  0  0  0  0  0  0  0  0  0  0
   56.8370   34.2720   45.7729 H   0  0  0  0  0  0  0  0  0  0  0  0
   57.9873   33.1396   44.9490 H   0  0  0  0  0  0  0  0  0  0  0  0
   57.8072   33.7383   47.9366 H   0  0  0  0  0  0  0  0  0  0  0  0
   57.3801   32.1940   47.0666 H   0  0  0  0  0  0  0  0  0  0  0  0
   60.6877   30.4897   51.0742 H   0  0  0  0  0  0  0  0  0  0  0  0
   62.4103   31.6603   52.4509 H   0  0  0  0  0  0  0  0  0  0  0  0
   64.2549   32.9223   51.3374 H   0  0  0  0  0  0  0  0  0  0  0  0
   64.4002   32.9810   48.8452 H   0  0  0  0  0  0  0  0  0  0  0  0
   62.6747   31.8186   47.4639 H   0  0  0  0  0  0  0  0  0  0  0  0
   61.2850   28.6260   49.1360 H   0  0  0  0  0  0  0  0  0  0  0  0
   60.5913   26.4267   48.6710 H   0  0  0  0  0  0  0  0  0  0  0  0
   59.0438   24.8941   47.4749 H   0  0  0  0  0  0  0  0  0  0  0  0
   57.3099   25.8039   45.9479 H   0  0  0  0  0  0  0  0  0  0  0  0
   58.0570   29.3491   43.9758 H   0  0  0  0  0  0  0  0  0  0  0  0
   57.0456   27.9669   43.3948 H   0  0  0  0  0  0  0  0  0  0  0  0
  1  2  2  0
  2  3  1  0
  3  4  1  0
  4  5  1  0
  5  6  1  0
  6  7  1  0
  7  8  1  0
  8  9  1  0
  3 10  2  0
 10 11  1  0
 11 12  2  0
 12 13  1  0
 13 14  2  0
 14 15  1  0
 15 16  2  0
 10 17  1  0
 17 18  1  0
 18 19  2  0
 19 20  1  0
 20 21  2  0
 21 22  1  0
 22 23  1  0
 23 24  1  0
 24 25  1  0
 25 26  1  0
 25 27  1  0
 25 28  1  0
 22 29  2  0
 29  2  1  0
  9  4  1  0
 16 11  1  0
 29 18  1  0
  4 30  1  0
  5 31  1  0
  5 32  1  0
  6 33  1  0
  6 34  1  0
  7 35  1  0
  7 36  1  0
  8 37  1  0
  8 38  1  0
  9 39  1  0
  9 40  1  0
 12 41  1  0
 13 42  1  0
 14 43  1  0
 15 44  1  0
 16 45  1  0
 17 46  1  0
 19 47  1  0
 20 48  1  0
 21 49  1  0
 24 50  1  0
 24 51  1  0
M  END
>  <UniqueID>  (30) 
29

>  <SMILES>  (30) 
O=c1c(C2CCCCC2)c(-c2ccccc2)[nH]c2cccc(OCC(F)(F)F)c12

>  <Energy>  (30) 
78.27428172570659

>  <Genealogy>  (30) 
O=c1c(C2CCCCC2)c(-c2ccccc2)[nH]c2cccc(OCC(F)(F)F)c12 (3D coordinates assigned)
O=c1c(C2CCCCC2)c(-c2ccccc2)[nH]c2cccc(OCC(F)(F)F)c12 (nonaromatic ring conformer: 78.27428172570659 kcal/mol)

>  <smiles>  (30) 
O=c1c(C2CCCCC2)c(-c2ccccc2)[nH]c2cccc(OCC(F)(F)F)c12

>  <score_type>  (30) 
oracle

>  <origin>  (30) 
adg

>  <m_score__min__energy>  (30) 
-7.9800000000000004

>  <m_primary>  (30) 
energy

$$$$
30:0
     RDKit          3D

 53 57  0  0  0  0  0  0  0  0999 V2000
   59.3050   27.2280   45.2990 C   0  0  0  0  0  0  0  0  0  0  0  0
   59.1020   28.6660   45.5080 N   0  0  0  0  0  0  0  0  0  0  0  0
   58.3070   29.4040   44.5600 C   0  0  0  0  0  0  0  0  0  0  0  0
   58.4540   30.7970   44.4410 C   0  0  0  0  0  0  0  0  0  0  0  0
   57.6960   31.5090   43.5090 C   0  0  0  0  0  0  0  0  0  0  0  0
   56.7860   30.8370   42.6880 C   0  0  0  0  0  0  0  0  0  0  0  0
   56.6350   29.4520   42.7970 C   0  0  0  0  0  0  0  0  0  0  0  0
   57.3890   28.7360   43.7310 C   0  0  0  0  0  0  0  0  0  0  0  0
   59.5130   29.2940   46.7450 C   0  0  0  0  0  0  0  0  0  0  0  0
   58.6610   29.3170   47.8660 C   0  0  0  0  0  0  0  0  0  0  0  0
   59.0620   29.9430   49.0500 C   0  0  0  0  0  0  0  0  0  0  0  0
   60.3170   30.5630   49.1340 C   0  0  0  0  0  0  0  0  0  0  0  0
   60.7440   31.2390   50.3760 C   0  0  0  0  0  0  0  0  0  0  0  0
   60.4610   30.7090   51.4860 O   0  0  0  0  0  0  0  0  0  0  0  0
   61.4940   32.4730   50.3470 N   0  0  0  0  0  0  0  0  0  0  0  0
   60.8180   33.7420   50.0910 C   0  0  0  0  0  0  0  0  0  0  0  0
   60.5580   33.8330   48.6260 C   0  0  0  0  0  0  0  0  0  0  0  0
   59.2420   33.8430   48.1380 C   0  0  0  0  0  0  0  0  0  0  0  0
   59.0070   33.8950   46.7640 C   0  0  0  0  0  0  0  0  0  0  0  0
   60.0910   33.9340   45.8900 C   0  0  0  0  0  0  0  0  0  0  0  0
   61.3590   33.9100   46.3790 N   0  0  0  0  0  0  0  0  0  0  0  0
   61.6270   33.8350   47.7140 C   0  0  0  0  0  0  0  0  0  0  0  0
   63.0040   33.8700   48.1400 N   0  0  0  0  0  0  0  0  0  0  0  0
   63.6350   33.1310   49.2170 C   0  0  0  0  0  0  0  0  0  0  0  0
   65.0430   33.0860   49.2330 C   0  0  0  0  0  0  0  0  0  0  0  0
   65.7350   32.3550   50.2010 C   0  0  0  0  0  0  0  0  0  0  0  0
   65.0350   31.6560   51.1800 C   0  0  0  0  0  0  0  0  0  0  0  0
   63.6420   31.6930   51.1980 C   0  0  0  0  0  0  0  0  0  0  0  0
   62.9260   32.4250   50.2340 C   0  0  0  0  0  0  0  0  0  0  0  0
   61.1780   30.5230   48.0260 C   0  0  0  0  0  0  0  0  0  0  0  0
   60.7770   29.9030   46.8420 C   0  0  0  0  0  0  0  0  0  0  0  0
   59.3764   26.7224   46.2733 H   0  0  0  0  0  0  0  0  0  0  0  0
   58.4561   26.8162   44.7335 H   0  0  0  0  0  0  0  0  0  0  0  0
   60.2347   27.0673   44.7335 H   0  0  0  0  0  0  0  0  0  0  0  0
   59.1697   31.3288   45.0852 H   0  0  0  0  0  0  0  0  0  0  0  0
   57.8151   32.5990   43.4209 H   0  0  0  0  0  0  0  0  0  0  0  0
   56.1881   31.3989   41.9554 H   0  0  0  0  0  0  0  0  0  0  0  0
   55.9216   28.9245   42.1467 H   0  0  0  0  0  0  0  0  0  0  0  0
   57.2637   27.6466   43.8176 H   0  0  0  0  0  0  0  0  0  0  0  0
   57.6721   28.8386   47.8096 H   0  0  0  0  0  0  0  0  0  0  0  0
   58.3894   29.9492   49.9204 H   0  0  0  0  0  0  0  0  0  0  0  0
   59.8670   33.7772   50.6426 H   0  0  0  0  0  0  0  0  0  0  0  0
   61.4432   34.5839   50.4231 H   0  0  0  0  0  0  0  0  0  0  0  0
   58.3954   33.8098   48.8395 H   0  0  0  0  0  0  0  0  0  0  0  0
   57.9780   33.9051   46.3753 H   0  0  0  0  0  0  0  0  0  0  0  0
   59.9209   33.9842   44.8044 H   0  0  0  0  0  0  0  0  0  0  0  0
   63.6480   34.3480   47.4670 H   0  0  0  0  0  0  0  0  0  0  0  0
   65.6086   33.6377   48.4677 H   0  0  0  0  0  0  0  0  0  0  0  0
   66.8347   32.3316   50.1897 H   0  0  0  0  0  0  0  0  0  0  0  0
   65.5805   31.0752   51.9384 H   0  0  0  0  0  0  0  0  0  0  0  0
   63.0949   31.1420   51.9771 H   0  0  0  0  0  0  0  0  0  0  0  0
   62.1749   30.9832   48.0915 H   0  0  0  0  0  0  0  0  0  0  0  0
   61.4558   29.8904   45.9765 H   0  0  0  0  0  0  0  0  0  0  0  0
  1  2  1  0
  2  3  1  0
  3  4  2  0
  4  5  1  0
  5  6  2  0
  6  7  1  0
  7  8  2  0
  2  9  1  0
  9 10  2  0
 10 11  1  0
 11 12  2  0
 12 13  1  0
 13 14  2  0
 13 15  1  0
 15 16  1  0
 16 17  1  0
 17 18  2  0
 18 19  1  0
 19 20  2  0
 20 21  1  0
 21 22  2  0
 22 23  1  0
 23 24  1  0
 24 25  2  0
 25 26  1  0
 26 27  2  0
 27 28  1  0
 28 29  2  0
 12 30  1  0
 30 31  2  0
  8  3  1  0
 31  9  1  0
 29 15  1  0
 22 17  1  0
 29 24  1  0
  1 32  1  0
  1 33  1  0
  1 34  1  0
  4 35  1  0
  5 36  1  0
  6 37  1  0
  7 38  1  0
  8 39  1  0
 10 40  1  0
 11 41  1  0
 16 42  1  0
 16 43  1  0
 18 44  1  0
 19 45  1  0
 20 46  1  0
 23 47  1  0
 25 48  1  0
 26 49  1  0
 27 50  1  0
 28 51  1  0
 30 52  1  0
 31 53  1  0
M  END
>  <UniqueID>  (31) 
30

>  <SMILES>  (31) 
CN(c1ccccc1)c1ccc(C(=O)N2Cc3cccnc3Nc3ccccc32)cc1

>  <Energy>  (31) 
89.6333629458845

>  <Genealogy>  (31) 
CN(c1ccccc1)c1ccc(C(=O)N2Cc3cccnc3Nc3ccccc32)cc1 (3D coordinates assigned)
CN(c1ccccc1)c1ccc(C(=O)N2Cc3cccnc3Nc3ccccc32)cc1 (nonaromatic ring conformer: 89.6333629458845 kcal/mol)

>  <smiles>  (31) 
CN(c1ccccc1)c1ccc(C(=O)N2Cc3cccnc3Nc3ccccc32)cc1

>  <score_type>  (31) 
oracle

>  <origin>  (31) 
adg

>  <m_score__min__energy>  (31) 
-8.5700000000000003

>  <m_primary>  (31) 
energy

$$$$
31:0
     RDKit          3D

 65 67  0  0  0  0  0  0  0  0999 V2000
   59.7040   27.0610   47.1850 C   0  0  0  0  0  0  0  0  0  0  0  0
   58.9330   27.6160   46.0150 C   0  0  0  0  0  0  0  0  0  0  0  0
   58.8280   26.8400   44.8480 C   0  0  0  0  0  0  0  0  0  0  0  0
   58.1490   27.3280   43.7330 C   0  0  0  0  0  0  0  0  0  0  0  0
   57.5430   28.5810   43.7760 C   0  0  0  0  0  0  0  0  0  0  0  0
   57.6030   29.3630   44.9340 C   0  0  0  0  0  0  0  0  0  0  0  0
   56.9180   30.5860   44.9340 O   0  0  0  0  0  0  0  0  0  0  0  0
   57.1080   31.5990   43.9440 C   0  0  0  0  0  0  0  0  0  0  0  0
   58.2140   32.5770   44.3550 C   0  0  0  0  0  0  0  0  0  0  0  0
   57.6500   33.9130   44.8740 C   0  0  0  0  0  0  0  0  0  0  0  0
   58.1880   34.2880   46.2680 C   0  0  0  0  0  0  0  0  0  0  0  0
   58.6040   33.0790   47.1290 C   0  0  0  0  0  0  0  0  0  0  0  0
   59.9920   33.2500   47.7710 C   0  0  0  0  0  0  0  0  0  0  0  0
   61.0740   32.8620   46.8350 N   0  0  0  0  0  0  0  0  0  0  0  0
   61.5550   31.4770   47.0470 C   0  0  0  0  0  0  0  0  0  0  0  0
   62.5050   31.3660   48.2540 C   0  0  0  0  0  0  0  0  0  0  0  0
   63.5790   32.4030   48.2730 N   0  0  0  0  0  0  0  0  0  0  0  0
   63.5460   33.2200   49.5140 C   0  0  0  0  0  0  0  0  0  0  0  0
   64.8870   33.2410   50.2150 C   0  0  0  0  0  0  0  0  0  0  0  0
   65.1400   34.1840   51.2260 C   0  0  0  0  0  0  0  0  0  0  0  0
   66.3860   34.2210   51.8600 C   0  0  0  0  0  0  0  0  0  0  0  0
   67.3850   33.3120   51.4990 C   0  0  0  0  0  0  0  0  0  0  0  0
   67.1380   32.3620   50.5050 C   0  0  0  0  0  0  0  0  0  0  0  0
   65.8950   32.3250   49.8620 C   0  0  0  0  0  0  0  0  0  0  0  0
   63.5670   33.2660   47.0690 C   0  0  0  0  0  0  0  0  0  0  0  0
   62.1720   33.8640   46.8020 C   0  0  0  0  0  0  0  0  0  0  0  0
   58.3650   28.9170   46.0450 C   0  0  0  0  0  0  0  0  0  0  0  0
   58.5930   29.8240   47.2300 C   0  0  0  0  0  0  0  0  0  0  0  0
   59.2381   27.3963   48.1234 H   0  0  0  0  0  0  0  0  0  0  0  0
   59.6936   25.9619   47.1428 H   0  0  0  0  0  0  0  0  0  0  0  0
   60.7430   27.4197   47.1428 H   0  0  0  0  0  0  0  0  0  0  0  0
   59.2851   25.8400   44.8144 H   0  0  0  0  0  0  0  0  0  0  0  0
   58.0917   26.7219   42.8168 H   0  0  0  0  0  0  0  0  0  0  0  0
   57.0118   28.9596   42.8903 H   0  0  0  0  0  0  0  0  0  0  0  0
   57.3861   31.1226   42.9923 H   0  0  0  0  0  0  0  0  0  0  0  0
   56.1686   32.1613   43.8371 H   0  0  0  0  0  0  0  0  0  0  0  0
   58.8172   32.1149   45.1504 H   0  0  0  0  0  0  0  0  0  0  0  0
   58.8214   32.7919   43.4635 H   0  0  0  0  0  0  0  0  0  0  0  0
   57.9243   34.7088   44.1659 H   0  0  0  0  0  0  0  0  0  0  0  0
   56.5591   33.8005   44.9598 H   0  0  0  0  0  0  0  0  0  0  0  0
   59.0666   34.9366   46.1360 H   0  0  0  0  0  0  0  0  0  0  0  0
   57.3661   34.7886   46.8007 H   0  0  0  0  0  0  0  0  0  0  0  0
   57.8612   32.9459   47.9293 H   0  0  0  0  0  0  0  0  0  0  0  0
   58.6529   32.2028   46.4658 H   0  0  0  0  0  0  0  0  0  0  0  0
   60.1267   34.3038   48.0562 H   0  0  0  0  0  0  0  0  0  0  0  0
   60.0475   32.5958   48.6536 H   0  0  0  0  0  0  0  0  0  0  0  0
   60.6870   30.8236   47.2189 H   0  0  0  0  0  0  0  0  0  0  0  0
   62.1146   31.1743   46.1497 H   0  0  0  0  0  0  0  0  0  0  0  0
   61.9101   31.4659   49.1739 H   0  0  0  0  0  0  0  0  0  0  0  0
   63.0045   30.3888   48.1797 H   0  0  0  0  0  0  0  0  0  0  0  0
   64.5010   31.9030   48.2510 H   0  0  0  0  0  0  0  0  0  0  0  0
   63.2656   34.2511   49.2529 H   0  0  0  0  0  0  0  0  0  0  0  0
   62.8121   32.7690   50.1981 H   0  0  0  0  0  0  0  0  0  0  0  0
   64.3546   34.8959   51.5198 H   0  0  0  0  0  0  0  0  0  0  0  0
   66.5805   34.9671   52.6446 H   0  0  0  0  0  0  0  0  0  0  0  0
   68.3651   33.3448   51.9974 H   0  0  0  0  0  0  0  0  0  0  0  0
   67.9216   31.6418   50.2271 H   0  0  0  0  0  0  0  0  0  0  0  0
   65.7057   31.5771   49.0779 H   0  0  0  0  0  0  0  0  0  0  0  0
   64.2840   34.0876   47.2137 H   0  0  0  0  0  0  0  0  0  0  0  0
   63.8425   32.6458   46.2033 H   0  0  0  0  0  0  0  0  0  0  0  0
   61.9689   34.6266   47.5683 H   0  0  0  0  0  0  0  0  0  0  0  0
   62.1924   34.2841   45.7856 H   0  0  0  0  0  0  0  0  0  0  0  0
   58.4499   29.2548   48.1603 H   0  0  0  0  0  0  0  0  0  0  0  0
   59.6187   30.2201   47.1966 H   0  0  0  0  0  0  0  0  0  0  0  0
   57.8766   30.6580   47.1966 H   0  0  0  0  0  0  0  0  0  0  0  0
  1  2  1  0
  2  3  2  0
  3  4  1  0
  4  5  2  0
  5  6  1  0
  6  7  1  0
  7  8  1  0
  8  9  1  0
  9 10  1  0
 10 11  1  0
 11 12  1  0
 12 13  1  0
 13 14  1  0
 14 15  1  0
 15 16  1  0
 16 17  1  0
 17 18  1  0
 18 19  1  0
 19 20  2  0
 20 21  1  0
 21 22  2  0
 22 23  1  0
 23 24  2  0
 17 25  1  0
 25 26  1  0
  6 27  2  0
 27 28  1  0
 27  2  1  0
 26 14  1  0
 24 19  1  0
  1 29  1  0
  1 30  1  0
  1 31  1  0
  3 32  1  0
  4 33  1  0
  5 34  1  0
  8 35  1  0
  8 36  1  0
  9 37  1  0
  9 38  1  0
 10 39  1  0
 10 40  1  0
 11 41  1  0
 11 42  1  0
 12 43  1  0
 12 44  1  0
 13 45  1  0
 13 46  1  0
 15 47  1  0
 15 48  1  0
 16 49  1  0
 16 50  1  0
 17 51  1  0
 18 52  1  0
 18 53  1  0
 20 54  1  0
 21 55  1  0
 22 56  1  0
 23 57  1  0
 24 58  1  0
 25 59  1  0
 25 60  1  0
 26 61  1  0
 26 62  1  0
 28 63  1  0
 28 64  1  0
 28 65  1  0
M  CHG  1  17   1
M  END
>  <UniqueID>  (32) 
31

>  <SMILES>  (32) 
Cc1cccc(OCCCCCCN2CC[NH+](Cc3ccccc3)CC2)c1C

>  <Energy>  (32) 
82.38863657753674

>  <Genealogy>  (32) 
Cc1cccc(OCCCCCCN2CC[NH+](Cc3ccccc3)CC2)c1C (protonated)
Cc1cccc(OCCCCCCN2CC[NH+](Cc3ccccc3)CC2)c1C (3D coordinates assigned)
Cc1cccc(OCCCCCCN2CC[NH+](Cc3ccccc3)CC2)c1C (nonaromatic ring conformer: 82.38863657753674 kcal/mol)

>  <smiles>  (32) 
Cc1cccc(OCCCCCCN2CCN(Cc3ccccc3)CC2)c1C

>  <score_type>  (32) 
oracle

>  <origin>  (32) 
adg

>  <m_score__min__energy>  (32) 
-7.5800000000000001

>  <m_primary>  (32) 
energy

$$$$
32:0
     RDKit          3D

 56 59  0  0  0  0  0  0  0  0999 V2000
   58.0780   32.1590   42.0110 C   0  0  0  0  0  0  0  0  0  0  0  0
   57.3910   32.3930   43.2360 O   0  0  0  0  0  0  0  0  0  0  0  0
   57.8080   31.9740   44.5120 C   0  0  0  0  0  0  0  0  0  0  0  0
   58.2440   32.9510   45.4010 C   0  0  0  0  0  0  0  0  0  0  0  0
   58.6710   32.6610   46.6710 C   0  0  0  0  0  0  0  0  0  0  0  0
   58.6520   31.3260   47.1470 C   0  0  0  0  0  0  0  0  0  0  0  0
   58.8470   30.9980   48.5010 C   0  0  0  0  0  0  0  0  0  0  0  0
   58.8770   29.6700   48.9140 C   0  0  0  0  0  0  0  0  0  0  0  0
   58.7660   28.6450   47.9850 C   0  0  0  0  0  0  0  0  0  0  0  0
   58.5650   28.9240   46.6240 C   0  0  0  0  0  0  0  0  0  0  0  0
   58.6560   27.7650   45.6400 C   0  0  0  0  0  0  0  0  0  0  0  0
   60.0610   27.4640   45.2830 N   0  0  0  0  0  0  0  0  0  0  0  0
   60.7260   26.7130   46.3620 C   0  0  0  0  0  0  0  0  0  0  0  0
   60.7970   28.7120   45.0260 C   0  0  0  0  0  0  0  0  0  0  0  0
   58.3480   30.2780   46.2200 C   0  0  0  0  0  0  0  0  0  0  0  0
   57.8040   30.6260   44.9450 C   0  0  0  0  0  0  0  0  0  0  0  0
   57.1600   29.6660   44.1630 O   0  0  0  0  0  0  0  0  0  0  0  0
   55.8790   29.9200   43.5940 C   0  0  0  0  0  0  0  0  0  0  0  0
   59.1550   33.8510   47.3120 N   0  0  0  0  0  0  0  0  0  0  0  0
   59.9740   33.9270   48.5340 C   0  0  0  0  0  0  0  0  0  0  0  0
   61.4270   33.6080   48.2830 C   0  0  0  0  0  0  0  0  0  0  0  0
   62.2930   33.3510   49.3590 C   0  0  0  0  0  0  0  0  0  0  0  0
   63.6480   33.0910   49.1250 C   0  0  0  0  0  0  0  0  0  0  0  0
   64.1460   33.0940   47.8190 C   0  0  0  0  0  0  0  0  0  0  0  0
   63.2930   33.3620   46.7450 C   0  0  0  0  0  0  0  0  0  0  0  0
   61.9390   33.6220   46.9750 C   0  0  0  0  0  0  0  0  0  0  0  0
   58.9220   34.9900   46.4120 C   0  0  0  0  0  0  0  0  0  0  0  0
   58.3080   34.4110   45.1280 C   0  0  0  0  0  0  0  0  0  0  0  0
   59.0995   31.8111   42.2242 H   0  0  0  0  0  0  0  0  0  0  0  0
   57.5430   31.3924   41.4312 H   0  0  0  0  0  0  0  0  0  0  0  0
   58.1222   33.0928   41.4312 H   0  0  0  0  0  0  0  0  0  0  0  0
   58.9772   31.8008   49.2416 H   0  0  0  0  0  0  0  0  0  0  0  0
   58.9892   29.4312   49.9819 H   0  0  0  0  0  0  0  0  0  0  0  0
   58.8365   27.5995   48.3197 H   0  0  0  0  0  0  0  0  0  0  0  0
   58.2044   26.8721   46.0969 H   0  0  0  0  0  0  0  0  0  0  0  0
   58.1205   28.0492   44.7222 H   0  0  0  0  0  0  0  0  0  0  0  0
   60.3880   27.0948   47.3367 H   0  0  0  0  0  0  0  0  0  0  0  0
   60.4709   25.6463   46.2775 H   0  0  0  0  0  0  0  0  0  0  0  0
   61.8157   26.8372   46.2775 H   0  0  0  0  0  0  0  0  0  0  0  0
   61.0724   29.1790   45.9831 H   0  0  0  0  0  0  0  0  0  0  0  0
   61.7080   28.4887   44.4514 H   0  0  0  0  0  0  0  0  0  0  0  0
   60.1608   29.4012   44.4514 H   0  0  0  0  0  0  0  0  0  0  0  0
   55.1429   30.0659   44.3983 H   0  0  0  0  0  0  0  0  0  0  0  0
   55.9271   30.8261   42.9722 H   0  0  0  0  0  0  0  0  0  0  0  0
   55.5778   29.0641   42.9722 H   0  0  0  0  0  0  0  0  0  0  0  0
   59.9030   34.9460   48.9422 H   0  0  0  0  0  0  0  0  0  0  0  0
   59.5869   33.1775   49.2400 H   0  0  0  0  0  0  0  0  0  0  0  0
   61.9049   33.3542   50.3883 H   0  0  0  0  0  0  0  0  0  0  0  0
   64.3217   32.8841   49.9696 H   0  0  0  0  0  0  0  0  0  0  0  0
   65.2105   32.8852   47.6364 H   0  0  0  0  0  0  0  0  0  0  0  0
   63.6873   33.3683   45.7181 H   0  0  0  0  0  0  0  0  0  0  0  0
   61.2714   33.8385   46.1280 H   0  0  0  0  0  0  0  0  0  0  0  0
   58.2277   35.7057   46.8763 H   0  0  0  0  0  0  0  0  0  0  0  0
   59.8579   35.5273   46.1989 H   0  0  0  0  0  0  0  0  0  0  0  0
   57.3031   34.8225   44.9526 H   0  0  0  0  0  0  0  0  0  0  0  0
   58.8914   34.6531   44.2274 H   0  0  0  0  0  0  0  0  0  0  0  0
  1  2  1  0
  2  3  1  0
  3  4  2  0
  4  5  1  0
  5  6  2  0
  6  7  1  0
  7  8  2  0
  8  9  1  0
  9 10  2  0
 10 11  1  0
 11 12  1  0
 12 13  1  0
 12 14  1  0
 10 15  1  0
 15 16  2  0
 16 17  1  0
 17 18  1  0
  5 19  1  0
 19 20  1  0
 20 21  1  0
 21 22  2  0
 22 23  1  0
 23 24  2  0
 24 25  1  0
 25 26  2  0
 19 27  1  0
 27 28  1  0
 16  3  1  0
 26 21  1  0
 28  4  1  0
 15  6  1  0
  1 29  1  0
  1 30  1  0
  1 31  1  0
  7 32  1  0
  8 33  1  0
  9 34  1  0
 11 35  1  0
 11 36  1  0
 13 37  1  0
 13 38  1  0
 13 39  1  0
 14 40  1  0
 14 41  1  0
 14 42  1  0
 18 43  1  0
 18 44  1  0
 18 45  1  0
 20 46  1  0
 20 47  1  0
 22 48  1  0
 23 49  1  0
 24 50  1  0
 25 51  1  0
 26 52  1  0
 27 53  1  0
 27 54  1  0
 28 55  1  0
 28 56  1  0
M  END
>  <UniqueID>  (33) 
32

>  <SMILES>  (33) 
COc1c2c(c3cccc(CN(C)C)c3c1OC)N(Cc1ccccc1)CC2

>  <Energy>  (33) 
102.43858239220936

>  <Genealogy>  (33) 
COc1c2c(c3cccc(CN(C)C)c3c1OC)N(Cc1ccccc1)CC2 (3D coordinates assigned)
COc1c2c(c3cccc(CN(C)C)c3c1OC)N(Cc1ccccc1)CC2 (nonaromatic ring conformer: 102.43858239220936 kcal/mol)

>  <smiles>  (33) 
COc1c2c(c3cccc(CN(C)C)c3c1OC)N(Cc1ccccc1)CC2

>  <score_type>  (33) 
oracle

>  <origin>  (33) 
adg

>  <m_score__min__energy>  (33) 
-8.0500000000000007

>  <m_primary>  (33) 
energy

$$$$
33:0
     RDKit          3D

 47 49  0  0  0  0  0  0  0  0999 V2000
   58.1860   24.5070   45.9990 C   0  0  0  0  0  0  0  0  0  0  0  0
   56.9140   24.9900   46.6910 C   0  0  0  0  0  0  0  0  0  0  0  0
   56.3690   26.2310   46.0380 C   0  0  0  0  0  0  0  0  0  0  0  0
   55.1200   26.3910   45.9770 O   0  0  0  0  0  0  0  0  0  0  0  0
   57.2140   27.1770   45.3690 N   0  0  0  0  0  0  0  0  0  0  0  0
   58.1010   28.1220   45.9840 C   0  0  0  0  0  0  0  0  0  0  0  0
   58.8710   28.9590   45.1680 C   0  0  0  0  0  0  0  0  0  0  0  0
   59.7250   29.9110   45.7360 C   0  0  0  0  0  0  0  0  0  0  0  0
   59.7970   30.0490   47.1280 C   0  0  0  0  0  0  0  0  0  0  0  0
   60.8930   31.2360   47.8300 S   0  0  0  0  0  0  0  0  0  0  0  0
   61.7980   30.5370   48.8050 O   0  0  0  0  0  0  0  0  0  0  0  0
   61.7330   31.8530   46.7460 O   0  0  0  0  0  0  0  0  0  0  0  0
   59.9540   32.4670   48.6490 N   0  0  0  0  0  0  0  0  0  0  0  0
   58.4970   32.2820   48.4320 C   0  0  0  0  0  0  0  0  0  0  0  0
   57.8710   33.3180   47.4820 C   0  0  0  0  0  0  0  0  0  0  0  0
   58.8400   33.7050   46.4550 N   0  0  0  0  0  0  0  0  0  0  0  0
   58.5200   33.6480   45.0550 C   0  0  0  0  0  0  0  0  0  0  0  0
   58.8830   34.5870   44.2960 O   0  0  0  0  0  0  0  0  0  0  0  0
   57.8270   32.4810   44.4810 C   0  0  0  0  0  0  0  0  0  0  0  0
   58.0240   31.9640   43.2150 C   0  0  0  0  0  0  0  0  0  0  0  0
   57.1860   30.8750   43.1250 C   0  0  0  0  0  0  0  0  0  0  0  0
   56.5320   30.7900   44.3380 C   0  0  0  0  0  0  0  0  0  0  0  0
   56.9370   31.7610   45.1240 O   0  0  0  0  0  0  0  0  0  0  0  0
   60.1390   34.2290   46.8800 C   0  0  0  0  0  0  0  0  0  0  0  0
   60.4390   33.8280   48.3350 C   0  0  0  0  0  0  0  0  0  0  0  0
   59.0070   29.2310   47.9470 C   0  0  0  0  0  0  0  0  0  0  0  0
   58.1560   28.2800   47.3790 C   0  0  0  0  0  0  0  0  0  0  0  0
   58.9311   24.2241   46.7572 H   0  0  0  0  0  0  0  0  0  0  0  0
   57.9529   23.6348   45.3706 H   0  0  0  0  0  0  0  0  0  0  0  0
   58.5906   25.3141   45.3706 H   0  0  0  0  0  0  0  0  0  0  0  0
   56.1549   24.1957   46.6387 H   0  0  0  0  0  0  0  0  0  0  0  0
   57.1590   25.2290   47.7364 H   0  0  0  0  0  0  0  0  0  0  0  0
   58.8044   28.8679   44.0738 H   0  0  0  0  0  0  0  0  0  0  0  0
   60.3409   30.5521   45.0881 H   0  0  0  0  0  0  0  0  0  0  0  0
   58.3346   31.2803   48.0074 H   0  0  0  0  0  0  0  0  0  0  0  0
   58.0100   32.4106   49.4099 H   0  0  0  0  0  0  0  0  0  0  0  0
   56.9841   32.8811   46.9999 H   0  0  0  0  0  0  0  0  0  0  0  0
   57.5812   34.2085   48.0590 H   0  0  0  0  0  0  0  0  0  0  0  0
   58.7074   32.3430   42.4408 H   0  0  0  0  0  0  0  0  0  0  0  0
   57.0624   30.2067   42.2600 H   0  0  0  0  0  0  0  0  0  0  0  0
   55.7865   30.0265   44.6049 H   0  0  0  0  0  0  0  0  0  0  0  0
   60.9238   33.8231   46.2247 H   0  0  0  0  0  0  0  0  0  0  0  0
   60.1157   35.3268   46.8139 H   0  0  0  0  0  0  0  0  0  0  0  0
   61.5267   33.8625   48.4952 H   0  0  0  0  0  0  0  0  0  0  0  0
   59.9153   34.5346   48.9956 H   0  0  0  0  0  0  0  0  0  0  0  0
   59.0572   29.3382   49.0406 H   0  0  0  0  0  0  0  0  0  0  0  0
   57.5263   27.6522   48.0266 H   0  0  0  0  0  0  0  0  0  0  0  0
  1  2  1  0
  2  3  1  0
  3  4  2  0
  3  5  1  0
  5  6  1  0
  6  7  2  0
  7  8  1  0
  8  9  2  0
  9 10  1  0
 10 11  2  0
 10 12  2  0
 10 13  1  0
 13 14  1  0
 14 15  1  0
 15 16  1  0
 16 17  1  0
 17 18  2  0
 17 19  1  0
 19 20  2  0
 20 21  1  0
 21 22  2  0
 22 23  1  0
 16 24  1  0
 24 25  1  0
  9 26  1  0
 26 27  2  0
 27  6  1  0
 25 13  1  0
 23 19  1  0
  1 28  1  0
  1 29  1  0
  1 30  1  0
  2 31  1  0
  2 32  1  0
  7 33  1  0
  8 34  1  0
 14 35  1  0
 14 36  1  0
 15 37  1  0
 15 38  1  0
 20 39  1  0
 21 40  1  0
 22 41  1  0
 24 42  1  0
 24 43  1  0
 25 44  1  0
 25 45  1  0
 26 46  1  0
 27 47  1  0
M  CHG  1   5  -1
M  END
>  <UniqueID>  (34) 
33

>  <SMILES>  (34) 
CCC(=O)[N-]c1ccc(S(=O)(=O)N2CCN(C(=O)c3ccco3)CC2)cc1

>  <Energy>  (34) 
84.1126681271066

>  <Genealogy>  (34) 
CCC(=O)[N-]c1ccc(S(=O)(=O)N2CCN(C(=O)c3ccco3)CC2)cc1 (protonated)
CCC(=O)[N-]c1ccc(S(=O)(=O)N2CCN(C(=O)c3ccco3)CC2)cc1 (3D coordinates assigned)
CCC(=O)[N-]c1ccc(S(=O)(=O)N2CCN(C(=O)c3ccco3)CC2)cc1 (nonaromatic ring conformer: 84.1126681271066 kcal/mol)

>  <smiles>  (34) 
CCC(=O)Nc1ccc(S(=O)(=O)N2CCN(C(=O)c3ccco3)CC2)cc1

>  <score_type>  (34) 
oracle

>  <origin>  (34) 
adg

>  <m_score__min__energy>  (34) 
-9.5299999999999994

>  <m_primary>  (34) 
energy

$$$$
34:0
     RDKit          3D

 68 71  0  0  0  0  0  0  0  0999 V2000
   54.3340   30.0800   51.8390 C   0  0  0  0  0  0  0  0  0  0  0  0
   55.3530   31.1910   52.0820 C   0  0  0  0  0  0  0  0  0  0  0  0
   56.6500   30.6280   52.5050 N   0  0  0  0  0  0  0  0  0  0  0  0
   56.7420   29.9160   53.7970 C   0  0  0  0  0  0  0  0  0  0  0  0
   56.4790   28.4210   53.6200 C   0  0  0  0  0  0  0  0  0  0  0  0
   57.8220   30.7760   51.6650 C   0  0  0  0  0  0  0  0  0  0  0  0
   58.1030   32.0000   51.0290 C   0  0  0  0  0  0  0  0  0  0  0  0
   59.2430   32.1460   50.2350 C   0  0  0  0  0  0  0  0  0  0  0  0
   60.1200   31.0690   50.0440 C   0  0  0  0  0  0  0  0  0  0  0  0
   61.3170   31.2330   49.2590 N   0  0  0  0  0  0  0  0  0  0  0  0
   62.6020   31.5470   49.8830 C   0  0  0  0  0  0  0  0  0  0  0  0
   63.1390   32.8940   49.3580 C   0  0  0  0  0  0  0  0  0  0  0  0
   62.6150   33.2660   48.0170 N   0  0  0  0  0  0  0  0  0  0  0  0
   61.4530   34.1890   48.0790 C   0  0  0  0  0  0  0  0  0  0  0  0
   60.6150   34.1040   46.7860 C   0  0  0  0  0  0  0  0  0  0  0  0
   59.2080   34.5110   46.9660 N   0  0  0  0  0  0  0  0  0  0  0  0
   58.2800   33.5240   46.4490 C   0  0  0  0  0  0  0  0  0  0  0  0
   58.2680   32.2850   46.9800 C   0  0  0  0  0  0  0  0  0  0  0  0
   58.1680   30.9850   46.2540 C   0  0  0  0  0  0  0  0  0  0  0  0
   58.5460   29.8480   46.9950 C   0  0  0  0  0  0  0  0  0  0  0  0
   58.4920   28.5690   46.4380 C   0  0  0  0  0  0  0  0  0  0  0  0
   59.0080   27.0510   47.4780 Br  0  0  0  0  0  0  0  0  0  0  0  0
   58.0600   28.4000   45.1260 C   0  0  0  0  0  0  0  0  0  0  0  0
   57.7000   29.5110   44.3640 C   0  0  0  0  0  0  0  0  0  0  0  0
   57.7600   30.8050   44.8960 C   0  0  0  0  0  0  0  0  0  0  0  0
   57.4090   31.8380   44.0160 O   0  0  0  0  0  0  0  0  0  0  0  0
   57.8960   33.1690   44.0370 C   0  0  0  0  0  0  0  0  0  0  0  0
   57.4050   33.8820   45.2810 C   0  0  0  0  0  0  0  0  0  0  0  0
   62.3470   32.0770   47.1790 C   0  0  0  0  0  0  0  0  0  0  0  0
   61.2480   31.1890   47.7940 C   0  0  0  0  0  0  0  0  0  0  0  0
   59.8390   29.8430   50.6640 C   0  0  0  0  0  0  0  0  0  0  0  0
   58.7090   29.6990   51.4710 C   0  0  0  0  0  0  0  0  0  0  0  0
   53.9778   29.6916   52.8045 H   0  0  0  0  0  0  0  0  0  0  0  0
   53.4832   30.4811   51.2687 H   0  0  0  0  0  0  0  0  0  0  0  0
   54.8070   29.2669   51.2687 H   0  0  0  0  0  0  0  0  0  0  0  0
   55.4934   31.7615   51.1521 H   0  0  0  0  0  0  0  0  0  0  0  0
   54.9760   31.8474   52.8801 H   0  0  0  0  0  0  0  0  0  0  0  0
   57.7501   30.0567   54.2140 H   0  0  0  0  0  0  0  0  0  0  0  0
   55.9818   30.3268   54.4777 H   0  0  0  0  0  0  0  0  0  0  0  0
   56.3951   27.9440   54.6076 H   0  0  0  0  0  0  0  0  0  0  0  0
   55.5417   28.2771   53.0625 H   0  0  0  0  0  0  0  0  0  0  0  0
   57.3109   27.9658   53.0625 H   0  0  0  0  0  0  0  0  0  0  0  0
   57.4176   32.8505   51.1586 H   0  0  0  0  0  0  0  0  0  0  0  0
   59.4542   33.1134   49.7559 H   0  0  0  0  0  0  0  0  0  0  0  0
   62.4700   31.6095   50.9733 H   0  0  0  0  0  0  0  0  0  0  0  0
   63.3228   30.7540   49.6347 H   0  0  0  0  0  0  0  0  0  0  0  0
   62.8568   33.6820   50.0717 H   0  0  0  0  0  0  0  0  0  0  0  0
   64.2293   32.7879   49.2584 H   0  0  0  0  0  0  0  0  0  0  0  0
   60.8210   33.9157   48.9368 H   0  0  0  0  0  0  0  0  0  0  0  0
   61.8260   35.2179   48.1900 H   0  0  0  0  0  0  0  0  0  0  0  0
   61.0729   34.7600   46.0311 H   0  0  0  0  0  0  0  0  0  0  0  0
   60.6083   33.0490   46.4747 H   0  0  0  0  0  0  0  0  0  0  0  0
   59.0300   34.7140   47.9740 H   0  0  0  0  0  0  0  0  0  0  0  0
   59.0550   35.4130   46.4540 H   0  0  0  0  0  0  0  0  0  0  0  0
   58.3403   32.2253   48.0760 H   0  0  0  0  0  0  0  0  0  0  0  0
   58.8904   29.9704   48.0325 H   0  0  0  0  0  0  0  0  0  0  0  0
   58.0026   27.3915   44.6906 H   0  0  0  0  0  0  0  0  0  0  0  0
   57.3629   29.3684   43.3267 H   0  0  0  0  0  0  0  0  0  0  0  0
   58.9959   33.1543   44.0359 H   0  0  0  0  0  0  0  0  0  0  0  0
   57.5287   33.7016   43.1474 H   0  0  0  0  0  0  0  0  0  0  0  0
   57.4405   34.9692   45.1173 H   0  0  0  0  0  0  0  0  0  0  0  0
   56.3706   33.5738   45.4930 H   0  0  0  0  0  0  0  0  0  0  0  0
   62.0223   32.4084   46.1816 H   0  0  0  0  0  0  0  0  0  0  0  0
   63.2721   31.4855   47.1131 H   0  0  0  0  0  0  0  0  0  0  0  0
   60.2627   31.5520   47.4662 H   0  0  0  0  0  0  0  0  0  0  0  0
   61.3981   30.1517   47.4601 H   0  0  0  0  0  0  0  0  0  0  0  0
   60.5144   28.9879   50.5133 H   0  0  0  0  0  0  0  0  0  0  0  0
   58.5092   28.7344   51.9605 H   0  0  0  0  0  0  0  0  0  0  0  0
  1  2  1  0
  2  3  1  0
  3  4  1  0
  4  5  1  0
  3  6  1  0
  6  7  2  0
  7  8  1  0
  8  9  2  0
  9 10  1  0
 10 11  1  0
 11 12  1  0
 12 13  1  0
 13 14  1  0
 14 15  1  0
 15 16  1  0
 16 17  1  0
 17 18  2  0
 18 19  1  0
 19 20  2  0
 20 21  1  0
 21 22  1  0
 21 23  2  0
 23 24  1  0
 24 25  2  0
 25 26  1  0
 26 27  1  0
 27 28  1  0
 13 29  1  0
 29 30  1  0
  9 31  1  0
 31 32  2  0
 32  6  1  0
 30 10  1  0
 28 17  1  0
 25 19  1  0
  1 33  1  0
  1 34  1  0
  1 35  1  0
  2 36  1  0
  2 37  1  0
  4 38  1  0
  4 39  1  0
  5 40  1  0
  5 41  1  0
  5 42  1  0
  7 43  1  0
  8 44  1  0
 11 45  1  0
 11 46  1  0
 12 47  1  0
 12 48  1  0
 14 49  1  0
 14 50  1  0
 15 51  1  0
 15 52  1  0
 16 53  1  0
 16 54  1  0
 18 55  1  0
 20 56  1  0
 23 57  1  0
 24 58  1  0
 27 59  1  0
 27 60  1  0
 28 61  1  0
 28 62  1  0
 29 63  1  0
 29 64  1  0
 30 65  1  0
 30 66  1  0
 31 67  1  0
 32 68  1  0
M  CHG  1  16   1
M  END
>  <UniqueID>  (35) 
34

>  <SMILES>  (35) 
CCN(CC)c1ccc(N2CCN(CC[NH2+]C3=Cc4cc(Br)ccc4OCC3)CC2)cc1

>  <Energy>  (35) 
90.59528931886645

>  <Genealogy>  (35) 
CCN(CC)c1ccc(N2CCN(CC[NH2+]C3=Cc4cc(Br)ccc4OCC3)CC2)cc1 (protonated)
CCN(CC)c1ccc(N2CCN(CC[NH2+]C3=Cc4cc(Br)ccc4OCC3)CC2)cc1 (3D coordinates assigned)
CCN(CC)c1ccc(N2CCN(CC[NH2+]C3=Cc4cc(Br)ccc4OCC3)CC2)cc1 (nonaromatic ring conformer: 90.59528931886645 kcal/mol)

>  <smiles>  (35) 
CCN(CC)c1ccc(N2CCN(CCNC3=Cc4cc(Br)ccc4OCC3)CC2)cc1

>  <score_type>  (35) 
oracle

>  <origin>  (35) 
adg

>  <m_score__min__energy>  (35) 
-5.25

>  <m_primary>  (35) 
energy

$$$$
35:0
     RDKit          3D

 68 71  0  0  0  0  0  0  0  0999 V2000
   56.1770   30.1740   43.2380 C   0  0  0  0  0  0  0  0  0  0  0  0
   56.3000   30.6710   44.5670 O   0  0  0  0  0  0  0  0  0  0  0  0
   57.5210   30.8600   45.2360 C   0  0  0  0  0  0  0  0  0  0  0  0
   57.9370   32.1280   45.6880 C   0  0  0  0  0  0  0  0  0  0  0  0
   59.1640   32.2730   46.3470 C   0  0  0  0  0  0  0  0  0  0  0  0
   59.9800   31.1610   46.5670 C   0  0  0  0  0  0  0  0  0  0  0  0
   59.5650   29.8950   46.1350 C   0  0  0  0  0  0  0  0  0  0  0  0
   58.3390   29.7390   45.4570 C   0  0  0  0  0  0  0  0  0  0  0  0
   57.8960   28.4900   44.9950 O   0  0  0  0  0  0  0  0  0  0  0  0
   58.5040   27.7570   43.9360 C   0  0  0  0  0  0  0  0  0  0  0  0
   61.2280   31.3420   47.3950 C   0  0  0  0  0  0  0  0  0  0  0  0
   61.9590   32.6080   47.0920 N   0  0  2  0  0  0  0  0  0  0  0  0
   62.6750   33.0560   48.2750 C   0  0  0  0  0  0  0  0  0  0  0  0
   62.9810   34.2360   48.3930 O   0  0  0  0  0  0  0  0  0  0  0  0
   63.0530   32.0940   49.3760 C   0  0  0  0  0  0  0  0  0  0  0  0
   61.9360   32.0150   50.4300 C   0  0  0  0  0  0  0  0  0  0  0  0
   61.4030   33.3340   50.8160 N   0  0  0  0  0  0  0  0  0  0  0  0
   60.1720   33.7320   50.1140 C   0  0  0  0  0  0  0  0  0  0  0  0
   58.9260   33.0290   50.6780 C   0  0  0  0  0  0  0  0  0  0  0  0
   58.5250   31.8140   49.8270 C   0  0  0  0  0  0  0  0  0  0  0  0
   58.5300   30.5770   50.6260 N   0  0  0  0  0  0  0  0  0  0  0  0
   57.7030   30.5260   51.8010 C   0  0  0  0  0  0  0  0  0  0  0  0
   56.4520   30.4460   51.6720 O   0  0  0  0  0  0  0  0  0  0  0  0
   58.2920   30.4610   53.1810 C   0  0  0  0  0  0  0  0  0  0  0  0
   59.1530   29.2170   53.4200 C   0  0  0  0  0  0  0  0  0  0  0  0
   60.4910   29.2990   52.6760 C   0  0  0  0  0  0  0  0  0  0  0  0
   60.3390   28.9870   51.2530 N   0  0  0  0  0  0  0  0  0  0  0  0
   61.0930   28.0860   50.5890 C   0  0  0  0  0  0  0  0  0  0  0  0
   60.7050   28.0240   49.2660 C   0  0  0  0  0  0  0  0  0  0  0  0
   59.6760   28.9310   49.1090 C   0  0  0  0  0  0  0  0  0  0  0  0
   59.4800   29.5200   50.3490 C   0  0  0  0  0  0  0  0  0  0  0  0
   61.1410   33.7240   46.5290 C   0  0  0  0  0  0  0  0  0  0  0  0
   59.6430   33.6040   46.8390 C   0  0  0  0  0  0  0  0  0  0  0  0
   55.9128   29.1066   43.2687 H   0  0  0  0  0  0  0  0  0  0  0  0
   55.3897   30.7315   42.7094 H   0  0  0  0  0  0  0  0  0  0  0  0
   57.1334   30.3000   42.7094 H   0  0  0  0  0  0  0  0  0  0  0  0
   57.2961   33.0066   45.5227 H   0  0  0  0  0  0  0  0  0  0  0  0
   60.1996   29.0171   46.3259 H   0  0  0  0  0  0  0  0  0  0  0  0
   59.1528   26.9748   44.3568 H   0  0  0  0  0  0  0  0  0  0  0  0
   57.7231   27.2917   43.3166 H   0  0  0  0  0  0  0  0  0  0  0  0
   59.1057   28.4385   43.3166 H   0  0  0  0  0  0  0  0  0  0  0  0
   60.9441   31.3485   48.4577 H   0  0  0  0  0  0  0  0  0  0  0  0
   61.9041   30.5091   47.1518 H   0  0  0  0  0  0  0  0  0  0  0  0
   62.6660   32.3680   46.3560 H   0  0  0  0  0  0  0  0  0  0  0  0
   63.2145   31.0952   48.9443 H   0  0  0  0  0  0  0  0  0  0  0  0
   63.9738   32.4516   49.8600 H   0  0  0  0  0  0  0  0  0  0  0  0
   61.1121   31.4118   50.0208 H   0  0  0  0  0  0  0  0  0  0  0  0
   62.3722   31.5633   51.3332 H   0  0  0  0  0  0  0  0  0  0  0  0
   61.1980   33.3160   51.8420 H   0  0  0  0  0  0  0  0  0  0  0  0
   60.0418   34.8194   50.2169 H   0  0  0  0  0  0  0  0  0  0  0  0
   60.2759   33.4382   49.0591 H   0  0  0  0  0  0  0  0  0  0  0  0
   59.1403   32.6914   51.7027 H   0  0  0  0  0  0  0  0  0  0  0  0
   58.0923   33.7465   50.6657 H   0  0  0  0  0  0  0  0  0  0  0  0
   57.5144   31.9764   49.4241 H   0  0  0  0  0  0  0  0  0  0  0  0
   59.2555   31.7042   49.0120 H   0  0  0  0  0  0  0  0  0  0  0  0
   58.9179   31.3524   53.3347 H   0  0  0  0  0  0  0  0  0  0  0  0
   57.4518   30.4139   53.8894 H   0  0  0  0  0  0  0  0  0  0  0  0
   59.3503   29.1223   54.4980 H   0  0  0  0  0  0  0  0  0  0  0  0
   58.6037   28.3429   53.0402 H   0  0  0  0  0  0  0  0  0  0  0  0
   60.8931   30.3179   52.7767 H   0  0  0  0  0  0  0  0  0  0  0  0
   61.1753   28.5599   53.1181 H   0  0  0  0  0  0  0  0  0  0  0  0
   61.8999   27.4877   51.0373 H   0  0  0  0  0  0  0  0  0  0  0  0
   61.1332   27.3765   48.4866 H   0  0  0  0  0  0  0  0  0  0  0  0
   59.1213   29.1442   48.1833 H   0  0  0  0  0  0  0  0  0  0  0  0
   61.5085   34.6714   46.9500 H   0  0  0  0  0  0  0  0  0  0  0  0
   61.2485   33.6830   45.4350 H   0  0  0  0  0  0  0  0  0  0  0  0
   59.4810   33.6792   47.9244 H   0  0  0  0  0  0  0  0  0  0  0  0
   59.0880   34.4131   46.3417 H   0  0  0  0  0  0  0  0  0  0  0  0
  1  2  1  0
  2  3  1  0
  3  4  2  0
  4  5  1  0
  5  6  2  0
  6  7  1  0
  7  8  2  0
  8  9  1  0
  9 10  1  0
  6 11  1  0
 11 12  1  0
 12 13  1  0
 13 14  2  0
 13 15  1  0
 15 16  1  0
 16 17  1  0
 17 18  1  0
 18 19  1  0
 19 20  1  0
 20 21  1  0
 21 22  1  0
 22 23  2  0
 22 24  1  0
 24 25  1  0
 25 26  1  0
 26 27  1  0
 27 28  1  0
 28 29  2  0
 29 30  1  0
 30 31  2  0
 12 32  1  0
 32 33  1  0
  8  3  1  0
 31 21  1  0
 33  5  1  0
 31 27  1  0
  1 34  1  0
  1 35  1  0
  1 36  1  0
  4 37  1  0
  7 38  1  0
 10 39  1  0
 10 40  1  0
 10 41  1  0
 11 42  1  0
 11 43  1  0
 12 44  1  6
 15 45  1  0
 15 46  1  0
 16 47  1  0
 16 48  1  0
 17 49  1  0
 18 50  1  0
 18 51  1  0
 19 52  1  0
 19 53  1  0
 20 54  1  0
 20 55  1  0
 24 56  1  0
 24 57  1  0
 25 58  1  0
 25 59  1  0
 26 60  1  0
 26 61  1  0
 28 62  1  0
 29 63  1  0
 30 64  1  0
 32 65  1  0
 32 66  1  0
 33 67  1  0
 33 68  1  0
M  CHG  1  12   1
M  END
>  <UniqueID>  (36) 
35

>  <SMILES>  (36) 
COc1cc2c(cc1OC)C[N@H+](C(=O)CCNCCCN1C(=O)CCCn3cccc31)CC2

>  <Energy>  (36) 
111.03457134078961

>  <Genealogy>  (36) 
COc1cc2c(cc1OC)C[NH+](C(=O)CCNCCCN1C(=O)CCCn3cccc31)CC2 (protonated)
COc1cc2c(cc1OC)C[N@H+](C(=O)CCNCCCN1C(=O)CCCn3cccc31)CC2 (chirality)
COc1cc2c(cc1OC)C[N@H+](C(=O)CCNCCCN1C(=O)CCCn3cccc31)CC2 (3D coordinates assigned)
COc1cc2c(cc1OC)C[N@H+](C(=O)CCNCCCN1C(=O)CCCn3cccc31)CC2 (nonaromatic ring conformer: 111.03457134078961 kcal/mol)

>  <smiles>  (36) 
COc1cc2c(cc1OC)CN(C(=O)CCNCCCN1C(=O)CCCn3cccc31)CC2

>  <score_type>  (36) 
oracle

>  <origin>  (36) 
adg

>  <m_score__min__energy>  (36) 
-4.75

>  <m_primary>  (36) 
energy

$$$$
36:0
     RDKit          3D

 33 35  0  0  0  0  0  0  0  0999 V2000
   61.5620   33.7930   50.7080 C   0  0  0  0  0  0  0  0  0  0  0  0
   62.1590   33.6520   49.3330 C   0  0  0  0  0  0  0  0  0  0  0  0
   63.5540   33.4670   49.1480 C   0  0  0  0  0  0  0  0  0  0  0  0
   64.6570   33.3700   50.5160 Cl  0  0  0  0  0  0  0  0  0  0  0  0
   64.0950   33.3670   47.8450 C   0  0  0  0  0  0  0  0  0  0  0  0
   63.2680   33.4660   46.7150 C   0  0  0  0  0  0  0  0  0  0  0  0
   61.9090   33.6710   46.9190 C   0  0  0  0  0  0  0  0  0  0  0  0
   60.9830   33.8130   46.0040 O   0  0  0  0  0  0  0  0  0  0  0  0
   59.8360   34.0010   46.6290 C   0  0  0  0  0  0  0  0  0  0  0  0
   58.5350   34.2520   45.9260 C   0  0  0  0  0  0  0  0  0  0  0  0
   58.6260   33.9450   44.4890 N   0  0  0  0  0  0  0  0  0  0  0  0
   57.9390   32.7160   44.1690 C   0  0  0  0  0  0  0  0  0  0  0  0
   57.7580   32.3240   42.8320 C   0  0  0  0  0  0  0  0  0  0  0  0
   57.0640   31.1500   42.5370 C   0  0  0  0  0  0  0  0  0  0  0  0
   56.5510   30.3770   43.5790 C   0  0  0  0  0  0  0  0  0  0  0  0
   56.7260   30.7700   44.8680 N   0  0  0  0  0  0  0  0  0  0  0  0
   57.3980   31.9080   45.1840 C   0  0  0  0  0  0  0  0  0  0  0  0
   60.0170   33.9830   48.0080 C   0  0  0  0  0  0  0  0  0  0  0  0
   61.3700   33.7640   48.1770 C   0  0  0  0  0  0  0  0  0  0  0  0
   62.3384   33.6096   51.4654 H   0  0  0  0  0  0  0  0  0  0  0  0
   61.1622   34.8103   50.8316 H   0  0  0  0  0  0  0  0  0  0  0  0
   60.7493   33.0621   50.8316 H   0  0  0  0  0  0  0  0  0  0  0  0
   65.1760   33.2099   47.7156 H   0  0  0  0  0  0  0  0  0  0  0  0
   63.6830   33.3838   45.6996 H   0  0  0  0  0  0  0  0  0  0  0  0
   57.7574   33.6184   46.3776 H   0  0  0  0  0  0  0  0  0  0  0  0
   58.2860   35.3180   46.0344 H   0  0  0  0  0  0  0  0  0  0  0  0
   59.6320   33.8910   44.2000 H   0  0  0  0  0  0  0  0  0  0  0  0
   58.1930   34.7310   43.9510 H   0  0  0  0  0  0  0  0  0  0  0  0
   58.1634   32.9426   42.0178 H   0  0  0  0  0  0  0  0  0  0  0  0
   56.9226   30.8367   41.4921 H   0  0  0  0  0  0  0  0  0  0  0  0
   56.0044   29.4486   43.3569 H   0  0  0  0  0  0  0  0  0  0  0  0
   57.5191   32.1980   46.2381 H   0  0  0  0  0  0  0  0  0  0  0  0
   59.2535   34.1139   48.7890 H   0  0  0  0  0  0  0  0  0  0  0  0
  1  2  1  0
  2  3  2  0
  3  4  1  0
  3  5  1  0
  5  6  2  0
  6  7  1  0
  7  8  1  0
  8  9  1  0
  9 10  1  0
 10 11  1  0
 11 12  1  0
 12 13  2  0
 13 14  1  0
 14 15  2  0
 15 16  1  0
 16 17  2  0
  9 18  2  0
 18 19  1  0
 19  2  1  0
 19  7  2  0
 17 12  1  0
  1 20  1  0
  1 21  1  0
  1 22  1  0
  5 23  1  0
  6 24  1  0
 10 25  1  0
 10 26  1  0
 11 27  1  0
 11 28  1  0
 13 29  1  0
 14 30  1  0
 15 31  1  0
 17 32  1  0
 18 33  1  0
M  CHG  1  11   1
M  END
>  <UniqueID>  (37) 
36

>  <SMILES>  (37) 
Cc1c(Cl)ccc2oc(C[NH2+]c3cccnc3)cc12

>  <Energy>  (37) 
70.1747799236388

>  <Genealogy>  (37) 
Cc1c(Cl)ccc2oc(C[NH2+]c3cccnc3)cc12 (protonated)
Cc1c(Cl)ccc2oc(C[NH2+]c3cccnc3)cc12 (3D coordinates assigned)
Cc1c(Cl)ccc2oc(C[NH2+]c3cccnc3)cc12 (optimized conformer: 70.1747799236388 kcal/mol)

>  <smiles>  (37) 
Cc1c(Cl)ccc2oc(CNc3cccnc3)cc12

>  <score_type>  (37) 
oracle

>  <origin>  (37) 
adg

>  <m_score__min__energy>  (37) 
-5.7699999999999996

>  <m_primary>  (37) 
energy

$$$$
37:0
     RDKit          3D

 45 46  0  0  0  0  0  0  0  0999 V2000
   60.8750   33.3710   47.3390 C   0  0  0  0  0  0  0  0  0  0  0  0
   59.6490   32.8730   46.6190 C   0  0  0  0  0  0  0  0  0  0  0  0
   58.8690   33.7770   45.8850 C   0  0  0  0  0  0  0  0  0  0  0  0
   57.7340   33.3180   45.2140 C   0  0  0  0  0  0  0  0  0  0  0  0
   57.0290   34.1230   44.5500 O   0  0  0  0  0  0  0  0  0  0  0  0
   57.3890   32.0370   45.2720 O   0  0  0  0  0  0  0  0  0  0  0  0
   58.0890   31.1360   45.9530 C   0  0  0  0  0  0  0  0  0  0  0  0
   57.6610   29.8060   45.9690 C   0  0  0  0  0  0  0  0  0  0  0  0
   58.3740   28.8380   46.6840 C   0  0  0  0  0  0  0  0  0  0  0  0
   57.9070   27.5210   46.6880 O   0  0  0  0  0  0  0  0  0  0  0  0
   56.9850   27.0280   45.7150 C   0  0  1  0  0  0  0  0  0  0  0  0
   57.7430   26.3860   44.5500 C   0  0  0  0  0  0  0  0  0  0  0  0
   56.0860   26.0100   46.3720 C   0  0  0  0  0  0  0  0  0  0  0  0
   56.5420   25.3240   47.3260 O   0  0  0  0  0  0  0  0  0  0  0  0
   54.7230   25.7980   45.9710 N   0  0  0  0  0  0  0  0  0  0  0  0
   54.2230   24.7070   45.1410 C   0  0  0  0  0  0  0  0  0  0  0  0
   53.7360   23.5390   46.0170 C   0  0  0  0  0  0  0  0  0  0  0  0
   54.4860   23.4390   47.2920 N   0  0  0  0  0  0  0  0  0  0  0  0
   53.6690   22.8200   48.3550 C   0  0  0  0  0  0  0  0  0  0  0  0
   55.7110   22.6450   47.0920 C   0  0  0  0  0  0  0  0  0  0  0  0
   59.5500   29.2000   47.3650 C   0  0  0  0  0  0  0  0  0  0  0  0
   60.5350   27.9930   48.1780 Cl  0  0  0  0  0  0  0  0  0  0  0  0
   59.9830   30.5310   47.3570 C   0  0  0  0  0  0  0  0  0  0  0  0
   59.2560   31.5160   46.6580 C   0  0  0  0  0  0  0  0  0  0  0  0
   60.7142   33.3057   48.4252 H   0  0  0  0  0  0  0  0  0  0  0  0
   61.7410   32.7534   47.0588 H   0  0  0  0  0  0  0  0  0  0  0  0
   61.0650   34.4176   47.0588 H   0  0  0  0  0  0  0  0  0  0  0  0
   59.1489   34.8398   45.8380 H   0  0  0  0  0  0  0  0  0  0  0  0
   56.7557   29.5177   45.4146 H   0  0  0  0  0  0  0  0  0  0  0  0
   56.3810   27.8584   45.3205 H   0  0  0  0  0  0  0  0  0  0  0  0
   58.5267   25.7222   44.9439 H   0  0  0  0  0  0  0  0  0  0  0  0
   57.0430   25.8019   43.9345 H   0  0  0  0  0  0  0  0  0  0  0  0
   58.2039   27.1726   43.9345 H   0  0  0  0  0  0  0  0  0  0  0  0
   53.3858   25.0731   44.5286 H   0  0  0  0  0  0  0  0  0  0  0  0
   55.0390   24.3499   44.4956 H   0  0  0  0  0  0  0  0  0  0  0  0
   52.6702   23.6884   46.2447 H   0  0  0  0  0  0  0  0  0  0  0  0
   53.9011   22.6071   45.4563 H   0  0  0  0  0  0  0  0  0  0  0  0
   54.7760   24.3960   47.6070 H   0  0  0  0  0  0  0  0  0  0  0  0
   54.0612   23.1171   49.3388 H   0  0  0  0  0  0  0  0  0  0  0  0
   52.6262   23.1568   48.2590 H   0  0  0  0  0  0  0  0  0  0  0  0
   53.7110   21.7250   48.2590 H   0  0  0  0  0  0  0  0  0  0  0  0
   56.1340   22.3709   48.0697 H   0  0  0  0  0  0  0  0  0  0  0  0
   55.4683   21.7320   46.5285 H   0  0  0  0  0  0  0  0  0  0  0  0
   56.4453   23.2394   46.5285 H   0  0  0  0  0  0  0  0  0  0  0  0
   60.8977   30.8106   47.9003 H   0  0  0  0  0  0  0  0  0  0  0  0
  1  2  1  0
  2  3  2  0
  3  4  1  0
  4  5  2  0
  4  6  1  0
  6  7  1  0
  7  8  2  0
  8  9  1  0
  9 10  1  0
 10 11  1  0
 11 12  1  0
 11 13  1  0
 13 14  2  0
 13 15  1  0
 15 16  1  0
 16 17  1  0
 17 18  1  0
 18 19  1  0
 18 20  1  0
  9 21  2  0
 21 22  1  0
 21 23  1  0
 23 24  2  0
 24  2  1  0
 24  7  1  0
  1 25  1  0
  1 26  1  0
  1 27  1  0
  3 28  1  0
  8 29  1  0
 11 30  1  6
 12 31  1  0
 12 32  1  0
 12 33  1  0
 16 34  1  0
 16 35  1  0
 17 36  1  0
 17 37  1  0
 18 38  1  0
 19 39  1  0
 19 40  1  0
 19 41  1  0
 20 42  1  0
 20 43  1  0
 20 44  1  0
 23 45  1  0
M  CHG  2  15  -1  18   1
M  END
>  <UniqueID>  (38) 
37

>  <SMILES>  (38) 
Cc1cc(=O)oc2cc(O[C@@H](C)C(=O)[N-]CC[NH+](C)C)c(Cl)cc12

>  <Energy>  (38) 
51.70154815259219

>  <Genealogy>  (38) 
Cc1cc(=O)oc2cc(OC(C)C(=O)[N-]CC[NH+](C)C)c(Cl)cc12 (protonated)
Cc1cc(=O)oc2cc(O[C@@H](C)C(=O)[N-]CC[NH+](C)C)c(Cl)cc12 (chirality)
Cc1cc(=O)oc2cc(O[C@@H](C)C(=O)[N-]CC[NH+](C)C)c(Cl)cc12 (3D coordinates assigned)
Cc1cc(=O)oc2cc(O[C@@H](C)C(=O)[N-]CC[NH+](C)C)c(Cl)cc12 (optimized conformer: 51.70154815259219 kcal/mol)

>  <smiles>  (38) 
Cc1cc(=O)oc2cc(OC(C)C(=O)NCCN(C)C)c(Cl)cc12

>  <score_type>  (38) 
oracle

>  <origin>  (38) 
adg

>  <m_score__min__energy>  (38) 
-6.6399999999999997

>  <m_primary>  (38) 
energy

$$$$
38:0
     RDKit          3D

 43 44  0  0  0  0  0  0  0  0999 V2000
   65.0560   33.0010   49.9500 C   0  0  0  0  0  0  0  0  0  0  0  0
   64.0400   32.8800   48.9590 O   0  0  0  0  0  0  0  0  0  0  0  0
   62.6930   33.2330   49.1400 C   0  0  0  0  0  0  0  0  0  0  0  0
   62.1790   33.4780   50.4290 C   0  0  0  0  0  0  0  0  0  0  0  0
   60.8470   33.8370   50.6070 C   0  0  0  0  0  0  0  0  0  0  0  0
   59.9980   33.9440   49.5110 C   0  0  0  0  0  0  0  0  0  0  0  0
   60.4710   33.6860   48.2170 C   0  0  0  0  0  0  0  0  0  0  0  0
   59.5230   33.7970   47.0830 C   0  0  0  0  0  0  0  0  0  0  0  0
   58.7770   34.8130   47.0130 O   0  0  0  0  0  0  0  0  0  0  0  0
   59.4100   32.7470   46.0870 N   0  0  0  0  0  0  0  0  0  0  0  0
   58.4240   33.1170   45.0370 C   0  0  0  0  0  0  0  0  0  0  0  0
   57.0490   32.4570   45.2570 C   0  0  0  0  0  0  0  0  0  0  0  0
   57.1290   30.9800   45.3420 N   0  0  0  0  0  0  0  0  0  0  0  0
   56.6610   30.2260   43.8370 S   0  0  0  0  0  0  0  0  0  0  0  0
   57.5130   28.6740   43.6440 C   0  0  0  0  0  0  0  0  0  0  0  0
   57.0350   31.1160   42.6850 O   0  0  0  0  0  0  0  0  0  0  0  0
   55.1770   29.9870   43.8130 O   0  0  0  0  0  0  0  0  0  0  0  0
   58.4530   30.4780   45.7680 C   0  0  0  0  0  0  0  0  0  0  0  0
   59.1180   31.4490   46.7470 C   0  0  0  0  0  0  0  0  0  0  0  0
   61.8310   33.3520   48.0140 C   0  0  0  0  0  0  0  0  0  0  0  0
   62.2680   33.1790   46.6860 O   0  0  0  0  0  0  0  0  0  0  0  0
   63.3560   33.8400   46.0510 C   0  0  0  0  0  0  0  0  0  0  0  0
   64.6011   32.9468   50.9501 H   0  0  0  0  0  0  0  0  0  0  0  0
   65.7820   32.1830   49.8326 H   0  0  0  0  0  0  0  0  0  0  0  0
   65.5696   33.9667   49.8326 H   0  0  0  0  0  0  0  0  0  0  0  0
   62.8386   33.3843   51.3043 H   0  0  0  0  0  0  0  0  0  0  0  0
   60.4639   34.0370   51.6185 H   0  0  0  0  0  0  0  0  0  0  0  0
   58.9473   34.2333   49.6606 H   0  0  0  0  0  0  0  0  0  0  0  0
   60.3390   32.6320   45.6160 H   0  0  0  0  0  0  0  0  0  0  0  0
   58.2956   34.2095   45.0435 H   0  0  0  0  0  0  0  0  0  0  0  0
   58.8145   32.7603   44.0725 H   0  0  0  0  0  0  0  0  0  0  0  0
   56.6209   32.8405   46.1949 H   0  0  0  0  0  0  0  0  0  0  0  0
   56.4194   32.7056   44.3899 H   0  0  0  0  0  0  0  0  0  0  0  0
   57.7425   28.2560   44.6353 H   0  0  0  0  0  0  0  0  0  0  0  0
   56.8741   27.9715   43.0888 H   0  0  0  0  0  0  0  0  0  0  0  0
   58.4487   28.8359   43.0888 H   0  0  0  0  0  0  0  0  0  0  0  0
   58.3268   29.5019   46.2592 H   0  0  0  0  0  0  0  0  0  0  0  0
   59.0942   30.3818   44.8794 H   0  0  0  0  0  0  0  0  0  0  0  0
   58.4431   31.6212   47.5983 H   0  0  0  0  0  0  0  0  0  0  0  0
   60.0650   31.0082   47.0918 H   0  0  0  0  0  0  0  0  0  0  0  0
   64.0320   34.2507   46.8154 H   0  0  0  0  0  0  0  0  0  0  0  0
   63.9049   33.1226   45.4233 H   0  0  0  0  0  0  0  0  0  0  0  0
   62.9723   34.6578   45.4233 H   0  0  0  0  0  0  0  0  0  0  0  0
  1  2  1  0
  2  3  1  0
  3  4  2  0
  4  5  1  0
  5  6  2  0
  6  7  1  0
  7  8  1  0
  8  9  2  0
  8 10  1  0
 10 11  1  0
 11 12  1  0
 12 13  1  0
 13 14  1  0
 14 15  1  0
 14 16  2  0
 14 17  2  0
 13 18  1  0
 18 19  1  0
  7 20  2  0
 20 21  1  0
 21 22  1  0
 20  3  1  0
 19 10  1  0
  1 23  1  0
  1 24  1  0
  1 25  1  0
  4 26  1  0
  5 27  1  0
  6 28  1  0
 10 29  1  0
 11 30  1  0
 11 31  1  0
 12 32  1  0
 12 33  1  0
 15 34  1  0
 15 35  1  0
 15 36  1  0
 18 37  1  0
 18 38  1  0
 19 39  1  0
 19 40  1  0
 22 41  1  0
 22 42  1  0
 22 43  1  0
M  CHG  1  10   1
M  END
>  <UniqueID>  (39) 
38

>  <SMILES>  (39) 
COc1cccc(C(=O)[NH+]2CCN(S(C)(=O)=O)CC2)c1OC

>  <Energy>  (39) 
57.474849293233355

>  <Genealogy>  (39) 
COc1cccc(C(=O)[NH+]2CCN(S(C)(=O)=O)CC2)c1OC (protonated)
COc1cccc(C(=O)[NH+]2CCN(S(C)(=O)=O)CC2)c1OC (3D coordinates assigned)
COc1cccc(C(=O)[NH+]2CCN(S(C)(=O)=O)CC2)c1OC (nonaromatic ring conformer: 57.474849293233355 kcal/mol)

>  <smiles>  (39) 
COc1cccc(C(=O)N2CCN(S(C)(=O)=O)CC2)c1OC

>  <score_type>  (39) 
oracle

>  <origin>  (39) 
adg

>  <m_score__min__energy>  (39) 
-5.1200000000000001

>  <m_primary>  (39) 
energy

$$$$
39:0
     RDKit          3D

 43 45  0  0  0  0  0  0  0  0999 V2000
   55.8760   30.4450   44.1030 C   0  0  0  0  0  0  0  0  0  0  0  0
   57.1280   29.9020   43.4220 C   0  0  0  0  0  0  0  0  0  0  0  0
   57.2890   28.4700   43.6860 N   0  0  0  0  0  0  0  0  0  0  0  0
   57.9270   27.9100   44.8590 C   0  0  0  0  0  0  0  0  0  0  0  0
   58.3270   28.7400   45.9250 C   0  0  0  0  0  0  0  0  0  0  0  0
   58.9330   28.2140   47.0810 C   0  0  0  0  0  0  0  0  0  0  0  0
   59.3400   29.1330   48.1790 C   0  0  0  0  0  0  0  0  0  0  0  0
   59.9220   28.6800   49.3750 C   0  0  0  0  0  0  0  0  0  0  0  0
   60.2880   29.5800   50.3260 N   0  0  0  0  0  0  0  0  0  0  0  0
   60.1120   30.9150   50.1480 C   0  0  0  0  0  0  0  0  0  0  0  0
   59.5510   31.3810   48.9520 C   0  0  0  0  0  0  0  0  0  0  0  0
   59.3560   32.8260   48.6960 C   0  0  0  0  0  0  0  0  0  0  0  0
   59.5420   33.6550   49.6270 O   0  0  0  0  0  0  0  0  0  0  0  0
   58.9460   33.3190   47.3580 C   0  0  0  0  0  0  0  0  0  0  0  0
   57.5810   33.3400   47.0140 C   0  0  0  0  0  0  0  0  0  0  0  0
   57.1710   33.8030   45.7620 C   0  0  0  0  0  0  0  0  0  0  0  0
   58.1150   34.2430   44.8350 C   0  0  0  0  0  0  0  0  0  0  0  0
   59.4740   34.2200   45.1570 C   0  0  0  0  0  0  0  0  0  0  0  0
   59.8980   33.7600   46.4110 C   0  0  0  0  0  0  0  0  0  0  0  0
   61.6210   33.8090   46.7730 Cl  0  0  0  0  0  0  0  0  0  0  0  0
   59.1760   30.4740   48.0120 N   0  0  0  0  0  0  0  0  0  0  0  0
   59.1120   26.8250   47.1740 C   0  0  0  0  0  0  0  0  0  0  0  0
   58.7240   25.9890   46.1280 C   0  0  0  0  0  0  0  0  0  0  0  0
   58.1430   26.5140   44.9650 C   0  0  0  0  0  0  0  0  0  0  0  0
   57.7500   25.5700   43.8580 C   0  0  0  0  0  0  0  0  0  0  0  0
   55.9998   30.3913   45.1947 H   0  0  0  0  0  0  0  0  0  0  0  0
   55.7200   31.4917   43.8027 H   0  0  0  0  0  0  0  0  0  0  0  0
   55.0052   29.8437   43.8027 H   0  0  0  0  0  0  0  0  0  0  0  0
   57.0449   30.0608   42.3367 H   0  0  0  0  0  0  0  0  0  0  0  0
   58.0038   30.4333   43.8228 H   0  0  0  0  0  0  0  0  0  0  0  0
   56.8770   27.8280   42.9730 H   0  0  0  0  0  0  0  0  0  0  0  0
   58.1616   29.8250   45.8518 H   0  0  0  0  0  0  0  0  0  0  0  0
   60.0805   27.6042   49.5408 H   0  0  0  0  0  0  0  0  0  0  0  0
   60.4073   31.6237   50.9358 H   0  0  0  0  0  0  0  0  0  0  0  0
   56.8309   32.9886   47.7378 H   0  0  0  0  0  0  0  0  0  0  0  0
   56.1012   33.8206   45.5066 H   0  0  0  0  0  0  0  0  0  0  0  0
   57.7894   34.6083   43.8498 H   0  0  0  0  0  0  0  0  0  0  0  0
   60.2159   34.5651   44.4218 H   0  0  0  0  0  0  0  0  0  0  0  0
   59.5621   26.3925   48.0797 H   0  0  0  0  0  0  0  0  0  0  0  0
   58.8757   24.9031   46.2163 H   0  0  0  0  0  0  0  0  0  0  0  0
   57.3616   24.6370   44.2924 H   0  0  0  0  0  0  0  0  0  0  0  0
   56.9716   26.0372   43.2368 H   0  0  0  0  0  0  0  0  0  0  0  0
   58.6299   25.3468   43.2368 H   0  0  0  0  0  0  0  0  0  0  0  0
  1  2  1  0
  2  3  1  0
  3  4  1  0
  4  5  2  0
  5  6  1  0
  6  7  1  0
  7  8  2  0
  8  9  1  0
  9 10  2  0
 10 11  1  0
 11 12  1  0
 12 13  2  0
 12 14  1  0
 14 15  2  0
 15 16  1  0
 16 17  2  0
 17 18  1  0
 18 19  2  0
 19 20  1  0
 11 21  2  0
  6 22  2  0
 22 23  1  0
 23 24  2  0
 24 25  1  0
 24  4  1  0
 21  7  1  0
 19 14  1  0
  1 26  1  0
  1 27  1  0
  1 28  1  0
  2 29  1  0
  2 30  1  0
  3 31  1  0
  5 32  1  0
  8 33  1  0
 10 34  1  0
 15 35  1  0
 16 36  1  0
 17 37  1  0
 18 38  1  0
 22 39  1  0
 23 40  1  0
 25 41  1  0
 25 42  1  0
 25 43  1  0
M  END
>  <UniqueID>  (40) 
39

>  <SMILES>  (40) 
CCNc1cc(-c2cncc(C(=O)c3ccccc3Cl)n2)ccc1C

>  <Energy>  (40) 
54.6887601291837

>  <Genealogy>  (40) 
CCNc1cc(-c2cncc(C(=O)c3ccccc3Cl)n2)ccc1C (3D coordinates assigned)
CCNc1cc(-c2cncc(C(=O)c3ccccc3Cl)n2)ccc1C (optimized conformer: 54.6887601291837 kcal/mol)

>  <smiles>  (40) 
CCNc1cc(-c2cncc(C(=O)c3ccccc3Cl)n2)ccc1C

>  <score_type>  (40) 
oracle

>  <origin>  (40) 
adg

>  <m_score__min__energy>  (40) 
-8.1799999999999997

>  <m_primary>  (40) 
energy

$$$$
40:0
     RDKit          3D

 59 62  0  0  0  0  0  0  0  0999 V2000
   62.8510   33.5280   46.6850 C   0  0  0  0  0  0  0  0  0  0  0  0
   64.0830   33.1080   47.4870 C   0  0  0  0  0  0  0  0  0  0  0  0
   63.8510   33.2270   48.9440 N   0  0  0  0  0  0  0  0  0  0  0  0
   63.3230   31.9570   49.5100 C   0  0  0  0  0  0  0  0  0  0  0  0
   61.7970   31.9860   49.6640 C   0  0  0  0  0  0  0  0  0  0  0  0
   61.3820   33.0580   50.5960 N   0  0  0  0  0  0  0  0  0  0  0  0
   59.9340   33.3680   50.5400 C   0  0  0  0  0  0  0  0  0  0  0  0
   59.3830   33.4730   49.1310 C   0  0  0  0  0  0  0  0  0  0  0  0
   58.3540   32.6170   48.7060 C   0  0  0  0  0  0  0  0  0  0  0  0
   57.8540   32.7010   47.4040 C   0  0  0  0  0  0  0  0  0  0  0  0
   58.3590   33.6560   46.5080 C   0  0  0  0  0  0  0  0  0  0  0  0
   57.8460   33.7430   45.1640 N   0  0  0  0  0  0  0  0  0  0  0  0
   56.6680   34.5740   44.9030 C   0  0  0  0  0  0  0  0  0  0  0  0
   58.5470   33.0920   44.0470 C   0  0  0  0  0  0  0  0  0  0  0  0
   58.0010   31.6980   43.8160 C   0  0  0  0  0  0  0  0  0  0  0  0
   57.0350   31.5160   42.8160 C   0  0  0  0  0  0  0  0  0  0  0  0
   56.4780   30.2580   42.6000 C   0  0  0  0  0  0  0  0  0  0  0  0
   56.8610   29.1970   43.3550 N   0  0  0  0  0  0  0  0  0  0  0  0
   57.7960   29.3210   44.3400 C   0  0  0  0  0  0  0  0  0  0  0  0
   58.1630   28.2020   45.1040 C   0  0  0  0  0  0  0  0  0  0  0  0
   59.1150   28.3190   46.1150 C   0  0  0  0  0  0  0  0  0  0  0  0
   59.7160   29.5510   46.3710 C   0  0  0  0  0  0  0  0  0  0  0  0
   59.3660   30.6750   45.6210 C   0  0  0  0  0  0  0  0  0  0  0  0
   58.3970   30.5820   44.5980 C   0  0  0  0  0  0  0  0  0  0  0  0
   59.3680   34.5300   46.9390 C   0  0  0  0  0  0  0  0  0  0  0  0
   59.8670   34.4480   48.2420 C   0  0  0  0  0  0  0  0  0  0  0  0
   62.2700   34.2430   50.6020 C   0  0  0  0  0  0  0  0  0  0  0  0
   63.0090   34.4090   49.2660 C   0  0  0  0  0  0  0  0  0  0  0  0
   62.0406   33.8043   47.3756 H   0  0  0  0  0  0  0  0  0  0  0  0
   63.1028   34.3911   46.0512 H   0  0  0  0  0  0  0  0  0  0  0  0
   62.5232   32.6909   46.0512 H   0  0  0  0  0  0  0  0  0  0  0  0
   64.3248   32.0618   47.2483 H   0  0  0  0  0  0  0  0  0  0  0  0
   64.9144   33.7751   47.2153 H   0  0  0  0  0  0  0  0  0  0  0  0
   63.5964   31.1289   48.8396 H   0  0  0  0  0  0  0  0  0  0  0  0
   63.7624   31.8223   50.5094 H   0  0  0  0  0  0  0  0  0  0  0  0
   61.3388   32.1663   48.6803 H   0  0  0  0  0  0  0  0  0  0  0  0
   61.4657   31.0188   50.0699 H   0  0  0  0  0  0  0  0  0  0  0  0
   59.3884   32.5713   51.0669 H   0  0  0  0  0  0  0  0  0  0  0  0
   59.7996   34.3534   51.0101 H   0  0  0  0  0  0  0  0  0  0  0  0
   57.9385   31.8747   49.4034 H   0  0  0  0  0  0  0  0  0  0  0  0
   57.0590   32.0138   47.0789 H   0  0  0  0  0  0  0  0  0  0  0  0
   56.2222   34.8885   45.8582 H   0  0  0  0  0  0  0  0  0  0  0  0
   56.9664   35.4626   44.3274 H   0  0  0  0  0  0  0  0  0  0  0  0
   55.9309   33.9948   44.3274 H   0  0  0  0  0  0  0  0  0  0  0  0
   58.4080   33.6906   43.1347 H   0  0  0  0  0  0  0  0  0  0  0  0
   59.6164   33.0180   44.2938 H   0  0  0  0  0  0  0  0  0  0  0  0
   56.7161   32.3698   42.2001 H   0  0  0  0  0  0  0  0  0  0  0  0
   55.7224   30.1232   41.8120 H   0  0  0  0  0  0  0  0  0  0  0  0
   56.4190   28.2690   43.1640 H   0  0  0  0  0  0  0  0  0  0  0  0
   57.6961   27.2264   44.9034 H   0  0  0  0  0  0  0  0  0  0  0  0
   59.3928   27.4380   46.7121 H   0  0  0  0  0  0  0  0  0  0  0  0
   60.4695   29.6375   47.1677 H   0  0  0  0  0  0  0  0  0  0  0  0
   59.8490   31.6412   45.8286 H   0  0  0  0  0  0  0  0  0  0  0  0
   59.7692   35.2850   46.2469 H   0  0  0  0  0  0  0  0  0  0  0  0
   60.6444   35.1518   48.5742 H   0  0  0  0  0  0  0  0  0  0  0  0
   61.6632   35.1416   50.7873 H   0  0  0  0  0  0  0  0  0  0  0  0
   63.0214   34.1031   51.3931 H   0  0  0  0  0  0  0  0  0  0  0  0
   62.2677   34.5457   48.4649 H   0  0  0  0  0  0  0  0  0  0  0  0
   63.6702   35.2840   49.3502 H   0  0  0  0  0  0  0  0  0  0  0  0
  1  2  1  0
  2  3  1  0
  3  4  1  0
  4  5  1  0
  5  6  1  0
  6  7  1  0
  7  8  1  0
  8  9  2  0
  9 10  1  0
 10 11  2  0
 11 12  1  0
 12 13  1  0
 12 14  1  0
 14 15  1  0
 15 16  2  0
 16 17  1  0
 17 18  2  0
 18 19  1  0
 19 20  2  0
 20 21  1  0
 21 22  2  0
 22 23  1  0
 23 24  2  0
 11 25  1  0
 25 26  2  0
  6 27  1  0
 27 28  1  0
 28  3  1  0
 26  8  1  0
 24 15  1  0
 24 19  1  0
  1 29  1  0
  1 30  1  0
  1 31  1  0
  2 32  1  0
  2 33  1  0
  4 34  1  0
  4 35  1  0
  5 36  1  0
  5 37  1  0
  7 38  1  0
  7 39  1  0
  9 40  1  0
 10 41  1  0
 13 42  1  0
 13 43  1  0
 13 44  1  0
 14 45  1  0
 14 46  1  0
 16 47  1  0
 17 48  1  0
 18 49  1  0
 20 50  1  0
 21 51  1  0
 22 52  1  0
 23 53  1  0
 25 54  1  0
 26 55  1  0
 27 56  1  0
 27 57  1  0
 28 58  1  0
 28 59  1  0
M  CHG  1  18   1
M  END
>  <UniqueID>  (41) 
40

>  <SMILES>  (41) 
CCN1CCN(Cc2ccc(N(C)Cc3cc[nH+]c4ccccc34)cc2)CC1

>  <Energy>  (41) 
82.40449123542737

>  <Genealogy>  (41) 
CCN1CCN(Cc2ccc(N(C)Cc3cc[nH+]c4ccccc34)cc2)CC1 (protonated)
CCN1CCN(Cc2ccc(N(C)Cc3cc[nH+]c4ccccc34)cc2)CC1 (3D coordinates assigned)
CCN1CCN(Cc2ccc(N(C)Cc3cc[nH+]c4ccccc34)cc2)CC1 (nonaromatic ring conformer: 82.40449123542737 kcal/mol)

>  <smiles>  (41) 
CCN1CCN(Cc2ccc(N(C)Cc3ccnc4ccccc34)cc2)CC1

>  <score_type>  (41) 
oracle

>  <origin>  (41) 
adg

>  <m_score__min__energy>  (41) 
-6.9800000000000004

>  <m_primary>  (41) 
energy

$$$$
41:0
     RDKit          3D

 52 53  0  0  0  0  0  0  0  0999 V2000
   63.4170   32.0210   48.1600 C   0  0  0  0  0  0  0  0  0  0  0  0
   63.5250   33.4740   48.6120 C   0  0  0  0  0  0  0  0  0  0  0  0
   62.2290   34.0330   48.8310 O   0  0  0  0  0  0  0  0  0  0  0  0
   61.1680   34.0320   47.9080 C   0  0  0  0  0  0  0  0  0  0  0  0
   61.3730   33.8930   46.5220 C   0  0  0  0  0  0  0  0  0  0  0  0
   60.2890   33.8980   45.6430 C   0  0  0  0  0  0  0  0  0  0  0  0
   58.9850   34.0550   46.1280 C   0  0  0  0  0  0  0  0  0  0  0  0
   57.8120   34.0200   45.1830 C   0  0  0  0  0  0  0  0  0  0  0  0
   58.1060   33.1380   43.9650 C   0  0  0  0  0  0  0  0  0  0  0  0
   57.3600   31.8810   44.0290 N   0  0  0  0  0  0  0  0  0  0  0  0
   56.9950   31.1370   42.8590 C   0  0  0  0  0  0  0  0  0  0  0  0
   57.2300   31.5970   41.7090 O   0  0  0  0  0  0  0  0  0  0  0  0
   56.3110   29.8160   43.0020 C   0  0  0  0  0  0  0  0  0  0  0  0
   55.9450   29.6220   44.3620 O   0  0  0  0  0  0  0  0  0  0  0  0
   56.6740   28.8030   45.2320 C   0  0  0  0  0  0  0  0  0  0  0  0
   56.2170   27.6830   45.5850 O   0  0  0  0  0  0  0  0  0  0  0  0
   57.9820   29.2430   45.7440 C   0  0  0  0  0  0  0  0  0  0  0  0
   59.1040   28.5540   45.4900 C   0  0  0  0  0  0  0  0  0  0  0  0
   60.3360   29.0370   45.9490 O   0  0  0  0  0  0  0  0  0  0  0  0
   60.4780   30.3680   46.4480 C   0  0  0  0  0  0  0  0  0  0  0  0
   59.2350   30.7530   47.2500 C   0  0  0  0  0  0  0  0  0  0  0  0
   58.0600   30.4150   46.5100 O   0  0  0  0  0  0  0  0  0  0  0  0
   58.7750   34.1910   47.5080 C   0  0  0  0  0  0  0  0  0  0  0  0
   59.8620   34.1790   48.4040 C   0  0  0  0  0  0  0  0  0  0  0  0
   59.6950   34.3150   49.7940 O   0  0  0  0  0  0  0  0  0  0  0  0
   59.6720   33.2450   50.7390 C   0  0  0  0  0  0  0  0  0  0  0  0
   58.5940   32.2280   50.3800 C   0  0  0  0  0  0  0  0  0  0  0  0
   63.3683   31.3653   49.0419 H   0  0  0  0  0  0  0  0  0  0  0  0
   62.5068   31.8916   47.5561 H   0  0  0  0  0  0  0  0  0  0  0  0
   64.2981   31.7584   47.5561 H   0  0  0  0  0  0  0  0  0  0  0  0
   64.1004   33.5189   49.5484 H   0  0  0  0  0  0  0  0  0  0  0  0
   64.0308   34.0523   47.8247 H   0  0  0  0  0  0  0  0  0  0  0  0
   62.3943   33.7797   46.1294 H   0  0  0  0  0  0  0  0  0  0  0  0
   60.4601   33.7779   44.5630 H   0  0  0  0  0  0  0  0  0  0  0  0
   56.9361   33.6183   45.7135 H   0  0  0  0  0  0  0  0  0  0  0  0
   57.6177   35.0442   44.8319 H   0  0  0  0  0  0  0  0  0  0  0  0
   57.8183   33.6798   43.0519 H   0  0  0  0  0  0  0  0  0  0  0  0
   59.1809   32.9048   43.9554 H   0  0  0  0  0  0  0  0  0  0  0  0
   57.0640   31.5270   44.9670 H   0  0  0  0  0  0  0  0  0  0  0  0
   55.4090   29.7990   42.3726 H   0  0  0  0  0  0  0  0  0  0  0  0
   56.9916   29.0121   42.6849 H   0  0  0  0  0  0  0  0  0  0  0  0
   59.0570   27.6126   44.9230 H   0  0  0  0  0  0  0  0  0  0  0  0
   61.3638   30.4222   47.0980 H   0  0  0  0  0  0  0  0  0  0  0  0
   60.5963   31.0629   45.6035 H   0  0  0  0  0  0  0  0  0  0  0  0
   59.2339   30.2091   48.2061 H   0  0  0  0  0  0  0  0  0  0  0  0
   59.2460   31.8362   47.4410 H   0  0  0  0  0  0  0  0  0  0  0  0
   57.7518   34.3082   47.8944 H   0  0  0  0  0  0  0  0  0  0  0  0
   60.6521   32.7456   50.7421 H   0  0  0  0  0  0  0  0  0  0  0  0
   59.4494   33.6582   51.7338 H   0  0  0  0  0  0  0  0  0  0  0  0
   58.1572   31.8159   51.3016 H   0  0  0  0  0  0  0  0  0  0  0  0
   57.8073   32.7205   49.7897 H   0  0  0  0  0  0  0  0  0  0  0  0
   59.0399   31.4139   49.7897 H   0  0  0  0  0  0  0  0  0  0  0  0
  1  2  1  0
  2  3  1  0
  3  4  1  0
  4  5  2  0
  5  6  1  0
  6  7  2  0
  7  8  1  0
  8  9  1  0
  9 10  1  0
 10 11  1  0
 11 12  2  0
 11 13  1  0
 13 14  1  0
 14 15  1  0
 15 16  2  0
 15 17  1  0
 17 18  2  0
 18 19  1  0
 19 20  1  0
 20 21  1  0
 21 22  1  0
  7 23  1  0
 23 24  2  0
 24 25  1  0
 25 26  1  0
 26 27  1  0
 24  4  1  0
 22 17  1  0
  1 28  1  0
  1 29  1  0
  1 30  1  0
  2 31  1  0
  2 32  1  0
  5 33  1  0
  6 34  1  0
  8 35  1  0
  8 36  1  0
  9 37  1  0
  9 38  1  0
 10 39  1  0
 13 40  1  0
 13 41  1  0
 18 42  1  0
 20 43  1  0
 20 44  1  0
 21 45  1  0
 21 46  1  0
 23 47  1  0
 26 48  1  0
 26 49  1  0
 27 50  1  0
 27 51  1  0
 27 52  1  0
M  END
>  <UniqueID>  (42) 
41

>  <SMILES>  (42) 
CCOc1ccc(CCNC(=O)COC(=O)C2=COCCO2)cc1OCC

>  <Energy>  (42) 
37.1175836941194

>  <Genealogy>  (42) 
CCOc1ccc(CCNC(=O)COC(=O)C2=COCCO2)cc1OCC (3D coordinates assigned)
CCOc1ccc(CCNC(=O)COC(=O)C2=COCCO2)cc1OCC (nonaromatic ring conformer: 37.1175836941194 kcal/mol)

>  <smiles>  (42) 
CCOc1ccc(CCNC(=O)COC(=O)C2=COCCO2)cc1OCC

>  <score_type>  (42) 
oracle

>  <origin>  (42) 
adg

>  <m_score__min__energy>  (42) 
-6.6799999999999997

>  <m_primary>  (42) 
energy

$$$$
42:0
     RDKit          3D

 42 45  0  0  0  0  0  0  0  0999 V2000
   57.0660   31.3410   43.5970 C   0  0  0  0  0  0  0  0  0  0  0  0
   56.8390   32.0130   44.8320 O   0  0  0  0  0  0  0  0  0  0  0  0
   57.8280   32.6850   45.5680 C   0  0  0  0  0  0  0  0  0  0  0  0
   57.9070   34.0920   45.5900 C   0  0  0  0  0  0  0  0  0  0  0  0
   58.8770   34.7350   46.3630 C   0  0  0  0  0  0  0  0  0  0  0  0
   59.7760   33.9870   47.1220 C   0  0  0  0  0  0  0  0  0  0  0  0
   59.7130   32.5920   47.1060 C   0  0  0  0  0  0  0  0  0  0  0  0
   58.7510   31.9300   46.3240 C   0  0  0  0  0  0  0  0  0  0  0  0
   58.7120   30.4910   46.3070 N   0  0  0  0  0  0  0  0  0  0  0  0
   59.7850   29.6630   46.3520 C   0  0  0  0  0  0  0  0  0  0  0  0
   59.3230   28.3660   46.2660 C   0  0  0  0  0  0  0  0  0  0  0  0
   57.9690   28.4750   46.1340 C   0  0  0  0  0  0  0  0  0  0  0  0
   57.6070   29.7670   46.1650 N   0  0  0  0  0  0  0  0  0  0  0  0
   57.1380   27.3060   45.8780 C   0  0  0  0  0  0  0  0  0  0  0  0
   55.9120   27.4330   45.6140 O   0  0  0  0  0  0  0  0  0  0  0  0
   57.7810   26.0120   45.8850 N   0  0  0  0  0  0  0  0  0  0  0  0
   57.0340   24.8200   45.5870 C   0  0  0  0  0  0  0  0  0  0  0  0
   57.1140   24.2410   44.3110 C   0  0  0  0  0  0  0  0  0  0  0  0
   56.3970   23.0770   44.0190 C   0  0  0  0  0  0  0  0  0  0  0  0
   55.6000   22.4810   44.9990 C   0  0  0  0  0  0  0  0  0  0  0  0
   55.5200   23.0490   46.2750 C   0  0  0  0  0  0  0  0  0  0  0  0
   56.2350   24.2130   46.5700 C   0  0  0  0  0  0  0  0  0  0  0  0
   59.1520   25.8800   46.4320 C   0  0  0  0  0  0  0  0  0  0  0  0
   60.0620   27.0800   46.0710 C   0  0  0  0  0  0  0  0  0  0  0  0
   57.4123   30.3160   43.7956 H   0  0  0  0  0  0  0  0  0  0  0  0
   56.1296   31.3066   43.0208 H   0  0  0  0  0  0  0  0  0  0  0  0
   57.8314   31.8814   43.0208 H   0  0  0  0  0  0  0  0  0  0  0  0
   57.2000   34.6881   44.9944 H   0  0  0  0  0  0  0  0  0  0  0  0
   58.9315   35.8336   46.3728 H   0  0  0  0  0  0  0  0  0  0  0  0
   60.5354   34.4960   47.7338 H   0  0  0  0  0  0  0  0  0  0  0  0
   60.4219   32.0068   47.7102 H   0  0  0  0  0  0  0  0  0  0  0  0
   60.8372   29.9710   46.4413 H   0  0  0  0  0  0  0  0  0  0  0  0
   56.6430   30.1470   46.0270 H   0  0  0  0  0  0  0  0  0  0  0  0
   57.7435   24.7051   43.5375 H   0  0  0  0  0  0  0  0  0  0  0  0
   56.4606   22.6298   43.0160 H   0  0  0  0  0  0  0  0  0  0  0  0
   55.0356   21.5656   44.7677 H   0  0  0  0  0  0  0  0  0  0  0  0
   54.8934   22.5788   47.0472 H   0  0  0  0  0  0  0  0  0  0  0  0
   56.1719   24.6553   47.5752 H   0  0  0  0  0  0  0  0  0  0  0  0
   59.0873   25.8054   47.5276 H   0  0  0  0  0  0  0  0  0  0  0  0
   59.6002   24.9796   45.9867 H   0  0  0  0  0  0  0  0  0  0  0  0
   60.9508   27.0698   46.7190 H   0  0  0  0  0  0  0  0  0  0  0  0
   60.3648   26.9964   45.0168 H   0  0  0  0  0  0  0  0  0  0  0  0
  1  2  1  0
  2  3  1  0
  3  4  2  0
  4  5  1  0
  5  6  2  0
  6  7  1  0
  7  8  2  0
  8  9  1  0
  9 10  1  0
 10 11  2  0
 11 12  1  0
 12 13  2  0
 12 14  1  0
 14 15  2  0
 14 16  1  0
 16 17  1  0
 17 18  2  0
 18 19  1  0
 19 20  2  0
 20 21  1  0
 21 22  2  0
 16 23  1  0
 23 24  1  0
  8  3  1  0
 13  9  1  0
 22 17  1  0
 24 11  1  0
  1 25  1  0
  1 26  1  0
  1 27  1  0
  4 28  1  0
  5 29  1  0
  6 30  1  0
  7 31  1  0
 10 32  1  0
 13 33  1  0
 18 34  1  0
 19 35  1  0
 20 36  1  0
 21 37  1  0
 22 38  1  0
 23 39  1  0
 23 40  1  0
 24 41  1  0
 24 42  1  0
M  CHG  1  13   1
M  END
>  <UniqueID>  (43) 
42

>  <SMILES>  (43) 
COc1ccccc1-n1cc2c([nH+]1)C(=O)N(c1ccccc1)CC2

>  <Energy>  (43) 
91.74767536045898

>  <Genealogy>  (43) 
COc1ccccc1-n1cc2c([nH+]1)C(=O)N(c1ccccc1)CC2 (protonated)
COc1ccccc1-n1cc2c([nH+]1)C(=O)N(c1ccccc1)CC2 (3D coordinates assigned)
COc1ccccc1-n1cc2c([nH+]1)C(=O)N(c1ccccc1)CC2 (nonaromatic ring conformer: 91.74767536045898 kcal/mol)

>  <smiles>  (43) 
COc1ccccc1-n1cc2c(n1)C(=O)N(c1ccccc1)CC2

>  <score_type>  (43) 
oracle

>  <origin>  (43) 
adg

>  <m_score__min__energy>  (43) 
-6.3799999999999999

>  <m_primary>  (43) 
energy

$$$$
43:0
     RDKit          3D

 54 56  0  0  0  0  0  0  0  0999 V2000
   64.0010   33.0910   48.0030 C   0  0  0  0  0  0  0  0  0  0  0  0
   62.7090   33.1170   48.5970 O   0  0  0  0  0  0  0  0  0  0  0  0
   61.5650   33.6560   47.9870 C   0  0  0  0  0  0  0  0  0  0  0  0
   61.4690   33.8210   46.5920 C   0  0  0  0  0  0  0  0  0  0  0  0
   60.3060   34.3430   46.0220 C   0  0  0  0  0  0  0  0  0  0  0  0
   59.2350   34.7150   46.8350 C   0  0  0  0  0  0  0  0  0  0  0  0
   59.3200   34.5610   48.2200 C   0  0  0  0  0  0  0  0  0  0  0  0
   60.4830   34.0190   48.8050 C   0  0  0  0  0  0  0  0  0  0  0  0
   60.5930   33.8020   50.1890 O   0  0  0  0  0  0  0  0  0  0  0  0
   59.5040   33.5350   51.0740 C   0  0  0  0  0  0  0  0  0  0  0  0
   58.7690   32.2860   50.6680 C   0  0  0  0  0  0  0  0  0  0  0  0
   57.5120   32.3330   50.5730 O   0  0  0  0  0  0  0  0  0  0  0  0
   59.4610   31.0570   50.3650 N   0  0  0  0  0  0  0  0  0  0  0  0
   58.7960   30.0530   49.5290 C   0  0  0  0  0  0  0  0  0  0  0  0
   59.7920   28.9790   49.0570 C   0  0  0  0  0  0  0  0  0  0  0  0
   61.1280   29.5520   48.7610 N   0  0  0  0  0  0  0  0  0  0  0  0
   61.1120   30.5090   47.6230 C   0  0  0  0  0  0  0  0  0  0  0  0
   59.9270   30.3090   46.7070 C   0  0  0  0  0  0  0  0  0  0  0  0
   58.9490   31.3090   46.5880 C   0  0  0  0  0  0  0  0  0  0  0  0
   57.8550   31.1280   45.7370 C   0  0  0  0  0  0  0  0  0  0  0  0
   57.7290   29.9460   44.9980 C   0  0  0  0  0  0  0  0  0  0  0  0
   56.3240   29.7130   43.9060 S   0  0  0  0  0  0  0  0  0  0  0  0
   56.9650   30.8540   42.6420 C   0  0  0  0  0  0  0  0  0  0  0  0
   58.6940   28.9410   45.1220 C   0  0  0  0  0  0  0  0  0  0  0  0
   59.7880   29.1200   45.9720 C   0  0  0  0  0  0  0  0  0  0  0  0
   61.7460   30.1670   49.9720 C   0  0  0  0  0  0  0  0  0  0  0  0
   60.7320   30.6980   51.0060 C   0  0  0  0  0  0  0  0  0  0  0  0
   64.7671   33.0756   48.7922 H   0  0  0  0  0  0  0  0  0  0  0  0
   64.0995   32.1907   47.3787 H   0  0  0  0  0  0  0  0  0  0  0  0
   64.1356   33.9866   47.3787 H   0  0  0  0  0  0  0  0  0  0  0  0
   62.3144   33.5373   45.9479 H   0  0  0  0  0  0  0  0  0  0  0  0
   60.2342   34.4610   44.9307 H   0  0  0  0  0  0  0  0  0  0  0  0
   58.3218   35.1305   46.3839 H   0  0  0  0  0  0  0  0  0  0  0  0
   58.4763   34.8637   48.8576 H   0  0  0  0  0  0  0  0  0  0  0  0
   59.8938   33.4067   52.0946 H   0  0  0  0  0  0  0  0  0  0  0  0
   58.8034   34.3820   51.0311 H   0  0  0  0  0  0  0  0  0  0  0  0
   57.9975   29.5712   50.1124 H   0  0  0  0  0  0  0  0  0  0  0  0
   58.3782   30.5556   48.6443 H   0  0  0  0  0  0  0  0  0  0  0  0
   59.8978   28.2210   49.8471 H   0  0  0  0  0  0  0  0  0  0  0  0
   59.3995   28.5354   48.1301 H   0  0  0  0  0  0  0  0  0  0  0  0
   61.7440   28.7520   48.4820 H   0  0  0  0  0  0  0  0  0  0  0  0
   61.0770   31.5324   48.0248 H   0  0  0  0  0  0  0  0  0  0  0  0
   62.0221   30.3345   47.0304 H   0  0  0  0  0  0  0  0  0  0  0  0
   59.0440   32.2394   47.1671 H   0  0  0  0  0  0  0  0  0  0  0  0
   57.0921   31.9155   45.6480 H   0  0  0  0  0  0  0  0  0  0  0  0
   57.4471   31.7121   43.1332 H   0  0  0  0  0  0  0  0  0  0  0  0
   57.7008   30.3300   42.0143 H   0  0  0  0  0  0  0  0  0  0  0  0
   56.1347   31.2098   42.0143 H   0  0  0  0  0  0  0  0  0  0  0  0
   58.5912   28.0077   44.5489 H   0  0  0  0  0  0  0  0  0  0  0  0
   60.5439   28.3264   46.0662 H   0  0  0  0  0  0  0  0  0  0  0  0
   62.3713   29.4067   50.4627 H   0  0  0  0  0  0  0  0  0  0  0  0
   62.3222   31.0365   49.6228 H   0  0  0  0  0  0  0  0  0  0  0  0
   60.5464   29.9188   51.7599 H   0  0  0  0  0  0  0  0  0  0  0  0
   61.1525   31.5992   51.4762 H   0  0  0  0  0  0  0  0  0  0  0  0
  1  2  1  0
  2  3  1  0
  3  4  2  0
  4  5  1  0
  5  6  2  0
  6  7  1  0
  7  8  2  0
  8  9  1  0
  9 10  1  0
 10 11  1  0
 11 12  2  0
 11 13  1  0
 13 14  1  0
 14 15  1  0
 15 16  1  0
 16 17  1  0
 17 18  1  0
 18 19  2  0
 19 20  1  0
 20 21  2  0
 21 22  1  0
 22 23  1  0
 21 24  1  0
 24 25  2  0
 16 26  1  0
 26 27  1  0
  8  3  1  0
 27 13  1  0
 25 18  1  0
  1 28  1  0
  1 29  1  0
  1 30  1  0
  4 31  1  0
  5 32  1  0
  6 33  1  0
  7 34  1  0
 10 35  1  0
 10 36  1  0
 14 37  1  0
 14 38  1  0
 15 39  1  0
 15 40  1  0
 16 41  1  0
 17 42  1  0
 17 43  1  0
 19 44  1  0
 20 45  1  0
 23 46  1  0
 23 47  1  0
 23 48  1  0
 24 49  1  0
 25 50  1  0
 26 51  1  0
 26 52  1  0
 27 53  1  0
 27 54  1  0
M  CHG  1  16   1
M  END
>  <UniqueID>  (44) 
43

>  <SMILES>  (44) 
COc1ccccc1OCC(=O)N1CC[NH+](Cc2ccc(SC)cc2)CC1

>  <Energy>  (44) 
55.83118995495201

>  <Genealogy>  (44) 
COc1ccccc1OCC(=O)N1CC[NH+](Cc2ccc(SC)cc2)CC1 (protonated)
COc1ccccc1OCC(=O)N1CC[NH+](Cc2ccc(SC)cc2)CC1 (3D coordinates assigned)
COc1ccccc1OCC(=O)N1CC[NH+](Cc2ccc(SC)cc2)CC1 (nonaromatic ring conformer: 55.83118995495201 kcal/mol)

>  <smiles>  (44) 
COc1ccccc1OCC(=O)N1CCN(Cc2ccc(SC)cc2)CC1

>  <score_type>  (44) 
oracle

>  <origin>  (44) 
adg

>  <m_score__min__energy>  (44) 
-6.2400000000000002

>  <m_primary>  (44) 
energy

$$$$
44:0
     RDKit          3D

 40 41  0  0  0  0  0  0  0  0999 V2000
   57.7830   26.3280   43.8040 C   0  0  0  0  0  0  0  0  0  0  0  0
   58.5610   26.9010   44.9580 C   0  0  0  0  0  0  0  0  0  0  0  0
   59.1090   26.0360   45.9200 C   0  0  0  0  0  0  0  0  0  0  0  0
   59.8380   26.5460   46.9970 C   0  0  0  0  0  0  0  0  0  0  0  0
   60.0170   27.9220   47.1310 C   0  0  0  0  0  0  0  0  0  0  0  0
   59.4680   28.7950   46.1890 C   0  0  0  0  0  0  0  0  0  0  0  0
   58.7420   28.2970   45.0920 C   0  0  0  0  0  0  0  0  0  0  0  0
   58.1470   29.2030   44.1480 N   0  0  0  0  0  0  0  0  0  0  0  0
   56.7990   29.6880   44.2550 C   0  0  0  0  0  0  0  0  0  0  0  0
   56.0690   29.3570   45.2260 O   0  0  0  0  0  0  0  0  0  0  0  0
   56.2820   30.6550   43.2350 C   0  0  0  0  0  0  0  0  0  0  0  0
   57.4120   31.2070   42.4850 N   0  0  0  0  0  0  0  0  0  0  0  0
   58.0330   32.3230   43.2060 C   0  0  0  0  0  0  0  0  0  0  0  0
   57.2620   32.6120   44.4970 C   0  0  0  0  0  0  0  0  0  0  0  0
   58.1450   33.2840   45.5180 C   0  0  0  0  0  0  0  0  0  0  0  0
   58.8970   34.4190   45.1710 C   0  0  0  0  0  0  0  0  0  0  0  0
   59.6730   35.0720   46.1330 C   0  0  0  0  0  0  0  0  0  0  0  0
   59.6990   34.6020   47.4490 C   0  0  0  0  0  0  0  0  0  0  0  0
   58.9480   33.4790   47.8050 C   0  0  0  0  0  0  0  0  0  0  0  0
   58.1700   32.8230   46.8450 C   0  0  0  0  0  0  0  0  0  0  0  0
   56.9532   25.7169   44.1887 H   0  0  0  0  0  0  0  0  0  0  0  0
   57.3810   27.1474   43.1900 H   0  0  0  0  0  0  0  0  0  0  0  0
   58.4462   25.7010   43.1900 H   0  0  0  0  0  0  0  0  0  0  0  0
   58.9630   24.9499   45.8245 H   0  0  0  0  0  0  0  0  0  0  0  0
   60.2714   25.8608   47.7404 H   0  0  0  0  0  0  0  0  0  0  0  0
   60.5915   28.3209   47.9800 H   0  0  0  0  0  0  0  0  0  0  0  0
   59.6044   29.8802   46.3059 H   0  0  0  0  0  0  0  0  0  0  0  0
   58.7530   29.6150   43.4040 H   0  0  0  0  0  0  0  0  0  0  0  0
   55.6008   30.1347   42.5456 H   0  0  0  0  0  0  0  0  0  0  0  0
   55.7366   31.4679   43.7367 H   0  0  0  0  0  0  0  0  0  0  0  0
   58.1290   30.4510   42.3730 H   0  0  0  0  0  0  0  0  0  0  0  0
   59.0724   32.0620   43.4541 H   0  0  0  0  0  0  0  0  0  0  0  0
   58.0131   33.2186   42.5676 H   0  0  0  0  0  0  0  0  0  0  0  0
   56.4119   33.2713   44.2678 H   0  0  0  0  0  0  0  0  0  0  0  0
   56.9094   31.6573   44.9144 H   0  0  0  0  0  0  0  0  0  0  0  0
   58.8750   34.7954   44.1377 H   0  0  0  0  0  0  0  0  0  0  0  0
   60.2639   35.9568   45.8539 H   0  0  0  0  0  0  0  0  0  0  0  0
   60.3109   35.1164   48.2046 H   0  0  0  0  0  0  0  0  0  0  0  0
   58.9684   33.1102   48.8411 H   0  0  0  0  0  0  0  0  0  0  0  0
   57.5754   31.9426   47.1303 H   0  0  0  0  0  0  0  0  0  0  0  0
  1  2  1  0
  2  3  2  0
  3  4  1  0
  4  5  2  0
  5  6  1  0
  6  7  2  0
  7  8  1  0
  8  9  1  0
  9 10  2  0
  9 11  1  0
 11 12  1  0
 12 13  1  0
 13 14  1  0
 14 15  1  0
 15 16  2  0
 16 17  1  0
 17 18  2  0
 18 19  1  0
 19 20  2  0
  7  2  1  0
 20 15  1  0
  1 21  1  0
  1 22  1  0
  1 23  1  0
  3 24  1  0
  4 25  1  0
  5 26  1  0
  6 27  1  0
  8 28  1  0
 11 29  1  0
 11 30  1  0
 12 31  1  0
 13 32  1  0
 13 33  1  0
 14 34  1  0
 14 35  1  0
 16 36  1  0
 17 37  1  0
 18 38  1  0
 19 39  1  0
 20 40  1  0
M  END
>  <UniqueID>  (45) 
44

>  <SMILES>  (45) 
Cc1ccccc1NC(=O)CNCCc1ccccc1

>  <Energy>  (45) 
37.08022035779692

>  <Genealogy>  (45) 
Cc1ccccc1NC(=O)CNCCc1ccccc1 (3D coordinates assigned)
Cc1ccccc1NC(=O)CNCCc1ccccc1 (optimized conformer: 37.08022035779692 kcal/mol)

>  <smiles>  (45) 
Cc1ccccc1NC(=O)CNCCc1ccccc1

>  <score_type>  (45) 
oracle

>  <origin>  (45) 
adg

>  <m_score__min__energy>  (45) 
-7.9199999999999999

>  <m_primary>  (45) 
energy

$$$$
45:0
     RDKit          3D

 36 38  0  0  0  0  0  0  0  0999 V2000
   55.1340   30.4810   44.8080 O   0  0  0  0  0  0  0  0  0  0  0  0
   55.7140   29.4160   44.4700 C   0  0  0  0  0  0  0  0  0  0  0  0
   55.5670   28.2750   45.2470 O   0  0  0  0  0  0  0  0  0  0  0  0
   56.5980   29.3910   43.2610 C   0  0  0  0  0  0  0  0  0  0  0  0
   57.2170   30.7660   42.9850 C   0  0  0  0  0  0  0  0  0  0  0  0
   57.7850   31.3790   44.2370 C   0  0  0  0  0  0  0  0  0  0  0  0
   57.2820   32.5260   44.7630 N   0  0  0  0  0  0  0  0  0  0  0  0
   58.0760   32.7490   45.8250 C   0  0  0  0  0  0  0  0  0  0  0  0
   57.9970   33.8030   46.7320 C   0  0  0  0  0  0  0  0  0  0  0  0
   58.9350   33.8370   47.7800 C   0  0  0  0  0  0  0  0  0  0  0  0
   59.9190   32.8290   47.8920 C   0  0  0  0  0  0  0  0  0  0  0  0
   59.9730   31.7780   46.9570 C   0  0  0  0  0  0  0  0  0  0  0  0
   59.0260   31.7750   45.9280 C   0  0  0  0  0  0  0  0  0  0  0  0
   58.8620   30.8960   44.9220 N   0  0  0  0  0  0  0  0  0  0  0  0
   59.6240   29.6690   44.6650 C   0  0  0  0  0  0  0  0  0  0  0  0
   59.3090   28.6210   45.7020 C   0  0  0  0  0  0  0  0  0  0  0  0
   58.3560   27.6210   45.4390 C   0  0  0  0  0  0  0  0  0  0  0  0
   58.0650   26.6520   46.4050 C   0  0  0  0  0  0  0  0  0  0  0  0
   56.8680   25.4130   46.0720 Cl  0  0  0  0  0  0  0  0  0  0  0  0
   58.7270   26.6700   47.6370 C   0  0  0  0  0  0  0  0  0  0  0  0
   59.6830   27.6550   47.9020 C   0  0  0  0  0  0  0  0  0  0  0  0
   60.5170   27.6740   49.4450 Cl  0  0  0  0  0  0  0  0  0  0  0  0
   59.9760   28.6250   46.9390 C   0  0  0  0  0  0  0  0  0  0  0  0
   57.4057   28.6624   43.4246 H   0  0  0  0  0  0  0  0  0  0  0  0
   55.9845   29.1096   42.3924 H   0  0  0  0  0  0  0  0  0  0  0  0
   58.0233   30.6526   42.2454 H   0  0  0  0  0  0  0  0  0  0  0  0
   56.4262   31.4295   42.6051 H   0  0  0  0  0  0  0  0  0  0  0  0
   57.2273   34.5825   46.6323 H   0  0  0  0  0  0  0  0  0  0  0  0
   58.9022   34.6532   48.5167 H   0  0  0  0  0  0  0  0  0  0  0  0
   60.6476   32.8658   48.7153 H   0  0  0  0  0  0  0  0  0  0  0  0
   60.7334   30.9868   47.0331 H   0  0  0  0  0  0  0  0  0  0  0  0
   59.3615   29.2824   43.6692 H   0  0  0  0  0  0  0  0  0  0  0  0
   60.6979   29.9024   44.7119 H   0  0  0  0  0  0  0  0  0  0  0  0
   57.8370   27.6006   44.4693 H   0  0  0  0  0  0  0  0  0  0  0  0
   58.4955   25.9094   48.3971 H   0  0  0  0  0  0  0  0  0  0  0  0
   60.7324   29.3952   47.1505 H   0  0  0  0  0  0  0  0  0  0  0  0
  1  2  2  0
  2  3  1  0
  2  4  1  0
  4  5  1  0
  5  6  1  0
  6  7  2  0
  7  8  1  0
  8  9  2  0
  9 10  1  0
 10 11  2  0
 11 12  1  0
 12 13  2  0
 13 14  1  0
 14 15  1  0
 15 16  1  0
 16 17  2  0
 17 18  1  0
 18 19  1  0
 18 20  2  0
 20 21  1  0
 21 22  1  0
 21 23  2  0
 14  6  1  0
 23 16  1  0
 13  8  1  0
  4 24  1  0
  4 25  1  0
  5 26  1  0
  5 27  1  0
  9 28  1  0
 10 29  1  0
 11 30  1  0
 12 31  1  0
 15 32  1  0
 15 33  1  0
 17 34  1  0
 20 35  1  0
 23 36  1  0
M  CHG  1   3  -1
M  END
>  <UniqueID>  (46) 
45

>  <SMILES>  (46) 
O=C([O-])CCc1nc2ccccc2n1Cc1cc(Cl)cc(Cl)c1

>  <Energy>  (46) 
70.40035421338919

>  <Genealogy>  (46) 
O=C([O-])CCc1nc2ccccc2n1Cc1cc(Cl)cc(Cl)c1 (protonated)
O=C([O-])CCc1nc2ccccc2n1Cc1cc(Cl)cc(Cl)c1 (3D coordinates assigned)
O=C([O-])CCc1nc2ccccc2n1Cc1cc(Cl)cc(Cl)c1 (optimized conformer: 70.40035421338919 kcal/mol)

>  <smiles>  (46) 
O=C(O)CCc1nc2ccccc2n1Cc1cc(Cl)cc(Cl)c1

>  <score_type>  (46) 
oracle

>  <origin>  (46) 
adg

>  <m_score__min__energy>  (46) 
-10.630000000000001

>  <m_primary>  (46) 
energy

$$$$
46:0
     RDKit          3D

 67 69  0  0  0  0  0  0  0  0999 V2000
   58.1490   33.0740   47.7990 C   0  0  0  0  0  0  0  0  0  0  0  0
   57.6620   33.8020   46.5480 C   0  0  0  0  0  0  0  0  0  0  0  0
   58.3720   33.2970   45.3510 N   0  0  0  0  0  0  0  0  0  0  0  0
   59.4820   34.1980   44.9650 C   0  0  0  0  0  0  0  0  0  0  0  0
   59.6790   35.2780   46.0260 C   0  0  0  0  0  0  0  0  0  0  0  0
   57.4400   33.0620   44.2200 C   0  0  0  0  0  0  0  0  0  0  0  0
   57.4630   31.5880   43.8180 C   0  0  0  0  0  0  0  0  0  0  0  0
   56.4260   30.8480   44.5290 N   0  0  0  0  0  0  0  0  0  0  0  0
   56.6340   29.5830   45.1680 C   0  0  0  0  0  0  0  0  0  0  0  0
   55.8180   28.6490   44.9510 O   0  0  0  0  0  0  0  0  0  0  0  0
   57.7640   29.3560   46.0920 C   0  0  0  0  0  0  0  0  0  0  0  0
   58.7110   30.3750   46.2620 C   0  0  0  0  0  0  0  0  0  0  0  0
   59.8020   30.1990   47.1110 C   0  0  0  0  0  0  0  0  0  0  0  0
   59.9720   28.9920   47.8110 C   0  0  0  0  0  0  0  0  0  0  0  0
   61.0750   28.7830   48.7160 N   0  0  0  0  0  0  0  0  0  0  0  0
   61.3080   29.5550   49.9370 C   0  0  0  0  0  0  0  0  0  0  0  0
   60.6280   30.9250   49.8480 C   0  0  0  0  0  0  0  0  0  0  0  0
   61.5060   31.9050   49.1160 C   0  0  0  0  0  0  0  0  0  0  0  0
   62.5770   31.4450   48.3320 C   0  0  0  0  0  0  0  0  0  0  0  0
   63.4090   32.3550   47.6730 C   0  0  0  0  0  0  0  0  0  0  0  0
   63.1820   33.7280   47.7980 C   0  0  0  0  0  0  0  0  0  0  0  0
   62.1270   34.1940   48.5860 C   0  0  0  0  0  0  0  0  0  0  0  0
   61.2920   33.2870   49.2470 C   0  0  0  0  0  0  0  0  0  0  0  0
   59.0410   27.9590   47.6200 C   0  0  0  0  0  0  0  0  0  0  0  0
   57.9330   28.1230   46.7640 C   0  0  0  0  0  0  0  0  0  0  0  0
   56.9650   27.0630   46.6080 N   0  0  0  0  0  0  0  0  0  0  0  0
   57.3410   25.6720   46.3510 C   0  0  0  0  0  0  0  0  0  0  0  0
   56.1640   24.8930   45.8410 C   0  0  0  0  0  0  0  0  0  0  0  0
   56.3520   23.6850   45.1510 C   0  0  0  0  0  0  0  0  0  0  0  0
   55.2410   23.0030   44.6520 C   0  0  0  0  0  0  0  0  0  0  0  0
   53.9620   23.5290   44.8360 C   0  0  0  0  0  0  0  0  0  0  0  0
   53.8120   24.7390   45.5180 C   0  0  0  0  0  0  0  0  0  0  0  0
   54.9060   25.3910   45.9970 N   0  0  0  0  0  0  0  0  0  0  0  0
   57.7936   33.6053   48.6942 H   0  0  0  0  0  0  0  0  0  0  0  0
   57.7556   32.0468   47.8020 H   0  0  0  0  0  0  0  0  0  0  0  0
   59.2486   33.0455   47.8020 H   0  0  0  0  0  0  0  0  0  0  0  0
   56.5817   33.6333   46.4273 H   0  0  0  0  0  0  0  0  0  0  0  0
   57.8653   34.8775   46.6577 H   0  0  0  0  0  0  0  0  0  0  0  0
   60.4078   33.6122   44.8668 H   0  0  0  0  0  0  0  0  0  0  0  0
   59.2372   34.6780   44.0060 H   0  0  0  0  0  0  0  0  0  0  0  0
   59.5970   34.8283   47.0265 H   0  0  0  0  0  0  0  0  0  0  0  0
   60.6745   35.7307   45.9079 H   0  0  0  0  0  0  0  0  0  0  0  0
   58.9074   36.0531   45.9079 H   0  0  0  0  0  0  0  0  0  0  0  0
   56.4204   33.3400   44.5250 H   0  0  0  0  0  0  0  0  0  0  0  0
   57.7540   33.6741   43.3617 H   0  0  0  0  0  0  0  0  0  0  0  0
   57.2886   31.5054   42.7351 H   0  0  0  0  0  0  0  0  0  0  0  0
   58.4441   31.1638   44.0777 H   0  0  0  0  0  0  0  0  0  0  0  0
   58.5918   31.3243   45.7192 H   0  0  0  0  0  0  0  0  0  0  0  0
   60.5349   31.0100   47.2341 H   0  0  0  0  0  0  0  0  0  0  0  0
   61.7650   28.0290   48.4940 H   0  0  0  0  0  0  0  0  0  0  0  0
   60.8990   29.0038   50.7966 H   0  0  0  0  0  0  0  0  0  0  0  0
   62.3908   29.7044   50.0604 H   0  0  0  0  0  0  0  0  0  0  0  0
   59.6746   30.8212   49.3093 H   0  0  0  0  0  0  0  0  0  0  0  0
   60.4502   31.2999   50.8667 H   0  0  0  0  0  0  0  0  0  0  0  0
   62.7617   30.3649   48.2362 H   0  0  0  0  0  0  0  0  0  0  0  0
   64.2430   31.9898   47.0556 H   0  0  0  0  0  0  0  0  0  0  0  0
   63.8348   34.4427   47.2753 H   0  0  0  0  0  0  0  0  0  0  0  0
   61.9526   35.2754   48.6869 H   0  0  0  0  0  0  0  0  0  0  0  0
   60.4654   33.6572   49.8712 H   0  0  0  0  0  0  0  0  0  0  0  0
   59.1785   27.0039   48.1480 H   0  0  0  0  0  0  0  0  0  0  0  0
   55.9470   27.2940   46.6690 H   0  0  0  0  0  0  0  0  0  0  0  0
   58.1440   25.6474   45.5996 H   0  0  0  0  0  0  0  0  0  0  0  0
   57.6864   25.2181   47.2916 H   0  0  0  0  0  0  0  0  0  0  0  0
   57.3643   23.2801   45.0051 H   0  0  0  0  0  0  0  0  0  0  0  0
   55.3737   22.0524   44.1146 H   0  0  0  0  0  0  0  0  0  0  0  0
   53.0810   22.9966   44.4482 H   0  0  0  0  0  0  0  0  0  0  0  0
   52.8089   25.1649   45.6678 H   0  0  0  0  0  0  0  0  0  0  0  0
  1  2  1  0
  2  3  1  0
  3  4  1  0
  4  5  1  0
  3  6  1  0
  6  7  1  0
  7  8  1  0
  8  9  1  0
  9 10  2  0
  9 11  1  0
 11 12  2  0
 12 13  1  0
 13 14  2  0
 14 15  1  0
 15 16  1  0
 16 17  1  0
 17 18  1  0
 18 19  2  0
 19 20  1  0
 20 21  2  0
 21 22  1  0
 22 23  2  0
 14 24  1  0
 24 25  2  0
 25 26  1  0
 26 27  1  0
 27 28  1  0
 28 29  2  0
 29 30  1  0
 30 31  2  0
 31 32  1  0
 32 33  2  0
 25 11  1  0
 33 28  1  0
 23 18  1  0
  1 34  1  0
  1 35  1  0
  1 36  1  0
  2 37  1  0
  2 38  1  0
  4 39  1  0
  4 40  1  0
  5 41  1  0
  5 42  1  0
  5 43  1  0
  6 44  1  0
  6 45  1  0
  7 46  1  0
  7 47  1  0
 12 48  1  0
 13 49  1  0
 15 50  1  0
 16 51  1  0
 16 52  1  0
 17 53  1  0
 17 54  1  0
 19 55  1  0
 20 56  1  0
 21 57  1  0
 22 58  1  0
 23 59  1  0
 24 60  1  0
 26 61  1  0
 27 62  1  0
 27 63  1  0
 29 64  1  0
 30 65  1  0
 31 66  1  0
 32 67  1  0
M  CHG  1   8  -1
M  END
>  <UniqueID>  (47) 
46

>  <SMILES>  (47) 
CCN(CC)CC[N-]C(=O)c1ccc(NCCc2ccccc2)cc1NCc1ccccn1

>  <Energy>  (47) 
69.26459879088438

>  <Genealogy>  (47) 
CCN(CC)CC[N-]C(=O)c1ccc(NCCc2ccccc2)cc1NCc1ccccn1 (protonated)
CCN(CC)CC[N-]C(=O)c1ccc(NCCc2ccccc2)cc1NCc1ccccn1 (3D coordinates assigned)
CCN(CC)CC[N-]C(=O)c1ccc(NCCc2ccccc2)cc1NCc1ccccn1 (optimized conformer: 69.26459879088438 kcal/mol)

>  <smiles>  (47) 
CCN(CC)CCNC(=O)c1ccc(NCCc2ccccc2)cc1NCc1ccccn1

>  <score_type>  (47) 
oracle

>  <origin>  (47) 
adg

>  <m_score__min__energy>  (47) 
-11.08

>  <m_primary>  (47) 
energy

$$$$
47:0
     RDKit          3D

 31 32  0  0  0  0  0  0  0  0999 V2000
   61.2490   30.6420   49.5650 C   0  0  0  0  0  0  0  0  0  0  0  0
   61.1430   30.1230   48.1340 C   0  0  0  0  0  0  0  0  0  0  0  0
   61.3780   31.2020   47.1730 N   0  0  0  0  0  0  0  0  0  0  0  0
   60.5230   32.3560   47.0000 C   0  0  0  0  0  0  0  0  0  0  0  0
   59.1280   32.2640   47.2030 C   0  0  0  0  0  0  0  0  0  0  0  0
   58.3040   33.3750   47.0100 C   0  0  0  0  0  0  0  0  0  0  0  0
   58.8510   34.5930   46.6120 C   0  0  0  0  0  0  0  0  0  0  0  0
   60.2260   34.7080   46.4160 C   0  0  0  0  0  0  0  0  0  0  0  0
   61.0700   33.6070   46.6190 C   0  0  0  0  0  0  0  0  0  0  0  0
   62.8360   33.8450   46.3730 S   0  0  0  0  0  0  0  0  0  0  0  0
   63.2200   33.5050   48.0940 C   0  0  0  0  0  0  0  0  0  0  0  0
   62.5090   34.1500   49.1130 C   0  0  0  0  0  0  0  0  0  0  0  0
   62.8260   33.8770   50.4450 C   0  0  0  0  0  0  0  0  0  0  0  0
   63.8400   32.9670   50.7450 C   0  0  0  0  0  0  0  0  0  0  0  0
   64.5230   32.3370   49.7020 C   0  0  0  0  0  0  0  0  0  0  0  0
   64.2010   32.6130   48.4080 N   0  0  0  0  0  0  0  0  0  0  0  0
   61.0798   29.8138   50.2689 H   0  0  0  0  0  0  0  0  0  0  0  0
   62.2518   31.0635   49.7289 H   0  0  0  0  0  0  0  0  0  0  0  0
   60.4918   31.4229   49.7289 H   0  0  0  0  0  0  0  0  0  0  0  0
   61.8927   29.3329   47.9801 H   0  0  0  0  0  0  0  0  0  0  0  0
   60.1300   29.7241   47.9768 H   0  0  0  0  0  0  0  0  0  0  0  0
   62.2340   31.1020   46.5850 H   0  0  0  0  0  0  0  0  0  0  0  0
   58.6859   31.3068   47.5165 H   0  0  0  0  0  0  0  0  0  0  0  0
   57.2196   33.2881   47.1728 H   0  0  0  0  0  0  0  0  0  0  0  0
   58.1978   35.4636   46.4525 H   0  0  0  0  0  0  0  0  0  0  0  0
   60.6529   35.6710   46.0992 H   0  0  0  0  0  0  0  0  0  0  0  0
   61.7093   34.8641   48.8669 H   0  0  0  0  0  0  0  0  0  0  0  0
   62.2775   34.3783   51.2561 H   0  0  0  0  0  0  0  0  0  0  0  0
   64.0988   32.7480   51.7914 H   0  0  0  0  0  0  0  0  0  0  0  0
   65.3230   31.6161   49.9265 H   0  0  0  0  0  0  0  0  0  0  0  0
   64.7240   32.1300   47.6450 H   0  0  0  0  0  0  0  0  0  0  0  0
  1  2  1  0
  2  3  1  0
  3  4  1  0
  4  5  2  0
  5  6  1  0
  6  7  2  0
  7  8  1  0
  8  9  2  0
  9 10  1  0
 10 11  1  0
 11 12  2  0
 12 13  1  0
 13 14  2  0
 14 15  1  0
 15 16  2  0
  9  4  1  0
 16 11  1  0
  1 17  1  0
  1 18  1  0
  1 19  1  0
  2 20  1  0
  2 21  1  0
  3 22  1  0
  5 23  1  0
  6 24  1  0
  7 25  1  0
  8 26  1  0
 12 27  1  0
 13 28  1  0
 14 29  1  0
 15 30  1  0
 16 31  1  0
M  CHG  1  16   1
M  END
>  <UniqueID>  (48) 
47

>  <SMILES>  (48) 
CCNc1ccccc1Sc1cccc[nH+]1

>  <Energy>  (48) 
25.79079284388692

>  <Genealogy>  (48) 
CCNc1ccccc1Sc1cccc[nH+]1 (protonated)
CCNc1ccccc1Sc1cccc[nH+]1 (3D coordinates assigned)
CCNc1ccccc1Sc1cccc[nH+]1 (optimized conformer: 25.79079284388692 kcal/mol)

>  <smiles>  (48) 
CCNc1ccccc1Sc1ccccn1

>  <score_type>  (48) 
oracle

>  <origin>  (48) 
adg

>  <m_score__min__energy>  (48) 
-4.4699999999999998

>  <m_primary>  (48) 
energy

$$$$
