1:0
     RDKit          3D

 43 44  0  0  0  0  0  0  0  0999 V2000
   56.2780   29.7220   42.9050 C   0  0  0  0  0  0  0  0  0  0  0  0
   56.4910   29.8770   44.3890 C   0  0  0  0  0  0  0  0  0  0  0  0
   56.4880   31.2160   44.7940 O   0  0  0  0  0  0  0  0  0  0  0  0
   57.3970   32.1630   44.4070 C   0  0  0  0  0  0  0  0  0  0  0  0
   57.7070   32.2380   43.1690 O   0  0  0  0  0  0  0  0  0  0  0  0
   58.0480   33.1010   45.3110 C   0  0  0  0  0  0  0  0  0  0  0  0
   58.9140   33.9780   44.8880 C   0  0  0  0  0  0  0  0  0  0  0  0
   59.6350   34.9740   45.6930 C   0  0  0  0  0  0  0  0  0  0  0  0
   59.1680   34.9630   47.1030 C   0  0  0  0  0  0  0  0  0  0  0  0
   58.6180   33.7400   47.5880 N   0  0  0  0  0  0  0  0  0  0  0  0
   59.5030   32.9210   48.3400 C   0  0  0  0  0  0  0  0  0  0  0  0
   59.2990   31.4560   48.0970 C   0  0  0  0  0  0  0  0  0  0  0  0
   60.2450   30.9690   46.9900 C   0  0  0  0  0  0  0  0  0  0  0  0
   59.6810   29.7420   46.3740 C   0  0  0  0  0  0  0  0  0  0  0  0
   58.7730   29.0050   47.1240 C   0  0  0  0  0  0  0  0  0  0  0  0
   58.2170   27.8450   46.5920 C   0  0  0  0  0  0  0  0  0  0  0  0
   58.5970   27.4620   45.3050 C   0  0  0  0  0  0  0  0  0  0  0  0
   59.4980   28.1940   44.5620 C   0  0  0  0  0  0  0  0  0  0  0  0
   60.0490   29.3410   45.0880 C   0  0  0  0  0  0  0  0  0  0  0  0
   57.7210   33.0650   46.7500 C   0  0  0  0  0  0  0  0  0  0  0  0
   55.4005   29.0835   42.7252 H   0  0  0  0  0  0  0  0  0  0  0  0
   56.1105   30.7109   42.4533 H   0  0  0  0  0  0  0  0  0  0  0  0
   57.1675   29.2585   42.4533 H   0  0  0  0  0  0  0  0  0  0  0  0
   55.6856   29.3467   44.9182 H   0  0  0  0  0  0  0  0  0  0  0  0
   57.4787   29.4572   44.6304 H   0  0  0  0  0  0  0  0  0  0  0  0
   59.1292   33.9722   43.8093 H   0  0  0  0  0  0  0  0  0  0  0  0
   60.7105   34.7445   45.6692 H   0  0  0  0  0  0  0  0  0  0  0  0
   59.4423   35.9707   45.2694 H   0  0  0  0  0  0  0  0  0  0  0  0
   60.0277   35.2173   47.7404 H   0  0  0  0  0  0  0  0  0  0  0  0
   58.3392   35.6854   47.1376 H   0  0  0  0  0  0  0  0  0  0  0  0
   60.5366   33.1804   48.0674 H   0  0  0  0  0  0  0  0  0  0  0  0
   59.2981   33.1083   49.4044 H   0  0  0  0  0  0  0  0  0  0  0  0
   59.5068   30.9009   49.0237 H   0  0  0  0  0  0  0  0  0  0  0  0
   58.2587   31.2841   47.7836 H   0  0  0  0  0  0  0  0  0  0  0  0
   60.3490   31.7514   46.2238 H   0  0  0  0  0  0  0  0  0  0  0  0
   61.2337   30.7477   47.4183 H   0  0  0  0  0  0  0  0  0  0  0  0
   58.4943   29.3370   48.1350 H   0  0  0  0  0  0  0  0  0  0  0  0
   57.4977   27.2465   47.1703 H   0  0  0  0  0  0  0  0  0  0  0  0
   58.1645   26.5486   44.8705 H   0  0  0  0  0  0  0  0  0  0  0  0
   59.7764   27.8625   43.5507 H   0  0  0  0  0  0  0  0  0  0  0  0
   60.7687   29.9330   44.5036 H   0  0  0  0  0  0  0  0  0  0  0  0
   57.6903   32.0114   47.0646 H   0  0  0  0  0  0  0  0  0  0  0  0
   56.7581   33.5865   46.8547 H   0  0  0  0  0  0  0  0  0  0  0  0
  1  2  1  0
  2  3  1  0
  3  4  1  0
  4  5  2  0
  4  6  1  0
  6  7  2  0
  7  8  1  0
  8  9  1  0
  9 10  1  0
 10 11  1  0
 11 12  1  0
 12 13  1  0
 13 14  1  0
 14 15  2  0
 15 16  1  0
 16 17  2  0
 17 18  1  0
 18 19  2  0
 10 20  1  0
 20  6  1  0
 19 14  1  0
  1 21  1  0
  1 22  1  0
  1 23  1  0
  2 24  1  0
  2 25  1  0
  7 26  1  0
  8 27  1  0
  8 28  1  0
  9 29  1  0
  9 30  1  0
 11 31  1  0
 11 32  1  0
 12 33  1  0
 12 34  1  0
 13 35  1  0
 13 36  1  0
 15 37  1  0
 16 38  1  0
 17 39  1  0
 18 40  1  0
 19 41  1  0
 20 42  1  0
 20 43  1  0
M  END
>  <smiles>  (1) 
CCOC(=O)C1=CCCN(CCCc2ccccc2)C1

>  <score_type>  (1) 
oracle

>  <origin>  (1) 
adg

>  <m_score__min__energy>  (1) 
-7.1399999999999997

>  <m_primary>  (1) 
energy

$$$$
2:0
     RDKit          3D

 67 70  0  0  0  0  0  0  0  0999 V2000
   62.4400   30.5650   51.0390 C   0  0  0  0  0  0  0  0  0  0  0  0
   61.1730   30.3450   50.5590 O   0  0  0  0  0  0  0  0  0  0  0  0
   61.1640   29.2620   49.6780 C   0  0  0  0  0  0  0  0  0  0  0  0
   60.4340   29.4760   48.4120 C   0  0  0  0  0  0  0  0  0  0  0  0
   59.3430   30.4550   48.3970 N   0  0  0  0  0  0  0  0  0  0  0  0
   59.0580   31.2000   47.2280 C   0  0  0  0  0  0  0  0  0  0  0  0
   58.3560   30.4930   46.2430 C   0  0  0  0  0  0  0  0  0  0  0  0
   58.0810   29.1530   46.4110 C   0  0  0  0  0  0  0  0  0  0  0  0
   57.4150   28.3740   45.4940 C   0  0  0  0  0  0  0  0  0  0  0  0
   56.9960   28.9740   44.3320 C   0  0  0  0  0  0  0  0  0  0  0  0
   57.2630   30.3320   44.1340 C   0  0  0  0  0  0  0  0  0  0  0  0
   57.9350   31.0860   45.0750 C   0  0  0  0  0  0  0  0  0  0  0  0
   58.1970   32.3830   44.8510 N   0  0  0  0  0  0  0  0  0  0  0  0
   57.7730   33.0820   43.6630 C   0  0  0  0  0  0  0  0  0  0  0  0
   58.8750   33.0800   45.7800 C   0  0  0  0  0  0  0  0  0  0  0  0
   59.1540   34.3980   45.4920 C   0  0  0  0  0  0  0  0  0  0  0  0
   59.8750   35.1460   46.3890 C   0  0  0  0  0  0  0  0  0  0  0  0
   60.3030   34.5570   47.5530 C   0  0  0  0  0  0  0  0  0  0  0  0
   60.0430   33.2270   47.8840 C   0  0  0  0  0  0  0  0  0  0  0  0
   60.6040   32.7480   49.0740 N   0  0  0  0  0  0  0  0  0  0  0  0
   60.5780   33.6060   50.2870 C   0  0  0  0  0  0  0  0  0  0  0  0
   59.2200   33.5170   50.9410 C   0  0  0  0  0  0  0  0  0  0  0  0
   59.4040   33.0030   52.3440 C   0  0  0  0  0  0  0  0  0  0  0  0
   58.4460   31.9830   52.6920 N   0  0  0  0  0  0  0  0  0  0  0  0
   58.1270   32.1380   54.1000 C   0  0  0  0  0  0  0  0  0  0  0  0
   59.0110   30.6540   52.5460 C   0  0  0  0  0  0  0  0  0  0  0  0
   58.3280   29.8630   51.4560 C   0  0  0  0  0  0  0  0  0  0  0  0
   56.9660   29.7100   51.6780 O   0  0  0  0  0  0  0  0  0  0  0  0
   56.3740   30.8630   52.1840 C   0  0  0  0  0  0  0  0  0  0  0  0
   57.2150   32.0990   51.9450 C   0  0  0  0  0  0  0  0  0  0  0  0
   59.3190   32.5050   46.9800 C   0  0  0  0  0  0  0  0  0  0  0  0
   62.4211   30.5617   52.1388 H   0  0  0  0  0  0  0  0  0  0  0  0
   63.1108   29.7699   50.6814 H   0  0  0  0  0  0  0  0  0  0  0  0
   62.8035   31.5397   50.6814 H   0  0  0  0  0  0  0  0  0  0  0  0
   62.2077   29.0186   49.4300 H   0  0  0  0  0  0  0  0  0  0  0  0
   60.6311   28.4536   50.2000 H   0  0  0  0  0  0  0  0  0  0  0  0
   61.1709   29.7977   47.6613 H   0  0  0  0  0  0  0  0  0  0  0  0
   59.9383   28.5134   48.2178 H   0  0  0  0  0  0  0  0  0  0  0  0
   58.7750   30.6570   49.2770 H   0  0  0  0  0  0  0  0  0  0  0  0
   58.4172   28.6738   47.3423 H   0  0  0  0  0  0  0  0  0  0  0  0
   57.2246   27.3075   45.6847 H   0  0  0  0  0  0  0  0  0  0  0  0
   56.4578   28.3942   43.5677 H   0  0  0  0  0  0  0  0  0  0  0  0
   56.9284   30.8128   43.2029 H   0  0  0  0  0  0  0  0  0  0  0  0
   57.2221   33.9902   43.9489 H   0  0  0  0  0  0  0  0  0  0  0  0
   58.6547   33.3603   43.0670 H   0  0  0  0  0  0  0  0  0  0  0  0
   57.1188   32.4287   43.0670 H   0  0  0  0  0  0  0  0  0  0  0  0
   58.8021   34.8470   44.5515 H   0  0  0  0  0  0  0  0  0  0  0  0
   60.1062   36.2006   46.1786 H   0  0  0  0  0  0  0  0  0  0  0  0
   60.8819   35.1664   48.2626 H   0  0  0  0  0  0  0  0  0  0  0  0
   61.0760   31.8600   49.2790 H   0  0  0  0  0  0  0  0  0  0  0  0
   61.3480   33.2638   50.9941 H   0  0  0  0  0  0  0  0  0  0  0  0
   60.7782   34.6491   50.0011 H   0  0  0  0  0  0  0  0  0  0  0  0
   58.7541   34.5131   50.9679 H   0  0  0  0  0  0  0  0  0  0  0  0
   58.5685   32.8383   50.3710 H   0  0  0  0  0  0  0  0  0  0  0  0
   60.4159   32.5813   52.4346 H   0  0  0  0  0  0  0  0  0  0  0  0
   59.2535   33.8490   53.0307 H   0  0  0  0  0  0  0  0  0  0  0  0
   58.9510   31.7376   54.7089 H   0  0  0  0  0  0  0  0  0  0  0  0
   57.9867   33.2047   54.3289 H   0  0  0  0  0  0  0  0  0  0  0  0
   57.2016   31.5891   54.3289 H   0  0  0  0  0  0  0  0  0  0  0  0
   60.0791   30.7477   52.3001 H   0  0  0  0  0  0  0  0  0  0  0  0
   58.8656   30.1179   53.4954 H   0  0  0  0  0  0  0  0  0  0  0  0
   58.4720   30.3858   50.4989 H   0  0  0  0  0  0  0  0  0  0  0  0
   58.7773   28.8590   51.4428 H   0  0  0  0  0  0  0  0  0  0  0  0
   55.3975   31.0011   51.6969 H   0  0  0  0  0  0  0  0  0  0  0  0
   56.2689   30.7353   53.2715 H   0  0  0  0  0  0  0  0  0  0  0  0
   57.4418   32.1888   50.8724 H   0  0  0  0  0  0  0  0  0  0  0  0
   56.6639   32.9923   52.2740 H   0  0  0  0  0  0  0  0  0  0  0  0
  1  2  1  0
  2  3  1  0
  3  4  1  0
  4  5  1  0
  5  6  1  0
  6  7  2  0
  7  8  1  0
  8  9  2  0
  9 10  1  0
 10 11  2  0
 11 12  1  0
 12 13  2  0
 13 14  1  0
 13 15  1  0
 15 16  2  0
 16 17  1  0
 17 18  2  0
 18 19  1  0
 19 20  1  0
 20 21  1  0
 21 22  1  0
 22 23  1  0
 23 24  1  0
 24 25  1  0
 24 26  1  0
 26 27  1  0
 27 28  1  0
 28 29  1  0
 29 30  1  0
 19 31  2  0
 31  6  1  0
 12  7  1  0
 31 15  1  0
 30 24  1  0
  1 32  1  0
  1 33  1  0
  1 34  1  0
  3 35  1  0
  3 36  1  0
  4 37  1  0
  4 38  1  0
  5 39  1  0
  8 40  1  0
  9 41  1  0
 10 42  1  0
 11 43  1  0
 14 44  1  0
 14 45  1  0
 14 46  1  0
 16 47  1  0
 17 48  1  0
 18 49  1  0
 20 50  1  0
 21 51  1  0
 21 52  1  0
 22 53  1  0
 22 54  1  0
 23 55  1  0
 23 56  1  0
 25 57  1  0
 25 58  1  0
 25 59  1  0
 26 60  1  0
 26 61  1  0
 27 62  1  0
 27 63  1  0
 29 64  1  0
 29 65  1  0
 30 66  1  0
 30 67  1  0
M  CHG  2  13   1  24   1
M  END
>  <smiles>  (2) 
COCCNc1c2ccccc2[n+](C)c2cccc(NCCC[N+]3(C)CCOCC3)c12

>  <score_type>  (2) 
oracle

>  <origin>  (2) 
adg

>  <m_score__min__energy>  (2) 
-4.9199999999999999

>  <m_primary>  (2) 
energy

$$$$
3:0
     RDKit          3D

 25 24  0  0  0  0  0  0  0  0999 V2000
   58.0800   34.1200   45.6260 C   0  0  0  0  0  0  0  0  0  0  0  0
   57.0210   33.0710   46.0000 C   0  0  0  0  0  0  0  0  0  0  0  0
   56.7660   32.2580   44.8610 N   0  0  0  0  0  0  0  0  0  0  0  0
   57.8250   32.3220   43.8900 C   0  0  0  0  0  0  0  0  0  0  0  0
   57.4090   31.6030   42.6410 C   0  0  0  0  0  0  0  0  0  0  0  0
   56.3820   30.7290   42.9340 O   0  0  0  0  0  0  0  0  0  0  0  0
   56.5910   29.4080   42.6410 C   0  0  0  0  0  0  0  0  0  0  0  0
   57.2370   28.7680   43.8840 C   0  0  0  0  0  0  0  0  0  0  0  0
   56.5710   29.3130   45.0470 N   0  0  0  0  0  0  0  0  0  0  0  0
   55.3140   29.4190   45.1260 O   0  0  0  0  0  0  0  0  0  0  0  0
   57.4000   29.7260   46.0900 O   0  0  0  0  0  0  0  0  0  0  0  0
   58.5120   34.5479   46.5427 H   0  0  0  0  0  0  0  0  0  0  0  0
   58.8751   33.6434   45.0338 H   0  0  0  0  0  0  0  0  0  0  0  0
   57.6110   34.9196   45.0338 H   0  0  0  0  0  0  0  0  0  0  0  0
   57.3933   32.4464   46.8254 H   0  0  0  0  0  0  0  0  0  0  0  0
   56.0946   33.5699   46.3208 H   0  0  0  0  0  0  0  0  0  0  0  0
   56.4090   31.3190   45.0360 H   0  0  0  0  0  0  0  0  0  0  0  0
   58.0399   33.3742   43.6520 H   0  0  0  0  0  0  0  0  0  0  0  0
   58.7266   31.8452   44.3020 H   0  0  0  0  0  0  0  0  0  0  0  0
   57.0665   32.3340   41.8938 H   0  0  0  0  0  0  0  0  0  0  0  0
   58.2650   31.0414   42.2387 H   0  0  0  0  0  0  0  0  0  0  0  0
   55.6338   28.9148   42.4164 H   0  0  0  0  0  0  0  0  0  0  0  0
   57.2413   29.2992   41.7605 H   0  0  0  0  0  0  0  0  0  0  0  0
   57.1083   27.6759   43.8544 H   0  0  0  0  0  0  0  0  0  0  0  0
   58.3149   28.9849   43.9166 H   0  0  0  0  0  0  0  0  0  0  0  0
  1  2  1  0
  2  3  1  0
  3  4  1  0
  4  5  1  0
  5  6  1  0
  6  7  1  0
  7  8  1  0
  8  9  1  0
  9 10  2  0
  9 11  1  0
  1 12  1  0
  1 13  1  0
  1 14  1  0
  2 15  1  0
  2 16  1  0
  3 17  1  0
  4 18  1  0
  4 19  1  0
  5 20  1  0
  5 21  1  0
  7 22  1  0
  7 23  1  0
  8 24  1  0
  8 25  1  0
M  CHG  2   9   1  11  -1
M  END
>  <smiles>  (3) 
CCNCCOCC[N+](=O)[O-]

>  <score_type>  (3) 
oracle

>  <origin>  (3) 
adg

>  <m_score__min__energy>  (3) 
-4.3399999999999999

>  <m_primary>  (3) 
energy

$$$$
4:0
     RDKit          3D

 78 81  0  0  0  0  0  0  0  0999 V2000
   57.6050   32.3310   41.5450 C   0  0  0  0  0  0  0  0  0  0  0  0
   58.0960   32.6220   42.9050 C   0  0  0  0  0  0  0  0  0  0  0  0
   57.7170   31.6110   43.9340 N   0  0  0  0  0  0  0  0  0  0  0  0
   57.0920   32.3540   44.9980 C   0  0  0  0  0  0  0  0  0  0  0  0
   57.8030   33.5790   45.4560 C   0  0  0  0  0  0  0  0  0  0  0  0
   56.8860   30.6360   43.2730 C   0  0  0  0  0  0  0  0  0  0  0  0
   55.7410   30.1540   44.1130 C   0  0  0  0  0  0  0  0  0  0  0  0
   56.2750   29.4390   45.2110 O   0  0  0  0  0  0  0  0  0  0  0  0
   57.0060   28.3200   44.8180 C   0  0  0  0  0  0  0  0  0  0  0  0
   58.2820   28.1800   45.6090 C   0  0  0  0  0  0  0  0  0  0  0  0
   58.1880   28.5710   46.9330 O   0  0  0  0  0  0  0  0  0  0  0  0
   58.9360   29.4450   47.6450 C   0  0  0  0  0  0  0  0  0  0  0  0
   59.1810   29.4380   48.9920 C   0  0  0  0  0  0  0  0  0  0  0  0
   59.9840   30.3970   49.6200 C   0  0  0  0  0  0  0  0  0  0  0  0
   60.5630   31.3990   48.8760 C   0  0  0  0  0  0  0  0  0  0  0  0
   60.3370   31.4330   47.5360 C   0  0  0  0  0  0  0  0  0  0  0  0
   59.5440   30.4850   46.9210 C   0  0  0  0  0  0  0  0  0  0  0  0
   60.9200   32.4810   46.6740 C   0  0  0  0  0  0  0  0  0  0  0  0
   61.7950   33.4640   47.3190 C   0  0  0  0  0  0  0  0  0  0  0  0
   61.9770   33.3760   48.7650 C   0  0  0  0  0  0  0  0  0  0  0  0
   62.7630   34.3320   49.3900 C   0  0  0  0  0  0  0  0  0  0  0  0
   63.0130   34.3650   50.7310 C   0  0  0  0  0  0  0  0  0  0  0  0
   63.7610   35.2640   51.4100 O   0  0  0  0  0  0  0  0  0  0  0  0
   64.5540   35.1440   52.5390 C   0  0  0  0  0  0  0  0  0  0  0  0
   66.0030   35.3180   52.3670 C   0  0  0  0  0  0  0  0  0  0  0  0
   66.8490   34.1650   52.4230 N   0  0  0  0  0  0  0  0  0  0  0  0
   67.1840   33.8910   53.8580 C   0  0  0  0  0  0  0  0  0  0  0  0
   68.0820   34.1890   51.7410 C   0  0  0  0  0  0  0  0  0  0  0  0
   68.2080   33.2970   50.5400 C   0  0  0  0  0  0  0  0  0  0  0  0
   67.0530   33.1410   49.8070 O   0  0  0  0  0  0  0  0  0  0  0  0
   65.9750   32.7410   50.5780 C   0  0  0  0  0  0  0  0  0  0  0  0
   66.0840   33.0060   52.0340 C   0  0  0  0  0  0  0  0  0  0  0  0
   62.4150   33.3450   51.4900 C   0  0  0  0  0  0  0  0  0  0  0  0
   61.6250   32.3780   50.8790 C   0  0  0  0  0  0  0  0  0  0  0  0
   61.4070   32.3960   49.5200 C   0  0  0  0  0  0  0  0  0  0  0  0
   56.6603   31.7711   41.6082 H   0  0  0  0  0  0  0  0  0  0  0  0
   57.4363   33.2751   41.0062 H   0  0  0  0  0  0  0  0  0  0  0  0
   58.3522   31.7298   41.0062 H   0  0  0  0  0  0  0  0  0  0  0  0
   59.1939   32.6784   42.8681 H   0  0  0  0  0  0  0  0  0  0  0  0
   57.6241   33.5677   43.2100 H   0  0  0  0  0  0  0  0  0  0  0  0
   56.0924   32.6566   44.6527 H   0  0  0  0  0  0  0  0  0  0  0  0
   57.0887   31.6767   45.8647 H   0  0  0  0  0  0  0  0  0  0  0  0
   57.8180   33.6048   46.5556 H   0  0  0  0  0  0  0  0  0  0  0  0
   58.8350   33.5679   45.0754 H   0  0  0  0  0  0  0  0  0  0  0  0
   57.2814   34.4696   45.0754 H   0  0  0  0  0  0  0  0  0  0  0  0
   56.4787   31.0898   42.3575 H   0  0  0  0  0  0  0  0  0  0  0  0
   57.5202   29.7626   43.0609 H   0  0  0  0  0  0  0  0  0  0  0  0
   55.1564   31.0125   44.4753 H   0  0  0  0  0  0  0  0  0  0  0  0
   55.0787   29.5057   43.5205 H   0  0  0  0  0  0  0  0  0  0  0  0
   56.3912   27.4209   44.9715 H   0  0  0  0  0  0  0  0  0  0  0  0
   57.2720   28.4400   43.7574 H   0  0  0  0  0  0  0  0  0  0  0  0
   58.5858   27.1231   45.5847 H   0  0  0  0  0  0  0  0  0  0  0  0
   59.0145   28.8521   45.1381 H   0  0  0  0  0  0  0  0  0  0  0  0
   58.7279   28.6458   49.6061 H   0  0  0  0  0  0  0  0  0  0  0  0
   60.1518   30.3497   50.7061 H   0  0  0  0  0  0  0  0  0  0  0  0
   59.3836   30.5452   45.8344 H   0  0  0  0  0  0  0  0  0  0  0  0
   61.5067   31.9780   45.8912 H   0  0  0  0  0  0  0  0  0  0  0  0
   60.0597   33.0612   46.3090 H   0  0  0  0  0  0  0  0  0  0  0  0
   62.7892   33.3691   46.8579 H   0  0  0  0  0  0  0  0  0  0  0  0
   61.2866   34.4271   47.1645 H   0  0  0  0  0  0  0  0  0  0  0  0
   63.2147   35.1153   48.7636 H   0  0  0  0  0  0  0  0  0  0  0  0
   64.2143   35.8992   53.2631 H   0  0  0  0  0  0  0  0  0  0  0  0
   64.4314   34.0991   52.8602 H   0  0  0  0  0  0  0  0  0  0  0  0
   66.1577   35.7845   51.3829 H   0  0  0  0  0  0  0  0  0  0  0  0
   66.3047   35.9110   53.2430 H   0  0  0  0  0  0  0  0  0  0  0  0
   66.4974   34.4526   54.5085 H   0  0  0  0  0  0  0  0  0  0  0  0
   67.0816   32.8144   54.0593 H   0  0  0  0  0  0  0  0  0  0  0  0
   68.2189   34.2049   54.0593 H   0  0  0  0  0  0  0  0  0  0  0  0
   68.2582   35.2225   51.4081 H   0  0  0  0  0  0  0  0  0  0  0  0
   68.8181   33.8058   52.4630 H   0  0  0  0  0  0  0  0  0  0  0  0
   68.9771   33.7222   49.8784 H   0  0  0  0  0  0  0  0  0  0  0  0
   68.4653   32.2989   50.9242 H   0  0  0  0  0  0  0  0  0  0  0  0
   65.0822   33.2651   50.2062 H   0  0  0  0  0  0  0  0  0  0  0  0
   65.9281   31.6466   50.4780 H   0  0  0  0  0  0  0  0  0  0  0  0
   65.0646   33.1312   52.4278 H   0  0  0  0  0  0  0  0  0  0  0  0
   66.6313   32.1452   52.4457 H   0  0  0  0  0  0  0  0  0  0  0  0
   62.5734   33.3113   52.5780 H   0  0  0  0  0  0  0  0  0  0  0  0
   61.1673   31.5866   51.4907 H   0  0  0  0  0  0  0  0  0  0  0  0
  1  2  1  0
  2  3  1  0
  3  4  1  0
  4  5  1  0
  3  6  1  0
  6  7  1  0
  7  8  1  0
  8  9  1  0
  9 10  1  0
 10 11  1  0
 11 12  1  0
 12 13  2  0
 13 14  1  0
 14 15  2  0
 15 16  1  0
 16 17  2  0
 16 18  1  0
 18 19  1  0
 19 20  1  0
 20 21  2  0
 21 22  1  0
 22 23  1  0
 23 24  1  0
 24 25  1  0
 25 26  1  0
 26 27  1  0
 26 28  1  0
 28 29  1  0
 29 30  1  0
 30 31  1  0
 31 32  1  0
 22 33  2  0
 33 34  1  0
 34 35  2  0
 17 12  1  0
 35 20  1  0
 35 15  1  0
 32 26  1  0
  1 36  1  0
  1 37  1  0
  1 38  1  0
  2 39  1  0
  2 40  1  0
  4 41  1  0
  4 42  1  0
  5 43  1  0
  5 44  1  0
  5 45  1  0
  6 46  1  0
  6 47  1  0
  7 48  1  0
  7 49  1  0
  9 50  1  0
  9 51  1  0
 10 52  1  0
 10 53  1  0
 13 54  1  0
 14 55  1  0
 17 56  1  0
 18 57  1  0
 18 58  1  0
 19 59  1  0
 19 60  1  0
 21 61  1  0
 24 62  1  0
 24 63  1  0
 25 64  1  0
 25 65  1  0
 27 66  1  0
 27 67  1  0
 27 68  1  0
 28 69  1  0
 28 70  1  0
 29 71  1  0
 29 72  1  0
 31 73  1  0
 31 74  1  0
 32 75  1  0
 32 76  1  0
 33 77  1  0
 34 78  1  0
M  CHG  1  26   1
M  END
>  <smiles>  (4) 
CCN(CC)CCOCCOc1ccc2c(c1)CCc1cc(OCC[N+]3(C)CCOCC3)ccc1-2

>  <score_type>  (4) 
oracle

>  <origin>  (4) 
adg

>  <m_score__min__energy>  (4) 
-7.5800000000000001

>  <m_primary>  (4) 
energy

$$$$
5:0
     RDKit          3D

 50 52  0  0  0  0  0  0  0  0999 V2000
   56.7300   24.2320   44.0360 C   0  0  0  0  0  0  0  0  0  0  0  0
   57.4500   25.4650   44.4370 C   0  0  0  0  0  0  0  0  0  0  0  0
   57.8580   26.3270   43.4240 C   0  0  0  0  0  0  0  0  0  0  0  0
   58.5290   27.4840   43.7530 C   0  0  0  0  0  0  0  0  0  0  0  0
   58.8240   27.8480   45.0540 C   0  0  0  0  0  0  0  0  0  0  0  0
   59.5380   29.0660   45.4100 C   0  0  0  0  0  0  0  0  0  0  0  0
   59.6150   29.9860   44.5470 O   0  0  0  0  0  0  0  0  0  0  0  0
   60.1480   29.2740   46.6700 N   0  0  0  0  0  0  0  0  0  0  0  0
   60.8520   30.4580   47.0680 C   0  0  0  0  0  0  0  0  0  0  0  0
   59.8740   31.4980   47.6180 C   0  0  0  0  0  0  0  0  0  0  0  0
   60.1950   32.8210   47.0020 C   0  0  0  0  0  0  0  0  0  0  0  0
   59.0520   33.6430   46.8800 N   0  0  0  0  0  0  0  0  0  0  0  0
   59.1520   34.6250   45.8170 C   0  0  0  0  0  0  0  0  0  0  0  0
   58.8750   34.1230   44.4510 C   0  0  0  0  0  0  0  0  0  0  0  0
   58.0910   32.8650   44.4260 C   0  0  0  0  0  0  0  0  0  0  0  0
   57.5770   32.3110   45.5920 C   0  0  0  0  0  0  0  0  0  0  0  0
   56.9410   31.2010   45.1830 N   0  0  0  0  0  0  0  0  0  0  0  0
   57.0420   31.0580   43.8520 N   0  0  0  0  0  0  0  0  0  0  0  0
   56.4980   30.0050   43.0200 C   0  0  0  0  0  0  0  0  0  0  0  0
   57.7570   32.0830   43.3400 C   0  0  0  0  0  0  0  0  0  0  0  0
   58.1200   32.3480   41.9170 C   0  0  0  0  0  0  0  0  0  0  0  0
   57.7990   32.9840   46.9120 C   0  0  0  0  0  0  0  0  0  0  0  0
   58.4040   26.9690   46.0380 C   0  0  0  0  0  0  0  0  0  0  0  0
   57.7270   25.7940   45.7480 C   0  0  0  0  0  0  0  0  0  0  0  0
   56.4106   23.6850   44.9353 H   0  0  0  0  0  0  0  0  0  0  0  0
   55.8471   24.5011   43.4376 H   0  0  0  0  0  0  0  0  0  0  0  0
   57.3983   23.5953   43.4376 H   0  0  0  0  0  0  0  0  0  0  0  0
   57.6469   26.0870   42.3714 H   0  0  0  0  0  0  0  0  0  0  0  0
   58.8464   28.1526   42.9392 H   0  0  0  0  0  0  0  0  0  0  0  0
   60.0850   28.4970   47.3840 H   0  0  0  0  0  0  0  0  0  0  0  0
   61.5838   30.2001   47.8477 H   0  0  0  0  0  0  0  0  0  0  0  0
   61.3670   30.8794   46.1921 H   0  0  0  0  0  0  0  0  0  0  0  0
   58.8435   31.2099   47.3630 H   0  0  0  0  0  0  0  0  0  0  0  0
   59.9643   31.5594   48.7126 H   0  0  0  0  0  0  0  0  0  0  0  0
   60.9357   33.3351   47.6321 H   0  0  0  0  0  0  0  0  0  0  0  0
   60.5888   32.6370   45.9915 H   0  0  0  0  0  0  0  0  0  0  0  0
   58.4351   35.4309   46.0328 H   0  0  0  0  0  0  0  0  0  0  0  0
   60.2021   34.9526   45.8090 H   0  0  0  0  0  0  0  0  0  0  0  0
   58.3117   34.8942   43.9052 H   0  0  0  0  0  0  0  0  0  0  0  0
   59.8474   33.9051   43.9853 H   0  0  0  0  0  0  0  0  0  0  0  0
   56.0868   29.2090   43.6582 H   0  0  0  0  0  0  0  0  0  0  0  0
   55.6991   30.4153   42.3849 H   0  0  0  0  0  0  0  0  0  0  0  0
   57.2950   29.5908   42.3849 H   0  0  0  0  0  0  0  0  0  0  0  0
   59.0079   32.9962   41.8797 H   0  0  0  0  0  0  0  0  0  0  0  0
   58.3394   31.3961   41.4112 H   0  0  0  0  0  0  0  0  0  0  0  0
   57.2803   32.8470   41.4112 H   0  0  0  0  0  0  0  0  0  0  0  0
   56.9994   33.7175   47.0927 H   0  0  0  0  0  0  0  0  0  0  0  0
   57.7883   32.2376   47.7200 H   0  0  0  0  0  0  0  0  0  0  0  0
   58.6154   27.2120   47.0898 H   0  0  0  0  0  0  0  0  0  0  0  0
   57.4112   25.1251   46.5621 H   0  0  0  0  0  0  0  0  0  0  0  0
  1  2  1  0
  2  3  2  0
  3  4  1  0
  4  5  2  0
  5  6  1  0
  6  7  2  0
  6  8  1  0
  8  9  1  0
  9 10  1  0
 10 11  1  0
 11 12  1  0
 12 13  1  0
 13 14  1  0
 14 15  1  0
 15 16  1  0
 16 17  2  0
 17 18  1  0
 18 19  1  0
 18 20  1  0
 20 21  1  0
 16 22  1  0
  5 23  1  0
 23 24  2  0
 24  2  1  0
 22 12  1  0
 20 15  2  0
  1 25  1  0
  1 26  1  0
  1 27  1  0
  3 28  1  0
  4 29  1  0
  8 30  1  0
  9 31  1  0
  9 32  1  0
 10 33  1  0
 10 34  1  0
 11 35  1  0
 11 36  1  0
 13 37  1  0
 13 38  1  0
 14 39  1  0
 14 40  1  0
 19 41  1  0
 19 42  1  0
 19 43  1  0
 21 44  1  0
 21 45  1  0
 21 46  1  0
 22 47  1  0
 22 48  1  0
 23 49  1  0
 24 50  1  0
M  END
>  <smiles>  (5) 
Cc1ccc(C(=O)NCCCN2CCc3c(nn(C)c3C)C2)cc1

>  <score_type>  (5) 
oracle

>  <origin>  (5) 
adg

>  <m_score__min__energy>  (5) 
-8.1699999999999999

>  <m_primary>  (5) 
energy

$$$$
6:0
     RDKit          3D

 63 65  0  0  0  0  0  0  0  0999 V2000
   62.2590   30.2050   51.1810 C   0  0  0  0  0  0  0  0  0  0  0  0
   60.9050   30.8230   51.4420 C   0  0  0  0  0  0  0  0  0  0  0  0
   59.9800   30.1840   50.4530 N   0  0  0  0  0  0  0  0  0  0  0  0
   60.1860   28.7640   50.5510 C   0  0  0  0  0  0  0  0  0  0  0  0
   60.7020   28.1820   49.2890 C   0  0  0  0  0  0  0  0  0  0  0  0
   58.6670   30.6760   50.6720 C   0  0  0  0  0  0  0  0  0  0  0  0
   58.2330   31.9770   50.1680 C   0  0  0  0  0  0  0  0  0  0  0  0
   59.2330   32.5280   49.3710 O   0  0  0  0  0  0  0  0  0  0  0  0
   59.9250   33.5450   49.9590 C   0  0  0  0  0  0  0  0  0  0  0  0
   60.6810   34.4600   49.0570 C   0  0  0  0  0  0  0  0  0  0  0  0
   61.9970   33.8430   48.6100 C   0  0  0  0  0  0  0  0  0  0  0  0
   62.0760   32.4500   48.9070 N   0  0  0  0  0  0  0  0  0  0  0  0
   62.7170   31.6320   47.9270 C   0  0  0  0  0  0  0  0  0  0  0  0
   61.7420   30.8570   47.1200 C   0  0  0  0  0  0  0  0  0  0  0  0
   60.3670   31.0070   47.5190 N   0  0  0  0  0  0  0  0  0  0  0  0
   59.2590   30.9310   46.6500 C   0  0  0  0  0  0  0  0  0  0  0  0
   58.8670   32.1550   46.0760 C   0  0  0  0  0  0  0  0  0  0  0  0
   59.5400   33.3230   46.3630 C   0  0  0  0  0  0  0  0  0  0  0  0
   59.1600   34.5430   45.8010 C   0  0  0  0  0  0  0  0  0  0  0  0
   58.0780   34.5630   44.9360 C   0  0  0  0  0  0  0  0  0  0  0  0
   57.3840   33.4160   44.6280 C   0  0  0  0  0  0  0  0  0  0  0  0
   57.8000   32.2390   45.2090 C   0  0  0  0  0  0  0  0  0  0  0  0
   57.1110   31.1180   44.9010 N   0  0  0  0  0  0  0  0  0  0  0  0
   57.4580   29.9170   45.4340 C   0  0  0  0  0  0  0  0  0  0  0  0
   56.7060   28.8130   45.0950 C   0  0  0  0  0  0  0  0  0  0  0  0
   57.0230   27.5900   45.6360 C   0  0  0  0  0  0  0  0  0  0  0  0
   58.1060   27.5120   46.5190 C   0  0  0  0  0  0  0  0  0  0  0  0
   58.8310   28.6270   46.8330 C   0  0  0  0  0  0  0  0  0  0  0  0
   58.5280   29.8470   46.3030 C   0  0  0  0  0  0  0  0  0  0  0  0
   62.7505   29.9807   52.1392 H   0  0  0  0  0  0  0  0  0  0  0  0
   62.1331   29.2752   50.6069 H   0  0  0  0  0  0  0  0  0  0  0  0
   62.8790   30.9093   50.6069 H   0  0  0  0  0  0  0  0  0  0  0  0
   60.5763   30.6101   52.4699 H   0  0  0  0  0  0  0  0  0  0  0  0
   60.9268   31.9175   51.3343 H   0  0  0  0  0  0  0  0  0  0  0  0
   60.9111   28.5663   51.3542 H   0  0  0  0  0  0  0  0  0  0  0  0
   59.2132   28.2967   50.7641 H   0  0  0  0  0  0  0  0  0  0  0  0
   61.4153   27.3774   49.5210 H   0  0  0  0  0  0  0  0  0  0  0  0
   59.8647   27.7725   48.7048 H   0  0  0  0  0  0  0  0  0  0  0  0
   61.2088   28.9642   48.7048 H   0  0  0  0  0  0  0  0  0  0  0  0
   57.9832   29.9331   50.2355 H   0  0  0  0  0  0  0  0  0  0  0  0
   58.6591   30.8359   51.7603 H   0  0  0  0  0  0  0  0  0  0  0  0
   57.3174   31.8513   49.5714 H   0  0  0  0  0  0  0  0  0  0  0  0
   58.0315   32.6479   51.0161 H   0  0  0  0  0  0  0  0  0  0  0  0
   59.2034   34.1554   50.5217 H   0  0  0  0  0  0  0  0  0  0  0  0
   60.6925   33.0507   50.5726 H   0  0  0  0  0  0  0  0  0  0  0  0
   60.0673   34.6740   48.1696 H   0  0  0  0  0  0  0  0  0  0  0  0
   60.9044   35.3832   49.6117 H   0  0  0  0  0  0  0  0  0  0  0  0
   62.0989   33.9783   47.5231 H   0  0  0  0  0  0  0  0  0  0  0  0
   62.8061   34.3480   49.1580 H   0  0  0  0  0  0  0  0  0  0  0  0
   62.4900   32.2840   49.8480 H   0  0  0  0  0  0  0  0  0  0  0  0
   63.3008   32.2771   47.2539 H   0  0  0  0  0  0  0  0  0  0  0  0
   63.3636   30.9158   48.4551 H   0  0  0  0  0  0  0  0  0  0  0  0
   61.8309   31.1819   46.0729 H   0  0  0  0  0  0  0  0  0  0  0  0
   61.9921   29.7965   47.2707 H   0  0  0  0  0  0  0  0  0  0  0  0
   60.1610   31.1860   48.5350 H   0  0  0  0  0  0  0  0  0  0  0  0
   60.3973   33.2931   47.0516 H   0  0  0  0  0  0  0  0  0  0  0  0
   59.7070   35.4671   46.0394 H   0  0  0  0  0  0  0  0  0  0  0  0
   57.7670   35.5172   44.4856 H   0  0  0  0  0  0  0  0  0  0  0  0
   56.5255   33.4383   43.9406 H   0  0  0  0  0  0  0  0  0  0  0  0
   55.8603   28.9097   44.3982 H   0  0  0  0  0  0  0  0  0  0  0  0
   56.4391   26.6933   45.3809 H   0  0  0  0  0  0  0  0  0  0  0  0
   58.3764   26.5434   46.9648 H   0  0  0  0  0  0  0  0  0  0  0  0
   59.6782   28.5388   47.5290 H   0  0  0  0  0  0  0  0  0  0  0  0
  1  2  1  0
  2  3  1  0
  3  4  1  0
  4  5  1  0
  3  6  1  0
  6  7  1  0
  7  8  1  0
  8  9  1  0
  9 10  1  0
 10 11  1  0
 11 12  1  0
 12 13  1  0
 13 14  1  0
 14 15  1  0
 15 16  1  0
 16 17  2  0
 17 18  1  0
 18 19  2  0
 19 20  1  0
 20 21  2  0
 21 22  1  0
 22 23  2  0
 23 24  1  0
 24 25  2  0
 25 26  1  0
 26 27  2  0
 27 28  1  0
 28 29  2  0
 29 16  1  0
 22 17  1  0
 29 24  1  0
  1 30  1  0
  1 31  1  0
  1 32  1  0
  2 33  1  0
  2 34  1  0
  4 35  1  0
  4 36  1  0
  5 37  1  0
  5 38  1  0
  5 39  1  0
  6 40  1  0
  6 41  1  0
  7 42  1  0
  7 43  1  0
  9 44  1  0
  9 45  1  0
 10 46  1  0
 10 47  1  0
 11 48  1  0
 11 49  1  0
 12 50  1  0
 13 51  1  0
 13 52  1  0
 14 53  1  0
 14 54  1  0
 15 55  1  0
 18 56  1  0
 19 57  1  0
 20 58  1  0
 21 59  1  0
 25 60  1  0
 26 61  1  0
 27 62  1  0
 28 63  1  0
M  END
>  <smiles>  (6) 
CCN(CC)CCOCCCNCCNc1c2ccccc2nc2ccccc12

>  <score_type>  (6) 
oracle

>  <origin>  (6) 
adg

>  <m_score__min__energy>  (6) 
-7.0700000000000003

>  <m_primary>  (6) 
energy

$$$$
7:0
     RDKit          3D

 34 34  0  0  0  0  0  0  0  0999 V2000
   56.2480   29.8040   42.8880 C   0  0  0  0  0  0  0  0  0  0  0  0
   56.6440   29.7570   44.3490 C   0  0  0  0  0  0  0  0  0  0  0  0
   56.4200   31.0110   44.8750 O   0  0  0  0  0  0  0  0  0  0  0  0
   57.3640   31.9520   44.5890 C   0  0  0  0  0  0  0  0  0  0  0  0
   57.7660   32.8000   45.7240 C   0  0  0  0  0  0  0  0  0  0  0  0
   57.0000   33.8150   45.9380 O   0  0  0  0  0  0  0  0  0  0  0  0
   58.8930   32.5770   46.5570 N   0  0  0  0  0  0  0  0  0  0  0  0
   59.3070   31.2180   46.8400 C   0  0  0  0  0  0  0  0  0  0  0  0
   60.7760   31.0230   46.9810 C   0  0  0  0  0  0  0  0  0  0  0  0
   61.3750   32.1630   47.7330 C   0  0  0  0  0  0  0  0  0  0  0  0
   61.8330   33.1250   46.7520 N   0  0  0  0  0  0  0  0  0  0  0  0
   63.0260   33.8190   47.2110 C   0  0  0  0  0  0  0  0  0  0  0  0
   60.8310   34.1210   46.4590 C   0  0  0  0  0  0  0  0  0  0  0  0
   59.4930   33.8240   47.0250 C   0  0  0  0  0  0  0  0  0  0  0  0
   55.1586   29.9333   42.8074 H   0  0  0  0  0  0  0  0  0  0  0  0
   56.7547   30.6483   42.3977 H   0  0  0  0  0  0  0  0  0  0  0  0
   56.5430   28.8645   42.3977 H   0  0  0  0  0  0  0  0  0  0  0  0
   56.0343   29.0115   44.8805 H   0  0  0  0  0  0  0  0  0  0  0  0
   57.7011   29.4726   44.4569 H   0  0  0  0  0  0  0  0  0  0  0  0
   58.2600   31.4335   44.2171 H   0  0  0  0  0  0  0  0  0  0  0  0
   56.9089   32.6268   43.8490 H   0  0  0  0  0  0  0  0  0  0  0  0
   58.8297   30.9049   47.7803 H   0  0  0  0  0  0  0  0  0  0  0  0
   58.9995   30.6165   45.9719 H   0  0  0  0  0  0  0  0  0  0  0  0
   60.9680   30.0869   47.5258 H   0  0  0  0  0  0  0  0  0  0  0  0
   61.2301   30.9738   45.9803 H   0  0  0  0  0  0  0  0  0  0  0  0
   60.6195   32.6219   48.3877 H   0  0  0  0  0  0  0  0  0  0  0  0
   62.2077   31.8212   48.3653 H   0  0  0  0  0  0  0  0  0  0  0  0
   63.0439   33.8294   48.3108 H   0  0  0  0  0  0  0  0  0  0  0  0
   63.9198   33.2999   46.8347 H   0  0  0  0  0  0  0  0  0  0  0  0
   63.0166   34.8526   46.8347 H   0  0  0  0  0  0  0  0  0  0  0  0
   61.1721   35.0837   46.8675 H   0  0  0  0  0  0  0  0  0  0  0  0
   60.7141   34.1386   45.3654 H   0  0  0  0  0  0  0  0  0  0  0  0
   59.5891   33.7679   48.1194 H   0  0  0  0  0  0  0  0  0  0  0  0
   58.8279   34.6330   46.6887 H   0  0  0  0  0  0  0  0  0  0  0  0
  1  2  1  0
  2  3  1  0
  3  4  1  0
  4  5  1  0
  5  6  2  0
  5  7  1  0
  7  8  1  0
  8  9  1  0
  9 10  1  0
 10 11  1  0
 11 12  1  0
 11 13  1  0
 13 14  1  0
 14  7  1  0
  1 15  1  0
  1 16  1  0
  1 17  1  0
  2 18  1  0
  2 19  1  0
  4 20  1  0
  4 21  1  0
  8 22  1  0
  8 23  1  0
  9 24  1  0
  9 25  1  0
 10 26  1  0
 10 27  1  0
 12 28  1  0
 12 29  1  0
 12 30  1  0
 13 31  1  0
 13 32  1  0
 14 33  1  0
 14 34  1  0
M  END
>  <smiles>  (7) 
CCOCC(=O)N1CCCN(C)CC1

>  <score_type>  (7) 
oracle

>  <origin>  (7) 
adg

>  <m_score__min__energy>  (7) 
-3.1099999999999999

>  <m_primary>  (7) 
energy

$$$$
8:0
     RDKit          3D

 60 63  0  0  0  0  0  0  0  0999 V2000
   58.9840   30.0250   51.1400 C   0  0  0  0  0  0  0  0  0  0  0  0
   59.4390   31.0980   50.2400 N   0  0  0  0  0  0  0  0  0  0  0  0
   59.9340   32.1430   51.1530 C   0  0  0  0  0  0  0  0  0  0  0  0
   60.6340   30.6070   49.5540 C   0  0  0  0  0  0  0  0  0  0  0  0
   60.3610   30.2900   48.1150 C   0  0  0  0  0  0  0  0  0  0  0  0
   58.9020   30.3250   47.9100 N   0  0  0  0  0  0  0  0  0  0  0  0
   58.4720   30.6000   46.5960 C   0  0  0  0  0  0  0  0  0  0  0  0
   58.3330   29.4620   45.7820 C   0  0  0  0  0  0  0  0  0  0  0  0
   58.6430   28.2160   46.2880 C   0  0  0  0  0  0  0  0  0  0  0  0
   58.5440   27.0440   45.5730 C   0  0  0  0  0  0  0  0  0  0  0  0
   58.1090   27.1310   44.2760 C   0  0  0  0  0  0  0  0  0  0  0  0
   57.7880   28.3830   43.7390 C   0  0  0  0  0  0  0  0  0  0  0  0
   57.8980   29.5400   44.4830 C   0  0  0  0  0  0  0  0  0  0  0  0
   57.5930   30.7410   43.9660 N   0  0  0  0  0  0  0  0  0  0  0  0
   57.1200   30.9100   42.6250 C   0  0  0  0  0  0  0  0  0  0  0  0
   57.7180   31.8640   44.7240 C   0  0  0  0  0  0  0  0  0  0  0  0
   57.3940   33.0710   44.1440 C   0  0  0  0  0  0  0  0  0  0  0  0
   57.5160   34.2130   44.8850 C   0  0  0  0  0  0  0  0  0  0  0  0
   57.9550   34.1340   46.1840 C   0  0  0  0  0  0  0  0  0  0  0  0
   58.2930   32.9360   46.8140 C   0  0  0  0  0  0  0  0  0  0  0  0
   58.7920   33.0070   48.1220 N   0  0  0  0  0  0  0  0  0  0  0  0
   59.4410   34.2680   48.5180 C   0  0  0  0  0  0  0  0  0  0  0  0
   60.6310   34.5830   47.6800 C   0  0  0  0  0  0  0  0  0  0  0  0
   61.8310   33.8320   48.0510 C   0  0  0  0  0  0  0  0  0  0  0  0
   62.5550   33.2180   47.0360 C   0  0  0  0  0  0  0  0  0  0  0  0
   63.6960   32.4900   47.3040 C   0  0  0  0  0  0  0  0  0  0  0  0
   64.1060   32.3830   48.6070 C   0  0  0  0  0  0  0  0  0  0  0  0
   63.3830   32.9950   49.6170 C   0  0  0  0  0  0  0  0  0  0  0  0
   62.2890   33.6850   49.3030 N   0  0  0  0  0  0  0  0  0  0  0  0
   58.1610   31.8030   46.0520 C   0  0  0  0  0  0  0  0  0  0  0  0
   59.1182   30.3414   52.1849 H   0  0  0  0  0  0  0  0  0  0  0  0
   57.9201   29.8167   50.9537 H   0  0  0  0  0  0  0  0  0  0  0  0
   59.5739   29.1154   50.9537 H   0  0  0  0  0  0  0  0  0  0  0  0
   59.7821   31.8223   52.1942 H   0  0  0  0  0  0  0  0  0  0  0  0
   61.0064   32.3090   50.9732 H   0  0  0  0  0  0  0  0  0  0  0  0
   59.3831   33.0780   50.9732 H   0  0  0  0  0  0  0  0  0  0  0  0
   61.4163   31.3785   49.6061 H   0  0  0  0  0  0  0  0  0  0  0  0
   60.9570   29.6809   50.0520 H   0  0  0  0  0  0  0  0  0  0  0  0
   60.8467   31.0367   47.4696 H   0  0  0  0  0  0  0  0  0  0  0  0
   60.7590   29.2967   47.8603 H   0  0  0  0  0  0  0  0  0  0  0  0
   58.2370   30.1830   48.7270 H   0  0  0  0  0  0  0  0  0  0  0  0
   58.9916   28.1556   47.3296 H   0  0  0  0  0  0  0  0  0  0  0  0
   58.8038   26.0753   46.0248 H   0  0  0  0  0  0  0  0  0  0  0  0
   58.0129   26.2235   43.6618 H   0  0  0  0  0  0  0  0  0  0  0  0
   57.4392   28.4463   42.6977 H   0  0  0  0  0  0  0  0  0  0  0  0
   56.0843   31.2800   42.6454 H   0  0  0  0  0  0  0  0  0  0  0  0
   57.7584   31.6357   42.0997 H   0  0  0  0  0  0  0  0  0  0  0  0
   57.1540   29.9441   42.0997 H   0  0  0  0  0  0  0  0  0  0  0  0
   57.0431   33.1148   43.1024 H   0  0  0  0  0  0  0  0  0  0  0  0
   57.2643   35.1888   44.4440 H   0  0  0  0  0  0  0  0  0  0  0  0
   58.0451   35.0671   46.7596 H   0  0  0  0  0  0  0  0  0  0  0  0
   58.8110   32.3190   48.8740 H   0  0  0  0  0  0  0  0  0  0  0  0
   58.7126   35.0863   48.4186 H   0  0  0  0  0  0  0  0  0  0  0  0
   59.7835   34.1563   49.5574 H   0  0  0  0  0  0  0  0  0  0  0  0
   60.3880   34.3526   46.6322 H   0  0  0  0  0  0  0  0  0  0  0  0
   60.8591   35.6478   47.8353 H   0  0  0  0  0  0  0  0  0  0  0  0
   62.2107   33.3146   45.9957 H   0  0  0  0  0  0  0  0  0  0  0  0
   64.2616   32.0082   46.4929 H   0  0  0  0  0  0  0  0  0  0  0  0
   65.0121   31.8093   48.8514 H   0  0  0  0  0  0  0  0  0  0  0  0
   63.7083   32.9121   50.6645 H   0  0  0  0  0  0  0  0  0  0  0  0
  1  2  1  0
  2  3  1  0
  2  4  1  0
  4  5  1  0
  5  6  1  0
  6  7  1  0
  7  8  2  0
  8  9  1  0
  9 10  2  0
 10 11  1  0
 11 12  2  0
 12 13  1  0
 13 14  2  0
 14 15  1  0
 14 16  1  0
 16 17  2  0
 17 18  1  0
 18 19  2  0
 19 20  1  0
 20 21  1  0
 21 22  1  0
 22 23  1  0
 23 24  1  0
 24 25  2  0
 25 26  1  0
 26 27  2  0
 27 28  1  0
 28 29  2  0
 20 30  2  0
 30  7  1  0
 13  8  1  0
 30 16  1  0
 29 24  1  0
  1 31  1  0
  1 32  1  0
  1 33  1  0
  3 34  1  0
  3 35  1  0
  3 36  1  0
  4 37  1  0
  4 38  1  0
  5 39  1  0
  5 40  1  0
  6 41  1  0
  9 42  1  0
 10 43  1  0
 11 44  1  0
 12 45  1  0
 15 46  1  0
 15 47  1  0
 15 48  1  0
 17 49  1  0
 18 50  1  0
 19 51  1  0
 21 52  1  0
 22 53  1  0
 22 54  1  0
 23 55  1  0
 23 56  1  0
 25 57  1  0
 26 58  1  0
 27 59  1  0
 28 60  1  0
M  CHG  1  14   1
M  END
>  <smiles>  (8) 
CN(C)CCNc1c2ccccc2[n+](C)c2cccc(NCCc3ccccn3)c12

>  <score_type>  (8) 
oracle

>  <origin>  (8) 
adg

>  <m_score__min__energy>  (8) 
-5.9900000000000002

>  <m_primary>  (8) 
energy

$$$$
9:0
     RDKit          3D

 85 88  0  0  0  0  0  0  0  0999 V2000
   58.5380   32.3380   48.6990 C   0  0  0  0  0  0  0  0  0  0  0  0
   58.9820   31.0580   48.0900 C   0  0  0  0  0  0  0  0  0  0  0  0
   59.9560   31.1180   47.0580 N   0  0  0  0  0  0  0  0  0  0  0  0
   60.5110   29.7350   46.9680 C   0  0  0  0  0  0  0  0  0  0  0  0
   60.6250   29.2910   45.5430 C   0  0  0  0  0  0  0  0  0  0  0  0
   61.1410   31.9160   47.3340 C   0  0  0  0  0  0  0  0  0  0  0  0
   61.1470   33.2910   46.7900 C   0  0  0  0  0  0  0  0  0  0  0  0
   59.9810   33.8350   46.4200 O   0  0  0  0  0  0  0  0  0  0  0  0
   59.6480   34.4960   45.3430 C   0  0  0  0  0  0  0  0  0  0  0  0
   58.2480   34.6710   44.8750 C   0  0  0  0  0  0  0  0  0  0  0  0
   57.2630   33.6690   45.4340 C   0  0  0  0  0  0  0  0  0  0  0  0
   57.7710   32.3330   45.4260 N   0  0  0  0  0  0  0  0  0  0  0  0
   57.3910   31.6620   44.2150 C   0  0  0  0  0  0  0  0  0  0  0  0
   57.0530   30.2560   44.4880 C   0  0  0  0  0  0  0  0  0  0  0  0
   56.0590   29.8410   45.1190 O   0  0  0  0  0  0  0  0  0  0  0  0
   57.9490   29.2640   43.9810 N   0  0  0  0  0  0  0  0  0  0  0  0
   57.7520   27.8710   44.1720 C   0  0  0  0  0  0  0  0  0  0  0  0
   57.8930   27.0750   43.0300 C   0  0  0  0  0  0  0  0  0  0  0  0
   57.7230   25.7090   43.1080 C   0  0  0  0  0  0  0  0  0  0  0  0
   57.4150   25.1510   44.3310 C   0  0  0  0  0  0  0  0  0  0  0  0
   57.2460   23.7700   44.3950 C   0  0  0  0  0  0  0  0  0  0  0  0
   57.3730   23.0650   43.3610 O   0  0  0  0  0  0  0  0  0  0  0  0
   56.9390   23.2460   45.6340 C   0  0  0  0  0  0  0  0  0  0  0  0
   56.7580   21.8860   45.7810 C   0  0  0  0  0  0  0  0  0  0  0  0
   56.4520   21.3340   47.0020 C   0  0  0  0  0  0  0  0  0  0  0  0
   56.3070   22.1010   48.1630 C   0  0  0  0  0  0  0  0  0  0  0  0
   55.9910   21.4560   49.3590 N   0  0  0  0  0  0  0  0  0  0  0  0
   56.7900   21.3070   50.5030 C   0  0  0  0  0  0  0  0  0  0  0  0
   57.9450   21.7860   50.5210 O   0  0  0  0  0  0  0  0  0  0  0  0
   56.2350   20.5790   51.6610 C   0  0  0  0  0  0  0  0  0  0  0  0
   54.8000   20.2360   51.6050 C   0  0  0  0  0  0  0  0  0  0  0  0
   53.8400   21.1450   51.2360 N   0  0  0  0  0  0  0  0  0  0  0  0
   53.6180   22.3940   51.8060 C   0  0  0  0  0  0  0  0  0  0  0  0
   52.6980   23.1580   50.8520 C   0  0  0  0  0  0  0  0  0  0  0  0
   52.5200   22.2090   49.7030 C   0  0  0  0  0  0  0  0  0  0  0  0
   52.8570   20.8490   50.2700 C   0  0  0  0  0  0  0  0  0  0  0  0
   56.4920   23.4560   47.9970 C   0  0  0  0  0  0  0  0  0  0  0  0
   56.8010   24.0240   46.7640 C   0  0  0  0  0  0  0  0  0  0  0  0
   56.9720   25.3530   46.6520 N   0  0  0  0  0  0  0  0  0  0  0  0
   57.2750   25.9480   45.4730 C   0  0  0  0  0  0  0  0  0  0  0  0
   57.4450   27.3320   45.4040 C   0  0  0  0  0  0  0  0  0  0  0  0
   58.5677   32.2522   49.7952 H   0  0  0  0  0  0  0  0  0  0  0  0
   59.2073   33.1492   48.3764 H   0  0  0  0  0  0  0  0  0  0  0  0
   57.5102   32.5605   48.3764 H   0  0  0  0  0  0  0  0  0  0  0  0
   59.3975   30.4373   48.8975 H   0  0  0  0  0  0  0  0  0  0  0  0
   58.0825   30.6584   47.5988 H   0  0  0  0  0  0  0  0  0  0  0  0
   61.5089   29.7177   47.4305 H   0  0  0  0  0  0  0  0  0  0  0  0
   59.8290   29.0503   47.4935 H   0  0  0  0  0  0  0  0  0  0  0  0
   60.8984   28.2260   45.5115 H   0  0  0  0  0  0  0  0  0  0  0  0
   59.6602   29.4370   45.0352 H   0  0  0  0  0  0  0  0  0  0  0  0
   61.4001   29.8837   45.0352 H   0  0  0  0  0  0  0  0  0  0  0  0
   61.2499   31.9874   48.4263 H   0  0  0  0  0  0  0  0  0  0  0  0
   61.9682   31.3970   46.8277 H   0  0  0  0  0  0  0  0  0  0  0  0
   61.5800   33.9441   47.5620 H   0  0  0  0  0  0  0  0  0  0  0  0
   61.7160   33.2080   45.8523 H   0  0  0  0  0  0  0  0  0  0  0  0
   60.0452   35.5123   45.4821 H   0  0  0  0  0  0  0  0  0  0  0  0
   60.0494   33.8360   44.5599 H   0  0  0  0  0  0  0  0  0  0  0  0
   57.9136   35.6780   45.1649 H   0  0  0  0  0  0  0  0  0  0  0  0
   58.2636   34.5158   43.7861 H   0  0  0  0  0  0  0  0  0  0  0  0
   57.0261   33.9492   46.4710 H   0  0  0  0  0  0  0  0  0  0  0  0
   56.3692   33.6885   44.7931 H   0  0  0  0  0  0  0  0  0  0  0  0
   58.7590   32.2200   45.6770 H   0  0  0  0  0  0  0  0  0  0  0  0
   56.5154   32.1669   43.7810 H   0  0  0  0  0  0  0  0  0  0  0  0
   58.2355   31.6942   43.5109 H   0  0  0  0  0  0  0  0  0  0  0  0
   58.8060   29.5400   43.4380 H   0  0  0  0  0  0  0  0  0  0  0  0
   58.1407   27.5414   42.0651 H   0  0  0  0  0  0  0  0  0  0  0  0
   57.8307   25.0776   42.2137 H   0  0  0  0  0  0  0  0  0  0  0  0
   56.8606   21.2306   44.9036 H   0  0  0  0  0  0  0  0  0  0  0  0
   56.3155   20.2446   47.0691 H   0  0  0  0  0  0  0  0  0  0  0  0
   55.0180   21.0180   49.4190 H   0  0  0  0  0  0  0  0  0  0  0  0
   56.7981   19.6397   51.7648 H   0  0  0  0  0  0  0  0  0  0  0  0
   56.3331   21.2709   52.5105 H   0  0  0  0  0  0  0  0  0  0  0  0
   54.7135   19.3964   50.8996 H   0  0  0  0  0  0  0  0  0  0  0  0
   54.5639   20.0761   52.6674 H   0  0  0  0  0  0  0  0  0  0  0  0
   53.1358   22.2817   52.7883 H   0  0  0  0  0  0  0  0  0  0  0  0
   54.5650   22.9328   51.9572 H   0  0  0  0  0  0  0  0  0  0  0  0
   51.7331   23.3814   51.3307 H   0  0  0  0  0  0  0  0  0  0  0  0
   53.1109   24.1303   50.5450 H   0  0  0  0  0  0  0  0  0  0  0  0
   51.4820   22.2309   49.3395 H   0  0  0  0  0  0  0  0  0  0  0  0
   53.1572   22.4709   48.8455 H   0  0  0  0  0  0  0  0  0  0  0  0
   51.9745   20.3837   50.7332 H   0  0  0  0  0  0  0  0  0  0  0  0
   53.1988   20.1333   49.5078 H   0  0  0  0  0  0  0  0  0  0  0  0
   56.3917   24.1146   48.8724 H   0  0  0  0  0  0  0  0  0  0  0  0
   56.8770   26.0060   47.4880 H   0  0  0  0  0  0  0  0  0  0  0  0
   57.3384   27.9669   46.2960 H   0  0  0  0  0  0  0  0  0  0  0  0
  1  2  1  0
  2  3  1  0
  3  4  1  0
  4  5  1  0
  3  6  1  0
  6  7  1  0
  7  8  1  0
  8  9  1  0
  9 10  1  0
 10 11  1  0
 11 12  1  0
 12 13  1  0
 13 14  1  0
 14 15  2  0
 14 16  1  0
 16 17  1  0
 17 18  2  0
 18 19  1  0
 19 20  2  0
 20 21  1  0
 21 22  2  0
 21 23  1  0
 23 24  2  0
 24 25  1  0
 25 26  2  0
 26 27  1  0
 27 28  1  0
 28 29  2  0
 28 30  1  0
 30 31  1  0
 31 32  1  0
 32 33  1  0
 33 34  1  0
 34 35  1  0
 35 36  1  0
 26 37  1  0
 37 38  2  0
 38 39  1  0
 39 40  1  0
 40 41  2  0
 41 17  1  0
 40 20  1  0
 38 23  1  0
 36 32  1  0
  1 42  1  0
  1 43  1  0
  1 44  1  0
  2 45  1  0
  2 46  1  0
  4 47  1  0
  4 48  1  0
  5 49  1  0
  5 50  1  0
  5 51  1  0
  6 52  1  0
  6 53  1  0
  7 54  1  0
  7 55  1  0
  9 56  1  0
  9 57  1  0
 10 58  1  0
 10 59  1  0
 11 60  1  0
 11 61  1  0
 12 62  1  0
 13 63  1  0
 13 64  1  0
 16 65  1  0
 18 66  1  0
 19 67  1  0
 24 68  1  0
 25 69  1  0
 27 70  1  0
 30 71  1  0
 30 72  1  0
 31 73  1  0
 31 74  1  0
 33 75  1  0
 33 76  1  0
 34 77  1  0
 34 78  1  0
 35 79  1  0
 35 80  1  0
 36 81  1  0
 36 82  1  0
 37 83  1  0
 39 84  1  0
 41 85  1  0
M  END
>  <smiles>  (9) 
CCN(CC)CCOCCCNCC(=O)Nc1ccc2c(=O)c3ccc(NC(=O)CCN4CCCC4)cc3[nH]c2c1

>  <score_type>  (9) 
oracle

>  <origin>  (9) 
adg

>  <m_score__min__energy>  (9) 
-7.8700000000000001

>  <m_primary>  (9) 
energy

$$$$
10:0
     RDKit          3D

 68 70  0  0  0  0  0  0  0  0999 V2000
   59.3410   35.0050   45.2450 C   0  0  0  0  0  0  0  0  0  0  0  0
   59.8350   35.0410   46.7040 C   0  0  0  0  0  0  0  0  0  0  0  0
   60.7670   34.0250   46.9550 N   0  0  0  0  0  0  0  0  0  0  0  0
   62.1350   34.1810   46.8020 C   0  0  0  0  0  0  0  0  0  0  0  0
   63.0500   33.0230   46.7870 C   0  0  0  0  0  0  0  0  0  0  0  0
   62.9870   32.1220   47.9710 C   0  0  0  0  0  0  0  0  0  0  0  0
   61.7400   31.8140   48.4110 O   0  0  0  0  0  0  0  0  0  0  0  0
   61.3740   32.0570   49.6880 C   0  0  0  0  0  0  0  0  0  0  0  0
   60.8360   33.4420   49.8660 C   0  0  0  0  0  0  0  0  0  0  0  0
   59.4730   33.5520   49.6540 O   0  0  0  0  0  0  0  0  0  0  0  0
   58.7980   32.3890   49.3810 C   0  0  0  0  0  0  0  0  0  0  0  0
   58.1930   32.3560   47.9880 C   0  0  0  0  0  0  0  0  0  0  0  0
   59.1550   31.7930   47.0460 N   0  0  0  0  0  0  0  0  0  0  0  0
   58.8420   30.7270   46.1660 C   0  0  0  0  0  0  0  0  0  0  0  0
   59.2970   29.4230   46.3680 C   0  0  0  0  0  0  0  0  0  0  0  0
   58.9280   28.4660   45.4470 C   0  0  0  0  0  0  0  0  0  0  0  0
   58.1420   28.7710   44.3660 N   0  0  0  0  0  0  0  0  0  0  0  0
   57.7630   27.7570   43.4190 C   0  0  0  0  0  0  0  0  0  0  0  0
   57.6920   30.0210   44.1520 C   0  0  0  0  0  0  0  0  0  0  0  0
   58.0650   30.9880   45.0820 C   0  0  0  0  0  0  0  0  0  0  0  0
   57.5340   32.3710   44.7940 C   0  0  0  0  0  0  0  0  0  0  0  0
   57.9240   32.6710   43.3680 C   0  0  0  0  0  0  0  0  0  0  0  0
   57.4980   31.6590   42.3670 C   0  0  0  0  0  0  0  0  0  0  0  0
   56.8560   30.4460   43.0350 C   0  0  0  0  0  0  0  0  0  0  0  0
   59.3410   27.0390   45.5380 C   0  0  0  0  0  0  0  0  0  0  0  0
   60.5470   26.9750   46.4490 C   0  0  0  0  0  0  0  0  0  0  0  0
   60.3140   27.6990   47.7510 C   0  0  0  0  0  0  0  0  0  0  0  0
   60.1320   29.1850   47.5470 C   0  0  0  0  0  0  0  0  0  0  0  0
   58.2440   34.9251   45.2312 H   0  0  0  0  0  0  0  0  0  0  0  0
   59.6479   35.9279   44.7311 H   0  0  0  0  0  0  0  0  0  0  0  0
   59.7784   34.1364   44.7311 H   0  0  0  0  0  0  0  0  0  0  0  0
   60.3073   36.0154   46.8977 H   0  0  0  0  0  0  0  0  0  0  0  0
   58.9698   34.8873   47.3656 H   0  0  0  0  0  0  0  0  0  0  0  0
   60.5270   33.3820   47.7390 H   0  0  0  0  0  0  0  0  0  0  0  0
   62.2818   34.7039   45.8454 H   0  0  0  0  0  0  0  0  0  0  0  0
   62.4185   34.6920   47.7339 H   0  0  0  0  0  0  0  0  0  0  0  0
   62.8174   32.4226   45.8952 H   0  0  0  0  0  0  0  0  0  0  0  0
   64.0644   33.4483   46.7934 H   0  0  0  0  0  0  0  0  0  0  0  0
   63.4942   31.1821   47.7078 H   0  0  0  0  0  0  0  0  0  0  0  0
   63.4673   32.6731   48.7930 H   0  0  0  0  0  0  0  0  0  0  0  0
   60.5966   31.3347   49.9777 H   0  0  0  0  0  0  0  0  0  0  0  0
   62.2679   31.9571   50.3212 H   0  0  0  0  0  0  0  0  0  0  0  0
   61.0526   33.7668   50.8944 H   0  0  0  0  0  0  0  0  0  0  0  0
   61.3258   34.0715   49.1085 H   0  0  0  0  0  0  0  0  0  0  0  0
   59.5001   31.5476   49.4763 H   0  0  0  0  0  0  0  0  0  0  0  0
   57.9667   32.3198   50.0981 H   0  0  0  0  0  0  0  0  0  0  0  0
   57.2853   31.7348   47.9984 H   0  0  0  0  0  0  0  0  0  0  0  0
   57.9370   33.3799   47.6782 H   0  0  0  0  0  0  0  0  0  0  0  0
   60.1250   32.1900   47.0120 H   0  0  0  0  0  0  0  0  0  0  0  0
   57.4273   26.8589   43.9581 H   0  0  0  0  0  0  0  0  0  0  0  0
   56.9446   28.1328   42.7873 H   0  0  0  0  0  0  0  0  0  0  0  0
   58.6272   27.5039   42.7873 H   0  0  0  0  0  0  0  0  0  0  0  0
   56.4398   32.3921   44.9046 H   0  0  0  0  0  0  0  0  0  0  0  0
   57.9441   33.1160   45.4917 H   0  0  0  0  0  0  0  0  0  0  0  0
   57.4748   33.6355   43.0885 H   0  0  0  0  0  0  0  0  0  0  0  0
   59.0238   32.6747   43.3478 H   0  0  0  0  0  0  0  0  0  0  0  0
   56.7688   32.1179   41.6831 H   0  0  0  0  0  0  0  0  0  0  0  0
   58.3894   31.3194   41.8192 H   0  0  0  0  0  0  0  0  0  0  0  0
   55.8555   30.7151   43.4046 H   0  0  0  0  0  0  0  0  0  0  0  0
   56.7637   29.6265   42.3071 H   0  0  0  0  0  0  0  0  0  0  0  0
   58.5214   26.4362   45.9561 H   0  0  0  0  0  0  0  0  0  0  0  0
   59.5847   26.6406   44.5420 H   0  0  0  0  0  0  0  0  0  0  0  0
   60.7725   25.9203   46.6652 H   0  0  0  0  0  0  0  0  0  0  0  0
   61.3864   27.4655   45.9344 H   0  0  0  0  0  0  0  0  0  0  0  0
   59.4094   27.2923   48.2267 H   0  0  0  0  0  0  0  0  0  0  0  0
   61.1992   27.5490   48.3866 H   0  0  0  0  0  0  0  0  0  0  0  0
   59.6455   29.6188   48.4331 H   0  0  0  0  0  0  0  0  0  0  0  0
   61.1152   29.6552   47.3978 H   0  0  0  0  0  0  0  0  0  0  0  0
  1  2  1  0
  2  3  1  0
  3  4  1  0
  4  5  1  0
  5  6  1  0
  6  7  1  0
  7  8  1  0
  8  9  1  0
  9 10  1  0
 10 11  1  0
 11 12  1  0
 12 13  1  0
 13 14  1  0
 14 15  2  0
 15 16  1  0
 16 17  2  0
 17 18  1  0
 17 19  1  0
 19 20  2  0
 20 21  1  0
 21 22  1  0
 22 23  1  0
 23 24  1  0
 16 25  1  0
 25 26  1  0
 26 27  1  0
 27 28  1  0
 20 14  1  0
 28 15  1  0
 24 19  1  0
  1 29  1  0
  1 30  1  0
  1 31  1  0
  2 32  1  0
  2 33  1  0
  3 34  1  0
  4 35  1  0
  4 36  1  0
  5 37  1  0
  5 38  1  0
  6 39  1  0
  6 40  1  0
  8 41  1  0
  8 42  1  0
  9 43  1  0
  9 44  1  0
 11 45  1  0
 11 46  1  0
 12 47  1  0
 12 48  1  0
 13 49  1  0
 18 50  1  0
 18 51  1  0
 18 52  1  0
 21 53  1  0
 21 54  1  0
 22 55  1  0
 22 56  1  0
 23 57  1  0
 23 58  1  0
 24 59  1  0
 24 60  1  0
 25 61  1  0
 25 62  1  0
 26 63  1  0
 26 64  1  0
 27 65  1  0
 27 66  1  0
 28 67  1  0
 28 68  1  0
M  CHG  1  17   1
M  END
>  <smiles>  (10) 
CCNCCCOCCOCCNc1c2c([n+](C)c3c1CCCC3)CCCC2

>  <score_type>  (10) 
oracle

>  <origin>  (10) 
adg

>  <m_score__min__energy>  (10) 
-6.0999999999999996

>  <m_primary>  (10) 
energy

$$$$
11:0
     RDKit          3D

 74 77  0  0  0  0  0  0  0  0999 V2000
   56.2540   29.7310   43.0330 C   0  0  0  0  0  0  0  0  0  0  0  0
   55.7100   29.3510   44.3740 C   0  0  0  0  0  0  0  0  0  0  0  0
   56.5840   28.6560   45.2010 O   0  0  0  0  0  0  0  0  0  0  0  0
   56.7440   27.2940   45.2970 C   0  0  0  0  0  0  0  0  0  0  0  0
   55.9980   26.4630   46.0970 C   0  0  0  0  0  0  0  0  0  0  0  0
   56.2030   25.0940   46.1520 C   0  0  0  0  0  0  0  0  0  0  0  0
   57.2090   24.5190   45.3650 C   0  0  0  0  0  0  0  0  0  0  0  0
   57.4850   22.6340   45.4490 Br  0  0  0  0  0  0  0  0  0  0  0  0
   57.9730   25.3360   44.5520 C   0  0  0  0  0  0  0  0  0  0  0  0
   57.7400   26.7010   44.5210 C   0  0  0  0  0  0  0  0  0  0  0  0
   58.5550   27.5970   43.6450 C   0  0  0  0  0  0  0  0  0  0  0  0
   59.0960   28.7110   44.3500 N   0  0  0  0  0  0  0  0  0  0  0  0
   60.0660   28.4230   45.3520 C   0  0  0  0  0  0  0  0  0  0  0  0
   60.7600   29.6840   45.8810 C   0  0  0  0  0  0  0  0  0  0  0  0
   59.9930   30.2850   46.9970 C   0  0  0  0  0  0  0  0  0  0  0  0
   58.5280   30.2240   46.8790 C   0  0  0  0  0  0  0  0  0  0  0  0
   57.7910   30.9590   45.9740 N   0  0  0  0  0  0  0  0  0  0  0  0
   58.3130   31.6910   44.9080 C   0  0  0  0  0  0  0  0  0  0  0  0
   58.8050   33.0320   45.5130 C   0  0  0  0  0  0  0  0  0  0  0  0
   58.0480   33.4080   46.7510 C   0  0  0  0  0  0  0  0  0  0  0  0
   58.8580   33.8440   47.8450 N   0  0  0  0  0  0  0  0  0  0  0  0
   59.9030   33.1100   48.4460 C   0  0  0  0  0  0  0  0  0  0  0  0
   59.5570   32.3430   49.5630 C   0  0  0  0  0  0  0  0  0  0  0  0
   58.2490   32.3420   50.0060 C   0  0  0  0  0  0  0  0  0  0  0  0
   57.8470   31.6100   51.1040 C   0  0  0  0  0  0  0  0  0  0  0  0
   58.8150   30.8730   51.7480 C   0  0  0  0  0  0  0  0  0  0  0  0
   60.1170   30.8740   51.3060 C   0  0  0  0  0  0  0  0  0  0  0  0
   60.5340   31.6130   50.1940 C   0  0  0  0  0  0  0  0  0  0  0  0
   61.8280   31.5940   49.7860 N   0  0  0  0  0  0  0  0  0  0  0  0
   62.7370   30.7860   50.5310 C   0  0  0  0  0  0  0  0  0  0  0  0
   62.1440   32.3380   48.7100 C   0  0  0  0  0  0  0  0  0  0  0  0
   63.4460   32.3510   48.2640 C   0  0  0  0  0  0  0  0  0  0  0  0
   63.7750   33.1210   47.1510 C   0  0  0  0  0  0  0  0  0  0  0  0
   62.8490   33.8780   46.4700 C   0  0  0  0  0  0  0  0  0  0  0  0
   61.5520   33.8550   46.9280 C   0  0  0  0  0  0  0  0  0  0  0  0
   61.2070   33.1000   48.0250 C   0  0  0  0  0  0  0  0  0  0  0  0
   57.1493   30.3564   43.1643 H   0  0  0  0  0  0  0  0  0  0  0  0
   56.5206   28.8217   42.4744 H   0  0  0  0  0  0  0  0  0  0  0  0
   55.4920   30.2943   42.4744 H   0  0  0  0  0  0  0  0  0  0  0  0
   55.4145   30.2745   44.8935 H   0  0  0  0  0  0  0  0  0  0  0  0
   54.8731   28.6651   44.1761 H   0  0  0  0  0  0  0  0  0  0  0  0
   55.2050   26.9028   46.7197 H   0  0  0  0  0  0  0  0  0  0  0  0
   55.5822   24.4650   46.8069 H   0  0  0  0  0  0  0  0  0  0  0  0
   58.7678   24.9008   43.9283 H   0  0  0  0  0  0  0  0  0  0  0  0
   59.3845   27.0134   43.2192 H   0  0  0  0  0  0  0  0  0  0  0  0
   57.8904   27.9903   42.8617 H   0  0  0  0  0  0  0  0  0  0  0  0
   58.4630   29.4920   44.5410 H   0  0  0  0  0  0  0  0  0  0  0  0
   59.5660   27.9177   46.1914 H   0  0  0  0  0  0  0  0  0  0  0  0
   60.8371   27.7851   44.8955 H   0  0  0  0  0  0  0  0  0  0  0  0
   61.7657   29.4178   46.2383 H   0  0  0  0  0  0  0  0  0  0  0  0
   60.8224   30.4180   45.0640 H   0  0  0  0  0  0  0  0  0  0  0  0
   60.2782   29.7618   47.9216 H   0  0  0  0  0  0  0  0  0  0  0  0
   60.2469   31.3553   46.9888 H   0  0  0  0  0  0  0  0  0  0  0  0
   58.2906   29.1706   46.6694 H   0  0  0  0  0  0  0  0  0  0  0  0
   58.2248   30.6970   47.8247 H   0  0  0  0  0  0  0  0  0  0  0  0
   56.7860   30.7310   45.8620 H   0  0  0  0  0  0  0  0  0  0  0  0
   59.1515   31.1492   44.4461 H   0  0  0  0  0  0  0  0  0  0  0  0
   57.5597   31.8544   44.1233 H   0  0  0  0  0  0  0  0  0  0  0  0
   59.8713   32.9363   45.7655 H   0  0  0  0  0  0  0  0  0  0  0  0
   58.6393   33.8205   44.7641 H   0  0  0  0  0  0  0  0  0  0  0  0
   57.3553   34.2227   46.4933 H   0  0  0  0  0  0  0  0  0  0  0  0
   57.5395   32.4935   47.0902 H   0  0  0  0  0  0  0  0  0  0  0  0
   58.6770   34.8060   48.2630 H   0  0  0  0  0  0  0  0  0  0  0  0
   57.5037   32.9443   49.4659 H   0  0  0  0  0  0  0  0  0  0  0  0
   56.8024   31.6150   51.4486 H   0  0  0  0  0  0  0  0  0  0  0  0
   58.5428   30.2742   52.6296 H   0  0  0  0  0  0  0  0  0  0  0  0
   60.8596   30.2701   51.8480 H   0  0  0  0  0  0  0  0  0  0  0  0
   62.5658   30.9382   51.6069 H   0  0  0  0  0  0  0  0  0  0  0  0
   62.5764   29.7270   50.2803 H   0  0  0  0  0  0  0  0  0  0  0  0
   63.7698   31.0696   50.2803 H   0  0  0  0  0  0  0  0  0  0  0  0
   64.2173   31.7605   48.7802 H   0  0  0  0  0  0  0  0  0  0  0  0
   64.8181   33.1242   46.8018 H   0  0  0  0  0  0  0  0  0  0  0  0
   63.1349   34.4781   45.5936 H   0  0  0  0  0  0  0  0  0  0  0  0
   60.7822   34.4469   46.4113 H   0  0  0  0  0  0  0  0  0  0  0  0
  1  2  1  0
  2  3  1  0
  3  4  1  0
  4  5  2  0
  5  6  1  0
  6  7  2  0
  7  8  1  0
  7  9  1  0
  9 10  2  0
 10 11  1  0
 11 12  1  0
 12 13  1  0
 13 14  1  0
 14 15  1  0
 15 16  1  0
 16 17  1  0
 17 18  1  0
 18 19  1  0
 19 20  1  0
 20 21  1  0
 21 22  1  0
 22 23  1  0
 23 24  2  0
 24 25  1  0
 25 26  2  0
 26 27  1  0
 27 28  2  0
 28 29  1  0
 29 30  1  0
 29 31  2  0
 31 32  1  0
 32 33  2  0
 33 34  1  0
 34 35  2  0
 35 36  1  0
 10  4  1  0
 36 22  2  0
 28 23  1  0
 36 31  1  0
  1 37  1  0
  1 38  1  0
  1 39  1  0
  2 40  1  0
  2 41  1  0
  5 42  1  0
  6 43  1  0
  9 44  1  0
 11 45  1  0
 11 46  1  0
 12 47  1  0
 13 48  1  0
 13 49  1  0
 14 50  1  0
 14 51  1  0
 15 52  1  0
 15 53  1  0
 16 54  1  0
 16 55  1  0
 17 56  1  0
 18 57  1  0
 18 58  1  0
 19 59  1  0
 19 60  1  0
 20 61  1  0
 20 62  1  0
 21 63  1  0
 24 64  1  0
 25 65  1  0
 26 66  1  0
 27 67  1  0
 30 68  1  0
 30 69  1  0
 30 70  1  0
 32 71  1  0
 33 72  1  0
 34 73  1  0
 35 74  1  0
M  CHG  1  29   1
M  END
>  <smiles>  (11) 
CCOc1ccc(Br)cc1CNCCCCNCCCNc1c2ccccc2[n+](C)c2ccccc12

>  <score_type>  (11) 
oracle

>  <origin>  (11) 
adg

>  <m_score__min__energy>  (11) 
-7.9500000000000002

>  <m_primary>  (11) 
energy

$$$$
12:0
     RDKit          3D

 52 54  0  0  0  0  0  0  0  0999 V2000
   57.7890   29.4370   45.7140 C   0  0  0  0  0  0  0  0  0  0  0  0
   57.3200   30.4290   44.6420 C   0  0  0  0  0  0  0  0  0  0  0  0
   56.0180   29.8800   44.1290 C   0  0  0  0  0  0  0  0  0  0  0  0
   57.2250   31.7420   45.2080 N   0  0  0  0  0  0  0  0  0  0  0  0
   57.5810   32.8000   44.2840 C   0  0  0  0  0  0  0  0  0  0  0  0
   58.8730   33.4260   44.7900 C   0  0  0  0  0  0  0  0  0  0  0  0
   58.4810   34.5800   45.7110 C   0  0  0  0  0  0  0  0  0  0  0  0
   58.0290   33.9510   47.0350 C   0  0  0  0  0  0  0  0  0  0  0  0
   58.8900   32.8160   47.2710 N   0  0  0  0  0  0  0  0  0  0  0  0
   59.8430   32.8830   48.2980 C   0  0  0  0  0  0  0  0  0  0  0  0
   61.1600   33.2030   48.0410 C   0  0  0  0  0  0  0  0  0  0  0  0
   61.4850   33.4510   46.7180 C   0  0  0  0  0  0  0  0  0  0  0  0
   62.7820   33.7750   46.3820 C   0  0  0  0  0  0  0  0  0  0  0  0
   63.6960   33.8320   47.4130 C   0  0  0  0  0  0  0  0  0  0  0  0
   63.3710   33.5840   48.7290 C   0  0  0  0  0  0  0  0  0  0  0  0
   62.0750   33.2610   49.0670 C   0  0  0  0  0  0  0  0  0  0  0  0
   61.7830   33.0230   50.3530 N   0  0  0  0  0  0  0  0  0  0  0  0
   62.6930   33.0780   51.4440 C   0  0  0  0  0  0  0  0  0  0  0  0
   60.4910   32.7060   50.6220 C   0  0  0  0  0  0  0  0  0  0  0  0
   60.0550   32.4320   51.9100 C   0  0  0  0  0  0  0  0  0  0  0  0
   58.7290   32.1050   52.1840 C   0  0  0  0  0  0  0  0  0  0  0  0
   57.7970   32.0420   51.1720 C   0  0  0  0  0  0  0  0  0  0  0  0
   58.2100   32.3090   49.8860 C   0  0  0  0  0  0  0  0  0  0  0  0
   59.5290   32.6330   49.6300 C   0  0  0  0  0  0  0  0  0  0  0  0
   57.5913   29.8551   46.7121 H   0  0  0  0  0  0  0  0  0  0  0  0
   57.2440   28.4884   45.5993 H   0  0  0  0  0  0  0  0  0  0  0  0
   58.8680   29.2562   45.5993 H   0  0  0  0  0  0  0  0  0  0  0  0
   58.0206   30.5359   43.8007 H   0  0  0  0  0  0  0  0  0  0  0  0
   55.3743   29.6086   44.9787 H   0  0  0  0  0  0  0  0  0  0  0  0
   55.5145   30.6424   43.5165 H   0  0  0  0  0  0  0  0  0  0  0  0
   56.2124   28.9873   43.5165 H   0  0  0  0  0  0  0  0  0  0  0  0
   56.2900   31.9390   45.6220 H   0  0  0  0  0  0  0  0  0  0  0  0
   57.7329   32.3849   43.2767 H   0  0  0  0  0  0  0  0  0  0  0  0
   56.7804   33.5520   44.2253 H   0  0  0  0  0  0  0  0  0  0  0  0
   59.4605   32.6813   45.3470 H   0  0  0  0  0  0  0  0  0  0  0  0
   59.4890   33.7849   43.9523 H   0  0  0  0  0  0  0  0  0  0  0  0
   59.3442   35.2406   45.8800 H   0  0  0  0  0  0  0  0  0  0  0  0
   57.6787   35.1871   45.2663 H   0  0  0  0  0  0  0  0  0  0  0  0
   58.1283   34.6788   47.8538 H   0  0  0  0  0  0  0  0  0  0  0  0
   56.9739   33.6438   46.9870 H   0  0  0  0  0  0  0  0  0  0  0  0
   58.8450   31.9300   46.7080 H   0  0  0  0  0  0  0  0  0  0  0  0
   60.7114   33.3897   45.9384 H   0  0  0  0  0  0  0  0  0  0  0  0
   63.0740   33.9784   45.3411 H   0  0  0  0  0  0  0  0  0  0  0  0
   64.7383   34.0887   47.1725 H   0  0  0  0  0  0  0  0  0  0  0  0
   64.1450   33.6438   49.5083 H   0  0  0  0  0  0  0  0  0  0  0  0
   62.1333   33.0442   52.3904 H   0  0  0  0  0  0  0  0  0  0  0  0
   63.3791   32.2197   51.3929 H   0  0  0  0  0  0  0  0  0  0  0  0
   63.2707   34.0127   51.3929 H   0  0  0  0  0  0  0  0  0  0  0  0
   60.7771   32.4742   52.7388 H   0  0  0  0  0  0  0  0  0  0  0  0
   58.4231   31.8949   53.2195 H   0  0  0  0  0  0  0  0  0  0  0  0
   56.7491   31.7848   51.3858 H   0  0  0  0  0  0  0  0  0  0  0  0
   57.4868   32.2642   49.0584 H   0  0  0  0  0  0  0  0  0  0  0  0
  1  2  1  0
  2  3  1  0
  2  4  1  0
  4  5  1  0
  5  6  1  0
  6  7  1  0
  7  8  1  0
  8  9  1  0
  9 10  1  0
 10 11  2  0
 11 12  1  0
 12 13  2  0
 13 14  1  0
 14 15  2  0
 15 16  1  0
 16 17  2  0
 17 18  1  0
 17 19  1  0
 19 20  2  0
 20 21  1  0
 21 22  2  0
 22 23  1  0
 23 24  2  0
 24 10  1  0
 16 11  1  0
 24 19  1  0
  1 25  1  0
  1 26  1  0
  1 27  1  0
  2 28  1  0
  3 29  1  0
  3 30  1  0
  3 31  1  0
  4 32  1  0
  5 33  1  0
  5 34  1  0
  6 35  1  0
  6 36  1  0
  7 37  1  0
  7 38  1  0
  8 39  1  0
  8 40  1  0
  9 41  1  0
 12 42  1  0
 13 43  1  0
 14 44  1  0
 15 45  1  0
 18 46  1  0
 18 47  1  0
 18 48  1  0
 20 49  1  0
 21 50  1  0
 22 51  1  0
 23 52  1  0
M  CHG  1  17   1
M  END
>  <smiles>  (12) 
CC(C)NCCCCNc1c2ccccc2[n+](C)c2ccccc12

>  <score_type>  (12) 
oracle

>  <origin>  (12) 
adg

>  <m_score__min__energy>  (12) 
-6.04

>  <m_primary>  (12) 
energy

$$$$
13:0
     RDKit          3D

 57 59  0  0  0  0  0  0  0  0999 V2000
   60.3490   30.2970   46.9070 C   0  0  0  0  0  0  0  0  0  0  0  0
   59.1350   30.3160   47.8120 C   0  0  0  0  0  0  0  0  0  0  0  0
   59.5270   30.3880   49.1190 O   0  0  0  0  0  0  0  0  0  0  0  0
   60.2940   29.3390   49.5550 C   0  0  0  0  0  0  0  0  0  0  0  0
   60.1360   29.0200   51.0280 C   0  0  0  0  0  0  0  0  0  0  0  0
   59.4030   30.1190   51.6510 N   0  0  0  0  0  0  0  0  0  0  0  0
   58.0510   29.7210   52.0350 C   0  0  0  0  0  0  0  0  0  0  0  0
   57.1070   30.8880   52.0870 C   0  0  0  0  0  0  0  0  0  0  0  0
   57.5020   31.9920   51.3810 O   0  0  0  0  0  0  0  0  0  0  0  0
   57.8320   33.0850   52.1340 C   0  0  0  0  0  0  0  0  0  0  0  0
   59.1640   33.7490   51.6340 C   0  0  0  0  0  0  0  0  0  0  0  0
   59.6470   32.9710   50.5440 N   0  0  0  0  0  0  0  0  0  0  0  0
   60.6170   33.1250   49.5720 C   0  0  0  0  0  0  0  0  0  0  0  0
   61.9730   32.9490   49.6980 C   0  0  0  0  0  0  0  0  0  0  0  0
   62.5030   32.5160   50.8840 C   0  0  0  0  0  0  0  0  0  0  0  0
   63.8590   32.3100   51.0900 C   0  0  0  0  0  0  0  0  0  0  0  0
   64.7600   32.5360   50.0890 C   0  0  0  0  0  0  0  0  0  0  0  0
   64.2530   32.9750   48.8720 C   0  0  0  0  0  0  0  0  0  0  0  0
   62.8880   33.1790   48.6750 C   0  0  0  0  0  0  0  0  0  0  0  0
   62.4800   33.5950   47.4750 N   0  0  0  0  0  0  0  0  0  0  0  0
   63.3270   33.8530   46.3470 C   0  0  0  0  0  0  0  0  0  0  0  0
   61.1430   33.7880   47.2880 C   0  0  0  0  0  0  0  0  0  0  0  0
   60.7200   34.2310   46.0490 C   0  0  0  0  0  0  0  0  0  0  0  0
   59.3920   34.4720   45.7440 C   0  0  0  0  0  0  0  0  0  0  0  0
   58.4740   34.2560   46.7250 C   0  0  0  0  0  0  0  0  0  0  0  0
   58.9010   33.8080   47.9790 C   0  0  0  0  0  0  0  0  0  0  0  0
   60.2190   33.5690   48.2840 C   0  0  0  0  0  0  0  0  0  0  0  0
   61.2627   30.2827   47.5194 H   0  0  0  0  0  0  0  0  0  0  0  0
   60.3190   29.3992   46.2721 H   0  0  0  0  0  0  0  0  0  0  0  0
   60.3471   31.1953   46.2721 H   0  0  0  0  0  0  0  0  0  0  0  0
   58.5136   31.1907   47.5694 H   0  0  0  0  0  0  0  0  0  0  0  0
   58.5564   29.3930   47.6591 H   0  0  0  0  0  0  0  0  0  0  0  0
   60.0155   28.4453   48.9773 H   0  0  0  0  0  0  0  0  0  0  0  0
   61.3434   29.6339   49.4077 H   0  0  0  0  0  0  0  0  0  0  0  0
   59.5754   28.0813   51.1488 H   0  0  0  0  0  0  0  0  0  0  0  0
   61.1218   28.9009   51.5014 H   0  0  0  0  0  0  0  0  0  0  0  0
   59.3050   30.9210   50.9990 H   0  0  0  0  0  0  0  0  0  0  0  0
   57.6743   28.9936   51.3008 H   0  0  0  0  0  0  0  0  0  0  0  0
   58.1021   29.2840   53.0432 H   0  0  0  0  0  0  0  0  0  0  0  0
   56.1367   30.5582   51.6872 H   0  0  0  0  0  0  0  0  0  0  0  0
   57.0666   31.1996   53.1412 H   0  0  0  0  0  0  0  0  0  0  0  0
   57.0186   33.8227   52.0685 H   0  0  0  0  0  0  0  0  0  0  0  0
   57.9801   32.7556   53.1730 H   0  0  0  0  0  0  0  0  0  0  0  0
   58.9686   34.7795   51.3024 H   0  0  0  0  0  0  0  0  0  0  0  0
   59.9072   33.7843   52.4442 H   0  0  0  0  0  0  0  0  0  0  0  0
   59.1210   32.0200   50.4990 H   0  0  0  0  0  0  0  0  0  0  0  0
   61.8151   32.3207   51.7198 H   0  0  0  0  0  0  0  0  0  0  0  0
   64.2128   31.9605   52.0711 H   0  0  0  0  0  0  0  0  0  0  0  0
   65.8381   32.3777   50.2393 H   0  0  0  0  0  0  0  0  0  0  0  0
   64.9478   33.1669   48.0411 H   0  0  0  0  0  0  0  0  0  0  0  0
   64.3240   34.1567   46.6989 H   0  0  0  0  0  0  0  0  0  0  0  0
   63.4151   32.9409   45.7384 H   0  0  0  0  0  0  0  0  0  0  0  0
   62.8917   34.6593   45.7384 H   0  0  0  0  0  0  0  0  0  0  0  0
   61.4755   34.4002   45.2676 H   0  0  0  0  0  0  0  0  0  0  0  0
   59.0900   34.8247   44.7468 H   0  0  0  0  0  0  0  0  0  0  0  0
   57.4053   34.4323   46.5332 H   0  0  0  0  0  0  0  0  0  0  0  0
   58.1445   33.6387   48.7594 H   0  0  0  0  0  0  0  0  0  0  0  0
  1  2  1  0
  2  3  1  0
  3  4  1  0
  4  5  1  0
  5  6  1  0
  6  7  1  0
  7  8  1  0
  8  9  1  0
  9 10  1  0
 10 11  1  0
 11 12  1  0
 12 13  1  0
 13 14  2  0
 14 15  1  0
 15 16  2  0
 16 17  1  0
 17 18  2  0
 18 19  1  0
 19 20  2  0
 20 21  1  0
 20 22  1  0
 22 23  2  0
 23 24  1  0
 24 25  2  0
 25 26  1  0
 26 27  2  0
 27 13  1  0
 19 14  1  0
 27 22  1  0
  1 28  1  0
  1 29  1  0
  1 30  1  0
  2 31  1  0
  2 32  1  0
  4 33  1  0
  4 34  1  0
  5 35  1  0
  5 36  1  0
  6 37  1  0
  7 38  1  0
  7 39  1  0
  8 40  1  0
  8 41  1  0
 10 42  1  0
 10 43  1  0
 11 44  1  0
 11 45  1  0
 12 46  1  0
 15 47  1  0
 16 48  1  0
 17 49  1  0
 18 50  1  0
 21 51  1  0
 21 52  1  0
 21 53  1  0
 23 54  1  0
 24 55  1  0
 25 56  1  0
 26 57  1  0
M  CHG  1  20   1
M  END
>  <smiles>  (13) 
CCOCCNCCOCCNc1c2ccccc2[n+](C)c2ccccc12

>  <score_type>  (13) 
oracle

>  <origin>  (13) 
adg

>  <m_score__min__energy>  (13) 
-5.2699999999999996

>  <m_primary>  (13) 
energy

$$$$
14:0
     RDKit          3D

 41 42  0  0  1  0  0  0  0  0999 V2000
   56.2820   30.0280   42.7860 C   0  0  0  0  0  0  0  0  0  0  0  0
   55.7590   30.0130   44.1870 C   0  0  0  0  0  0  0  0  0  0  0  0
   56.7390   29.6440   45.1970 N   0  0  0  0  0  0  0  0  0  0  0  0
   58.0190   29.3520   44.5790 C   0  0  0  0  0  0  0  0  0  0  0  0
   58.9320   28.5570   45.4010 C   0  0  0  0  0  0  0  0  0  0  0  0
   58.7490   28.2640   46.6910 C   0  0  0  0  0  0  0  0  0  0  0  0
   58.5290   29.3200   47.7460 C   0  0  0  0  0  0  0  0  0  0  0  0
   59.2300   30.4900   47.3840 N   0  0  0  0  0  0  0  0  0  0  0  0
   59.8860   31.5830   47.0450 C   0  0  0  0  0  0  0  0  0  0  0  0
   61.1390   32.0600   47.3320 C   0  0  0  0  0  0  0  0  0  0  0  0
   61.5730   33.3090   46.9930 C   0  0  0  0  0  0  0  0  0  0  0  0
   62.8910   33.7020   47.3500 O   0  0  0  0  0  0  0  0  0  0  0  0
   63.7750   32.9570   48.1050 C   0  0  0  0  0  0  0  0  0  0  0  0
   60.7390   34.1420   46.3300 C   0  0  0  0  0  0  0  0  0  0  0  0
   59.4880   33.7580   46.0020 C   0  0  0  0  0  0  0  0  0  0  0  0
   58.6970   34.6710   45.3090 C   0  0  0  0  0  0  0  0  0  0  0  0
   57.4420   34.2360   44.9860 C   0  0  0  0  0  0  0  0  0  0  0  0
   56.9360   32.9620   45.3060 C   0  0  0  0  0  0  0  0  0  0  0  0
   57.8110   32.1780   45.9830 N   0  0  0  0  0  0  0  0  0  0  0  0
   59.0400   32.5410   46.3260 C   0  0  0  0  0  0  0  0  0  0  0  0
   57.3814   30.0595   42.8053 H   0  0  0  0  0  0  0  0  0  0  0  0
   55.9504   29.1200   42.2611 H   0  0  0  0  0  0  0  0  0  0  0  0
   55.8989   30.9155   42.2611 H   0  0  0  0  0  0  0  0  0  0  0  0
   55.3849   31.0199   44.4241 H   0  0  0  0  0  0  0  0  0  0  0  0
   54.9749   29.2421   44.2181 H   0  0  0  0  0  0  0  0  0  0  0  0
   56.8010   30.3250   45.9610 H   0  0  0  0  0  0  0  0  0  0  0  0
   57.8304   28.8002   43.6463 H   0  0  0  0  0  0  0  0  0  0  0  0
   58.5129   30.3217   44.4184 H   0  0  0  0  0  0  0  0  0  0  0  0
   59.8413   28.1700   44.9180 H   0  0  0  0  0  0  0  0  0  0  0  0
   58.7591   27.2076   46.9975 H   0  0  0  0  0  0  0  0  0  0  0  0
   57.4549   29.5439   47.8242 H   0  0  0  0  0  0  0  0  0  0  0  0
   58.8954   28.9548   48.7168 H   0  0  0  0  0  0  0  0  0  0  0  0
   58.3470   30.6290   46.3650 H   0  0  0  0  0  0  0  0  0  0  0  0
   61.8353   31.3973   47.8668 H   0  0  0  0  0  0  0  0  0  0  0  0
   63.5761   33.1246   49.1738 H   0  0  0  0  0  0  0  0  0  0  0  0
   63.6478   31.8897   47.8713 H   0  0  0  0  0  0  0  0  0  0  0  0
   64.8054   33.2632   47.8713 H   0  0  0  0  0  0  0  0  0  0  0  0
   61.0862   35.1486   46.0538 H   0  0  0  0  0  0  0  0  0  0  0  0
   59.0578   35.6746   45.0397 H   0  0  0  0  0  0  0  0  0  0  0  0
   56.7837   34.9275   44.4397 H   0  0  0  0  0  0  0  0  0  0  0  0
   55.9230   32.6325   45.0318 H   0  0  0  0  0  0  0  0  0  0  0  0
  1  2  1  0
  2  3  1  0
  3  4  1  0
  4  5  1  0
  5  6  2  0
  6  7  1  0
  7  8  1  0
  8  9  1  0
  9 10  2  0
 10 11  1  0
 11 12  1  0
 12 13  1  0
 11 14  2  0
 14 15  1  0
 15 16  2  0
 16 17  1  0
 17 18  2  0
 18 19  1  0
 19 20  2  0
 20  9  1  0
 20 15  1  0
  1 21  1  0
  1 22  1  0
  1 23  1  0
  2 24  1  0
  2 25  1  0
  3 26  1  0
  4 27  1  0
  4 28  1  0
  5 29  1  0
  6 30  1  0
  7 31  1  0
  7 32  1  0
  8 33  1  0
 10 34  1  0
 13 35  1  0
 13 36  1  0
 13 37  1  0
 14 38  1  0
 16 39  1  0
 17 40  1  0
 18 41  1  0
M  END
>  <smiles>  (14) 
CCNCC=CCNc1cc(OC)cc2cccnc12

>  <score_type>  (14) 
oracle

>  <origin>  (14) 
adg

>  <m_score__min__energy>  (14) 
-5.79

>  <m_primary>  (14) 
energy

$$$$
15:0
     RDKit          3D

 68 70  0  0  0  0  0  0  0  0999 V2000
   60.7720   27.9910   49.8170 C   0  0  0  0  0  0  0  0  0  0  0  0
   61.1030   29.2680   49.4350 O   0  0  0  0  0  0  0  0  0  0  0  0
   61.4420   30.0950   50.4730 C   0  0  0  0  0  0  0  0  0  0  0  0
   60.3500   31.0380   50.9240 C   0  0  0  0  0  0  0  0  0  0  0  0
   59.1420   30.9160   50.1880 N   0  0  0  0  0  0  0  0  0  0  0  0
   58.1430   30.0900   50.8360 C   0  0  0  0  0  0  0  0  0  0  0  0
   58.5820   32.2320   49.9490 C   0  0  0  0  0  0  0  0  0  0  0  0
   59.6710   33.2700   50.0280 C   0  0  0  0  0  0  0  0  0  0  0  0
   60.6140   33.2090   49.0380 O   0  0  0  0  0  0  0  0  0  0  0  0
   61.2870   34.3810   48.7600 C   0  0  0  0  0  0  0  0  0  0  0  0
   62.7910   34.1520   48.8360 C   0  0  0  0  0  0  0  0  0  0  0  0
   63.4620   34.0960   47.4990 C   0  0  0  0  0  0  0  0  0  0  0  0
   63.7610   32.7630   47.0680 N   0  0  0  0  0  0  0  0  0  0  0  0
   63.1520   31.7230   47.7940 C   0  0  0  0  0  0  0  0  0  0  0  0
   62.1750   30.8420   47.1280 C   0  0  0  0  0  0  0  0  0  0  0  0
   60.7880   30.9540   47.4410 N   0  0  0  0  0  0  0  0  0  0  0  0
   59.7360   30.8590   46.4690 C   0  0  0  0  0  0  0  0  0  0  0  0
   59.3130   29.6130   45.9970 C   0  0  0  0  0  0  0  0  0  0  0  0
   59.8960   28.4540   46.4810 C   0  0  0  0  0  0  0  0  0  0  0  0
   59.5060   27.2010   46.0420 C   0  0  0  0  0  0  0  0  0  0  0  0
   58.5130   27.0830   45.0990 C   0  0  0  0  0  0  0  0  0  0  0  0
   57.9200   28.2470   44.6070 C   0  0  0  0  0  0  0  0  0  0  0  0
   58.3080   29.5000   45.0450 C   0  0  0  0  0  0  0  0  0  0  0  0
   57.6990   30.5780   44.5400 N   0  0  0  0  0  0  0  0  0  0  0  0
   56.6500   30.5680   43.5520 C   0  0  0  0  0  0  0  0  0  0  0  0
   58.0860   31.8040   44.9830 C   0  0  0  0  0  0  0  0  0  0  0  0
   57.4560   32.9440   44.4950 C   0  0  0  0  0  0  0  0  0  0  0  0
   57.7870   34.2150   44.9260 C   0  0  0  0  0  0  0  0  0  0  0  0
   58.7760   34.3590   45.8710 C   0  0  0  0  0  0  0  0  0  0  0  0
   59.3900   33.2080   46.3410 C   0  0  0  0  0  0  0  0  0  0  0  0
   59.0910   31.9480   45.9360 C   0  0  0  0  0  0  0  0  0  0  0  0
   60.7560   27.9293   50.9152 H   0  0  0  0  0  0  0  0  0  0  0  0
   59.7780   27.7358   49.4209 H   0  0  0  0  0  0  0  0  0  0  0  0
   61.5169   27.2851   49.4209 H   0  0  0  0  0  0  0  0  0  0  0  0
   61.7257   29.4671   51.3304 H   0  0  0  0  0  0  0  0  0  0  0  0
   62.2618   30.7292   50.1045 H   0  0  0  0  0  0  0  0  0  0  0  0
   60.1322   30.8341   51.9828 H   0  0  0  0  0  0  0  0  0  0  0  0
   60.7225   32.0595   50.7576 H   0  0  0  0  0  0  0  0  0  0  0  0
   58.2476   30.1765   51.9276 H   0  0  0  0  0  0  0  0  0  0  0  0
   57.1392   30.4254   50.5361 H   0  0  0  0  0  0  0  0  0  0  0  0
   58.2839   29.0411   50.5361 H   0  0  0  0  0  0  0  0  0  0  0  0
   58.1239   32.2582   48.9493 H   0  0  0  0  0  0  0  0  0  0  0  0
   57.8186   32.4466   50.7113 H   0  0  0  0  0  0  0  0  0  0  0  0
   59.1978   34.2621   49.9851 H   0  0  0  0  0  0  0  0  0  0  0  0
   60.2068   33.0757   50.9688 H   0  0  0  0  0  0  0  0  0  0  0  0
   61.0216   34.7217   47.7483 H   0  0  0  0  0  0  0  0  0  0  0  0
   61.0013   35.1440   49.4990 H   0  0  0  0  0  0  0  0  0  0  0  0
   63.2382   34.9740   49.4143 H   0  0  0  0  0  0  0  0  0  0  0  0
   62.9421   33.1717   49.3116 H   0  0  0  0  0  0  0  0  0  0  0  0
   62.7982   34.5621   46.7559 H   0  0  0  0  0  0  0  0  0  0  0  0
   64.4195   34.6292   47.5936 H   0  0  0  0  0  0  0  0  0  0  0  0
   64.8000   32.6610   47.1230 H   0  0  0  0  0  0  0  0  0  0  0  0
   63.9612   31.0778   48.1667 H   0  0  0  0  0  0  0  0  0  0  0  0
   62.5481   32.2540   48.5446 H   0  0  0  0  0  0  0  0  0  0  0  0
   62.2724   31.0190   46.0467 H   0  0  0  0  0  0  0  0  0  0  0  0
   62.4396   29.8415   47.5008 H   0  0  0  0  0  0  0  0  0  0  0  0
   60.4320   31.1190   48.4340 H   0  0  0  0  0  0  0  0  0  0  0  0
   60.6920   28.5316   47.2362 H   0  0  0  0  0  0  0  0  0  0  0  0
   59.9902   26.3003   46.4473 H   0  0  0  0  0  0  0  0  0  0  0  0
   58.1928   26.0937   44.7401 H   0  0  0  0  0  0  0  0  0  0  0  0
   57.1242   28.1655   43.8520 H   0  0  0  0  0  0  0  0  0  0  0  0
   55.6721   30.5587   44.0556 H   0  0  0  0  0  0  0  0  0  0  0  0
   56.7300   31.4669   42.9231 H   0  0  0  0  0  0  0  0  0  0  0  0
   56.7472   29.6707   42.9231 H   0  0  0  0  0  0  0  0  0  0  0  0
   56.6656   32.8300   43.7385 H   0  0  0  0  0  0  0  0  0  0  0  0
   57.2684   35.0961   44.5202 H   0  0  0  0  0  0  0  0  0  0  0  0
   59.0696   35.3525   46.2409 H   0  0  0  0  0  0  0  0  0  0  0  0
   60.1785   33.3252   47.0989 H   0  0  0  0  0  0  0  0  0  0  0  0
  1  2  1  0
  2  3  1  0
  3  4  1  0
  4  5  1  0
  5  6  1  0
  5  7  1  0
  7  8  1  0
  8  9  1  0
  9 10  1  0
 10 11  1  0
 11 12  1  0
 12 13  1  0
 13 14  1  0
 14 15  1  0
 15 16  1  0
 16 17  1  0
 17 18  2  0
 18 19  1  0
 19 20  2  0
 20 21  1  0
 21 22  2  0
 22 23  1  0
 23 24  2  0
 24 25  1  0
 24 26  1  0
 26 27  2  0
 27 28  1  0
 28 29  2  0
 29 30  1  0
 30 31  2  0
 31 17  1  0
 23 18  1  0
 31 26  1  0
  1 32  1  0
  1 33  1  0
  1 34  1  0
  3 35  1  0
  3 36  1  0
  4 37  1  0
  4 38  1  0
  6 39  1  0
  6 40  1  0
  6 41  1  0
  7 42  1  0
  7 43  1  0
  8 44  1  0
  8 45  1  0
 10 46  1  0
 10 47  1  0
 11 48  1  0
 11 49  1  0
 12 50  1  0
 12 51  1  0
 13 52  1  0
 14 53  1  0
 14 54  1  0
 15 55  1  0
 15 56  1  0
 16 57  1  0
 19 58  1  0
 20 59  1  0
 21 60  1  0
 22 61  1  0
 25 62  1  0
 25 63  1  0
 25 64  1  0
 27 65  1  0
 28 66  1  0
 29 67  1  0
 30 68  1  0
M  CHG  1  24   1
M  END
>  <smiles>  (15) 
COCCN(C)CCOCCCNCCNc1c2ccccc2[n+](C)c2ccccc12

>  <score_type>  (15) 
oracle

>  <origin>  (15) 
adg

>  <m_score__min__energy>  (15) 
-6.0700000000000003

>  <m_primary>  (15) 
energy

$$$$
16:0
     RDKit          3D

 68 70  0  0  0  0  0  0  0  0999 V2000
   62.9470   33.7850   46.7560 C   0  0  0  0  0  0  0  0  0  0  0  0
   63.4240   32.5320   47.4550 C   0  0  0  0  0  0  0  0  0  0  0  0
   62.7980   32.4990   48.7850 N   0  0  0  0  0  0  0  0  0  0  0  0
   63.0340   31.2280   49.4200 C   0  0  0  0  0  0  0  0  0  0  0  0
   61.8850   30.8490   50.3240 C   0  0  0  0  0  0  0  0  0  0  0  0
   61.1430   29.6250   49.8250 C   0  0  0  0  0  0  0  0  0  0  0  0
   59.9690   30.0250   48.9980 C   0  0  0  0  0  0  0  0  0  0  0  0
   60.3110   30.8900   47.8900 N   0  0  0  0  0  0  0  0  0  0  0  0
   59.5530   31.0250   46.7150 C   0  0  0  0  0  0  0  0  0  0  0  0
   59.3120   29.8690   45.9850 C   0  0  0  0  0  0  0  0  0  0  0  0
   59.8300   28.6700   46.4440 C   0  0  0  0  0  0  0  0  0  0  0  0
   59.6460   27.4700   45.7860 C   0  0  0  0  0  0  0  0  0  0  0  0
   58.9090   27.5090   44.6240 C   0  0  0  0  0  0  0  0  0  0  0  0
   58.3760   28.7110   44.1400 C   0  0  0  0  0  0  0  0  0  0  0  0
   58.5780   29.8910   44.8200 C   0  0  0  0  0  0  0  0  0  0  0  0
   58.0700   31.0340   44.3550 N   0  0  0  0  0  0  0  0  0  0  0  0
   57.2900   31.1540   43.1610 C   0  0  0  0  0  0  0  0  0  0  0  0
   58.2990   32.1720   45.0580 C   0  0  0  0  0  0  0  0  0  0  0  0
   57.7800   33.3750   44.5680 C   0  0  0  0  0  0  0  0  0  0  0  0
   57.9820   34.5710   45.2200 C   0  0  0  0  0  0  0  0  0  0  0  0
   58.7190   34.5450   46.3860 C   0  0  0  0  0  0  0  0  0  0  0  0
   59.2590   33.3970   46.9240 C   0  0  0  0  0  0  0  0  0  0  0  0
   59.9790   33.3460   48.0500 O   0  0  0  0  0  0  0  0  0  0  0  0
   59.8420   33.7870   49.3360 C   0  0  0  0  0  0  0  0  0  0  0  0
   59.0020   33.0080   50.2810 C   0  0  0  0  0  0  0  0  0  0  0  0
   59.4350   33.1880   51.6820 N   0  0  0  0  0  0  0  0  0  0  0  0
   59.1850   31.9040   52.3150 C   0  0  0  0  0  0  0  0  0  0  0  0
   58.5790   34.1400   52.3580 C   0  0  0  0  0  0  0  0  0  0  0  0
   60.8310   33.4790   51.7940 C   0  0  0  0  0  0  0  0  0  0  0  0
   59.0290   32.1980   46.2280 C   0  0  0  0  0  0  0  0  0  0  0  0
   62.6607   34.5369   47.5061 H   0  0  0  0  0  0  0  0  0  0  0  0
   63.7560   34.1844   46.1267 H   0  0  0  0  0  0  0  0  0  0  0  0
   62.0772   33.5453   46.1267 H   0  0  0  0  0  0  0  0  0  0  0  0
   63.1260   31.6441   46.8781 H   0  0  0  0  0  0  0  0  0  0  0  0
   64.5204   32.5330   47.5441 H   0  0  0  0  0  0  0  0  0  0  0  0
   61.7760   32.6860   48.6120 H   0  0  0  0  0  0  0  0  0  0  0  0
   63.1512   30.4559   48.6454 H   0  0  0  0  0  0  0  0  0  0  0  0
   63.9463   31.3065   50.0295 H   0  0  0  0  0  0  0  0  0  0  0  0
   62.2796   30.6387   51.3290 H   0  0  0  0  0  0  0  0  0  0  0  0
   61.1763   31.6902   50.3398 H   0  0  0  0  0  0  0  0  0  0  0  0
   61.8237   29.0133   49.2147 H   0  0  0  0  0  0  0  0  0  0  0  0
   60.7869   29.0481   50.6913 H   0  0  0  0  0  0  0  0  0  0  0  0
   59.4994   29.1147   48.5969 H   0  0  0  0  0  0  0  0  0  0  0  0
   59.2901   30.5912   49.6527 H   0  0  0  0  0  0  0  0  0  0  0  0
   61.1960   31.4790   47.9460 H   0  0  0  0  0  0  0  0  0  0  0  0
   60.4150   28.6734   47.3756 H   0  0  0  0  0  0  0  0  0  0  0  0
   60.0674   26.5297   46.1712 H   0  0  0  0  0  0  0  0  0  0  0  0
   58.7351   26.5781   44.0644 H   0  0  0  0  0  0  0  0  0  0  0  0
   57.7910   28.7119   43.2085 H   0  0  0  0  0  0  0  0  0  0  0  0
   56.2350   31.3163   43.4270 H   0  0  0  0  0  0  0  0  0  0  0  0
   57.6543   32.0067   42.5692 H   0  0  0  0  0  0  0  0  0  0  0  0
   57.3812   30.2313   42.5692 H   0  0  0  0  0  0  0  0  0  0  0  0
   57.1947   33.3654   43.6367 H   0  0  0  0  0  0  0  0  0  0  0  0
   57.5710   35.5121   44.8258 H   0  0  0  0  0  0  0  0  0  0  0  0
   58.8850   35.4944   46.9162 H   0  0  0  0  0  0  0  0  0  0  0  0
   60.8521   33.8363   49.7687 H   0  0  0  0  0  0  0  0  0  0  0  0
   59.3038   34.7406   49.2308 H   0  0  0  0  0  0  0  0  0  0  0  0
   57.9580   33.3412   50.1861 H   0  0  0  0  0  0  0  0  0  0  0  0
   59.1035   31.9424   50.0276 H   0  0  0  0  0  0  0  0  0  0  0  0
   59.2083   32.0234   53.4082 H   0  0  0  0  0  0  0  0  0  0  0  0
   58.1972   31.5300   52.0079 H   0  0  0  0  0  0  0  0  0  0  0  0
   59.9603   31.1867   52.0079 H   0  0  0  0  0  0  0  0  0  0  0  0
   58.6860   34.0210   53.4463 H   0  0  0  0  0  0  0  0  0  0  0  0
   58.8682   35.1617   52.0707 H   0  0  0  0  0  0  0  0  0  0  0  0
   57.5324   33.9606   52.0707 H   0  0  0  0  0  0  0  0  0  0  0  0
   61.1094   33.5370   52.8566 H   0  0  0  0  0  0  0  0  0  0  0  0
   61.4119   32.6826   51.3058 H   0  0  0  0  0  0  0  0  0  0  0  0
   61.0453   34.4411   51.3058 H   0  0  0  0  0  0  0  0  0  0  0  0
  1  2  1  0
  2  3  1  0
  3  4  1  0
  4  5  1  0
  5  6  1  0
  6  7  1  0
  7  8  1  0
  8  9  1  0
  9 10  2  0
 10 11  1  0
 11 12  2  0
 12 13  1  0
 13 14  2  0
 14 15  1  0
 15 16  2  0
 16 17  1  0
 16 18  1  0
 18 19  2  0
 19 20  1  0
 20 21  2  0
 21 22  1  0
 22 23  1  0
 23 24  1  0
 24 25  1  0
 25 26  1  0
 26 27  1  0
 26 28  1  0
 26 29  1  0
 22 30  2  0
 30  9  1  0
 15 10  1  0
 30 18  1  0
  1 31  1  0
  1 32  1  0
  1 33  1  0
  2 34  1  0
  2 35  1  0
  3 36  1  0
  4 37  1  0
  4 38  1  0
  5 39  1  0
  5 40  1  0
  6 41  1  0
  6 42  1  0
  7 43  1  0
  7 44  1  0
  8 45  1  0
 11 46  1  0
 12 47  1  0
 13 48  1  0
 14 49  1  0
 17 50  1  0
 17 51  1  0
 17 52  1  0
 19 53  1  0
 20 54  1  0
 21 55  1  0
 24 56  1  0
 24 57  1  0
 25 58  1  0
 25 59  1  0
 27 60  1  0
 27 61  1  0
 27 62  1  0
 28 63  1  0
 28 64  1  0
 28 65  1  0
 29 66  1  0
 29 67  1  0
 29 68  1  0
M  CHG  2  16   1  26   1
M  END
>  <smiles>  (16) 
CCNCCCCNc1c2ccccc2[n+](C)c2cccc(OCC[N+](C)(C)C)c12

>  <score_type>  (16) 
oracle

>  <origin>  (16) 
adg

>  <m_score__min__energy>  (16) 
-4.79

>  <m_primary>  (16) 
energy

$$$$
