0:0
     RDKit          3D

 64 67  0  0  0  0  0  0  0  0999 V2000
   58.4620   31.3020   43.7150 C   0  0  0  0  0  0  0  0  0  0  0  0
   58.6790   31.5250   45.1620 N   0  0  0  0  0  0  0  0  0  0  0  0
   58.9220   32.8010   45.6320 C   0  0  0  0  0  0  0  0  0  0  0  0
   59.2950   33.8600   44.7660 C   0  0  0  0  0  0  0  0  0  0  0  0
   59.4630   35.1580   45.2500 C   0  0  0  0  0  0  0  0  0  0  0  0
   59.2740   35.4320   46.6000 C   0  0  0  0  0  0  0  0  0  0  0  0
   58.9490   34.4040   47.4800 C   0  0  0  0  0  0  0  0  0  0  0  0
   58.7920   33.0800   47.0150 C   0  0  0  0  0  0  0  0  0  0  0  0
   58.5190   32.0320   47.9080 C   0  0  0  0  0  0  0  0  0  0  0  0
   58.1040   32.3360   49.2510 N   0  0  0  0  0  0  0  0  0  0  0  0
   59.0750   32.7700   50.2560 C   0  0  0  0  0  0  0  0  0  0  0  0
   58.6510   32.3400   51.6630 C   0  0  0  0  0  0  0  0  0  0  0  0
   57.4330   31.5190   51.6150 N   0  0  0  0  0  0  0  0  0  0  0  0
   56.9740   31.1460   52.9600 C   0  0  0  0  0  0  0  0  0  0  0  0
   55.7520   30.2350   52.8630 C   0  0  0  0  0  0  0  0  0  0  0  0
   55.0290   30.5500   51.7280 F   0  0  0  0  0  0  0  0  0  0  0  0
   56.1490   28.9120   52.7910 F   0  0  0  0  0  0  0  0  0  0  0  0
   54.9460   30.4080   53.9740 F   0  0  0  0  0  0  0  0  0  0  0  0
   58.5860   30.6970   47.4530 C   0  0  0  0  0  0  0  0  0  0  0  0
   58.5950   29.5850   48.3450 C   0  0  0  0  0  0  0  0  0  0  0  0
   58.8160   29.7340   49.7550 N   0  0  0  0  0  0  0  0  0  0  0  0
   60.0180   29.1830   50.3770 C   0  0  0  0  0  0  0  0  0  0  0  0
   61.2680   29.6740   49.6390 C   0  0  0  0  0  0  0  0  0  0  0  0
   61.8890   30.8820   50.3470 C   0  0  0  0  0  0  0  0  0  0  0  0
   62.2730   31.9030   49.3650 N   0  0  0  0  0  0  0  0  0  0  0  0
   62.4530   33.1980   49.7670 C   0  0  0  0  0  0  0  0  0  0  0  0
   62.8420   34.1780   48.8500 C   0  0  0  0  0  0  0  0  0  0  0  0
   63.0510   33.8250   47.5180 C   0  0  0  0  0  0  0  0  0  0  0  0
   62.8790   32.5000   47.1180 C   0  0  0  0  0  0  0  0  0  0  0  0
   62.4920   31.5450   48.0630 C   0  0  0  0  0  0  0  0  0  0  0  0
   58.5240   28.2840   47.8410 C   0  0  0  0  0  0  0  0  0  0  0  0
   58.5430   28.0550   46.4730 C   0  0  0  0  0  0  0  0  0  0  0  0
   58.6290   29.1210   45.5850 C   0  0  0  0  0  0  0  0  0  0  0  0
   58.6290   30.4620   46.0460 C   0  0  0  0  0  0  0  0  0  0  0  0
   57.7011   30.5201   43.5746 H   0  0  0  0  0  0  0  0  0  0  0  0
   58.1181   32.2364   43.2475 H   0  0  0  0  0  0  0  0  0  0  0  0
   59.4055   30.9837   43.2475 H   0  0  0  0  0  0  0  0  0  0  0  0
   59.4543   33.6554   43.6970 H   0  0  0  0  0  0  0  0  0  0  0  0
   59.7460   35.9674   44.5610 H   0  0  0  0  0  0  0  0  0  0  0  0
   59.3814   36.4614   46.9725 H   0  0  0  0  0  0  0  0  0  0  0  0
   58.8130   34.6252   48.5489 H   0  0  0  0  0  0  0  0  0  0  0  0
   57.1930   31.9520   49.5880 H   0  0  0  0  0  0  0  0  0  0  0  0
   60.0535   32.3237   50.0248 H   0  0  0  0  0  0  0  0  0  0  0  0
   59.1320   33.8683   50.2315 H   0  0  0  0  0  0  0  0  0  0  0  0
   59.4622   31.7547   52.1206 H   0  0  0  0  0  0  0  0  0  0  0  0
   58.4445   33.2412   52.2590 H   0  0  0  0  0  0  0  0  0  0  0  0
   56.6790   32.0970   51.1710 H   0  0  0  0  0  0  0  0  0  0  0  0
   57.7818   30.6165   53.4864 H   0  0  0  0  0  0  0  0  0  0  0  0
   56.7013   32.0569   53.5131 H   0  0  0  0  0  0  0  0  0  0  0  0
   57.9730   29.8010   50.3690 H   0  0  0  0  0  0  0  0  0  0  0  0
   60.0651   29.5073   51.4271 H   0  0  0  0  0  0  0  0  0  0  0  0
   59.9782   28.0850   50.3246 H   0  0  0  0  0  0  0  0  0  0  0  0
   62.0069   28.8599   49.6033 H   0  0  0  0  0  0  0  0  0  0  0  0
   60.9765   29.9772   48.6226 H   0  0  0  0  0  0  0  0  0  0  0  0
   61.1561   31.3090   51.0474 H   0  0  0  0  0  0  0  0  0  0  0  0
   62.7855   30.5554   50.8943 H   0  0  0  0  0  0  0  0  0  0  0  0
   62.2903   33.4701   50.8203 H   0  0  0  0  0  0  0  0  0  0  0  0
   62.9821   35.2190   49.1766 H   0  0  0  0  0  0  0  0  0  0  0  0
   63.3505   34.5885   46.7850 H   0  0  0  0  0  0  0  0  0  0  0  0
   63.0460   32.2095   46.0703 H   0  0  0  0  0  0  0  0  0  0  0  0
   62.3625   30.4964   47.7568 H   0  0  0  0  0  0  0  0  0  0  0  0
   58.4524   27.4337   48.5351 H   0  0  0  0  0  0  0  0  0  0  0  0
   58.4898   27.0255   46.0893 H   0  0  0  0  0  0  0  0  0  0  0  0
   58.6983   28.9208   44.5056 H   0  0  0  0  0  0  0  0  0  0  0  0
  1  2  1  0
  2  3  2  0
  3  4  1  0
  4  5  2  0
  5  6  1  0
  6  7  2  0
  7  8  1  0
  8  9  2  0
  9 10  1  0
 10 11  1  0
 11 12  1  0
 12 13  1  0
 13 14  1  0
 14 15  1  0
 15 16  1  0
 15 17  1  0
 15 18  1  0
  9 19  1  0
 19 20  2  0
 20 21  1  0
 21 22  1  0
 22 23  1  0
 23 24  1  0
 24 25  1  0
 25 26  2  0
 26 27  1  0
 27 28  2  0
 28 29  1  0
 29 30  2  0
 20 31  1  0
 31 32  2  0
 32 33  1  0
 33 34  2  0
 34  2  1  0
  8  3  1  0
 34 19  1  0
 30 25  1  0
  1 35  1  0
  1 36  1  0
  1 37  1  0
  4 38  1  0
  5 39  1  0
  6 40  1  0
  7 41  1  0
 10 42  1  0
 11 43  1  0
 11 44  1  0
 12 45  1  0
 12 46  1  0
 13 47  1  0
 14 48  1  0
 14 49  1  0
 21 50  1  0
 22 51  1  0
 22 52  1  0
 23 53  1  0
 23 54  1  0
 24 55  1  0
 24 56  1  0
 26 57  1  0
 27 58  1  0
 28 59  1  0
 29 60  1  0
 30 61  1  0
 31 62  1  0
 32 63  1  0
 33 64  1  0
M  CHG  2   2   1  25   1
M  END
>  <UniqueID>  (1) 
1

>  <SMILES>  (1) 
C[n+]1c2ccccc2c(NCCNCC(F)(F)F)c2c(NCCC[n+]3ccccc3)cccc21

>  <Energy>  (1) 
93.41348100691181

>  <Genealogy>  (1) 
C[n+]1c2ccccc2c(NCCNCC(F)(F)F)c2c(NCCC[n+]3ccccc3)cccc21 (3D coordinates assigned)
C[n+]1c2ccccc2c(NCCNCC(F)(F)F)c2c(NCCC[n+]3ccccc3)cccc21 (optimized conformer: 93.41348100691181 kcal/mol)

>  <smiles>  (1) 
C[n+]1c2ccccc2c(NCCNCC(F)(F)F)c2c(NCCC[n+]3ccccc3)cccc21

>  <score_type>  (1) 
oracle

>  <origin>  (1) 
adg

>  <m_score__min__energy>  (1) 
-4.6900000000000004

>  <m_primary>  (1) 
energy

$$$$
1:0
     RDKit          3D

 60 63  0  0  0  0  0  0  0  0999 V2000
   59.0870   29.1110   45.8850 C   0  0  0  0  0  0  0  0  0  0  0  0
   57.6510   29.4550   45.4990 C   0  0  0  0  0  0  0  0  0  0  0  0
   57.4640   30.9220   45.4670 N   0  0  0  0  0  0  0  0  0  0  0  0
   57.3430   31.4260   44.0790 C   0  0  0  0  0  0  0  0  0  0  0  0
   57.7980   32.9020   43.9620 C   0  0  0  0  0  0  0  0  0  0  0  0
   57.1180   33.8540   44.9720 C   0  0  0  0  0  0  0  0  0  0  0  0
   57.8550   34.0290   46.2510 N   0  0  0  0  0  0  0  0  0  0  0  0
   59.0880   34.8420   46.1120 C   0  0  0  0  0  0  0  0  0  0  0  0
   60.2560   34.3010   46.9110 C   0  0  0  0  0  0  0  0  0  0  0  0
   60.3380   34.5320   48.2940 C   0  0  0  0  0  0  0  0  0  0  0  0
   61.3530   33.9430   49.0500 C   0  0  0  0  0  0  0  0  0  0  0  0
   62.3120   33.1330   48.4310 C   0  0  0  0  0  0  0  0  0  0  0  0
   63.3160   32.4310   49.2480 C   0  0  0  0  0  0  0  0  0  0  0  0
   64.6190   32.9460   49.3220 C   0  0  0  0  0  0  0  0  0  0  0  0
   65.5690   32.3430   50.1500 C   0  0  0  0  0  0  0  0  0  0  0  0
   65.2220   31.2300   50.9200 C   0  0  0  0  0  0  0  0  0  0  0  0
   63.9250   30.7120   50.8590 C   0  0  0  0  0  0  0  0  0  0  0  0
   62.9650   31.3020   50.0210 C   0  0  0  0  0  0  0  0  0  0  0  0
   61.6080   30.7250   49.9620 C   0  0  0  0  0  0  0  0  0  0  0  0
   61.2660   29.7110   49.1420 N   0  0  0  0  0  0  0  0  0  0  0  0
   59.9860   29.4480   49.3620 N   0  0  0  0  0  0  0  0  0  0  0  0
   59.5660   30.3060   50.3100 C   0  0  0  0  0  0  0  0  0  0  0  0
   58.1650   30.3410   50.8320 C   0  0  0  0  0  0  0  0  0  0  0  0
   60.5570   31.1320   50.7030 N   0  0  0  0  0  0  0  0  0  0  0  0
   60.5190   32.1650   51.7350 C   0  0  0  0  0  0  0  0  0  0  0  0
   62.2740   32.9500   47.0420 C   0  0  0  0  0  0  0  0  0  0  0  0
   61.2530   33.5320   46.2870 C   0  0  0  0  0  0  0  0  0  0  0  0
   58.0720   32.8050   47.0580 C   0  0  0  0  0  0  0  0  0  0  0  0
   58.5450   31.5990   46.2200 C   0  0  0  0  0  0  0  0  0  0  0  0
   59.1769   29.0895   46.9811 H   0  0  0  0  0  0  0  0  0  0  0  0
   59.3503   28.1244   45.4760 H   0  0  0  0  0  0  0  0  0  0  0  0
   59.7688   29.8712   45.4760 H   0  0  0  0  0  0  0  0  0  0  0  0
   57.4337   29.0399   44.5038 H   0  0  0  0  0  0  0  0  0  0  0  0
   56.9674   29.0239   46.2453 H   0  0  0  0  0  0  0  0  0  0  0  0
   57.9689   30.8070   43.4194 H   0  0  0  0  0  0  0  0  0  0  0  0
   56.2843   31.3700   43.7857 H   0  0  0  0  0  0  0  0  0  0  0  0
   58.8848   32.9425   44.1269 H   0  0  0  0  0  0  0  0  0  0  0  0
   57.5075   33.2448   42.9580 H   0  0  0  0  0  0  0  0  0  0  0  0
   57.0154   34.8410   44.4974 H   0  0  0  0  0  0  0  0  0  0  0  0
   56.1515   33.3962   45.2295 H   0  0  0  0  0  0  0  0  0  0  0  0
   59.3727   34.8655   45.0498 H   0  0  0  0  0  0  0  0  0  0  0  0
   58.8626   35.8451   46.5031 H   0  0  0  0  0  0  0  0  0  0  0  0
   59.5977   35.1812   48.7845 H   0  0  0  0  0  0  0  0  0  0  0  0
   61.3992   34.1160   50.1353 H   0  0  0  0  0  0  0  0  0  0  0  0
   64.8938   33.8284   48.7255 H   0  0  0  0  0  0  0  0  0  0  0  0
   66.5918   32.7451   50.1958 H   0  0  0  0  0  0  0  0  0  0  0  0
   65.9705   30.7606   51.5752 H   0  0  0  0  0  0  0  0  0  0  0  0
   63.6552   29.8382   51.4703 H   0  0  0  0  0  0  0  0  0  0  0  0
   58.1834   30.3405   51.9318 H   0  0  0  0  0  0  0  0  0  0  0  0
   57.6630   31.2520   50.4741 H   0  0  0  0  0  0  0  0  0  0  0  0
   57.6181   29.4562   50.4741 H   0  0  0  0  0  0  0  0  0  0  0  0
   60.5364   31.6921   52.7280 H   0  0  0  0  0  0  0  0  0  0  0  0
   61.3935   32.8234   51.6271 H   0  0  0  0  0  0  0  0  0  0  0  0
   59.5985   32.7574   51.6271 H   0  0  0  0  0  0  0  0  0  0  0  0
   63.0490   32.3474   46.5458 H   0  0  0  0  0  0  0  0  0  0  0  0
   61.2292   33.3874   45.1968 H   0  0  0  0  0  0  0  0  0  0  0  0
   58.8341   33.0204   47.8214 H   0  0  0  0  0  0  0  0  0  0  0  0
   57.1043   32.5327   47.5046 H   0  0  0  0  0  0  0  0  0  0  0  0
   59.2976   31.9530   45.5001 H   0  0  0  0  0  0  0  0  0  0  0  0
   58.9476   30.8601   46.9284 H   0  0  0  0  0  0  0  0  0  0  0  0
  1  2  1  0
  2  3  1  0
  3  4  1  0
  4  5  1  0
  5  6  1  0
  6  7  1  0
  7  8  1  0
  8  9  1  0
  9 10  2  0
 10 11  1  0
 11 12  2  0
 12 13  1  0
 13 14  2  0
 14 15  1  0
 15 16  2  0
 16 17  1  0
 17 18  2  0
 18 19  1  0
 19 20  2  0
 20 21  1  0
 21 22  2  0
 22 23  1  0
 22 24  1  0
 24 25  1  0
 12 26  1  0
 26 27  2  0
  7 28  1  0
 28 29  1  0
 29  3  1  0
 27  9  1  0
 18 13  1  0
 24 19  1  0
  1 30  1  0
  1 31  1  0
  1 32  1  0
  2 33  1  0
  2 34  1  0
  4 35  1  0
  4 36  1  0
  5 37  1  0
  5 38  1  0
  6 39  1  0
  6 40  1  0
  8 41  1  0
  8 42  1  0
 10 43  1  0
 11 44  1  0
 14 45  1  0
 15 46  1  0
 16 47  1  0
 17 48  1  0
 23 49  1  0
 23 50  1  0
 23 51  1  0
 25 52  1  0
 25 53  1  0
 25 54  1  0
 26 55  1  0
 27 56  1  0
 28 57  1  0
 28 58  1  0
 29 59  1  0
 29 60  1  0
M  END
>  <UniqueID>  (2) 
2

>  <SMILES>  (2) 
CCN1CCCN(Cc2ccc(-c3ccccc3-c3nnc(C)n3C)cc2)CC1

>  <Energy>  (2) 
124.23335685995411

>  <Genealogy>  (2) 
CCN1CCCN(Cc2ccc(-c3ccccc3-c3nnc(C)n3C)cc2)CC1 (3D coordinates assigned)
CCN1CCCN(Cc2ccc(-c3ccccc3-c3nnc(C)n3C)cc2)CC1 (nonaromatic ring conformer: 124.23335685995411 kcal/mol)

>  <smiles>  (2) 
CCN1CCCN(Cc2ccc(-c3ccccc3-c3nnc(C)n3C)cc2)CC1

>  <score_type>  (2) 
oracle

>  <origin>  (2) 
adg

>  <m_score__min__energy>  (2) 
-6.8700000000000001

>  <m_primary>  (2) 
energy

$$$$
2:0
     RDKit          3D

 53 55  0  0  0  0  0  0  0  0999 V2000
   56.6020   30.1940   43.3920 C   0  0  0  0  0  0  0  0  0  0  0  0
   57.2360   31.2050   44.2270 N   0  0  0  0  0  0  0  0  0  0  0  0
   57.8340   32.3270   43.7850 C   0  0  0  0  0  0  0  0  0  0  0  0
   58.3820   32.9710   44.8750 C   0  0  0  0  0  0  0  0  0  0  0  0
   58.0780   32.1700   45.9600 C   0  0  0  0  0  0  0  0  0  0  0  0
   57.3970   31.0860   45.5360 N   0  0  0  0  0  0  0  0  0  0  0  0
   58.5460   32.3530   47.3770 C   0  0  1  0  0  0  0  0  0  0  0  0
   59.5190   31.2250   47.7700 C   0  0  0  0  0  0  0  0  0  0  0  0
   59.7970   30.3700   46.6740 O   0  0  0  0  0  0  0  0  0  0  0  0
   59.5550   29.0160   46.9990 C   0  0  0  0  0  0  0  0  0  0  0  0
   59.9780   28.1130   45.8330 C   0  0  0  0  0  0  0  0  0  0  0  0
   58.9820   28.0680   44.6840 C   0  0  0  0  0  0  0  0  0  0  0  0
   60.2960   28.8120   44.5190 C   0  0  0  0  0  0  0  0  0  0  0  0
   59.0170   33.8010   47.6930 C   0  0  0  0  0  0  0  0  0  0  0  0
   60.3030   34.2460   47.1010 N   0  0  0  0  0  0  0  0  0  0  0  0
   61.5340   34.1370   47.9120 C   0  0  0  0  0  0  0  0  0  0  0  0
   62.7790   33.8370   47.0490 C   0  0  0  0  0  0  0  0  0  0  0  0
   63.6180   32.7360   47.5810 N   0  0  0  0  0  0  0  0  0  0  0  0
   62.9650   31.4240   47.4180 C   0  0  0  0  0  0  0  0  0  0  0  0
   63.9000   32.9720   49.0080 C   0  0  0  0  0  0  0  0  0  0  0  0
   60.4710   34.0690   45.6480 C   0  0  0  0  0  0  0  0  0  0  0  0
   59.1610   34.2440   44.8740 C   0  0  0  0  0  0  0  0  0  0  0  0
   56.1265   29.4358   44.0315 H   0  0  0  0  0  0  0  0  0  0  0  0
   55.8394   30.6685   42.7569 H   0  0  0  0  0  0  0  0  0  0  0  0
   57.3612   29.7142   42.7569 H   0  0  0  0  0  0  0  0  0  0  0  0
   57.8779   32.6694   42.7406 H   0  0  0  0  0  0  0  0  0  0  0  0
   57.6815   32.2459   48.0487 H   0  0  0  0  0  0  0  0  0  0  0  0
   60.4605   31.6721   48.1217 H   0  0  0  0  0  0  0  0  0  0  0  0
   59.0483   30.6255   48.5632 H   0  0  0  0  0  0  0  0  0  0  0  0
   60.1328   28.7477   47.8958 H   0  0  0  0  0  0  0  0  0  0  0  0
   58.4810   28.8773   47.1920 H   0  0  0  0  0  0  0  0  0  0  0  0
   60.5019   27.3736   46.4565 H   0  0  0  0  0  0  0  0  0  0  0  0
   58.8112   27.1267   44.1410 H   0  0  0  0  0  0  0  0  0  0  0  0
   57.9202   28.3297   44.5649 H   0  0  0  0  0  0  0  0  0  0  0  0
   61.0766   28.4093   43.8568 H   0  0  0  0  0  0  0  0  0  0  0  0
   60.5795   29.8351   44.2312 H   0  0  0  0  0  0  0  0  0  0  0  0
   58.2348   34.4874   47.3366 H   0  0  0  0  0  0  0  0  0  0  0  0
   59.1899   33.8095   48.7793 H   0  0  0  0  0  0  0  0  0  0  0  0
   61.6926   35.0867   48.4439 H   0  0  0  0  0  0  0  0  0  0  0  0
   61.4016   33.3008   48.6144 H   0  0  0  0  0  0  0  0  0  0  0  0
   62.4435   33.5616   46.0383 H   0  0  0  0  0  0  0  0  0  0  0  0
   63.3994   34.7454   47.0504 H   0  0  0  0  0  0  0  0  0  0  0  0
   64.5380   32.7150   47.0810 H   0  0  0  0  0  0  0  0  0  0  0  0
   62.7515   30.9951   48.4082 H   0  0  0  0  0  0  0  0  0  0  0  0
   62.0241   31.5493   46.8621 H   0  0  0  0  0  0  0  0  0  0  0  0
   63.6322   30.7489   46.8621 H   0  0  0  0  0  0  0  0  0  0  0  0
   63.2000   32.3862   49.6219 H   0  0  0  0  0  0  0  0  0  0  0  0
   64.9317   32.6642   49.2337 H   0  0  0  0  0  0  0  0  0  0  0  0
   63.7788   34.0418   49.2337 H   0  0  0  0  0  0  0  0  0  0  0  0
   61.1959   34.8123   45.2848 H   0  0  0  0  0  0  0  0  0  0  0  0
   60.8217   33.0404   45.4778 H   0  0  0  0  0  0  0  0  0  0  0  0
   58.5625   35.0355   45.3487 H   0  0  0  0  0  0  0  0  0  0  0  0
   59.3946   34.5185   43.8347 H   0  0  0  0  0  0  0  0  0  0  0  0
  1  2  1  0
  2  3  1  0
  3  4  2  0
  4  5  1  0
  5  6  2  0
  5  7  1  0
  7  8  1  0
  8  9  1  0
  9 10  1  0
 10 11  1  0
 11 12  1  0
 12 13  1  0
  7 14  1  0
 14 15  1  0
 15 16  1  0
 16 17  1  0
 17 18  1  0
 18 19  1  0
 18 20  1  0
 15 21  1  0
 21 22  1  0
  6  2  1  0
 13 11  1  0
 22  4  1  0
  1 23  1  0
  1 24  1  0
  1 25  1  0
  3 26  1  0
  7 27  1  1
  8 28  1  0
  8 29  1  0
 10 30  1  0
 10 31  1  0
 11 32  1  0
 12 33  1  0
 12 34  1  0
 13 35  1  0
 13 36  1  0
 14 37  1  0
 14 38  1  0
 16 39  1  0
 16 40  1  0
 17 41  1  0
 17 42  1  0
 18 43  1  0
 19 44  1  0
 19 45  1  0
 19 46  1  0
 20 47  1  0
 20 48  1  0
 20 49  1  0
 21 50  1  0
 21 51  1  0
 22 52  1  0
 22 53  1  0
M  CHG  1  18   1
M  END
>  <UniqueID>  (3) 
3

>  <SMILES>  (3) 
Cn1cc2c(n1)[C@@H](COCC1CC1)CN(CC[NH+](C)C)CC2

>  <Energy>  (3) 
360.1589182430035

>  <Genealogy>  (3) 
Cn1cc2c(n1)C(COCC1CC1)CN(CC[NH+](C)C)CC2 (protonated)
Cn1cc2c(n1)[C@@H](COCC1CC1)CN(CC[NH+](C)C)CC2 (chirality)
Cn1cc2c(n1)[C@@H](COCC1CC1)CN(CC[NH+](C)C)CC2 (3D coordinates assigned)
Cn1cc2c(n1)[C@@H](COCC1CC1)CN(CC[NH+](C)C)CC2 (nonaromatic ring conformer: 360.1589182430035 kcal/mol)

>  <smiles>  (3) 
CN(C)CCN1CCc2cn(C)nc2C(COCC2CC2)C1

>  <score_type>  (3) 
oracle

>  <origin>  (3) 
adg

>  <m_score__min__energy>  (3) 
-4.1500000000000004

>  <m_primary>  (3) 
energy

$$$$
3:0
     RDKit          3D

 61 64  0  0  0  0  0  0  0  0999 V2000
   63.2710   33.8180   46.6390 C   0  0  0  0  0  0  0  0  0  0  0  0
   63.4220   32.6230   47.5860 C   0  0  0  0  0  0  0  0  0  0  0  0
   62.2520   32.4130   48.4590 N   0  0  0  0  0  0  0  0  0  0  0  0
   62.1240   31.0480   48.9970 C   0  0  0  0  0  0  0  0  0  0  0  0
   61.1250   30.1960   48.1880 C   0  0  0  0  0  0  0  0  0  0  0  0
   60.9550   30.6950   46.8110 N   0  0  0  0  0  0  0  0  0  0  0  0
   59.5520   30.6750   46.4050 C   0  0  0  0  0  0  0  0  0  0  0  0
   58.9540   29.4530   46.0180 C   0  0  0  0  0  0  0  0  0  0  0  0
   59.2860   28.2340   46.6500 C   0  0  0  0  0  0  0  0  0  0  0  0
   58.6960   27.0390   46.2450 C   0  0  0  0  0  0  0  0  0  0  0  0
   57.7530   27.0360   45.2240 C   0  0  0  0  0  0  0  0  0  0  0  0
   57.3980   28.2280   44.5960 C   0  0  0  0  0  0  0  0  0  0  0  0
   57.9980   29.4560   44.9690 C   0  0  0  0  0  0  0  0  0  0  0  0
   57.6860   30.6370   44.3320 N   0  0  0  0  0  0  0  0  0  0  0  0
   57.0250   30.6130   43.0100 C   0  0  0  0  0  0  0  0  0  0  0  0
   57.9810   31.8390   44.9440 C   0  0  0  0  0  0  0  0  0  0  0  0
   57.4010   33.0480   44.4970 C   0  0  0  0  0  0  0  0  0  0  0  0
   57.6770   34.2530   45.1280 C   0  0  0  0  0  0  0  0  0  0  0  0
   58.4820   34.2830   46.2550 C   0  0  0  0  0  0  0  0  0  0  0  0
   59.0760   33.1100   46.7490 C   0  0  0  0  0  0  0  0  0  0  0  0
   59.6850   33.1380   48.0540 N   0  0  0  0  0  0  0  0  0  0  0  0
   59.6440   34.2750   48.9790 C   0  0  0  0  0  0  0  0  0  0  0  0
   59.8720   33.8430   50.4380 C   0  0  0  0  0  0  0  0  0  0  0  0
   58.9900   32.6920   50.8360 C   0  0  0  0  0  0  0  0  0  0  0  0
   58.0740   32.8240   51.8910 C   0  0  0  0  0  0  0  0  0  0  0  0
   57.2980   31.7260   52.2660 C   0  0  0  0  0  0  0  0  0  0  0  0
   57.4360   30.5140   51.5900 C   0  0  0  0  0  0  0  0  0  0  0  0
   58.3520   30.4180   50.5400 C   0  0  0  0  0  0  0  0  0  0  0  0
   59.1010   31.4990   50.1910 N   0  0  0  0  0  0  0  0  0  0  0  0
   58.8750   31.8770   46.0540 C   0  0  0  0  0  0  0  0  0  0  0  0
   63.1545   34.7399   47.2277 H   0  0  0  0  0  0  0  0  0  0  0  0
   64.1661   33.8986   46.0047 H   0  0  0  0  0  0  0  0  0  0  0  0
   62.3840   33.6734   46.0047 H   0  0  0  0  0  0  0  0  0  0  0  0
   63.5726   31.7165   46.9814 H   0  0  0  0  0  0  0  0  0  0  0  0
   64.2803   32.8351   48.2405 H   0  0  0  0  0  0  0  0  0  0  0  0
   62.3270   33.0720   49.2690 H   0  0  0  0  0  0  0  0  0  0  0  0
   63.1101   30.5614   48.9676 H   0  0  0  0  0  0  0  0  0  0  0  0
   61.7467   31.1244   50.0275 H   0  0  0  0  0  0  0  0  0  0  0  0
   61.4945   29.1608   48.1466 H   0  0  0  0  0  0  0  0  0  0  0  0
   60.1482   30.2525   48.6907 H   0  0  0  0  0  0  0  0  0  0  0  0
   61.5510   30.1300   46.1750 H   0  0  0  0  0  0  0  0  0  0  0  0
   61.3710   31.6500   46.7780 H   0  0  0  0  0  0  0  0  0  0  0  0
   60.0183   28.2285   47.4708 H   0  0  0  0  0  0  0  0  0  0  0  0
   58.9772   26.0950   46.7346 H   0  0  0  0  0  0  0  0  0  0  0  0
   57.2859   26.0905   44.9111 H   0  0  0  0  0  0  0  0  0  0  0  0
   56.6404   28.2154   43.7985 H   0  0  0  0  0  0  0  0  0  0  0  0
   55.9342   30.5734   43.1461 H   0  0  0  0  0  0  0  0  0  0  0  0
   57.2919   31.5214   42.4501 H   0  0  0  0  0  0  0  0  0  0  0  0
   57.3571   29.7263   42.4501 H   0  0  0  0  0  0  0  0  0  0  0  0
   56.7190   33.0336   43.6340 H   0  0  0  0  0  0  0  0  0  0  0  0
   57.2547   35.1881   44.7315 H   0  0  0  0  0  0  0  0  0  0  0  0
   58.6585   35.2388   46.7702 H   0  0  0  0  0  0  0  0  0  0  0  0
   60.0980   32.2480   48.4160 H   0  0  0  0  0  0  0  0  0  0  0  0
   60.4283   34.9919   48.6947 H   0  0  0  0  0  0  0  0  0  0  0  0
   58.6445   34.7296   48.9127 H   0  0  0  0  0  0  0  0  0  0  0  0
   60.9230   33.5413   50.5576 H   0  0  0  0  0  0  0  0  0  0  0  0
   59.6235   34.6972   51.0850 H   0  0  0  0  0  0  0  0  0  0  0  0
   57.9685   33.7840   52.4176 H   0  0  0  0  0  0  0  0  0  0  0  0
   56.5788   31.8165   53.0934 H   0  0  0  0  0  0  0  0  0  0  0  0
   56.8300   29.6432   51.8806 H   0  0  0  0  0  0  0  0  0  0  0  0
   58.4678   29.4692   49.9956 H   0  0  0  0  0  0  0  0  0  0  0  0
  1  2  1  0
  2  3  1  0
  3  4  1  0
  4  5  1  0
  5  6  1  0
  6  7  1  0
  7  8  2  0
  8  9  1  0
  9 10  2  0
 10 11  1  0
 11 12  2  0
 12 13  1  0
 13 14  2  0
 14 15  1  0
 14 16  1  0
 16 17  2  0
 17 18  1  0
 18 19  2  0
 19 20  1  0
 20 21  1  0
 21 22  1  0
 22 23  1  0
 23 24  1  0
 24 25  2  0
 25 26  1  0
 26 27  2  0
 27 28  1  0
 28 29  2  0
 20 30  2  0
 30  7  1  0
 13  8  1  0
 30 16  1  0
 29 24  1  0
  1 31  1  0
  1 32  1  0
  1 33  1  0
  2 34  1  0
  2 35  1  0
  3 36  1  0
  4 37  1  0
  4 38  1  0
  5 39  1  0
  5 40  1  0
  6 41  1  0
  6 42  1  0
  9 43  1  0
 10 44  1  0
 11 45  1  0
 12 46  1  0
 15 47  1  0
 15 48  1  0
 15 49  1  0
 17 50  1  0
 18 51  1  0
 19 52  1  0
 21 53  1  0
 22 54  1  0
 22 55  1  0
 23 56  1  0
 23 57  1  0
 25 58  1  0
 26 59  1  0
 27 60  1  0
 28 61  1  0
M  CHG  2   6   1  14   1
M  END
>  <UniqueID>  (4) 
4

>  <SMILES>  (4) 
CCNCC[NH2+]c1c2ccccc2[n+](C)c2cccc(NCCc3ccccn3)c12

>  <Energy>  (4) 
100.89770660870654

>  <Genealogy>  (4) 
CCNCC[NH2+]c1c2ccccc2[n+](C)c2cccc(NCCc3ccccn3)c12 (protonated)
CCNCC[NH2+]c1c2ccccc2[n+](C)c2cccc(NCCc3ccccn3)c12 (3D coordinates assigned)
CCNCC[NH2+]c1c2ccccc2[n+](C)c2cccc(NCCc3ccccn3)c12 (optimized conformer: 100.89770660870654 kcal/mol)

>  <smiles>  (4) 
CCNCCNc1c2ccccc2[n+](C)c2cccc(NCCc3ccccn3)c12

>  <score_type>  (4) 
oracle

>  <origin>  (4) 
adg

>  <m_score__min__energy>  (4) 
-4.3200000000000003

>  <m_primary>  (4) 
energy

$$$$
4:0
     RDKit          3D

 66 68  0  0  0  0  0  0  0  0999 V2000
   53.9880   22.5770   45.9940 C   0  0  0  0  0  0  0  0  0  0  0  0
   53.6650   23.8600   45.2420 C   0  0  0  0  0  0  0  0  0  0  0  0
   54.6870   24.0990   44.2070 N   0  0  0  0  0  0  0  0  0  0  0  0
   55.6100   22.9650   44.0500 C   0  0  0  0  0  0  0  0  0  0  0  0
   57.0370   23.4400   43.7570 C   0  0  0  0  0  0  0  0  0  0  0  0
   57.3720   24.5250   44.6080 O   0  0  0  0  0  0  0  0  0  0  0  0
   57.5590   24.1120   45.9490 C   0  0  0  0  0  0  0  0  0  0  0  0
   56.4430   24.6490   46.8520 C   0  0  0  0  0  0  0  0  0  0  0  0
   55.8930   25.8960   46.3060 N   0  0  0  0  0  0  0  0  0  0  0  0
   56.8430   27.0070   46.4600 C   0  0  0  0  0  0  0  0  0  0  0  0
   56.7930   27.9280   45.2790 C   0  0  0  0  0  0  0  0  0  0  0  0
   57.7690   27.9870   44.4850 O   0  0  0  0  0  0  0  0  0  0  0  0
   55.6280   28.7290   45.0590 N   0  0  0  0  0  0  0  0  0  0  0  0
   55.5230   29.7560   44.0270 C   0  0  0  0  0  0  0  0  0  0  0  0
   56.4930   30.9170   44.2890 C   0  0  0  0  0  0  0  0  0  0  0  0
   57.3100   31.3340   43.0580 C   0  0  0  0  0  0  0  0  0  0  0  0
   57.9620   32.6310   43.2620 N   0  0  0  0  0  0  0  0  0  0  0  0
   58.4730   33.1340   44.5170 C   0  0  0  0  0  0  0  0  0  0  0  0
   58.4210   34.4980   44.8650 C   0  0  0  0  0  0  0  0  0  0  0  0
   58.9240   34.9360   46.0920 C   0  0  0  0  0  0  0  0  0  0  0  0
   59.4790   34.0240   46.9890 C   0  0  0  0  0  0  0  0  0  0  0  0
   59.5710   32.6630   46.6530 C   0  0  0  0  0  0  0  0  0  0  0  0
   59.0630   32.2280   45.4160 C   0  0  0  0  0  0  0  0  0  0  0  0
   60.3170   31.7720   47.5110 N   0  0  0  0  0  0  0  0  0  0  0  0
   60.0060   30.3400   47.5580 C   0  0  0  0  0  0  0  0  0  0  0  0
   61.5030   32.2920   48.1510 C   0  0  0  0  0  0  0  0  0  0  0  0
   62.6850   31.5310   48.2270 C   0  0  0  0  0  0  0  0  0  0  0  0
   63.8670   32.1110   48.6950 C   0  0  0  0  0  0  0  0  0  0  0  0
   63.8870   33.4550   49.0780 C   0  0  0  0  0  0  0  0  0  0  0  0
   62.7180   34.2180   49.0130 C   0  0  0  0  0  0  0  0  0  0  0  0
   61.5260   33.6360   48.5700 C   0  0  0  0  0  0  0  0  0  0  0  0
   59.9940   34.5690   48.6190 S   0  0  0  0  0  0  0  0  0  0  0  0
   53.9407   22.7648   47.0768 H   0  0  0  0  0  0  0  0  0  0  0  0
   53.2574   21.8001   45.7244 H   0  0  0  0  0  0  0  0  0  0  0  0
   54.9993   22.2387   45.7244 H   0  0  0  0  0  0  0  0  0  0  0  0
   52.6776   23.7665   44.7664 H   0  0  0  0  0  0  0  0  0  0  0  0
   53.6563   24.7039   45.9476 H   0  0  0  0  0  0  0  0  0  0  0  0
   55.2570   24.9300   44.4930 H   0  0  0  0  0  0  0  0  0  0  0  0
   55.6130   22.3752   44.9785 H   0  0  0  0  0  0  0  0  0  0  0  0
   55.2674   22.3557   43.2006 H   0  0  0  0  0  0  0  0  0  0  0  0
   57.7394   22.6113   43.9298 H   0  0  0  0  0  0  0  0  0  0  0  0
   57.0996   23.7701   42.7096 H   0  0  0  0  0  0  0  0  0  0  0  0
   57.5568   23.0128   45.9901 H   0  0  0  0  0  0  0  0  0  0  0  0
   58.5200   24.5101   46.3066 H   0  0  0  0  0  0  0  0  0  0  0  0
   55.6409   23.8993   46.9205 H   0  0  0  0  0  0  0  0  0  0  0  0
   56.8599   24.8516   47.8496 H   0  0  0  0  0  0  0  0  0  0  0  0
   55.7450   25.7590   45.2780 H   0  0  0  0  0  0  0  0  0  0  0  0
   56.5891   27.5734   47.3681 H   0  0  0  0  0  0  0  0  0  0  0  0
   57.8583   26.5903   46.5350 H   0  0  0  0  0  0  0  0  0  0  0  0
   55.7579   29.3071   43.0506 H   0  0  0  0  0  0  0  0  0  0  0  0
   54.4974   30.1535   44.0382 H   0  0  0  0  0  0  0  0  0  0  0  0
   55.9099   31.7858   44.6284 H   0  0  0  0  0  0  0  0  0  0  0  0
   57.2110   30.5689   45.0461 H   0  0  0  0  0  0  0  0  0  0  0  0
   58.0803   30.5728   42.8653 H   0  0  0  0  0  0  0  0  0  0  0  0
   56.6249   31.4222   42.2019 H   0  0  0  0  0  0  0  0  0  0  0  0
   58.1670   33.1790   42.3960 H   0  0  0  0  0  0  0  0  0  0  0  0
   57.9809   35.2236   44.1651 H   0  0  0  0  0  0  0  0  0  0  0  0
   58.8822   36.0041   46.3517 H   0  0  0  0  0  0  0  0  0  0  0  0
   59.1281   31.1632   45.1477 H   0  0  0  0  0  0  0  0  0  0  0  0
   59.9353   30.0144   48.6063 H   0  0  0  0  0  0  0  0  0  0  0  0
   59.0470   30.1562   47.0515 H   0  0  0  0  0  0  0  0  0  0  0  0
   60.8024   29.7750   47.0515 H   0  0  0  0  0  0  0  0  0  0  0  0
   62.6780   30.4757   47.9168 H   0  0  0  0  0  0  0  0  0  0  0  0
   64.7845   31.5080   48.7622 H   0  0  0  0  0  0  0  0  0  0  0  0
   64.8232   33.9123   49.4307 H   0  0  0  0  0  0  0  0  0  0  0  0
   62.7354   35.2769   49.3104 H   0  0  0  0  0  0  0  0  0  0  0  0
  1  2  1  0
  2  3  1  0
  3  4  1  0
  4  5  1  0
  5  6  1  0
  6  7  1  0
  7  8  1  0
  8  9  1  0
  9 10  1  0
 10 11  1  0
 11 12  2  0
 11 13  1  0
 13 14  1  0
 14 15  1  0
 15 16  1  0
 16 17  1  0
 17 18  1  0
 18 19  2  0
 19 20  1  0
 20 21  2  0
 21 22  1  0
 22 23  2  0
 22 24  1  0
 24 25  1  0
 24 26  1  0
 26 27  2  0
 27 28  1  0
 28 29  2  0
 29 30  1  0
 30 31  2  0
 31 32  1  0
 23 18  1  0
 31 26  1  0
 32 21  1  0
  1 33  1  0
  1 34  1  0
  1 35  1  0
  2 36  1  0
  2 37  1  0
  3 38  1  0
  4 39  1  0
  4 40  1  0
  5 41  1  0
  5 42  1  0
  7 43  1  0
  7 44  1  0
  8 45  1  0
  8 46  1  0
  9 47  1  0
 10 48  1  0
 10 49  1  0
 14 50  1  0
 14 51  1  0
 15 52  1  0
 15 53  1  0
 16 54  1  0
 16 55  1  0
 17 56  1  0
 19 57  1  0
 20 58  1  0
 23 59  1  0
 25 60  1  0
 25 61  1  0
 25 62  1  0
 27 63  1  0
 28 64  1  0
 29 65  1  0
 30 66  1  0
M  CHG  1  13  -1
M  END
>  <UniqueID>  (5) 
5

>  <SMILES>  (5) 
CCNCCOCCNCC(=O)[N-]CCCNc1ccc2c(c1)N(C)c1ccccc1S2

>  <Energy>  (5) 
73.31560391810196

>  <Genealogy>  (5) 
CCNCCOCCNCC(=O)[N-]CCCNc1ccc2c(c1)N(C)c1ccccc1S2 (protonated)
CCNCCOCCNCC(=O)[N-]CCCNc1ccc2c(c1)N(C)c1ccccc1S2 (3D coordinates assigned)
CCNCCOCCNCC(=O)[N-]CCCNc1ccc2c(c1)N(C)c1ccccc1S2 (nonaromatic ring conformer: 73.31560391810196 kcal/mol)

>  <smiles>  (5) 
CCNCCOCCNCC(=O)NCCCNc1ccc2c(c1)N(C)c1ccccc1S2

>  <score_type>  (5) 
oracle

>  <origin>  (5) 
adg

>  <m_score__min__energy>  (5) 
-9.4399999999999995

>  <m_primary>  (5) 
energy

$$$$
5:0
     RDKit          3D

 36 37  0  0  0  0  0  0  0  0999 V2000
   60.6790   26.6430   46.3750 C   0  0  0  0  0  0  0  0  0  0  0  0
   59.3260   25.9340   46.3120 C   0  0  0  0  0  0  0  0  0  0  0  0
   58.2040   26.7430   46.9780 C   0  0  0  0  0  0  0  0  0  0  0  0
   57.0810   27.1070   46.0000 C   0  0  0  0  0  0  0  0  0  0  0  0
   57.7420   27.7120   44.4060 S   0  0  0  0  0  0  0  0  0  0  0  0
   57.4850   29.4560   44.7600 C   0  0  0  0  0  0  0  0  0  0  0  0
   56.3210   30.0880   44.5190 N   0  0  0  0  0  0  0  0  0  0  0  0
   56.4940   31.3550   44.8560 N   0  0  0  0  0  0  0  0  0  0  0  0
   57.7660   31.4840   45.2830 C   0  0  0  0  0  0  0  0  0  0  0  0
   58.3290   32.7750   45.7190 C   0  0  0  0  0  0  0  0  0  0  0  0
   58.7120   33.7510   44.7870 C   0  0  0  0  0  0  0  0  0  0  0  0
   59.2310   34.9670   45.2390 C   0  0  0  0  0  0  0  0  0  0  0  0
   59.3480   35.2060   46.5730 N   0  0  0  0  0  0  0  0  0  0  0  0
   58.9660   34.2850   47.4970 C   0  0  0  0  0  0  0  0  0  0  0  0
   58.4420   33.0570   47.0870 C   0  0  0  0  0  0  0  0  0  0  0  0
   58.4200   30.2990   45.2490 N   0  0  0  0  0  0  0  0  0  0  0  0
   59.8070   29.9850   45.6210 C   0  0  0  0  0  0  0  0  0  0  0  0
   60.0010   30.0010   47.1360 C   0  0  0  0  0  0  0  0  0  0  0  0
   60.9656   26.7932   47.4263 H   0  0  0  0  0  0  0  0  0  0  0  0
   61.4393   26.0274   45.8720 H   0  0  0  0  0  0  0  0  0  0  0  0
   60.6056   27.6185   45.8720 H   0  0  0  0  0  0  0  0  0  0  0  0
   59.0631   25.7697   45.2566 H   0  0  0  0  0  0  0  0  0  0  0  0
   59.4217   24.9843   46.8588 H   0  0  0  0  0  0  0  0  0  0  0  0
   57.7778   26.1461   47.7978 H   0  0  0  0  0  0  0  0  0  0  0  0
   58.6430   27.6819   47.3464 H   0  0  0  0  0  0  0  0  0  0  0  0
   56.4660   26.2139   45.8150 H   0  0  0  0  0  0  0  0  0  0  0  0
   56.4816   27.9120   46.4503 H   0  0  0  0  0  0  0  0  0  0  0  0
   58.6046   33.5605   43.7090 H   0  0  0  0  0  0  0  0  0  0  0  0
   59.5456   35.7326   44.5146 H   0  0  0  0  0  0  0  0  0  0  0  0
   59.0698   34.5073   48.5693 H   0  0  0  0  0  0  0  0  0  0  0  0
   58.1200   32.3158   47.8333 H   0  0  0  0  0  0  0  0  0  0  0  0
   60.0612   28.9852   45.2392 H   0  0  0  0  0  0  0  0  0  0  0  0
   60.4625   30.7518   45.1824 H   0  0  0  0  0  0  0  0  0  0  0  0
   59.0224   29.9203   47.6318 H   0  0  0  0  0  0  0  0  0  0  0  0
   60.6340   29.1520   47.4336 H   0  0  0  0  0  0  0  0  0  0  0  0
   60.4863   30.9422   47.4336 H   0  0  0  0  0  0  0  0  0  0  0  0
  1  2  1  0
  2  3  1  0
  3  4  1  0
  4  5  1  0
  5  6  1  0
  6  7  2  0
  7  8  1  0
  8  9  2  0
  9 10  1  0
 10 11  2  0
 11 12  1  0
 12 13  2  0
 13 14  1  0
 14 15  2  0
  9 16  1  0
 16 17  1  0
 17 18  1  0
 16  6  1  0
 15 10  1  0
  1 19  1  0
  1 20  1  0
  1 21  1  0
  2 22  1  0
  2 23  1  0
  3 24  1  0
  3 25  1  0
  4 26  1  0
  4 27  1  0
 11 28  1  0
 12 29  1  0
 14 30  1  0
 15 31  1  0
 17 32  1  0
 17 33  1  0
 18 34  1  0
 18 35  1  0
 18 36  1  0
M  END
>  <UniqueID>  (6) 
6

>  <SMILES>  (6) 
CCCCSc1nnc(-c2ccncc2)n1CC

>  <Energy>  (6) 
65.43661822700285

>  <Genealogy>  (6) 
CCCCSc1nnc(-c2ccncc2)n1CC (3D coordinates assigned)
CCCCSc1nnc(-c2ccncc2)n1CC (optimized conformer: 65.43661822700285 kcal/mol)

>  <smiles>  (6) 
CCCCSc1nnc(-c2ccncc2)n1CC

>  <score_type>  (6) 
oracle

>  <origin>  (6) 
adg

>  <m_score__min__energy>  (6) 
-6.6399999999999997

>  <m_primary>  (6) 
energy

$$$$
6:0
     RDKit          3D

 56 58  0  0  0  0  0  0  0  0999 V2000
   56.6600   30.4790   42.8430 C   0  0  0  0  0  0  0  0  0  0  0  0
   55.8940   30.4460   44.1610 C   0  0  0  0  0  0  0  0  0  0  0  0
   56.2270   29.2810   44.8920 O   0  0  0  0  0  0  0  0  0  0  0  0
   57.2440   28.5550   44.2320 C   0  0  0  0  0  0  0  0  0  0  0  0
   57.3970   27.1900   44.8970 C   0  0  0  0  0  0  0  0  0  0  0  0
   58.2410   27.2870   46.0290 O   0  0  0  0  0  0  0  0  0  0  0  0
   59.5770   27.5740   45.6560 C   0  0  0  0  0  0  0  0  0  0  0  0
   59.9200   29.0390   45.9430 C   0  0  0  0  0  0  0  0  0  0  0  0
   58.7520   29.7680   46.4380 N   0  0  0  0  0  0  0  0  0  0  0  0
   58.9150   30.9860   47.1780 C   0  0  0  0  0  0  0  0  0  0  0  0
   59.1330   30.9450   48.5720 C   0  0  0  0  0  0  0  0  0  0  0  0
   59.1800   32.1820   49.2920 C   0  0  0  0  0  0  0  0  0  0  0  0
   59.2820   33.3710   48.5870 N   0  0  0  0  0  0  0  0  0  0  0  0
   59.7040   34.6100   49.2800 C   0  0  0  0  0  0  0  0  0  0  0  0
   58.9950   33.4160   47.2370 C   0  0  0  0  0  0  0  0  0  0  0  0
   58.8430   34.6460   46.5440 C   0  0  0  0  0  0  0  0  0  0  0  0
   58.5760   34.6740   45.1760 C   0  0  0  0  0  0  0  0  0  0  0  0
   58.4440   33.4870   44.4650 C   0  0  0  0  0  0  0  0  0  0  0  0
   58.5610   32.2660   45.1230 C   0  0  0  0  0  0  0  0  0  0  0  0
   58.8210   32.2150   46.5100 C   0  0  0  0  0  0  0  0  0  0  0  0
   59.1430   32.2390   50.8250 C   0  0  0  0  0  0  0  0  0  0  0  0
   58.2040   31.2360   51.5050 C   0  0  0  0  0  0  0  0  0  0  0  0
   58.8730   29.8740   51.7060 C   0  0  0  0  0  0  0  0  0  0  0  0
   59.8860   29.5390   50.6080 C   0  0  0  0  0  0  0  0  0  0  0  0
   59.2510   29.5610   49.2160 C   0  0  0  0  0  0  0  0  0  0  0  0
   57.7398   30.5255   43.0475 H   0  0  0  0  0  0  0  0  0  0  0  0
   56.4351   29.5703   42.2653 H   0  0  0  0  0  0  0  0  0  0  0  0
   56.3577   31.3650   42.2653 H   0  0  0  0  0  0  0  0  0  0  0  0
   56.1549   31.3343   44.7550 H   0  0  0  0  0  0  0  0  0  0  0  0
   54.8148   30.4394   43.9483 H   0  0  0  0  0  0  0  0  0  0  0  0
   56.9733   28.4209   43.1743 H   0  0  0  0  0  0  0  0  0  0  0  0
   58.1936   29.1065   44.2964 H   0  0  0  0  0  0  0  0  0  0  0  0
   56.4076   26.8269   45.2121 H   0  0  0  0  0  0  0  0  0  0  0  0
   57.8438   26.4890   44.1766 H   0  0  0  0  0  0  0  0  0  0  0  0
   60.2579   26.9258   46.2271 H   0  0  0  0  0  0  0  0  0  0  0  0
   59.6885   27.3910   44.5771 H   0  0  0  0  0  0  0  0  0  0  0  0
   60.7161   29.0794   46.7010 H   0  0  0  0  0  0  0  0  0  0  0  0
   60.2530   29.5091   45.0059 H   0  0  0  0  0  0  0  0  0  0  0  0
   57.7960   29.3470   46.3870 H   0  0  0  0  0  0  0  0  0  0  0  0
   59.6520   34.4574   50.3681 H   0  0  0  0  0  0  0  0  0  0  0  0
   60.7369   34.8569   48.9933 H   0  0  0  0  0  0  0  0  0  0  0  0
   59.0365   35.4360   48.9933 H   0  0  0  0  0  0  0  0  0  0  0  0
   58.9375   35.5928   47.0959 H   0  0  0  0  0  0  0  0  0  0  0  0
   58.4695   35.6384   44.6577 H   0  0  0  0  0  0  0  0  0  0  0  0
   58.2472   33.5125   43.3830 H   0  0  0  0  0  0  0  0  0  0  0  0
   58.4496   31.3300   44.5560 H   0  0  0  0  0  0  0  0  0  0  0  0
   60.1620   32.0523   51.1948 H   0  0  0  0  0  0  0  0  0  0  0  0
   58.7520   33.2354   51.0787 H   0  0  0  0  0  0  0  0  0  0  0  0
   57.9077   31.6350   52.4863 H   0  0  0  0  0  0  0  0  0  0  0  0
   57.3286   31.0933   50.8544 H   0  0  0  0  0  0  0  0  0  0  0  0
   59.3943   29.8787   52.6746 H   0  0  0  0  0  0  0  0  0  0  0  0
   58.0826   29.1098   51.6697 H   0  0  0  0  0  0  0  0  0  0  0  0
   60.7002   30.2780   50.6386 H   0  0  0  0  0  0  0  0  0  0  0  0
   60.2638   28.5226   50.7930 H   0  0  0  0  0  0  0  0  0  0  0  0
   59.8615   28.9292   48.5541 H   0  0  0  0  0  0  0  0  0  0  0  0
   58.2210   29.1974   49.3460 H   0  0  0  0  0  0  0  0  0  0  0  0
  1  2  1  0
  2  3  1  0
  3  4  1  0
  4  5  1  0
  5  6  1  0
  6  7  1  0
  7  8  1  0
  8  9  1  0
  9 10  1  0
 10 11  2  0
 11 12  1  0
 12 13  2  0
 13 14  1  0
 13 15  1  0
 15 16  2  0
 16 17  1  0
 17 18  2  0
 18 19  1  0
 19 20  2  0
 12 21  1  0
 21 22  1  0
 22 23  1  0
 23 24  1  0
 24 25  1  0
 20 10  1  0
 25 11  1  0
 20 15  1  0
  1 26  1  0
  1 27  1  0
  1 28  1  0
  2 29  1  0
  2 30  1  0
  4 31  1  0
  4 32  1  0
  5 33  1  0
  5 34  1  0
  7 35  1  0
  7 36  1  0
  8 37  1  0
  8 38  1  0
  9 39  1  0
 14 40  1  0
 14 41  1  0
 14 42  1  0
 16 43  1  0
 17 44  1  0
 18 45  1  0
 19 46  1  0
 21 47  1  0
 21 48  1  0
 22 49  1  0
 22 50  1  0
 23 51  1  0
 23 52  1  0
 24 53  1  0
 24 54  1  0
 25 55  1  0
 25 56  1  0
M  CHG  1  13   1
M  END
>  <UniqueID>  (7) 
7

>  <SMILES>  (7) 
CCOCCOCCNc1c2c([n+](C)c3ccccc13)CCCCC2

>  <Energy>  (7) 
85.50064827826547

>  <Genealogy>  (7) 
CCOCCOCCNc1c2c([n+](C)c3ccccc13)CCCCC2 (3D coordinates assigned)
CCOCCOCCNc1c2c([n+](C)c3ccccc13)CCCCC2 (nonaromatic ring conformer: 85.50064827826547 kcal/mol)

>  <smiles>  (7) 
CCOCCOCCNc1c2c([n+](C)c3ccccc13)CCCCC2

>  <score_type>  (7) 
oracle

>  <origin>  (7) 
adg

>  <m_score__min__energy>  (7) 
-5.0999999999999996

>  <m_primary>  (7) 
energy

$$$$
7:0
     RDKit          3D

 53 55  0  0  0  0  0  0  0  0999 V2000
   59.5200   34.2710   44.8470 C   0  0  0  0  0  0  0  0  0  0  0  0
   58.8930   33.9510   46.1420 N   0  0  0  0  0  0  0  0  0  0  0  0
   59.2760   34.9670   47.1360 C   0  0  0  0  0  0  0  0  0  0  0  0
   57.4200   33.8810   46.0140 C   0  0  0  0  0  0  0  0  0  0  0  0
   57.0110   32.6710   45.1740 C   0  0  0  0  0  0  0  0  0  0  0  0
   57.4800   31.4960   45.7870 O   0  0  0  0  0  0  0  0  0  0  0  0
   58.6320   31.1680   45.1460 N   0  0  0  0  0  0  0  0  0  0  0  0
   59.2000   30.0010   45.8220 C   0  0  0  0  0  0  0  0  0  0  0  0
   59.5710   30.3390   47.2710 C   0  0  0  0  0  0  0  0  0  0  0  0
   59.1570   31.7060   47.6310 N   0  0  0  0  0  0  0  0  0  0  0  0
   59.9560   32.2000   48.7440 C   0  0  0  0  0  0  0  0  0  0  0  0
   59.3750   32.3740   50.0280 C   0  0  0  0  0  0  0  0  0  0  0  0
   58.0480   31.9570   50.3090 C   0  0  0  0  0  0  0  0  0  0  0  0
   57.4530   32.2280   51.5380 C   0  0  0  0  0  0  0  0  0  0  0  0
   58.1570   32.9160   52.5150 C   0  0  0  0  0  0  0  0  0  0  0  0
   59.4790   33.2860   52.2900 C   0  0  0  0  0  0  0  0  0  0  0  0
   60.1360   32.9750   51.0690 C   0  0  0  0  0  0  0  0  0  0  0  0
   61.4750   33.2550   50.8830 N   0  0  0  0  0  0  0  0  0  0  0  0
   62.3250   33.5940   52.0490 C   0  0  0  0  0  0  0  0  0  0  0  0
   62.0380   33.1630   49.6260 C   0  0  0  0  0  0  0  0  0  0  0  0
   63.3420   33.6600   49.3640 C   0  0  0  0  0  0  0  0  0  0  0  0
   63.9520   33.4710   48.1270 C   0  0  0  0  0  0  0  0  0  0  0  0
   63.2820   32.7970   47.1180 C   0  0  0  0  0  0  0  0  0  0  0  0
   61.9790   32.3540   47.3200 C   0  0  0  0  0  0  0  0  0  0  0  0
   61.3140   32.5690   48.5540 C   0  0  0  0  0  0  0  0  0  0  0  0
   60.4876   34.7648   45.0202 H   0  0  0  0  0  0  0  0  0  0  0  0
   59.6785   33.3435   44.2772 H   0  0  0  0  0  0  0  0  0  0  0  0
   58.8619   34.9435   44.2772 H   0  0  0  0  0  0  0  0  0  0  0  0
   59.1244   34.5648   48.1485 H   0  0  0  0  0  0  0  0  0  0  0  0
   60.3353   35.2309   47.0011 H   0  0  0  0  0  0  0  0  0  0  0  0
   58.6545   35.8645   47.0011 H   0  0  0  0  0  0  0  0  0  0  0  0
   56.9736   33.7936   47.0156 H   0  0  0  0  0  0  0  0  0  0  0  0
   57.0628   34.7952   45.5173 H   0  0  0  0  0  0  0  0  0  0  0  0
   55.9144   32.6319   45.0967 H   0  0  0  0  0  0  0  0  0  0  0  0
   57.4462   32.7588   44.1676 H   0  0  0  0  0  0  0  0  0  0  0  0
   59.2880   31.9730   45.2820 H   0  0  0  0  0  0  0  0  0  0  0  0
   58.4601   29.1870   45.8195 H   0  0  0  0  0  0  0  0  0  0  0  0
   60.1104   29.6920   45.2875 H   0  0  0  0  0  0  0  0  0  0  0  0
   59.0715   29.6258   47.9432 H   0  0  0  0  0  0  0  0  0  0  0  0
   60.6644   30.2726   47.3711 H   0  0  0  0  0  0  0  0  0  0  0  0
   59.2250   32.3380   46.8040 H   0  0  0  0  0  0  0  0  0  0  0  0
   58.1400   31.7380   47.8610 H   0  0  0  0  0  0  0  0  0  0  0  0
   57.4796   31.4101   49.5423 H   0  0  0  0  0  0  0  0  0  0  0  0
   56.4229   31.8960   51.7345 H   0  0  0  0  0  0  0  0  0  0  0  0
   57.6698   33.1692   53.4682 H   0  0  0  0  0  0  0  0  0  0  0  0
   60.0269   33.8304   53.0732 H   0  0  0  0  0  0  0  0  0  0  0  0
   61.7775   33.3756   52.9777 H   0  0  0  0  0  0  0  0  0  0  0  0
   63.2469   32.9947   52.0173 H   0  0  0  0  0  0  0  0  0  0  0  0
   62.5815   34.6632   52.0173 H   0  0  0  0  0  0  0  0  0  0  0  0
   63.8805   34.2047   50.1535 H   0  0  0  0  0  0  0  0  0  0  0  0
   64.9668   33.8569   47.9501 H   0  0  0  0  0  0  0  0  0  0  0  0
   63.7817   32.6121   46.1556 H   0  0  0  0  0  0  0  0  0  0  0  0
   61.4552   31.8277   46.5084 H   0  0  0  0  0  0  0  0  0  0  0  0
  1  2  1  0
  2  3  1  0
  2  4  1  0
  4  5  1  0
  5  6  1  0
  6  7  1  0
  7  8  1  0
  8  9  1  0
  9 10  1  0
 10 11  1  0
 11 12  2  0
 12 13  1  0
 13 14  2  0
 14 15  1  0
 15 16  2  0
 16 17  1  0
 17 18  2  0
 18 19  1  0
 18 20  1  0
 20 21  2  0
 21 22  1  0
 22 23  2  0
 23 24  1  0
 24 25  2  0
 25 11  1  0
 17 12  1  0
 25 20  1  0
  1 26  1  0
  1 27  1  0
  1 28  1  0
  3 29  1  0
  3 30  1  0
  3 31  1  0
  4 32  1  0
  4 33  1  0
  5 34  1  0
  5 35  1  0
  7 36  1  0
  8 37  1  0
  8 38  1  0
  9 39  1  0
  9 40  1  0
 10 41  1  0
 10 42  1  0
 13 43  1  0
 14 44  1  0
 15 45  1  0
 16 46  1  0
 19 47  1  0
 19 48  1  0
 19 49  1  0
 21 50  1  0
 22 51  1  0
 23 52  1  0
 24 53  1  0
M  CHG  2  10   1  18   1
M  END
>  <UniqueID>  (8) 
8

>  <SMILES>  (8) 
CN(C)CCONCC[NH2+]c1c2ccccc2[n+](C)c2ccccc12

>  <Energy>  (8) 
76.75448751411531

>  <Genealogy>  (8) 
CN(C)CCONCC[NH2+]c1c2ccccc2[n+](C)c2ccccc12 (protonated)
CN(C)CCONCC[NH2+]c1c2ccccc2[n+](C)c2ccccc12 (3D coordinates assigned)
CN(C)CCONCC[NH2+]c1c2ccccc2[n+](C)c2ccccc12 (optimized conformer: 76.75448751411531 kcal/mol)

>  <smiles>  (8) 
CN(C)CCONCCNc1c2ccccc2[n+](C)c2ccccc12

>  <score_type>  (8) 
oracle

>  <origin>  (8) 
adg

>  <m_score__min__energy>  (8) 
-3.0499999999999998

>  <m_primary>  (8) 
energy

$$$$
8:0
     RDKit          3D

 58 61  0  0  0  0  0  0  0  0999 V2000
   58.4510   32.3450   50.3560 C   0  0  0  0  0  0  0  0  0  0  0  0
   58.1210   31.2040   51.3230 C   0  0  0  0  0  0  0  0  0  0  0  0
   58.2880   29.8770   50.7060 N   0  0  0  0  0  0  0  0  0  0  0  0
   58.5730   29.9630   49.2610 C   0  0  0  0  0  0  0  0  0  0  0  0
   60.0500   29.6630   48.9640 C   0  0  0  0  0  0  0  0  0  0  0  0
   60.3770   29.9420   47.5640 N   0  0  0  0  0  0  0  0  0  0  0  0
   59.4210   29.7660   46.5000 C   0  0  0  0  0  0  0  0  0  0  0  0
   59.1310   28.4790   46.0080 C   0  0  0  0  0  0  0  0  0  0  0  0
   59.8060   27.3410   46.5020 C   0  0  0  0  0  0  0  0  0  0  0  0
   59.4610   26.0640   46.0690 C   0  0  0  0  0  0  0  0  0  0  0  0
   58.4420   25.8960   45.1400 C   0  0  0  0  0  0  0  0  0  0  0  0
   57.7960   27.0070   44.6000 C   0  0  0  0  0  0  0  0  0  0  0  0
   58.1620   28.3250   44.9800 C   0  0  0  0  0  0  0  0  0  0  0  0
   57.6010   29.4370   44.3800 N   0  0  0  0  0  0  0  0  0  0  0  0
   56.8250   29.2880   43.1270 C   0  0  0  0  0  0  0  0  0  0  0  0
   57.7990   30.6920   44.9240 C   0  0  0  0  0  0  0  0  0  0  0  0
   57.0580   31.8200   44.4860 C   0  0  0  0  0  0  0  0  0  0  0  0
   57.3060   33.0900   44.9990 C   0  0  0  0  0  0  0  0  0  0  0  0
   58.2750   33.2860   45.9790 C   0  0  0  0  0  0  0  0  0  0  0  0
   58.4950   34.5940   46.4410 O   0  0  0  0  0  0  0  0  0  0  0  0
   59.7560   35.2660   46.4600 C   0  0  0  0  0  0  0  0  0  0  0  0
   60.7980   34.4390   47.1670 C   0  0  0  0  0  0  0  0  0  0  0  0
   61.8600   33.8630   46.4490 C   0  0  0  0  0  0  0  0  0  0  0  0
   62.8240   33.0970   47.1110 C   0  0  0  0  0  0  0  0  0  0  0  0
   62.7290   32.8920   48.4900 C   0  0  0  0  0  0  0  0  0  0  0  0
   61.6690   33.4500   49.2080 C   0  0  0  0  0  0  0  0  0  0  0  0
   60.7030   34.2180   48.5500 C   0  0  0  0  0  0  0  0  0  0  0  0
   58.9810   32.1780   46.4690 C   0  0  0  0  0  0  0  0  0  0  0  0
   58.7470   30.8810   45.9640 C   0  0  0  0  0  0  0  0  0  0  0  0
   58.7119   33.2471   50.9288 H   0  0  0  0  0  0  0  0  0  0  0  0
   59.3018   32.0541   49.7224 H   0  0  0  0  0  0  0  0  0  0  0  0
   57.5763   32.5532   49.7224 H   0  0  0  0  0  0  0  0  0  0  0  0
   58.7893   31.2750   52.1938 H   0  0  0  0  0  0  0  0  0  0  0  0
   57.0654   31.3071   51.6145 H   0  0  0  0  0  0  0  0  0  0  0  0
   57.4020   29.3440   50.8560 H   0  0  0  0  0  0  0  0  0  0  0  0
   59.0590   29.3570   51.1880 H   0  0  0  0  0  0  0  0  0  0  0  0
   57.9452   29.2338   48.7280 H   0  0  0  0  0  0  0  0  0  0  0  0
   58.3524   30.9867   48.9242 H   0  0  0  0  0  0  0  0  0  0  0  0
   60.6805   30.2901   49.6114 H   0  0  0  0  0  0  0  0  0  0  0  0
   60.2342   28.5961   49.1583 H   0  0  0  0  0  0  0  0  0  0  0  0
   61.2510   30.4780   47.3650 H   0  0  0  0  0  0  0  0  0  0  0  0
   60.6141   27.4654   47.2378 H   0  0  0  0  0  0  0  0  0  0  0  0
   59.9957   25.1871   46.4628 H   0  0  0  0  0  0  0  0  0  0  0  0
   58.1441   24.8836   44.8296 H   0  0  0  0  0  0  0  0  0  0  0  0
   56.9890   26.8600   43.8671 H   0  0  0  0  0  0  0  0  0  0  0  0
   55.7714   29.0857   43.3701 H   0  0  0  0  0  0  0  0  0  0  0  0
   56.8943   30.2159   42.5403 H   0  0  0  0  0  0  0  0  0  0  0  0
   57.2330   28.4518   42.5403 H   0  0  0  0  0  0  0  0  0  0  0  0
   56.2729   31.6884   43.7269 H   0  0  0  0  0  0  0  0  0  0  0  0
   56.7293   33.9491   44.6255 H   0  0  0  0  0  0  0  0  0  0  0  0
   60.0823   35.4479   45.4254 H   0  0  0  0  0  0  0  0  0  0  0  0
   59.6381   36.2172   46.9998 H   0  0  0  0  0  0  0  0  0  0  0  0
   61.9330   34.0155   45.3621 H   0  0  0  0  0  0  0  0  0  0  0  0
   63.6580   32.6553   46.5459 H   0  0  0  0  0  0  0  0  0  0  0  0
   63.4893   32.2909   49.0102 H   0  0  0  0  0  0  0  0  0  0  0  0
   61.5938   33.2852   50.2930 H   0  0  0  0  0  0  0  0  0  0  0  0
   59.8661   34.6503   49.1180 H   0  0  0  0  0  0  0  0  0  0  0  0
   59.7305   32.3222   47.2611 H   0  0  0  0  0  0  0  0  0  0  0  0
  1  2  1  0
  2  3  1  0
  3  4  1  0
  4  5  1  0
  5  6  1  0
  6  7  1  0
  7  8  2  0
  8  9  1  0
  9 10  2  0
 10 11  1  0
 11 12  2  0
 12 13  1  0
 13 14  2  0
 14 15  1  0
 14 16  1  0
 16 17  2  0
 17 18  1  0
 18 19  2  0
 19 20  1  0
 20 21  1  0
 21 22  1  0
 22 23  2  0
 23 24  1  0
 24 25  2  0
 25 26  1  0
 26 27  2  0
 19 28  1  0
 28 29  2  0
 29  7  1  0
 13  8  1  0
 29 16  1  0
 27 22  1  0
  1 30  1  0
  1 31  1  0
  1 32  1  0
  2 33  1  0
  2 34  1  0
  3 35  1  0
  3 36  1  0
  4 37  1  0
  4 38  1  0
  5 39  1  0
  5 40  1  0
  6 41  1  0
  9 42  1  0
 10 43  1  0
 11 44  1  0
 12 45  1  0
 15 46  1  0
 15 47  1  0
 15 48  1  0
 17 49  1  0
 18 50  1  0
 21 51  1  0
 21 52  1  0
 23 53  1  0
 24 54  1  0
 25 55  1  0
 26 56  1  0
 27 57  1  0
 28 58  1  0
M  CHG  2   3   1  14   1
M  END
>  <UniqueID>  (9) 
9

>  <SMILES>  (9) 
CC[NH2+]CCNc1c2ccccc2[n+](C)c2ccc(OCc3ccccc3)cc12

>  <Energy>  (9) 
82.57182792355299

>  <Genealogy>  (9) 
CC[NH2+]CCNc1c2ccccc2[n+](C)c2ccc(OCc3ccccc3)cc12 (protonated)
CC[NH2+]CCNc1c2ccccc2[n+](C)c2ccc(OCc3ccccc3)cc12 (3D coordinates assigned)
CC[NH2+]CCNc1c2ccccc2[n+](C)c2ccc(OCc3ccccc3)cc12 (optimized conformer: 82.57182792355299 kcal/mol)

>  <smiles>  (9) 
CCNCCNc1c2ccccc2[n+](C)c2ccc(OCc3ccccc3)cc12

>  <score_type>  (9) 
oracle

>  <origin>  (9) 
adg

>  <m_score__min__energy>  (9) 
-5.2999999999999998

>  <m_primary>  (9) 
energy

$$$$
9:0
     RDKit          3D

 39 41  0  0  0  0  0  0  0  0999 V2000
   60.2040   34.3580   48.4840 C   0  0  0  0  0  0  0  0  0  0  0  0
   59.4720   33.6330   47.3950 C   0  0  0  0  0  0  0  0  0  0  0  0
   58.9640   32.3430   47.5110 C   0  0  0  0  0  0  0  0  0  0  0  0
   58.3990   32.0680   46.2840 C   0  0  0  0  0  0  0  0  0  0  0  0
   57.7690   30.9150   45.8240 C   0  0  0  0  0  0  0  0  0  0  0  0
   57.3010   30.9030   44.4950 C   0  0  0  0  0  0  0  0  0  0  0  0
   56.5260   29.4540   43.8610 S   0  0  0  0  0  0  0  0  0  0  0  0
   55.1450   29.3490   44.4450 O   0  0  0  0  0  0  0  0  0  0  0  0
   56.4060   29.5510   42.3640 O   0  0  0  0  0  0  0  0  0  0  0  0
   57.4590   28.0410   44.2950 N   0  0  0  0  0  0  0  0  0  0  0  0
   58.8530   28.1510   43.7960 C   0  0  0  0  0  0  0  0  0  0  0  0
   59.8380   28.5180   44.9210 C   0  0  0  0  0  0  0  0  0  0  0  0
   59.8500   27.5760   45.9850 O   0  0  0  0  0  0  0  0  0  0  0  0
   58.5830   26.9810   46.2380 C   0  0  0  0  0  0  0  0  0  0  0  0
   57.3880   27.8200   45.7560 C   0  0  0  0  0  0  0  0  0  0  0  0
   57.4910   32.0360   43.6670 C   0  0  0  0  0  0  0  0  0  0  0  0
   58.1330   33.1850   44.1620 C   0  0  0  0  0  0  0  0  0  0  0  0
   58.5730   33.1700   45.4880 C   0  0  0  0  0  0  0  0  0  0  0  0
   59.2160   34.1450   46.1630 N   0  0  0  0  0  0  0  0  0  0  0  0
   59.6460   35.4390   45.6330 C   0  0  0  0  0  0  0  0  0  0  0  0
   59.8478   34.0052   49.4631 H   0  0  0  0  0  0  0  0  0  0  0  0
   61.2827   34.1623   48.3940 H   0  0  0  0  0  0  0  0  0  0  0  0
   60.0186   35.4385   48.3940 H   0  0  0  0  0  0  0  0  0  0  0  0
   59.0044   31.6848   48.3914 H   0  0  0  0  0  0  0  0  0  0  0  0
   57.6405   30.0400   46.4781 H   0  0  0  0  0  0  0  0  0  0  0  0
   57.0060   27.2260   43.8180 H   0  0  0  0  0  0  0  0  0  0  0  0
   59.1526   27.1857   43.3619 H   0  0  0  0  0  0  0  0  0  0  0  0
   58.8831   28.9513   43.0419 H   0  0  0  0  0  0  0  0  0  0  0  0
   60.8501   28.5760   44.4942 H   0  0  0  0  0  0  0  0  0  0  0  0
   59.5104   29.4805   45.3407 H   0  0  0  0  0  0  0  0  0  0  0  0
   58.5502   26.0076   45.7268 H   0  0  0  0  0  0  0  0  0  0  0  0
   58.4873   26.8908   47.3301 H   0  0  0  0  0  0  0  0  0  0  0  0
   56.4545   27.2899   45.9960 H   0  0  0  0  0  0  0  0  0  0  0  0
   57.4141   28.7960   46.2628 H   0  0  0  0  0  0  0  0  0  0  0  0
   57.1331   32.0171   42.6270 H   0  0  0  0  0  0  0  0  0  0  0  0
   58.2842   34.0687   43.5247 H   0  0  0  0  0  0  0  0  0  0  0  0
   59.8723   36.1199   46.4668 H   0  0  0  0  0  0  0  0  0  0  0  0
   60.5469   35.3018   45.0168 H   0  0  0  0  0  0  0  0  0  0  0  0
   58.8422   35.8683   45.0168 H   0  0  0  0  0  0  0  0  0  0  0  0
  1  2  1  0
  2  3  2  0
  3  4  1  0
  4  5  2  0
  5  6  1  0
  6  7  1  0
  7  8  2  0
  7  9  2  0
  7 10  1  0
 10 11  1  0
 11 12  1  0
 12 13  1  0
 13 14  1  0
 14 15  1  0
  6 16  2  0
 16 17  1  0
 17 18  2  0
 18 19  1  0
 19 20  1  0
 19  2  1  0
 18  4  1  0
 15 10  1  0
  1 21  1  0
  1 22  1  0
  1 23  1  0
  3 24  1  0
  5 25  1  0
 10 26  1  0
 11 27  1  0
 11 28  1  0
 12 29  1  0
 12 30  1  0
 14 31  1  0
 14 32  1  0
 15 33  1  0
 15 34  1  0
 16 35  1  0
 17 36  1  0
 20 37  1  0
 20 38  1  0
 20 39  1  0
M  CHG  1  10   1
M  END
>  <UniqueID>  (10) 
10

>  <SMILES>  (10) 
Cc1cc2cc(S(=O)(=O)[NH+]3CCOCC3)ccc2n1C

>  <Energy>  (10) 
84.12787968789924

>  <Genealogy>  (10) 
Cc1cc2cc(S(=O)(=O)[NH+]3CCOCC3)ccc2n1C (protonated)
Cc1cc2cc(S(=O)(=O)[NH+]3CCOCC3)ccc2n1C (3D coordinates assigned)
Cc1cc2cc(S(=O)(=O)[NH+]3CCOCC3)ccc2n1C (nonaromatic ring conformer: 84.12787968789924 kcal/mol)

>  <smiles>  (10) 
Cc1cc2cc(S(=O)(=O)N3CCOCC3)ccc2n1C

>  <score_type>  (10) 
oracle

>  <origin>  (10) 
adg

>  <m_score__min__energy>  (10) 
-6.4800000000000004

>  <m_primary>  (10) 
energy

$$$$
10:0
     RDKit          3D

 78 81  0  0  0  0  0  0  0  0999 V2000
   59.2660   33.6300   50.5750 C   0  0  0  0  0  0  0  0  0  0  0  0
   60.1320   34.2120   49.4540 C   0  0  0  0  0  0  0  0  0  0  0  0
   59.3500   34.5640   48.2580 N   0  0  0  0  0  0  0  0  0  0  0  0
   60.1760   34.5920   47.0430 C   0  0  0  0  0  0  0  0  0  0  0  0
   59.3060   34.9500   45.8370 C   0  0  0  0  0  0  0  0  0  0  0  0
   58.4950   33.7400   45.3610 C   0  0  0  0  0  0  0  0  0  0  0  0
   58.3560   32.7500   46.4300 N   0  0  0  0  0  0  0  0  0  0  0  0
   58.5590   31.3440   46.2000 C   0  0  0  0  0  0  0  0  0  0  0  0
   57.9830   30.7140   45.0830 C   0  0  0  0  0  0  0  0  0  0  0  0
   57.2780   31.4600   44.1140 C   0  0  0  0  0  0  0  0  0  0  0  0
   56.6410   30.8240   43.0510 C   0  0  0  0  0  0  0  0  0  0  0  0
   56.6940   29.4400   42.9370 C   0  0  0  0  0  0  0  0  0  0  0  0
   57.4220   28.6870   43.8560 C   0  0  0  0  0  0  0  0  0  0  0  0
   58.1260   29.3100   44.9210 C   0  0  0  0  0  0  0  0  0  0  0  0
   58.9230   28.5870   45.7900 N   0  0  0  0  0  0  0  0  0  0  0  0
   59.2960   27.1920   45.4610 C   0  0  0  0  0  0  0  0  0  0  0  0
   59.4070   29.1780   46.9430 C   0  0  0  0  0  0  0  0  0  0  0  0
   60.0220   28.4200   47.9690 C   0  0  0  0  0  0  0  0  0  0  0  0
   60.5560   29.0330   49.1010 C   0  0  0  0  0  0  0  0  0  0  0  0
   60.4820   30.4230   49.2580 C   0  0  0  0  0  0  0  0  0  0  0  0
   61.0190   31.0960   50.3670 O   0  0  0  0  0  0  0  0  0  0  0  0
   60.9950   30.6300   51.7170 C   0  0  0  0  0  0  0  0  0  0  0  0
   61.3920   31.7730   52.6800 C   0  0  0  0  0  0  0  0  0  0  0  0
   62.7450   32.3890   52.4620 N   0  0  0  0  0  0  0  0  0  0  0  0
   63.1780   32.9180   53.7860 C   0  0  0  0  0  0  0  0  0  0  0  0
   63.7580   31.3750   52.0140 C   0  0  0  0  0  0  0  0  0  0  0  0
   64.0080   31.4050   50.4900 C   0  0  0  0  0  0  0  0  0  0  0  0
   64.5180   32.7310   50.0160 N   0  0  0  0  0  0  0  0  0  0  0  0
   66.0020   32.7370   50.0600 C   0  0  0  0  0  0  0  0  0  0  0  0
   64.1050   32.9230   48.6040 C   0  0  0  0  0  0  0  0  0  0  0  0
   64.0010   33.8670   50.8460 C   0  0  0  0  0  0  0  0  0  0  0  0
   62.6470   33.5440   51.5100 C   0  0  0  0  0  0  0  0  0  0  0  0
   59.8470   31.1820   48.2750 C   0  0  0  0  0  0  0  0  0  0  0  0
   59.2760   30.5770   47.1350 C   0  0  0  0  0  0  0  0  0  0  0  0
   59.6887   33.9141   51.5500 H   0  0  0  0  0  0  0  0  0  0  0  0
   58.2426   34.0244   50.4901 H   0  0  0  0  0  0  0  0  0  0  0  0
   59.2446   32.5335   50.4901 H   0  0  0  0  0  0  0  0  0  0  0  0
   60.6301   35.1185   49.8284 H   0  0  0  0  0  0  0  0  0  0  0  0
   60.8592   33.4405   49.1608 H   0  0  0  0  0  0  0  0  0  0  0  0
   58.9090   35.5040   48.3960 H   0  0  0  0  0  0  0  0  0  0  0  0
   60.9698   35.3448   47.1577 H   0  0  0  0  0  0  0  0  0  0  0  0
   60.6269   33.6011   46.8859 H   0  0  0  0  0  0  0  0  0  0  0  0
   58.6141   35.7568   46.1204 H   0  0  0  0  0  0  0  0  0  0  0  0
   59.9634   35.2736   45.0166 H   0  0  0  0  0  0  0  0  0  0  0  0
   57.4951   34.0767   45.0499 H   0  0  0  0  0  0  0  0  0  0  0  0
   59.0236   33.2732   44.5168 H   0  0  0  0  0  0  0  0  0  0  0  0
   58.0300   33.0620   47.3730 H   0  0  0  0  0  0  0  0  0  0  0  0
   57.2311   32.5557   44.1993 H   0  0  0  0  0  0  0  0  0  0  0  0
   56.0961   31.4172   42.3019 H   0  0  0  0  0  0  0  0  0  0  0  0
   56.1591   28.9369   42.1180 H   0  0  0  0  0  0  0  0  0  0  0  0
   57.4521   27.5920   43.7551 H   0  0  0  0  0  0  0  0  0  0  0  0
   59.4479   26.6241   46.3907 H   0  0  0  0  0  0  0  0  0  0  0  0
   58.4909   26.7259   44.8740 H   0  0  0  0  0  0  0  0  0  0  0  0
   60.2263   27.1899   44.8740 H   0  0  0  0  0  0  0  0  0  0  0  0
   60.0794   27.3259   47.8706 H   0  0  0  0  0  0  0  0  0  0  0  0
   61.0391   28.4209   49.8768 H   0  0  0  0  0  0  0  0  0  0  0  0
   59.9812   30.2817   51.9638 H   0  0  0  0  0  0  0  0  0  0  0  0
   61.7114   29.8023   51.8253 H   0  0  0  0  0  0  0  0  0  0  0  0
   60.6410   32.5706   52.5808 H   0  0  0  0  0  0  0  0  0  0  0  0
   61.4373   31.3125   53.6780 H   0  0  0  0  0  0  0  0  0  0  0  0
   62.7009   32.3351   54.5876 H   0  0  0  0  0  0  0  0  0  0  0  0
   64.2714   32.8358   53.8739 H   0  0  0  0  0  0  0  0  0  0  0  0
   62.8814   33.9736   53.8739 H   0  0  0  0  0  0  0  0  0  0  0  0
   64.7085   31.5776   52.5293 H   0  0  0  0  0  0  0  0  0  0  0  0
   63.3603   30.3801   52.2629 H   0  0  0  0  0  0  0  0  0  0  0  0
   64.7497   30.6323   50.2394 H   0  0  0  0  0  0  0  0  0  0  0  0
   63.0453   31.2205   49.9908 H   0  0  0  0  0  0  0  0  0  0  0  0
   66.3378   32.7384   51.1075 H   0  0  0  0  0  0  0  0  0  0  0  0
   66.3875   31.8404   49.5526 H   0  0  0  0  0  0  0  0  0  0  0  0
   66.3802   33.6367   49.5526 H   0  0  0  0  0  0  0  0  0  0  0  0
   63.1079   33.3865   48.5734 H   0  0  0  0  0  0  0  0  0  0  0  0
   64.8291   33.5768   48.0959 H   0  0  0  0  0  0  0  0  0  0  0  0
   64.0718   31.9480   48.0959 H   0  0  0  0  0  0  0  0  0  0  0  0
   64.7355   34.0916   51.6334 H   0  0  0  0  0  0  0  0  0  0  0  0
   63.8491   34.7275   50.1778 H   0  0  0  0  0  0  0  0  0  0  0  0
   62.3028   34.4306   52.0627 H   0  0  0  0  0  0  0  0  0  0  0  0
   61.9381   33.2680   50.7154 H   0  0  0  0  0  0  0  0  0  0  0  0
   59.7901   32.2744   48.3907 H   0  0  0  0  0  0  0  0  0  0  0  0
  1  2  1  0
  2  3  1  0
  3  4  1  0
  4  5  1  0
  5  6  1  0
  6  7  1  0
  7  8  1  0
  8  9  2  0
  9 10  1  0
 10 11  2  0
 11 12  1  0
 12 13  2  0
 13 14  1  0
 14 15  2  0
 15 16  1  0
 15 17  1  0
 17 18  2  0
 18 19  1  0
 19 20  2  0
 20 21  1  0
 21 22  1  0
 22 23  1  0
 23 24  1  0
 24 25  1  0
 24 26  1  0
 26 27  1  0
 27 28  1  0
 28 29  1  0
 28 30  1  0
 28 31  1  0
 31 32  1  0
 20 33  1  0
 33 34  2  0
 34  8  1  0
 14  9  1  0
 34 17  1  0
 32 24  1  0
  1 35  1  0
  1 36  1  0
  1 37  1  0
  2 38  1  0
  2 39  1  0
  3 40  1  0
  4 41  1  0
  4 42  1  0
  5 43  1  0
  5 44  1  0
  6 45  1  0
  6 46  1  0
  7 47  1  0
 10 48  1  0
 11 49  1  0
 12 50  1  0
 13 51  1  0
 16 52  1  0
 16 53  1  0
 16 54  1  0
 18 55  1  0
 19 56  1  0
 22 57  1  0
 22 58  1  0
 23 59  1  0
 23 60  1  0
 25 61  1  0
 25 62  1  0
 25 63  1  0
 26 64  1  0
 26 65  1  0
 27 66  1  0
 27 67  1  0
 29 68  1  0
 29 69  1  0
 29 70  1  0
 30 71  1  0
 30 72  1  0
 30 73  1  0
 31 74  1  0
 31 75  1  0
 32 76  1  0
 32 77  1  0
 33 78  1  0
M  CHG  3  15   1  24   1  28   1
M  END
>  <UniqueID>  (11) 
11

>  <SMILES>  (11) 
CCNCCCNc1c2ccccc2[n+](C)c2ccc(OCC[N+]3(C)CC[N+](C)(C)CC3)cc12

>  <Energy>  (11) 
126.58644854539294

>  <Genealogy>  (11) 
CCNCCCNc1c2ccccc2[n+](C)c2ccc(OCC[N+]3(C)CC[N+](C)(C)CC3)cc12 (3D coordinates assigned)
CCNCCCNc1c2ccccc2[n+](C)c2ccc(OCC[N+]3(C)CC[N+](C)(C)CC3)cc12 (nonaromatic ring conformer: 126.58644854539294 kcal/mol)

>  <smiles>  (11) 
CCNCCCNc1c2ccccc2[n+](C)c2ccc(OCC[N+]3(C)CC[N+](C)(C)CC3)cc12

>  <score_type>  (11) 
oracle

>  <origin>  (11) 
adg

>  <m_score__min__energy>  (11) 
-4.0300000000000002

>  <m_primary>  (11) 
energy

$$$$
11:0
     RDKit          3D

 41 43  0  0  0  0  0  0  0  0999 V2000
   57.0230   31.0460   42.4450 C   0  0  0  0  0  0  0  0  0  0  0  0
   56.3060   29.7640   42.8670 C   0  0  0  0  0  0  0  0  0  0  0  0
   57.2700   28.6710   43.0770 N   0  0  0  0  0  0  0  0  0  0  0  0
   58.0820   28.8570   44.2960 C   0  0  0  0  0  0  0  0  0  0  0  0
   57.2770   29.3740   45.5040 C   0  0  0  0  0  0  0  0  0  0  0  0
   58.0760   30.2540   46.3580 N   0  0  0  0  0  0  0  0  0  0  0  0
   58.3530   31.6310   46.0430 C   0  0  0  0  0  0  0  0  0  0  0  0
   57.4010   32.3890   45.3360 C   0  0  0  0  0  0  0  0  0  0  0  0
   57.6630   33.7120   44.9810 C   0  0  0  0  0  0  0  0  0  0  0  0
   58.8780   34.3030   45.3200 C   0  0  0  0  0  0  0  0  0  0  0  0
   59.8410   33.5770   46.0340 C   0  0  0  0  0  0  0  0  0  0  0  0
   61.0520   34.1780   46.3860 C   0  0  0  0  0  0  0  0  0  0  0  0
   61.9990   33.4590   47.1220 C   0  0  0  0  0  0  0  0  0  0  0  0
   63.2130   34.0680   47.4800 C   0  0  0  0  0  0  0  0  0  0  0  0
   64.1490   33.3520   48.2200 C   0  0  0  0  0  0  0  0  0  0  0  0
   63.8750   32.0420   48.6030 C   0  0  0  0  0  0  0  0  0  0  0  0
   62.6610   31.4580   48.2350 C   0  0  0  0  0  0  0  0  0  0  0  0
   61.7400   32.1600   47.5030 N   0  0  0  0  0  0  0  0  0  0  0  0
   60.5620   31.5540   47.1610 C   0  0  0  0  0  0  0  0  0  0  0  0
   59.5860   32.2360   46.4060 C   0  0  0  0  0  0  0  0  0  0  0  0
   57.3348   31.6035   43.3405 H   0  0  0  0  0  0  0  0  0  0  0  0
   57.9090   30.7902   41.8454 H   0  0  0  0  0  0  0  0  0  0  0  0
   56.3413   31.6670   41.8454 H   0  0  0  0  0  0  0  0  0  0  0  0
   55.7596   29.9480   43.8038 H   0  0  0  0  0  0  0  0  0  0  0  0
   55.6087   29.4707   42.0685 H   0  0  0  0  0  0  0  0  0  0  0  0
   56.7440   27.7730   43.1860 H   0  0  0  0  0  0  0  0  0  0  0  0
   57.8900   28.5760   42.2410 H   0  0  0  0  0  0  0  0  0  0  0  0
   58.5300   27.8893   44.5658 H   0  0  0  0  0  0  0  0  0  0  0  0
   58.8394   29.6203   44.0642 H   0  0  0  0  0  0  0  0  0  0  0  0
   56.4038   29.9328   45.1362 H   0  0  0  0  0  0  0  0  0  0  0  0
   56.9688   28.5053   46.1044 H   0  0  0  0  0  0  0  0  0  0  0  0
   58.4480   29.8480   47.2470 H   0  0  0  0  0  0  0  0  0  0  0  0
   56.4389   31.9326   45.0602 H   0  0  0  0  0  0  0  0  0  0  0  0
   56.9069   34.2914   44.4309 H   0  0  0  0  0  0  0  0  0  0  0  0
   59.0823   35.3432   45.0263 H   0  0  0  0  0  0  0  0  0  0  0  0
   61.2603   35.2152   46.0847 H   0  0  0  0  0  0  0  0  0  0  0  0
   63.4226   35.1046   47.1773 H   0  0  0  0  0  0  0  0  0  0  0  0
   65.1036   33.8203   48.5018 H   0  0  0  0  0  0  0  0  0  0  0  0
   64.6090   31.4713   49.1909 H   0  0  0  0  0  0  0  0  0  0  0  0
   62.4419   30.4230   48.5362 H   0  0  0  0  0  0  0  0  0  0  0  0
   60.3734   30.5183   47.4801 H   0  0  0  0  0  0  0  0  0  0  0  0
  1  2  1  0
  2  3  1  0
  3  4  1  0
  4  5  1  0
  5  6  1  0
  6  7  1  0
  7  8  2  0
  8  9  1  0
  9 10  2  0
 10 11  1  0
 11 12  2  0
 12 13  1  0
 13 14  2  0
 14 15  1  0
 15 16  2  0
 16 17  1  0
 17 18  2  0
 18 19  1  0
 19 20  2  0
 20  7  1  0
 20 11  1  0
 18 13  1  0
  1 21  1  0
  1 22  1  0
  1 23  1  0
  2 24  1  0
  2 25  1  0
  3 26  1  0
  3 27  1  0
  4 28  1  0
  4 29  1  0
  5 30  1  0
  5 31  1  0
  6 32  1  0
  8 33  1  0
  9 34  1  0
 10 35  1  0
 12 36  1  0
 14 37  1  0
 15 38  1  0
 16 39  1  0
 17 40  1  0
 19 41  1  0
M  CHG  2   3   1  18   1
M  END
>  <UniqueID>  (12) 
12

>  <SMILES>  (12) 
CC[NH2+]CCNc1cccc2cc3cccc[n+]3cc12

>  <Energy>  (12) 
48.98563386359616

>  <Genealogy>  (12) 
CC[NH2+]CCNc1cccc2cc3cccc[n+]3cc12 (protonated)
CC[NH2+]CCNc1cccc2cc3cccc[n+]3cc12 (3D coordinates assigned)
CC[NH2+]CCNc1cccc2cc3cccc[n+]3cc12 (optimized conformer: 48.98563386359616 kcal/mol)

>  <smiles>  (12) 
CCNCCNc1cccc2cc3cccc[n+]3cc12

>  <score_type>  (12) 
oracle

>  <origin>  (12) 
adg

>  <m_score__min__energy>  (12) 
-4.7300000000000004

>  <m_primary>  (12) 
energy

$$$$
12:0
     RDKit          3D

 47 49  0  0  0  0  0  0  0  0999 V2000
   57.4140   32.1320   41.5000 C   0  0  0  0  0  0  0  0  0  0  0  0
   57.3800   31.5110   42.8950 C   0  0  0  0  0  0  0  0  0  0  0  0
   56.2810   30.4490   43.0170 C   0  0  0  0  0  0  0  0  0  0  0  0
   55.8680   30.2910   44.4200 N   0  0  0  0  0  0  0  0  0  0  0  0
   56.2710   28.9810   44.9520 C   0  0  0  0  0  0  0  0  0  0  0  0
   57.5240   29.1180   45.8350 C   0  0  0  0  0  0  0  0  0  0  0  0
   58.3940   30.2420   45.4260 N   0  0  0  0  0  0  0  0  0  0  0  0
   59.1550   30.7960   46.5390 C   0  0  0  0  0  0  0  0  0  0  0  0
   59.2300   32.1920   46.7390 C   0  0  0  0  0  0  0  0  0  0  0  0
   59.1180   33.0960   45.6620 C   0  0  0  0  0  0  0  0  0  0  0  0
   59.1980   34.4700   45.8740 C   0  0  0  0  0  0  0  0  0  0  0  0
   59.4040   34.9660   47.1560 C   0  0  0  0  0  0  0  0  0  0  0  0
   59.5210   34.0920   48.2360 C   0  0  0  0  0  0  0  0  0  0  0  0
   59.4210   32.6900   48.0530 C   0  0  0  0  0  0  0  0  0  0  0  0
   59.4950   31.8110   49.1130 N   0  0  0  0  0  0  0  0  0  0  0  0
   59.3120   32.2980   50.4970 C   0  0  0  0  0  0  0  0  0  0  0  0
   59.7820   30.4810   48.8730 C   0  0  0  0  0  0  0  0  0  0  0  0
   60.2020   29.6170   49.9140 C   0  0  0  0  0  0  0  0  0  0  0  0
   60.5630   28.2990   49.6510 C   0  0  0  0  0  0  0  0  0  0  0  0
   60.5860   27.8300   48.3460 C   0  0  0  0  0  0  0  0  0  0  0  0
   60.1890   28.6500   47.2900 C   0  0  0  0  0  0  0  0  0  0  0  0
   60.6070   28.0730   45.6730 Cl  0  0  0  0  0  0  0  0  0  0  0  0
   59.6950   29.9600   47.5500 C   0  0  0  0  0  0  0  0  0  0  0  0
   57.4739   33.2269   41.5874 H   0  0  0  0  0  0  0  0  0  0  0  0
   58.2931   31.7591   40.9540 H   0  0  0  0  0  0  0  0  0  0  0  0
   56.4995   31.8573   40.9540 H   0  0  0  0  0  0  0  0  0  0  0  0
   58.3535   31.0416   43.0999 H   0  0  0  0  0  0  0  0  0  0  0  0
   57.1666   32.3098   43.6205 H   0  0  0  0  0  0  0  0  0  0  0  0
   55.4122   30.7571   42.4168 H   0  0  0  0  0  0  0  0  0  0  0  0
   56.6737   29.4884   42.6523 H   0  0  0  0  0  0  0  0  0  0  0  0
   54.8220   30.3400   44.4560 H   0  0  0  0  0  0  0  0  0  0  0  0
   55.4485   28.5662   45.5532 H   0  0  0  0  0  0  0  0  0  0  0  0
   56.5015   28.3116   44.1101 H   0  0  0  0  0  0  0  0  0  0  0  0
   57.2048   29.2811   46.8750 H   0  0  0  0  0  0  0  0  0  0  0  0
   58.1075   28.1918   45.7274 H   0  0  0  0  0  0  0  0  0  0  0  0
   59.0140   29.8560   44.6850 H   0  0  0  0  0  0  0  0  0  0  0  0
   57.8190   30.9950   44.9850 H   0  0  0  0  0  0  0  0  0  0  0  0
   58.9657   32.7112   44.6428 H   0  0  0  0  0  0  0  0  0  0  0  0
   59.0981   35.1635   45.0260 H   0  0  0  0  0  0  0  0  0  0  0  0
   59.4749   36.0515   47.3190 H   0  0  0  0  0  0  0  0  0  0  0  0
   59.6934   34.4962   49.2444 H   0  0  0  0  0  0  0  0  0  0  0  0
   59.6081   31.5100   51.2051 H   0  0  0  0  0  0  0  0  0  0  0  0
   59.9366   33.1891   50.6578 H   0  0  0  0  0  0  0  0  0  0  0  0
   58.2551   32.5572   50.6578 H   0  0  0  0  0  0  0  0  0  0  0  0
   60.2435   29.9938   50.9466 H   0  0  0  0  0  0  0  0  0  0  0  0
   60.8308   27.6276   50.4801 H   0  0  0  0  0  0  0  0  0  0  0  0
   60.9203   26.8021   48.1420 H   0  0  0  0  0  0  0  0  0  0  0  0
  1  2  1  0
  2  3  1  0
  3  4  1  0
  4  5  1  0
  5  6  1  0
  6  7  1  0
  7  8  1  0
  8  9  2  0
  9 10  1  0
 10 11  2  0
 11 12  1  0
 12 13  2  0
 13 14  1  0
 14 15  2  0
 15 16  1  0
 15 17  1  0
 17 18  2  0
 18 19  1  0
 19 20  2  0
 20 21  1  0
 21 22  1  0
 21 23  2  0
 23  8  1  0
 14  9  1  0
 23 17  1  0
  1 24  1  0
  1 25  1  0
  1 26  1  0
  2 27  1  0
  2 28  1  0
  3 29  1  0
  3 30  1  0
  4 31  1  0
  5 32  1  0
  5 33  1  0
  6 34  1  0
  6 35  1  0
  7 36  1  0
  7 37  1  0
 10 38  1  0
 11 39  1  0
 12 40  1  0
 13 41  1  0
 16 42  1  0
 16 43  1  0
 16 44  1  0
 18 45  1  0
 19 46  1  0
 20 47  1  0
M  CHG  2   7   1  15   1
M  END
>  <UniqueID>  (13) 
13

>  <SMILES>  (13) 
CCCNCC[NH2+]c1c2ccccc2[n+](C)c2cccc(Cl)c12

>  <Energy>  (13) 
80.43432827996487

>  <Genealogy>  (13) 
CCCNCC[NH2+]c1c2ccccc2[n+](C)c2cccc(Cl)c12 (protonated)
CCCNCC[NH2+]c1c2ccccc2[n+](C)c2cccc(Cl)c12 (3D coordinates assigned)
CCCNCC[NH2+]c1c2ccccc2[n+](C)c2cccc(Cl)c12 (optimized conformer: 80.43432827996487 kcal/mol)

>  <smiles>  (13) 
CCCNCCNc1c2ccccc2[n+](C)c2cccc(Cl)c12

>  <score_type>  (13) 
oracle

>  <origin>  (13) 
adg

>  <m_score__min__energy>  (13) 
-4.5499999999999998

>  <m_primary>  (13) 
energy

$$$$
13:0
     RDKit          3D

 49 51  0  0  0  0  0  0  0  0999 V2000
   63.0440   33.8110   46.7080 C   0  0  0  0  0  0  0  0  0  0  0  0
   63.2780   32.4420   47.3250 C   0  0  0  0  0  0  0  0  0  0  0  0
   62.4750   32.3090   48.4790 O   0  0  0  0  0  0  0  0  0  0  0  0
   62.5070   33.4970   49.2470 C   0  0  0  0  0  0  0  0  0  0  0  0
   61.5640   33.3790   50.4420 C   0  0  0  0  0  0  0  0  0  0  0  0
   60.3090   33.9290   50.0980 O   0  0  0  0  0  0  0  0  0  0  0  0
   59.2590   33.1140   50.5830 C   0  0  0  0  0  0  0  0  0  0  0  0
   58.6660   32.2860   49.4420 C   0  0  0  0  0  0  0  0  0  0  0  0
   59.5320   32.3390   48.2660 N   0  0  0  0  0  0  0  0  0  0  0  0
   59.3420   31.4260   47.1740 C   0  0  0  0  0  0  0  0  0  0  0  0
   59.6320   30.0620   47.3600 C   0  0  0  0  0  0  0  0  0  0  0  0
   60.3050   29.6090   48.5160 C   0  0  0  0  0  0  0  0  0  0  0  0
   60.6250   28.2630   48.6750 C   0  0  0  0  0  0  0  0  0  0  0  0
   60.2890   27.3480   47.6850 C   0  0  0  0  0  0  0  0  0  0  0  0
   59.6050   27.7670   46.5460 C   0  0  0  0  0  0  0  0  0  0  0  0
   59.2280   29.1240   46.3760 C   0  0  0  0  0  0  0  0  0  0  0  0
   58.4820   29.5400   45.2930 N   0  0  0  0  0  0  0  0  0  0  0  0
   57.7670   28.5430   44.4650 C   0  0  0  0  0  0  0  0  0  0  0  0
   58.3900   30.8870   44.9920 C   0  0  0  0  0  0  0  0  0  0  0  0
   57.8850   31.3220   43.7420 C   0  0  0  0  0  0  0  0  0  0  0  0
   57.7740   32.6740   43.4390 C   0  0  0  0  0  0  0  0  0  0  0  0
   58.2030   33.6280   44.3460 C   0  0  0  0  0  0  0  0  0  0  0  0
   58.7500   33.2510   45.5740 C   0  0  0  0  0  0  0  0  0  0  0  0
   59.4380   34.5720   46.5200 Cl  0  0  0  0  0  0  0  0  0  0  0  0
   58.8260   31.8690   45.9320 C   0  0  0  0  0  0  0  0  0  0  0  0
   62.9166   34.5563   47.5069 H   0  0  0  0  0  0  0  0  0  0  0  0
   63.9083   34.0851   46.0852 H   0  0  0  0  0  0  0  0  0  0  0  0
   62.1377   33.7825   46.0852 H   0  0  0  0  0  0  0  0  0  0  0  0
   63.0104   31.6605   46.5986 H   0  0  0  0  0  0  0  0  0  0  0  0
   64.3382   32.3364   47.5985 H   0  0  0  0  0  0  0  0  0  0  0  0
   63.5317   33.6683   49.6085 H   0  0  0  0  0  0  0  0  0  0  0  0
   62.1845   34.3396   48.6177 H   0  0  0  0  0  0  0  0  0  0  0  0
   61.4405   32.3194   50.7103 H   0  0  0  0  0  0  0  0  0  0  0  0
   61.9842   33.9239   51.3002 H   0  0  0  0  0  0  0  0  0  0  0  0
   59.6511   32.4381   51.3573 H   0  0  0  0  0  0  0  0  0  0  0  0
   58.4730   33.7551   51.0086 H   0  0  0  0  0  0  0  0  0  0  0  0
   58.5634   31.2407   49.7689 H   0  0  0  0  0  0  0  0  0  0  0  0
   57.6816   32.6995   49.1773 H   0  0  0  0  0  0  0  0  0  0  0  0
   60.4320   32.8660   48.3370 H   0  0  0  0  0  0  0  0  0  0  0  0
   60.5800   30.3287   49.3011 H   0  0  0  0  0  0  0  0  0  0  0  0
   61.1436   27.9244   49.5841 H   0  0  0  0  0  0  0  0  0  0  0  0
   60.5640   26.2892   47.8009 H   0  0  0  0  0  0  0  0  0  0  0  0
   59.3531   27.0337   45.7657 H   0  0  0  0  0  0  0  0  0  0  0  0
   57.2518   27.8246   45.1195 H   0  0  0  0  0  0  0  0  0  0  0  0
   57.0291   29.0552   43.8301 H   0  0  0  0  0  0  0  0  0  0  0  0
   58.4888   28.0083   43.8301 H   0  0  0  0  0  0  0  0  0  0  0  0
   57.5746   30.5751   42.9965 H   0  0  0  0  0  0  0  0  0  0  0  0
   57.3442   32.9868   42.4760 H   0  0  0  0  0  0  0  0  0  0  0  0
   58.1118   34.6954   44.0962 H   0  0  0  0  0  0  0  0  0  0  0  0
  1  2  1  0
  2  3  1  0
  3  4  1  0
  4  5  1  0
  5  6  1  0
  6  7  1  0
  7  8  1  0
  8  9  1  0
  9 10  1  0
 10 11  2  0
 11 12  1  0
 12 13  2  0
 13 14  1  0
 14 15  2  0
 15 16  1  0
 16 17  2  0
 17 18  1  0
 17 19  1  0
 19 20  2  0
 20 21  1  0
 21 22  2  0
 22 23  1  0
 23 24  1  0
 23 25  2  0
 25 10  1  0
 16 11  1  0
 25 19  1  0
  1 26  1  0
  1 27  1  0
  1 28  1  0
  2 29  1  0
  2 30  1  0
  4 31  1  0
  4 32  1  0
  5 33  1  0
  5 34  1  0
  7 35  1  0
  7 36  1  0
  8 37  1  0
  8 38  1  0
  9 39  1  0
 12 40  1  0
 13 41  1  0
 14 42  1  0
 15 43  1  0
 18 44  1  0
 18 45  1  0
 18 46  1  0
 20 47  1  0
 21 48  1  0
 22 49  1  0
M  CHG  1  17   1
M  END
>  <UniqueID>  (14) 
14

>  <SMILES>  (14) 
CCOCCOCCNc1c2ccccc2[n+](C)c2cccc(Cl)c12

>  <Energy>  (14) 
80.79921289355056

>  <Genealogy>  (14) 
CCOCCOCCNc1c2ccccc2[n+](C)c2cccc(Cl)c12 (3D coordinates assigned)
CCOCCOCCNc1c2ccccc2[n+](C)c2cccc(Cl)c12 (optimized conformer: 80.79921289355056 kcal/mol)

>  <smiles>  (14) 
CCOCCOCCNc1c2ccccc2[n+](C)c2cccc(Cl)c12

>  <score_type>  (14) 
oracle

>  <origin>  (14) 
adg

>  <m_score__min__energy>  (14) 
-6.29

>  <m_primary>  (14) 
energy

$$$$
14:0
     RDKit          3D

 59 61  0  0  0  0  0  0  0  0999 V2000
   59.3610   33.1010   50.4090 C   0  0  0  0  0  0  0  0  0  0  0  0
   60.1010   34.1940   49.6390 C   0  0  0  0  0  0  0  0  0  0  0  0
   61.6140   33.9340   49.5420 C   0  0  0  0  0  0  0  0  0  0  0  0
   61.9690   32.4790   49.2040 C   0  0  0  0  0  0  0  0  0  0  0  0
   62.0300   32.2900   47.7320 N   0  0  0  0  0  0  0  0  0  0  0  0
   63.3710   32.5420   47.1590 C   0  0  0  0  0  0  0  0  0  0  0  0
   63.3980   33.8570   46.3850 C   0  0  0  0  0  0  0  0  0  0  0  0
   61.4640   30.9940   47.2940 C   0  0  0  0  0  0  0  0  0  0  0  0
   60.6280   30.2860   48.3780 C   0  0  0  0  0  0  0  0  0  0  0  0
   59.2000   30.4260   48.0990 N   0  0  0  0  0  0  0  0  0  0  0  0
   58.7350   30.5360   46.7480 C   0  0  0  0  0  0  0  0  0  0  0  0
   58.4450   31.7950   46.2050 C   0  0  0  0  0  0  0  0  0  0  0  0
   58.0040   31.8940   44.8730 C   0  0  0  0  0  0  0  0  0  0  0  0
   57.7260   30.7570   44.1410 N   0  0  0  0  0  0  0  0  0  0  0  0
   56.9990   30.8680   42.8600 C   0  0  0  0  0  0  0  0  0  0  0  0
   58.1170   29.5190   44.6180 C   0  0  0  0  0  0  0  0  0  0  0  0
   58.0630   28.3560   43.8090 C   0  0  0  0  0  0  0  0  0  0  0  0
   58.4220   27.1080   44.3210 C   0  0  0  0  0  0  0  0  0  0  0  0
   58.8490   26.9860   45.6380 C   0  0  0  0  0  0  0  0  0  0  0  0
   58.9450   28.1160   46.4480 C   0  0  0  0  0  0  0  0  0  0  0  0
   58.6040   29.3900   45.9470 C   0  0  0  0  0  0  0  0  0  0  0  0
   57.8340   33.2950   44.3060 C   0  0  0  0  0  0  0  0  0  0  0  0
   58.9810   34.2040   44.7690 C   0  0  0  0  0  0  0  0  0  0  0  0
   59.1800   34.2170   46.3000 C   0  0  0  0  0  0  0  0  0  0  0  0
   58.4940   33.0580   47.0410 C   0  0  0  0  0  0  0  0  0  0  0  0
   59.4764   33.2715   51.4896 H   0  0  0  0  0  0  0  0  0  0  0  0
   58.2932   33.1259   50.1459 H   0  0  0  0  0  0  0  0  0  0  0  0
   59.7807   32.1188   50.1459 H   0  0  0  0  0  0  0  0  0  0  0  0
   59.6876   34.2482   48.6211 H   0  0  0  0  0  0  0  0  0  0  0  0
   59.9614   35.1377   50.1867 H   0  0  0  0  0  0  0  0  0  0  0  0
   62.0286   34.5840   48.7574 H   0  0  0  0  0  0  0  0  0  0  0  0
   62.0414   34.1477   50.5328 H   0  0  0  0  0  0  0  0  0  0  0  0
   62.9478   32.2335   49.6419 H   0  0  0  0  0  0  0  0  0  0  0  0
   61.1936   31.8171   49.6171 H   0  0  0  0  0  0  0  0  0  0  0  0
   64.1073   32.5898   47.9748 H   0  0  0  0  0  0  0  0  0  0  0  0
   63.6151   31.7231   46.4663 H   0  0  0  0  0  0  0  0  0  0  0  0
   63.4153   34.6988   47.0928 H   0  0  0  0  0  0  0  0  0  0  0  0
   64.2970   33.8916   45.7521 H   0  0  0  0  0  0  0  0  0  0  0  0
   62.5011   33.9284   45.7521 H   0  0  0  0  0  0  0  0  0  0  0  0
   60.8199   31.1736   46.4206 H   0  0  0  0  0  0  0  0  0  0  0  0
   62.3129   30.3346   47.0604 H   0  0  0  0  0  0  0  0  0  0  0  0
   60.8898   29.2178   48.3963 H   0  0  0  0  0  0  0  0  0  0  0  0
   60.8461   30.7478   49.3523 H   0  0  0  0  0  0  0  0  0  0  0  0
   58.4930   30.4000   48.8680 H   0  0  0  0  0  0  0  0  0  0  0  0
   55.9294   31.0313   43.0584 H   0  0  0  0  0  0  0  0  0  0  0  0
   57.3986   31.7155   42.2838 H   0  0  0  0  0  0  0  0  0  0  0  0
   57.1275   29.9398   42.2838 H   0  0  0  0  0  0  0  0  0  0  0  0
   57.7334   28.4383   42.7628 H   0  0  0  0  0  0  0  0  0  0  0  0
   58.3667   26.2166   43.6789 H   0  0  0  0  0  0  0  0  0  0  0  0
   59.1114   25.9968   46.0413 H   0  0  0  0  0  0  0  0  0  0  0  0
   59.2898   28.0136   47.4875 H   0  0  0  0  0  0  0  0  0  0  0  0
   57.8337   33.2435   43.2072 H   0  0  0  0  0  0  0  0  0  0  0  0
   56.8817   33.7118   44.6658 H   0  0  0  0  0  0  0  0  0  0  0  0
   59.9127   33.8544   44.3002 H   0  0  0  0  0  0  0  0  0  0  0  0
   58.7209   35.2298   44.4688 H   0  0  0  0  0  0  0  0  0  0  0  0
   60.2592   34.1663   46.5068 H   0  0  0  0  0  0  0  0  0  0  0  0
   58.7149   35.1433   46.6684 H   0  0  0  0  0  0  0  0  0  0  0  0
   59.0514   32.8494   47.9661 H   0  0  0  0  0  0  0  0  0  0  0  0
   57.4589   33.3606   47.2577 H   0  0  0  0  0  0  0  0  0  0  0  0
  1  2  1  0
  2  3  1  0
  3  4  1  0
  4  5  1  0
  5  6  1  0
  6  7  1  0
  5  8  1  0
  8  9  1  0
  9 10  1  0
 10 11  1  0
 11 12  2  0
 12 13  1  0
 13 14  2  0
 14 15  1  0
 14 16  1  0
 16 17  2  0
 17 18  1  0
 18 19  2  0
 19 20  1  0
 20 21  2  0
 13 22  1  0
 22 23  1  0
 23 24  1  0
 24 25  1  0
 21 11  1  0
 25 12  1  0
 21 16  1  0
  1 26  1  0
  1 27  1  0
  1 28  1  0
  2 29  1  0
  2 30  1  0
  3 31  1  0
  3 32  1  0
  4 33  1  0
  4 34  1  0
  6 35  1  0
  6 36  1  0
  7 37  1  0
  7 38  1  0
  7 39  1  0
  8 40  1  0
  8 41  1  0
  9 42  1  0
  9 43  1  0
 10 44  1  0
 15 45  1  0
 15 46  1  0
 15 47  1  0
 17 48  1  0
 18 49  1  0
 19 50  1  0
 20 51  1  0
 22 52  1  0
 22 53  1  0
 23 54  1  0
 23 55  1  0
 24 56  1  0
 24 57  1  0
 25 58  1  0
 25 59  1  0
M  CHG  1  14   1
M  END
>  <UniqueID>  (15) 
15

>  <SMILES>  (15) 
CCCCN(CC)CCNc1c2c([n+](C)c3ccccc13)CCCC2

>  <Energy>  (15) 
80.48780242611333

>  <Genealogy>  (15) 
CCCCN(CC)CCNc1c2c([n+](C)c3ccccc13)CCCC2 (3D coordinates assigned)
CCCCN(CC)CCNc1c2c([n+](C)c3ccccc13)CCCC2 (nonaromatic ring conformer: 80.48780242611333 kcal/mol)

>  <smiles>  (15) 
CCCCN(CC)CCNc1c2c([n+](C)c3ccccc13)CCCC2

>  <score_type>  (15) 
oracle

>  <origin>  (15) 
adg

>  <m_score__min__energy>  (15) 
-6

>  <m_primary>  (15) 
energy

$$$$
16:0
     RDKit          3D

 53 55  0  0  0  0  0  0  0  0999 V2000
   56.9920   30.6780   43.0100 C   0  0  0  0  0  0  0  0  0  0  0  0
   55.9210   30.4960   44.0870 C   0  0  0  0  0  0  0  0  0  0  0  0
   56.4200   29.7520   45.2550 N   0  0  0  0  0  0  0  0  0  0  0  0
   56.9520   28.4180   44.9180 C   0  0  0  0  0  0  0  0  0  0  0  0
   57.7780   27.8200   46.0730 C   0  0  0  0  0  0  0  0  0  0  0  0
   58.9630   28.7130   46.4580 C   0  0  0  0  0  0  0  0  0  0  0  0
   58.5170   29.9750   47.0510 N   0  0  0  0  0  0  0  0  0  0  0  0
   59.4700   30.9790   47.4310 C   0  0  0  0  0  0  0  0  0  0  0  0
   59.4980   32.2030   46.7460 C   0  0  0  0  0  0  0  0  0  0  0  0
   60.4040   33.2150   47.1560 C   0  0  0  0  0  0  0  0  0  0  0  0
   61.3570   32.9430   48.1300 N   0  0  0  0  0  0  0  0  0  0  0  0
   62.4250   33.9390   48.4220 C   0  0  0  0  0  0  0  0  0  0  0  0
   63.6330   33.7190   47.5130 C   0  0  0  0  0  0  0  0  0  0  0  0
   61.3560   31.7190   48.7870 C   0  0  0  0  0  0  0  0  0  0  0  0
   62.3160   31.3890   49.7850 C   0  0  0  0  0  0  0  0  0  0  0  0
   62.2560   30.1800   50.4770 C   0  0  0  0  0  0  0  0  0  0  0  0
   61.2510   29.2650   50.2030 C   0  0  0  0  0  0  0  0  0  0  0  0
   60.3150   29.5380   49.2100 C   0  0  0  0  0  0  0  0  0  0  0  0
   60.3730   30.7420   48.4750 C   0  0  0  0  0  0  0  0  0  0  0  0
   60.3570   34.5840   46.4690 C   0  0  0  0  0  0  0  0  0  0  0  0
   59.1680   34.8050   45.5310 C   0  0  0  0  0  0  0  0  0  0  0  0
   58.9060   33.5660   44.6970 C   0  0  0  0  0  0  0  0  0  0  0  0
   58.5050   32.4230   45.6170 C   0  0  0  0  0  0  0  0  0  0  0  0
   57.9685   30.8439   43.4883 H   0  0  0  0  0  0  0  0  0  0  0  0
   57.0393   29.7750   42.3836 H   0  0  0  0  0  0  0  0  0  0  0  0
   56.7383   31.5459   42.3836 H   0  0  0  0  0  0  0  0  0  0  0  0
   55.5817   31.4883   44.4189 H   0  0  0  0  0  0  0  0  0  0  0  0
   55.0976   29.9149   43.6461 H   0  0  0  0  0  0  0  0  0  0  0  0
   55.6770   29.7060   45.9910 H   0  0  0  0  0  0  0  0  0  0  0  0
   56.1104   27.7450   44.6971 H   0  0  0  0  0  0  0  0  0  0  0  0
   57.6136   28.5253   44.0458 H   0  0  0  0  0  0  0  0  0  0  0  0
   57.1254   27.6992   46.9502 H   0  0  0  0  0  0  0  0  0  0  0  0
   58.1786   26.8523   45.7369 H   0  0  0  0  0  0  0  0  0  0  0  0
   59.5908   28.1786   47.1863 H   0  0  0  0  0  0  0  0  0  0  0  0
   59.5306   28.9439   45.5445 H   0  0  0  0  0  0  0  0  0  0  0  0
   57.5030   30.2310   47.0620 H   0  0  0  0  0  0  0  0  0  0  0  0
   62.0288   34.9518   48.2570 H   0  0  0  0  0  0  0  0  0  0  0  0
   62.7435   33.8190   49.4680 H   0  0  0  0  0  0  0  0  0  0  0  0
   64.5300   33.5556   48.1284 H   0  0  0  0  0  0  0  0  0  0  0  0
   63.4585   32.8379   46.8781 H   0  0  0  0  0  0  0  0  0  0  0  0
   63.7803   34.6051   46.8781 H   0  0  0  0  0  0  0  0  0  0  0  0
   63.1213   32.1021   50.0149 H   0  0  0  0  0  0  0  0  0  0  0  0
   63.0100   29.9509   51.2444 H   0  0  0  0  0  0  0  0  0  0  0  0
   61.1936   28.3241   50.7700 H   0  0  0  0  0  0  0  0  0  0  0  0
   59.5211   28.8075   48.9954 H   0  0  0  0  0  0  0  0  0  0  0  0
   60.3202   35.3559   47.2518 H   0  0  0  0  0  0  0  0  0  0  0  0
   61.2563   34.6385   45.8379 H   0  0  0  0  0  0  0  0  0  0  0  0
   58.2736   35.0334   46.1293 H   0  0  0  0  0  0  0  0  0  0  0  0
   59.4002   35.6426   44.8568 H   0  0  0  0  0  0  0  0  0  0  0  0
   58.0933   33.7672   43.9836 H   0  0  0  0  0  0  0  0  0  0  0  0
   59.8157   33.2935   44.1419 H   0  0  0  0  0  0  0  0  0  0  0  0
   57.5212   32.6508   46.0531 H   0  0  0  0  0  0  0  0  0  0  0  0
   58.4794   31.5039   45.0132 H   0  0  0  0  0  0  0  0  0  0  0  0
  1  2  1  0
  2  3  1  0
  3  4  1  0
  4  5  1  0
  5  6  1  0
  6  7  1  0
  7  8  1  0
  8  9  2  0
  9 10  1  0
 10 11  2  0
 11 12  1  0
 12 13  1  0
 11 14  1  0
 14 15  2  0
 15 16  1  0
 16 17  2  0
 17 18  1  0
 18 19  2  0
 10 20  1  0
 20 21  1  0
 21 22  1  0
 22 23  1  0
 19  8  1  0
 23  9  1  0
 19 14  1  0
  1 24  1  0
  1 25  1  0
  1 26  1  0
  2 27  1  0
  2 28  1  0
  3 29  1  0
  4 30  1  0
  4 31  1  0
  5 32  1  0
  5 33  1  0
  6 34  1  0
  6 35  1  0
  7 36  1  0
 12 37  1  0
 12 38  1  0
 13 39  1  0
 13 40  1  0
 13 41  1  0
 15 42  1  0
 16 43  1  0
 17 44  1  0
 18 45  1  0
 20 46  1  0
 20 47  1  0
 21 48  1  0
 21 49  1  0
 22 50  1  0
 22 51  1  0
 23 52  1  0
 23 53  1  0
M  CHG  1  11   1
M  END
>  <UniqueID>  (16) 
16

>  <SMILES>  (16) 
CCNCCCNc1c2c([n+](CC)c3ccccc13)CCCC2

>  <Energy>  (16) 
70.42964814061088

>  <Genealogy>  (16) 
CCNCCCNc1c2c([n+](CC)c3ccccc13)CCCC2 (3D coordinates assigned)
CCNCCCNc1c2c([n+](CC)c3ccccc13)CCCC2 (nonaromatic ring conformer: 70.42964814061088 kcal/mol)

>  <smiles>  (16) 
CCNCCCNc1c2c([n+](CC)c3ccccc13)CCCC2

>  <score_type>  (16) 
oracle

>  <origin>  (16) 
adg

>  <m_score__min__energy>  (16) 
-6.3600000000000003

>  <m_primary>  (16) 
energy

$$$$
17:0
     RDKit          3D

 70 72  0  0  0  0  0  0  0  0999 V2000
   59.6920   35.5470   46.1350 C   0  0  0  0  0  0  0  0  0  0  0  0
   59.4860   34.6140   47.3310 C   0  0  0  0  0  0  0  0  0  0  0  0
   58.6120   33.4560   47.0410 N   0  0  0  0  0  0  0  0  0  0  0  0
   58.1240   32.7280   48.2400 C   0  0  0  0  0  0  0  0  0  0  0  0
   58.9100   33.0030   49.5320 C   0  0  0  0  0  0  0  0  0  0  0  0
   57.6330   33.6950   45.9580 C   0  0  0  0  0  0  0  0  0  0  0  0
   58.2640   33.4590   44.5860 C   0  0  0  0  0  0  0  0  0  0  0  0
   58.6110   32.0960   44.4730 O   0  0  0  0  0  0  0  0  0  0  0  0
   57.6590   31.4260   43.6730 C   0  0  0  0  0  0  0  0  0  0  0  0
   56.9220   30.4060   44.5330 C   0  0  0  0  0  0  0  0  0  0  0  0
   57.4920   30.3940   45.8310 O   0  0  0  0  0  0  0  0  0  0  0  0
   57.9470   29.1350   46.1330 N   0  0  0  0  0  0  0  0  0  0  0  0
   59.1700   28.8370   45.3840 C   0  0  0  0  0  0  0  0  0  0  0  0
   60.2600   29.8720   45.7060 C   0  0  0  0  0  0  0  0  0  0  0  0
   59.8350   30.8840   46.6950 N   0  0  0  0  0  0  0  0  0  0  0  0
   60.7220   30.9560   47.8500 C   0  0  0  0  0  0  0  0  0  0  0  0
   60.4770   30.1860   49.0200 C   0  0  0  0  0  0  0  0  0  0  0  0
   61.3560   30.2860   50.1200 C   0  0  0  0  0  0  0  0  0  0  0  0
   62.5370   30.9820   50.0130 N   0  0  0  0  0  0  0  0  0  0  0  0
   63.5910   30.7890   51.0320 C   0  0  0  0  0  0  0  0  0  0  0  0
   62.7350   31.8450   48.9560 C   0  0  0  0  0  0  0  0  0  0  0  0
   63.8070   32.7750   48.9600 C   0  0  0  0  0  0  0  0  0  0  0  0
   64.0350   33.6150   47.8750 C   0  0  0  0  0  0  0  0  0  0  0  0
   63.2010   33.5650   46.7690 C   0  0  0  0  0  0  0  0  0  0  0  0
   62.1170   32.6930   46.7490 C   0  0  0  0  0  0  0  0  0  0  0  0
   61.8470   31.8310   47.8420 C   0  0  0  0  0  0  0  0  0  0  0  0
   60.9620   29.5640   51.4040 C   0  0  0  0  0  0  0  0  0  0  0  0
   59.4610   29.7290   51.6900 C   0  0  0  0  0  0  0  0  0  0  0  0
   58.5580   29.4430   50.4690 C   0  0  0  0  0  0  0  0  0  0  0  0
   59.3420   29.1810   49.1760 C   0  0  0  0  0  0  0  0  0  0  0  0
   59.9160   36.5617   46.4958 H   0  0  0  0  0  0  0  0  0  0  0  0
   60.5310   35.1812   45.5249 H   0  0  0  0  0  0  0  0  0  0  0  0
   58.7770   35.5685   45.5249 H   0  0  0  0  0  0  0  0  0  0  0  0
   60.4687   34.2358   47.6492 H   0  0  0  0  0  0  0  0  0  0  0  0
   58.9878   35.2032   48.1150 H   0  0  0  0  0  0  0  0  0  0  0  0
   57.0760   33.0154   48.4105 H   0  0  0  0  0  0  0  0  0  0  0  0
   58.2538   31.6574   48.0234 H   0  0  0  0  0  0  0  0  0  0  0  0
   58.2747   32.7807   50.4020 H   0  0  0  0  0  0  0  0  0  0  0  0
   59.8055   32.3648   49.5593 H   0  0  0  0  0  0  0  0  0  0  0  0
   59.2123   34.0603   49.5593 H   0  0  0  0  0  0  0  0  0  0  0  0
   56.7819   33.0098   46.0850 H   0  0  0  0  0  0  0  0  0  0  0  0
   57.2977   34.7412   46.0138 H   0  0  0  0  0  0  0  0  0  0  0  0
   57.5441   33.7237   43.7976 H   0  0  0  0  0  0  0  0  0  0  0  0
   59.1627   34.0836   44.4757 H   0  0  0  0  0  0  0  0  0  0  0  0
   56.9412   32.1534   43.2660 H   0  0  0  0  0  0  0  0  0  0  0  0
   58.1649   30.9154   42.8403 H   0  0  0  0  0  0  0  0  0  0  0  0
   55.8590   30.6806   44.6002 H   0  0  0  0  0  0  0  0  0  0  0  0
   57.0106   29.4073   44.0805 H   0  0  0  0  0  0  0  0  0  0  0  0
   57.2240   28.3870   46.0000 H   0  0  0  0  0  0  0  0  0  0  0  0
   59.5290   27.8345   45.6599 H   0  0  0  0  0  0  0  0  0  0  0  0
   58.9478   28.8754   44.3074 H   0  0  0  0  0  0  0  0  0  0  0  0
   61.1373   29.3417   46.1049 H   0  0  0  0  0  0  0  0  0  0  0  0
   60.4863   30.4064   44.7716 H   0  0  0  0  0  0  0  0  0  0  0  0
   58.8380   30.7310   46.9450 H   0  0  0  0  0  0  0  0  0  0  0  0
   59.7960   31.8180   46.2290 H   0  0  0  0  0  0  0  0  0  0  0  0
   63.1494   30.8699   52.0362 H   0  0  0  0  0  0  0  0  0  0  0  0
   64.0421   29.7933   50.9089 H   0  0  0  0  0  0  0  0  0  0  0  0
   64.3656   31.5602   50.9089 H   0  0  0  0  0  0  0  0  0  0  0  0
   64.4692   32.8326   49.8365 H   0  0  0  0  0  0  0  0  0  0  0  0
   64.8788   34.3204   47.8947 H   0  0  0  0  0  0  0  0  0  0  0  0
   63.3967   34.2166   45.9046 H   0  0  0  0  0  0  0  0  0  0  0  0
   61.4573   32.6719   45.8690 H   0  0  0  0  0  0  0  0  0  0  0  0
   61.1929   28.4935   51.3002 H   0  0  0  0  0  0  0  0  0  0  0  0
   61.5282   30.0010   52.2398 H   0  0  0  0  0  0  0  0  0  0  0  0
   59.1834   29.0347   52.4968 H   0  0  0  0  0  0  0  0  0  0  0  0
   59.3015   30.7816   51.9667 H   0  0  0  0  0  0  0  0  0  0  0  0
   57.9443   28.5572   50.6897 H   0  0  0  0  0  0  0  0  0  0  0  0
   57.9472   30.3422   50.3005 H   0  0  0  0  0  0  0  0  0  0  0  0
   59.7617   28.1647   49.2080 H   0  0  0  0  0  0  0  0  0  0  0  0
   58.6579   29.2852   48.3209 H   0  0  0  0  0  0  0  0  0  0  0  0
  1  2  1  0
  2  3  1  0
  3  4  1  0
  4  5  1  0
  3  6  1  0
  6  7  1  0
  7  8  1  0
  8  9  1  0
  9 10  1  0
 10 11  1  0
 11 12  1  0
 12 13  1  0
 13 14  1  0
 14 15  1  0
 15 16  1  0
 16 17  2  0
 17 18  1  0
 18 19  2  0
 19 20  1  0
 19 21  1  0
 21 22  2  0
 22 23  1  0
 23 24  2  0
 24 25  1  0
 25 26  2  0
 18 27  1  0
 27 28  1  0
 28 29  1  0
 29 30  1  0
 26 16  1  0
 30 17  1  0
 26 21  1  0
  1 31  1  0
  1 32  1  0
  1 33  1  0
  2 34  1  0
  2 35  1  0
  4 36  1  0
  4 37  1  0
  5 38  1  0
  5 39  1  0
  5 40  1  0
  6 41  1  0
  6 42  1  0
  7 43  1  0
  7 44  1  0
  9 45  1  0
  9 46  1  0
 10 47  1  0
 10 48  1  0
 12 49  1  0
 13 50  1  0
 13 51  1  0
 14 52  1  0
 14 53  1  0
 15 54  1  0
 15 55  1  0
 20 56  1  0
 20 57  1  0
 20 58  1  0
 22 59  1  0
 23 60  1  0
 24 61  1  0
 25 62  1  0
 27 63  1  0
 27 64  1  0
 28 65  1  0
 28 66  1  0
 29 67  1  0
 29 68  1  0
 30 69  1  0
 30 70  1  0
M  CHG  2  15   1  19   1
M  END
>  <UniqueID>  (17) 
17

>  <SMILES>  (17) 
CCN(CC)CCOCCONCC[NH2+]c1c2c([n+](C)c3ccccc13)CCCC2

>  <Energy>  (17) 
105.79319708001537

>  <Genealogy>  (17) 
CCN(CC)CCOCCONCC[NH2+]c1c2c([n+](C)c3ccccc13)CCCC2 (protonated)
CCN(CC)CCOCCONCC[NH2+]c1c2c([n+](C)c3ccccc13)CCCC2 (3D coordinates assigned)
CCN(CC)CCOCCONCC[NH2+]c1c2c([n+](C)c3ccccc13)CCCC2 (nonaromatic ring conformer: 105.79319708001537 kcal/mol)

>  <smiles>  (17) 
CCN(CC)CCOCCONCCNc1c2c([n+](C)c3ccccc13)CCCC2

>  <score_type>  (17) 
oracle

>  <origin>  (17) 
adg

>  <m_score__min__energy>  (17) 
-3.1899999999999999

>  <m_primary>  (17) 
energy

$$$$
18:0
     RDKit          3D

 81 85  0  0  0  0  0  0  0  0999 V2000
   57.0920   28.9830   43.4330 C   0  0  0  0  0  0  0  0  0  0  0  0
   55.8710   29.8310   43.7560 C   0  0  0  0  0  0  0  0  0  0  0  0
   56.2810   31.0390   44.4860 N   0  0  0  0  0  0  0  0  0  0  0  0
   57.4690   31.6390   43.8610 C   0  0  0  0  0  0  0  0  0  0  0  0
   58.4880   32.0550   44.9210 C   0  0  0  0  0  0  0  0  0  0  0  0
   58.0470   31.6540   46.2660 N   0  0  0  0  0  0  0  0  0  0  0  0
   58.9920   31.1070   47.1990 C   0  0  0  0  0  0  0  0  0  0  0  0
   59.1580   29.7160   47.3080 C   0  0  0  0  0  0  0  0  0  0  0  0
   58.5180   28.8310   46.4130 C   0  0  0  0  0  0  0  0  0  0  0  0
   58.6580   27.4530   46.5520 C   0  0  0  0  0  0  0  0  0  0  0  0
   59.4340   26.9380   47.5850 C   0  0  0  0  0  0  0  0  0  0  0  0
   60.0880   27.7940   48.4730 C   0  0  0  0  0  0  0  0  0  0  0  0
   59.9720   29.1990   48.3480 C   0  0  0  0  0  0  0  0  0  0  0  0
   60.6230   30.0580   49.2130 N   0  0  0  0  0  0  0  0  0  0  0  0
   61.0000   29.5560   50.5540 C   0  0  0  0  0  0  0  0  0  0  0  0
   60.7170   31.4070   48.9070 C   0  0  0  0  0  0  0  0  0  0  0  0
   59.7860   31.9620   47.9880 C   0  0  0  0  0  0  0  0  0  0  0  0
   59.6500   33.3580   47.8900 C   0  0  0  0  0  0  0  0  0  0  0  0
   60.4910   34.2070   48.5980 C   0  0  0  0  0  0  0  0  0  0  0  0
   61.5470   33.6870   49.3450 C   0  0  0  0  0  0  0  0  0  0  0  0
   62.4960   34.5650   49.8940 C   0  0  0  0  0  0  0  0  0  0  0  0
   63.6480   34.0670   50.4920 C   0  0  0  0  0  0  0  0  0  0  0  0
   63.8670   32.6910   50.5720 C   0  0  0  0  0  0  0  0  0  0  0  0
   65.0620   32.2360   51.1420 O   0  0  0  0  0  0  0  0  0  0  0  0
   66.3380   32.3260   50.5110 C   0  0  0  0  0  0  0  0  0  0  0  0
   67.0770   30.9660   50.4990 C   0  0  0  0  0  0  0  0  0  0  0  0
   66.8650   30.0290   51.6640 N   0  0  0  0  0  0  0  0  0  0  0  0
   67.0350   30.8540   52.8950 C   0  0  0  0  0  0  0  0  0  0  0  0
   65.4760   29.4830   51.6220 C   0  0  0  0  0  0  0  0  0  0  0  0
   65.1860   28.4100   52.7030 C   0  0  0  0  0  0  0  0  0  0  0  0
   66.1930   27.3140   52.7430 N   0  0  0  0  0  0  0  0  0  0  0  0
   66.0180   26.4050   51.5820 C   0  0  0  0  0  0  0  0  0  0  0  0
   65.9640   26.5170   53.9770 C   0  0  0  0  0  0  0  0  0  0  0  0
   67.5810   27.8630   52.7790 C   0  0  0  0  0  0  0  0  0  0  0  0
   67.8550   28.9110   51.6710 C   0  0  0  0  0  0  0  0  0  0  0  0
   62.9090   31.8080   50.0430 C   0  0  0  0  0  0  0  0  0  0  0  0
   61.7060   32.2820   49.4740 C   0  0  0  0  0  0  0  0  0  0  0  0
   57.5671   28.6530   44.3686 H   0  0  0  0  0  0  0  0  0  0  0  0
   56.7835   28.1037   42.8484 H   0  0  0  0  0  0  0  0  0  0  0  0
   57.8082   29.5791   42.8484 H   0  0  0  0  0  0  0  0  0  0  0  0
   55.3710   30.1221   42.8204 H   0  0  0  0  0  0  0  0  0  0  0  0
   55.1791   29.2472   44.3808 H   0  0  0  0  0  0  0  0  0  0  0  0
   55.4930   31.7290   44.4320 H   0  0  0  0  0  0  0  0  0  0  0  0
   57.9310   30.9042   43.1853 H   0  0  0  0  0  0  0  0  0  0  0  0
   57.1588   32.5329   43.3000 H   0  0  0  0  0  0  0  0  0  0  0  0
   59.4523   31.5737   44.7008 H   0  0  0  0  0  0  0  0  0  0  0  0
   58.5883   33.1502   44.8983 H   0  0  0  0  0  0  0  0  0  0  0  0
   57.0260   31.5330   46.4630 H   0  0  0  0  0  0  0  0  0  0  0  0
   57.9016   29.2352   45.5965 H   0  0  0  0  0  0  0  0  0  0  0  0
   58.1565   26.7736   45.8471 H   0  0  0  0  0  0  0  0  0  0  0  0
   59.5331   25.8489   47.7031 H   0  0  0  0  0  0  0  0  0  0  0  0
   60.7022   27.3705   49.2813 H   0  0  0  0  0  0  0  0  0  0  0  0
   60.5293   30.1827   51.3258 H   0  0  0  0  0  0  0  0  0  0  0  0
   60.6572   28.5168   50.6662 H   0  0  0  0  0  0  0  0  0  0  0  0
   62.0935   29.5955   50.6662 H   0  0  0  0  0  0  0  0  0  0  0  0
   58.8675   33.7833   47.2443 H   0  0  0  0  0  0  0  0  0  0  0  0
   60.3232   35.2937   48.5692 H   0  0  0  0  0  0  0  0  0  0  0  0
   62.3270   35.6511   49.8506 H   0  0  0  0  0  0  0  0  0  0  0  0
   64.3928   34.7630   50.9054 H   0  0  0  0  0  0  0  0  0  0  0  0
   66.1979   32.6631   49.4733 H   0  0  0  0  0  0  0  0  0  0  0  0
   66.9497   33.0397   51.0824 H   0  0  0  0  0  0  0  0  0  0  0  0
   66.7633   30.4323   49.5898 H   0  0  0  0  0  0  0  0  0  0  0  0
   68.1424   31.2340   50.5548 H   0  0  0  0  0  0  0  0  0  0  0  0
   66.9041   30.2185   53.7833 H   0  0  0  0  0  0  0  0  0  0  0  0
   68.0428   31.2947   52.9048 H   0  0  0  0  0  0  0  0  0  0  0  0
   66.2835   31.6572   52.9048 H   0  0  0  0  0  0  0  0  0  0  0  0
   64.7725   30.3165   51.7648 H   0  0  0  0  0  0  0  0  0  0  0  0
   65.3576   28.9905   50.6456 H   0  0  0  0  0  0  0  0  0  0  0  0
   65.1699   28.9030   53.6862 H   0  0  0  0  0  0  0  0  0  0  0  0
   64.2198   27.9500   52.4485 H   0  0  0  0  0  0  0  0  0  0  0  0
   65.8215   25.3843   51.9419 H   0  0  0  0  0  0  0  0  0  0  0  0
   65.1695   26.7485   50.9720 H   0  0  0  0  0  0  0  0  0  0  0  0
   66.9334   26.4089   50.9720 H   0  0  0  0  0  0  0  0  0  0  0  0
   66.1452   27.1478   54.8598 H   0  0  0  0  0  0  0  0  0  0  0  0
   64.9254   26.1548   53.9921 H   0  0  0  0  0  0  0  0  0  0  0  0
   66.6519   25.6588   53.9921 H   0  0  0  0  0  0  0  0  0  0  0  0
   67.7428   28.3390   53.7574 H   0  0  0  0  0  0  0  0  0  0  0  0
   68.2685   27.0215   52.6084 H   0  0  0  0  0  0  0  0  0  0  0  0
   68.8585   29.3330   51.8288 H   0  0  0  0  0  0  0  0  0  0  0  0
   67.7729   28.3943   50.7034 H   0  0  0  0  0  0  0  0  0  0  0  0
   63.1004   30.7252   50.0729 H   0  0  0  0  0  0  0  0  0  0  0  0
  1  2  1  0
  2  3  1  0
  3  4  1  0
  4  5  1  0
  5  6  1  0
  6  7  1  0
  7  8  2  0
  8  9  1  0
  9 10  2  0
 10 11  1  0
 11 12  2  0
 12 13  1  0
 13 14  2  0
 14 15  1  0
 14 16  1  0
 16 17  2  0
 17 18  1  0
 18 19  2  0
 19 20  1  0
 20 21  2  0
 21 22  1  0
 22 23  2  0
 23 24  1  0
 24 25  1  0
 25 26  1  0
 26 27  1  0
 27 28  1  0
 27 29  1  0
 29 30  1  0
 30 31  1  0
 31 32  1  0
 31 33  1  0
 31 34  1  0
 34 35  1  0
 23 36  1  0
 36 37  2  0
 17  7  1  0
 37 20  1  0
 13  8  1  0
 37 16  1  0
 35 27  1  0
  1 38  1  0
  1 39  1  0
  1 40  1  0
  2 41  1  0
  2 42  1  0
  3 43  1  0
  4 44  1  0
  4 45  1  0
  5 46  1  0
  5 47  1  0
  6 48  1  0
  9 49  1  0
 10 50  1  0
 11 51  1  0
 12 52  1  0
 15 53  1  0
 15 54  1  0
 15 55  1  0
 18 56  1  0
 19 57  1  0
 21 58  1  0
 22 59  1  0
 25 60  1  0
 25 61  1  0
 26 62  1  0
 26 63  1  0
 28 64  1  0
 28 65  1  0
 28 66  1  0
 29 67  1  0
 29 68  1  0
 30 69  1  0
 30 70  1  0
 32 71  1  0
 32 72  1  0
 32 73  1  0
 33 74  1  0
 33 75  1  0
 33 76  1  0
 34 77  1  0
 34 78  1  0
 35 79  1  0
 35 80  1  0
 36 81  1  0
M  CHG  3  14   1  27   1  31   1
M  END
>  <UniqueID>  (18) 
18

>  <SMILES>  (18) 
CCNCCNc1c2ccccc2[n+](C)c2c1ccc1ccc(OCC[N+]3(C)CC[N+](C)(C)CC3)cc12

>  <Energy>  (18) 
143.72232739043096

>  <Genealogy>  (18) 
CCNCCNc1c2ccccc2[n+](C)c2c1ccc1ccc(OCC[N+]3(C)CC[N+](C)(C)CC3)cc12 (3D coordinates assigned)
CCNCCNc1c2ccccc2[n+](C)c2c1ccc1ccc(OCC[N+]3(C)CC[N+](C)(C)CC3)cc12 (nonaromatic ring conformer: 143.72232739043096 kcal/mol)

>  <smiles>  (18) 
CCNCCNc1c2ccccc2[n+](C)c2c1ccc1ccc(OCC[N+]3(C)CC[N+](C)(C)CC3)cc12

>  <score_type>  (18) 
oracle

>  <origin>  (18) 
adg

>  <m_score__min__energy>  (18) 
-5.8200000000000003

>  <m_primary>  (18) 
energy

$$$$
19:0
     RDKit          3D

 33 35  0  0  0  0  0  0  0  0999 V2000
   59.8580   29.5480   44.8620 C   0  0  0  0  0  0  0  0  0  0  0  0
   58.4270   29.6710   44.5900 N   0  0  0  0  0  0  0  0  0  0  0  0
   57.5830   30.6950   44.8720 C   0  0  0  0  0  0  0  0  0  0  0  0
   57.9380   31.9710   45.5250 C   0  0  0  0  0  0  0  0  0  0  0  0
   57.7620   33.2600   45.0290 C   0  0  0  0  0  0  0  0  0  0  0  0
   58.1570   34.2590   45.9280 C   0  0  0  0  0  0  0  0  0  0  0  0
   58.6330   33.7690   47.1360 C   0  0  0  0  0  0  0  0  0  0  0  0
   58.5560   32.0910   47.0850 S   0  0  0  0  0  0  0  0  0  0  0  0
   56.3200   30.4090   44.4910 N   0  0  0  0  0  0  0  0  0  0  0  0
   56.3580   29.2050   43.9440 N   0  0  0  0  0  0  0  0  0  0  0  0
   57.6240   28.7630   43.9990 C   0  0  0  0  0  0  0  0  0  0  0  0
   58.1480   27.1660   43.3730 S   0  0  0  0  0  0  0  0  0  0  0  0
   57.6660   26.2850   44.8930 C   0  0  0  0  0  0  0  0  0  0  0  0
   58.5530   26.7170   46.0240 C   0  0  0  0  0  0  0  0  0  0  0  0
   59.8860   26.2770   46.0870 C   0  0  0  0  0  0  0  0  0  0  0  0
   60.7210   26.7080   47.1240 C   0  0  0  0  0  0  0  0  0  0  0  0
   60.2340   27.5870   48.0960 C   0  0  0  0  0  0  0  0  0  0  0  0
   61.0440   28.0050   49.0990 F   0  0  0  0  0  0  0  0  0  0  0  0
   58.9130   28.0400   48.0300 C   0  0  0  0  0  0  0  0  0  0  0  0
   58.0750   27.6120   46.9950 C   0  0  0  0  0  0  0  0  0  0  0  0
   60.0247   29.5337   45.9492 H   0  0  0  0  0  0  0  0  0  0  0  0
   60.2362   28.6140   44.4207 H   0  0  0  0  0  0  0  0  0  0  0  0
   60.3900   30.4037   44.4207 H   0  0  0  0  0  0  0  0  0  0  0  0
   57.3533   33.4728   44.0302 H   0  0  0  0  0  0  0  0  0  0  0  0
   58.0956   35.3329   45.6977 H   0  0  0  0  0  0  0  0  0  0  0  0
   58.9972   34.3735   47.9798 H   0  0  0  0  0  0  0  0  0  0  0  0
   55.5330   28.7030   43.5470 H   0  0  0  0  0  0  0  0  0  0  0  0
   56.6196   26.5204   45.1371 H   0  0  0  0  0  0  0  0  0  0  0  0
   57.7713   25.2011   44.7377 H   0  0  0  0  0  0  0  0  0  0  0  0
   60.2743   25.5918   45.3190 H   0  0  0  0  0  0  0  0  0  0  0  0
   61.7615   26.3548   47.1744 H   0  0  0  0  0  0  0  0  0  0  0  0
   58.5319   28.7343   48.7934 H   0  0  0  0  0  0  0  0  0  0  0  0
   57.0388   27.9774   46.9415 H   0  0  0  0  0  0  0  0  0  0  0  0
  1  2  1  0
  2  3  1  0
  3  4  1  0
  4  5  2  0
  5  6  1  0
  6  7  2  0
  7  8  1  0
  3  9  2  0
  9 10  1  0
 10 11  2  0
 11 12  1  0
 12 13  1  0
 13 14  1  0
 14 15  2  0
 15 16  1  0
 16 17  2  0
 17 18  1  0
 17 19  1  0
 19 20  2  0
 11  2  1  0
 20 14  1  0
  8  4  1  0
  1 21  1  0
  1 22  1  0
  1 23  1  0
  5 24  1  0
  6 25  1  0
  7 26  1  0
 10 27  1  0
 13 28  1  0
 13 29  1  0
 15 30  1  0
 16 31  1  0
 19 32  1  0
 20 33  1  0
M  CHG  1  10   1
M  END
>  <UniqueID>  (19) 
19

>  <SMILES>  (19) 
Cn1c(-c2cccs2)n[nH+]c1SCc1ccc(F)cc1

>  <Energy>  (19) 
94.35877985921655

>  <Genealogy>  (19) 
Cn1c(-c2cccs2)n[nH+]c1SCc1ccc(F)cc1 (protonated)
Cn1c(-c2cccs2)n[nH+]c1SCc1ccc(F)cc1 (3D coordinates assigned)
Cn1c(-c2cccs2)n[nH+]c1SCc1ccc(F)cc1 (optimized conformer: 94.35877985921655 kcal/mol)

>  <smiles>  (19) 
Cn1c(SCc2ccc(F)cc2)nnc1-c1cccs1

>  <score_type>  (19) 
oracle

>  <origin>  (19) 
adg

>  <m_score__min__energy>  (19) 
-5.6399999999999997

>  <m_primary>  (19) 
energy

$$$$
