0:0
     RDKit          3D

 57 60  0  0  0  0  0  0  0  0999 V2000
   63.9670   33.4560   50.0140 C   0  0  0  0  0  0  0  0  0  0  0  0
   63.1180   33.5820   48.7810 C   0  0  0  0  0  0  0  0  0  0  0  0
   63.6930   33.4670   47.5070 C   0  0  0  0  0  0  0  0  0  0  0  0
   62.9050   33.6210   46.3630 C   0  0  0  0  0  0  0  0  0  0  0  0
   61.5410   33.8960   46.4830 C   0  0  0  0  0  0  0  0  0  0  0  0
   60.9520   34.0160   47.7510 C   0  0  0  0  0  0  0  0  0  0  0  0
   59.4900   34.3520   47.8790 C   0  0  0  0  0  0  0  0  0  0  0  0
   58.8570   34.5570   46.4900 C   0  0  0  0  0  0  0  0  0  0  0  0
   58.0290   33.3980   46.0730 N   0  0  0  0  0  0  0  0  0  0  0  0
   58.2930   32.1940   46.9170 C   0  0  0  0  0  0  0  0  0  0  0  0
   59.2220   31.1660   46.2430 C   0  0  0  0  0  0  0  0  0  0  0  0
   58.7520   30.7620   44.8980 N   0  0  0  0  0  0  0  0  0  0  0  0
   58.3720   29.3370   44.7610 C   0  0  0  0  0  0  0  0  0  0  0  0
   58.8190   28.4310   45.9590 C   0  0  2  0  0  0  0  0  0  0  0  0
   60.3390   28.1470   45.8590 C   0  0  0  0  0  0  0  0  0  0  0  0
   60.7740   27.1310   46.9100 C   0  0  0  0  0  0  0  0  0  0  0  0
   60.0440   25.9240   46.7350 O   0  0  0  0  0  0  0  0  0  0  0  0
   58.6770   25.9270   46.4450 C   0  0  0  0  0  0  0  0  0  0  0  0
   57.9610   24.7300   46.5450 C   0  0  0  0  0  0  0  0  0  0  0  0
   56.5840   24.7140   46.3160 C   0  0  0  0  0  0  0  0  0  0  0  0
   55.9160   25.8960   46.0030 C   0  0  0  0  0  0  0  0  0  0  0  0
   56.6240   27.0950   45.8880 C   0  0  0  0  0  0  0  0  0  0  0  0
   58.0250   27.1240   46.0570 C   0  0  0  0  0  0  0  0  0  0  0  0
   57.8250   31.7090   44.2500 C   0  0  0  0  0  0  0  0  0  0  0  0
   58.2060   33.1440   44.6190 C   0  0  0  0  0  0  0  0  0  0  0  0
   61.7500   33.8760   48.8980 C   0  0  0  0  0  0  0  0  0  0  0  0
   63.3323   33.5502   50.9074 H   0  0  0  0  0  0  0  0  0  0  0  0
   64.4633   32.4744   50.0187 H   0  0  0  0  0  0  0  0  0  0  0  0
   64.7270   34.2512   50.0187 H   0  0  0  0  0  0  0  0  0  0  0  0
   64.7678   33.2549   47.4078 H   0  0  0  0  0  0  0  0  0  0  0  0
   63.3600   33.5254   45.3661 H   0  0  0  0  0  0  0  0  0  0  0  0
   60.9257   34.0191   45.5796 H   0  0  0  0  0  0  0  0  0  0  0  0
   58.9735   33.5283   48.3936 H   0  0  0  0  0  0  0  0  0  0  0  0
   59.3895   35.2835   48.4554 H   0  0  0  0  0  0  0  0  0  0  0  0
   58.2209   35.4540   46.5198 H   0  0  0  0  0  0  0  0  0  0  0  0
   59.6730   34.6680   45.7608 H   0  0  0  0  0  0  0  0  0  0  0  0
   57.0200   33.6560   46.2050 H   0  0  0  0  0  0  0  0  0  0  0  0
   58.7604   32.5227   47.8569 H   0  0  0  0  0  0  0  0  0  0  0  0
   57.3262   31.6969   47.0850 H   0  0  0  0  0  0  0  0  0  0  0  0
   60.2244   31.6085   46.1466 H   0  0  0  0  0  0  0  0  0  0  0  0
   59.2322   30.2653   46.8743 H   0  0  0  0  0  0  0  0  0  0  0  0
   57.2768   29.2794   44.6758 H   0  0  0  0  0  0  0  0  0  0  0  0
   58.8915   28.9574   43.8688 H   0  0  0  0  0  0  0  0  0  0  0  0
   58.6042   28.9852   46.8846 H   0  0  0  0  0  0  0  0  0  0  0  0
   60.5659   27.7498   44.8587 H   0  0  0  0  0  0  0  0  0  0  0  0
   60.8839   29.0867   46.0324 H   0  0  0  0  0  0  0  0  0  0  0  0
   61.8495   26.9279   46.8002 H   0  0  0  0  0  0  0  0  0  0  0  0
   60.5771   27.5356   47.9138 H   0  0  0  0  0  0  0  0  0  0  0  0
   58.4844   23.7981   46.8049 H   0  0  0  0  0  0  0  0  0  0  0  0
   56.0263   23.7682   46.3827 H   0  0  0  0  0  0  0  0  0  0  0  0
   54.8273   25.8852   45.8459 H   0  0  0  0  0  0  0  0  0  0  0  0
   56.0837   28.0265   45.6633 H   0  0  0  0  0  0  0  0  0  0  0  0
   57.8814   31.5857   43.1584 H   0  0  0  0  0  0  0  0  0  0  0  0
   56.8001   31.5061   44.5942 H   0  0  0  0  0  0  0  0  0  0  0  0
   59.2595   33.3140   44.3521 H   0  0  0  0  0  0  0  0  0  0  0  0
   57.5465   33.8292   44.0662 H   0  0  0  0  0  0  0  0  0  0  0  0
   61.3005   33.9974   49.8946 H   0  0  0  0  0  0  0  0  0  0  0  0
  1  2  1  0
  2  3  2  0
  3  4  1  0
  4  5  2  0
  5  6  1  0
  6  7  1  0
  7  8  1  0
  8  9  1  0
  9 10  1  0
 10 11  1  0
 11 12  1  0
 12 13  1  0
 13 14  1  0
 14 15  1  0
 15 16  1  0
 16 17  1  0
 17 18  1  0
 18 19  2  0
 19 20  1  0
 20 21  2  0
 21 22  1  0
 22 23  2  0
 12 24  1  0
 24 25  1  0
  6 26  2  0
 26  2  1  0
 25  9  1  0
 23 14  1  0
 23 18  1  0
  1 27  1  0
  1 28  1  0
  1 29  1  0
  3 30  1  0
  4 31  1  0
  5 32  1  0
  7 33  1  0
  7 34  1  0
  8 35  1  0
  8 36  1  0
  9 37  1  0
 10 38  1  0
 10 39  1  0
 11 40  1  0
 11 41  1  0
 13 42  1  0
 13 43  1  0
 14 44  1  1
 15 45  1  0
 15 46  1  0
 16 47  1  0
 16 48  1  0
 19 49  1  0
 20 50  1  0
 21 51  1  0
 22 52  1  0
 24 53  1  0
 24 54  1  0
 25 55  1  0
 25 56  1  0
 26 57  1  0
M  CHG  1   9   1
M  END
>  <UniqueID>  (1) 
1

>  <SMILES>  (1) 
Cc1cccc(CC[NH+]2CCN(C[C@@H]3CCOc4ccccc43)CC2)c1

>  <Energy>  (1) 
79.59978071334615

>  <Genealogy>  (1) 
Cc1cccc(CC[NH+]2CCN(CC3CCOc4ccccc43)CC2)c1 (protonated)
Cc1cccc(CC[NH+]2CCN(C[C@@H]3CCOc4ccccc43)CC2)c1 (chirality)
Cc1cccc(CC[NH+]2CCN(C[C@@H]3CCOc4ccccc43)CC2)c1 (3D coordinates assigned)
Cc1cccc(CC[NH+]2CCN(C[C@@H]3CCOc4ccccc43)CC2)c1 (nonaromatic ring conformer: 79.59978071334615 kcal/mol)

>  <smiles>  (1) 
Cc1cccc(CCN2CCN(CC3CCOc4ccccc43)CC2)c1

>  <score_type>  (1) 
oracle

>  <origin>  (1) 
adg

>  <m_score__min__energy>  (1) 
-7.2599999999999998

>  <m_primary>  (1) 
energy

$$$$
1:0
     RDKit          3D

 34 36  0  0  0  0  0  0  0  0999 V2000
   59.8750   25.5267   46.9868 H   0  0  0  0  0  0  0  0  0  0  0  0
   59.2340   26.3580   46.6580 C   0  0  0  0  0  0  0  0  0  0  0  0
   59.6550   27.6410   46.8120 N   0  0  0  0  0  0  0  0  0  0  0  0
   58.8950   28.6980   46.4170 C   0  0  0  0  0  0  0  0  0  0  0  0
   59.3680   30.0000   46.5960 C   0  0  0  0  0  0  0  0  0  0  0  0
   60.3532   30.1739   47.0534 H   0  0  0  0  0  0  0  0  0  0  0  0
   58.5770   31.0840   46.1880 C   0  0  0  0  0  0  0  0  0  0  0  0
   59.0300   32.4780   46.3660 C   0  0  0  0  0  0  0  0  0  0  0  0
   58.0640   33.8590   46.3130 S   0  0  0  0  0  0  0  0  0  0  0  0
   59.2970   34.9660   46.5900 C   0  0  0  0  0  0  0  0  0  0  0  0
   59.1812   36.0582   46.6514 H   0  0  0  0  0  0  0  0  0  0  0  0
   60.4870   34.2650   46.7280 C   0  0  0  0  0  0  0  0  0  0  0  0
   61.4542   34.7533   46.9178 H   0  0  0  0  0  0  0  0  0  0  0  0
   60.3410   32.8780   46.6030 C   0  0  0  0  0  0  0  0  0  0  0  0
   61.1815   32.1731   46.6843 H   0  0  0  0  0  0  0  0  0  0  0  0
   57.3640   30.8480   45.6210 N   0  0  0  0  0  0  0  0  0  0  0  0
   56.8620   29.5940   45.4330 C   0  0  0  0  0  0  0  0  0  0  0  0
   55.6910   29.4300   44.8880 N   0  0  0  0  0  0  0  0  0  0  0  0
   55.3540   29.7270   43.4950 C   0  0  0  0  0  0  0  0  0  0  0  0
   54.7450   30.6423   43.4601 H   0  0  0  0  0  0  0  0  0  0  0  0
   54.7952   28.8745   43.0816 H   0  0  0  0  0  0  0  0  0  0  0  0
   56.6150   29.9340   42.6550 C   0  0  0  0  0  0  0  0  0  0  0  0
   56.6050   29.2372   41.8039 H   0  0  0  0  0  0  0  0  0  0  0  0
   57.5013   29.7455   43.2787 H   0  0  0  0  0  0  0  0  0  0  0  0
   56.6580   31.2600   42.1740 O   0  0  0  0  0  0  0  0  0  0  0  0
   57.7550   31.9330   42.7480 C   0  0  0  0  0  0  0  0  0  0  0  0
   57.6804   31.8872   43.8445 H   0  0  0  0  0  0  0  0  0  0  0  0
   58.6901   31.4530   42.4238 H   0  0  0  0  0  0  0  0  0  0  0  0
   57.7508   32.9841   42.4238 H   0  0  0  0  0  0  0  0  0  0  0  0
   57.6290   28.4790   45.8300 C   0  0  0  0  0  0  0  0  0  0  0  0
   57.1840   27.1550   45.6680 C   0  0  0  0  0  0  0  0  0  0  0  0
   56.2018   26.9563   45.2144 H   0  0  0  0  0  0  0  0  0  0  0  0
   57.9890   26.0930   46.0830 C   0  0  0  0  0  0  0  0  0  0  0  0
   57.6456   25.0554   45.9582 H   0  0  0  0  0  0  0  0  0  0  0  0
  1  2  1  0
  2  3  2  0
  3  4  1  0
  4  5  1  0
  5  6  1  0
  5  7  2  0
  7  8  1  0
  8  9  1  0
  9 10  1  0
 10 11  1  0
 10 12  2  0
 12 13  1  0
 12 14  1  0
 14 15  1  0
  7 16  1  0
 16 17  1  0
 17 18  2  0
 18 19  1  0
 19 20  1  0
 19 21  1  0
 19 22  1  0
 22 23  1  0
 22 24  1  0
 22 25  1  0
 25 26  1  0
 26 27  1  0
 26 28  1  0
 26 29  1  0
 17 30  1  0
 30 31  1  0
 31 32  1  0
 31 33  2  0
 33 34  1  0
 33  2  1  0
 30  4  2  0
 14  8  2  0
M  CHG  1  16  -1
M  END
>  <UniqueID>  (2) 
2

>  <SMILES>  (2) 
COCC/N=c1\[n-]c(-c2cccs2)cc2ncccc12

>  <Energy>  (2) 
66.15913088851306

>  <Genealogy>  (2) 
COCCN=c1[n-]c(-c2cccs2)cc2ncccc12 (protonated)
COCC/N=c1\[n-]c(-c2cccs2)cc2ncccc12 (cis-trans isomerization)
COCC/N=c1\[n-]c(-c2cccs2)cc2ncccc12 (3D coordinates assigned)
COCC/N=c1\[n-]c(-c2cccs2)cc2ncccc12 (optimized conformer: 66.15913088851306 kcal/mol)

>  <smiles>  (2) 
COCCN=c1[nH]c(-c2cccs2)cc2ncccc12

>  <score_type>  (2) 
oracle

>  <origin>  (2) 
adg

>  <m_score__min__energy>  (2) 
-8.3900000000000006

>  <m_primary>  (2) 
energy

$$$$
2:0
     RDKit          3D

 43 45  0  0  0  0  0  0  0  0999 V2000
   56.4130   29.5190   52.7340 C   0  0  0  0  0  0  0  0  0  0  0  0
   57.0290   30.1510   51.6150 O   0  0  0  0  0  0  0  0  0  0  0  0
   57.6940   31.3850   51.6690 C   0  0  0  0  0  0  0  0  0  0  0  0
   57.4790   32.2060   52.7810 C   0  0  0  0  0  0  0  0  0  0  0  0
   58.1130   33.4480   52.8790 C   0  0  0  0  0  0  0  0  0  0  0  0
   58.9720   33.8780   51.8660 C   0  0  0  0  0  0  0  0  0  0  0  0
   59.2070   33.0640   50.7470 C   0  0  0  0  0  0  0  0  0  0  0  0
   60.1110   33.5330   49.6360 C   0  0  0  0  0  0  0  0  0  0  0  0
   59.5000   33.2620   48.3180 N   0  0  0  0  0  0  0  0  0  0  0  0
   59.2640   34.5200   47.5690 C   0  0  0  0  0  0  0  0  0  0  0  0
   58.9010   34.2530   46.0910 C   0  0  0  0  0  0  0  0  0  0  0  0
   58.5200   32.8420   45.8870 N   0  0  0  0  0  0  0  0  0  0  0  0
   58.0980   32.6130   44.5210 C   0  0  0  0  0  0  0  0  0  0  0  0
   58.4670   33.3960   43.6020 O   0  0  0  0  0  0  0  0  0  0  0  0
   57.2830   31.4340   44.1710 C   0  0  0  0  0  0  0  0  0  0  0  0
   57.0560   30.9570   42.8940 C   0  0  0  0  0  0  0  0  0  0  0  0
   56.2520   29.8490   43.0500 C   0  0  0  0  0  0  0  0  0  0  0  0
   56.0380   29.7170   44.4060 C   0  0  0  0  0  0  0  0  0  0  0  0
   56.6640   30.6760   45.0480 O   0  0  0  0  0  0  0  0  0  0  0  0
   59.6420   31.9370   46.2240 C   0  0  0  0  0  0  0  0  0  0  0  0
   60.3520   32.3520   47.5310 C   0  0  0  0  0  0  0  0  0  0  0  0
   58.5630   31.8200   50.6490 C   0  0  0  0  0  0  0  0  0  0  0  0
   56.8229   29.9395   53.6641 H   0  0  0  0  0  0  0  0  0  0  0  0
   55.3272   29.6917   52.7008 H   0  0  0  0  0  0  0  0  0  0  0  0
   56.6135   28.4379   52.7008 H   0  0  0  0  0  0  0  0  0  0  0  0
   56.8060   31.8718   53.5843 H   0  0  0  0  0  0  0  0  0  0  0  0
   57.9347   34.0877   53.7559 H   0  0  0  0  0  0  0  0  0  0  0  0
   59.4661   34.8576   51.9450 H   0  0  0  0  0  0  0  0  0  0  0  0
   60.2803   34.6149   49.7403 H   0  0  0  0  0  0  0  0  0  0  0  0
   61.0653   32.9900   49.7026 H   0  0  0  0  0  0  0  0  0  0  0  0
   58.4367   35.0670   48.0448 H   0  0  0  0  0  0  0  0  0  0  0  0
   60.1934   35.1081   47.5902 H   0  0  0  0  0  0  0  0  0  0  0  0
   58.0572   34.8984   45.8055 H   0  0  0  0  0  0  0  0  0  0  0  0
   59.7812   34.4720   45.4687 H   0  0  0  0  0  0  0  0  0  0  0  0
   57.7180   32.6320   46.5280 H   0  0  0  0  0  0  0  0  0  0  0  0
   57.4374   31.3745   41.9505 H   0  0  0  0  0  0  0  0  0  0  0  0
   55.8597   29.2001   42.2531 H   0  0  0  0  0  0  0  0  0  0  0  0
   55.4343   28.9279   44.8781 H   0  0  0  0  0  0  0  0  0  0  0  0
   59.2506   30.9158   46.3421 H   0  0  0  0  0  0  0  0  0  0  0  0
   60.3773   31.9913   45.4077 H   0  0  0  0  0  0  0  0  0  0  0  0
   60.5673   31.4527   48.1267 H   0  0  0  0  0  0  0  0  0  0  0  0
   61.2869   32.8728   47.2767 H   0  0  0  0  0  0  0  0  0  0  0  0
   58.7381   31.1814   49.7706 H   0  0  0  0  0  0  0  0  0  0  0  0
  1  2  1  0
  2  3  1  0
  3  4  2  0
  4  5  1  0
  5  6  2  0
  6  7  1  0
  7  8  1  0
  8  9  1  0
  9 10  1  0
 10 11  1  0
 11 12  1  0
 12 13  1  0
 13 14  2  0
 13 15  1  0
 15 16  2  0
 16 17  1  0
 17 18  2  0
 18 19  1  0
 12 20  1  0
 20 21  1  0
  7 22  2  0
 22  3  1  0
 21  9  1  0
 19 15  1  0
  1 23  1  0
  1 24  1  0
  1 25  1  0
  4 26  1  0
  5 27  1  0
  6 28  1  0
  8 29  1  0
  8 30  1  0
 10 31  1  0
 10 32  1  0
 11 33  1  0
 11 34  1  0
 12 35  1  0
 16 36  1  0
 17 37  1  0
 18 38  1  0
 20 39  1  0
 20 40  1  0
 21 41  1  0
 21 42  1  0
 22 43  1  0
M  CHG  1  12   1
M  END
>  <UniqueID>  (3) 
3

>  <SMILES>  (3) 
COc1cccc(CN2CC[NH+](C(=O)c3ccco3)CC2)c1

>  <Energy>  (3) 
78.7409673683013

>  <Genealogy>  (3) 
COc1cccc(CN2CC[NH+](C(=O)c3ccco3)CC2)c1 (protonated)
COc1cccc(CN2CC[NH+](C(=O)c3ccco3)CC2)c1 (3D coordinates assigned)
COc1cccc(CN2CC[NH+](C(=O)c3ccco3)CC2)c1 (nonaromatic ring conformer: 78.7409673683013 kcal/mol)

>  <smiles>  (3) 
COc1cccc(CN2CCN(C(=O)c3ccco3)CC2)c1

>  <score_type>  (3) 
oracle

>  <origin>  (3) 
adg

>  <m_score__min__energy>  (3) 
-5.4900000000000002

>  <m_primary>  (3) 
energy

$$$$
3:0
     RDKit          3D

 32 34  0  0  0  0  0  0  0  0999 V2000
   58.2010   32.6240   42.4240 C   0  0  0  0  0  0  0  0  0  0  0  0
   58.0410   32.5620   43.8760 N   0  0  0  0  0  0  0  0  0  0  0  0
   57.3880   31.6320   44.6260 C   0  0  0  0  0  0  0  0  0  0  0  0
   56.5490   30.2290   43.9720 S   0  0  0  0  0  0  0  0  0  0  0  0
   55.1170   30.2370   44.4290 O   0  0  0  0  0  0  0  0  0  0  0  0
   56.5850   30.2730   42.4700 O   0  0  0  0  0  0  0  0  0  0  0  0
   57.3270   28.7490   44.5290 C   0  0  0  0  0  0  0  0  0  0  0  0
   57.4350   28.4830   45.9010 C   0  0  0  0  0  0  0  0  0  0  0  0
   58.0310   27.2980   46.3420 C   0  0  0  0  0  0  0  0  0  0  0  0
   58.5180   26.3700   45.4150 C   0  0  0  0  0  0  0  0  0  0  0  0
   59.2630   24.8820   45.9680 Cl  0  0  0  0  0  0  0  0  0  0  0  0
   58.4040   26.6300   44.0440 C   0  0  0  0  0  0  0  0  0  0  0  0
   57.8080   27.8140   43.6020 C   0  0  0  0  0  0  0  0  0  0  0  0
   57.4480   31.9000   45.9550 N   0  0  0  0  0  0  0  0  0  0  0  0
   58.1630   33.0340   46.0320 C   0  0  0  0  0  0  0  0  0  0  0  0
   58.5250   33.7500   47.1710 C   0  0  0  0  0  0  0  0  0  0  0  0
   59.2840   34.9210   46.9920 C   0  0  0  0  0  0  0  0  0  0  0  0
   59.6590   35.3410   45.6940 C   0  0  0  0  0  0  0  0  0  0  0  0
   59.2760   34.5930   44.5640 C   0  0  0  0  0  0  0  0  0  0  0  0
   58.5240   33.4370   44.7780 C   0  0  0  0  0  0  0  0  0  0  0  0
   59.2015   33.0117   42.1816 H   0  0  0  0  0  0  0  0  0  0  0  0
   58.0855   31.6160   41.9990 H   0  0  0  0  0  0  0  0  0  0  0  0
   57.4364   33.2909   41.9990 H   0  0  0  0  0  0  0  0  0  0  0  0
   57.0498   29.2086   46.6325 H   0  0  0  0  0  0  0  0  0  0  0  0
   58.1173   27.0947   47.4196 H   0  0  0  0  0  0  0  0  0  0  0  0
   58.7843   25.9008   43.3135 H   0  0  0  0  0  0  0  0  0  0  0  0
   57.7160   28.0128   42.5240 H   0  0  0  0  0  0  0  0  0  0  0  0
   57.0360   31.3540   46.7430 H   0  0  0  0  0  0  0  0  0  0  0  0
   58.2279   33.4117   48.1747 H   0  0  0  0  0  0  0  0  0  0  0  0
   59.5880   35.5141   47.8672 H   0  0  0  0  0  0  0  0  0  0  0  0
   60.2535   36.2577   45.5667 H   0  0  0  0  0  0  0  0  0  0  0  0
   59.5594   34.9086   43.5491 H   0  0  0  0  0  0  0  0  0  0  0  0
  1  2  1  0
  2  3  1  0
  3  4  1  0
  4  5  2  0
  4  6  2  0
  4  7  1  0
  7  8  2  0
  8  9  1  0
  9 10  2  0
 10 11  1  0
 10 12  1  0
 12 13  2  0
  3 14  2  0
 14 15  1  0
 15 16  2  0
 16 17  1  0
 17 18  2  0
 18 19  1  0
 19 20  2  0
 20  2  1  0
 13  7  1  0
 20 15  1  0
  1 21  1  0
  1 22  1  0
  1 23  1  0
  8 24  1  0
  9 25  1  0
 12 26  1  0
 13 27  1  0
 14 28  1  0
 16 29  1  0
 17 30  1  0
 18 31  1  0
 19 32  1  0
M  CHG  1  14   1
M  END
>  <UniqueID>  (4) 
4

>  <SMILES>  (4) 
Cn1c(S(=O)(=O)c2ccc(Cl)cc2)[nH+]c2ccccc21

>  <Energy>  (4) 
75.49008491441411

>  <Genealogy>  (4) 
Cn1c(S(=O)(=O)c2ccc(Cl)cc2)[nH+]c2ccccc21 (protonated)
Cn1c(S(=O)(=O)c2ccc(Cl)cc2)[nH+]c2ccccc21 (3D coordinates assigned)
Cn1c(S(=O)(=O)c2ccc(Cl)cc2)[nH+]c2ccccc21 (optimized conformer: 75.49008491441411 kcal/mol)

>  <smiles>  (4) 
Cn1c(S(=O)(=O)c2ccc(Cl)cc2)nc2ccccc21

>  <score_type>  (4) 
oracle

>  <origin>  (4) 
adg

>  <m_score__min__energy>  (4) 
-6.54

>  <m_primary>  (4) 
energy

$$$$
4:0
     RDKit          3D

 38 40  0  0  0  0  0  0  0  0999 V2000
   59.9660   34.5600   47.7450 C   0  0  0  0  0  0  0  0  0  0  0  0
   59.0080   33.6130   48.1180 C   0  0  0  0  0  0  0  0  0  0  0  0
   58.1060   33.1180   47.1720 C   0  0  0  0  0  0  0  0  0  0  0  0
   58.1630   33.5620   45.8400 C   0  0  0  0  0  0  0  0  0  0  0  0
   57.1660   33.0650   44.8310 C   0  0  0  0  0  0  0  0  0  0  0  0
   57.1530   31.6080   44.8240 N   0  0  0  0  0  0  0  0  0  0  0  0
   58.2180   30.7940   44.9040 C   0  0  0  0  0  0  0  0  0  0  0  0
   57.7130   29.5140   44.9400 C   0  0  0  0  0  0  0  0  0  0  0  0
   58.5010   28.2470   44.9610 C   0  0  0  0  0  0  0  0  0  0  0  0
   57.7220   27.1850   44.3000 N   0  0  0  0  0  0  0  0  0  0  0  0
   57.5590   25.9400   45.0810 C   0  0  1  0  0  0  0  0  0  0  0  0
   58.4950   25.8680   46.2850 C   0  0  0  0  0  0  0  0  0  0  0  0
   57.5760   25.7230   47.4860 C   0  0  0  0  0  0  0  0  0  0  0  0
   56.2950   25.2170   47.0010 N   0  0  0  0  0  0  0  0  0  0  0  0
   56.1470   25.7190   45.6370 C   0  0  0  0  0  0  0  0  0  0  0  0
   56.3680   29.5810   44.8760 N   0  0  0  0  0  0  0  0  0  0  0  0
   56.0550   30.8680   44.8190 N   0  0  0  0  0  0  0  0  0  0  0  0
   59.1170   34.5270   45.4760 C   0  0  0  0  0  0  0  0  0  0  0  0
   60.0180   35.0180   46.4250 C   0  0  0  0  0  0  0  0  0  0  0  0
   60.6786   34.9447   48.4895 H   0  0  0  0  0  0  0  0  0  0  0  0
   58.9639   33.2567   49.1578 H   0  0  0  0  0  0  0  0  0  0  0  0
   57.3488   32.3783   47.4712 H   0  0  0  0  0  0  0  0  0  0  0  0
   56.1648   33.4376   45.0932 H   0  0  0  0  0  0  0  0  0  0  0  0
   57.4483   33.4298   43.8324 H   0  0  0  0  0  0  0  0  0  0  0  0
   59.2771   31.0896   44.9345 H   0  0  0  0  0  0  0  0  0  0  0  0
   59.4507   28.3947   44.4260 H   0  0  0  0  0  0  0  0  0  0  0  0
   58.7129   27.9590   46.0013 H   0  0  0  0  0  0  0  0  0  0  0  0
   56.7720   27.5600   44.0760 H   0  0  0  0  0  0  0  0  0  0  0  0
   57.7945   25.1639   44.3379 H   0  0  0  0  0  0  0  0  0  0  0  0
   59.1649   24.9994   46.2031 H   0  0  0  0  0  0  0  0  0  0  0  0
   59.1401   26.7556   46.3618 H   0  0  0  0  0  0  0  0  0  0  0  0
   58.0102   25.0154   48.2077 H   0  0  0  0  0  0  0  0  0  0  0  0
   57.4435   26.6911   47.9911 H   0  0  0  0  0  0  0  0  0  0  0  0
   55.5240   25.6010   47.5980 H   0  0  0  0  0  0  0  0  0  0  0  0
   55.6098   24.9832   45.0205 H   0  0  0  0  0  0  0  0  0  0  0  0
   55.5711   26.6561   45.6255 H   0  0  0  0  0  0  0  0  0  0  0  0
   59.1550   34.8973   44.4409 H   0  0  0  0  0  0  0  0  0  0  0  0
   60.7695   35.7662   46.1328 H   0  0  0  0  0  0  0  0  0  0  0  0
  1  2  2  0
  2  3  1  0
  3  4  2  0
  4  5  1  0
  5  6  1  0
  6  7  1  0
  7  8  2  0
  8  9  1  0
  9 10  1  0
 10 11  1  0
 11 12  1  0
 12 13  1  0
 13 14  1  0
 14 15  1  0
  8 16  1  0
 16 17  2  0
  4 18  1  0
 18 19  2  0
 19  1  1  0
 17  6  1  0
 15 11  1  0
  1 20  1  0
  2 21  1  0
  3 22  1  0
  5 23  1  0
  5 24  1  0
  7 25  1  0
  9 26  1  0
  9 27  1  0
 10 28  1  0
 11 29  1  6
 12 30  1  0
 12 31  1  0
 13 32  1  0
 13 33  1  0
 14 34  1  0
 15 35  1  0
 15 36  1  0
 18 37  1  0
 19 38  1  0
M  END
>  <UniqueID>  (5) 
5

>  <SMILES>  (5) 
c1ccc(Cn2cc(CN[C@H]3CCNC3)nn2)cc1

>  <Energy>  (5) 
76.27113820620892

>  <Genealogy>  (5) 
c1ccc(Cn2cc(CN[C@H]3CCNC3)nn2)cc1 (chirality)
c1ccc(Cn2cc(CN[C@H]3CCNC3)nn2)cc1 (3D coordinates assigned)
c1ccc(Cn2cc(CN[C@H]3CCNC3)nn2)cc1 (nonaromatic ring conformer: 76.27113820620892 kcal/mol)

>  <smiles>  (5) 
c1ccc(Cn2cc(CNC3CCNC3)nn2)cc1

>  <score_type>  (5) 
oracle

>  <origin>  (5) 
adg

>  <m_score__min__energy>  (5) 
-7.9400000000000004

>  <m_primary>  (5) 
energy

$$$$
5:0
     RDKit          3D

 69 73  0  0  0  0  0  0  0  0999 V2000
   56.0520   21.7440   44.8810 C   0  0  0  0  0  0  0  0  0  0  0  0
   56.1820   21.8450   43.4190 N   0  0  0  0  0  0  0  0  0  0  0  0
   57.4190   21.1680   42.9900 C   0  0  0  0  0  0  0  0  0  0  0  0
   56.1840   23.2660   43.0090 C   0  0  0  0  0  0  0  0  0  0  0  0
   56.2760   24.1910   44.2290 C   0  0  0  0  0  0  0  0  0  0  0  0
   57.6370   24.5240   44.5020 O   0  0  0  0  0  0  0  0  0  0  0  0
   58.0730   25.5750   45.3250 C   0  0  0  0  0  0  0  0  0  0  0  0
   59.3380   25.4710   45.9140 C   0  0  0  0  0  0  0  0  0  0  0  0
   59.8200   26.4810   46.7490 C   0  0  0  0  0  0  0  0  0  0  0  0
   59.0370   27.6150   47.0170 C   0  0  0  0  0  0  0  0  0  0  0  0
   59.5430   28.6740   47.9260 C   0  0  0  0  0  0  0  0  0  0  0  0
   60.1350   28.3110   49.1350 C   0  0  0  0  0  0  0  0  0  0  0  0
   60.5930   29.2770   50.0230 C   0  0  0  0  0  0  0  0  0  0  0  0
   60.4820   30.6610   49.7400 C   0  0  0  0  0  0  0  0  0  0  0  0
   60.9360   31.6750   50.6890 N   0  0  0  0  0  0  0  0  0  0  0  0
   62.2800   31.5180   51.2860 C   0  0  0  0  0  0  0  0  0  0  0  0
   63.4060   32.0360   50.3660 C   0  0  0  0  0  0  0  0  0  0  0  0
   62.8610   32.5830   49.1060 N   0  0  0  0  0  0  0  0  0  0  0  0
   63.3830   31.8650   47.9420 C   0  0  0  0  0  0  0  0  0  0  0  0
   63.3030   32.8250   46.7720 C   0  0  0  0  0  0  0  0  0  0  0  0
   63.4230   34.2020   47.3960 C   0  0  0  0  0  0  0  0  0  0  0  0
   63.2070   33.9980   48.8920 C   0  0  0  0  0  0  0  0  0  0  0  0
   59.8630   31.0470   48.4990 C   0  0  0  0  0  0  0  0  0  0  0  0
   59.6570   32.3990   48.0980 C   0  0  0  0  0  0  0  0  0  0  0  0
   60.0220   33.3620   48.8230 O   0  0  0  0  0  0  0  0  0  0  0  0
   59.0290   32.6800   46.8720 C   0  0  0  0  0  0  0  0  0  0  0  0
   58.8050   33.9990   46.4280 C   0  0  0  0  0  0  0  0  0  0  0  0
   58.1750   34.2310   45.2020 C   0  0  0  0  0  0  0  0  0  0  0  0
   57.7630   33.1570   44.4100 C   0  0  0  0  0  0  0  0  0  0  0  0
   57.9810   31.8460   44.8410 C   0  0  0  0  0  0  0  0  0  0  0  0
   58.6100   31.6050   46.0680 C   0  0  0  0  0  0  0  0  0  0  0  0
   58.8060   30.3580   46.4620 O   0  0  0  0  0  0  0  0  0  0  0  0
   59.4010   30.0350   47.6070 C   0  0  0  0  0  0  0  0  0  0  0  0
   57.7710   27.7280   46.4200 C   0  0  0  0  0  0  0  0  0  0  0  0
   57.2880   26.7150   45.5850 C   0  0  0  0  0  0  0  0  0  0  0  0
   56.8334   22.3511   45.3614 H   0  0  0  0  0  0  0  0  0  0  0  0
   55.0617   22.1119   45.1873 H   0  0  0  0  0  0  0  0  0  0  0  0
   56.1637   20.6934   45.1873 H   0  0  0  0  0  0  0  0  0  0  0  0
   57.9915   20.8547   43.8755 H   0  0  0  0  0  0  0  0  0  0  0  0
   57.1631   20.2842   42.3872 H   0  0  0  0  0  0  0  0  0  0  0  0
   58.0255   21.8599   42.3872 H   0  0  0  0  0  0  0  0  0  0  0  0
   57.0474   23.4496   42.3527 H   0  0  0  0  0  0  0  0  0  0  0  0
   55.2440   23.4786   42.4786 H   0  0  0  0  0  0  0  0  0  0  0  0
   55.7110   25.1131   44.0277 H   0  0  0  0  0  0  0  0  0  0  0  0
   55.8547   23.6714   45.1022 H   0  0  0  0  0  0  0  0  0  0  0  0
   59.9590   24.5846   45.7172 H   0  0  0  0  0  0  0  0  0  0  0  0
   60.8192   26.3876   47.1995 H   0  0  0  0  0  0  0  0  0  0  0  0
   60.2409   27.2461   49.3893 H   0  0  0  0  0  0  0  0  0  0  0  0
   61.0536   28.9590   50.9700 H   0  0  0  0  0  0  0  0  0  0  0  0
   60.9060   32.6110   50.2210 H   0  0  0  0  0  0  0  0  0  0  0  0
   60.2610   31.6750   51.4870 H   0  0  0  0  0  0  0  0  0  0  0  0
   62.3125   32.0790   52.2317 H   0  0  0  0  0  0  0  0  0  0  0  0
   62.4492   30.4427   51.4442 H   0  0  0  0  0  0  0  0  0  0  0  0
   63.9610   32.8281   50.8900 H   0  0  0  0  0  0  0  0  0  0  0  0
   64.0690   31.1933   50.1206 H   0  0  0  0  0  0  0  0  0  0  0  0
   64.4269   31.5656   48.1171 H   0  0  0  0  0  0  0  0  0  0  0  0
   62.8037   30.9506   47.7463 H   0  0  0  0  0  0  0  0  0  0  0  0
   64.1272   32.6458   46.0659 H   0  0  0  0  0  0  0  0  0  0  0  0
   62.3713   32.7070   46.1994 H   0  0  0  0  0  0  0  0  0  0  0  0
   64.4214   34.6231   47.2066 H   0  0  0  0  0  0  0  0  0  0  0  0
   62.6904   34.9047   46.9723 H   0  0  0  0  0  0  0  0  0  0  0  0
   64.1278   34.2455   49.4406 H   0  0  0  0  0  0  0  0  0  0  0  0
   62.4007   34.6510   49.2572 H   0  0  0  0  0  0  0  0  0  0  0  0
   59.1270   34.8484   47.0483 H   0  0  0  0  0  0  0  0  0  0  0  0
   58.0032   35.2623   44.8601 H   0  0  0  0  0  0  0  0  0  0  0  0
   57.2666   33.3434   43.4463 H   0  0  0  0  0  0  0  0  0  0  0  0
   57.6576   31.0014   44.2148 H   0  0  0  0  0  0  0  0  0  0  0  0
   57.1549   28.6192   46.6103 H   0  0  0  0  0  0  0  0  0  0  0  0
   56.2911   26.8092   45.1297 H   0  0  0  0  0  0  0  0  0  0  0  0
  1  2  1  0
  2  3  1  0
  2  4  1  0
  4  5  1  0
  5  6  1  0
  6  7  1  0
  7  8  2  0
  8  9  1  0
  9 10  2  0
 10 11  1  0
 11 12  2  0
 12 13  1  0
 13 14  2  0
 14 15  1  0
 15 16  1  0
 16 17  1  0
 17 18  1  0
 18 19  1  0
 19 20  1  0
 20 21  1  0
 21 22  1  0
 14 23  1  0
 23 24  1  0
 24 25  2  0
 24 26  1  0
 26 27  2  0
 27 28  1  0
 28 29  2  0
 29 30  1  0
 30 31  2  0
 31 32  1  0
 32 33  1  0
 10 34  1  0
 34 35  2  0
 35  7  1  0
 33 11  1  0
 22 18  1  0
 33 23  2  0
 31 26  1  0
  1 36  1  0
  1 37  1  0
  1 38  1  0
  3 39  1  0
  3 40  1  0
  3 41  1  0
  4 42  1  0
  4 43  1  0
  5 44  1  0
  5 45  1  0
  8 46  1  0
  9 47  1  0
 12 48  1  0
 13 49  1  0
 15 50  1  0
 15 51  1  0
 16 52  1  0
 16 53  1  0
 17 54  1  0
 17 55  1  0
 19 56  1  0
 19 57  1  0
 20 58  1  0
 20 59  1  0
 21 60  1  0
 21 61  1  0
 22 62  1  0
 22 63  1  0
 27 64  1  0
 28 65  1  0
 29 66  1  0
 30 67  1  0
 34 68  1  0
 35 69  1  0
M  CHG  1  15   1
M  END
>  <UniqueID>  (6) 
6

>  <SMILES>  (6) 
CN(C)CCOc1ccc(-c2ccc([NH2+]CCN3CCCC3)c3c(=O)c4ccccc4oc23)cc1

>  <Energy>  (6) 
103.61753508562349

>  <Genealogy>  (6) 
CN(C)CCOc1ccc(-c2ccc([NH2+]CCN3CCCC3)c3c(=O)c4ccccc4oc23)cc1 (protonated)
CN(C)CCOc1ccc(-c2ccc([NH2+]CCN3CCCC3)c3c(=O)c4ccccc4oc23)cc1 (3D coordinates assigned)
CN(C)CCOc1ccc(-c2ccc([NH2+]CCN3CCCC3)c3c(=O)c4ccccc4oc23)cc1 (nonaromatic ring conformer: 103.61753508562349 kcal/mol)

>  <smiles>  (6) 
CN(C)CCOc1ccc(-c2ccc(NCCN3CCCC3)c3c(=O)c4ccccc4oc23)cc1

>  <score_type>  (6) 
oracle

>  <origin>  (6) 
adg

>  <m_score__min__energy>  (6) 
-7.2300000000000004

>  <m_primary>  (6) 
energy

$$$$
6:0
     RDKit          3D

 59 62  0  0  0  0  0  0  0  0999 V2000
   56.6480   30.7630   43.5280 C   0  0  0  0  0  0  0  0  0  0  0  0
   56.7190   31.2360   44.8690 O   0  0  0  0  0  0  0  0  0  0  0  0
   57.6860   32.1350   45.3490 C   0  0  0  0  0  0  0  0  0  0  0  0
   57.4980   33.5310   45.2960 C   0  0  0  0  0  0  0  0  0  0  0  0
   58.4830   34.3950   45.7790 C   0  0  0  0  0  0  0  0  0  0  0  0
   59.6640   33.8830   46.3170 C   0  0  0  0  0  0  0  0  0  0  0  0
   59.8610   32.5040   46.3770 C   0  0  0  0  0  0  0  0  0  0  0  0
   58.8740   31.6230   45.9070 C   0  0  0  0  0  0  0  0  0  0  0  0
   59.1050   30.1640   45.9760 C   0  0  0  0  0  0  0  0  0  0  0  0
   59.2430   29.4550   44.7720 C   0  0  0  0  0  0  0  0  0  0  0  0
   59.4830   28.0810   44.7790 C   0  0  0  0  0  0  0  0  0  0  0  0
   59.5870   27.3930   45.9900 C   0  0  0  0  0  0  0  0  0  0  0  0
   59.8310   25.9750   45.9950 C   0  0  0  0  0  0  0  0  0  0  0  0
   60.0260   24.8340   46.0000 N   0  0  0  0  0  0  0  0  0  0  0  0
   59.4490   28.0840   47.1980 C   0  0  0  0  0  0  0  0  0  0  0  0
   59.2030   29.4700   47.2110 C   0  0  0  0  0  0  0  0  0  0  0  0
   58.9820   30.1470   48.5540 C   0  0  0  0  0  0  0  0  0  0  0  0
   60.2570   30.5600   49.1870 N   0  0  0  0  0  0  0  0  0  0  0  0
   60.0450   31.7880   49.9820 C   0  0  0  0  0  0  0  0  0  0  0  0
   61.3710   32.3320   50.5490 C   0  0  0  0  0  0  0  0  0  0  0  0
   62.4190   31.3080   50.5230 N   0  0  0  0  0  0  0  0  0  0  0  0
   63.7990   31.7130   50.5510 C   0  0  0  0  0  0  0  0  0  0  0  0
   64.6840   31.1170   51.4630 C   0  0  0  0  0  0  0  0  0  0  0  0
   66.0230   31.5080   51.5060 C   0  0  0  0  0  0  0  0  0  0  0  0
   66.4900   32.4940   50.6380 C   0  0  0  0  0  0  0  0  0  0  0  0
   65.6210   33.0890   49.7190 C   0  0  0  0  0  0  0  0  0  0  0  0
   64.2690   32.6980   49.6620 C   0  0  0  0  0  0  0  0  0  0  0  0
   63.3740   33.2530   48.7330 O   0  0  0  0  0  0  0  0  0  0  0  0
   63.4630   33.0800   47.3240 C   0  0  0  0  0  0  0  0  0  0  0  0
   62.0650   29.9180   50.8180 C   0  0  0  0  0  0  0  0  0  0  0  0
   60.7940   29.4840   50.0570 C   0  0  0  0  0  0  0  0  0  0  0  0
   56.4847   29.6752   43.5311 H   0  0  0  0  0  0  0  0  0  0  0  0
   55.8140   31.2575   43.0084 H   0  0  0  0  0  0  0  0  0  0  0  0
   57.5904   30.9909   43.0084 H   0  0  0  0  0  0  0  0  0  0  0  0
   56.5701   33.9421   44.8718 H   0  0  0  0  0  0  0  0  0  0  0  0
   58.3272   35.4830   45.7351 H   0  0  0  0  0  0  0  0  0  0  0  0
   60.4391   34.5667   46.6935 H   0  0  0  0  0  0  0  0  0  0  0  0
   60.7962   32.1035   46.7955 H   0  0  0  0  0  0  0  0  0  0  0  0
   59.1610   29.9885   43.8135 H   0  0  0  0  0  0  0  0  0  0  0  0
   59.5906   27.5380   43.8285 H   0  0  0  0  0  0  0  0  0  0  0  0
   59.5337   27.5381   48.1492 H   0  0  0  0  0  0  0  0  0  0  0  0
   58.3559   31.0387   48.4029 H   0  0  0  0  0  0  0  0  0  0  0  0
   58.4915   29.4232   49.2214 H   0  0  0  0  0  0  0  0  0  0  0  0
   60.9540   30.7690   48.4300 H   0  0  0  0  0  0  0  0  0  0  0  0
   59.5900   32.5557   49.3388 H   0  0  0  0  0  0  0  0  0  0  0  0
   59.3846   31.5417   50.8266 H   0  0  0  0  0  0  0  0  0  0  0  0
   61.6943   33.1915   49.9434 H   0  0  0  0  0  0  0  0  0  0  0  0
   61.2050   32.6337   51.5937 H   0  0  0  0  0  0  0  0  0  0  0  0
   64.3200   30.3370   52.1479 H   0  0  0  0  0  0  0  0  0  0  0  0
   66.7102   31.0381   52.2250 H   0  0  0  0  0  0  0  0  0  0  0  0
   67.5446   32.8044   50.6765 H   0  0  0  0  0  0  0  0  0  0  0  0
   65.9949   33.8666   49.0367 H   0  0  0  0  0  0  0  0  0  0  0  0
   63.9559   32.1219   47.1026 H   0  0  0  0  0  0  0  0  0  0  0  0
   62.4523   33.0813   46.8899 H   0  0  0  0  0  0  0  0  0  0  0  0
   64.0496   33.9031   46.8899 H   0  0  0  0  0  0  0  0  0  0  0  0
   62.8996   29.2659   50.5210 H   0  0  0  0  0  0  0  0  0  0  0  0
   61.8669   29.8339   51.8967 H   0  0  0  0  0  0  0  0  0  0  0  0
   61.0378   28.6130   49.4310 H   0  0  0  0  0  0  0  0  0  0  0  0
   60.0234   29.2424   50.8039 H   0  0  0  0  0  0  0  0  0  0  0  0
  1  2  1  0
  2  3  1  0
  3  4  2  0
  4  5  1  0
  5  6  2  0
  6  7  1  0
  7  8  2  0
  8  9  1  0
  9 10  2  0
 10 11  1  0
 11 12  2  0
 12 13  1  0
 13 14  3  0
 12 15  1  0
 15 16  2  0
 16 17  1  0
 17 18  1  0
 18 19  1  0
 19 20  1  0
 20 21  1  0
 21 22  1  0
 22 23  2  0
 23 24  1  0
 24 25  2  0
 25 26  1  0
 26 27  2  0
 27 28  1  0
 28 29  1  0
 21 30  1  0
 30 31  1  0
  8  3  1  0
 16  9  1  0
 31 18  1  0
 27 22  1  0
  1 32  1  0
  1 33  1  0
  1 34  1  0
  4 35  1  0
  5 36  1  0
  6 37  1  0
  7 38  1  0
 10 39  1  0
 11 40  1  0
 15 41  1  0
 17 42  1  0
 17 43  1  0
 18 44  1  0
 19 45  1  0
 19 46  1  0
 20 47  1  0
 20 48  1  0
 23 49  1  0
 24 50  1  0
 25 51  1  0
 26 52  1  0
 29 53  1  0
 29 54  1  0
 29 55  1  0
 30 56  1  0
 30 57  1  0
 31 58  1  0
 31 59  1  0
M  CHG  1  18   1
M  END
>  <UniqueID>  (7) 
7

>  <SMILES>  (7) 
COc1ccccc1-c1ccc(C#N)cc1C[NH+]1CCN(c2ccccc2OC)CC1

>  <Energy>  (7) 
79.90368409029945

>  <Genealogy>  (7) 
COc1ccccc1-c1ccc(C#N)cc1C[NH+]1CCN(c2ccccc2OC)CC1 (protonated)
COc1ccccc1-c1ccc(C#N)cc1C[NH+]1CCN(c2ccccc2OC)CC1 (3D coordinates assigned)
COc1ccccc1-c1ccc(C#N)cc1C[NH+]1CCN(c2ccccc2OC)CC1 (nonaromatic ring conformer: 79.90368409029945 kcal/mol)

>  <smiles>  (7) 
COc1ccccc1-c1ccc(C#N)cc1CN1CCN(c2ccccc2OC)CC1

>  <score_type>  (7) 
oracle

>  <origin>  (7) 
adg

>  <m_score__min__energy>  (7) 
-6.4199999999999999

>  <m_primary>  (7) 
energy

$$$$
7:0
     RDKit          3D

 34 36  0  0  0  0  0  0  0  0999 V2000
   58.0250   32.3580   41.6720 C   0  0  0  0  0  0  0  0  0  0  0  0
   57.6920   31.9090   43.0710 C   0  0  0  0  0  0  0  0  0  0  0  0
   56.9390   30.7400   43.2560 C   0  0  0  0  0  0  0  0  0  0  0  0
   56.6290   30.3210   44.5510 C   0  0  0  0  0  0  0  0  0  0  0  0
   55.9530   29.2730   44.7260 O   0  0  0  0  0  0  0  0  0  0  0  0
   57.0410   31.0190   45.6020 O   0  0  0  0  0  0  0  0  0  0  0  0
   57.7580   32.1330   45.4880 C   0  0  0  0  0  0  0  0  0  0  0  0
   58.1560   32.8140   46.6430 C   0  0  0  0  0  0  0  0  0  0  0  0
   58.9140   33.9860   46.5560 C   0  0  0  0  0  0  0  0  0  0  0  0
   59.2900   34.6200   47.7510 O   0  0  0  0  0  0  0  0  0  0  0  0
   60.0040   34.0040   48.8240 C   0  0  0  0  0  0  0  0  0  0  0  0
   61.4370   33.7510   48.4370 C   0  0  0  0  0  0  0  0  0  0  0  0
   61.8280   33.8360   47.0910 C   0  0  0  0  0  0  0  0  0  0  0  0
   63.1550   33.5970   46.7260 C   0  0  0  0  0  0  0  0  0  0  0  0
   64.1010   33.2640   47.7000 C   0  0  0  0  0  0  0  0  0  0  0  0
   63.7180   33.1640   49.0420 C   0  0  0  0  0  0  0  0  0  0  0  0
   65.0090   32.7050   50.3720 Br  0  0  0  0  0  0  0  0  0  0  0  0
   62.3900   33.4030   49.4100 C   0  0  0  0  0  0  0  0  0  0  0  0
   59.2660   34.4840   45.2880 C   0  0  0  0  0  0  0  0  0  0  0  0
   58.8730   33.8130   44.1270 C   0  0  0  0  0  0  0  0  0  0  0  0
   58.1160   32.6290   44.2110 C   0  0  0  0  0  0  0  0  0  0  0  0
   58.6797   33.2408   41.7163 H   0  0  0  0  0  0  0  0  0  0  0  0
   58.5406   31.5455   41.1391 H   0  0  0  0  0  0  0  0  0  0  0  0
   57.0978   32.6155   41.1391 H   0  0  0  0  0  0  0  0  0  0  0  0
   56.5956   30.1583   42.3878 H   0  0  0  0  0  0  0  0  0  0  0  0
   57.8696   32.4234   47.6307 H   0  0  0  0  0  0  0  0  0  0  0  0
   59.9791   34.6670   49.7014 H   0  0  0  0  0  0  0  0  0  0  0  0
   59.5267   33.0410   49.0582 H   0  0  0  0  0  0  0  0  0  0  0  0
   61.0859   34.0920   46.3205 H   0  0  0  0  0  0  0  0  0  0  0  0
   63.4561   33.6709   45.6706 H   0  0  0  0  0  0  0  0  0  0  0  0
   65.1465   33.0806   47.4113 H   0  0  0  0  0  0  0  0  0  0  0  0
   62.0901   33.3183   50.4649 H   0  0  0  0  0  0  0  0  0  0  0  0
   59.8556   35.4094   45.2100 H   0  0  0  0  0  0  0  0  0  0  0  0
   59.1567   34.2121   43.1420 H   0  0  0  0  0  0  0  0  0  0  0  0
  1  2  1  0
  2  3  2  0
  3  4  1  0
  4  5  2  0
  4  6  1  0
  6  7  1  0
  7  8  2  0
  8  9  1  0
  9 10  1  0
 10 11  1  0
 11 12  1  0
 12 13  2  0
 13 14  1  0
 14 15  2  0
 15 16  1  0
 16 17  1  0
 16 18  2  0
  9 19  2  0
 19 20  1  0
 20 21  2  0
 21  2  1  0
 21  7  1  0
 18 12  1  0
  1 22  1  0
  1 23  1  0
  1 24  1  0
  3 25  1  0
  8 26  1  0
 11 27  1  0
 11 28  1  0
 13 29  1  0
 14 30  1  0
 15 31  1  0
 18 32  1  0
 19 33  1  0
 20 34  1  0
M  END
>  <UniqueID>  (8) 
8

>  <SMILES>  (8) 
Cc1cc(=O)oc2cc(OCc3cccc(Br)c3)ccc12

>  <Energy>  (8) 
41.495725538513796

>  <Genealogy>  (8) 
Cc1cc(=O)oc2cc(OCc3cccc(Br)c3)ccc12 (3D coordinates assigned)
Cc1cc(=O)oc2cc(OCc3cccc(Br)c3)ccc12 (optimized conformer: 41.495725538513796 kcal/mol)

>  <smiles>  (8) 
Cc1cc(=O)oc2cc(OCc3cccc(Br)c3)ccc12

>  <score_type>  (8) 
oracle

>  <origin>  (8) 
adg

>  <m_score__min__energy>  (8) 
-9

>  <m_primary>  (8) 
energy

$$$$
8:0
     RDKit          3D

 45 48  0  0  0  0  0  0  0  0999 V2000
   57.9610   34.0890   44.8390 C   0  0  0  0  0  0  0  0  0  0  0  0
   59.0040   35.0180   44.9110 C   0  0  0  0  0  0  0  0  0  0  0  0
   59.7590   35.1370   46.0820 C   0  0  0  0  0  0  0  0  0  0  0  0
   59.4720   34.3260   47.1860 C   0  0  0  0  0  0  0  0  0  0  0  0
   60.2020   34.4400   48.3260 N   0  0  0  0  0  0  0  0  0  0  0  0
   59.9590   33.6720   49.4240 C   0  0  0  0  0  0  0  0  0  0  0  0
   60.7210   33.8480   50.5850 O   0  0  0  0  0  0  0  0  0  0  0  0
   62.0810   33.4400   50.6880 C   0  0  0  0  0  0  0  0  0  0  0  0
   62.2150   32.0030   50.1580 C   0  0  0  0  0  0  0  0  0  0  0  0
   63.1200   31.8570   48.9930 N   0  0  0  0  0  0  0  0  0  0  0  0
   64.1210   32.9260   48.8820 C   0  0  0  0  0  0  0  0  0  0  0  0
   63.6980   33.8540   47.7530 C   0  0  0  0  0  0  0  0  0  0  0  0
   62.6220   33.1120   46.9800 C   0  0  0  0  0  0  0  0  0  0  0  0
   62.4200   31.7870   47.7030 C   0  0  0  0  0  0  0  0  0  0  0  0
   58.9260   32.7130   49.3970 C   0  0  0  0  0  0  0  0  0  0  0  0
   58.6430   31.8490   50.5690 C   0  0  0  0  0  0  0  0  0  0  0  0
   57.9420   32.3510   51.6770 C   0  0  0  0  0  0  0  0  0  0  0  0
   57.6920   31.5190   52.7710 C   0  0  0  0  0  0  0  0  0  0  0  0
   58.1300   30.2310   52.7630 N   0  0  0  0  0  0  0  0  0  0  0  0
   58.8160   29.7190   51.7070 C   0  0  0  0  0  0  0  0  0  0  0  0
   59.0880   30.5170   50.5940 C   0  0  0  0  0  0  0  0  0  0  0  0
   58.1530   32.5860   48.2310 C   0  0  0  0  0  0  0  0  0  0  0  0
   58.4210   33.3890   47.1160 C   0  0  0  0  0  0  0  0  0  0  0  0
   57.6670   33.2740   45.9370 C   0  0  0  0  0  0  0  0  0  0  0  0
   57.3699   33.9990   43.9157 H   0  0  0  0  0  0  0  0  0  0  0  0
   59.2309   35.6565   44.0445 H   0  0  0  0  0  0  0  0  0  0  0  0
   60.5789   35.8684   46.1355 H   0  0  0  0  0  0  0  0  0  0  0  0
   62.7141   34.1134   50.0916 H   0  0  0  0  0  0  0  0  0  0  0  0
   62.4018   33.4793   51.7395 H   0  0  0  0  0  0  0  0  0  0  0  0
   62.5994   31.3713   50.9724 H   0  0  0  0  0  0  0  0  0  0  0  0
   61.2140   31.7026   49.8148 H   0  0  0  0  0  0  0  0  0  0  0  0
   64.1732   33.4875   49.8265 H   0  0  0  0  0  0  0  0  0  0  0  0
   65.1130   32.4991   48.6731 H   0  0  0  0  0  0  0  0  0  0  0  0
   63.2963   34.7933   48.1609 H   0  0  0  0  0  0  0  0  0  0  0  0
   64.5491   34.1157   47.1072 H   0  0  0  0  0  0  0  0  0  0  0  0
   61.6868   33.6911   46.9760 H   0  0  0  0  0  0  0  0  0  0  0  0
   62.9154   32.9568   45.9313 H   0  0  0  0  0  0  0  0  0  0  0  0
   61.3467   31.6140   47.8706 H   0  0  0  0  0  0  0  0  0  0  0  0
   62.8191   30.9593   47.0983 H   0  0  0  0  0  0  0  0  0  0  0  0
   57.5916   33.3937   51.6837 H   0  0  0  0  0  0  0  0  0  0  0  0
   57.1401   31.9059   53.6403 H   0  0  0  0  0  0  0  0  0  0  0  0
   59.1576   28.6736   51.7294 H   0  0  0  0  0  0  0  0  0  0  0  0
   59.6477   30.1048   49.7415 H   0  0  0  0  0  0  0  0  0  0  0  0
   57.3339   31.8527   48.1939 H   0  0  0  0  0  0  0  0  0  0  0  0
   56.8463   32.5440   45.8770 H   0  0  0  0  0  0  0  0  0  0  0  0
  1  2  2  0
  2  3  1  0
  3  4  2  0
  4  5  1  0
  5  6  2  0
  6  7  1  0
  7  8  1  0
  8  9  1  0
  9 10  1  0
 10 11  1  0
 11 12  1  0
 12 13  1  0
 13 14  1  0
  6 15  1  0
 15 16  1  0
 16 17  2  0
 17 18  1  0
 18 19  2  0
 19 20  1  0
 20 21  2  0
 15 22  2  0
 22 23  1  0
 23 24  2  0
 24  1  1  0
 23  4  1  0
 14 10  1  0
 21 16  1  0
  1 25  1  0
  2 26  1  0
  3 27  1  0
  8 28  1  0
  8 29  1  0
  9 30  1  0
  9 31  1  0
 11 32  1  0
 11 33  1  0
 12 34  1  0
 12 35  1  0
 13 36  1  0
 13 37  1  0
 14 38  1  0
 14 39  1  0
 17 40  1  0
 18 41  1  0
 20 42  1  0
 21 43  1  0
 22 44  1  0
 24 45  1  0
M  END
>  <UniqueID>  (9) 
9

>  <SMILES>  (9) 
c1ccc2nc(OCCN3CCCC3)c(-c3ccncc3)cc2c1

>  <Energy>  (9) 
60.1430981739714

>  <Genealogy>  (9) 
c1ccc2nc(OCCN3CCCC3)c(-c3ccncc3)cc2c1 (3D coordinates assigned)
c1ccc2nc(OCCN3CCCC3)c(-c3ccncc3)cc2c1 (nonaromatic ring conformer: 60.1430981739714 kcal/mol)

>  <smiles>  (9) 
c1ccc2nc(OCCN3CCCC3)c(-c3ccncc3)cc2c1

>  <score_type>  (9) 
oracle

>  <origin>  (9) 
adg

>  <m_score__min__energy>  (9) 
-7.4400000000000004

>  <m_primary>  (9) 
energy

$$$$
9:0
     RDKit          3D

 48 49  0  0  0  0  0  0  0  0999 V2000
   55.5890   24.1590   46.5700 C   0  0  0  0  0  0  0  0  0  0  0  0
   55.0430   25.2220   45.6210 C   0  0  0  0  0  0  0  0  0  0  0  0
   55.4940   26.5220   46.0040 O   0  0  0  0  0  0  0  0  0  0  0  0
   56.8000   27.0240   45.8650 C   0  0  0  0  0  0  0  0  0  0  0  0
   57.9220   26.2160   46.1360 C   0  0  0  0  0  0  0  0  0  0  0  0
   59.2130   26.7210   46.0010 C   0  0  0  0  0  0  0  0  0  0  0  0
   59.4110   28.0370   45.6000 C   0  0  0  0  0  0  0  0  0  0  0  0
   58.3150   28.8690   45.3290 C   0  0  0  0  0  0  0  0  0  0  0  0
   58.5660   30.2880   44.8570 C   0  0  0  0  0  0  0  0  0  0  0  0
   57.9080   31.2830   45.7230 N   0  0  0  0  0  0  0  0  0  0  0  0
   57.7040   32.5670   45.0320 C   0  0  0  0  0  0  0  0  0  0  0  0
   57.6730   33.7310   46.0390 C   0  0  0  0  0  0  0  0  0  0  0  0
   58.9650   33.9570   46.7250 N   0  0  0  0  0  0  0  0  0  0  0  0
   58.9420   33.7310   48.1860 C   0  0  0  0  0  0  0  0  0  0  0  0
   59.3560   32.2920   48.5860 C   0  0  0  0  0  0  0  0  0  0  0  0
   59.8550   31.5290   47.5060 O   0  0  0  0  0  0  0  0  0  0  0  0
   60.8230   32.2750   46.8060 C   0  0  0  0  0  0  0  0  0  0  0  0
   60.1490   33.4100   46.0240 C   0  0  0  0  0  0  0  0  0  0  0  0
   56.9990   28.3700   45.4550 C   0  0  0  0  0  0  0  0  0  0  0  0
   55.9430   29.2540   45.1550 O   0  0  0  0  0  0  0  0  0  0  0  0
   55.5660   29.7270   43.8660 C   0  0  0  0  0  0  0  0  0  0  0  0
   55.4255   24.4773   47.6102 H   0  0  0  0  0  0  0  0  0  0  0  0
   55.0686   23.2064   46.3919 H   0  0  0  0  0  0  0  0  0  0  0  0
   56.6665   24.0271   46.3919 H   0  0  0  0  0  0  0  0  0  0  0  0
   55.3896   25.0062   44.5996 H   0  0  0  0  0  0  0  0  0  0  0  0
   53.9440   25.2027   45.6638 H   0  0  0  0  0  0  0  0  0  0  0  0
   57.7767   25.1742   46.4579 H   0  0  0  0  0  0  0  0  0  0  0  0
   60.0788   26.0762   46.2124 H   0  0  0  0  0  0  0  0  0  0  0  0
   60.4336   28.4283   45.4945 H   0  0  0  0  0  0  0  0  0  0  0  0
   59.6497   30.4765   44.8594 H   0  0  0  0  0  0  0  0  0  0  0  0
   58.1467   30.3884   43.8450 H   0  0  0  0  0  0  0  0  0  0  0  0
   58.5220   31.4390   46.5560 H   0  0  0  0  0  0  0  0  0  0  0  0
   56.9890   30.9110   46.0570 H   0  0  0  0  0  0  0  0  0  0  0  0
   58.5268   32.7280   44.3199 H   0  0  0  0  0  0  0  0  0  0  0  0
   56.7404   32.5332   44.5025 H   0  0  0  0  0  0  0  0  0  0  0  0
   57.4005   34.6501   45.4996 H   0  0  0  0  0  0  0  0  0  0  0  0
   56.9386   33.4668   46.8142 H   0  0  0  0  0  0  0  0  0  0  0  0
   59.6366   34.4397   48.6607 H   0  0  0  0  0  0  0  0  0  0  0  0
   57.9060   33.8799   48.5243 H   0  0  0  0  0  0  0  0  0  0  0  0
   60.1374   32.3561   49.3576 H   0  0  0  0  0  0  0  0  0  0  0  0
   58.4510   31.7841   48.9506 H   0  0  0  0  0  0  0  0  0  0  0  0
   61.5407   32.7024   47.5217 H   0  0  0  0  0  0  0  0  0  0  0  0
   61.3471   31.6133   46.1007 H   0  0  0  0  0  0  0  0  0  0  0  0
   60.8787   34.2203   45.8792 H   0  0  0  0  0  0  0  0  0  0  0  0
   59.8072   32.9968   45.0636 H   0  0  0  0  0  0  0  0  0  0  0  0
   54.8837   30.5830   43.9746 H   0  0  0  0  0  0  0  0  0  0  0  0
   56.4639   30.0415   43.3138 H   0  0  0  0  0  0  0  0  0  0  0  0
   55.0592   28.9219   43.3138 H   0  0  0  0  0  0  0  0  0  0  0  0
  1  2  1  0
  2  3  1  0
  3  4  1  0
  4  5  2  0
  5  6  1  0
  6  7  2  0
  7  8  1  0
  8  9  1  0
  9 10  1  0
 10 11  1  0
 11 12  1  0
 12 13  1  0
 13 14  1  0
 14 15  1  0
 15 16  1  0
 16 17  1  0
 17 18  1  0
  8 19  2  0
 19 20  1  0
 20 21  1  0
 19  4  1  0
 18 13  1  0
  1 22  1  0
  1 23  1  0
  1 24  1  0
  2 25  1  0
  2 26  1  0
  5 27  1  0
  6 28  1  0
  7 29  1  0
  9 30  1  0
  9 31  1  0
 10 32  1  0
 10 33  1  0
 11 34  1  0
 11 35  1  0
 12 36  1  0
 12 37  1  0
 14 38  1  0
 14 39  1  0
 15 40  1  0
 15 41  1  0
 17 42  1  0
 17 43  1  0
 18 44  1  0
 18 45  1  0
 21 46  1  0
 21 47  1  0
 21 48  1  0
M  CHG  1  10   1
M  END
>  <UniqueID>  (10) 
10

>  <SMILES>  (10) 
CCOc1cccc(C[NH2+]CCN2CCOCC2)c1OC

>  <Energy>  (10) 
60.54742556785016

>  <Genealogy>  (10) 
CCOc1cccc(C[NH2+]CCN2CCOCC2)c1OC (protonated)
CCOc1cccc(C[NH2+]CCN2CCOCC2)c1OC (3D coordinates assigned)
CCOc1cccc(C[NH2+]CCN2CCOCC2)c1OC (nonaromatic ring conformer: 60.54742556785016 kcal/mol)

>  <smiles>  (10) 
CCOc1cccc(CNCCN2CCOCC2)c1OC

>  <score_type>  (10) 
oracle

>  <origin>  (10) 
adg

>  <m_score__min__energy>  (10) 
-4.7599999999999998

>  <m_primary>  (10) 
energy

$$$$
10:0
     RDKit          3D

 53 55  0  0  0  0  0  0  0  0999 V2000
   55.1990   29.7810   43.6320 C   0  0  0  0  0  0  0  0  0  0  0  0
   55.7510   29.3420   44.8690 O   0  0  0  0  0  0  0  0  0  0  0  0
   56.9890   28.6960   44.9990 C   0  0  0  0  0  0  0  0  0  0  0  0
   57.7310   28.2560   43.8870 C   0  0  0  0  0  0  0  0  0  0  0  0
   58.9590   27.6160   44.0700 C   0  0  0  0  0  0  0  0  0  0  0  0
   59.4640   27.4190   45.3570 C   0  0  0  0  0  0  0  0  0  0  0  0
   58.7420   27.8630   46.4760 C   0  0  0  0  0  0  0  0  0  0  0  0
   59.2800   27.6350   47.8690 C   0  0  0  0  0  0  0  0  0  0  0  0
   60.0710   28.7720   48.3880 N   0  0  0  0  0  0  0  0  0  0  0  0
   60.7460   28.5060   49.6750 C   0  0  0  0  0  0  0  0  0  0  0  0
   61.0550   29.7960   50.4580 C   0  0  0  0  0  0  0  0  0  0  0  0
   60.3140   31.0450   49.9290 C   0  0  0  0  0  0  0  0  0  0  0  0
   61.0460   31.6700   48.8050 N   0  0  0  0  0  0  0  0  0  0  0  0
   60.9030   33.1420   48.8110 C   0  0  0  0  0  0  0  0  0  0  0  0
   59.5160   33.5350   49.3150 C   0  0  0  0  0  0  0  0  0  0  0  0
   58.5220   32.9250   48.4940 O   0  0  0  0  0  0  0  0  0  0  0  0
   58.3600   33.1790   47.1250 C   0  0  0  0  0  0  0  0  0  0  0  0
   57.7700   32.1890   46.3300 C   0  0  0  0  0  0  0  0  0  0  0  0
   57.5940   32.3900   44.9580 C   0  0  0  0  0  0  0  0  0  0  0  0
   58.0060   33.5870   44.3690 C   0  0  0  0  0  0  0  0  0  0  0  0
   58.5920   34.5850   45.1520 C   0  0  0  0  0  0  0  0  0  0  0  0
   58.7700   34.3870   46.5250 C   0  0  0  0  0  0  0  0  0  0  0  0
   60.6580   31.1100   47.4910 C   0  0  0  0  0  0  0  0  0  0  0  0
   60.7930   29.5690   47.3670 C   0  0  0  0  0  0  0  0  0  0  0  0
   57.4960   28.4840   46.2880 C   0  0  0  0  0  0  0  0  0  0  0  0
   54.3517   30.4548   43.8272 H   0  0  0  0  0  0  0  0  0  0  0  0
   55.9685   30.3166   43.0566 H   0  0  0  0  0  0  0  0  0  0  0  0
   54.8504   28.9107   43.0566 H   0  0  0  0  0  0  0  0  0  0  0  0
   57.3426   28.4166   42.8705 H   0  0  0  0  0  0  0  0  0  0  0  0
   59.5302   27.2660   43.1975 H   0  0  0  0  0  0  0  0  0  0  0  0
   60.4314   26.9139   45.4945 H   0  0  0  0  0  0  0  0  0  0  0  0
   58.4308   27.4632   48.5467 H   0  0  0  0  0  0  0  0  0  0  0  0
   59.9543   26.7674   47.8181 H   0  0  0  0  0  0  0  0  0  0  0  0
   60.0940   27.8680   50.2898 H   0  0  0  0  0  0  0  0  0  0  0  0
   61.7038   28.0124   49.4538 H   0  0  0  0  0  0  0  0  0  0  0  0
   60.7658   29.6410   51.5079 H   0  0  0  0  0  0  0  0  0  0  0  0
   62.1312   29.9903   50.3394 H   0  0  0  0  0  0  0  0  0  0  0  0
   59.3129   30.7478   49.5833 H   0  0  0  0  0  0  0  0  0  0  0  0
   60.2425   31.7777   50.7463 H   0  0  0  0  0  0  0  0  0  0  0  0
   61.6667   33.5786   49.4714 H   0  0  0  0  0  0  0  0  0  0  0  0
   61.0327   33.5194   47.7860 H   0  0  0  0  0  0  0  0  0  0  0  0
   59.3932   33.1946   50.3538 H   0  0  0  0  0  0  0  0  0  0  0  0
   59.4064   34.6287   49.2725 H   0  0  0  0  0  0  0  0  0  0  0  0
   57.4421   31.2447   46.7891 H   0  0  0  0  0  0  0  0  0  0  0  0
   57.1308   31.6050   44.3422 H   0  0  0  0  0  0  0  0  0  0  0  0
   57.8693   33.7443   43.2889 H   0  0  0  0  0  0  0  0  0  0  0  0
   58.9141   35.5286   44.6874 H   0  0  0  0  0  0  0  0  0  0  0  0
   59.2309   35.1755   47.1380 H   0  0  0  0  0  0  0  0  0  0  0  0
   59.6073   31.3763   47.3038 H   0  0  0  0  0  0  0  0  0  0  0  0
   61.3558   31.5390   46.7568 H   0  0  0  0  0  0  0  0  0  0  0  0
   60.4109   29.2756   46.3781 H   0  0  0  0  0  0  0  0  0  0  0  0
   61.8604   29.3503   47.5183 H   0  0  0  0  0  0  0  0  0  0  0  0
   56.9120   28.8074   47.1622 H   0  0  0  0  0  0  0  0  0  0  0  0
  1  2  1  0
  2  3  1  0
  3  4  2  0
  4  5  1  0
  5  6  2  0
  6  7  1  0
  7  8  1  0
  8  9  1  0
  9 10  1  0
 10 11  1  0
 11 12  1  0
 12 13  1  0
 13 14  1  0
 14 15  1  0
 15 16  1  0
 16 17  1  0
 17 18  2  0
 18 19  1  0
 19 20  2  0
 20 21  1  0
 21 22  2  0
 13 23  1  0
 23 24  1  0
  7 25  2  0
 25  3  1  0
 24  9  1  0
 22 17  1  0
  1 26  1  0
  1 27  1  0
  1 28  1  0
  4 29  1  0
  5 30  1  0
  6 31  1  0
  8 32  1  0
  8 33  1  0
 10 34  1  0
 10 35  1  0
 11 36  1  0
 11 37  1  0
 12 38  1  0
 12 39  1  0
 14 40  1  0
 14 41  1  0
 15 42  1  0
 15 43  1  0
 18 44  1  0
 19 45  1  0
 20 46  1  0
 21 47  1  0
 22 48  1  0
 23 49  1  0
 23 50  1  0
 24 51  1  0
 24 52  1  0
 25 53  1  0
M  END
>  <UniqueID>  (11) 
11

>  <SMILES>  (11) 
COc1cccc(CN2CCCN(CCOc3ccccc3)CC2)c1

>  <Energy>  (11) 
69.81077057691722

>  <Genealogy>  (11) 
COc1cccc(CN2CCCN(CCOc3ccccc3)CC2)c1 (3D coordinates assigned)
COc1cccc(CN2CCCN(CCOc3ccccc3)CC2)c1 (nonaromatic ring conformer: 69.81077057691722 kcal/mol)

>  <smiles>  (11) 
COc1cccc(CN2CCCN(CCOc3ccccc3)CC2)c1

>  <score_type>  (11) 
oracle

>  <origin>  (11) 
adg

>  <m_score__min__energy>  (11) 
-5.3200000000000003

>  <m_primary>  (11) 
energy

$$$$
11:0
     RDKit          3D

 60 64  0  0  0  0  0  0  0  0999 V2000
   59.9800   26.2250   46.7340 C   0  0  0  0  0  0  0  0  0  0  0  0
   59.2050   27.2570   45.9700 C   0  0  0  0  0  0  0  0  0  0  0  0
   57.8020   27.2510   45.9800 C   0  0  0  0  0  0  0  0  0  0  0  0
   57.0900   28.2040   45.2430 C   0  0  0  0  0  0  0  0  0  0  0  0
   57.7710   29.1730   44.4890 C   0  0  0  0  0  0  0  0  0  0  0  0
   56.9960   30.1870   43.6800 C   0  0  0  0  0  0  0  0  0  0  0  0
   56.5440   31.3200   44.5010 N   0  0  0  0  0  0  0  0  0  0  0  0
   57.6560   32.2100   44.8650 C   0  0  0  0  0  0  0  0  0  0  0  0
   57.9860   32.0870   46.3640 C   0  0  0  0  0  0  0  0  0  0  0  0
   57.8090   33.4570   47.0870 C   0  0  0  0  0  0  0  0  0  0  0  0
   59.0160   33.8570   47.9460 C   0  0  0  0  0  0  0  0  0  0  0  0
   59.4850   32.7100   48.7330 N   0  0  0  0  0  0  0  0  0  0  0  0
   59.4100   32.7500   50.1680 C   0  0  0  0  0  0  0  0  0  0  0  0
   58.2080   32.5160   50.7700 N   0  0  0  0  0  0  0  0  0  0  0  0
   58.0320   32.6540   52.1150 C   0  0  0  0  0  0  0  0  0  0  0  0
   59.0640   33.0610   52.9030 N   0  0  0  0  0  0  0  0  0  0  0  0
   60.2700   33.2930   52.3340 C   0  0  0  0  0  0  0  0  0  0  0  0
   61.6610   33.7990   53.1180 S   0  0  0  0  0  0  0  0  0  0  0  0
   62.6170   33.7970   51.7270 C   0  0  0  0  0  0  0  0  0  0  0  0
   61.8520   33.3810   50.6340 C   0  0  0  0  0  0  0  0  0  0  0  0
   62.4700   33.1450   49.3160 C   0  0  0  0  0  0  0  0  0  0  0  0
   62.7630   31.8360   48.8960 C   0  0  0  0  0  0  0  0  0  0  0  0
   63.3490   31.6120   47.6470 C   0  0  0  0  0  0  0  0  0  0  0  0
   63.6330   32.6900   46.8040 C   0  0  0  0  0  0  0  0  0  0  0  0
   63.3190   33.9920   47.2030 C   0  0  0  0  0  0  0  0  0  0  0  0
   62.7270   34.2190   48.4500 C   0  0  0  0  0  0  0  0  0  0  0  0
   60.5030   33.1240   50.9790 C   0  0  0  0  0  0  0  0  0  0  0  0
   59.7250   31.4190   48.0720 C   0  0  0  0  0  0  0  0  0  0  0  0
   59.3940   31.4850   46.5760 C   0  0  0  0  0  0  0  0  0  0  0  0
   59.1730   29.1670   44.4700 C   0  0  0  0  0  0  0  0  0  0  0  0
   59.8860   28.2140   45.2020 C   0  0  0  0  0  0  0  0  0  0  0  0
   59.8522   26.3951   47.8132 H   0  0  0  0  0  0  0  0  0  0  0  0
   59.6099   25.2221   46.4746 H   0  0  0  0  0  0  0  0  0  0  0  0
   61.0463   26.3008   46.4746 H   0  0  0  0  0  0  0  0  0  0  0  0
   57.2606   26.4956   46.5684 H   0  0  0  0  0  0  0  0  0  0  0  0
   55.9901   28.1939   45.2545 H   0  0  0  0  0  0  0  0  0  0  0  0
   57.6422   30.5675   42.8752 H   0  0  0  0  0  0  0  0  0  0  0  0
   56.1050   29.6865   43.2731 H   0  0  0  0  0  0  0  0  0  0  0  0
   55.8240   31.8680   43.9720 H   0  0  0  0  0  0  0  0  0  0  0  0
   58.5442   31.9367   44.2765 H   0  0  0  0  0  0  0  0  0  0  0  0
   57.3609   33.2482   44.6528 H   0  0  0  0  0  0  0  0  0  0  0  0
   57.2702   31.3882   46.8215 H   0  0  0  0  0  0  0  0  0  0  0  0
   57.6509   34.2347   46.3253 H   0  0  0  0  0  0  0  0  0  0  0  0
   56.9489   33.3558   47.7652 H   0  0  0  0  0  0  0  0  0  0  0  0
   59.8286   34.2038   47.2907 H   0  0  0  0  0  0  0  0  0  0  0  0
   58.7151   34.6622   48.6323 H   0  0  0  0  0  0  0  0  0  0  0  0
   57.0522   32.4355   52.5647 H   0  0  0  0  0  0  0  0  0  0  0  0
   58.9250   33.1870   53.9310 H   0  0  0  0  0  0  0  0  0  0  0  0
   63.6793   34.0798   51.6869 H   0  0  0  0  0  0  0  0  0  0  0  0
   62.5303   30.9848   49.5527 H   0  0  0  0  0  0  0  0  0  0  0  0
   63.5868   30.5867   47.3273 H   0  0  0  0  0  0  0  0  0  0  0  0
   64.1040   32.5135   45.8257 H   0  0  0  0  0  0  0  0  0  0  0  0
   63.5375   34.8390   46.5360 H   0  0  0  0  0  0  0  0  0  0  0  0
   62.4620   35.2428   48.7528 H   0  0  0  0  0  0  0  0  0  0  0  0
   60.7840   31.1469   48.1924 H   0  0  0  0  0  0  0  0  0  0  0  0
   59.0725   30.6657   48.5375 H   0  0  0  0  0  0  0  0  0  0  0  0
   60.1384   32.1150   46.0671 H   0  0  0  0  0  0  0  0  0  0  0  0
   59.4142   30.4670   46.1598 H   0  0  0  0  0  0  0  0  0  0  0  0
   59.7149   29.9171   43.8752 H   0  0  0  0  0  0  0  0  0  0  0  0
   60.9857   28.2139   45.1762 H   0  0  0  0  0  0  0  0  0  0  0  0
  1  2  1  0
  2  3  2  0
  3  4  1  0
  4  5  2  0
  5  6  1  0
  6  7  1  0
  7  8  1  0
  8  9  1  0
  9 10  1  0
 10 11  1  0
 11 12  1  0
 12 13  1  0
 13 14  2  0
 14 15  1  0
 15 16  2  0
 16 17  1  0
 17 18  1  0
 18 19  1  0
 19 20  2  0
 20 21  1  0
 21 22  2  0
 22 23  1  0
 23 24  2  0
 24 25  1  0
 25 26  2  0
 20 27  1  0
 12 28  1  0
 28 29  1  0
  5 30  1  0
 30 31  2  0
 31  2  1  0
 29  9  1  0
 27 13  1  0
 27 17  2  0
 26 21  1  0
  1 32  1  0
  1 33  1  0
  1 34  1  0
  3 35  1  0
  4 36  1  0
  6 37  1  0
  6 38  1  0
  7 39  1  0
  8 40  1  0
  8 41  1  0
  9 42  1  0
 10 43  1  0
 10 44  1  0
 11 45  1  0
 11 46  1  0
 15 47  1  0
 16 48  1  0
 19 49  1  0
 22 50  1  0
 23 51  1  0
 24 52  1  0
 25 53  1  0
 26 54  1  0
 28 55  1  0
 28 56  1  0
 29 57  1  0
 29 58  1  0
 30 59  1  0
 31 60  1  0
M  CHG  1  16   1
M  END
>  <UniqueID>  (12) 
12

>  <SMILES>  (12) 
Cc1ccc(CNCC2CCN(c3nc[nH+]c4scc(-c5ccccc5)c34)CC2)cc1

>  <Energy>  (12) 
108.64164472669472

>  <Genealogy>  (12) 
Cc1ccc(CNCC2CCN(c3nc[nH+]c4scc(-c5ccccc5)c34)CC2)cc1 (protonated)
Cc1ccc(CNCC2CCN(c3nc[nH+]c4scc(-c5ccccc5)c34)CC2)cc1 (3D coordinates assigned)
Cc1ccc(CNCC2CCN(c3nc[nH+]c4scc(-c5ccccc5)c34)CC2)cc1 (nonaromatic ring conformer: 108.64164472669472 kcal/mol)

>  <smiles>  (12) 
Cc1ccc(CNCC2CCN(c3ncnc4scc(-c5ccccc5)c34)CC2)cc1

>  <score_type>  (12) 
oracle

>  <origin>  (12) 
adg

>  <m_score__min__energy>  (12) 
-8.1500000000000004

>  <m_primary>  (12) 
energy

$$$$
12:0
     RDKit          3D

 30 31  0  0  0  0  0  0  0  0999 V2000
   57.9800   32.3210   42.1690 C   0  0  0  0  0  0  0  0  0  0  0  0
   57.7350   31.8450   43.2490 C   0  0  0  0  0  0  0  0  0  0  0  0
   57.4370   31.2640   44.5650 C   0  0  0  0  0  0  0  0  0  0  0  0
   57.5370   32.2880   45.6270 N   0  0  0  0  0  0  0  0  0  0  0  0
   57.0420   33.6070   45.1560 C   0  0  0  0  0  0  0  0  0  0  0  0
   58.1910   34.5930   44.8840 C   0  0  0  0  0  0  0  0  0  0  0  0
   58.9880   34.8490   46.0310 O   0  0  0  0  0  0  0  0  0  0  0  0
   59.1470   33.7190   46.8850 C   0  0  2  0  0  0  0  0  0  0  0  0
   60.5270   33.7470   47.5030 C   0  0  0  0  0  0  0  0  0  0  0  0
   61.6510   33.4120   46.7270 C   0  0  0  0  0  0  0  0  0  0  0  0
   62.9350   33.4600   47.2790 C   0  0  0  0  0  0  0  0  0  0  0  0
   64.0110   33.1300   46.5230 F   0  0  0  0  0  0  0  0  0  0  0  0
   63.1100   33.8510   48.6080 C   0  0  0  0  0  0  0  0  0  0  0  0
   62.0030   34.1990   49.3860 C   0  0  0  0  0  0  0  0  0  0  0  0
   60.7160   34.1540   48.8400 C   0  0  0  0  0  0  0  0  0  0  0  0
   59.6600   34.5110   49.6140 F   0  0  0  0  0  0  0  0  0  0  0  0
   58.9090   32.3620   46.1840 C   0  0  0  0  0  0  0  0  0  0  0  0
   58.2036   32.7554   41.1834 H   0  0  0  0  0  0  0  0  0  0  0  0
   56.4165   30.8535   44.5551 H   0  0  0  0  0  0  0  0  0  0  0  0
   58.1681   30.4688   44.7726 H   0  0  0  0  0  0  0  0  0  0  0  0
   56.4726   33.4607   44.2263 H   0  0  0  0  0  0  0  0  0  0  0  0
   56.4097   34.0340   45.9484 H   0  0  0  0  0  0  0  0  0  0  0  0
   58.8345   34.1724   44.0972 H   0  0  0  0  0  0  0  0  0  0  0  0
   57.7386   35.5481   44.5789 H   0  0  0  0  0  0  0  0  0  0  0  0
   58.3695   33.7990   47.6590 H   0  0  0  0  0  0  0  0  0  0  0  0
   61.5192   33.1098   45.6776 H   0  0  0  0  0  0  0  0  0  0  0  0
   64.1199   33.8850   49.0426 H   0  0  0  0  0  0  0  0  0  0  0  0
   62.1440   34.5095   50.4318 H   0  0  0  0  0  0  0  0  0  0  0  0
   59.6362   32.2463   45.3668 H   0  0  0  0  0  0  0  0  0  0  0  0
   59.0318   31.5576   46.9242 H   0  0  0  0  0  0  0  0  0  0  0  0
  1  2  3  0
  2  3  1  0
  3  4  1  0
  4  5  1  0
  5  6  1  0
  6  7  1  0
  7  8  1  0
  8  9  1  0
  9 10  2  0
 10 11  1  0
 11 12  1  0
 11 13  2  0
 13 14  1  0
 14 15  2  0
 15 16  1  0
  8 17  1  0
 17  4  1  0
 15  9  1  0
  1 18  1  0
  3 19  1  0
  3 20  1  0
  5 21  1  0
  5 22  1  0
  6 23  1  0
  6 24  1  0
  8 25  1  1
 10 26  1  0
 13 27  1  0
 14 28  1  0
 17 29  1  0
 17 30  1  0
M  END
>  <UniqueID>  (13) 
13

>  <SMILES>  (13) 
C#CCN1CCO[C@H](c2cc(F)ccc2F)C1

>  <Energy>  (13) 
43.12706852170541

>  <Genealogy>  (13) 
C#CCN1CCO[C@H](c2cc(F)ccc2F)C1 (chirality)
C#CCN1CCO[C@H](c2cc(F)ccc2F)C1 (3D coordinates assigned)
C#CCN1CCO[C@H](c2cc(F)ccc2F)C1 (nonaromatic ring conformer: 43.12706852170541 kcal/mol)

>  <smiles>  (13) 
C#CCN1CCOC(c2cc(F)ccc2F)C1

>  <score_type>  (13) 
oracle

>  <origin>  (13) 
adg

>  <m_score__min__energy>  (13) 
-5.96

>  <m_primary>  (13) 
energy

$$$$
13:0
     RDKit          3D

 41 42  0  0  0  0  0  0  0  0999 V2000
   63.2320   33.8870   46.1940 C   0  0  0  0  0  0  0  0  0  0  0  0
   63.7170   33.6460   47.6280 C   0  0  0  0  0  0  0  0  0  0  0  0
   63.7410   32.2050   47.9970 N   0  0  0  0  0  0  0  0  0  0  0  0
   64.0580   31.9720   49.4330 C   0  0  0  0  0  0  0  0  0  0  0  0
   65.3070   32.7100   49.9370 C   0  0  0  0  0  0  0  0  0  0  0  0
   62.4690   31.5320   47.6140 C   0  0  0  0  0  0  0  0  0  0  0  0
   61.7580   30.8640   48.8060 C   0  0  0  0  0  0  0  0  0  0  0  0
   60.3120   31.0890   48.7560 N   0  0  0  0  0  0  0  0  0  0  0  0
   59.5860   31.1460   47.5170 C   0  0  0  0  0  0  0  0  0  0  0  0
   59.2730   32.3970   46.9560 C   0  0  0  0  0  0  0  0  0  0  0  0
   59.8820   34.0060   47.8260 Br  0  0  0  0  0  0  0  0  0  0  0  0
   58.5120   32.4780   45.7740 C   0  0  0  0  0  0  0  0  0  0  0  0
   58.0730   34.2190   45.0590 Br  0  0  0  0  0  0  0  0  0  0  0  0
   58.0800   31.2960   45.1330 C   0  0  0  0  0  0  0  0  0  0  0  0
   57.3030   31.3440   43.9550 C   0  0  0  0  0  0  0  0  0  0  0  0
   56.8960   30.1710   43.3200 C   0  0  0  0  0  0  0  0  0  0  0  0
   57.2530   28.9330   43.8420 C   0  0  0  0  0  0  0  0  0  0  0  0
   58.0180   28.8580   45.0050 C   0  0  0  0  0  0  0  0  0  0  0  0
   58.4420   30.0290   45.6690 C   0  0  0  0  0  0  0  0  0  0  0  0
   59.2160   29.9610   46.8500 C   0  0  0  0  0  0  0  0  0  0  0  0
   59.8820   28.2680   47.5040 Br  0  0  0  0  0  0  0  0  0  0  0  0
   62.2471   34.3764   46.2174 H   0  0  0  0  0  0  0  0  0  0  0  0
   63.9501   34.5331   45.6678 H   0  0  0  0  0  0  0  0  0  0  0  0
   63.1507   32.9245   45.6678 H   0  0  0  0  0  0  0  0  0  0  0  0
   64.7351   34.0505   47.7267 H   0  0  0  0  0  0  0  0  0  0  0  0
   63.0095   34.1480   48.3043 H   0  0  0  0  0  0  0  0  0  0  0  0
   64.5190   31.7600   47.4570 H   0  0  0  0  0  0  0  0  0  0  0  0
   63.1976   32.3033   50.0330 H   0  0  0  0  0  0  0  0  0  0  0  0
   64.2663   30.8969   49.5371 H   0  0  0  0  0  0  0  0  0  0  0  0
   65.3122   32.7131   51.0370 H   0  0  0  0  0  0  0  0  0  0  0  0
   66.2086   32.1995   49.5675 H   0  0  0  0  0  0  0  0  0  0  0  0
   65.2948   33.7460   49.5675 H   0  0  0  0  0  0  0  0  0  0  0  0
   61.7929   32.2825   47.1785 H   0  0  0  0  0  0  0  0  0  0  0  0
   62.7205   30.7387   46.8947 H   0  0  0  0  0  0  0  0  0  0  0  0
   61.9535   29.7818   48.7794 H   0  0  0  0  0  0  0  0  0  0  0  0
   62.1467   31.3066   49.7350 H   0  0  0  0  0  0  0  0  0  0  0  0
   59.7750   31.0000   49.6480 H   0  0  0  0  0  0  0  0  0  0  0  0
   57.0153   32.3183   43.5331 H   0  0  0  0  0  0  0  0  0  0  0  0
   56.2906   30.2255   42.4032 H   0  0  0  0  0  0  0  0  0  0  0  0
   56.9312   28.0107   43.3363 H   0  0  0  0  0  0  0  0  0  0  0  0
   58.2947   27.8736   45.4103 H   0  0  0  0  0  0  0  0  0  0  0  0
  1  2  1  0
  2  3  1  0
  3  4  1  0
  4  5  1  0
  3  6  1  0
  6  7  1  0
  7  8  1  0
  8  9  1  0
  9 10  2  0
 10 11  1  0
 10 12  1  0
 12 13  1  0
 12 14  2  0
 14 15  1  0
 15 16  2  0
 16 17  1  0
 17 18  2  0
 18 19  1  0
 19 20  2  0
 20 21  1  0
 20  9  1  0
 19 14  1  0
  1 22  1  0
  1 23  1  0
  1 24  1  0
  2 25  1  0
  2 26  1  0
  3 27  1  0
  4 28  1  0
  4 29  1  0
  5 30  1  0
  5 31  1  0
  5 32  1  0
  6 33  1  0
  6 34  1  0
  7 35  1  0
  7 36  1  0
  8 37  1  0
 15 38  1  0
 16 39  1  0
 17 40  1  0
 18 41  1  0
M  CHG  1   3   1
M  END
>  <UniqueID>  (14) 
14

>  <SMILES>  (14) 
CC[NH+](CC)CCNc1c(Br)c(Br)c2ccccc2c1Br

>  <Energy>  (14) 
58.08433496080808

>  <Genealogy>  (14) 
CC[NH+](CC)CCNc1c(Br)c(Br)c2ccccc2c1Br (protonated)
CC[NH+](CC)CCNc1c(Br)c(Br)c2ccccc2c1Br (3D coordinates assigned)
CC[NH+](CC)CCNc1c(Br)c(Br)c2ccccc2c1Br (optimized conformer: 58.08433496080808 kcal/mol)

>  <smiles>  (14) 
CCN(CC)CCNc1c(Br)c(Br)c2ccccc2c1Br

>  <score_type>  (14) 
oracle

>  <origin>  (14) 
adg

>  <m_score__min__energy>  (14) 
-6.7000000000000002

>  <m_primary>  (14) 
energy

$$$$
14:0
     RDKit          3D

 46 49  0  0  0  0  0  0  0  0999 V2000
   64.1300   31.4830   51.3750 C   0  0  0  0  0  0  0  0  0  0  0  0
   63.4850   31.0170   50.1960 O   0  0  0  0  0  0  0  0  0  0  0  0
   63.1200   31.8670   49.1470 C   0  0  0  0  0  0  0  0  0  0  0  0
   61.8990   31.6680   48.4960 C   0  0  0  0  0  0  0  0  0  0  0  0
   61.5210   32.5180   47.4440 C   0  0  0  0  0  0  0  0  0  0  0  0
   60.2280   32.3180   46.7440 C   0  0  0  0  0  0  0  0  0  0  0  0
   59.2070   33.3040   46.8270 C   0  0  0  0  0  0  0  0  0  0  0  0
   57.9760   33.1010   46.1820 C   0  0  0  0  0  0  0  0  0  0  0  0
   57.8150   31.9190   45.4730 C   0  0  0  0  0  0  0  0  0  0  0  0
   56.7270   31.4920   44.8100 N   0  0  0  0  0  0  0  0  0  0  0  0
   57.1160   30.2780   44.3330 C   0  0  0  0  0  0  0  0  0  0  0  0
   56.1640   29.3850   43.5820 C   0  0  0  0  0  0  0  0  0  0  0  0
   54.7780   29.6940   43.9240 N   0  0  0  0  0  0  0  0  0  0  0  0
   58.3940   29.9430   44.6770 N   0  0  0  0  0  0  0  0  0  0  0  0
   59.1180   28.6980   44.3940 C   0  0  0  0  0  0  0  0  0  0  0  0
   59.2320   27.8580   45.6360 C   0  0  0  0  0  0  0  0  0  0  0  0
   58.2200   26.9430   45.9750 C   0  0  0  0  0  0  0  0  0  0  0  0
   58.3250   26.1730   47.1370 C   0  0  0  0  0  0  0  0  0  0  0  0
   59.4430   26.3060   47.9670 C   0  0  0  0  0  0  0  0  0  0  0  0
   60.4560   27.2090   47.6340 C   0  0  0  0  0  0  0  0  0  0  0  0
   60.3540   27.9800   46.4730 C   0  0  0  0  0  0  0  0  0  0  0  0
   58.8080   30.9970   45.4030 C   0  0  0  0  0  0  0  0  0  0  0  0
   60.0070   31.1690   46.0240 N   0  0  0  0  0  0  0  0  0  0  0  0
   62.3900   33.5570   47.0690 C   0  0  0  0  0  0  0  0  0  0  0  0
   63.6010   33.7230   47.7420 C   0  0  0  0  0  0  0  0  0  0  0  0
   63.9380   32.8830   48.7560 N   0  0  0  0  0  0  0  0  0  0  0  0
   63.5995   31.0997   52.2591 H   0  0  0  0  0  0  0  0  0  0  0  0
   65.1706   31.1268   51.3888 H   0  0  0  0  0  0  0  0  0  0  0  0
   64.1187   32.5829   51.3888 H   0  0  0  0  0  0  0  0  0  0  0  0
   61.2358   30.8474   48.8071 H   0  0  0  0  0  0  0  0  0  0  0  0
   59.3816   34.2280   47.3977 H   0  0  0  0  0  0  0  0  0  0  0  0
   57.1715   33.8492   46.2367 H   0  0  0  0  0  0  0  0  0  0  0  0
   56.3094   29.5317   42.5016 H   0  0  0  0  0  0  0  0  0  0  0  0
   56.3695   28.3406   43.8597 H   0  0  0  0  0  0  0  0  0  0  0  0
   54.3910   28.9180   44.5100 H   0  0  0  0  0  0  0  0  0  0  0  0
   54.7610   30.5640   44.5040 H   0  0  0  0  0  0  0  0  0  0  0  0
   58.5753   28.1315   43.6230 H   0  0  0  0  0  0  0  0  0  0  0  0
   60.1293   28.9483   44.0411 H   0  0  0  0  0  0  0  0  0  0  0  0
   57.3412   26.8324   45.3227 H   0  0  0  0  0  0  0  0  0  0  0  0
   57.5277   25.4619   47.3989 H   0  0  0  0  0  0  0  0  0  0  0  0
   59.5247   25.7000   48.8814 H   0  0  0  0  0  0  0  0  0  0  0  0
   61.3352   27.3131   48.2868 H   0  0  0  0  0  0  0  0  0  0  0  0
   61.1563   28.6862   46.2130 H   0  0  0  0  0  0  0  0  0  0  0  0
   60.7530   30.4450   45.9420 H   0  0  0  0  0  0  0  0  0  0  0  0
   62.1166   34.2365   46.2483 H   0  0  0  0  0  0  0  0  0  0  0  0
   64.2840   34.5349   47.4515 H   0  0  0  0  0  0  0  0  0  0  0  0
  1  2  1  0
  2  3  1  0
  3  4  2  0
  4  5  1  0
  5  6  1  0
  6  7  2  0
  7  8  1  0
  8  9  2  0
  9 10  1  0
 10 11  2  0
 11 12  1  0
 12 13  1  0
 11 14  1  0
 14 15  1  0
 15 16  1  0
 16 17  2  0
 17 18  1  0
 18 19  2  0
 19 20  1  0
 20 21  2  0
 14 22  1  0
 22 23  2  0
  5 24  2  0
 24 25  1  0
 25 26  2  0
 26  3  1  0
 23  6  1  0
 22  9  1  0
 21 16  1  0
  1 27  1  0
  1 28  1  0
  1 29  1  0
  4 30  1  0
  7 31  1  0
  8 32  1  0
 12 33  1  0
 12 34  1  0
 13 35  1  0
 13 36  1  0
 15 37  1  0
 15 38  1  0
 17 39  1  0
 18 40  1  0
 19 41  1  0
 20 42  1  0
 21 43  1  0
 23 44  1  0
 24 45  1  0
 25 46  1  0
M  CHG  1  23   1
M  END
>  <UniqueID>  (15) 
15

>  <SMILES>  (15) 
COc1cc(-c2ccc3nc(CN)n(Cc4ccccc4)c3[nH+]2)ccn1

>  <Energy>  (15) 
89.5461530568226

>  <Genealogy>  (15) 
COc1cc(-c2ccc3nc(CN)n(Cc4ccccc4)c3[nH+]2)ccn1 (protonated)
COc1cc(-c2ccc3nc(CN)n(Cc4ccccc4)c3[nH+]2)ccn1 (3D coordinates assigned)
COc1cc(-c2ccc3nc(CN)n(Cc4ccccc4)c3[nH+]2)ccn1 (optimized conformer: 89.5461530568226 kcal/mol)

>  <smiles>  (15) 
COc1cc(-c2ccc3nc(CN)n(Cc4ccccc4)c3n2)ccn1

>  <score_type>  (15) 
oracle

>  <origin>  (15) 
adg

>  <m_score__min__energy>  (15) 
-7.29

>  <m_primary>  (15) 
energy

$$$$
15:0
     RDKit          3D

 48 50  0  0  0  0  0  0  0  0999 V2000
   54.3731   29.9754   43.6545 H   0  0  0  0  0  0  0  0  0  0  0  0
   55.3520   29.8340   44.1360 C   0  0  0  0  0  0  0  0  0  0  0  0
   55.5860   28.7210   44.8760 N   0  0  0  0  0  0  0  0  0  0  0  0
   56.7790   28.5060   45.4870 C   0  0  0  0  0  0  0  0  0  0  0  0
   56.9710   27.3420   46.2380 C   0  0  0  0  0  0  0  0  0  0  0  0
   56.1574   26.6072   46.3274 H   0  0  0  0  0  0  0  0  0  0  0  0
   58.1920   27.1090   46.8750 C   0  0  0  0  0  0  0  0  0  0  0  0
   58.3378   26.1908   47.4630 H   0  0  0  0  0  0  0  0  0  0  0  0
   59.2290   28.0400   46.7670 C   0  0  0  0  0  0  0  0  0  0  0  0
   60.7590   27.7410   47.5720 Cl  0  0  0  0  0  0  0  0  0  0  0  0
   59.0490   29.2080   46.0190 C   0  0  0  0  0  0  0  0  0  0  0  0
   59.8688   29.9369   45.9380 H   0  0  0  0  0  0  0  0  0  0  0  0
   57.8230   29.4570   45.3680 C   0  0  0  0  0  0  0  0  0  0  0  0
   57.5990   30.6290   44.6070 C   0  0  0  0  0  0  0  0  0  0  0  0
   58.5480   31.5230   44.5060 N   0  0  0  0  0  0  0  0  0  0  0  0
   58.6870   32.7680   45.2660 C   0  0  0  0  0  0  0  0  0  0  0  0
   57.7083   33.2665   45.3267 H   0  0  0  0  0  0  0  0  0  0  0  0
   59.4121   33.4184   44.7548 H   0  0  0  0  0  0  0  0  0  0  0  0
   59.1850   32.4820   46.6580 C   0  0  0  0  0  0  0  0  0  0  0  0
   58.3370   32.6750   47.7590 C   0  0  0  0  0  0  0  0  0  0  0  0
   57.3029   33.0148   47.6003 H   0  0  0  0  0  0  0  0  0  0  0  0
   58.7990   32.4380   49.0550 C   0  0  0  0  0  0  0  0  0  0  0  0
   58.1257   32.5832   49.9127 H   0  0  0  0  0  0  0  0  0  0  0  0
   60.1140   32.0170   49.2650 C   0  0  0  0  0  0  0  0  0  0  0  0
   60.4731   31.8324   50.2882 H   0  0  0  0  0  0  0  0  0  0  0  0
   60.9810   31.8280   48.1740 C   0  0  0  0  0  0  0  0  0  0  0  0
   62.4100   31.3970   48.4050 C   0  0  0  0  0  0  0  0  0  0  0  0
   62.7103   30.7372   47.5776 H   0  0  0  0  0  0  0  0  0  0  0  0
   62.4357   30.8909   49.3813 H   0  0  0  0  0  0  0  0  0  0  0  0
   63.3760   32.5220   48.4790 N   0  0  0  0  0  0  0  0  0  0  0  0
   62.9540   33.7840   47.8320 C   0  0  0  0  0  0  0  0  0  0  0  0
   63.4035   34.6292   48.3739 H   0  0  0  0  0  0  0  0  0  0  0  0
   61.8555   33.8326   47.8630 H   0  0  0  0  0  0  0  0  0  0  0  0
   63.3900   33.8470   46.3690 C   0  0  0  0  0  0  0  0  0  0  0  0
   64.4775   34.0041   46.3169 H   0  0  0  0  0  0  0  0  0  0  0  0
   63.1317   32.9022   45.8684 H   0  0  0  0  0  0  0  0  0  0  0  0
   62.8748   34.6800   45.8684 H   0  0  0  0  0  0  0  0  0  0  0  0
   64.0180   32.6960   49.8040 C   0  0  0  0  0  0  0  0  0  0  0  0
   63.6690   33.6471   50.2325 H   0  0  0  0  0  0  0  0  0  0  0  0
   63.7322   31.8216   50.4071 H   0  0  0  0  0  0  0  0  0  0  0  0
   65.5570   32.7200   49.7700 C   0  0  0  0  0  0  0  0  0  0  0  0
   65.9464   32.7261   50.7987 H   0  0  0  0  0  0  0  0  0  0  0  0
   65.9261   31.8275   49.2435 H   0  0  0  0  0  0  0  0  0  0  0  0
   65.8981   33.6236   49.2435 H   0  0  0  0  0  0  0  0  0  0  0  0
   60.4990   32.0340   46.8710 C   0  0  0  0  0  0  0  0  0  0  0  0
   61.1562   31.8428   46.0099 H   0  0  0  0  0  0  0  0  0  0  0  0
   56.3460   30.7990   43.9830 C   0  0  0  0  0  0  0  0  0  0  0  0
   56.1527   31.6947   43.3744 H   0  0  0  0  0  0  0  0  0  0  0  0
  1  2  1  0
  2  3  1  0
  3  4  1  0
  4  5  2  0
  5  6  1  0
  5  7  1  0
  7  8  1  0
  7  9  2  0
  9 10  1  0
  9 11  1  0
 11 12  1  0
 11 13  2  0
 13 14  1  0
 14 15  2  0
 15 16  1  0
 16 17  1  0
 16 18  1  0
 16 19  1  0
 19 20  2  0
 20 21  1  0
 20 22  1  0
 22 23  1  0
 22 24  2  0
 24 25  1  0
 24 26  1  0
 26 27  1  0
 27 28  1  0
 27 29  1  0
 27 30  1  0
 30 31  1  0
 31 32  1  0
 31 33  1  0
 31 34  1  0
 34 35  1  0
 34 36  1  0
 34 37  1  0
 30 38  1  0
 38 39  1  0
 38 40  1  0
 38 41  1  0
 41 42  1  0
 41 43  1  0
 41 44  1  0
 26 45  2  0
 45 46  1  0
 14 47  1  0
 47 48  1  0
 47  2  2  0
 13  4  1  0
 45 19  1  0
M  CHG  1   3  -1
M  END
>  <UniqueID>  (16) 
16

>  <SMILES>  (16) 
CCN(CC)Cc1cccc(C/N=c2\cc[n-]c3ccc(Cl)cc23)c1

>  <Energy>  (16) 
59.94003122930578

>  <Genealogy>  (16) 
CCN(CC)Cc1cccc(CN=c2cc[n-]c3ccc(Cl)cc23)c1 (protonated)
CCN(CC)Cc1cccc(C/N=c2\cc[n-]c3ccc(Cl)cc23)c1 (cis-trans isomerization)
CCN(CC)Cc1cccc(C/N=c2\cc[n-]c3ccc(Cl)cc23)c1 (3D coordinates assigned)
CCN(CC)Cc1cccc(C/N=c2\cc[n-]c3ccc(Cl)cc23)c1 (optimized conformer: 59.94003122930578 kcal/mol)

>  <smiles>  (16) 
CCN(CC)Cc1cccc(CN=c2cc[nH]c3ccc(Cl)cc23)c1

>  <score_type>  (16) 
oracle

>  <origin>  (16) 
adg

>  <m_score__min__energy>  (16) 
-9.4900000000000002

>  <m_primary>  (16) 
energy

$$$$
16:0
     RDKit          3D

 28 29  0  0  0  0  0  0  0  0999 V2000
   58.1439   34.4268   43.6195 H   0  0  0  0  0  0  0  0  0  0  0  0
   58.3090   34.2240   44.6880 C   0  0  0  0  0  0  0  0  0  0  0  0
   57.5310   33.1450   45.3330 C   0  0  0  0  0  0  0  0  0  0  0  0
   56.6890   33.4680   46.2130 O   0  0  0  0  0  0  0  0  0  0  0  0
   57.6830   31.7140   44.9800 C   0  0  0  0  0  0  0  0  0  0  0  0
   56.7660   31.0760   44.1250 C   0  0  0  0  0  0  0  0  0  0  0  0
   55.9301   31.6483   43.6963 H   0  0  0  0  0  0  0  0  0  0  0  0
   56.9090   29.7200   43.8160 C   0  0  0  0  0  0  0  0  0  0  0  0
   56.1922   29.2321   43.1391 H   0  0  0  0  0  0  0  0  0  0  0  0
   57.9630   28.9830   44.3670 C   0  0  0  0  0  0  0  0  0  0  0  0
   58.1570   27.1310   43.9450 Br  0  0  0  0  0  0  0  0  0  0  0  0
   58.8690   29.6040   45.2330 C   0  0  0  0  0  0  0  0  0  0  0  0
   59.6947   29.0240   45.6711 H   0  0  0  0  0  0  0  0  0  0  0  0
   58.7280   30.9590   45.5430 C   0  0  0  0  0  0  0  0  0  0  0  0
   59.4389   31.4387   46.2319 H   0  0  0  0  0  0  0  0  0  0  0  0
   59.2080   34.9660   45.3520 C   0  0  0  0  0  0  0  0  0  0  0  0
   59.4192   35.9787   44.9781 H   0  0  0  0  0  0  0  0  0  0  0  0
   59.9340   34.5040   46.5590 C   0  0  0  0  0  0  0  0  0  0  0  0
   59.3890   34.5900   47.8580 C   0  0  0  0  0  0  0  0  0  0  0  0
   58.3874   35.0210   48.0031 H   0  0  0  0  0  0  0  0  0  0  0  0
   60.1140   34.1310   48.9610 C   0  0  0  0  0  0  0  0  0  0  0  0
   59.6833   34.2080   49.9702 H   0  0  0  0  0  0  0  0  0  0  0  0
   61.3830   33.5750   48.7870 C   0  0  0  0  0  0  0  0  0  0  0  0
   61.9526   33.2199   49.6584 H   0  0  0  0  0  0  0  0  0  0  0  0
   61.9290   33.4700   47.5040 C   0  0  0  0  0  0  0  0  0  0  0  0
   63.5200   32.7640   47.2850 Cl  0  0  0  0  0  0  0  0  0  0  0  0
   61.2060   33.9280   46.3970 C   0  0  0  0  0  0  0  0  0  0  0  0
   61.6376   33.8363   45.3894 H   0  0  0  0  0  0  0  0  0  0  0  0
  1  2  1  0
  2  3  1  0
  3  4  2  0
  3  5  1  0
  5  6  2  0
  6  7  1  0
  6  8  1  0
  8  9  1  0
  8 10  2  0
 10 11  1  0
 10 12  1  0
 12 13  1  0
 12 14  2  0
 14 15  1  0
  2 16  2  0
 16 17  1  0
 16 18  1  0
 18 19  2  0
 19 20  1  0
 19 21  1  0
 21 22  1  0
 21 23  2  0
 23 24  1  0
 23 25  1  0
 25 26  1  0
 25 27  2  0
 27 28  1  0
 14  5  1  0
 27 18  1  0
M  END
>  <UniqueID>  (17) 
17

>  <SMILES>  (17) 
O=C(/C=C/c1cccc(Cl)c1)c1ccc(Br)cc1

>  <Energy>  (17) 
35.72675420233256

>  <Genealogy>  (17) 
O=C(/C=C/c1cccc(Cl)c1)c1ccc(Br)cc1 (cis-trans isomerization)
O=C(/C=C/c1cccc(Cl)c1)c1ccc(Br)cc1 (3D coordinates assigned)
O=C(/C=C/c1cccc(Cl)c1)c1ccc(Br)cc1 (optimized conformer: 35.72675420233256 kcal/mol)

>  <smiles>  (17) 
O=C(C=Cc1cccc(Cl)c1)c1ccc(Br)cc1

>  <score_type>  (17) 
oracle

>  <origin>  (17) 
adg

>  <m_score__min__energy>  (17) 
-7.8499999999999996

>  <m_primary>  (17) 
energy

$$$$
17:0
     RDKit          3D

 62 66  0  0  0  0  0  0  0  0999 V2000
   55.8960   26.5610   45.9930 C   0  0  0  0  0  0  0  0  0  0  0  0
   57.0090   27.5100   45.8940 N   0  0  0  0  0  0  0  0  0  0  0  0
   56.8850   28.7380   45.1370 C   0  0  0  0  0  0  0  0  0  0  0  0
   55.7640   29.3130   45.0590 O   0  0  0  0  0  0  0  0  0  0  0  0
   58.0610   29.3790   44.4320 C   0  0  0  0  0  0  0  0  0  0  0  0
   58.0730   30.9000   44.5430 C   0  0  0  0  0  0  0  0  0  0  0  0
   57.7300   31.6780   43.4170 C   0  0  0  0  0  0  0  0  0  0  0  0
   57.7690   33.0700   43.4640 C   0  0  0  0  0  0  0  0  0  0  0  0
   58.1190   33.7270   44.6390 C   0  0  0  0  0  0  0  0  0  0  0  0
   58.1560   35.0860   44.6470 F   0  0  0  0  0  0  0  0  0  0  0  0
   58.3940   32.9900   45.8030 C   0  0  0  0  0  0  0  0  0  0  0  0
   58.7020   33.6580   47.0010 C   0  0  0  0  0  0  0  0  0  0  0  0
   58.9320   32.9360   48.1720 C   0  0  0  0  0  0  0  0  0  0  0  0
   58.8450   31.5460   48.1660 C   0  0  0  0  0  0  0  0  0  0  0  0
   58.5470   30.8630   46.9850 C   0  0  0  0  0  0  0  0  0  0  0  0
   58.3440   31.5660   45.7750 C   0  0  0  0  0  0  0  0  0  0  0  0
   58.2850   27.1350   46.4440 C   0  0  0  0  0  0  0  0  0  0  0  0
   58.9730   26.0140   45.9520 C   0  0  0  0  0  0  0  0  0  0  0  0
   60.2170   25.6650   46.4800 C   0  0  0  0  0  0  0  0  0  0  0  0
   60.7930   26.4350   47.4950 C   0  0  0  0  0  0  0  0  0  0  0  0
   60.1270   27.5710   47.9900 C   0  0  0  0  0  0  0  0  0  0  0  0
   60.7240   28.4230   49.0440 C   0  0  0  0  0  0  0  0  0  0  0  0
   61.0350   28.0330   50.2970 N   0  0  0  0  0  0  0  0  0  0  0  0
   61.5640   29.0730   50.9200 N   0  0  0  0  0  0  0  0  0  0  0  0
   61.5520   30.0740   50.0180 C   0  0  0  0  0  0  0  0  0  0  0  0
   62.0970   31.4430   50.2750 C   0  0  0  0  0  0  0  0  0  0  0  0
   63.2170   31.7240   49.3530 N   0  0  0  0  0  0  0  0  0  0  0  0
   63.8380   33.0370   49.6220 C   0  0  0  0  0  0  0  0  0  0  0  0
   62.9110   34.2100   49.2470 C   0  0  0  0  0  0  0  0  0  0  0  0
   62.1070   33.9500   47.9620 C   0  0  0  0  0  0  0  0  0  0  0  0
   62.7320   32.8410   47.1160 C   0  0  0  0  0  0  0  0  0  0  0  0
   62.8520   31.5320   47.9210 C   0  0  0  0  0  0  0  0  0  0  0  0
   61.0430   29.6840   48.8710 O   0  0  0  0  0  0  0  0  0  0  0  0
   58.8710   27.9100   47.4570 C   0  0  0  0  0  0  0  0  0  0  0  0
   55.6709   26.3691   47.0525 H   0  0  0  0  0  0  0  0  0  0  0  0
   55.0082   26.9844   45.5004 H   0  0  0  0  0  0  0  0  0  0  0  0
   56.1737   25.6175   45.5004 H   0  0  0  0  0  0  0  0  0  0  0  0
   58.9891   28.9890   44.8753 H   0  0  0  0  0  0  0  0  0  0  0  0
   57.9764   29.1303   43.3638 H   0  0  0  0  0  0  0  0  0  0  0  0
   57.4266   31.1769   42.4860 H   0  0  0  0  0  0  0  0  0  0  0  0
   57.5212   33.6537   42.5652 H   0  0  0  0  0  0  0  0  0  0  0  0
   58.7619   34.7563   47.0150 H   0  0  0  0  0  0  0  0  0  0  0  0
   59.1828   33.4659   49.1028 H   0  0  0  0  0  0  0  0  0  0  0  0
   59.0119   30.9833   49.0963 H   0  0  0  0  0  0  0  0  0  0  0  0
   58.4693   29.7658   46.9961 H   0  0  0  0  0  0  0  0  0  0  0  0
   58.5299   25.4087   45.1475 H   0  0  0  0  0  0  0  0  0  0  0  0
   60.7464   24.7805   46.0960 H   0  0  0  0  0  0  0  0  0  0  0  0
   61.7719   26.1511   47.9086 H   0  0  0  0  0  0  0  0  0  0  0  0
   60.9080   27.0950   50.7320 H   0  0  0  0  0  0  0  0  0  0  0  0
   61.3016   32.1866   50.1188 H   0  0  0  0  0  0  0  0  0  0  0  0
   62.4612   31.4972   51.3116 H   0  0  0  0  0  0  0  0  0  0  0  0
   64.0760   33.1029   50.6939 H   0  0  0  0  0  0  0  0  0  0  0  0
   64.7447   33.1135   49.0039 H   0  0  0  0  0  0  0  0  0  0  0  0
   62.2058   34.3784   50.0743 H   0  0  0  0  0  0  0  0  0  0  0  0
   63.5473   35.0889   49.0662 H   0  0  0  0  0  0  0  0  0  0  0  0
   61.0834   33.6548   48.2360 H   0  0  0  0  0  0  0  0  0  0  0  0
   62.1057   34.8748   47.3665 H   0  0  0  0  0  0  0  0  0  0  0  0
   62.1007   32.6634   46.2328 H   0  0  0  0  0  0  0  0  0  0  0  0
   63.7403   33.1587   46.8120 H   0  0  0  0  0  0  0  0  0  0  0  0
   61.8837   31.0118   47.8791 H   0  0  0  0  0  0  0  0  0  0  0  0
   63.6680   30.9540   47.4627 H   0  0  0  0  0  0  0  0  0  0  0  0
   58.3403   28.7946   47.8390 H   0  0  0  0  0  0  0  0  0  0  0  0
  1  2  1  0
  2  3  1  0
  3  4  2  0
  3  5  1  0
  5  6  1  0
  6  7  2  0
  7  8  1  0
  8  9  2  0
  9 10  1  0
  9 11  1  0
 11 12  2  0
 12 13  1  0
 13 14  2  0
 14 15  1  0
 15 16  2  0
  2 17  1  0
 17 18  2  0
 18 19  1  0
 19 20  2  0
 20 21  1  0
 21 22  1  0
 22 23  2  0
 23 24  1  0
 24 25  2  0
 25 26  1  0
 26 27  1  0
 27 28  1  0
 28 29  1  0
 29 30  1  0
 30 31  1  0
 31 32  1  0
 25 33  1  0
 21 34  2  0
 16  6  1  0
 34 17  1  0
 16 11  1  0
 33 22  1  0
 32 27  1  0
  1 35  1  0
  1 36  1  0
  1 37  1  0
  5 38  1  0
  5 39  1  0
  7 40  1  0
  8 41  1  0
 12 42  1  0
 13 43  1  0
 14 44  1  0
 15 45  1  0
 18 46  1  0
 19 47  1  0
 20 48  1  0
 23 49  1  0
 26 50  1  0
 26 51  1  0
 28 52  1  0
 28 53  1  0
 29 54  1  0
 29 55  1  0
 30 56  1  0
 30 57  1  0
 31 58  1  0
 31 59  1  0
 32 60  1  0
 32 61  1  0
 34 62  1  0
M  CHG  1  23   1
M  END
>  <UniqueID>  (18) 
18

>  <SMILES>  (18) 
CN(C(=O)Cc1ccc(F)c2ccccc12)c1cccc(-c2[nH+]nc(CN3CCCCC3)o2)c1

>  <Energy>  (18) 
126.68208520121206

>  <Genealogy>  (18) 
CN(C(=O)Cc1ccc(F)c2ccccc12)c1cccc(-c2[nH+]nc(CN3CCCCC3)o2)c1 (protonated)
CN(C(=O)Cc1ccc(F)c2ccccc12)c1cccc(-c2[nH+]nc(CN3CCCCC3)o2)c1 (3D coordinates assigned)
CN(C(=O)Cc1ccc(F)c2ccccc12)c1cccc(-c2[nH+]nc(CN3CCCCC3)o2)c1 (nonaromatic ring conformer: 126.68208520121206 kcal/mol)

>  <smiles>  (18) 
CN(C(=O)Cc1ccc(F)c2ccccc12)c1cccc(-c2nnc(CN3CCCCC3)o2)c1

>  <score_type>  (18) 
oracle

>  <origin>  (18) 
adg

>  <m_score__min__energy>  (18) 
-8.5999999999999996

>  <m_primary>  (18) 
energy

$$$$
18:0
     RDKit          3D

 45 47  0  0  0  0  0  0  0  0999 V2000
   56.5800   23.5050   43.4440 C   0  0  0  0  0  0  0  0  0  0  0  0
   56.9910   23.7950   44.7770 O   0  0  0  0  0  0  0  0  0  0  0  0
   57.3560   25.0700   45.2340 C   0  0  0  0  0  0  0  0  0  0  0  0
   57.7520   26.0280   44.2920 C   0  0  0  0  0  0  0  0  0  0  0  0
   58.1230   27.3120   44.6970 C   0  0  0  0  0  0  0  0  0  0  0  0
   58.1000   27.6550   46.0560 C   0  0  0  0  0  0  0  0  0  0  0  0
   58.5490   29.2710   46.5870 S   0  0  0  0  0  0  0  0  0  0  0  0
   58.5120   29.3180   48.0870 O   0  0  0  0  0  0  0  0  0  0  0  0
   59.9370   29.6250   46.1310 O   0  0  0  0  0  0  0  0  0  0  0  0
   57.4220   30.4260   45.9520 N   0  0  0  0  0  0  0  0  0  0  0  0
   57.4120   30.9310   44.6080 C   0  0  0  0  0  0  0  0  0  0  0  0
   56.8370   30.2030   43.5500 C   0  0  0  0  0  0  0  0  0  0  0  0
   56.8290   30.7240   42.2540 C   0  0  0  0  0  0  0  0  0  0  0  0
   57.3890   31.9760   41.9990 C   0  0  0  0  0  0  0  0  0  0  0  0
   57.9660   32.7090   43.0360 C   0  0  0  0  0  0  0  0  0  0  0  0
   58.0030   32.1860   44.3390 C   0  0  0  0  0  0  0  0  0  0  0  0
   58.6040   32.9810   45.4350 C   0  0  0  0  0  0  0  0  0  0  0  0
   58.6980   34.2280   45.2770 O   0  0  0  0  0  0  0  0  0  0  0  0
   59.0950   32.3800   46.6640 N   0  0  0  0  0  0  0  0  0  0  0  0
   58.5620   33.0530   47.8590 C   0  0  0  0  0  0  0  0  0  0  0  0
   59.6510   33.9720   48.4110 C   0  0  0  0  0  0  0  0  0  0  0  0
   60.9020   33.6690   47.6050 C   0  0  0  0  0  0  0  0  0  0  0  0
   60.5600   32.4380   46.7830 C   0  0  0  0  0  0  0  0  0  0  0  0
   57.7070   26.7020   47.0020 C   0  0  0  0  0  0  0  0  0  0  0  0
   57.3380   25.4170   46.5980 C   0  0  0  0  0  0  0  0  0  0  0  0
   55.6814   22.8710   43.4671 H   0  0  0  0  0  0  0  0  0  0  0  0
   56.3528   24.4439   42.9179 H   0  0  0  0  0  0  0  0  0  0  0  0
   57.3884   22.9762   42.9179 H   0  0  0  0  0  0  0  0  0  0  0  0
   57.7709   25.7666   43.2237 H   0  0  0  0  0  0  0  0  0  0  0  0
   58.4338   28.0555   43.9483 H   0  0  0  0  0  0  0  0  0  0  0  0
   56.3907   29.2167   43.7449 H   0  0  0  0  0  0  0  0  0  0  0  0
   56.3802   30.1459   41.4328 H   0  0  0  0  0  0  0  0  0  0  0  0
   57.3755   32.3859   40.9783 H   0  0  0  0  0  0  0  0  0  0  0  0
   58.3942   33.7016   42.8323 H   0  0  0  0  0  0  0  0  0  0  0  0
   58.8000   31.3740   46.6780 H   0  0  0  0  0  0  0  0  0  0  0  0
   57.6754   33.6456   47.5891 H   0  0  0  0  0  0  0  0  0  0  0  0
   58.2696   32.3106   48.6162 H   0  0  0  0  0  0  0  0  0  0  0  0
   59.3615   35.0258   48.2859 H   0  0  0  0  0  0  0  0  0  0  0  0
   59.8135   33.8041   49.4859 H   0  0  0  0  0  0  0  0  0  0  0  0
   61.1509   34.5148   46.9472 H   0  0  0  0  0  0  0  0  0  0  0  0
   61.7760   33.5010   48.2514 H   0  0  0  0  0  0  0  0  0  0  0  0
   61.0153   32.5145   45.7846 H   0  0  0  0  0  0  0  0  0  0  0  0
   60.9461   31.5288   47.2671 H   0  0  0  0  0  0  0  0  0  0  0  0
   57.6886   26.9662   48.0696 H   0  0  0  0  0  0  0  0  0  0  0  0
   57.0322   24.6733   47.3486 H   0  0  0  0  0  0  0  0  0  0  0  0
  1  2  1  0
  2  3  1  0
  3  4  2  0
  4  5  1  0
  5  6  2  0
  6  7  1  0
  7  8  2  0
  7  9  2  0
  7 10  1  0
 10 11  1  0
 11 12  2  0
 12 13  1  0
 13 14  2  0
 14 15  1  0
 15 16  2  0
 16 17  1  0
 17 18  2  0
 17 19  1  0
 19 20  1  0
 20 21  1  0
 21 22  1  0
 22 23  1  0
  6 24  1  0
 24 25  2  0
 25  3  1  0
 16 11  1  0
 23 19  1  0
  1 26  1  0
  1 27  1  0
  1 28  1  0
  4 29  1  0
  5 30  1  0
 12 31  1  0
 13 32  1  0
 14 33  1  0
 15 34  1  0
 19 35  1  0
 20 36  1  0
 20 37  1  0
 21 38  1  0
 21 39  1  0
 22 40  1  0
 22 41  1  0
 23 42  1  0
 23 43  1  0
 24 44  1  0
 25 45  1  0
M  CHG  2  10  -1  19   1
M  END
>  <UniqueID>  (19) 
19

>  <SMILES>  (19) 
COc1ccc(S(=O)(=O)[N-]c2ccccc2C(=O)[NH+]2CCCC2)cc1

>  <Energy>  (19) 
61.79053305316849

>  <Genealogy>  (19) 
COc1ccc(S(=O)(=O)[N-]c2ccccc2C(=O)[NH+]2CCCC2)cc1 (protonated)
COc1ccc(S(=O)(=O)[N-]c2ccccc2C(=O)[NH+]2CCCC2)cc1 (3D coordinates assigned)
COc1ccc(S(=O)(=O)[N-]c2ccccc2C(=O)[NH+]2CCCC2)cc1 (nonaromatic ring conformer: 61.79053305316849 kcal/mol)

>  <smiles>  (19) 
COc1ccc(S(=O)(=O)Nc2ccccc2C(=O)N2CCCC2)cc1

>  <score_type>  (19) 
oracle

>  <origin>  (19) 
adg

>  <m_score__min__energy>  (19) 
-6.7599999999999998

>  <m_primary>  (19) 
energy

$$$$
19:0
     RDKit          3D

 46 48  0  0  0  0  0  0  0  0999 V2000
   63.3870   33.5110   46.6690 C   0  0  0  0  0  0  0  0  0  0  0  0
   62.2020   32.7270   46.7530 O   0  0  0  0  0  0  0  0  0  0  0  0
   61.6290   32.2690   47.9520 C   0  0  0  0  0  0  0  0  0  0  0  0
   61.8510   30.9600   48.4200 C   0  0  0  0  0  0  0  0  0  0  0  0
   61.2800   30.5300   49.6160 C   0  0  0  0  0  0  0  0  0  0  0  0
   60.4850   31.3940   50.3650 C   0  0  0  0  0  0  0  0  0  0  0  0
   60.2470   32.7080   49.9230 C   0  0  0  0  0  0  0  0  0  0  0  0
   59.4580   33.6040   50.6640 O   0  0  0  0  0  0  0  0  0  0  0  0
   59.1920   33.4870   52.0580 C   0  0  0  0  0  0  0  0  0  0  0  0
   60.8150   33.1450   48.7060 C   0  0  0  0  0  0  0  0  0  0  0  0
   60.5740   34.5680   48.2430 C   0  0  0  0  0  0  0  0  0  0  0  0
   59.3370   34.6600   47.4390 N   0  0  0  0  0  0  0  0  0  0  0  0
   59.6350   34.7130   45.9840 C   0  0  0  0  0  0  0  0  0  0  0  0
   58.4790   34.1930   45.1240 C   0  0  0  0  0  0  0  0  0  0  0  0
   58.1710   32.8080   45.5000 N   0  0  0  0  0  0  0  0  0  0  0  0
   57.6260   31.8990   44.5200 C   0  0  0  0  0  0  0  0  0  0  0  0
   57.7580   32.1450   43.1400 C   0  0  0  0  0  0  0  0  0  0  0  0
   57.2140   31.2420   42.2250 C   0  0  0  0  0  0  0  0  0  0  0  0
   56.5420   30.1070   42.6810 C   0  0  0  0  0  0  0  0  0  0  0  0
   56.4210   29.8950   44.0540 C   0  0  0  0  0  0  0  0  0  0  0  0
   56.9570   30.7840   44.9320 N   0  0  0  0  0  0  0  0  0  0  0  0
   58.3690   32.3960   46.8970 C   0  0  0  0  0  0  0  0  0  0  0  0
   58.3530   33.6170   47.8280 C   0  0  0  0  0  0  0  0  0  0  0  0
   63.7433   33.7467   47.6826 H   0  0  0  0  0  0  0  0  0  0  0  0
   64.1623   32.9470   46.1297 H   0  0  0  0  0  0  0  0  0  0  0  0
   63.1712   34.4451   46.1297 H   0  0  0  0  0  0  0  0  0  0  0  0
   62.4801   30.2713   47.8370 H   0  0  0  0  0  0  0  0  0  0  0  0
   61.4579   29.5038   49.9701 H   0  0  0  0  0  0  0  0  0  0  0  0
   60.0400   31.0464   51.3090 H   0  0  0  0  0  0  0  0  0  0  0  0
   60.0528   33.8656   52.6286 H   0  0  0  0  0  0  0  0  0  0  0  0
   58.2972   34.0746   52.3111 H   0  0  0  0  0  0  0  0  0  0  0  0
   59.0205   32.4304   52.3111 H   0  0  0  0  0  0  0  0  0  0  0  0
   60.4810   35.2218   49.1227 H   0  0  0  0  0  0  0  0  0  0  0  0
   61.4229   34.8822   47.6180 H   0  0  0  0  0  0  0  0  0  0  0  0
   59.8394   35.7571   45.7046 H   0  0  0  0  0  0  0  0  0  0  0  0
   60.5041   34.0645   45.7992 H   0  0  0  0  0  0  0  0  0  0  0  0
   57.5911   34.8222   45.2847 H   0  0  0  0  0  0  0  0  0  0  0  0
   58.7678   34.2283   44.0632 H   0  0  0  0  0  0  0  0  0  0  0  0
   58.2861   33.0424   42.7854 H   0  0  0  0  0  0  0  0  0  0  0  0
   57.3149   31.4249   41.1450 H   0  0  0  0  0  0  0  0  0  0  0  0
   56.1133   29.3888   41.9665 H   0  0  0  0  0  0  0  0  0  0  0  0
   55.8907   29.0066   44.4275 H   0  0  0  0  0  0  0  0  0  0  0  0
   57.5617   31.7082   47.1889 H   0  0  0  0  0  0  0  0  0  0  0  0
   59.3450   31.8962   46.9844 H   0  0  0  0  0  0  0  0  0  0  0  0
   57.3464   34.0601   47.8068 H   0  0  0  0  0  0  0  0  0  0  0  0
   58.6276   33.2660   48.8337 H   0  0  0  0  0  0  0  0  0  0  0  0
  1  2  1  0
  2  3  1  0
  3  4  2  0
  4  5  1  0
  5  6  2  0
  6  7  1  0
  7  8  1  0
  8  9  1  0
  7 10  2  0
 10 11  1  0
 11 12  1  0
 12 13  1  0
 13 14  1  0
 14 15  1  0
 15 16  1  0
 16 17  2  0
 17 18  1  0
 18 19  2  0
 19 20  1  0
 20 21  2  0
 15 22  1  0
 22 23  1  0
 10  3  1  0
 23 12  1  0
 21 16  1  0
  1 24  1  0
  1 25  1  0
  1 26  1  0
  4 27  1  0
  5 28  1  0
  6 29  1  0
  9 30  1  0
  9 31  1  0
  9 32  1  0
 11 33  1  0
 11 34  1  0
 13 35  1  0
 13 36  1  0
 14 37  1  0
 14 38  1  0
 17 39  1  0
 18 40  1  0
 19 41  1  0
 20 42  1  0
 22 43  1  0
 22 44  1  0
 23 45  1  0
 23 46  1  0
M  END
>  <UniqueID>  (20) 
20

>  <SMILES>  (20) 
COc1cccc(OC)c1CN1CCN(c2ccccn2)CC1

>  <Energy>  (20) 
57.17548977393738

>  <Genealogy>  (20) 
COc1cccc(OC)c1CN1CCN(c2ccccn2)CC1 (3D coordinates assigned)
COc1cccc(OC)c1CN1CCN(c2ccccn2)CC1 (nonaromatic ring conformer: 57.17548977393738 kcal/mol)

>  <smiles>  (20) 
COc1cccc(OC)c1CN1CCN(c2ccccn2)CC1

>  <score_type>  (20) 
oracle

>  <origin>  (20) 
adg

>  <m_score__min__energy>  (20) 
-6.7300000000000004

>  <m_primary>  (20) 
energy

$$$$
20:0
     RDKit          3D

 44 47  0  0  0  0  0  0  0  0999 V2000
   60.8380   28.6420   44.9620 C   0  0  0  0  0  0  0  0  0  0  0  0
   60.4450   27.4120   45.7750 C   0  0  0  0  0  0  0  0  0  0  0  0
   60.2710   27.7640   47.2610 C   0  0  0  0  0  0  0  0  0  0  0  0
   58.8140   28.1170   47.6070 C   0  0  0  0  0  0  0  0  0  0  0  0
   58.1470   29.0510   46.6170 C   0  0  0  0  0  0  0  0  0  0  0  0
   58.4520   30.3770   46.6510 N   0  0  0  0  0  0  0  0  0  0  0  0
   57.9030   31.2660   45.7860 C   0  0  0  0  0  0  0  0  0  0  0  0
   58.2760   32.6840   45.8470 C   0  0  0  0  0  0  0  0  0  0  0  0
   58.5310   33.5050   44.7660 C   0  0  0  0  0  0  0  0  0  0  0  0
   58.8360   34.7380   45.3010 C   0  0  0  0  0  0  0  0  0  0  0  0
   58.7470   34.5940   46.6710 C   0  0  0  0  0  0  0  0  0  0  0  0
   58.4110   33.3600   46.9660 O   0  0  0  0  0  0  0  0  0  0  0  0
   57.0130   30.8380   44.8580 N   0  0  0  0  0  0  0  0  0  0  0  0
   56.6520   29.5310   44.7840 C   0  0  0  0  0  0  0  0  0  0  0  0
   57.1960   28.5900   45.6740 C   0  0  0  0  0  0  0  0  0  0  0  0
   56.7420   27.1780   45.6120 C   0  0  0  0  0  0  0  0  0  0  0  0
   57.3440   26.1450   44.9180 C   0  0  0  0  0  0  0  0  0  0  0  0
   56.5320   25.0540   45.1710 C   0  0  0  0  0  0  0  0  0  0  0  0
   56.7120   23.6690   44.6760 C   0  0  0  0  0  0  0  0  0  0  0  0
   57.6100   22.7780   45.2910 C   0  0  0  0  0  0  0  0  0  0  0  0
   57.7580   21.4790   44.8010 C   0  0  0  0  0  0  0  0  0  0  0  0
   57.0060   21.0740   43.6980 C   0  0  0  0  0  0  0  0  0  0  0  0
   56.1410   21.9420   43.1100 N   0  0  0  0  0  0  0  0  0  0  0  0
   55.9790   23.2120   43.5680 C   0  0  0  0  0  0  0  0  0  0  0  0
   55.5120   25.4390   45.9670 N   0  0  0  0  0  0  0  0  0  0  0  0
   55.6690   26.7070   46.2060 O   0  0  0  0  0  0  0  0  0  0  0  0
   61.1006   29.4639   45.6443 H   0  0  0  0  0  0  0  0  0  0  0  0
   61.7039   28.4010   44.3278 H   0  0  0  0  0  0  0  0  0  0  0  0
   59.9928   28.9477   44.3278 H   0  0  0  0  0  0  0  0  0  0  0  0
   59.4964   27.0127   45.3868 H   0  0  0  0  0  0  0  0  0  0  0  0
   61.2453   26.6628   45.6846 H   0  0  0  0  0  0  0  0  0  0  0  0
   60.5803   26.9006   47.8683 H   0  0  0  0  0  0  0  0  0  0  0  0
   60.8924   28.6462   47.4745 H   0  0  0  0  0  0  0  0  0  0  0  0
   58.2331   27.1837   47.6454 H   0  0  0  0  0  0  0  0  0  0  0  0
   58.8382   28.6452   48.5716 H   0  0  0  0  0  0  0  0  0  0  0  0
   58.4976   33.2319   43.7010 H   0  0  0  0  0  0  0  0  0  0  0  0
   59.0975   35.6522   44.7480 H   0  0  0  0  0  0  0  0  0  0  0  0
   58.9301   35.3929   47.4047 H   0  0  0  0  0  0  0  0  0  0  0  0
   55.9284   29.2067   44.0216 H   0  0  0  0  0  0  0  0  0  0  0  0
   58.2574   26.1820   44.3062 H   0  0  0  0  0  0  0  0  0  0  0  0
   58.1978   23.1058   46.1611 H   0  0  0  0  0  0  0  0  0  0  0  0
   58.4609   20.7816   45.2801 H   0  0  0  0  0  0  0  0  0  0  0  0
   57.1131   20.0525   43.3043 H   0  0  0  0  0  0  0  0  0  0  0  0
   55.2688   23.8865   43.0673 H   0  0  0  0  0  0  0  0  0  0  0  0
  1  2  1  0
  2  3  1  0
  3  4  1  0
  4  5  1  0
  5  6  2  0
  6  7  1  0
  7  8  1  0
  8  9  2  0
  9 10  1  0
 10 11  2  0
 11 12  1  0
  7 13  2  0
 13 14  1  0
 14 15  2  0
 15 16  1  0
 16 17  2  0
 17 18  1  0
 18 19  1  0
 19 20  2  0
 20 21  1  0
 21 22  2  0
 22 23  1  0
 23 24  2  0
 18 25  2  0
 25 26  1  0
 15  5  1  0
 26 16  1  0
 12  8  1  0
 24 19  1  0
  1 27  1  0
  1 28  1  0
  1 29  1  0
  2 30  1  0
  2 31  1  0
  3 32  1  0
  3 33  1  0
  4 34  1  0
  4 35  1  0
  9 36  1  0
 10 37  1  0
 11 38  1  0
 14 39  1  0
 17 40  1  0
 20 41  1  0
 21 42  1  0
 22 43  1  0
 24 44  1  0
M  END
>  <UniqueID>  (21) 
21

>  <SMILES>  (21) 
CCCCc1nc(-c2ccco2)ncc1-c1cc(-c2cccnc2)no1

>  <Energy>  (21) 
105.14219149146277

>  <Genealogy>  (21) 
CCCCc1nc(-c2ccco2)ncc1-c1cc(-c2cccnc2)no1 (3D coordinates assigned)
CCCCc1nc(-c2ccco2)ncc1-c1cc(-c2cccnc2)no1 (optimized conformer: 105.14219149146277 kcal/mol)

>  <smiles>  (21) 
CCCCc1nc(-c2ccco2)ncc1-c1cc(-c2cccnc2)no1

>  <score_type>  (21) 
oracle

>  <origin>  (21) 
adg

>  <m_score__min__energy>  (21) 
-9.3499999999999996

>  <m_primary>  (21) 
energy

$$$$
21:0
     RDKit          3D

 47 49  0  0  0  0  0  0  0  0999 V2000
   57.0750   21.4130   43.0290 C   0  0  0  0  0  0  0  0  0  0  0  0
   55.9300   22.1580   43.3740 O   0  0  0  0  0  0  0  0  0  0  0  0
   56.1280   23.5140   43.0290 C   0  0  0  0  0  0  0  0  0  0  0  0
   57.2770   24.0730   43.8640 C   0  0  0  0  0  0  0  0  0  0  0  0
   56.7690   24.9310   44.9340 N   0  0  0  0  0  0  0  0  0  0  0  0
   55.7960   24.5980   45.7620 N   0  0  0  0  0  0  0  0  0  0  0  0
   55.5500   25.6250   46.5630 N   0  0  0  0  0  0  0  0  0  0  0  0
   56.3480   26.6410   46.2600 N   0  0  0  0  0  0  0  0  0  0  0  0
   57.1100   26.1960   45.2440 C   0  0  0  0  0  0  0  0  0  0  0  0
   58.1110   27.0400   44.5120 C   0  0  0  0  0  0  0  0  0  0  0  0
   57.7440   28.4630   44.6400 N   0  0  0  0  0  0  0  0  0  0  0  0
   58.9310   29.3080   44.8990 C   0  0  0  0  0  0  0  0  0  0  0  0
   58.5810   30.8100   44.8450 C   0  0  0  0  0  0  0  0  0  0  0  0
   57.1190   31.0000   44.8880 N   0  0  0  0  0  0  0  0  0  0  0  0
   56.7820   32.4360   44.9780 C   0  0  0  0  0  0  0  0  0  0  0  0
   57.7900   33.1570   45.8310 C   0  0  0  0  0  0  0  0  0  0  0  0
   58.0190   32.7400   47.1530 C   0  0  0  0  0  0  0  0  0  0  0  0
   58.9370   33.4210   47.9580 C   0  0  0  0  0  0  0  0  0  0  0  0
   59.6210   34.5310   47.4550 C   0  0  0  0  0  0  0  0  0  0  0  0
   59.3900   34.9610   46.1450 C   0  0  0  0  0  0  0  0  0  0  0  0
   60.0500   36.0420   45.6600 F   0  0  0  0  0  0  0  0  0  0  0  0
   58.4780   34.2770   45.3340 C   0  0  0  0  0  0  0  0  0  0  0  0
   56.4870   30.3740   43.7030 C   0  0  0  0  0  0  0  0  0  0  0  0
   57.0210   28.9480   43.4530 C   0  0  0  0  0  0  0  0  0  0  0  0
   57.5858   21.0806   43.9447 H   0  0  0  0  0  0  0  0  0  0  0  0
   56.7767   20.5355   42.4365 H   0  0  0  0  0  0  0  0  0  0  0  0
   57.7564   22.0412   42.4365 H   0  0  0  0  0  0  0  0  0  0  0  0
   56.3766   23.5907   41.9602 H   0  0  0  0  0  0  0  0  0  0  0  0
   55.2101   24.0871   43.2265 H   0  0  0  0  0  0  0  0  0  0  0  0
   57.8406   23.2387   44.3071 H   0  0  0  0  0  0  0  0  0  0  0  0
   57.9301   24.6709   43.2113 H   0  0  0  0  0  0  0  0  0  0  0  0
   59.1104   26.8792   44.9425 H   0  0  0  0  0  0  0  0  0  0  0  0
   58.1193   26.7584   43.4487 H   0  0  0  0  0  0  0  0  0  0  0  0
   59.3283   29.0696   45.8967 H   0  0  0  0  0  0  0  0  0  0  0  0
   59.6783   29.1003   44.1190 H   0  0  0  0  0  0  0  0  0  0  0  0
   59.0380   31.3197   45.7060 H   0  0  0  0  0  0  0  0  0  0  0  0
   58.9679   31.2326   43.9060 H   0  0  0  0  0  0  0  0  0  0  0  0
   56.7825   32.8727   43.9684 H   0  0  0  0  0  0  0  0  0  0  0  0
   55.7866   32.5418   45.4341 H   0  0  0  0  0  0  0  0  0  0  0  0
   57.4737   31.8740   47.5563 H   0  0  0  0  0  0  0  0  0  0  0  0
   59.1211   33.0828   48.9884 H   0  0  0  0  0  0  0  0  0  0  0  0
   60.3417   35.0667   48.0903 H   0  0  0  0  0  0  0  0  0  0  0  0
   58.2988   34.6172   44.3034 H   0  0  0  0  0  0  0  0  0  0  0  0
   55.4001   30.3237   43.8644 H   0  0  0  0  0  0  0  0  0  0  0  0
   56.7288   30.9881   42.8230 H   0  0  0  0  0  0  0  0  0  0  0  0
   56.1768   28.2753   43.2412 H   0  0  0  0  0  0  0  0  0  0  0  0
   57.7092   28.9666   42.5951 H   0  0  0  0  0  0  0  0  0  0  0  0
  1  2  1  0
  2  3  1  0
  3  4  1  0
  4  5  1  0
  5  6  1  0
  6  7  2  0
  7  8  1  0
  8  9  2  0
  9 10  1  0
 10 11  1  0
 11 12  1  0
 12 13  1  0
 13 14  1  0
 14 15  1  0
 15 16  1  0
 16 17  2  0
 17 18  1  0
 18 19  2  0
 19 20  1  0
 20 21  1  0
 20 22  2  0
 14 23  1  0
 23 24  1  0
  9  5  1  0
 24 11  1  0
 22 16  1  0
  1 25  1  0
  1 26  1  0
  1 27  1  0
  3 28  1  0
  3 29  1  0
  4 30  1  0
  4 31  1  0
 10 32  1  0
 10 33  1  0
 12 34  1  0
 12 35  1  0
 13 36  1  0
 13 37  1  0
 15 38  1  0
 15 39  1  0
 17 40  1  0
 18 41  1  0
 19 42  1  0
 22 43  1  0
 23 44  1  0
 23 45  1  0
 24 46  1  0
 24 47  1  0
M  END
>  <UniqueID>  (22) 
22

>  <SMILES>  (22) 
COCCn1nnnc1CN1CCN(Cc2cccc(F)c2)CC1

>  <Energy>  (22) 
90.20434410557127

>  <Genealogy>  (22) 
COCCn1nnnc1CN1CCN(Cc2cccc(F)c2)CC1 (3D coordinates assigned)
COCCn1nnnc1CN1CCN(Cc2cccc(F)c2)CC1 (nonaromatic ring conformer: 90.20434410557127 kcal/mol)

>  <smiles>  (22) 
COCCn1nnnc1CN1CCN(Cc2cccc(F)c2)CC1

>  <score_type>  (22) 
oracle

>  <origin>  (22) 
adg

>  <m_score__min__energy>  (22) 
-8.8499999999999996

>  <m_primary>  (22) 
energy

$$$$
22:0
     RDKit          3D

 69 72  0  0  0  0  0  0  0  0999 V2000
   60.3800   28.9450   50.0530 C   0  0  0  0  0  0  0  0  0  0  0  0
   60.1860   30.3000   49.6640 O   0  0  0  0  0  0  0  0  0  0  0  0
   59.5070   31.2610   50.4310 C   0  0  0  0  0  0  0  0  0  0  0  0
   58.1780   31.0680   50.8580 C   0  0  0  0  0  0  0  0  0  0  0  0
   57.5360   32.0360   51.6330 C   0  0  0  0  0  0  0  0  0  0  0  0
   58.2090   33.2030   51.9950 C   0  0  0  0  0  0  0  0  0  0  0  0
   59.5250   33.4080   51.5780 C   0  0  0  0  0  0  0  0  0  0  0  0
   60.1810   32.4450   50.7940 C   0  0  0  0  0  0  0  0  0  0  0  0
   61.5330   32.6810   50.3630 N   0  0  0  0  0  0  0  0  0  0  0  0
   61.9380   34.0020   49.8750 C   0  0  0  0  0  0  0  0  0  0  0  0
   62.4420   33.8810   48.4280 C   0  0  0  0  0  0  0  0  0  0  0  0
   63.3580   32.7250   48.1990 N   0  0  0  0  0  0  0  0  0  0  0  0
   62.8800   31.8180   47.1260 C   0  0  0  0  0  0  0  0  0  0  0  0
   61.5700   31.0980   47.5110 C   0  0  1  0  0  0  0  0  0  0  0  0
   60.5540   32.0390   47.7390 O   0  0  0  0  0  0  0  0  0  0  0  0
   61.1130   30.0890   46.4370 C   0  0  0  0  0  0  0  0  0  0  0  0
   59.6890   30.0080   46.3540 O   0  0  0  0  0  0  0  0  0  0  0  0
   58.9220   28.8290   46.3660 C   0  0  0  0  0  0  0  0  0  0  0  0
   59.3010   27.7030   47.1260 C   0  0  0  0  0  0  0  0  0  0  0  0
   58.5160   26.5480   47.1210 C   0  0  0  0  0  0  0  0  0  0  0  0
   57.3460   26.5000   46.3650 C   0  0  0  0  0  0  0  0  0  0  0  0
   56.9510   27.6080   45.6150 C   0  0  0  0  0  0  0  0  0  0  0  0
   57.7240   28.7850   45.6130 C   0  0  0  0  0  0  0  0  0  0  0  0
   57.2780   29.9620   44.8220 C   0  0  0  0  0  0  0  0  0  0  0  0
   56.0650   30.3120   44.8580 O   0  0  0  0  0  0  0  0  0  0  0  0
   58.2440   30.7680   43.9910 C   0  0  0  0  0  0  0  0  0  0  0  0
   57.8030   32.2330   43.8800 C   0  0  0  0  0  0  0  0  0  0  0  0
   58.2110   33.0040   45.1080 C   0  0  0  0  0  0  0  0  0  0  0  0
   57.6200   32.7240   46.3510 C   0  0  0  0  0  0  0  0  0  0  0  0
   58.0190   33.4230   47.4940 C   0  0  0  0  0  0  0  0  0  0  0  0
   59.0160   34.3990   47.4060 C   0  0  0  0  0  0  0  0  0  0  0  0
   59.4020   35.0760   48.5170 F   0  0  0  0  0  0  0  0  0  0  0  0
   59.6190   34.6730   46.1750 C   0  0  0  0  0  0  0  0  0  0  0  0
   59.2220   33.9760   45.0290 C   0  0  0  0  0  0  0  0  0  0  0  0
   63.7100   31.9790   49.4300 C   0  0  0  0  0  0  0  0  0  0  0  0
   62.4600   31.5530   50.2120 C   0  0  0  0  0  0  0  0  0  0  0  0
   60.3898   28.8765   51.1508 H   0  0  0  0  0  0  0  0  0  0  0  0
   59.5610   28.3282   49.6544 H   0  0  0  0  0  0  0  0  0  0  0  0
   61.3392   28.5828   49.6544 H   0  0  0  0  0  0  0  0  0  0  0  0
   57.6427   30.1485   50.5789 H   0  0  0  0  0  0  0  0  0  0  0  0
   56.4973   31.8780   51.9588 H   0  0  0  0  0  0  0  0  0  0  0  0
   57.7023   33.9619   52.6093 H   0  0  0  0  0  0  0  0  0  0  0  0
   60.0519   34.3299   51.8653 H   0  0  0  0  0  0  0  0  0  0  0  0
   61.0763   34.6849   49.9073 H   0  0  0  0  0  0  0  0  0  0  0  0
   62.7430   34.3973   50.5119 H   0  0  0  0  0  0  0  0  0  0  0  0
   61.5705   33.7681   47.7664 H   0  0  0  0  0  0  0  0  0  0  0  0
   63.0201   34.7923   48.2151 H   0  0  0  0  0  0  0  0  0  0  0  0
   62.7048   32.4088   46.2148 H   0  0  0  0  0  0  0  0  0  0  0  0
   63.6516   31.0509   46.9639 H   0  0  0  0  0  0  0  0  0  0  0  0
   61.7715   30.5304   48.4314 H   0  0  0  0  0  0  0  0  0  0  0  0
   59.7240   31.5280   47.9200 H   0  0  0  0  0  0  0  0  0  0  0  0
   61.5088   30.4052   45.4606 H   0  0  0  0  0  0  0  0  0  0  0  0
   61.4953   29.0963   46.7171 H   0  0  0  0  0  0  0  0  0  0  0  0
   60.2217   27.7348   47.7271 H   0  0  0  0  0  0  0  0  0  0  0  0
   58.8217   25.6741   47.7150 H   0  0  0  0  0  0  0  0  0  0  0  0
   56.7329   25.5867   46.3597 H   0  0  0  0  0  0  0  0  0  0  0  0
   56.0272   27.5618   45.0197 H   0  0  0  0  0  0  0  0  0  0  0  0
   59.2383   30.7285   44.4598 H   0  0  0  0  0  0  0  0  0  0  0  0
   58.2711   30.3379   42.9789 H   0  0  0  0  0  0  0  0  0  0  0  0
   58.2742   32.6863   42.9954 H   0  0  0  0  0  0  0  0  0  0  0  0
   56.7075   32.2675   43.7874 H   0  0  0  0  0  0  0  0  0  0  0  0
   56.8402   31.9517   46.4254 H   0  0  0  0  0  0  0  0  0  0  0  0
   57.5479   33.2048   48.4638 H   0  0  0  0  0  0  0  0  0  0  0  0
   60.4068   35.4378   46.1074 H   0  0  0  0  0  0  0  0  0  0  0  0
   59.7030   34.1897   44.0631 H   0  0  0  0  0  0  0  0  0  0  0  0
   64.2799   31.0803   49.1516 H   0  0  0  0  0  0  0  0  0  0  0  0
   64.3080   32.6412   50.0733 H   0  0  0  0  0  0  0  0  0  0  0  0
   61.9545   30.7403   49.6699 H   0  0  0  0  0  0  0  0  0  0  0  0
   62.7674   31.2117   51.2115 H   0  0  0  0  0  0  0  0  0  0  0  0
  1  2  1  0
  2  3  1  0
  3  4  2  0
  4  5  1  0
  5  6  2  0
  6  7  1  0
  7  8  2  0
  8  9  1  0
  9 10  1  0
 10 11  1  0
 11 12  1  0
 12 13  1  0
 13 14  1  0
 14 15  1  0
 14 16  1  0
 16 17  1  0
 17 18  1  0
 18 19  2  0
 19 20  1  0
 20 21  2  0
 21 22  1  0
 22 23  2  0
 23 24  1  0
 24 25  2  0
 24 26  1  0
 26 27  1  0
 27 28  1  0
 28 29  2  0
 29 30  1  0
 30 31  2  0
 31 32  1  0
 31 33  1  0
 33 34  2  0
 12 35  1  0
 35 36  1  0
  8  3  1  0
 36  9  1  0
 23 18  1  0
 34 28  1  0
  1 37  1  0
  1 38  1  0
  1 39  1  0
  4 40  1  0
  5 41  1  0
  6 42  1  0
  7 43  1  0
 10 44  1  0
 10 45  1  0
 11 46  1  0
 11 47  1  0
 13 48  1  0
 13 49  1  0
 14 50  1  1
 15 51  1  0
 16 52  1  0
 16 53  1  0
 19 54  1  0
 20 55  1  0
 21 56  1  0
 22 57  1  0
 26 58  1  0
 26 59  1  0
 27 60  1  0
 27 61  1  0
 29 62  1  0
 30 63  1  0
 33 64  1  0
 34 65  1  0
 35 66  1  0
 35 67  1  0
 36 68  1  0
 36 69  1  0
M  END
>  <UniqueID>  (23) 
23

>  <SMILES>  (23) 
COc1ccccc1N1CCN(C[C@@H](O)COc2ccccc2C(=O)CCc2ccc(F)cc2)CC1

>  <Energy>  (23) 
85.1902541543679

>  <Genealogy>  (23) 
COc1ccccc1N1CCN(C[C@@H](O)COc2ccccc2C(=O)CCc2ccc(F)cc2)CC1 (chirality)
COc1ccccc1N1CCN(C[C@@H](O)COc2ccccc2C(=O)CCc2ccc(F)cc2)CC1 (3D coordinates assigned)
COc1ccccc1N1CCN(C[C@@H](O)COc2ccccc2C(=O)CCc2ccc(F)cc2)CC1 (nonaromatic ring conformer: 85.1902541543679 kcal/mol)

>  <smiles>  (23) 
COc1ccccc1N1CCN(CC(O)COc2ccccc2C(=O)CCc2ccc(F)cc2)CC1

>  <score_type>  (23) 
oracle

>  <origin>  (23) 
adg

>  <m_score__min__energy>  (23) 
-9.8800000000000008

>  <m_primary>  (23) 
energy

$$$$
23:0
     RDKit          3D

 56 58  0  0  0  0  0  0  0  0999 V2000
   59.5780   30.2300   45.9850 C   0  0  0  0  0  0  0  0  0  0  0  0
   58.1740   30.6290   46.4350 C   0  0  0  0  0  0  0  0  0  0  0  0
   57.3120   30.8920   45.2600 N   0  0  0  0  0  0  0  0  0  0  0  0
   56.8620   29.6260   44.6340 C   0  0  0  0  0  0  0  0  0  0  0  0
   56.2620   29.9020   43.2580 C   0  0  0  0  0  0  0  0  0  0  0  0
   58.0030   31.7560   44.2760 C   0  0  0  0  0  0  0  0  0  0  0  0
   57.4050   33.1660   44.2960 C   0  0  0  0  0  0  0  0  0  0  0  0
   58.3860   34.1240   44.6920 O   0  0  0  0  0  0  0  0  0  0  0  0
   59.1750   34.0490   45.8520 C   0  0  0  0  0  0  0  0  0  0  0  0
   60.5720   33.8680   45.8150 C   0  0  0  0  0  0  0  0  0  0  0  0
   61.3060   33.7970   47.0030 C   0  0  0  0  0  0  0  0  0  0  0  0
   60.6620   33.8970   48.2440 C   0  0  0  0  0  0  0  0  0  0  0  0
   61.4490   33.8280   49.4930 C   0  0  0  0  0  0  0  0  0  0  0  0
   62.9430   34.5810   49.7050 S   0  0  0  0  0  0  0  0  0  0  0  0
   63.0480   34.1620   51.3280 C   0  0  0  0  0  0  0  0  0  0  0  0
   64.2000   34.4910   52.2150 C   0  0  0  0  0  0  0  0  0  0  0  0
   61.9790   33.4390   51.7240 N   0  0  0  0  0  0  0  0  0  0  0  0
   61.0830   33.2430   50.7170 C   0  0  0  0  0  0  0  0  0  0  0  0
   59.8730   32.4230   50.9400 C   0  0  0  0  0  0  0  0  0  0  0  0
   59.7420   31.1520   50.3540 C   0  0  0  0  0  0  0  0  0  0  0  0
   58.5960   30.3840   50.5790 C   0  0  0  0  0  0  0  0  0  0  0  0
   57.5670   30.8710   51.4060 C   0  0  0  0  0  0  0  0  0  0  0  0
   56.3960   30.1410   51.6590 O   0  0  0  0  0  0  0  0  0  0  0  0
   55.2150   30.6910   52.2360 C   0  0  0  0  0  0  0  0  0  0  0  0
   57.7100   32.1260   52.0070 C   0  0  0  0  0  0  0  0  0  0  0  0
   58.8570   32.8940   51.7830 C   0  0  0  0  0  0  0  0  0  0  0  0
   59.2730   34.1010   48.2790 C   0  0  0  0  0  0  0  0  0  0  0  0
   58.5390   34.1710   47.0920 C   0  0  0  0  0  0  0  0  0  0  0  0
   60.2090   30.0507   46.8680 H   0  0  0  0  0  0  0  0  0  0  0  0
   59.5226   29.3120   45.3814 H   0  0  0  0  0  0  0  0  0  0  0  0
   60.0136   31.0399   45.3814 H   0  0  0  0  0  0  0  0  0  0  0  0
   57.7379   29.8125   47.0293 H   0  0  0  0  0  0  0  0  0  0  0  0
   58.2398   31.5440   47.0420 H   0  0  0  0  0  0  0  0  0  0  0  0
   57.7218   28.9484   44.5261 H   0  0  0  0  0  0  0  0  0  0  0  0
   56.0960   29.1623   45.2729 H   0  0  0  0  0  0  0  0  0  0  0  0
   55.2684   30.3590   43.3762 H   0  0  0  0  0  0  0  0  0  0  0  0
   56.9179   30.5889   42.7031 H   0  0  0  0  0  0  0  0  0  0  0  0
   56.1672   28.9570   42.7031 H   0  0  0  0  0  0  0  0  0  0  0  0
   59.0721   31.8114   44.5290 H   0  0  0  0  0  0  0  0  0  0  0  0
   57.8759   31.3271   43.2711 H   0  0  0  0  0  0  0  0  0  0  0  0
   57.0400   33.4178   43.2893 H   0  0  0  0  0  0  0  0  0  0  0  0
   56.5763   33.1886   45.0190 H   0  0  0  0  0  0  0  0  0  0  0  0
   61.0875   33.7822   44.8470 H   0  0  0  0  0  0  0  0  0  0  0  0
   62.3969   33.6617   46.9634 H   0  0  0  0  0  0  0  0  0  0  0  0
   63.8900   34.4025   53.2667 H   0  0  0  0  0  0  0  0  0  0  0  0
   65.0267   33.7930   52.0164 H   0  0  0  0  0  0  0  0  0  0  0  0
   64.5334   35.5203   52.0164 H   0  0  0  0  0  0  0  0  0  0  0  0
   60.5463   30.7594   49.7145 H   0  0  0  0  0  0  0  0  0  0  0  0
   58.4982   29.3949   50.1077 H   0  0  0  0  0  0  0  0  0  0  0  0
   55.2918   30.6552   53.3327 H   0  0  0  0  0  0  0  0  0  0  0  0
   55.0999   31.7354   51.9104 H   0  0  0  0  0  0  0  0  0  0  0  0
   54.3416   30.1070   51.9104 H   0  0  0  0  0  0  0  0  0  0  0  0
   56.9140   32.5118   52.6609 H   0  0  0  0  0  0  0  0  0  0  0  0
   58.9626   33.8739   52.2715 H   0  0  0  0  0  0  0  0  0  0  0  0
   58.7599   34.2063   49.2463 H   0  0  0  0  0  0  0  0  0  0  0  0
   57.4504   34.3235   47.1330 H   0  0  0  0  0  0  0  0  0  0  0  0
  1  2  1  0
  2  3  1  0
  3  4  1  0
  4  5  1  0
  3  6  1  0
  6  7  1  0
  7  8  1  0
  8  9  1  0
  9 10  2  0
 10 11  1  0
 11 12  2  0
 12 13  1  0
 13 14  1  0
 14 15  1  0
 15 16  1  0
 15 17  2  0
 17 18  1  0
 18 19  1  0
 19 20  2  0
 20 21  1  0
 21 22  2  0
 22 23  1  0
 23 24  1  0
 22 25  1  0
 25 26  2  0
 12 27  1  0
 27 28  2  0
 28  9  1  0
 18 13  2  0
 26 19  1  0
  1 29  1  0
  1 30  1  0
  1 31  1  0
  2 32  1  0
  2 33  1  0
  4 34  1  0
  4 35  1  0
  5 36  1  0
  5 37  1  0
  5 38  1  0
  6 39  1  0
  6 40  1  0
  7 41  1  0
  7 42  1  0
 10 43  1  0
 11 44  1  0
 16 45  1  0
 16 46  1  0
 16 47  1  0
 20 48  1  0
 21 49  1  0
 24 50  1  0
 24 51  1  0
 24 52  1  0
 25 53  1  0
 26 54  1  0
 27 55  1  0
 28 56  1  0
M  END
>  <UniqueID>  (24) 
24

>  <SMILES>  (24) 
CCN(CC)CCOc1ccc(-c2sc(C)nc2-c2ccc(OC)cc2)cc1

>  <Energy>  (24) 
90.93864044968662

>  <Genealogy>  (24) 
CCN(CC)CCOc1ccc(-c2sc(C)nc2-c2ccc(OC)cc2)cc1 (3D coordinates assigned)
CCN(CC)CCOc1ccc(-c2sc(C)nc2-c2ccc(OC)cc2)cc1 (optimized conformer: 90.93864044968662 kcal/mol)

>  <smiles>  (24) 
CCN(CC)CCOc1ccc(-c2sc(C)nc2-c2ccc(OC)cc2)cc1

>  <score_type>  (24) 
oracle

>  <origin>  (24) 
adg

>  <m_score__min__energy>  (24) 
-7.7199999999999998

>  <m_primary>  (24) 
energy

$$$$
24:0
     RDKit          3D

 40 41  0  0  0  0  0  0  0  0999 V2000
   63.0700   33.7840   46.6890 C   0  0  0  0  0  0  0  0  0  0  0  0
   61.8380   33.8420   47.5760 C   0  0  0  0  0  0  0  0  0  0  0  0
   60.7260   34.3120   46.8180 O   0  0  0  0  0  0  0  0  0  0  0  0
   59.7210   33.4880   46.2900 C   0  0  0  0  0  0  0  0  0  0  0  0
   59.5210   32.2300   46.8690 C   0  0  0  0  0  0  0  0  0  0  0  0
   58.5300   31.3740   46.3810 C   0  0  0  0  0  0  0  0  0  0  0  0
   57.7150   31.7620   45.3110 C   0  0  0  0  0  0  0  0  0  0  0  0
   56.7310   30.8580   44.8760 O   0  0  0  0  0  0  0  0  0  0  0  0
   56.6120   30.2850   43.5710 C   0  0  0  0  0  0  0  0  0  0  0  0
   57.3550   28.9390   43.4840 C   0  0  0  0  0  0  0  0  0  0  0  0
   58.0910   28.5880   44.7240 N   0  0  0  0  0  0  0  0  0  0  0  0
   57.7780   27.2120   45.1700 C   0  0  0  0  0  0  0  0  0  0  0  0
   58.6260   26.8410   46.3940 C   0  0  0  0  0  0  0  0  0  0  0  0
   60.0040   26.9370   46.0940 O   0  0  0  0  0  0  0  0  0  0  0  0
   60.3250   28.2700   45.7470 C   0  0  0  0  0  0  0  0  0  0  0  0
   59.5470   28.7110   44.4970 C   0  0  0  0  0  0  0  0  0  0  0  0
   57.9240   33.0220   44.7160 C   0  0  0  0  0  0  0  0  0  0  0  0
   58.9150   33.8790   45.2050 C   0  0  0  0  0  0  0  0  0  0  0  0
   63.9722   33.7415   47.3169 H   0  0  0  0  0  0  0  0  0  0  0  0
   63.0227   32.8871   46.0539 H   0  0  0  0  0  0  0  0  0  0  0  0
   63.1072   34.6814   46.0539 H   0  0  0  0  0  0  0  0  0  0  0  0
   61.6182   32.8364   47.9638 H   0  0  0  0  0  0  0  0  0  0  0  0
   62.0240   34.5274   48.4160 H   0  0  0  0  0  0  0  0  0  0  0  0
   60.1486   31.9124   47.7147 H   0  0  0  0  0  0  0  0  0  0  0  0
   58.3889   30.3854   46.8423 H   0  0  0  0  0  0  0  0  0  0  0  0
   55.5476   30.1225   43.3462 H   0  0  0  0  0  0  0  0  0  0  0  0
   57.0605   30.9781   42.8440 H   0  0  0  0  0  0  0  0  0  0  0  0
   56.6189   28.1475   43.2801 H   0  0  0  0  0  0  0  0  0  0  0  0
   58.1005   29.0322   42.6806 H   0  0  0  0  0  0  0  0  0  0  0  0
   57.8340   29.2620   45.4820 H   0  0  0  0  0  0  0  0  0  0  0  0
   56.7122   27.1505   45.4352 H   0  0  0  0  0  0  0  0  0  0  0  0
   58.0050   26.5115   44.3528 H   0  0  0  0  0  0  0  0  0  0  0  0
   58.3875   27.5271   47.2201 H   0  0  0  0  0  0  0  0  0  0  0  0
   58.3978   25.8041   46.6816 H   0  0  0  0  0  0  0  0  0  0  0  0
   60.0662   28.9332   46.5855 H   0  0  0  0  0  0  0  0  0  0  0  0
   61.4020   28.3285   45.5309 H   0  0  0  0  0  0  0  0  0  0  0  0
   59.7908   29.7593   44.2698 H   0  0  0  0  0  0  0  0  0  0  0  0
   59.8318   28.0645   43.6538 H   0  0  0  0  0  0  0  0  0  0  0  0
   57.3043   33.3333   43.8622 H   0  0  0  0  0  0  0  0  0  0  0  0
   59.0652   34.8640   44.7389 H   0  0  0  0  0  0  0  0  0  0  0  0
  1  2  1  0
  2  3  1  0
  3  4  1  0
  4  5  2  0
  5  6  1  0
  6  7  2  0
  7  8  1  0
  8  9  1  0
  9 10  1  0
 10 11  1  0
 11 12  1  0
 12 13  1  0
 13 14  1  0
 14 15  1  0
 15 16  1  0
  7 17  1  0
 17 18  2  0
 18  4  1  0
 16 11  1  0
  1 19  1  0
  1 20  1  0
  1 21  1  0
  2 22  1  0
  2 23  1  0
  5 24  1  0
  6 25  1  0
  9 26  1  0
  9 27  1  0
 10 28  1  0
 10 29  1  0
 11 30  1  0
 12 31  1  0
 12 32  1  0
 13 33  1  0
 13 34  1  0
 15 35  1  0
 15 36  1  0
 16 37  1  0
 16 38  1  0
 17 39  1  0
 18 40  1  0
M  CHG  1  11   1
M  END
>  <UniqueID>  (25) 
25

>  <SMILES>  (25) 
CCOc1ccc(OCC[NH+]2CCOCC2)cc1

>  <Energy>  (25) 
40.182046605809326

>  <Genealogy>  (25) 
CCOc1ccc(OCC[NH+]2CCOCC2)cc1 (protonated)
CCOc1ccc(OCC[NH+]2CCOCC2)cc1 (3D coordinates assigned)
CCOc1ccc(OCC[NH+]2CCOCC2)cc1 (nonaromatic ring conformer: 40.182046605809326 kcal/mol)

>  <smiles>  (25) 
CCOc1ccc(OCCN2CCOCC2)cc1

>  <score_type>  (25) 
oracle

>  <origin>  (25) 
adg

>  <m_score__min__energy>  (25) 
-3.6899999999999999

>  <m_primary>  (25) 
energy

$$$$
25:0
     RDKit          3D

 57 59  0  0  0  0  0  0  0  0999 V2000
   57.1230   25.1920   47.0390 C   0  0  0  0  0  0  0  0  0  0  0  0
   56.0210   25.3510   45.9990 C   0  0  0  0  0  0  0  0  0  0  0  0
   55.4950   26.7130   46.0050 N   0  0  0  0  0  0  0  0  0  0  0  0
   56.2320   27.8450   45.5350 C   0  0  0  0  0  0  0  0  0  0  0  0
   57.4800   27.7550   45.3940 O   0  0  0  0  0  0  0  0  0  0  0  0
   55.5550   29.0630   45.2170 N   0  0  0  0  0  0  0  0  0  0  0  0
   55.7660   29.7930   43.9730 C   0  0  0  0  0  0  0  0  0  0  0  0
   57.2630   29.9130   43.6830 C   0  0  0  0  0  0  0  0  0  0  0  0
   57.8990   30.9960   44.5180 C   0  0  0  0  0  0  0  0  0  0  0  0
   58.5900   30.6680   45.6950 C   0  0  0  0  0  0  0  0  0  0  0  0
   59.2160   31.6680   46.4470 C   0  0  0  0  0  0  0  0  0  0  0  0
   59.1680   33.0030   46.0230 C   0  0  0  0  0  0  0  0  0  0  0  0
   59.9370   34.2750   46.9650 S   0  0  0  0  0  0  0  0  0  0  0  0
   60.0320   35.5460   46.1670 O   0  0  0  0  0  0  0  0  0  0  0  0
   59.1190   34.5420   48.1970 O   0  0  0  0  0  0  0  0  0  0  0  0
   61.5280   33.7650   47.4140 N   0  0  0  0  0  0  0  0  0  0  0  0
   62.7010   33.8410   46.5550 C   0  0  0  0  0  0  0  0  0  0  0  0
   63.9120   33.5650   47.4830 C   0  0  0  0  0  0  0  0  0  0  0  0
   63.3570   33.3370   48.8210 N   0  0  0  0  0  0  0  0  0  0  0  0
   64.1140   33.3000   50.0800 C   0  0  0  0  0  0  0  0  0  0  0  0
   65.6170   33.0690   49.7930 C   0  0  0  0  0  0  0  0  0  0  0  0
   66.3350   32.5110   51.0250 C   0  0  0  0  0  0  0  0  0  0  0  0
   65.7660   31.1400   51.4460 C   0  0  0  0  0  0  0  0  0  0  0  0
   64.2850   30.9420   51.0680 C   0  0  0  0  0  0  0  0  0  0  0  0
   63.5130   32.2680   51.0720 C   0  0  0  0  0  0  0  0  0  0  0  0
   61.9580   33.5110   48.7300 C   0  0  0  0  0  0  0  0  0  0  0  0
   61.1800   33.4750   49.7230 O   0  0  0  0  0  0  0  0  0  0  0  0
   58.4850   33.3320   44.8450 C   0  0  0  0  0  0  0  0  0  0  0  0
   57.8580   32.3350   44.0930 C   0  0  0  0  0  0  0  0  0  0  0  0
   56.6875   25.2548   48.0472 H   0  0  0  0  0  0  0  0  0  0  0  0
   57.6103   24.2142   46.9103 H   0  0  0  0  0  0  0  0  0  0  0  0
   57.8668   25.9921   46.9103 H   0  0  0  0  0  0  0  0  0  0  0  0
   56.4302   25.1268   45.0028 H   0  0  0  0  0  0  0  0  0  0  0  0
   55.2036   24.6563   46.2424 H   0  0  0  0  0  0  0  0  0  0  0  0
   55.2773   29.2546   43.1476 H   0  0  0  0  0  0  0  0  0  0  0  0
   55.3353   30.8007   44.0687 H   0  0  0  0  0  0  0  0  0  0  0  0
   57.7499   28.9532   43.9103 H   0  0  0  0  0  0  0  0  0  0  0  0
   57.3908   30.1732   42.6219 H   0  0  0  0  0  0  0  0  0  0  0  0
   58.6395   29.6206   46.0274 H   0  0  0  0  0  0  0  0  0  0  0  0
   59.7474   31.4057   47.3737 H   0  0  0  0  0  0  0  0  0  0  0  0
   62.6452   33.0828   45.7600 H   0  0  0  0  0  0  0  0  0  0  0  0
   62.7813   34.8196   46.0592 H   0  0  0  0  0  0  0  0  0  0  0  0
   64.4600   32.6749   47.1405 H   0  0  0  0  0  0  0  0  0  0  0  0
   64.6198   34.4070   47.4803 H   0  0  0  0  0  0  0  0  0  0  0  0
   64.0286   34.2765   50.5792 H   0  0  0  0  0  0  0  0  0  0  0  0
   65.7184   32.3536   48.9636 H   0  0  0  0  0  0  0  0  0  0  0  0
   66.0744   34.0341   49.5298 H   0  0  0  0  0  0  0  0  0  0  0  0
   67.4042   32.3971   50.7931 H   0  0  0  0  0  0  0  0  0  0  0  0
   66.1844   33.2145   51.8571 H   0  0  0  0  0  0  0  0  0  0  0  0
   66.3578   30.3529   50.9559 H   0  0  0  0  0  0  0  0  0  0  0  0
   65.8276   31.0893   52.5431 H   0  0  0  0  0  0  0  0  0  0  0  0
   64.2304   30.5014   50.0616 H   0  0  0  0  0  0  0  0  0  0  0  0
   63.8273   30.2780   51.8161 H   0  0  0  0  0  0  0  0  0  0  0  0
   62.4687   32.0707   50.7883 H   0  0  0  0  0  0  0  0  0  0  0  0
   63.5795   32.6942   52.0839 H   0  0  0  0  0  0  0  0  0  0  0  0
   58.4421   34.3791   44.5107 H   0  0  0  0  0  0  0  0  0  0  0  0
   57.3303   32.5992   43.1647 H   0  0  0  0  0  0  0  0  0  0  0  0
  1  2  1  0
  2  3  1  0
  3  4  1  0
  4  5  2  0
  4  6  1  0
  6  7  1  0
  7  8  1  0
  8  9  1  0
  9 10  2  0
 10 11  1  0
 11 12  2  0
 12 13  1  0
 13 14  2  0
 13 15  2  0
 13 16  1  0
 16 17  1  0
 17 18  1  0
 18 19  1  0
 19 20  1  0
 20 21  1  0
 21 22  1  0
 22 23  1  0
 23 24  1  0
 24 25  1  0
 19 26  1  0
 26 27  2  0
 12 28  1  0
 28 29  2  0
 29  9  1  0
 26 16  1  0
 25 20  1  0
  1 30  1  0
  1 31  1  0
  1 32  1  0
  2 33  1  0
  2 34  1  0
  7 35  1  0
  7 36  1  0
  8 37  1  0
  8 38  1  0
 10 39  1  0
 11 40  1  0
 17 41  1  0
 17 42  1  0
 18 43  1  0
 18 44  1  0
 20 45  1  0
 21 46  1  0
 21 47  1  0
 22 48  1  0
 22 49  1  0
 23 50  1  0
 23 51  1  0
 24 52  1  0
 24 53  1  0
 25 54  1  0
 25 55  1  0
 28 56  1  0
 29 57  1  0
M  CHG  2   3  -1   6  -1
M  END
>  <UniqueID>  (26) 
26

>  <SMILES>  (26) 
CC[N-]C(=O)[N-]CCc1ccc(S(=O)(=O)N2CCN(C3CCCCC3)C2=O)cc1

>  <Energy>  (26) 
61.6139948632208

>  <Genealogy>  (26) 
CC[N-]C(=O)[N-]CCc1ccc(S(=O)(=O)N2CCN(C3CCCCC3)C2=O)cc1 (protonated)
CC[N-]C(=O)[N-]CCc1ccc(S(=O)(=O)N2CCN(C3CCCCC3)C2=O)cc1 (3D coordinates assigned)
CC[N-]C(=O)[N-]CCc1ccc(S(=O)(=O)N2CCN(C3CCCCC3)C2=O)cc1 (nonaromatic ring conformer: 61.6139948632208 kcal/mol)

>  <smiles>  (26) 
CCNC(=O)NCCc1ccc(S(=O)(=O)N2CCN(C3CCCCC3)C2=O)cc1

>  <score_type>  (26) 
oracle

>  <origin>  (26) 
adg

>  <m_score__min__energy>  (26) 
-13.300000000000001

>  <m_primary>  (26) 
energy

$$$$
26:0
     RDKit          3D

 43 46  0  0  0  0  0  0  0  0999 V2000
   62.6380   29.2300   52.7320 C   0  0  0  0  0  0  0  0  0  0  0  0
   61.2540   29.4860   52.5150 O   0  0  0  0  0  0  0  0  0  0  0  0
   60.6030   29.3310   51.2820 C   0  0  0  0  0  0  0  0  0  0  0  0
   61.0780   28.3600   50.3960 C   0  0  0  0  0  0  0  0  0  0  0  0
   60.4650   28.1660   49.1550 C   0  0  0  0  0  0  0  0  0  0  0  0
   59.3570   28.9450   48.7800 C   0  0  0  0  0  0  0  0  0  0  0  0
   58.7080   28.7360   47.4610 C   0  0  0  0  0  0  0  0  0  0  0  0
   58.6060   29.7940   46.5440 C   0  0  0  0  0  0  0  0  0  0  0  0
   57.9950   29.5900   45.2980 C   0  0  0  0  0  0  0  0  0  0  0  0
   57.8800   30.7020   44.3180 C   0  0  0  0  0  0  0  0  0  0  0  0
   58.3220   32.0140   44.5720 C   0  0  0  0  0  0  0  0  0  0  0  0
   58.1150   32.8900   43.5160 C   0  0  0  0  0  0  0  0  0  0  0  0
   57.3860   32.0390   42.2670 S   0  0  0  0  0  0  0  0  0  0  0  0
   57.3200   30.5540   43.0480 C   0  0  0  0  0  0  0  0  0  0  0  0
   57.4880   28.3180   44.9960 C   0  0  0  0  0  0  0  0  0  0  0  0
   57.5950   27.2790   45.9320 C   0  0  0  0  0  0  0  0  0  0  0  0
   57.0560   25.9330   45.6130 C   0  0  0  0  0  0  0  0  0  0  0  0
   57.9310   24.8980   45.2370 C   0  0  0  0  0  0  0  0  0  0  0  0
   57.4370   23.6240   44.9470 C   0  0  0  0  0  0  0  0  0  0  0  0
   56.0660   23.3700   45.0250 C   0  0  0  0  0  0  0  0  0  0  0  0
   55.1860   24.3900   45.3900 C   0  0  0  0  0  0  0  0  0  0  0  0
   55.6710   25.6720   45.6790 C   0  0  0  0  0  0  0  0  0  0  0  0
   54.7690   26.6780   46.0080 O   0  0  0  0  0  0  0  0  0  0  0  0
   58.2040   27.5100   47.1310 N   0  0  0  0  0  0  0  0  0  0  0  0
   58.8780   29.9220   49.6710 C   0  0  0  0  0  0  0  0  0  0  0  0
   59.4950   30.1140   50.9110 C   0  0  0  0  0  0  0  0  0  0  0  0
   62.8389   29.1928   53.8128 H   0  0  0  0  0  0  0  0  0  0  0  0
   62.9087   28.2666   52.2754 H   0  0  0  0  0  0  0  0  0  0  0  0
   63.2354   30.0329   52.2754 H   0  0  0  0  0  0  0  0  0  0  0  0
   61.9432   27.7421   50.6783 H   0  0  0  0  0  0  0  0  0  0  0  0
   60.8520   27.3992   48.4678 H   0  0  0  0  0  0  0  0  0  0  0  0
   59.0062   30.7853   46.8032 H   0  0  0  0  0  0  0  0  0  0  0  0
   58.7888   32.3171   45.5208 H   0  0  0  0  0  0  0  0  0  0  0  0
   58.3823   33.9569   43.5004 H   0  0  0  0  0  0  0  0  0  0  0  0
   56.9064   29.6241   42.6305 H   0  0  0  0  0  0  0  0  0  0  0  0
   57.0060   28.1349   44.0243 H   0  0  0  0  0  0  0  0  0  0  0  0
   59.0115   25.0931   45.1709 H   0  0  0  0  0  0  0  0  0  0  0  0
   58.1289   22.8196   44.6568 H   0  0  0  0  0  0  0  0  0  0  0  0
   55.6794   22.3654   44.7986 H   0  0  0  0  0  0  0  0  0  0  0  0
   54.1068   24.1863   45.4510 H   0  0  0  0  0  0  0  0  0  0  0  0
   58.3240   26.7140   47.7970 H   0  0  0  0  0  0  0  0  0  0  0  0
   58.0119   30.5394   49.3905 H   0  0  0  0  0  0  0  0  0  0  0  0
   59.1119   30.8813   51.5999 H   0  0  0  0  0  0  0  0  0  0  0  0
  1  2  1  0
  2  3  1  0
  3  4  2  0
  4  5  1  0
  5  6  2  0
  6  7  1  0
  7  8  2  0
  8  9  1  0
  9 10  1  0
 10 11  1  0
 11 12  2  0
 12 13  1  0
 13 14  1  0
  9 15  2  0
 15 16  1  0
 16 17  1  0
 17 18  2  0
 18 19  1  0
 19 20  2  0
 20 21  1  0
 21 22  2  0
 22 23  1  0
 16 24  2  0
  6 25  1  0
 25 26  2  0
 26  3  1  0
 24  7  1  0
 14 10  2  0
 22 17  1  0
  1 27  1  0
  1 28  1  0
  1 29  1  0
  4 30  1  0
  5 31  1  0
  8 32  1  0
 11 33  1  0
 12 34  1  0
 14 35  1  0
 15 36  1  0
 18 37  1  0
 19 38  1  0
 20 39  1  0
 21 40  1  0
 24 41  1  0
 25 42  1  0
 26 43  1  0
M  CHG  2  23  -1  24   1
M  END
>  <UniqueID>  (27) 
27

>  <SMILES>  (27) 
COc1ccc(-c2cc(-c3ccsc3)cc(-c3ccccc3[O-])[nH+]2)cc1

>  <Energy>  (27) 
87.52902592313916

>  <Genealogy>  (27) 
COc1ccc(-c2cc(-c3ccsc3)cc(-c3ccccc3[O-])[nH+]2)cc1 (protonated)
COc1ccc(-c2cc(-c3ccsc3)cc(-c3ccccc3[O-])[nH+]2)cc1 (3D coordinates assigned)
COc1ccc(-c2cc(-c3ccsc3)cc(-c3ccccc3[O-])[nH+]2)cc1 (optimized conformer: 87.52902592313916 kcal/mol)

>  <smiles>  (27) 
COc1ccc(-c2cc(-c3ccsc3)cc(-c3ccccc3O)n2)cc1

>  <score_type>  (27) 
oracle

>  <origin>  (27) 
adg

>  <m_score__min__energy>  (27) 
-9.4299999999999997

>  <m_primary>  (27) 
energy

$$$$
27:0
     RDKit          3D

 29 30  0  0  0  0  0  0  0  0999 V2000
   55.5280   29.7140   45.9970 H   0  0  0  0  0  0  0  0  0  0  0  0
   55.6610   29.6600   44.9610 N   0  0  0  0  0  0  0  0  0  0  0  0
   56.6110   30.2920   44.3480 C   0  0  0  0  0  0  0  0  0  0  0  0
   57.7490   30.8550   45.1150 C   0  0  0  0  0  0  0  0  0  0  0  0
   58.6270   30.1200   45.9030 C   0  0  0  0  0  0  0  0  0  0  0  0
   58.6162   29.0295   46.0471 H   0  0  0  0  0  0  0  0  0  0  0  0
   59.5160   31.0120   46.4720 C   0  0  0  0  0  0  0  0  0  0  0  0
   60.3303   30.7429   47.1608 H   0  0  0  0  0  0  0  0  0  0  0  0
   59.2330   32.2630   46.0540 N   0  0  0  0  0  0  0  0  0  0  0  0
   59.8350   33.4480   46.3800 C   0  0  0  0  0  0  0  0  0  0  0  0
   61.0290   33.5320   47.2470 C   0  0  0  0  0  0  0  0  0  0  0  0
   60.9137   33.3631   48.3278 H   0  0  0  0  0  0  0  0  0  0  0  0
   62.2430   33.8060   46.7630 C   0  0  0  0  0  0  0  0  0  0  0  0
   62.3694   34.6392   46.0560 H   0  0  0  0  0  0  0  0  0  0  0  0
   63.4320   32.9970   47.1680 C   0  0  0  0  0  0  0  0  0  0  0  0
   63.4914   32.9566   48.2657 H   0  0  0  0  0  0  0  0  0  0  0  0
   63.3348   31.9768   46.7683 H   0  0  0  0  0  0  0  0  0  0  0  0
   64.3453   33.4619   46.7683 H   0  0  0  0  0  0  0  0  0  0  0  0
   59.2780   34.6340   45.8740 C   0  0  0  0  0  0  0  0  0  0  0  0
   59.7123   35.6074   46.1457 H   0  0  0  0  0  0  0  0  0  0  0  0
   58.1660   34.5730   45.0210 C   0  0  0  0  0  0  0  0  0  0  0  0
   57.7402   35.5005   44.6106 H   0  0  0  0  0  0  0  0  0  0  0  0
   57.5950   33.3390   44.6890 C   0  0  0  0  0  0  0  0  0  0  0  0
   56.7307   33.2799   44.0112 H   0  0  0  0  0  0  0  0  0  0  0  0
   58.1550   32.1820   45.2440 C   0  0  0  0  0  0  0  0  0  0  0  0
   56.5970   30.3850   42.8470 C   0  0  0  0  0  0  0  0  0  0  0  0
   56.4395   31.4312   42.5459 H   0  0  0  0  0  0  0  0  0  0  0  0
   57.5588   30.0296   42.4486 H   0  0  0  0  0  0  0  0  0  0  0  0
   55.7825   29.7622   42.4486 H   0  0  0  0  0  0  0  0  0  0  0  0
  1  2  1  0
  2  3  2  0
  3  4  1  0
  4  5  1  0
  5  6  1  0
  5  7  2  0
  7  8  1  0
  7  9  1  0
  9 10  1  0
 10 11  1  0
 11 12  1  0
 11 13  2  0
 13 14  1  0
 13 15  1  0
 15 16  1  0
 15 17  1  0
 15 18  1  0
 10 19  2  0
 19 20  1  0
 19 21  1  0
 21 22  1  0
 21 23  2  0
 23 24  1  0
 23 25  1  0
  3 26  1  0
 26 27  1  0
 26 28  1  0
 26 29  1  0
 25  4  2  0
 25  9  1  0
M  END
>  <UniqueID>  (28) 
28

>  <SMILES>  (28) 
[H]/N=C(\C)c1ccn2c(/C=C/C)cccc12

>  <Energy>  (28) 
63.002119983228646

>  <Genealogy>  (28) 
[H]/N=C(\C)c1ccn2c(/C=C/C)cccc12 (cis-trans isomerization)
[H]/N=C(\C)c1ccn2c(/C=C/C)cccc12 (3D coordinates assigned)
[H]/N=C(\C)c1ccn2c(/C=C/C)cccc12 (optimized conformer: 63.002119983228646 kcal/mol)

>  <smiles>  (28) 
CC=Cc1cccc2c(C(C)=N)ccn12

>  <score_type>  (28) 
oracle

>  <origin>  (28) 
adg

>  <m_score__min__energy>  (28) 
-6.9500000000000002

>  <m_primary>  (28) 
energy

$$$$
28:0
     RDKit          3D

 31 31  0  0  0  0  0  0  0  0999 V2000
   61.2186   31.5600   49.0071 H   0  0  0  0  0  0  0  0  0  0  0  0
   61.4140   32.2080   48.1400 C   0  0  0  0  0  0  0  0  0  0  0  0
   60.4980   33.3430   47.9180 C   0  0  0  0  0  0  0  0  0  0  0  0
   60.4920   34.2750   48.7660 O   0  0  0  0  0  0  0  0  0  0  0  0
   59.5490   33.3860   46.7760 C   0  0  0  0  0  0  0  0  0  0  0  0
   59.4460   34.5300   45.9650 C   0  0  0  0  0  0  0  0  0  0  0  0
   60.0777   35.4062   46.1732 H   0  0  0  0  0  0  0  0  0  0  0  0
   58.5470   34.5610   44.8970 C   0  0  0  0  0  0  0  0  0  0  0  0
   58.4699   35.4624   44.2712 H   0  0  0  0  0  0  0  0  0  0  0  0
   57.7460   33.4520   44.6210 C   0  0  0  0  0  0  0  0  0  0  0  0
   57.0378   33.4850   43.7799 H   0  0  0  0  0  0  0  0  0  0  0  0
   57.8380   32.2990   45.4070 C   0  0  0  0  0  0  0  0  0  0  0  0
   57.0120   31.2110   45.0870 O   0  0  0  0  0  0  0  0  0  0  0  0
   56.9800   30.5710   43.8140 C   0  0  0  0  0  0  0  0  0  0  0  0
   56.9255   29.4812   43.9528 H   0  0  0  0  0  0  0  0  0  0  0  0
   56.0979   30.9138   43.2533 H   0  0  0  0  0  0  0  0  0  0  0  0
   57.8919   30.8241   43.2533 H   0  0  0  0  0  0  0  0  0  0  0  0
   58.7450   32.2680   46.4840 C   0  0  0  0  0  0  0  0  0  0  0  0
   58.8259   31.3620   47.1026 H   0  0  0  0  0  0  0  0  0  0  0  0
   62.4680   31.9050   47.3650 C   0  0  0  0  0  0  0  0  0  0  0  0
   62.4221   30.9806   46.7705 H   0  0  0  0  0  0  0  0  0  0  0  0
   63.6610   32.7190   47.2630 N   0  0  0  0  0  0  0  0  0  0  0  0
   64.4690   32.1900   46.8660 H   0  0  0  0  0  0  0  0  0  0  0  0
   64.0430   33.1970   48.6000 C   0  0  0  0  0  0  0  0  0  0  0  0
   63.5495   32.5795   49.3650 H   0  0  0  0  0  0  0  0  0  0  0  0
   65.1342   33.1238   48.7176 H   0  0  0  0  0  0  0  0  0  0  0  0
   63.7310   34.2452   48.7176 H   0  0  0  0  0  0  0  0  0  0  0  0
   63.3930   33.8570   46.3710 C   0  0  0  0  0  0  0  0  0  0  0  0
   63.1820   34.7531   46.9731 H   0  0  0  0  0  0  0  0  0  0  0  0
   64.2725   34.0405   45.7363 H   0  0  0  0  0  0  0  0  0  0  0  0
   62.5241   33.6287   45.7363 H   0  0  0  0  0  0  0  0  0  0  0  0
  1  2  1  0
  2  3  1  0
  3  4  2  0
  3  5  1  0
  5  6  2  0
  6  7  1  0
  6  8  1  0
  8  9  1  0
  8 10  2  0
 10 11  1  0
 10 12  1  0
 12 13  1  0
 13 14  1  0
 14 15  1  0
 14 16  1  0
 14 17  1  0
 12 18  2  0
 18 19  1  0
  2 20  2  0
 20 21  1  0
 20 22  1  0
 22 23  1  0
 22 24  1  0
 24 25  1  0
 24 26  1  0
 24 27  1  0
 22 28  1  0
 28 29  1  0
 28 30  1  0
 28 31  1  0
 18  5  1  0
M  CHG  1  22   1
M  END
>  <UniqueID>  (29) 
29

>  <SMILES>  (29) 
COc1cccc(C(=O)/C=C\[NH+](C)C)c1

>  <Energy>  (29) 
36.07962213970719

>  <Genealogy>  (29) 
COc1cccc(C(=O)C=C[NH+](C)C)c1 (protonated)
COc1cccc(C(=O)/C=C\[NH+](C)C)c1 (cis-trans isomerization)
COc1cccc(C(=O)/C=C\[NH+](C)C)c1 (3D coordinates assigned)
COc1cccc(C(=O)/C=C\[NH+](C)C)c1 (optimized conformer: 36.07962213970719 kcal/mol)

>  <smiles>  (29) 
COc1cccc(C(=O)C=CN(C)C)c1

>  <score_type>  (29) 
oracle

>  <origin>  (29) 
adg

>  <m_score__min__energy>  (29) 
-4.4900000000000002

>  <m_primary>  (29) 
energy

$$$$
29:0
     RDKit          3D

 44 47  0  0  0  0  0  0  0  0999 V2000
   57.0100   22.1980   43.7620 C   0  0  0  0  0  0  0  0  0  0  0  0
   57.1100   23.5260   44.4540 C   0  0  0  0  0  0  0  0  0  0  0  0
   56.8580   23.6310   45.8290 C   0  0  0  0  0  0  0  0  0  0  0  0
   56.9130   24.8750   46.4610 C   0  0  0  0  0  0  0  0  0  0  0  0
   57.2100   26.0240   45.7250 C   0  0  0  0  0  0  0  0  0  0  0  0
   57.4540   25.9410   44.3420 C   0  0  0  0  0  0  0  0  0  0  0  0
   57.7390   27.1320   43.5750 N   0  0  0  0  0  0  0  0  0  0  0  0
   58.4810   28.0740   44.3790 C   0  0  0  0  0  0  0  0  0  0  0  0
   59.7410   27.6960   44.9020 C   0  0  0  0  0  0  0  0  0  0  0  0
   60.5310   28.6050   45.6270 C   0  0  0  0  0  0  0  0  0  0  0  0
   60.0790   29.9100   45.8640 C   0  0  0  0  0  0  0  0  0  0  0  0
   58.8180   30.2660   45.3820 C   0  0  0  0  0  0  0  0  0  0  0  0
   58.0400   29.3930   44.6500 C   0  0  0  0  0  0  0  0  0  0  0  0
   56.9020   30.1410   44.3300 C   0  0  0  0  0  0  0  0  0  0  0  0
   55.6660   29.7160   43.6040 C   0  0  0  0  0  0  0  0  0  0  0  0
   57.0310   31.3830   44.8510 N   0  0  0  0  0  0  0  0  0  0  0  0
   58.1910   31.4550   45.4890 N   0  0  0  0  0  0  0  0  0  0  0  0
   58.6330   32.6360   46.1760 C   0  0  0  0  0  0  0  0  0  0  0  0
   58.9140   33.8030   45.4480 C   0  0  0  0  0  0  0  0  0  0  0  0
   59.3210   34.9660   46.1090 C   0  0  0  0  0  0  0  0  0  0  0  0
   59.4350   34.9770   47.5020 C   0  0  0  0  0  0  0  0  0  0  0  0
   59.1350   33.8270   48.2360 C   0  0  0  0  0  0  0  0  0  0  0  0
   58.7290   32.6610   47.5780 C   0  0  0  0  0  0  0  0  0  0  0  0
   57.3920   24.6840   43.7120 C   0  0  0  0  0  0  0  0  0  0  0  0
   56.9497   21.3967   44.5132 H   0  0  0  0  0  0  0  0  0  0  0  0
   56.1079   22.1794   43.1328 H   0  0  0  0  0  0  0  0  0  0  0  0
   57.8991   22.0445   43.1328 H   0  0  0  0  0  0  0  0  0  0  0  0
   56.6161   22.7302   46.4122 H   0  0  0  0  0  0  0  0  0  0  0  0
   56.7218   24.9501   47.5417 H   0  0  0  0  0  0  0  0  0  0  0  0
   57.2534   27.0003   46.2299 H   0  0  0  0  0  0  0  0  0  0  0  0
   58.2410   26.8640   42.7060 H   0  0  0  0  0  0  0  0  0  0  0  0
   56.8520   27.5910   43.2650 H   0  0  0  0  0  0  0  0  0  0  0  0
   60.1086   26.6723   44.7381 H   0  0  0  0  0  0  0  0  0  0  0  0
   61.5121   28.2893   46.0114 H   0  0  0  0  0  0  0  0  0  0  0  0
   60.6996   30.6329   46.4138 H   0  0  0  0  0  0  0  0  0  0  0  0
   54.8867   29.4480   44.3326 H   0  0  0  0  0  0  0  0  0  0  0  0
   55.3089   30.5430   42.9726 H   0  0  0  0  0  0  0  0  0  0  0  0
   55.8930   28.8443   42.9726 H   0  0  0  0  0  0  0  0  0  0  0  0
   58.8135   33.8025   44.3526 H   0  0  0  0  0  0  0  0  0  0  0  0
   59.5518   35.8736   45.5319 H   0  0  0  0  0  0  0  0  0  0  0  0
   59.7609   35.8910   48.0201 H   0  0  0  0  0  0  0  0  0  0  0  0
   59.2181   33.8382   49.3328 H   0  0  0  0  0  0  0  0  0  0  0  0
   58.4840   31.7604   48.1601 H   0  0  0  0  0  0  0  0  0  0  0  0
   57.5661   24.6082   42.6285 H   0  0  0  0  0  0  0  0  0  0  0  0
  1  2  1  0
  2  3  2  0
  3  4  1  0
  4  5  2  0
  5  6  1  0
  6  7  1  0
  7  8  1  0
  8  9  2  0
  9 10  1  0
 10 11  2  0
 11 12  1  0
 12 13  2  0
 13 14  1  0
 14 15  1  0
 14 16  2  0
 16 17  1  0
 17 18  1  0
 18 19  2  0
 19 20  1  0
 20 21  2  0
 21 22  1  0
 22 23  2  0
  6 24  2  0
 24  2  1  0
 13  8  1  0
 23 18  1  0
 17 12  1  0
  1 25  1  0
  1 26  1  0
  1 27  1  0
  3 28  1  0
  4 29  1  0
  5 30  1  0
  7 31  1  0
  7 32  1  0
  9 33  1  0
 10 34  1  0
 11 35  1  0
 15 36  1  0
 15 37  1  0
 15 38  1  0
 19 39  1  0
 20 40  1  0
 21 41  1  0
 22 42  1  0
 23 43  1  0
 24 44  1  0
M  CHG  1   7   1
M  END
>  <UniqueID>  (30) 
30

>  <SMILES>  (30) 
Cc1cccc([NH2+]c2cccc3c2c(C)nn3-c2ccccc2)c1

>  <Energy>  (30) 
96.69143236747816

>  <Genealogy>  (30) 
Cc1cccc([NH2+]c2cccc3c2c(C)nn3-c2ccccc2)c1 (protonated)
Cc1cccc([NH2+]c2cccc3c2c(C)nn3-c2ccccc2)c1 (3D coordinates assigned)
Cc1cccc([NH2+]c2cccc3c2c(C)nn3-c2ccccc2)c1 (optimized conformer: 96.69143236747816 kcal/mol)

>  <smiles>  (30) 
Cc1cccc(Nc2cccc3c2c(C)nn3-c2ccccc2)c1

>  <score_type>  (30) 
oracle

>  <origin>  (30) 
adg

>  <m_score__min__energy>  (30) 
-7.7000000000000002

>  <m_primary>  (30) 
energy

$$$$
30:0
     RDKit          3D

 26 27  0  0  0  0  0  0  0  0999 V2000
   55.3870   29.3450   44.8400 N   0  0  0  0  0  0  0  0  0  0  0  0
   56.8110   29.1860   44.8740 C   0  0  0  0  0  0  0  0  0  0  0  0
   57.3620   27.9010   44.7510 C   0  0  0  0  0  0  0  0  0  0  0  0
   58.7430   27.7120   44.8120 C   0  0  0  0  0  0  0  0  0  0  0  0
   59.5900   28.8050   44.9910 C   0  0  0  0  0  0  0  0  0  0  0  0
   59.0590   30.0900   45.1100 C   0  0  0  0  0  0  0  0  0  0  0  0
   57.6680   30.2960   45.0620 C   0  0  0  0  0  0  0  0  0  0  0  0
   57.1380   31.6300   45.1300 N   0  0  0  0  0  0  0  0  0  0  0  0
   57.9000   32.7760   45.5500 C   0  0  0  0  0  0  0  0  0  0  0  0
   58.0960   33.0660   46.9140 C   0  0  0  0  0  0  0  0  0  0  0  0
   58.8250   34.1970   47.2970 C   0  0  0  0  0  0  0  0  0  0  0  0
   59.3520   35.0520   46.3260 C   0  0  0  0  0  0  0  0  0  0  0  0
   59.1450   34.7820   44.9710 C   0  0  0  0  0  0  0  0  0  0  0  0
   58.4180   33.6520   44.5830 C   0  0  0  0  0  0  0  0  0  0  0  0
   54.9490   30.2550   45.1070 H   0  0  0  0  0  0  0  0  0  0  0  0
   54.7540   28.5850   44.5060 H   0  0  0  0  0  0  0  0  0  0  0  0
   56.6992   27.0353   44.6052 H   0  0  0  0  0  0  0  0  0  0  0  0
   59.1639   26.7000   44.7188 H   0  0  0  0  0  0  0  0  0  0  0  0
   60.6786   28.6541   45.0385 H   0  0  0  0  0  0  0  0  0  0  0  0
   59.7334   30.9489   45.2424 H   0  0  0  0  0  0  0  0  0  0  0  0
   56.1570   31.7830   44.8030 H   0  0  0  0  0  0  0  0  0  0  0  0
   57.6742   32.4005   47.6816 H   0  0  0  0  0  0  0  0  0  0  0  0
   58.9834   34.4133   48.3638 H   0  0  0  0  0  0  0  0  0  0  0  0
   59.9299   35.9378   46.6283 H   0  0  0  0  0  0  0  0  0  0  0  0
   59.5547   35.4597   44.2076 H   0  0  0  0  0  0  0  0  0  0  0  0
   58.2513   33.4486   43.5149 H   0  0  0  0  0  0  0  0  0  0  0  0
  1  2  1  0
  2  3  2  0
  3  4  1  0
  4  5  2  0
  5  6  1  0
  6  7  2  0
  7  8  1  0
  8  9  1  0
  9 10  2  0
 10 11  1  0
 11 12  2  0
 12 13  1  0
 13 14  2  0
  7  2  1  0
 14  9  1  0
  1 15  1  0
  1 16  1  0
  3 17  1  0
  4 18  1  0
  5 19  1  0
  6 20  1  0
  8 21  1  0
 10 22  1  0
 11 23  1  0
 12 24  1  0
 13 25  1  0
 14 26  1  0
M  END
>  <UniqueID>  (31) 
31

>  <SMILES>  (31) 
Nc1ccccc1Nc1ccccc1

>  <Energy>  (31) 
32.774455451739996

>  <Genealogy>  (31) 
Nc1ccccc1Nc1ccccc1 (3D coordinates assigned)
Nc1ccccc1Nc1ccccc1 (optimized conformer: 32.774455451739996 kcal/mol)

>  <smiles>  (31) 
Nc1ccccc1Nc1ccccc1

>  <score_type>  (31) 
oracle

>  <origin>  (31) 
adg

>  <m_score__min__energy>  (31) 
-6.4699999999999998

>  <m_primary>  (31) 
energy

$$$$
31:0
     RDKit          3D

 42 44  0  0  0  0  0  0  0  0999 V2000
   56.8560   28.5150   45.3160 C   0  0  0  0  0  0  0  0  0  0  0  0
   56.2120   29.7310   44.9500 O   0  0  0  0  0  0  0  0  0  0  0  0
   56.7720   30.6920   44.0970 C   0  0  0  0  0  0  0  0  0  0  0  0
   56.6700   30.6250   42.6890 C   0  0  0  0  0  0  0  0  0  0  0  0
   57.2550   31.6210   41.8830 C   0  0  0  0  0  0  0  0  0  0  0  0
   57.9480   32.6960   42.4650 C   0  0  0  0  0  0  0  0  0  0  0  0
   58.0440   32.7590   43.8570 C   0  0  0  0  0  0  0  0  0  0  0  0
   58.6980   33.7540   44.5930 C   0  0  0  0  0  0  0  0  0  0  0  0
   58.6130   33.5520   45.9750 C   0  0  0  0  0  0  0  0  0  0  0  0
   59.2700   34.4140   46.9830 C   0  0  0  0  0  0  0  0  0  0  0  0
   60.0010   35.3540   46.5760 O   0  0  0  0  0  0  0  0  0  0  0  0
   59.0960   34.2650   48.4020 N   0  0  0  0  0  0  0  0  0  0  0  0
   59.1680   33.0390   49.1900 C   0  0  0  0  0  0  0  0  0  0  0  0
   60.6250   32.5300   49.2380 C   0  0  0  0  0  0  0  0  0  0  0  0
   61.6090   33.3670   48.5020 N   0  0  0  0  0  0  0  0  0  0  0  0
   62.1900   32.6640   47.3330 C   0  0  0  0  0  0  0  0  0  0  0  0
   63.4730   33.3680   46.8610 C   0  0  0  0  0  0  0  0  0  0  0  0
   64.4990   33.4260   47.8460 O   0  0  0  0  0  0  0  0  0  0  0  0
   64.0210   33.3340   49.1830 C   0  0  0  0  0  0  0  0  0  0  0  0
   62.6400   33.9840   49.3790 C   0  0  0  0  0  0  0  0  0  0  0  0
   57.7590   32.1160   46.2570 S   0  0  0  0  0  0  0  0  0  0  0  0
   57.4660   31.7730   44.6410 C   0  0  0  0  0  0  0  0  0  0  0  0
   56.8971   28.4374   46.4125 H   0  0  0  0  0  0  0  0  0  0  0  0
   56.2905   27.6637   44.9091 H   0  0  0  0  0  0  0  0  0  0  0  0
   57.8779   28.5044   44.9091 H   0  0  0  0  0  0  0  0  0  0  0  0
   56.1302   29.7895   42.2195 H   0  0  0  0  0  0  0  0  0  0  0  0
   57.1686   31.5568   40.7883 H   0  0  0  0  0  0  0  0  0  0  0  0
   58.4063   33.4734   41.8360 H   0  0  0  0  0  0  0  0  0  0  0  0
   59.2231   34.6045   44.1337 H   0  0  0  0  0  0  0  0  0  0  0  0
   58.8187   33.2420   50.2131 H   0  0  0  0  0  0  0  0  0  0  0  0
   58.5314   32.2718   48.7251 H   0  0  0  0  0  0  0  0  0  0  0  0
   60.9361   32.4856   50.2922 H   0  0  0  0  0  0  0  0  0  0  0  0
   60.6238   31.5490   48.7405 H   0  0  0  0  0  0  0  0  0  0  0  0
   61.0490   34.1620   48.1070 H   0  0  0  0  0  0  0  0  0  0  0  0
   62.4292   31.6283   47.6162 H   0  0  0  0  0  0  0  0  0  0  0  0
   61.4573   32.6746   46.5126 H   0  0  0  0  0  0  0  0  0  0  0  0
   63.8632   32.8259   45.9870 H   0  0  0  0  0  0  0  0  0  0  0  0
   63.1977   34.4071   46.6276 H   0  0  0  0  0  0  0  0  0  0  0  0
   63.9490   32.2709   49.4562 H   0  0  0  0  0  0  0  0  0  0  0  0
   64.7320   33.8777   49.8225 H   0  0  0  0  0  0  0  0  0  0  0  0
   62.3344   33.8610   50.4285 H   0  0  0  0  0  0  0  0  0  0  0  0
   62.7224   35.0482   49.1130 H   0  0  0  0  0  0  0  0  0  0  0  0
  1  2  1  0
  2  3  1  0
  3  4  2  0
  4  5  1  0
  5  6  2  0
  6  7  1  0
  7  8  1  0
  8  9  2  0
  9 10  1  0
 10 11  2  0
 10 12  1  0
 12 13  1  0
 13 14  1  0
 14 15  1  0
 15 16  1  0
 16 17  1  0
 17 18  1  0
 18 19  1  0
 19 20  1  0
  9 21  1  0
 21 22  1  0
 22  3  1  0
 22  7  2  0
 20 15  1  0
  1 23  1  0
  1 24  1  0
  1 25  1  0
  4 26  1  0
  5 27  1  0
  6 28  1  0
  8 29  1  0
 13 30  1  0
 13 31  1  0
 14 32  1  0
 14 33  1  0
 15 34  1  0
 16 35  1  0
 16 36  1  0
 17 37  1  0
 17 38  1  0
 19 39  1  0
 19 40  1  0
 20 41  1  0
 20 42  1  0
M  CHG  2  12  -1  15   1
M  END
>  <UniqueID>  (32) 
32

>  <SMILES>  (32) 
COc1cccc2cc(C(=O)[N-]CC[NH+]3CCOCC3)sc12

>  <Energy>  (32) 
92.33566167706229

>  <Genealogy>  (32) 
COc1cccc2cc(C(=O)[N-]CC[NH+]3CCOCC3)sc12 (protonated)
COc1cccc2cc(C(=O)[N-]CC[NH+]3CCOCC3)sc12 (3D coordinates assigned)
COc1cccc2cc(C(=O)[N-]CC[NH+]3CCOCC3)sc12 (nonaromatic ring conformer: 92.33566167706229 kcal/mol)

>  <smiles>  (32) 
COc1cccc2cc(C(=O)NCCN3CCOCC3)sc12

>  <score_type>  (32) 
oracle

>  <origin>  (32) 
adg

>  <m_score__min__energy>  (32) 
-6.9900000000000002

>  <m_primary>  (32) 
energy

$$$$
32:0
     RDKit          3D

 52 54  0  0  0  0  0  0  0  0999 V2000
   57.7700   31.8950   42.8080 C   0  0  0  0  0  0  0  0  0  0  0  0
   57.2420   31.3880   44.0820 N   0  0  0  0  0  0  0  0  0  0  0  0
   57.3950   32.2030   45.3020 C   0  0  0  0  0  0  0  0  0  0  0  0
   58.2740   33.4380   45.0420 C   0  0  0  0  0  0  0  0  0  0  0  0
   59.2270   33.6890   46.1850 C   0  0  0  0  0  0  0  0  0  0  0  0
   58.7520   34.1960   47.4060 C   0  0  0  0  0  0  0  0  0  0  0  0
   59.6440   34.4740   48.4470 C   0  0  0  0  0  0  0  0  0  0  0  0
   61.0140   34.2450   48.2740 C   0  0  0  0  0  0  0  0  0  0  0  0
   61.4940   33.7430   47.0600 C   0  0  0  0  0  0  0  0  0  0  0  0
   60.6040   33.4690   46.0170 C   0  0  0  0  0  0  0  0  0  0  0  0
   56.5840   30.1000   44.0960 C   0  0  0  0  0  0  0  0  0  0  0  0
   55.5650   29.9420   44.8230 O   0  0  0  0  0  0  0  0  0  0  0  0
   57.0170   28.9670   43.1870 C   0  0  0  0  0  0  0  0  0  0  0  0
   58.2270   28.2020   43.7290 C   0  0  0  0  0  0  0  0  0  0  0  0
   57.8620   26.8080   43.9780 N   0  0  0  0  0  0  0  0  0  0  0  0
   57.2320   26.6380   45.5870 S   0  0  0  0  0  0  0  0  0  0  0  0
   57.1190   25.1800   45.9270 O   0  0  0  0  0  0  0  0  0  0  0  0
   55.8660   27.2630   45.6680 O   0  0  0  0  0  0  0  0  0  0  0  0
   58.3340   27.4110   46.7210 C   0  0  0  0  0  0  0  0  0  0  0  0
   59.3220   26.6680   47.3810 C   0  0  0  0  0  0  0  0  0  0  0  0
   60.1810   27.2940   48.2900 C   0  0  0  0  0  0  0  0  0  0  0  0
   60.0510   28.6610   48.5540 C   0  0  0  0  0  0  0  0  0  0  0  0
   59.0540   29.4130   47.9020 C   0  0  0  0  0  0  0  0  0  0  0  0
   58.2080   28.7840   46.9770 C   0  0  0  0  0  0  0  0  0  0  0  0
   58.9820   30.9080   48.1070 C   0  0  0  0  0  0  0  0  0  0  0  0
   59.4140   31.3260   49.5200 C   0  0  0  0  0  0  0  0  0  0  0  0
   60.6810   30.6290   49.9270 C   0  0  0  0  0  0  0  0  0  0  0  0
   61.4910   31.1930   50.7090 O   0  0  0  0  0  0  0  0  0  0  0  0
   60.9250   29.2900   49.4940 N   0  0  0  0  0  0  0  0  0  0  0  0
   58.5504   32.6443   43.0067 H   0  0  0  0  0  0  0  0  0  0  0  0
   58.1995   31.0623   42.2317 H   0  0  0  0  0  0  0  0  0  0  0  0
   56.9554   32.3579   42.2317 H   0  0  0  0  0  0  0  0  0  0  0  0
   56.4016   32.5346   45.6384 H   0  0  0  0  0  0  0  0  0  0  0  0
   57.8811   31.5867   46.0727 H   0  0  0  0  0  0  0  0  0  0  0  0
   58.8543   33.2763   44.1216 H   0  0  0  0  0  0  0  0  0  0  0  0
   57.6169   34.3144   44.9417 H   0  0  0  0  0  0  0  0  0  0  0  0
   57.6754   34.3749   47.5438 H   0  0  0  0  0  0  0  0  0  0  0  0
   59.2690   34.8724   49.4012 H   0  0  0  0  0  0  0  0  0  0  0  0
   61.7144   34.4603   49.0944 H   0  0  0  0  0  0  0  0  0  0  0  0
   62.5710   33.5639   46.9258 H   0  0  0  0  0  0  0  0  0  0  0  0
   60.9838   33.0795   45.0609 H   0  0  0  0  0  0  0  0  0  0  0  0
   56.1777   28.2646   43.0764 H   0  0  0  0  0  0  0  0  0  0  0  0
   57.3088   29.4086   42.2227 H   0  0  0  0  0  0  0  0  0  0  0  0
   59.0427   28.2397   42.9920 H   0  0  0  0  0  0  0  0  0  0  0  0
   58.5564   28.6646   44.6711 H   0  0  0  0  0  0  0  0  0  0  0  0
   59.4221   25.5905   47.1838 H   0  0  0  0  0  0  0  0  0  0  0  0
   60.9614   26.7091   48.7989 H   0  0  0  0  0  0  0  0  0  0  0  0
   57.4416   29.3708   46.4495 H   0  0  0  0  0  0  0  0  0  0  0  0
   59.6429   31.3971   47.3762 H   0  0  0  0  0  0  0  0  0  0  0  0
   57.9345   31.2153   47.9716 H   0  0  0  0  0  0  0  0  0  0  0  0
   59.5805   32.4132   49.5378 H   0  0  0  0  0  0  0  0  0  0  0  0
   58.6186   31.0448   50.2259 H   0  0  0  0  0  0  0  0  0  0  0  0
  1  2  1  0
  2  3  1  0
  3  4  1  0
  4  5  1  0
  5  6  2  0
  6  7  1  0
  7  8  2  0
  8  9  1  0
  9 10  2  0
  2 11  1  0
 11 12  2  0
 11 13  1  0
 13 14  1  0
 14 15  1  0
 15 16  1  0
 16 17  2  0
 16 18  2  0
 16 19  1  0
 19 20  2  0
 20 21  1  0
 21 22  2  0
 22 23  1  0
 23 24  2  0
 23 25  1  0
 25 26  1  0
 26 27  1  0
 27 28  2  0
 27 29  1  0
 10  5  1  0
 24 19  1  0
 29 22  1  0
  1 30  1  0
  1 31  1  0
  1 32  1  0
  3 33  1  0
  3 34  1  0
  4 35  1  0
  4 36  1  0
  6 37  1  0
  7 38  1  0
  8 39  1  0
  9 40  1  0
 10 41  1  0
 13 42  1  0
 13 43  1  0
 14 44  1  0
 14 45  1  0
 20 46  1  0
 21 47  1  0
 24 48  1  0
 25 49  1  0
 25 50  1  0
 26 51  1  0
 26 52  1  0
M  CHG  2  15  -1  29  -1
M  END
>  <UniqueID>  (33) 
33

>  <SMILES>  (33) 
CN(CCc1ccccc1)C(=O)CC[N-]S(=O)(=O)c1ccc2c(c1)CCC(=O)[N-]2

>  <Energy>  (33) 
44.930358238090584

>  <Genealogy>  (33) 
CN(CCc1ccccc1)C(=O)CC[N-]S(=O)(=O)c1ccc2c(c1)CCC(=O)[N-]2 (protonated)
CN(CCc1ccccc1)C(=O)CC[N-]S(=O)(=O)c1ccc2c(c1)CCC(=O)[N-]2 (3D coordinates assigned)
CN(CCc1ccccc1)C(=O)CC[N-]S(=O)(=O)c1ccc2c(c1)CCC(=O)[N-]2 (nonaromatic ring conformer: 44.930358238090584 kcal/mol)

>  <smiles>  (33) 
CN(CCc1ccccc1)C(=O)CCNS(=O)(=O)c1ccc2c(c1)CCC(=O)N2

>  <score_type>  (33) 
oracle

>  <origin>  (33) 
adg

>  <m_score__min__energy>  (33) 
-11.16

>  <m_primary>  (33) 
energy

$$$$
33:0
     RDKit          3D

 41 42  0  0  0  0  0  0  0  0999 V2000
   57.4090   32.2200   41.5250 C   0  0  0  0  0  0  0  0  0  0  0  0
   58.3690   32.7510   42.5870 C   0  0  0  0  0  0  0  0  0  0  0  0
   57.8210   32.5450   43.9380 N   0  0  0  0  0  0  0  0  0  0  0  0
   57.7030   33.6980   44.8430 C   0  0  0  0  0  0  0  0  0  0  0  0
   59.0550   34.3780   45.0440 C   0  0  0  0  0  0  0  0  0  0  0  0
   57.4000   31.2310   44.3740 C   0  0  0  0  0  0  0  0  0  0  0  0
   58.2890   30.3900   45.0670 C   0  0  0  0  0  0  0  0  0  0  0  0
   57.8900   29.1160   45.4820 C   0  0  0  0  0  0  0  0  0  0  0  0
   56.5860   28.6630   45.2270 C   0  0  0  0  0  0  0  0  0  0  0  0
   56.1560   27.3490   45.6220 N   0  0  0  0  0  0  0  0  0  0  0  0
   56.7800   26.5710   46.6530 C   0  0  0  0  0  0  0  0  0  0  0  0
   57.6620   27.0800   47.3980 O   0  0  0  0  0  0  0  0  0  0  0  0
   56.3860   25.2070   46.8350 N   0  0  0  0  0  0  0  0  0  0  0  0
   56.6380   24.1590   45.8910 C   0  0  0  0  0  0  0  0  0  0  0  0
   57.9630   23.7480   45.6850 C   0  0  0  0  0  0  0  0  0  0  0  0
   58.2530   22.7300   44.7730 C   0  0  0  0  0  0  0  0  0  0  0  0
   57.2240   22.1260   44.0460 C   0  0  0  0  0  0  0  0  0  0  0  0
   55.9050   22.5500   44.2210 C   0  0  0  0  0  0  0  0  0  0  0  0
   55.6030   23.5710   45.1320 C   0  0  0  0  0  0  0  0  0  0  0  0
   53.9420   24.1440   45.2240 Cl  0  0  0  0  0  0  0  0  0  0  0  0
   55.7040   29.4890   44.5170 C   0  0  0  0  0  0  0  0  0  0  0  0
   56.1020   30.7630   44.1030 C   0  0  0  0  0  0  0  0  0  0  0  0
   56.5473   31.7434   42.0151 H   0  0  0  0  0  0  0  0  0  0  0  0
   57.0594   33.0530   40.8974 H   0  0  0  0  0  0  0  0  0  0  0  0
   57.9288   31.4811   40.8974 H   0  0  0  0  0  0  0  0  0  0  0  0
   59.3290   32.2207   42.5027 H   0  0  0  0  0  0  0  0  0  0  0  0
   58.5115   33.8297   42.4253 H   0  0  0  0  0  0  0  0  0  0  0  0
   56.9967   34.4227   44.4117 H   0  0  0  0  0  0  0  0  0  0  0  0
   57.3422   33.3413   45.8190 H   0  0  0  0  0  0  0  0  0  0  0  0
   59.2577   34.4800   46.1203 H   0  0  0  0  0  0  0  0  0  0  0  0
   59.8443   33.7696   44.5782 H   0  0  0  0  0  0  0  0  0  0  0  0
   59.0372   35.3744   44.5782 H   0  0  0  0  0  0  0  0  0  0  0  0
   59.3094   30.7384   45.2849 H   0  0  0  0  0  0  0  0  0  0  0  0
   58.6016   28.4651   46.0111 H   0  0  0  0  0  0  0  0  0  0  0  0
   55.2760   26.9700   45.2020 H   0  0  0  0  0  0  0  0  0  0  0  0
   58.7784   24.2297   46.2445 H   0  0  0  0  0  0  0  0  0  0  0  0
   59.2932   22.4035   44.6271 H   0  0  0  0  0  0  0  0  0  0  0  0
   57.4527   21.3172   43.3364 H   0  0  0  0  0  0  0  0  0  0  0  0
   55.0980   22.0795   43.6401 H   0  0  0  0  0  0  0  0  0  0  0  0
   54.6902   29.1315   44.2837 H   0  0  0  0  0  0  0  0  0  0  0  0
   55.3933   31.4057   43.5601 H   0  0  0  0  0  0  0  0  0  0  0  0
  1  2  1  0
  2  3  1  0
  3  4  1  0
  4  5  1  0
  3  6  1  0
  6  7  2  0
  7  8  1  0
  8  9  2  0
  9 10  1  0
 10 11  1  0
 11 12  2  0
 11 13  1  0
 13 14  1  0
 14 15  2  0
 15 16  1  0
 16 17  2  0
 17 18  1  0
 18 19  2  0
 19 20  1  0
  9 21  1  0
 21 22  2  0
 22  6  1  0
 19 14  1  0
  1 23  1  0
  1 24  1  0
  1 25  1  0
  2 26  1  0
  2 27  1  0
  4 28  1  0
  4 29  1  0
  5 30  1  0
  5 31  1  0
  5 32  1  0
  7 33  1  0
  8 34  1  0
 10 35  1  0
 15 36  1  0
 16 37  1  0
 17 38  1  0
 18 39  1  0
 21 40  1  0
 22 41  1  0
M  CHG  1  13  -1
M  END
>  <UniqueID>  (34) 
34

>  <SMILES>  (34) 
CCN(CC)c1ccc(NC(=O)[N-]c2ccccc2Cl)cc1

>  <Energy>  (34) 
48.71005783650761

>  <Genealogy>  (34) 
CCN(CC)c1ccc(NC(=O)[N-]c2ccccc2Cl)cc1 (protonated)
CCN(CC)c1ccc(NC(=O)[N-]c2ccccc2Cl)cc1 (3D coordinates assigned)
CCN(CC)c1ccc(NC(=O)[N-]c2ccccc2Cl)cc1 (optimized conformer: 48.71005783650761 kcal/mol)

>  <smiles>  (34) 
CCN(CC)c1ccc(NC(=O)Nc2ccccc2Cl)cc1

>  <score_type>  (34) 
oracle

>  <origin>  (34) 
adg

>  <m_score__min__energy>  (34) 
-8.8900000000000006

>  <m_primary>  (34) 
energy

$$$$
34:0
     RDKit          3D

 45 47  0  0  0  0  0  0  0  0999 V2000
   65.6220   32.3190   50.2760 C   0  0  0  0  0  0  0  0  0  0  0  0
   65.2640   33.1420   49.1690 O   0  0  0  0  0  0  0  0  0  0  0  0
   63.9620   33.2640   48.6630 C   0  0  0  0  0  0  0  0  0  0  0  0
   62.8530   33.5360   49.4880 C   0  0  0  0  0  0  0  0  0  0  0  0
   61.5740   33.6490   48.9350 C   0  0  0  0  0  0  0  0  0  0  0  0
   61.3800   33.4930   47.5520 C   0  0  0  0  0  0  0  0  0  0  0  0
   60.0310   33.6090   46.9630 C   0  0  0  0  0  0  0  0  0  0  0  0
   59.6490   32.9740   45.8330 N   0  0  0  0  0  0  0  0  0  0  0  0
   58.3740   33.3740   45.6750 C   0  0  0  0  0  0  0  0  0  0  0  0
   57.4910   32.9570   44.5310 C   0  0  0  0  0  0  0  0  0  0  0  0
   58.0250   31.8220   43.7370 N   0  0  2  0  0  0  0  0  0  0  0  0
   58.1280   32.1370   42.3000 C   0  0  0  0  0  0  0  0  0  0  0  0
   57.3780   30.5140   44.0410 C   0  0  0  0  0  0  0  0  0  0  0  0
   58.1970   29.5420   44.9470 C   0  0  1  0  0  0  0  0  0  0  0  0
   59.6270   29.3350   44.5100 C   0  0  0  0  0  0  0  0  0  0  0  0
   60.3660   29.1270   45.8210 C   0  0  0  0  0  0  0  0  0  0  0  0
   59.5590   29.5540   46.8960 O   0  0  0  0  0  0  0  0  0  0  0  0
   58.3820   30.0970   46.3490 C   0  0  0  0  0  0  0  0  0  0  0  0
   58.0240   34.2230   46.7010 C   0  0  0  0  0  0  0  0  0  0  0  0
   59.0710   34.3470   47.4780 O   0  0  0  0  0  0  0  0  0  0  0  0
   62.4870   33.2210   46.7330 C   0  0  0  0  0  0  0  0  0  0  0  0
   63.7650   33.1090   47.2860 C   0  0  0  0  0  0  0  0  0  0  0  0
   65.3928   32.8460   51.2139 H   0  0  0  0  0  0  0  0  0  0  0  0
   65.0512   31.3796   50.2343 H   0  0  0  0  0  0  0  0  0  0  0  0
   66.6984   32.0961   50.2343 H   0  0  0  0  0  0  0  0  0  0  0  0
   62.9940   33.6600   50.5719 H   0  0  0  0  0  0  0  0  0  0  0  0
   60.7138   33.8614   49.5868 H   0  0  0  0  0  0  0  0  0  0  0  0
   56.5125   32.6634   44.9388 H   0  0  0  0  0  0  0  0  0  0  0  0
   57.4257   33.8183   43.8498 H   0  0  0  0  0  0  0  0  0  0  0  0
   59.0180   31.7200   44.0610 H   0  0  0  0  0  0  0  0  0  0  0  0
   58.4677   33.1758   42.1758 H   0  0  0  0  0  0  0  0  0  0  0  0
   58.8502   31.4559   41.8262 H   0  0  0  0  0  0  0  0  0  0  0  0
   57.1429   32.0142   41.8262 H   0  0  0  0  0  0  0  0  0  0  0  0
   56.4224   30.7199   44.5453 H   0  0  0  0  0  0  0  0  0  0  0  0
   57.2737   30.0017   43.0732 H   0  0  0  0  0  0  0  0  0  0  0  0
   57.6050   28.6167   44.8894 H   0  0  0  0  0  0  0  0  0  0  0  0
   59.7170   28.4506   43.8622 H   0  0  0  0  0  0  0  0  0  0  0  0
   60.0232   30.1753   43.9209 H   0  0  0  0  0  0  0  0  0  0  0  0
   60.6014   28.0594   45.9424 H   0  0  0  0  0  0  0  0  0  0  0  0
   61.2973   29.7124   45.8104 H   0  0  0  0  0  0  0  0  0  0  0  0
   57.5206   29.8191   46.9740 H   0  0  0  0  0  0  0  0  0  0  0  0
   58.4566   31.1938   46.3117 H   0  0  0  0  0  0  0  0  0  0  0  0
   57.0464   34.7072   46.8419 H   0  0  0  0  0  0  0  0  0  0  0  0
   62.3474   33.0953   45.6492 H   0  0  0  0  0  0  0  0  0  0  0  0
   64.6245   32.8970   46.6331 H   0  0  0  0  0  0  0  0  0  0  0  0
  1  2  1  0
  2  3  1  0
  3  4  2  0
  4  5  1  0
  5  6  2  0
  6  7  1  0
  7  8  2  0
  8  9  1  0
  9 10  1  0
 10 11  1  0
 11 12  1  0
 11 13  1  0
 13 14  1  0
 14 15  1  0
 15 16  1  0
 16 17  1  0
 17 18  1  0
  9 19  2  0
 19 20  1  0
  6 21  1  0
 21 22  2  0
 22  3  1  0
 20  7  1  0
 18 14  1  0
  1 23  1  0
  1 24  1  0
  1 25  1  0
  4 26  1  0
  5 27  1  0
 10 28  1  0
 10 29  1  0
 11 30  1  1
 12 31  1  0
 12 32  1  0
 12 33  1  0
 13 34  1  0
 13 35  1  0
 14 36  1  1
 15 37  1  0
 15 38  1  0
 16 39  1  0
 16 40  1  0
 18 41  1  0
 18 42  1  0
 19 43  1  0
 21 44  1  0
 22 45  1  0
M  CHG  1  11   1
M  END
>  <UniqueID>  (35) 
35

>  <SMILES>  (35) 
COc1ccc(-c2nc(C[N@H+](C)C[C@H]3CCOC3)co2)cc1

>  <Energy>  (35) 
82.8252014742907

>  <Genealogy>  (35) 
COc1ccc(-c2nc(C[NH+](C)CC3CCOC3)co2)cc1 (protonated)
COc1ccc(-c2nc(C[N@H+](C)C[C@H]3CCOC3)co2)cc1 (chirality)
COc1ccc(-c2nc(C[N@H+](C)C[C@H]3CCOC3)co2)cc1 (3D coordinates assigned)
COc1ccc(-c2nc(C[N@H+](C)C[C@H]3CCOC3)co2)cc1 (nonaromatic ring conformer: 82.8252014742907 kcal/mol)

>  <smiles>  (35) 
COc1ccc(-c2nc(CN(C)CC3CCOC3)co2)cc1

>  <score_type>  (35) 
oracle

>  <origin>  (35) 
adg

>  <m_score__min__energy>  (35) 
-5.1200000000000001

>  <m_primary>  (35) 
energy

$$$$
35:0
     RDKit          3D

 69 72  0  0  0  0  0  0  0  0999 V2000
   57.4330   33.8790   45.7140 C   0  0  0  0  0  0  0  0  0  0  0  0
   58.5150   34.5930   46.5350 C   0  0  0  0  0  0  0  0  0  0  0  0
   59.5730   35.2220   45.6250 C   0  0  0  0  0  0  0  0  0  0  0  0
   59.1140   33.6870   47.5450 N   0  0  0  0  0  0  0  0  0  0  0  0
   59.0480   32.2310   47.3220 C   0  0  0  0  0  0  0  0  0  0  0  0
   58.8840   31.4810   48.6320 C   0  0  0  0  0  0  0  0  0  0  0  0
   57.9650   31.9990   49.5620 C   0  0  0  0  0  0  0  0  0  0  0  0
   57.7940   31.4100   50.8190 C   0  0  0  0  0  0  0  0  0  0  0  0
   56.7800   31.9550   51.7910 C   0  0  0  0  0  0  0  0  0  0  0  0
   56.1110   30.8590   52.4950 N   0  0  0  0  0  0  0  0  0  0  0  0
   54.7010   30.5800   52.3860 C   0  0  0  0  0  0  0  0  0  0  0  0
   54.2340   29.2880   52.6660 C   0  0  0  0  0  0  0  0  0  0  0  0
   52.8810   28.9800   52.5240 C   0  0  0  0  0  0  0  0  0  0  0  0
   51.9780   29.9570   52.0990 C   0  0  0  0  0  0  0  0  0  0  0  0
   52.4190   31.2630   51.8250 C   0  0  0  0  0  0  0  0  0  0  0  0
   51.4680   32.2960   51.3460 C   0  0  0  0  0  0  0  0  0  0  0  0
   51.0440   32.3170   49.9840 N   0  0  0  0  0  0  0  0  0  0  0  0
   51.0150   33.1600   52.1440 O   0  0  0  0  0  0  0  0  0  0  0  0
   53.7810   31.5710   51.9940 C   0  0  0  0  0  0  0  0  0  0  0  0
   58.5430   30.2800   51.1520 C   0  0  0  0  0  0  0  0  0  0  0  0
   59.4300   29.7260   50.2300 C   0  0  0  0  0  0  0  0  0  0  0  0
   59.5780   30.2760   48.9380 C   0  0  0  0  0  0  0  0  0  0  0  0
   60.4990   29.6150   47.9200 C   0  0  0  0  0  0  0  0  0  0  0  0
   59.8880   28.4160   47.2180 C   0  0  0  0  0  0  0  0  0  0  0  0
   59.9620   27.1320   47.8100 C   0  0  0  0  0  0  0  0  0  0  0  0
   60.7480   26.8680   49.3670 Cl  0  0  0  0  0  0  0  0  0  0  0  0
   59.4210   26.0210   47.1550 C   0  0  0  0  0  0  0  0  0  0  0  0
   58.8160   26.1650   45.9070 C   0  0  0  0  0  0  0  0  0  0  0  0
   58.7530   27.4190   45.3010 C   0  0  0  0  0  0  0  0  0  0  0  0
   59.2870   28.5440   45.9410 C   0  0  0  0  0  0  0  0  0  0  0  0
   59.2130   30.0850   45.0890 Cl  0  0  0  0  0  0  0  0  0  0  0  0
   60.0770   34.1770   48.5080 C   0  0  0  0  0  0  0  0  0  0  0  0
   59.6940   34.9580   49.4230 O   0  0  0  0  0  0  0  0  0  0  0  0
   61.5010   33.7910   48.4590 C   0  0  0  0  0  0  0  0  0  0  0  0
   62.2620   33.7720   49.6400 C   0  0  0  0  0  0  0  0  0  0  0  0
   63.6170   33.4190   49.6020 C   0  0  0  0  0  0  0  0  0  0  0  0
   64.2230   33.1000   48.3840 C   0  0  0  0  0  0  0  0  0  0  0  0
   63.4790   33.1430   47.2010 C   0  0  0  0  0  0  0  0  0  0  0  0
   62.1250   33.4930   47.2360 C   0  0  0  0  0  0  0  0  0  0  0  0
   56.7113   33.4028   46.3940 H   0  0  0  0  0  0  0  0  0  0  0  0
   56.9113   34.6108   45.0797 H   0  0  0  0  0  0  0  0  0  0  0  0
   57.9007   33.1116   45.0797 H   0  0  0  0  0  0  0  0  0  0  0  0
   58.0342   35.4133   47.0881 H   0  0  0  0  0  0  0  0  0  0  0  0
   60.3564   35.6877   46.2410 H   0  0  0  0  0  0  0  0  0  0  0  0
   60.0204   34.4431   44.9901 H   0  0  0  0  0  0  0  0  0  0  0  0
   59.1025   35.9872   44.9901 H   0  0  0  0  0  0  0  0  0  0  0  0
   58.1907   32.0064   46.6704 H   0  0  0  0  0  0  0  0  0  0  0  0
   59.9884   31.9080   46.8515 H   0  0  0  0  0  0  0  0  0  0  0  0
   57.3692   32.8845   49.2957 H   0  0  0  0  0  0  0  0  0  0  0  0
   57.2888   32.5995   52.5230 H   0  0  0  0  0  0  0  0  0  0  0  0
   56.0283   32.5356   51.2361 H   0  0  0  0  0  0  0  0  0  0  0  0
   56.7200   30.1630   52.9830 H   0  0  0  0  0  0  0  0  0  0  0  0
   54.9390   28.5124   52.9997 H   0  0  0  0  0  0  0  0  0  0  0  0
   52.5239   27.9639   52.7476 H   0  0  0  0  0  0  0  0  0  0  0  0
   50.9147   29.7026   51.9779 H   0  0  0  0  0  0  0  0  0  0  0  0
   50.0290   32.3300   49.7350 H   0  0  0  0  0  0  0  0  0  0  0  0
   54.1316   32.5986   51.8177 H   0  0  0  0  0  0  0  0  0  0  0  0
   58.4328   29.8243   52.1471 H   0  0  0  0  0  0  0  0  0  0  0  0
   60.0247   28.8453   50.5140 H   0  0  0  0  0  0  0  0  0  0  0  0
   60.7651   30.3627   47.1583 H   0  0  0  0  0  0  0  0  0  0  0  0
   61.3731   29.2454   48.4762 H   0  0  0  0  0  0  0  0  0  0  0  0
   59.4730   25.0286   47.6267 H   0  0  0  0  0  0  0  0  0  0  0  0
   58.3878   25.2879   45.3998 H   0  0  0  0  0  0  0  0  0  0  0  0
   58.2805   27.5253   44.3133 H   0  0  0  0  0  0  0  0  0  0  0  0
   61.7916   34.0355   50.5988 H   0  0  0  0  0  0  0  0  0  0  0  0
   64.2044   33.3929   50.5316 H   0  0  0  0  0  0  0  0  0  0  0  0
   65.2851   32.8151   48.3559 H   0  0  0  0  0  0  0  0  0  0  0  0
   63.9591   32.9013   46.2413 H   0  0  0  0  0  0  0  0  0  0  0  0
   61.5462   33.5351   46.3016 H   0  0  0  0  0  0  0  0  0  0  0  0
  1  2  1  0
  2  3  1  0
  2  4  1  0
  4  5  1  0
  5  6  1  0
  6  7  2  0
  7  8  1  0
  8  9  1  0
  9 10  1  0
 10 11  1  0
 11 12  2  0
 12 13  1  0
 13 14  2  0
 14 15  1  0
 15 16  1  0
 16 17  1  0
 16 18  2  0
 15 19  2  0
  8 20  2  0
 20 21  1  0
 21 22  2  0
 22 23  1  0
 23 24  1  0
 24 25  2  0
 25 26  1  0
 25 27  1  0
 27 28  2  0
 28 29  1  0
 29 30  2  0
 30 31  1  0
  4 32  1  0
 32 33  2  0
 32 34  1  0
 34 35  2  0
 35 36  1  0
 36 37  2  0
 37 38  1  0
 38 39  2  0
 22  6  1  0
 30 24  1  0
 39 34  1  0
 19 11  1  0
  1 40  1  0
  1 41  1  0
  1 42  1  0
  2 43  1  0
  3 44  1  0
  3 45  1  0
  3 46  1  0
  5 47  1  0
  5 48  1  0
  7 49  1  0
  9 50  1  0
  9 51  1  0
 10 52  1  0
 12 53  1  0
 13 54  1  0
 14 55  1  0
 17 56  1  0
 19 57  1  0
 20 58  1  0
 21 59  1  0
 23 60  1  0
 23 61  1  0
 27 62  1  0
 28 63  1  0
 29 64  1  0
 35 65  1  0
 36 66  1  0
 37 67  1  0
 38 68  1  0
 39 69  1  0
M  CHG  1  17  -1
M  END
>  <UniqueID>  (36) 
36

>  <SMILES>  (36) 
CC(C)N(Cc1cc(CNc2cccc(C([NH-])=O)c2)ccc1Cc1c(Cl)cccc1Cl)C(=O)c1ccccc1

>  <Energy>  (36) 
81.94495442887496

>  <Genealogy>  (36) 
CC(C)N(Cc1cc(CNc2cccc(C([NH-])=O)c2)ccc1Cc1c(Cl)cccc1Cl)C(=O)c1ccccc1 (protonated)
CC(C)N(Cc1cc(CNc2cccc(C([NH-])=O)c2)ccc1Cc1c(Cl)cccc1Cl)C(=O)c1ccccc1 (3D coordinates assigned)
CC(C)N(Cc1cc(CNc2cccc(C([NH-])=O)c2)ccc1Cc1c(Cl)cccc1Cl)C(=O)c1ccccc1 (optimized conformer: 81.94495442887496 kcal/mol)

>  <smiles>  (36) 
CC(C)N(Cc1cc(CNc2cccc(C(N)=O)c2)ccc1Cc1c(Cl)cccc1Cl)C(=O)c1ccccc1

>  <score_type>  (36) 
oracle

>  <origin>  (36) 
adg

>  <m_score__min__energy>  (36) 
-15.300000000000001

>  <m_primary>  (36) 
energy

$$$$
36:0
     RDKit          3D

 45 47  0  0  0  0  0  0  0  0999 V2000
   65.7960   33.0940   50.1300 C   0  0  0  0  0  0  0  0  0  0  0  0
   64.7810   33.4810   49.2100 O   0  0  0  0  0  0  0  0  0  0  0  0
   63.7210   32.6540   48.8060 C   0  0  0  0  0  0  0  0  0  0  0  0
   63.2190   32.6600   47.4920 C   0  0  0  0  0  0  0  0  0  0  0  0
   62.1610   31.8160   47.1390 C   0  0  0  0  0  0  0  0  0  0  0  0
   61.5890   30.9460   48.0840 C   0  0  0  0  0  0  0  0  0  0  0  0
   60.4620   30.0640   47.6890 C   0  0  0  0  0  0  0  0  0  0  0  0
   59.6210   29.4630   48.6350 C   0  0  0  0  0  0  0  0  0  0  0  0
   58.5900   28.6350   48.2030 C   0  0  0  0  0  0  0  0  0  0  0  0
   58.4140   28.4140   46.8380 C   0  0  0  0  0  0  0  0  0  0  0  0
   57.4850   27.6540   46.4480 O   0  0  0  0  0  0  0  0  0  0  0  0
   59.2530   29.0200   45.9420 N   0  0  0  0  0  0  0  0  0  0  0  0
   59.1260   28.7870   44.4990 C   0  0  0  0  0  0  0  0  0  0  0  0
   57.6990   29.1020   44.0370 C   0  0  0  0  0  0  0  0  0  0  0  0
   57.4690   30.6090   43.8730 C   0  0  0  0  0  0  0  0  0  0  0  0
   58.2850   31.3730   44.8170 N   0  0  0  0  0  0  0  0  0  0  0  0
   57.7710   32.5000   45.5430 C   0  0  0  0  0  0  0  0  0  0  0  0
   56.6390   32.9720   45.2490 O   0  0  0  0  0  0  0  0  0  0  0  0
   58.5460   33.1260   46.6290 C   0  0  0  0  0  0  0  0  0  0  0  0
   58.5190   32.7910   47.9810 C   0  0  0  0  0  0  0  0  0  0  0  0
   59.3600   33.5900   48.7650 C   0  0  0  0  0  0  0  0  0  0  0  0
   60.0480   34.5560   48.0450 C   0  0  0  0  0  0  0  0  0  0  0  0
   59.6070   34.4170   46.4290 S   0  0  0  0  0  0  0  0  0  0  0  0
   60.2460   29.8060   46.3700 N   0  0  0  0  0  0  0  0  0  0  0  0
   62.0910   30.9540   49.3990 C   0  0  0  0  0  0  0  0  0  0  0  0
   63.1480   31.7980   49.7510 C   0  0  0  0  0  0  0  0  0  0  0  0
   65.4312   33.2331   51.1584 H   0  0  0  0  0  0  0  0  0  0  0  0
   66.0506   32.0357   49.9713 H   0  0  0  0  0  0  0  0  0  0  0  0
   66.6906   33.7141   49.9713 H   0  0  0  0  0  0  0  0  0  0  0  0
   63.6599   33.3306   46.7397 H   0  0  0  0  0  0  0  0  0  0  0  0
   61.7719   31.8330   46.1102 H   0  0  0  0  0  0  0  0  0  0  0  0
   59.7746   29.6442   49.7090 H   0  0  0  0  0  0  0  0  0  0  0  0
   57.9190   28.1584   48.9328 H   0  0  0  0  0  0  0  0  0  0  0  0
   59.8336   29.4360   43.9622 H   0  0  0  0  0  0  0  0  0  0  0  0
   59.3486   27.7314   44.2843 H   0  0  0  0  0  0  0  0  0  0  0  0
   57.5213   28.6082   43.0703 H   0  0  0  0  0  0  0  0  0  0  0  0
   57.0035   28.7333   44.8053 H   0  0  0  0  0  0  0  0  0  0  0  0
   57.7360   30.9035   42.8473 H   0  0  0  0  0  0  0  0  0  0  0  0
   56.4092   30.8242   44.0740 H   0  0  0  0  0  0  0  0  0  0  0  0
   59.2880   31.1030   44.9190 H   0  0  0  0  0  0  0  0  0  0  0  0
   57.8992   31.9802   48.3914 H   0  0  0  0  0  0  0  0  0  0  0  0
   59.4656   33.4634   49.8526 H   0  0  0  0  0  0  0  0  0  0  0  0
   60.7587   35.2861   48.4597 H   0  0  0  0  0  0  0  0  0  0  0  0
   61.6477   30.2904   50.1560 H   0  0  0  0  0  0  0  0  0  0  0  0
   63.5327   31.7886   50.7815 H   0  0  0  0  0  0  0  0  0  0  0  0
  1  2  1  0
  2  3  1  0
  3  4  2  0
  4  5  1  0
  5  6  2  0
  6  7  1  0
  7  8  1  0
  8  9  2  0
  9 10  1  0
 10 11  2  0
 10 12  1  0
 12 13  1  0
 13 14  1  0
 14 15  1  0
 15 16  1  0
 16 17  1  0
 17 18  2  0
 17 19  1  0
 19 20  2  0
 20 21  1  0
 21 22  2  0
 22 23  1  0
 12 24  1  0
  6 25  1  0
 25 26  2  0
 26  3  1  0
 24  7  2  0
 23 19  1  0
  1 27  1  0
  1 28  1  0
  1 29  1  0
  4 30  1  0
  5 31  1  0
  8 32  1  0
  9 33  1  0
 13 34  1  0
 13 35  1  0
 14 36  1  0
 14 37  1  0
 15 38  1  0
 15 39  1  0
 16 40  1  0
 20 41  1  0
 21 42  1  0
 22 43  1  0
 25 44  1  0
 26 45  1  0
M  END
>  <UniqueID>  (37) 
37

>  <SMILES>  (37) 
COc1ccc(-c2ccc(=O)n(CCCNC(=O)c3cccs3)n2)cc1

>  <Energy>  (37) 
71.28747705989363

>  <Genealogy>  (37) 
COc1ccc(-c2ccc(=O)n(CCCNC(=O)c3cccs3)n2)cc1 (3D coordinates assigned)
COc1ccc(-c2ccc(=O)n(CCCNC(=O)c3cccs3)n2)cc1 (optimized conformer: 71.28747705989363 kcal/mol)

>  <smiles>  (37) 
COc1ccc(-c2ccc(=O)n(CCCNC(=O)c3cccs3)n2)cc1

>  <score_type>  (37) 
oracle

>  <origin>  (37) 
adg

>  <m_score__min__energy>  (37) 
-7.2400000000000002

>  <m_primary>  (37) 
energy

$$$$
37:0
     RDKit          3D

 58 60  0  0  0  0  0  0  0  0999 V2000
   60.2780   28.7330   46.1990 C   0  0  0  0  0  0  0  0  0  0  0  0
   59.1910   29.6170   46.4500 O   0  0  0  0  0  0  0  0  0  0  0  0
   59.2690   31.0160   46.3870 C   0  0  0  0  0  0  0  0  0  0  0  0
   60.3920   31.7150   46.8720 C   0  0  0  0  0  0  0  0  0  0  0  0
   60.4840   33.1090   46.7390 C   0  0  0  0  0  0  0  0  0  0  0  0
   61.7100   33.8470   47.2400 C   0  0  0  0  0  0  0  0  0  0  0  0
   62.5060   33.0800   48.2250 N   0  0  0  0  0  0  0  0  0  0  0  0
   63.7650   32.5770   47.6490 C   0  0  0  0  0  0  0  0  0  0  0  0
   62.7330   33.8350   49.4760 C   0  0  0  0  0  0  0  0  0  0  0  0
   61.8030   33.3620   50.6130 C   0  0  0  0  0  0  0  0  0  0  0  0
   60.6360   32.5820   50.1350 N   0  0  0  0  0  0  0  0  0  0  0  0
   60.8180   31.1560   50.4810 C   0  0  0  0  0  0  0  0  0  0  0  0
   59.6220   30.3110   49.9840 C   0  0  0  0  0  0  0  0  0  0  0  0
   58.5320   31.1080   49.5570 O   0  0  0  0  0  0  0  0  0  0  0  0
   58.2200   32.0620   50.5510 C   0  0  0  0  0  0  0  0  0  0  0  0
   59.3630   33.0860   50.7070 C   0  0  0  0  0  0  0  0  0  0  0  0
   59.4320   33.8090   46.1300 C   0  0  0  0  0  0  0  0  0  0  0  0
   58.3110   33.1290   45.6540 C   0  0  0  0  0  0  0  0  0  0  0  0
   57.0100   34.0390   44.9030 Cl  0  0  0  0  0  0  0  0  0  0  0  0
   58.2130   31.7360   45.7940 C   0  0  0  0  0  0  0  0  0  0  0  0
   57.0680   31.0920   45.3100 O   0  0  0  0  0  0  0  0  0  0  0  0
   57.0410   30.3650   44.0840 C   0  0  0  0  0  0  0  0  0  0  0  0
   57.2850   28.9130   44.3750 C   0  0  0  0  0  0  0  0  0  0  0  0
   57.9580   28.1040   43.4440 C   0  0  0  0  0  0  0  0  0  0  0  0
   58.1470   26.7430   43.7020 C   0  0  0  0  0  0  0  0  0  0  0  0
   57.6580   26.1780   44.8830 C   0  0  0  0  0  0  0  0  0  0  0  0
   56.9770   26.9740   45.8080 C   0  0  0  0  0  0  0  0  0  0  0  0
   56.7840   28.3370   45.5540 C   0  0  0  0  0  0  0  0  0  0  0  0
   60.6999   28.3899   47.1552 H   0  0  0  0  0  0  0  0  0  0  0  0
   59.9204   27.8662   45.6239 H   0  0  0  0  0  0  0  0  0  0  0  0
   61.0538   29.2598   45.6239 H   0  0  0  0  0  0  0  0  0  0  0  0
   61.2069   31.1611   47.3611 H   0  0  0  0  0  0  0  0  0  0  0  0
   62.3531   34.0772   46.3778 H   0  0  0  0  0  0  0  0  0  0  0  0
   61.3528   34.7530   47.7514 H   0  0  0  0  0  0  0  0  0  0  0  0
   64.4550   32.3013   48.4601 H   0  0  0  0  0  0  0  0  0  0  0  0
   63.5569   31.6930   47.0284 H   0  0  0  0  0  0  0  0  0  0  0  0
   64.2233   33.3611   47.0284 H   0  0  0  0  0  0  0  0  0  0  0  0
   63.7778   33.6955   49.7905 H   0  0  0  0  0  0  0  0  0  0  0  0
   62.5155   34.8949   49.2776 H   0  0  0  0  0  0  0  0  0  0  0  0
   62.3859   32.7311   51.3002 H   0  0  0  0  0  0  0  0  0  0  0  0
   61.4103   34.2632   51.1067 H   0  0  0  0  0  0  0  0  0  0  0  0
   60.5900   32.6510   49.0900 H   0  0  0  0  0  0  0  0  0  0  0  0
   61.7408   30.7860   50.0102 H   0  0  0  0  0  0  0  0  0  0  0  0
   60.8821   31.0651   51.5754 H   0  0  0  0  0  0  0  0  0  0  0  0
   59.9562   29.6898   49.1399 H   0  0  0  0  0  0  0  0  0  0  0  0
   59.2749   29.6964   50.8277 H   0  0  0  0  0  0  0  0  0  0  0  0
   57.2985   32.5910   50.2663 H   0  0  0  0  0  0  0  0  0  0  0  0
   58.0819   31.5398   51.5092 H   0  0  0  0  0  0  0  0  0  0  0  0
   59.0825   34.0146   50.1883 H   0  0  0  0  0  0  0  0  0  0  0  0
   59.5178   33.2647   51.7813 H   0  0  0  0  0  0  0  0  0  0  0  0
   59.4915   34.9025   46.0270 H   0  0  0  0  0  0  0  0  0  0  0  0
   56.0583   30.4856   43.6047 H   0  0  0  0  0  0  0  0  0  0  0  0
   57.8202   30.7458   43.4074 H   0  0  0  0  0  0  0  0  0  0  0  0
   58.3373   28.5428   42.5093 H   0  0  0  0  0  0  0  0  0  0  0  0
   58.6818   26.1155   42.9738 H   0  0  0  0  0  0  0  0  0  0  0  0
   57.8091   25.1072   45.0844 H   0  0  0  0  0  0  0  0  0  0  0  0
   56.5920   26.5287   46.7372 H   0  0  0  0  0  0  0  0  0  0  0  0
   56.2387   28.9585   46.2795 H   0  0  0  0  0  0  0  0  0  0  0  0
  1  2  1  0
  2  3  1  0
  3  4  2  0
  4  5  1  0
  5  6  1  0
  6  7  1  0
  7  8  1  0
  7  9  1  0
  9 10  1  0
 10 11  1  0
 11 12  1  0
 12 13  1  0
 13 14  1  0
 14 15  1  0
 15 16  1  0
  5 17  2  0
 17 18  1  0
 18 19  1  0
 18 20  2  0
 20 21  1  0
 21 22  1  0
 22 23  1  0
 23 24  2  0
 24 25  1  0
 25 26  2  0
 26 27  1  0
 27 28  2  0
 20  3  1  0
 28 23  1  0
 16 11  1  0
  1 29  1  0
  1 30  1  0
  1 31  1  0
  4 32  1  0
  6 33  1  0
  6 34  1  0
  8 35  1  0
  8 36  1  0
  8 37  1  0
  9 38  1  0
  9 39  1  0
 10 40  1  0
 10 41  1  0
 11 42  1  0
 12 43  1  0
 12 44  1  0
 13 45  1  0
 13 46  1  0
 15 47  1  0
 15 48  1  0
 16 49  1  0
 16 50  1  0
 17 51  1  0
 22 52  1  0
 22 53  1  0
 24 54  1  0
 25 55  1  0
 26 56  1  0
 27 57  1  0
 28 58  1  0
M  CHG  1  11   1
M  END
>  <UniqueID>  (38) 
38

>  <SMILES>  (38) 
COc1cc(CN(C)CC[NH+]2CCOCC2)cc(Cl)c1OCc1ccccc1

>  <Energy>  (38) 
75.22172734882668

>  <Genealogy>  (38) 
COc1cc(CN(C)CC[NH+]2CCOCC2)cc(Cl)c1OCc1ccccc1 (protonated)
COc1cc(CN(C)CC[NH+]2CCOCC2)cc(Cl)c1OCc1ccccc1 (3D coordinates assigned)
COc1cc(CN(C)CC[NH+]2CCOCC2)cc(Cl)c1OCc1ccccc1 (nonaromatic ring conformer: 75.22172734882668 kcal/mol)

>  <smiles>  (38) 
COc1cc(CN(C)CCN2CCOCC2)cc(Cl)c1OCc1ccccc1

>  <score_type>  (38) 
oracle

>  <origin>  (38) 
adg

>  <m_score__min__energy>  (38) 
-5.8099999999999996

>  <m_primary>  (38) 
energy

$$$$
38:0
     RDKit          3D

 69 71  0  0  0  0  0  0  0  0999 V2000
   57.3720   28.9840   44.0530 C   0  0  0  0  0  0  0  0  0  0  0  0
   56.7260   30.3310   43.7210 C   0  0  0  0  0  0  0  0  0  0  0  0
   56.6700   31.1860   44.8630 O   0  0  0  0  0  0  0  0  0  0  0  0
   57.5920   32.1820   45.2410 C   0  0  0  0  0  0  0  0  0  0  0  0
   57.2300   33.5060   44.9590 C   0  0  0  0  0  0  0  0  0  0  0  0
   58.0930   34.5630   45.2480 C   0  0  0  0  0  0  0  0  0  0  0  0
   59.3370   34.3080   45.8160 C   0  0  0  0  0  0  0  0  0  0  0  0
   59.7100   33.0000   46.1270 C   0  0  0  0  0  0  0  0  0  0  0  0
   58.8320   31.9200   45.8790 C   0  0  0  0  0  0  0  0  0  0  0  0
   59.1560   30.6090   46.2680 O   0  0  0  0  0  0  0  0  0  0  0  0
   60.0500   30.2380   47.3200 C   0  0  0  0  0  0  0  0  0  0  0  0
   61.5200   30.4770   46.9030 C   0  0  0  0  0  0  0  0  0  0  0  0
   62.2350   31.5090   47.7020 N   0  0  0  0  0  0  0  0  0  0  0  0
   62.3090   31.1680   49.1480 C   0  0  0  0  0  0  0  0  0  0  0  0
   63.5730   31.7200   49.8420 C   0  0  0  0  0  0  0  0  0  0  0  0
   63.9810   33.0490   49.3250 N   0  0  0  0  0  0  0  0  0  0  0  0
   63.1540   34.1520   49.8700 C   0  0  0  0  0  0  0  0  0  0  0  0
   61.7760   34.1820   49.2440 C   0  0  0  0  0  0  0  0  0  0  0  0
   61.6560   34.5070   48.0310 O   0  0  0  0  0  0  0  0  0  0  0  0
   60.6030   33.8030   50.0010 N   0  0  0  0  0  0  0  0  0  0  0  0
   60.7080   33.4230   51.4180 C   0  0  0  0  0  0  0  0  0  0  0  0
   59.3170   33.1950   52.0270 C   0  0  0  0  0  0  0  0  0  0  0  0
   58.5070   32.2230   51.2410 N   0  0  0  0  0  0  0  0  0  0  0  0
   58.7600   30.7790   51.5500 C   0  0  0  0  0  0  0  0  0  0  0  0
   58.8840   29.9640   50.2400 C   0  0  0  0  0  0  0  0  0  0  0  0
   57.6390   30.1310   52.3940 C   0  0  0  0  0  0  0  0  0  0  0  0
   58.5480   32.4920   49.7680 C   0  0  0  0  0  0  0  0  0  0  0  0
   59.2730   33.7890   49.3780 C   0  0  0  0  0  0  0  0  0  0  0  0
   64.1230   33.0980   47.8450 C   0  0  0  0  0  0  0  0  0  0  0  0
   63.5530   31.8580   47.1350 C   0  0  0  0  0  0  0  0  0  0  0  0
   57.4295   28.8641   45.1449 H   0  0  0  0  0  0  0  0  0  0  0  0
   56.7656   28.1714   43.6264 H   0  0  0  0  0  0  0  0  0  0  0  0
   58.3853   28.9482   43.6264 H   0  0  0  0  0  0  0  0  0  0  0  0
   57.3156   30.8249   42.9346 H   0  0  0  0  0  0  0  0  0  0  0  0
   55.6963   30.1432   43.3827 H   0  0  0  0  0  0  0  0  0  0  0  0
   56.2510   33.7148   44.5031 H   0  0  0  0  0  0  0  0  0  0  0  0
   57.7902   35.5972   45.0270 H   0  0  0  0  0  0  0  0  0  0  0  0
   60.0279   35.1392   46.0203 H   0  0  0  0  0  0  0  0  0  0  0  0
   60.6981   32.8069   46.5701 H   0  0  0  0  0  0  0  0  0  0  0  0
   59.8260   30.8406   48.2126 H   0  0  0  0  0  0  0  0  0  0  0  0
   59.9148   29.1679   47.5359 H   0  0  0  0  0  0  0  0  0  0  0  0
   62.0640   29.5265   47.0064 H   0  0  0  0  0  0  0  0  0  0  0  0
   61.4919   30.8504   45.8687 H   0  0  0  0  0  0  0  0  0  0  0  0
   61.6440   32.3740   47.6270 H   0  0  0  0  0  0  0  0  0  0  0  0
   61.4242   31.5854   49.6508 H   0  0  0  0  0  0  0  0  0  0  0  0
   62.3493   30.0713   49.2223 H   0  0  0  0  0  0  0  0  0  0  0  0
   63.3712   31.8094   50.9196 H   0  0  0  0  0  0  0  0  0  0  0  0
   64.3954   31.0190   49.6366 H   0  0  0  0  0  0  0  0  0  0  0  0
   63.0489   34.0153   50.9564 H   0  0  0  0  0  0  0  0  0  0  0  0
   63.6560   35.1030   49.6386 H   0  0  0  0  0  0  0  0  0  0  0  0
   61.2938   32.4956   51.5000 H   0  0  0  0  0  0  0  0  0  0  0  0
   61.2028   34.2387   51.9656 H   0  0  0  0  0  0  0  0  0  0  0  0
   59.4379   32.8089   53.0499 H   0  0  0  0  0  0  0  0  0  0  0  0
   58.7854   34.1580   52.0207 H   0  0  0  0  0  0  0  0  0  0  0  0
   59.6938   30.7583   52.1310 H   0  0  0  0  0  0  0  0  0  0  0  0
   59.0454   28.9032   50.4820 H   0  0  0  0  0  0  0  0  0  0  0  0
   57.9594   30.0697   49.6535 H   0  0  0  0  0  0  0  0  0  0  0  0
   59.7353   30.3399   49.6535 H   0  0  0  0  0  0  0  0  0  0  0  0
   57.8634   30.2607   53.4630 H   0  0  0  0  0  0  0  0  0  0  0  0
   56.6784   30.6131   52.1598 H   0  0  0  0  0  0  0  0  0  0  0  0
   57.5774   29.0580   52.1598 H   0  0  0  0  0  0  0  0  0  0  0  0
   59.0614   31.6509   49.2792 H   0  0  0  0  0  0  0  0  0  0  0  0
   57.5039   32.6065   49.4414 H   0  0  0  0  0  0  0  0  0  0  0  0
   59.3783   33.8373   48.2841 H   0  0  0  0  0  0  0  0  0  0  0  0
   58.6924   34.6564   49.7251 H   0  0  0  0  0  0  0  0  0  0  0  0
   63.5928   33.9872   47.4731 H   0  0  0  0  0  0  0  0  0  0  0  0
   65.1998   33.1328   47.6232 H   0  0  0  0  0  0  0  0  0  0  0  0
   63.4421   32.0723   46.0618 H   0  0  0  0  0  0  0  0  0  0  0  0
   64.2419   31.0126   47.2789 H   0  0  0  0  0  0  0  0  0  0  0  0
  1  2  1  0
  2  3  1  0
  3  4  1  0
  4  5  2  0
  5  6  1  0
  6  7  2  0
  7  8  1  0
  8  9  2  0
  9 10  1  0
 10 11  1  0
 11 12  1  0
 12 13  1  0
 13 14  1  0
 14 15  1  0
 15 16  1  0
 16 17  1  0
 17 18  1  0
 18 19  2  0
 18 20  1  0
 20 21  1  0
 21 22  1  0
 22 23  1  0
 23 24  1  0
 24 25  1  0
 24 26  1  0
 23 27  1  0
 27 28  1  0
 16 29  1  0
 29 30  1  0
  9  4  1  0
 30 13  1  0
 28 20  1  0
  1 31  1  0
  1 32  1  0
  1 33  1  0
  2 34  1  0
  2 35  1  0
  5 36  1  0
  6 37  1  0
  7 38  1  0
  8 39  1  0
 11 40  1  0
 11 41  1  0
 12 42  1  0
 12 43  1  0
 13 44  1  0
 14 45  1  0
 14 46  1  0
 15 47  1  0
 15 48  1  0
 17 49  1  0
 17 50  1  0
 21 51  1  0
 21 52  1  0
 22 53  1  0
 22 54  1  0
 24 55  1  0
 25 56  1  0
 25 57  1  0
 25 58  1  0
 26 59  1  0
 26 60  1  0
 26 61  1  0
 27 62  1  0
 27 63  1  0
 28 64  1  0
 28 65  1  0
 29 66  1  0
 29 67  1  0
 30 68  1  0
 30 69  1  0
M  CHG  1  13   1
M  END
>  <UniqueID>  (39) 
39

>  <SMILES>  (39) 
CCOc1ccccc1OCC[NH+]1CCN(CC(=O)N2CCN(C(C)C)CC2)CC1

>  <Energy>  (39) 
100.66604462983499

>  <Genealogy>  (39) 
CCOc1ccccc1OCC[NH+]1CCN(CC(=O)N2CCN(C(C)C)CC2)CC1 (protonated)
CCOc1ccccc1OCC[NH+]1CCN(CC(=O)N2CCN(C(C)C)CC2)CC1 (3D coordinates assigned)
CCOc1ccccc1OCC[NH+]1CCN(CC(=O)N2CCN(C(C)C)CC2)CC1 (nonaromatic ring conformer: 100.66604462983499 kcal/mol)

>  <smiles>  (39) 
CCOc1ccccc1OCCN1CCN(CC(=O)N2CCN(C(C)C)CC2)CC1

>  <score_type>  (39) 
oracle

>  <origin>  (39) 
adg

>  <m_score__min__energy>  (39) 
-6.1299999999999999

>  <m_primary>  (39) 
energy

$$$$
39:0
     RDKit          3D

 46 49  0  0  0  0  0  0  0  0999 V2000
   57.1600   20.3390   47.5220 C   0  0  0  0  0  0  0  0  0  0  0  0
   57.0290   19.6800   46.1490 C   0  0  0  0  0  0  0  0  0  0  0  0
   56.0130   20.4030   45.2440 C   0  0  0  0  0  0  0  0  0  0  0  0
   56.0970   19.9770   43.8280 N   0  0  0  0  0  0  0  0  0  0  0  0
   57.0380   20.7870   43.0330 C   0  0  0  0  0  0  0  0  0  0  0  0
   57.2480   22.1570   43.6270 C   0  0  0  0  0  0  0  0  0  0  0  0
   58.3210   22.4010   44.4960 C   0  0  0  0  0  0  0  0  0  0  0  0
   58.4900   23.6610   45.0750 C   0  0  0  0  0  0  0  0  0  0  0  0
   57.5860   24.7050   44.8020 C   0  0  0  0  0  0  0  0  0  0  0  0
   57.7710   26.0400   45.4260 C   0  0  0  0  0  0  0  0  0  0  0  0
   58.0030   26.3080   46.7780 C   0  0  0  0  0  0  0  0  0  0  0  0
   58.1410   27.6720   47.0670 C   0  0  0  0  0  0  0  0  0  0  0  0
   58.0190   28.4870   45.9490 C   0  0  0  0  0  0  0  0  0  0  0  0
   58.1170   29.9510   45.9330 C   0  0  0  0  0  0  0  0  0  0  0  0
   59.0770   30.6290   46.6150 N   0  0  0  0  0  0  0  0  0  0  0  0
   58.7930   31.9070   46.3230 C   0  0  0  0  0  0  0  0  0  0  0  0
   59.4600   33.0500   46.7570 C   0  0  0  0  0  0  0  0  0  0  0  0
   58.9750   34.2960   46.3150 C   0  0  0  0  0  0  0  0  0  0  0  0
   57.8500   34.3640   45.4630 C   0  0  0  0  0  0  0  0  0  0  0  0
   57.2010   33.1860   45.0450 C   0  0  0  0  0  0  0  0  0  0  0  0
   57.7090   31.9720   45.5030 C   0  0  0  0  0  0  0  0  0  0  0  0
   57.2550   30.7390   45.2350 N   0  0  0  0  0  0  0  0  0  0  0  0
   57.7440   27.5160   44.6070 S   0  0  0  0  0  0  0  0  0  0  0  0
   56.5120   24.4530   43.9270 C   0  0  0  0  0  0  0  0  0  0  0  0
   56.3440   23.1920   43.3480 C   0  0  0  0  0  0  0  0  0  0  0  0
   57.0098   19.5834   48.3072 H   0  0  0  0  0  0  0  0  0  0  0  0
   58.1631   20.7788   47.6234 H   0  0  0  0  0  0  0  0  0  0  0  0
   56.4013   21.1290   47.6234 H   0  0  0  0  0  0  0  0  0  0  0  0
   58.0123   19.6924   45.6561 H   0  0  0  0  0  0  0  0  0  0  0  0
   56.6681   18.6525   46.3037 H   0  0  0  0  0  0  0  0  0  0  0  0
   54.9994   20.1907   45.6148 H   0  0  0  0  0  0  0  0  0  0  0  0
   56.2453   21.4776   45.2797 H   0  0  0  0  0  0  0  0  0  0  0  0
   56.4440   18.9890   43.8070 H   0  0  0  0  0  0  0  0  0  0  0  0
   55.1590   19.9740   43.3650 H   0  0  0  0  0  0  0  0  0  0  0  0
   58.0061   20.2665   42.9905 H   0  0  0  0  0  0  0  0  0  0  0  0
   56.6098   20.9152   42.0279 H   0  0  0  0  0  0  0  0  0  0  0  0
   59.0343   21.5950   44.7233 H   0  0  0  0  0  0  0  0  0  0  0  0
   59.3387   23.8393   45.7516 H   0  0  0  0  0  0  0  0  0  0  0  0
   58.0709   25.5213   47.5438 H   0  0  0  0  0  0  0  0  0  0  0  0
   58.3276   28.0592   48.0795 H   0  0  0  0  0  0  0  0  0  0  0  0
   60.3342   32.9819   47.4212 H   0  0  0  0  0  0  0  0  0  0  0  0
   59.4751   35.2220   46.6350 H   0  0  0  0  0  0  0  0  0  0  0  0
   57.4789   35.3425   45.1242 H   0  0  0  0  0  0  0  0  0  0  0  0
   56.3248   33.2230   44.3810 H   0  0  0  0  0  0  0  0  0  0  0  0
   55.7976   25.2571   43.6967 H   0  0  0  0  0  0  0  0  0  0  0  0
   55.4975   23.0104   42.6694 H   0  0  0  0  0  0  0  0  0  0  0  0
  1  2  1  0
  2  3  1  0
  3  4  1  0
  4  5  1  0
  5  6  1  0
  6  7  2  0
  7  8  1  0
  8  9  2  0
  9 10  1  0
 10 11  2  0
 11 12  1  0
 12 13  2  0
 13 14  1  0
 14 15  2  0
 15 16  1  0
 16 17  2  0
 17 18  1  0
 18 19  2  0
 19 20  1  0
 20 21  2  0
 21 22  1  0
 13 23  1  0
  9 24  1  0
 24 25  2  0
 25  6  1  0
 23 10  1  0
 22 14  1  0
 21 16  1  0
  1 26  1  0
  1 27  1  0
  1 28  1  0
  2 29  1  0
  2 30  1  0
  3 31  1  0
  3 32  1  0
  4 33  1  0
  4 34  1  0
  5 35  1  0
  5 36  1  0
  7 37  1  0
  8 38  1  0
 11 39  1  0
 12 40  1  0
 17 41  1  0
 18 42  1  0
 19 43  1  0
 20 44  1  0
 24 45  1  0
 25 46  1  0
M  CHG  2   4   1  22  -1
M  END
>  <UniqueID>  (40) 
40

>  <SMILES>  (40) 
CCC[NH2+]Cc1ccc(-c2ccc(-c3nc4ccccc4[n-]3)s2)cc1

>  <Energy>  (40) 
110.68096932417465

>  <Genealogy>  (40) 
CCC[NH2+]Cc1ccc(-c2ccc(-c3nc4ccccc4[n-]3)s2)cc1 (protonated)
CCC[NH2+]Cc1ccc(-c2ccc(-c3nc4ccccc4[n-]3)s2)cc1 (3D coordinates assigned)
CCC[NH2+]Cc1ccc(-c2ccc(-c3nc4ccccc4[n-]3)s2)cc1 (optimized conformer: 110.68096932417465 kcal/mol)

>  <smiles>  (40) 
CCCNCc1ccc(-c2ccc(-c3nc4ccccc4[nH]3)s2)cc1

>  <score_type>  (40) 
oracle

>  <origin>  (40) 
adg

>  <m_score__min__energy>  (40) 
-7.9900000000000002

>  <m_primary>  (40) 
energy

$$$$
40:0
     RDKit          3D

 46 48  0  0  0  0  0  0  0  0999 V2000
   56.0720   31.3510   44.8420 O   0  0  0  0  0  0  0  0  0  0  0  0
   57.2430   31.0000   44.1490 C   0  0  1  0  0  0  0  0  0  0  0  0
   58.2820   32.1320   44.2740 C   0  0  0  0  0  0  0  0  0  0  0  0
   57.8190   33.1940   45.2010 N   0  0  0  0  0  0  0  0  0  0  0  0
   58.5670   34.4720   45.0630 C   0  0  0  0  0  0  0  0  0  0  0  0
   59.5260   34.7800   46.2290 C   0  0  0  0  0  0  0  0  0  0  0  0
   60.0280   33.5480   46.8390 N   0  0  0  0  0  0  0  0  0  0  0  0
   61.3390   33.5450   47.4210 C   0  0  0  0  0  0  0  0  0  0  0  0
   62.4560   33.4450   46.5770 C   0  0  0  0  0  0  0  0  0  0  0  0
   63.7460   33.4580   47.1060 C   0  0  0  0  0  0  0  0  0  0  0  0
   63.9350   33.5790   48.4820 C   0  0  0  0  0  0  0  0  0  0  0  0
   62.8330   33.6760   49.3350 C   0  0  0  0  0  0  0  0  0  0  0  0
   61.5210   33.6410   48.8230 C   0  0  0  0  0  0  0  0  0  0  0  0
   60.3390   33.7720   49.7610 C   0  0  0  0  0  0  0  0  0  0  0  0
   59.4160   34.6890   49.2870 F   0  0  0  0  0  0  0  0  0  0  0  0
   60.7570   34.2010   51.0070 F   0  0  0  0  0  0  0  0  0  0  0  0
   59.7150   32.5460   49.8860 F   0  0  0  0  0  0  0  0  0  0  0  0
   59.0740   32.5180   47.2570 C   0  0  0  0  0  0  0  0  0  0  0  0
   57.7010   32.7390   46.6050 C   0  0  0  0  0  0  0  0  0  0  0  0
   57.7910   29.7070   44.7190 C   0  0  0  0  0  0  0  0  0  0  0  0
   59.1810   29.5260   44.8490 C   0  0  0  0  0  0  0  0  0  0  0  0
   59.6960   28.3240   45.3400 C   0  0  0  0  0  0  0  0  0  0  0  0
   58.8340   27.2860   45.7000 C   0  0  0  0  0  0  0  0  0  0  0  0
   59.3370   26.1200   46.1740 F   0  0  0  0  0  0  0  0  0  0  0  0
   57.4530   27.4500   45.5670 C   0  0  0  0  0  0  0  0  0  0  0  0
   56.9290   28.6500   45.0750 C   0  0  0  0  0  0  0  0  0  0  0  0
   55.5830   28.7740   44.9460 F   0  0  0  0  0  0  0  0  0  0  0  0
   55.7170   30.5170   45.2510 H   0  0  0  0  0  0  0  0  0  0  0  0
   57.0161   30.8531   43.0827 H   0  0  0  0  0  0  0  0  0  0  0  0
   59.2248   31.7117   44.6541 H   0  0  0  0  0  0  0  0  0  0  0  0
   58.4262   32.5800   43.2798 H   0  0  0  0  0  0  0  0  0  0  0  0
   59.1570   34.4264   44.1357 H   0  0  0  0  0  0  0  0  0  0  0  0
   57.8155   35.2752   45.0555 H   0  0  0  0  0  0  0  0  0  0  0  0
   60.3766   35.3652   45.8494 H   0  0  0  0  0  0  0  0  0  0  0  0
   58.9753   35.3484   46.9930 H   0  0  0  0  0  0  0  0  0  0  0  0
   62.3126   33.3557   45.4900 H   0  0  0  0  0  0  0  0  0  0  0  0
   64.6152   33.3727   46.4372 H   0  0  0  0  0  0  0  0  0  0  0  0
   64.9537   33.5981   48.8967 H   0  0  0  0  0  0  0  0  0  0  0  0
   62.9914   33.7809   50.4185 H   0  0  0  0  0  0  0  0  0  0  0  0
   59.4580   31.5309   46.9601 H   0  0  0  0  0  0  0  0  0  0  0  0
   58.9553   32.5741   48.3491 H   0  0  0  0  0  0  0  0  0  0  0  0
   57.1419   31.7919   46.6253 H   0  0  0  0  0  0  0  0  0  0  0  0
   57.1781   33.5228   47.1727 H   0  0  0  0  0  0  0  0  0  0  0  0
   59.8665   30.3370   44.5619 H   0  0  0  0  0  0  0  0  0  0  0  0
   60.7835   28.1947   45.4434 H   0  0  0  0  0  0  0  0  0  0  0  0
   56.7746   26.6318   45.8505 H   0  0  0  0  0  0  0  0  0  0  0  0
  1  2  1  0
  2  3  1  0
  3  4  1  0
  4  5  1  0
  5  6  1  0
  6  7  1  0
  7  8  1  0
  8  9  2  0
  9 10  1  0
 10 11  2  0
 11 12  1  0
 12 13  2  0
 13 14  1  0
 14 15  1  0
 14 16  1  0
 14 17  1  0
  7 18  1  0
 18 19  1  0
  2 20  1  0
 20 21  2  0
 21 22  1  0
 22 23  2  0
 23 24  1  0
 23 25  1  0
 25 26  2  0
 26 27  1  0
 19  4  1  0
 26 20  1  0
 13  8  1  0
  1 28  1  0
  2 29  1  6
  3 30  1  0
  3 31  1  0
  5 32  1  0
  5 33  1  0
  6 34  1  0
  6 35  1  0
  9 36  1  0
 10 37  1  0
 11 38  1  0
 12 39  1  0
 18 40  1  0
 18 41  1  0
 19 42  1  0
 19 43  1  0
 21 44  1  0
 22 45  1  0
 25 46  1  0
M  END
>  <UniqueID>  (41) 
41

>  <SMILES>  (41) 
O[C@@H](CN1CCN(c2ccccc2C(F)(F)F)CC1)c1ccc(F)cc1F

>  <Energy>  (41) 
63.8148315550952

>  <Genealogy>  (41) 
O[C@@H](CN1CCN(c2ccccc2C(F)(F)F)CC1)c1ccc(F)cc1F (chirality)
O[C@@H](CN1CCN(c2ccccc2C(F)(F)F)CC1)c1ccc(F)cc1F (3D coordinates assigned)
O[C@@H](CN1CCN(c2ccccc2C(F)(F)F)CC1)c1ccc(F)cc1F (nonaromatic ring conformer: 63.8148315550952 kcal/mol)

>  <smiles>  (41) 
OC(CN1CCN(c2ccccc2C(F)(F)F)CC1)c1ccc(F)cc1F

>  <score_type>  (41) 
oracle

>  <origin>  (41) 
adg

>  <m_score__min__energy>  (41) 
-8.1400000000000006

>  <m_primary>  (41) 
energy

$$$$
41:0
     RDKit          3D

 45 44  0  0  0  0  0  0  0  0999 V2000
   63.3630   32.9230   47.2680 C   0  0  0  0  0  0  0  0  0  0  0  0
   62.4960   33.8360   46.3980 C   0  0  0  0  0  0  0  0  0  0  0  0
   61.0510   33.6540   46.6320 N   0  0  0  0  0  0  0  0  0  0  0  0
   60.2190   34.8470   46.3720 C   0  0  0  0  0  0  0  0  0  0  0  0
   59.0460   34.5840   45.4090 C   0  0  0  0  0  0  0  0  0  0  0  0
   58.6770   33.1490   45.3860 N   0  0  0  0  0  0  0  0  0  0  0  0
   57.8440   32.8430   44.2000 C   0  0  0  0  0  0  0  0  0  0  0  0
   58.0480   31.3980   43.7400 C   0  0  0  0  0  0  0  0  0  0  0  0
   56.5960   30.4280   44.0980 Cl  0  0  0  0  0  0  0  0  0  0  0  0
   58.0200   32.7300   46.6520 C   0  0  0  0  0  0  0  0  0  0  0  0
   58.5310   31.3480   47.0660 C   0  0  0  0  0  0  0  0  0  0  0  0
   59.9500   31.4320   47.4810 N   0  0  0  0  0  0  0  0  0  0  0  0
   60.7830   30.4520   46.7460 C   0  0  0  0  0  0  0  0  0  0  0  0
   60.0320   29.1300   46.5970 C   0  0  0  0  0  0  0  0  0  0  0  0
   60.0000   28.6300   44.8870 Cl  0  0  0  0  0  0  0  0  0  0  0  0
   60.0930   31.2660   48.9450 C   0  0  0  0  0  0  0  0  0  0  0  0
   59.1780   32.2470   49.6780 C   0  0  0  0  0  0  0  0  0  0  0  0
   59.9750   33.8330   49.8330 Cl  0  0  0  0  0  0  0  0  0  0  0  0
   63.1647   33.1318   48.3297 H   0  0  0  0  0  0  0  0  0  0  0  0
   63.1224   31.8720   47.0498 H   0  0  0  0  0  0  0  0  0  0  0  0
   64.4250   33.1090   47.0498 H   0  0  0  0  0  0  0  0  0  0  0  0
   62.7576   34.8815   46.6181 H   0  0  0  0  0  0  0  0  0  0  0  0
   62.6944   33.5749   45.3480 H   0  0  0  0  0  0  0  0  0  0  0  0
   60.7190   32.8630   46.0340 H   0  0  0  0  0  0  0  0  0  0  0  0
   60.9060   33.3640   47.6290 H   0  0  0  0  0  0  0  0  0  0  0  0
   59.8098   35.2008   47.3298 H   0  0  0  0  0  0  0  0  0  0  0  0
   60.8683   35.5942   45.8923 H   0  0  0  0  0  0  0  0  0  0  0  0
   58.1758   35.1722   45.7358 H   0  0  0  0  0  0  0  0  0  0  0  0
   59.3573   34.8778   44.3957 H   0  0  0  0  0  0  0  0  0  0  0  0
   56.7849   32.9918   44.4571 H   0  0  0  0  0  0  0  0  0  0  0  0
   58.1420   33.5150   43.3817 H   0  0  0  0  0  0  0  0  0  0  0  0
   58.2359   31.3847   42.6563 H   0  0  0  0  0  0  0  0  0  0  0  0
   58.9078   30.9686   44.2752 H   0  0  0  0  0  0  0  0  0  0  0  0
   58.2529   33.4580   47.4431 H   0  0  0  0  0  0  0  0  0  0  0  0
   56.9315   32.6852   46.4998 H   0  0  0  0  0  0  0  0  0  0  0  0
   57.9279   30.9741   47.9065 H   0  0  0  0  0  0  0  0  0  0  0  0
   58.4468   30.6624   46.2100 H   0  0  0  0  0  0  0  0  0  0  0  0
   61.0185   30.8508   45.7483 H   0  0  0  0  0  0  0  0  0  0  0  0
   61.7119   30.2764   47.3084 H   0  0  0  0  0  0  0  0  0  0  0  0
   60.5377   28.3557   47.1926 H   0  0  0  0  0  0  0  0  0  0  0  0
   58.9992   29.2619   46.9519 H   0  0  0  0  0  0  0  0  0  0  0  0
   59.8199   30.2372   49.2227 H   0  0  0  0  0  0  0  0  0  0  0  0
   61.1365   31.4666   49.2293 H   0  0  0  0  0  0  0  0  0  0  0  0
   58.2426   32.3642   49.1113 H   0  0  0  0  0  0  0  0  0  0  0  0
   58.9617   31.8542   50.6825 H   0  0  0  0  0  0  0  0  0  0  0  0
  1  2  1  0
  2  3  1  0
  3  4  1  0
  4  5  1  0
  5  6  1  0
  6  7  1  0
  7  8  1  0
  8  9  1  0
  6 10  1  0
 10 11  1  0
 11 12  1  0
 12 13  1  0
 13 14  1  0
 14 15  1  0
 12 16  1  0
 16 17  1  0
 17 18  1  0
  1 19  1  0
  1 20  1  0
  1 21  1  0
  2 22  1  0
  2 23  1  0
  3 24  1  0
  3 25  1  0
  4 26  1  0
  4 27  1  0
  5 28  1  0
  5 29  1  0
  7 30  1  0
  7 31  1  0
  8 32  1  0
  8 33  1  0
 10 34  1  0
 10 35  1  0
 11 36  1  0
 11 37  1  0
 13 38  1  0
 13 39  1  0
 14 40  1  0
 14 41  1  0
 16 42  1  0
 16 43  1  0
 17 44  1  0
 17 45  1  0
M  CHG  1   3   1
M  END
>  <UniqueID>  (42) 
42

>  <SMILES>  (42) 
CC[NH2+]CCN(CCCl)CCN(CCCl)CCCl

>  <Energy>  (42) 
36.72701140634346

>  <Genealogy>  (42) 
CC[NH2+]CCN(CCCl)CCN(CCCl)CCCl (protonated)
CC[NH2+]CCN(CCCl)CCN(CCCl)CCCl (3D coordinates assigned)
CC[NH2+]CCN(CCCl)CCN(CCCl)CCCl (optimized conformer: 36.72701140634346 kcal/mol)

>  <smiles>  (42) 
CCNCCN(CCCl)CCN(CCCl)CCCl

>  <score_type>  (42) 
oracle

>  <origin>  (42) 
adg

>  <m_score__min__energy>  (42) 
-1.96

>  <m_primary>  (42) 
energy

$$$$
