0:0
     RDKit          3D

 58 60  0  0  0  0  0  0  0  0999 V2000
   55.0320   30.1580   52.2670 C   0  0  0  0  0  0  0  0  0  0  0  0
   56.3600   29.8320   52.9330 C   0  0  0  0  0  0  0  0  0  0  0  0
   57.3180   29.4870   51.9350 O   0  0  0  0  0  0  0  0  0  0  0  0
   57.9140   30.4040   51.0590 C   0  0  0  0  0  0  0  0  0  0  0  0
   58.5100   30.0140   49.8440 C   0  0  0  0  0  0  0  0  0  0  0  0
   59.0830   30.9700   49.0030 C   0  0  0  0  0  0  0  0  0  0  0  0
   59.0650   32.3270   49.3550 C   0  0  0  0  0  0  0  0  0  0  0  0
   59.6420   33.3050   48.4780 N   0  0  0  0  0  0  0  0  0  0  0  0
   60.9050   33.7820   48.4890 C   0  0  0  0  0  0  0  0  0  0  0  0
   62.1350   33.4000   49.7430 S   0  0  0  0  0  0  0  0  0  0  0  0
   62.5540   31.7480   49.0790 C   0  0  0  0  0  0  0  0  0  0  0  0
   62.4350   31.7010   47.5890 C   0  0  0  0  0  0  0  0  0  0  0  0
   63.4190   32.0290   46.8710 O   0  0  0  0  0  0  0  0  0  0  0  0
   61.2210   31.3210   47.0100 O   0  0  0  0  0  0  0  0  0  0  0  0
   61.0350   30.0640   46.3680 C   0  0  0  0  0  0  0  0  0  0  0  0
   61.1480   34.5740   47.4260 N   0  0  0  0  0  0  0  0  0  0  0  0
   60.0230   34.6110   46.7310 N   0  0  0  0  0  0  0  0  0  0  0  0
   59.1160   33.8330   47.3530 C   0  0  0  0  0  0  0  0  0  0  0  0
   57.6770   33.7030   46.9220 C   0  0  0  0  0  0  0  0  0  0  0  0
   57.5230   33.5380   45.4020 C   0  0  0  0  0  0  0  0  0  0  0  0
   58.1650   32.2280   44.8940 C   0  0  0  0  0  0  0  0  0  0  0  0
   57.2420   31.0730   44.8290 N   0  0  0  0  0  0  0  0  0  0  0  0
   57.7990   29.8170   45.3630 C   0  0  0  0  0  0  0  0  0  0  0  0
   56.7300   28.7060   45.3140 C   0  0  0  0  0  0  0  0  0  0  0  0
   55.4760   29.2070   44.8880 O   0  0  0  0  0  0  0  0  0  0  0  0
   55.5890   29.7350   43.5780 C   0  0  0  0  0  0  0  0  0  0  0  0
   56.6380   30.8640   43.5030 C   0  0  0  0  0  0  0  0  0  0  0  0
   58.4860   32.7140   50.5690 C   0  0  0  0  0  0  0  0  0  0  0  0
   57.9140   31.7570   51.4130 C   0  0  0  0  0  0  0  0  0  0  0  0
   54.2708   30.3449   53.0388 H   0  0  0  0  0  0  0  0  0  0  0  0
   55.1465   31.0547   51.6403 H   0  0  0  0  0  0  0  0  0  0  0  0
   54.7182   29.3102   51.6403 H   0  0  0  0  0  0  0  0  0  0  0  0
   56.7143   30.7093   53.4942 H   0  0  0  0  0  0  0  0  0  0  0  0
   56.2271   28.9857   53.6230 H   0  0  0  0  0  0  0  0  0  0  0  0
   58.5241   28.9523   49.5565 H   0  0  0  0  0  0  0  0  0  0  0  0
   59.5515   30.6565   48.0584 H   0  0  0  0  0  0  0  0  0  0  0  0
   63.5885   31.5028   49.3613 H   0  0  0  0  0  0  0  0  0  0  0  0
   61.8455   31.0203   49.5014 H   0  0  0  0  0  0  0  0  0  0  0  0
   60.9186   29.2776   47.1283 H   0  0  0  0  0  0  0  0  0  0  0  0
   60.1329   30.1030   45.7398 H   0  0  0  0  0  0  0  0  0  0  0  0
   61.9098   29.8401   45.7398 H   0  0  0  0  0  0  0  0  0  0  0  0
   59.8850   35.1720   45.8620 H   0  0  0  0  0  0  0  0  0  0  0  0
   57.2400   32.8232   47.4170 H   0  0  0  0  0  0  0  0  0  0  0  0
   57.1605   34.6310   47.2083 H   0  0  0  0  0  0  0  0  0  0  0  0
   56.4517   33.5285   45.1526 H   0  0  0  0  0  0  0  0  0  0  0  0
   58.0375   34.3796   44.9151 H   0  0  0  0  0  0  0  0  0  0  0  0
   58.5595   32.4090   43.8832 H   0  0  0  0  0  0  0  0  0  0  0  0
   58.9460   31.9617   45.6214 H   0  0  0  0  0  0  0  0  0  0  0  0
   58.6661   29.5158   44.7569 H   0  0  0  0  0  0  0  0  0  0  0  0
   58.1109   29.9738   46.4061 H   0  0  0  0  0  0  0  0  0  0  0  0
   57.0590   27.9248   44.6129 H   0  0  0  0  0  0  0  0  0  0  0  0
   56.6107   28.2986   46.3288 H   0  0  0  0  0  0  0  0  0  0  0  0
   55.8860   28.9271   42.8930 H   0  0  0  0  0  0  0  0  0  0  0  0
   54.6132   30.1559   43.2940 H   0  0  0  0  0  0  0  0  0  0  0  0
   57.4228   30.5860   42.7841 H   0  0  0  0  0  0  0  0  0  0  0  0
   56.1483   31.7934   43.1766 H   0  0  0  0  0  0  0  0  0  0  0  0
   58.4809   33.7747   50.8603 H   0  0  0  0  0  0  0  0  0  0  0  0
   57.4598   32.0713   52.3643 H   0  0  0  0  0  0  0  0  0  0  0  0
  1  2  1  0
  2  3  1  0
  3  4  1  0
  4  5  2  0
  5  6  1  0
  6  7  2  0
  7  8  1  0
  8  9  1  0
  9 10  1  0
 10 11  1  0
 11 12  1  0
 12 13  2  0
 12 14  1  0
 14 15  1  0
  9 16  2  0
 16 17  1  0
 17 18  2  0
 18 19  1  0
 19 20  1  0
 20 21  1  0
 21 22  1  0
 22 23  1  0
 23 24  1  0
 24 25  1  0
 25 26  1  0
 26 27  1  0
  7 28  1  0
 28 29  2  0
 29  4  1  0
 18  8  1  0
 27 22  1  0
  1 30  1  0
  1 31  1  0
  1 32  1  0
  2 33  1  0
  2 34  1  0
  5 35  1  0
  6 36  1  0
 11 37  1  0
 11 38  1  0
 15 39  1  0
 15 40  1  0
 15 41  1  0
 17 42  1  0
 19 43  1  0
 19 44  1  0
 20 45  1  0
 20 46  1  0
 21 47  1  0
 21 48  1  0
 23 49  1  0
 23 50  1  0
 24 51  1  0
 24 52  1  0
 26 53  1  0
 26 54  1  0
 27 55  1  0
 27 56  1  0
 28 57  1  0
 29 58  1  0
M  CHG  1  17   1
M  END
>  <UniqueID>  (1) 
1

>  <SMILES>  (1) 
CCOc1ccc(-n2c(SCC(=O)OC)n[nH+]c2CCCN2CCOCC2)cc1

>  <Energy>  (1) 
99.63876265311798

>  <Genealogy>  (1) 
CCOc1ccc(-n2c(SCC(=O)OC)n[nH+]c2CCCN2CCOCC2)cc1 (protonated)
CCOc1ccc(-n2c(SCC(=O)OC)n[nH+]c2CCCN2CCOCC2)cc1 (3D coordinates assigned)
CCOc1ccc(-n2c(SCC(=O)OC)n[nH+]c2CCCN2CCOCC2)cc1 (nonaromatic ring conformer: 99.63876265311798 kcal/mol)

>  <smiles>  (1) 
CCOc1ccc(-n2c(CCCN3CCOCC3)nnc2SCC(=O)OC)cc1

>  <score_type>  (1) 
oracle

>  <origin>  (1) 
adg

>  <m_score__min__energy>  (1) 
-6.7300000000000004

>  <m_primary>  (1) 
energy

$$$$
1:0
     RDKit          3D

 72 74  0  0  0  0  0  0  0  0999 V2000
   63.2490   33.8410   46.4390 C   0  0  0  0  0  0  0  0  0  0  0  0
   63.7830   33.8060   47.8810 C   0  0  0  0  0  0  0  0  0  0  0  0
   63.9890   32.4500   48.4730 N   0  0  0  0  0  0  0  0  0  0  0  0
   64.8970   32.3920   49.6470 C   0  0  0  0  0  0  0  0  0  0  0  0
   64.5960   33.4980   50.6680 C   0  0  0  0  0  0  0  0  0  0  0  0
   62.7210   31.7090   48.7060 C   0  0  0  0  0  0  0  0  0  0  0  0
   61.6380   32.5060   49.4690 C   0  0  0  0  0  0  0  0  0  0  0  0
   60.2830   32.0120   49.1990 N   0  0  0  0  0  0  0  0  0  0  0  0
   59.8080   31.7480   47.8700 C   0  0  0  0  0  0  0  0  0  0  0  0
   59.5190   32.8170   46.9910 C   0  0  0  0  0  0  0  0  0  0  0  0
   59.9430   34.1280   47.2880 C   0  0  0  0  0  0  0  0  0  0  0  0
   59.6520   35.1830   46.4250 C   0  0  0  0  0  0  0  0  0  0  0  0
   58.9420   34.9520   45.2520 C   0  0  0  0  0  0  0  0  0  0  0  0
   58.5150   33.6640   44.9290 C   0  0  0  0  0  0  0  0  0  0  0  0
   58.7890   32.5690   45.7870 C   0  0  0  0  0  0  0  0  0  0  0  0
   58.3600   31.2900   45.4860 N   0  0  0  0  0  0  0  0  0  0  0  0
   57.5640   31.0230   44.2720 C   0  0  0  0  0  0  0  0  0  0  0  0
   58.7160   30.2630   46.3210 C   0  0  0  0  0  0  0  0  0  0  0  0
   58.3700   28.6250   46.1330 S   0  0  0  0  0  0  0  0  0  0  0  0
   59.1900   28.1120   47.5050 C   0  0  0  0  0  0  0  0  0  0  0  0
   59.7700   29.2160   48.1330 C   0  0  0  0  0  0  0  0  0  0  0  0
   60.7480   29.0120   49.2640 C   0  0  0  0  0  0  0  0  0  0  0  0
   60.0460   28.8510   50.6210 C   0  0  0  0  0  0  0  0  0  0  0  0
   59.2550   30.0470   50.9530 N   0  0  0  0  0  0  0  0  0  0  0  0
   57.9650   29.7350   51.5950 C   0  0  0  0  0  0  0  0  0  0  0  0
   57.2010   30.9970   52.0400 C   0  0  0  0  0  0  0  0  0  0  0  0
   57.6500   32.2290   51.2440 C   0  0  0  0  0  0  0  0  0  0  0  0
   59.0020   32.6570   51.6740 N   0  0  0  0  0  0  0  0  0  0  0  0
   59.1450   32.5620   53.1350 C   0  0  0  0  0  0  0  0  0  0  0  0
   59.2880   34.0330   51.2350 C   0  0  0  0  0  0  0  0  0  0  0  0
   59.4620   30.4440   47.4820 C   0  0  0  0  0  0  0  0  0  0  0  0
   62.1515   33.9129   46.4561 H   0  0  0  0  0  0  0  0  0  0  0  0
   63.6655   34.7138   45.9148 H   0  0  0  0  0  0  0  0  0  0  0  0
   63.5481   32.9213   45.9148 H   0  0  0  0  0  0  0  0  0  0  0  0
   64.7507   34.3288   47.8937 H   0  0  0  0  0  0  0  0  0  0  0  0
   63.0047   34.2816   48.4958 H   0  0  0  0  0  0  0  0  0  0  0  0
   64.4610   31.8920   47.7210 H   0  0  0  0  0  0  0  0  0  0  0  0
   64.7790   31.4148   50.1381 H   0  0  0  0  0  0  0  0  0  0  0  0
   65.9258   32.5368   49.2857 H   0  0  0  0  0  0  0  0  0  0  0  0
   64.7052   33.0966   51.6863 H   0  0  0  0  0  0  0  0  0  0  0  0
   65.3002   34.3308   50.5247 H   0  0  0  0  0  0  0  0  0  0  0  0
   63.5669   33.8591   50.5247 H   0  0  0  0  0  0  0  0  0  0  0  0
   62.3085   31.4198   47.7282 H   0  0  0  0  0  0  0  0  0  0  0  0
   62.9768   30.8470   49.3397 H   0  0  0  0  0  0  0  0  0  0  0  0
   61.8347   32.4247   50.5482 H   0  0  0  0  0  0  0  0  0  0  0  0
   61.6878   33.5502   49.1267 H   0  0  0  0  0  0  0  0  0  0  0  0
   59.8000   31.5150   49.9810 H   0  0  0  0  0  0  0  0  0  0  0  0
   60.5097   34.3206   48.2109 H   0  0  0  0  0  0  0  0  0  0  0  0
   59.9851   36.2017   46.6726 H   0  0  0  0  0  0  0  0  0  0  0  0
   58.7159   35.7892   44.5753 H   0  0  0  0  0  0  0  0  0  0  0  0
   57.9579   33.4954   43.9956 H   0  0  0  0  0  0  0  0  0  0  0  0
   56.5576   30.6854   44.5603 H   0  0  0  0  0  0  0  0  0  0  0  0
   57.4850   31.9438   43.6755 H   0  0  0  0  0  0  0  0  0  0  0  0
   58.0562   30.2408   43.6755 H   0  0  0  0  0  0  0  0  0  0  0  0
   59.2594   27.0711   47.8540 H   0  0  0  0  0  0  0  0  0  0  0  0
   61.3386   28.1063   49.0617 H   0  0  0  0  0  0  0  0  0  0  0  0
   61.3878   29.9050   49.3204 H   0  0  0  0  0  0  0  0  0  0  0  0
   59.3775   27.9785   50.5785 H   0  0  0  0  0  0  0  0  0  0  0  0
   60.8131   28.7126   51.3972 H   0  0  0  0  0  0  0  0  0  0  0  0
   59.8200   30.6610   51.5870 H   0  0  0  0  0  0  0  0  0  0  0  0
   57.3409   29.1800   50.8791 H   0  0  0  0  0  0  0  0  0  0  0  0
   58.1776   29.1407   52.4959 H   0  0  0  0  0  0  0  0  0  0  0  0
   56.1242   30.8394   51.8795 H   0  0  0  0  0  0  0  0  0  0  0  0
   57.4135   31.1746   53.1046 H   0  0  0  0  0  0  0  0  0  0  0  0
   57.6722   31.9801   50.1728 H   0  0  0  0  0  0  0  0  0  0  0  0
   56.9409   33.0498   51.4266 H   0  0  0  0  0  0  0  0  0  0  0  0
   58.3227   33.1083   53.6202 H   0  0  0  0  0  0  0  0  0  0  0  0
   59.1126   31.5052   53.4386 H   0  0  0  0  0  0  0  0  0  0  0  0
   60.1066   33.0014   53.4386 H   0  0  0  0  0  0  0  0  0  0  0  0
   59.4221   34.6784   52.1156 H   0  0  0  0  0  0  0  0  0  0  0  0
   60.2071   34.0415   50.6307 H   0  0  0  0  0  0  0  0  0  0  0  0
   58.4484   34.4071   50.6307 H   0  0  0  0  0  0  0  0  0  0  0  0
  1  2  1  0
  2  3  1  0
  3  4  1  0
  4  5  1  0
  3  6  1  0
  6  7  1  0
  7  8  1  0
  8  9  1  0
  9 10  2  0
 10 11  1  0
 11 12  2  0
 12 13  1  0
 13 14  2  0
 14 15  1  0
 15 16  2  0
 16 17  1  0
 16 18  1  0
 18 19  1  0
 19 20  1  0
 20 21  2  0
 21 22  1  0
 22 23  1  0
 23 24  1  0
 24 25  1  0
 25 26  1  0
 26 27  1  0
 27 28  1  0
 28 29  1  0
 28 30  1  0
 21 31  1  0
 31  9  1  0
 15 10  1  0
 31 18  2  0
  1 32  1  0
  1 33  1  0
  1 34  1  0
  2 35  1  0
  2 36  1  0
  3 37  1  0
  4 38  1  0
  4 39  1  0
  5 40  1  0
  5 41  1  0
  5 42  1  0
  6 43  1  0
  6 44  1  0
  7 45  1  0
  7 46  1  0
  8 47  1  0
 11 48  1  0
 12 49  1  0
 13 50  1  0
 14 51  1  0
 17 52  1  0
 17 53  1  0
 17 54  1  0
 20 55  1  0
 22 56  1  0
 22 57  1  0
 23 58  1  0
 23 59  1  0
 24 60  1  0
 25 61  1  0
 25 62  1  0
 26 63  1  0
 26 64  1  0
 27 65  1  0
 27 66  1  0
 29 67  1  0
 29 68  1  0
 29 69  1  0
 30 70  1  0
 30 71  1  0
 30 72  1  0
M  CHG  2   3   1  16   1
M  END
>  <UniqueID>  (2) 
2

>  <SMILES>  (2) 
CC[NH+](CC)CCNc1c2ccccc2[n+](C)c2scc(CCNCCCN(C)C)c12

>  <Energy>  (2) 
125.81148317779966

>  <Genealogy>  (2) 
CC[NH+](CC)CCNc1c2ccccc2[n+](C)c2scc(CCNCCCN(C)C)c12 (protonated)
CC[NH+](CC)CCNc1c2ccccc2[n+](C)c2scc(CCNCCCN(C)C)c12 (3D coordinates assigned)
CC[NH+](CC)CCNc1c2ccccc2[n+](C)c2scc(CCNCCCN(C)C)c12 (optimized conformer: 125.81148317779966 kcal/mol)

>  <smiles>  (2) 
CCN(CC)CCNc1c2ccccc2[n+](C)c2scc(CCNCCCN(C)C)c12

>  <score_type>  (2) 
oracle

>  <origin>  (2) 
adg

>  <m_score__min__energy>  (2) 
-3.96

>  <m_primary>  (2) 
energy

$$$$
2:0
     RDKit          3D

 51 53  0  0  0  0  0  0  0  0999 V2000
   55.1950   23.7050   43.7820 C   0  0  0  0  0  0  0  0  0  0  0  0
   56.6850   24.0730   43.7140 C   0  0  0  0  0  0  0  0  0  0  0  0
   57.5050   23.5360   44.8280 N   0  0  0  0  0  0  0  0  0  0  0  0
   58.3310   22.3550   44.4870 C   0  0  0  0  0  0  0  0  0  0  0  0
   57.6820   21.4880   43.4060 C   0  0  0  0  0  0  0  0  0  0  0  0
   58.2860   24.5840   45.5240 C   0  0  0  0  0  0  0  0  0  0  0  0
   57.4450   25.2290   46.6270 C   0  0  0  0  0  0  0  0  0  0  0  0
   56.6510   26.3920   46.0900 C   0  0  0  0  0  0  0  0  0  0  0  0
   55.4000   26.2720   45.9990 O   0  0  0  0  0  0  0  0  0  0  0  0
   57.2890   27.5970   45.6190 N   0  0  0  0  0  0  0  0  0  0  0  0
   57.4930   27.8010   44.1850 C   0  0  0  0  0  0  0  0  0  0  0  0
   57.0230   29.1950   43.8060 C   0  0  0  0  0  0  0  0  0  0  0  0
   57.6670   30.2310   44.6770 C   0  0  0  0  0  0  0  0  0  0  0  0
   57.7860   31.4890   44.1850 N   0  0  0  0  0  0  0  0  0  0  0  0
   58.2890   32.5130   44.9140 C   0  0  0  0  0  0  0  0  0  0  0  0
   58.3730   33.7870   44.3390 C   0  0  0  0  0  0  0  0  0  0  0  0
   58.8650   34.8620   45.0800 C   0  0  0  0  0  0  0  0  0  0  0  0
   59.2790   34.6690   46.3980 C   0  0  0  0  0  0  0  0  0  0  0  0
   59.7440   35.7180   47.1200 F   0  0  0  0  0  0  0  0  0  0  0  0
   59.2080   33.4010   46.9810 C   0  0  0  0  0  0  0  0  0  0  0  0
   58.7090   32.2970   46.2470 C   0  0  0  0  0  0  0  0  0  0  0  0
   58.6050   30.9920   46.7990 C   0  0  0  0  0  0  0  0  0  0  0  0
   59.0560   30.7490   48.2280 C   0  0  0  0  0  0  0  0  0  0  0  0
   58.0570   29.9450   46.0040 C   0  0  0  0  0  0  0  0  0  0  0  0
   57.8930   28.5410   46.5670 C   0  0  0  0  0  0  0  0  0  0  0  0
   54.8839   23.6282   44.8343 H   0  0  0  0  0  0  0  0  0  0  0  0
   54.6017   24.4836   43.2802 H   0  0  0  0  0  0  0  0  0  0  0  0
   55.0324   22.7397   43.2802 H   0  0  0  0  0  0  0  0  0  0  0  0
   57.0920   23.6831   42.7694 H   0  0  0  0  0  0  0  0  0  0  0  0
   56.7392   25.1692   43.7871 H   0  0  0  0  0  0  0  0  0  0  0  0
   59.3100   22.7005   44.1235 H   0  0  0  0  0  0  0  0  0  0  0  0
   58.4343   21.7420   45.3945 H   0  0  0  0  0  0  0  0  0  0  0  0
   57.0874   20.6937   43.8810 H   0  0  0  0  0  0  0  0  0  0  0  0
   57.0270   22.1117   42.7800 H   0  0  0  0  0  0  0  0  0  0  0  0
   58.4650   21.0353   42.7800 H   0  0  0  0  0  0  0  0  0  0  0  0
   59.1838   24.1313   45.9701 H   0  0  0  0  0  0  0  0  0  0  0  0
   58.5752   25.3568   44.7966 H   0  0  0  0  0  0  0  0  0  0  0  0
   56.7524   24.4789   47.0365 H   0  0  0  0  0  0  0  0  0  0  0  0
   58.1207   25.5986   47.4123 H   0  0  0  0  0  0  0  0  0  0  0  0
   58.5618   27.6959   43.9470 H   0  0  0  0  0  0  0  0  0  0  0  0
   56.9191   27.0516   43.6202 H   0  0  0  0  0  0  0  0  0  0  0  0
   57.2876   29.3915   42.7566 H   0  0  0  0  0  0  0  0  0  0  0  0
   55.9329   29.2482   43.9434 H   0  0  0  0  0  0  0  0  0  0  0  0
   58.0498   33.9409   43.2989 H   0  0  0  0  0  0  0  0  0  0  0  0
   58.9264   35.8616   44.6249 H   0  0  0  0  0  0  0  0  0  0  0  0
   59.5426   33.2589   48.0192 H   0  0  0  0  0  0  0  0  0  0  0  0
   58.3055   31.1534   48.9231 H   0  0  0  0  0  0  0  0  0  0  0  0
   59.1686   29.6681   48.3982 H   0  0  0  0  0  0  0  0  0  0  0  0
   60.0207   31.2495   48.3982 H   0  0  0  0  0  0  0  0  0  0  0  0
   58.8856   28.1617   46.8514 H   0  0  0  0  0  0  0  0  0  0  0  0
   57.2124   28.6151   47.4280 H   0  0  0  0  0  0  0  0  0  0  0  0
  1  2  1  0
  2  3  1  0
  3  4  1  0
  4  5  1  0
  3  6  1  0
  6  7  1  0
  7  8  1  0
  8  9  2  0
  8 10  1  0
 10 11  1  0
 11 12  1  0
 12 13  1  0
 13 14  2  0
 14 15  1  0
 15 16  2  0
 16 17  1  0
 17 18  2  0
 18 19  1  0
 18 20  1  0
 20 21  2  0
 21 22  1  0
 22 23  1  0
 22 24  2  0
 24 25  1  0
 25 10  1  0
 24 13  1  0
 21 15  1  0
  1 26  1  0
  1 27  1  0
  1 28  1  0
  2 29  1  0
  2 30  1  0
  4 31  1  0
  4 32  1  0
  5 33  1  0
  5 34  1  0
  5 35  1  0
  6 36  1  0
  6 37  1  0
  7 38  1  0
  7 39  1  0
 11 40  1  0
 11 41  1  0
 12 42  1  0
 12 43  1  0
 16 44  1  0
 17 45  1  0
 20 46  1  0
 23 47  1  0
 23 48  1  0
 23 49  1  0
 25 50  1  0
 25 51  1  0
M  END
>  <UniqueID>  (3) 
3

>  <SMILES>  (3) 
CCN(CC)CCC(=O)N1CCc2nc3ccc(F)cc3c(C)c2C1

>  <Energy>  (3) 
62.173432281600064

>  <Genealogy>  (3) 
CCN(CC)CCC(=O)N1CCc2nc3ccc(F)cc3c(C)c2C1 (3D coordinates assigned)
CCN(CC)CCC(=O)N1CCc2nc3ccc(F)cc3c(C)c2C1 (nonaromatic ring conformer: 62.173432281600064 kcal/mol)

>  <smiles>  (3) 
CCN(CC)CCC(=O)N1CCc2nc3ccc(F)cc3c(C)c2C1

>  <score_type>  (3) 
oracle

>  <origin>  (3) 
adg

>  <m_score__min__energy>  (3) 
-7.8300000000000001

>  <m_primary>  (3) 
energy

$$$$
3:0
     RDKit          3D

 34 35  0  0  0  0  0  0  0  0999 V2000
   58.0690   30.3560   44.1910 C   0  0  0  0  0  0  0  0  0  0  0  0
   56.7520   29.7580   44.6730 C   0  0  0  0  0  0  0  0  0  0  0  0
   56.9990   28.5270   45.4370 N   0  0  0  0  0  0  0  0  0  0  0  0
   58.3350   28.5010   46.0550 C   0  0  0  0  0  0  0  0  0  0  0  0
   58.8980   27.0710   46.1610 C   0  0  0  0  0  0  0  0  0  0  0  0
   57.9720   26.1400   46.9530 C   0  0  0  0  0  0  0  0  0  0  0  0
   57.1710   25.2970   46.0580 N   0  0  0  0  0  0  0  0  0  0  0  0
   55.9020   25.5130   45.6190 C   0  0  0  0  0  0  0  0  0  0  0  0
   55.1080   26.6030   45.9720 O   0  0  0  0  0  0  0  0  0  0  0  0
   55.4870   24.5130   44.7500 C   0  0  0  0  0  0  0  0  0  0  0  0
   56.5640   23.6590   44.6550 C   0  0  0  0  0  0  0  0  0  0  0  0
   56.7200   22.4900   43.9130 C   0  0  0  0  0  0  0  0  0  0  0  0
   57.9520   21.8170   43.9990 C   0  0  0  0  0  0  0  0  0  0  0  0
   58.9870   22.3230   44.8140 C   0  0  0  0  0  0  0  0  0  0  0  0
   58.8010   23.5060   45.5520 C   0  0  0  0  0  0  0  0  0  0  0  0
   57.5670   24.1570   45.4510 C   0  0  0  0  0  0  0  0  0  0  0  0
   58.6843   30.6354   45.0590 H   0  0  0  0  0  0  0  0  0  0  0  0
   58.6078   29.6143   43.5831 H   0  0  0  0  0  0  0  0  0  0  0  0
   57.8651   31.2498   43.5831 H   0  0  0  0  0  0  0  0  0  0  0  0
   56.2366   30.4867   45.3160 H   0  0  0  0  0  0  0  0  0  0  0  0
   56.1279   29.5175   43.7997 H   0  0  0  0  0  0  0  0  0  0  0  0
   56.2650   28.4280   46.1780 H   0  0  0  0  0  0  0  0  0  0  0  0
   59.0200   29.1073   45.4441 H   0  0  0  0  0  0  0  0  0  0  0  0
   58.2442   28.9052   47.0740 H   0  0  0  0  0  0  0  0  0  0  0  0
   59.0255   26.6646   45.1468 H   0  0  0  0  0  0  0  0  0  0  0  0
   59.8583   27.1253   46.6947 H   0  0  0  0  0  0  0  0  0  0  0  0
   58.5824   25.4948   47.6019 H   0  0  0  0  0  0  0  0  0  0  0  0
   57.2876   26.7586   47.5521 H   0  0  0  0  0  0  0  0  0  0  0  0
   55.1420   27.4830   45.4750 H   0  0  0  0  0  0  0  0  0  0  0  0
   54.5126   24.4224   44.2477 H   0  0  0  0  0  0  0  0  0  0  0  0
   55.9061   22.1060   43.2805 H   0  0  0  0  0  0  0  0  0  0  0  0
   58.1098   20.8905   43.4274 H   0  0  0  0  0  0  0  0  0  0  0  0
   59.9465   21.7883   44.8726 H   0  0  0  0  0  0  0  0  0  0  0  0
   59.6023   23.9074   46.1898 H   0  0  0  0  0  0  0  0  0  0  0  0
  1  2  1  0
  2  3  1  0
  3  4  1  0
  4  5  1  0
  5  6  1  0
  6  7  1  0
  7  8  1  0
  8  9  1  0
  8 10  2  0
 10 11  1  0
 11 12  2  0
 12 13  1  0
 13 14  2  0
 14 15  1  0
 15 16  2  0
 16  7  1  0
 16 11  1  0
  1 17  1  0
  1 18  1  0
  1 19  1  0
  2 20  1  0
  2 21  1  0
  3 22  1  0
  4 23  1  0
  4 24  1  0
  5 25  1  0
  5 26  1  0
  6 27  1  0
  6 28  1  0
  9 29  1  0
 10 30  1  0
 12 31  1  0
 13 32  1  0
 14 33  1  0
 15 34  1  0
M  END
>  <UniqueID>  (4) 
4

>  <SMILES>  (4) 
CCNCCCn1c(O)cc2ccccc21

>  <Energy>  (4) 
62.34761387946791

>  <Genealogy>  (4) 
CCNCCCn1c(O)cc2ccccc21 (3D coordinates assigned)
CCNCCCn1c(O)cc2ccccc21 (optimized conformer: 62.34761387946791 kcal/mol)

>  <smiles>  (4) 
CCNCCCn1c(O)cc2ccccc21

>  <score_type>  (4) 
oracle

>  <origin>  (4) 
adg

>  <m_score__min__energy>  (4) 
-6.7599999999999998

>  <m_primary>  (4) 
energy

$$$$
4:0
     RDKit          3D

 52 54  0  0  0  0  0  0  0  0999 V2000
   63.7280   33.7500   46.9310 C   0  0  0  0  0  0  0  0  0  0  0  0
   63.7430   32.3910   47.6470 C   0  0  0  0  0  0  0  0  0  0  0  0
   63.6670   32.4730   49.1250 N   0  0  0  0  0  0  0  0  0  0  0  0
   62.9630   31.3720   49.8020 C   0  0  0  0  0  0  0  0  0  0  0  0
   63.4260   33.8200   49.6910 C   0  0  0  0  0  0  0  0  0  0  0  0
   61.9800   34.3270   49.5550 C   0  0  0  0  0  0  0  0  0  0  0  0
   61.2430   33.5780   48.5400 N   0  0  0  0  0  0  0  0  0  0  0  0
   59.9480   33.9930   48.0720 C   0  0  0  0  0  0  0  0  0  0  0  0
   59.3670   34.9630   48.6300 O   0  0  0  0  0  0  0  0  0  0  0  0
   59.2780   33.2880   46.9510 C   0  0  0  0  0  0  0  0  0  0  0  0
   58.8510   34.0080   45.8290 C   0  0  0  0  0  0  0  0  0  0  0  0
   58.2380   33.3580   44.7610 C   0  0  0  0  0  0  0  0  0  0  0  0
   58.0360   31.9640   44.7870 C   0  0  0  0  0  0  0  0  0  0  0  0
   57.4280   31.3090   43.7030 C   0  0  0  0  0  0  0  0  0  0  0  0
   57.0620   31.9870   42.7000 O   0  0  0  0  0  0  0  0  0  0  0  0
   57.2370   29.9490   43.7210 N   0  0  0  0  0  0  0  0  0  0  0  0
   56.5820   29.3030   42.5640 C   0  0  0  0  0  0  0  0  0  0  0  0
   57.6960   29.1860   44.7750 C   0  0  0  0  0  0  0  0  0  0  0  0
   58.2510   29.8150   45.9250 C   0  0  0  0  0  0  0  0  0  0  0  0
   58.4530   31.2180   45.9090 C   0  0  0  0  0  0  0  0  0  0  0  0
   59.0860   31.8970   46.9780 C   0  0  0  0  0  0  0  0  0  0  0  0
   58.6960   28.9950   47.1330 C   0  0  0  0  0  0  0  0  0  0  0  0
   58.2110   27.5470   47.1240 C   0  0  0  0  0  0  0  0  0  0  0  0
   58.4180   26.9380   45.7490 C   0  0  0  0  0  0  0  0  0  0  0  0
   57.5430   27.6680   44.7340 C   0  0  0  0  0  0  0  0  0  0  0  0
   63.7191   34.5577   47.6776 H   0  0  0  0  0  0  0  0  0  0  0  0
   64.6252   33.8426   46.3013 H   0  0  0  0  0  0  0  0  0  0  0  0
   62.8290   33.8228   46.3013 H   0  0  0  0  0  0  0  0  0  0  0  0
   62.8824   31.8057   47.2909 H   0  0  0  0  0  0  0  0  0  0  0  0
   64.7099   31.9233   47.4094 H   0  0  0  0  0  0  0  0  0  0  0  0
   63.0446   31.4996   50.8915 H   0  0  0  0  0  0  0  0  0  0  0  0
   61.9024   31.3806   49.5102 H   0  0  0  0  0  0  0  0  0  0  0  0
   63.4158   30.4129   49.5102 H   0  0  0  0  0  0  0  0  0  0  0  0
   63.6798   33.7921   50.7610 H   0  0  0  0  0  0  0  0  0  0  0  0
   64.0537   34.5153   49.1144 H   0  0  0  0  0  0  0  0  0  0  0  0
   61.4694   34.2149   50.5229 H   0  0  0  0  0  0  0  0  0  0  0  0
   62.0120   35.3831   49.2490 H   0  0  0  0  0  0  0  0  0  0  0  0
   61.5720   32.6120   48.3160 H   0  0  0  0  0  0  0  0  0  0  0  0
   59.0011   35.0970   45.7907 H   0  0  0  0  0  0  0  0  0  0  0  0
   57.9079   33.9393   43.8875 H   0  0  0  0  0  0  0  0  0  0  0  0
   55.8416   28.5727   42.9225 H   0  0  0  0  0  0  0  0  0  0  0  0
   56.0778   30.0672   41.9543 H   0  0  0  0  0  0  0  0  0  0  0  0
   57.3392   28.7883   41.9543 H   0  0  0  0  0  0  0  0  0  0  0  0
   59.4350   31.3225   47.8487 H   0  0  0  0  0  0  0  0  0  0  0  0
   59.7957   28.9896   47.1593 H   0  0  0  0  0  0  0  0  0  0  0  0
   58.2490   29.4710   48.0182 H   0  0  0  0  0  0  0  0  0  0  0  0
   58.7784   26.9683   47.8678 H   0  0  0  0  0  0  0  0  0  0  0  0
   57.1394   27.5239   47.3712 H   0  0  0  0  0  0  0  0  0  0  0  0
   59.4748   27.0356   45.4598 H   0  0  0  0  0  0  0  0  0  0  0  0
   58.1420   25.8735   45.7735 H   0  0  0  0  0  0  0  0  0  0  0  0
   57.8133   27.3183   43.7267 H   0  0  0  0  0  0  0  0  0  0  0  0
   56.4969   27.4423   44.9886 H   0  0  0  0  0  0  0  0  0  0  0  0
  1  2  1  0
  2  3  1  0
  3  4  1  0
  3  5  1  0
  5  6  1  0
  6  7  1  0
  7  8  1  0
  8  9  2  0
  8 10  1  0
 10 11  2  0
 11 12  1  0
 12 13  2  0
 13 14  1  0
 14 15  2  0
 14 16  1  0
 16 17  1  0
 16 18  1  0
 18 19  2  0
 19 20  1  0
 20 21  2  0
 19 22  1  0
 22 23  1  0
 23 24  1  0
 24 25  1  0
 21 10  1  0
 20 13  1  0
 25 18  1  0
  1 26  1  0
  1 27  1  0
  1 28  1  0
  2 29  1  0
  2 30  1  0
  4 31  1  0
  4 32  1  0
  4 33  1  0
  5 34  1  0
  5 35  1  0
  6 36  1  0
  6 37  1  0
  7 38  1  0
 11 39  1  0
 12 40  1  0
 17 41  1  0
 17 42  1  0
 17 43  1  0
 21 44  1  0
 22 45  1  0
 22 46  1  0
 23 47  1  0
 23 48  1  0
 24 49  1  0
 24 50  1  0
 25 51  1  0
 25 52  1  0
M  END
>  <UniqueID>  (5) 
5

>  <SMILES>  (5) 
CCN(C)CCNC(=O)c1ccc2c(=O)n(C)c3c(c2c1)CCCC3

>  <Energy>  (5) 
73.32684869830584

>  <Genealogy>  (5) 
CCN(C)CCNC(=O)c1ccc2c(=O)n(C)c3c(c2c1)CCCC3 (3D coordinates assigned)
CCN(C)CCNC(=O)c1ccc2c(=O)n(C)c3c(c2c1)CCCC3 (nonaromatic ring conformer: 73.32684869830584 kcal/mol)

>  <smiles>  (5) 
CCN(C)CCNC(=O)c1ccc2c(=O)n(C)c3c(c2c1)CCCC3

>  <score_type>  (5) 
oracle

>  <origin>  (5) 
adg

>  <m_score__min__energy>  (5) 
-7.6500000000000004

>  <m_primary>  (5) 
energy

$$$$
5:0
     RDKit          3D

 64 68  0  0  0  0  0  0  0  0999 V2000
   60.3180   27.2370   46.9000 C   0  0  0  0  0  0  0  0  0  0  0  0
   60.2990   28.7020   47.3230 C   0  0  0  0  0  0  0  0  0  0  0  0
   60.8130   29.6010   46.2730 N   0  0  0  0  0  0  0  0  0  0  0  0
   59.8930   30.6990   45.9930 C   0  0  0  0  0  0  0  0  0  0  0  0
   58.7320   30.4720   45.2000 C   0  0  0  0  0  0  0  0  0  0  0  0
   58.4500   29.2020   44.6320 C   0  0  0  0  0  0  0  0  0  0  0  0
   57.2700   28.9720   43.9280 C   0  0  0  0  0  0  0  0  0  0  0  0
   56.3410   29.9880   43.7750 C   0  0  0  0  0  0  0  0  0  0  0  0
   56.6060   31.2540   44.2850 C   0  0  0  0  0  0  0  0  0  0  0  0
   57.8200   31.5380   44.9650 C   0  0  0  0  0  0  0  0  0  0  0  0
   58.1060   32.8140   45.4040 N   0  0  0  0  0  0  0  0  0  0  0  0
   57.3290   33.9580   44.8720 C   0  0  0  0  0  0  0  0  0  0  0  0
   59.1460   33.0270   46.2890 C   0  0  0  0  0  0  0  0  0  0  0  0
   59.2900   34.2680   46.9600 C   0  0  0  0  0  0  0  0  0  0  0  0
   60.3950   34.5340   47.7610 C   0  0  0  0  0  0  0  0  0  0  0  0
   61.3770   33.5650   47.9450 C   0  0  0  0  0  0  0  0  0  0  0  0
   62.6250   33.8690   48.7300 C   0  0  0  0  0  0  0  0  0  0  0  0
   63.6070   32.6860   48.6480 C   0  0  0  0  0  0  0  0  0  0  0  0
   63.6100   31.8290   49.9260 C   0  0  0  0  0  0  0  0  0  0  0  0
   62.1990   31.6360   50.4730 C   0  0  0  0  0  0  0  0  0  0  0  0
   61.4690   30.5500   49.9670 C   0  0  0  0  0  0  0  0  0  0  0  0
   60.1150   30.4300   50.2350 C   0  0  0  0  0  0  0  0  0  0  0  0
   59.4650   31.4160   50.9710 C   0  0  0  0  0  0  0  0  0  0  0  0
   58.0750   31.3420   51.1650 C   0  0  0  0  0  0  0  0  0  0  0  0
   57.4080   32.3490   51.8570 C   0  0  0  0  0  0  0  0  0  0  0  0
   58.1180   33.4400   52.3570 C   0  0  0  0  0  0  0  0  0  0  0  0
   59.5000   33.5280   52.1740 C   0  0  0  0  0  0  0  0  0  0  0  0
   60.2120   32.5010   51.5020 C   0  0  0  0  0  0  0  0  0  0  0  0
   61.5870   32.5430   51.3250 N   0  0  0  0  0  0  0  0  0  0  0  0
   62.4110   33.5350   52.0450 C   0  0  0  0  0  0  0  0  0  0  0  0
   61.2180   32.3060   47.3570 C   0  0  0  0  0  0  0  0  0  0  0  0
   60.0940   31.9960   46.5510 C   0  0  0  0  0  0  0  0  0  0  0  0
   60.3263   26.5971   47.7947 H   0  0  0  0  0  0  0  0  0  0  0  0
   59.4226   27.0169   46.3001 H   0  0  0  0  0  0  0  0  0  0  0  0
   61.2188   27.0402   46.3001 H   0  0  0  0  0  0  0  0  0  0  0  0
   59.2628   28.9882   47.5559 H   0  0  0  0  0  0  0  0  0  0  0  0
   60.9546   28.8045   48.2003 H   0  0  0  0  0  0  0  0  0  0  0  0
   61.7390   29.9800   46.5710 H   0  0  0  0  0  0  0  0  0  0  0  0
   61.0780   29.0600   45.4250 H   0  0  0  0  0  0  0  0  0  0  0  0
   59.1765   28.3845   44.7499 H   0  0  0  0  0  0  0  0  0  0  0  0
   57.0755   27.9808   43.4924 H   0  0  0  0  0  0  0  0  0  0  0  0
   55.3940   29.7933   43.2503 H   0  0  0  0  0  0  0  0  0  0  0  0
   55.8598   32.0523   44.1592 H   0  0  0  0  0  0  0  0  0  0  0  0
   56.9275   34.5491   45.7083 H   0  0  0  0  0  0  0  0  0  0  0  0
   57.9843   34.5917   44.2564 H   0  0  0  0  0  0  0  0  0  0  0  0
   56.4983   33.5825   44.2564 H   0  0  0  0  0  0  0  0  0  0  0  0
   58.5113   35.0362   46.8444 H   0  0  0  0  0  0  0  0  0  0  0  0
   60.4934   35.5139   48.2511 H   0  0  0  0  0  0  0  0  0  0  0  0
   63.1044   34.7684   48.3161 H   0  0  0  0  0  0  0  0  0  0  0  0
   62.3543   34.0380   49.7827 H   0  0  0  0  0  0  0  0  0  0  0  0
   63.3212   32.0494   47.7977 H   0  0  0  0  0  0  0  0  0  0  0  0
   64.6181   33.1007   48.5229 H   0  0  0  0  0  0  0  0  0  0  0  0
   64.0416   30.8440   49.6948 H   0  0  0  0  0  0  0  0  0  0  0  0
   64.2078   32.3491   50.6890 H   0  0  0  0  0  0  0  0  0  0  0  0
   61.9746   29.7894   49.3539 H   0  0  0  0  0  0  0  0  0  0  0  0
   59.5552   29.5575   49.8669 H   0  0  0  0  0  0  0  0  0  0  0  0
   57.5116   30.4845   50.7683 H   0  0  0  0  0  0  0  0  0  0  0  0
   56.3206   32.2841   52.0094 H   0  0  0  0  0  0  0  0  0  0  0  0
   57.5865   34.2362   52.8988 H   0  0  0  0  0  0  0  0  0  0  0  0
   60.0434   34.4049   52.5558 H   0  0  0  0  0  0  0  0  0  0  0  0
   62.2925   33.3924   53.1293 H   0  0  0  0  0  0  0  0  0  0  0  0
   63.4680   33.4018   51.7710 H   0  0  0  0  0  0  0  0  0  0  0  0
   62.0862   34.5496   51.7710 H   0  0  0  0  0  0  0  0  0  0  0  0
   61.9855   31.5360   47.5245 H   0  0  0  0  0  0  0  0  0  0  0  0
  1  2  1  0
  2  3  1  0
  3  4  1  0
  4  5  2  0
  5  6  1  0
  6  7  2  0
  7  8  1  0
  8  9  2  0
  9 10  1  0
 10 11  2  0
 11 12  1  0
 11 13  1  0
 13 14  2  0
 14 15  1  0
 15 16  2  0
 16 17  1  0
 17 18  1  0
 18 19  1  0
 19 20  1  0
 20 21  2  0
 21 22  1  0
 22 23  2  0
 23 24  1  0
 24 25  2  0
 25 26  1  0
 26 27  2  0
 27 28  1  0
 28 29  2  0
 29 30  1  0
 16 31  1  0
 31 32  2  0
 32  4  1  0
 10  5  1  0
 32 13  1  0
 29 20  1  0
 28 23  1  0
  1 33  1  0
  1 34  1  0
  1 35  1  0
  2 36  1  0
  2 37  1  0
  3 38  1  0
  3 39  1  0
  6 40  1  0
  7 41  1  0
  8 42  1  0
  9 43  1  0
 12 44  1  0
 12 45  1  0
 12 46  1  0
 14 47  1  0
 15 48  1  0
 17 49  1  0
 17 50  1  0
 18 51  1  0
 18 52  1  0
 19 53  1  0
 19 54  1  0
 21 55  1  0
 22 56  1  0
 24 57  1  0
 25 58  1  0
 26 59  1  0
 27 60  1  0
 30 61  1  0
 30 62  1  0
 30 63  1  0
 31 64  1  0
M  CHG  3   3   1  11   1  29   1
M  END
>  <UniqueID>  (6) 
6

>  <SMILES>  (6) 
CC[NH2+]c1c2ccccc2[n+](C)c2ccc(CCCc3ccc4ccccc4[n+]3C)cc12

>  <Energy>  (6) 
107.86861246362147

>  <Genealogy>  (6) 
CC[NH2+]c1c2ccccc2[n+](C)c2ccc(CCCc3ccc4ccccc4[n+]3C)cc12 (protonated)
CC[NH2+]c1c2ccccc2[n+](C)c2ccc(CCCc3ccc4ccccc4[n+]3C)cc12 (3D coordinates assigned)
CC[NH2+]c1c2ccccc2[n+](C)c2ccc(CCCc3ccc4ccccc4[n+]3C)cc12 (optimized conformer: 107.86861246362147 kcal/mol)

>  <smiles>  (6) 
CCNc1c2ccccc2[n+](C)c2ccc(CCCc3ccc4ccccc4[n+]3C)cc12

>  <score_type>  (6) 
oracle

>  <origin>  (6) 
adg

>  <m_score__min__energy>  (6) 
-5.5300000000000002

>  <m_primary>  (6) 
energy

$$$$
6:0
     RDKit          3D

 44 46  0  0  0  0  0  0  0  0999 V2000
   54.8380   30.8220   52.0200 C   0  0  0  0  0  0  0  0  0  0  0  0
   56.3490   30.6710   52.1530 C   0  0  0  0  0  0  0  0  0  0  0  0
   57.0360   31.6370   51.2840 N   0  0  0  0  0  0  0  0  0  0  0  0
   57.7950   32.6480   52.0420 C   0  0  0  0  0  0  0  0  0  0  0  0
   59.1510   32.9700   51.3830 C   0  0  0  0  0  0  0  0  0  0  0  0
   59.5050   32.0020   50.3270 N   0  0  0  0  0  0  0  0  0  0  0  0
   60.4510   32.5610   49.3640 C   0  0  0  0  0  0  0  0  0  0  0  0
   59.9740   33.1940   48.1810 C   0  0  0  0  0  0  0  0  0  0  0  0
   58.5870   33.2950   47.8950 C   0  0  0  0  0  0  0  0  0  0  0  0
   58.1300   33.9800   46.7720 C   0  0  0  0  0  0  0  0  0  0  0  0
   59.0320   34.5890   45.9140 C   0  0  0  0  0  0  0  0  0  0  0  0
   60.3980   34.4800   46.1480 C   0  0  0  0  0  0  0  0  0  0  0  0
   60.9010   33.7460   47.2540 C   0  0  0  0  0  0  0  0  0  0  0  0
   62.2560   33.5760   47.4400 N   0  0  0  0  0  0  0  0  0  0  0  0
   63.1930   33.8530   46.3250 C   0  0  0  0  0  0  0  0  0  0  0  0
   62.7400   33.1120   48.6450 C   0  0  0  0  0  0  0  0  0  0  0  0
   64.1210   33.2030   48.9610 C   0  0  0  0  0  0  0  0  0  0  0  0
   64.6310   32.6610   50.1360 C   0  0  0  0  0  0  0  0  0  0  0  0
   66.3470   32.7780   50.4880 Cl  0  0  0  0  0  0  0  0  0  0  0  0
   63.7840   32.0230   51.0290 C   0  0  0  0  0  0  0  0  0  0  0  0
   62.4180   31.9640   50.7760 C   0  0  0  0  0  0  0  0  0  0  0  0
   61.8560   32.5390   49.6050 C   0  0  0  0  0  0  0  0  0  0  0  0
   54.3845   30.8673   53.0211 H   0  0  0  0  0  0  0  0  0  0  0  0
   54.6089   31.7475   51.4714 H   0  0  0  0  0  0  0  0  0  0  0  0
   54.4302   29.9601   51.4714 H   0  0  0  0  0  0  0  0  0  0  0  0
   56.6412   30.8510   53.1981 H   0  0  0  0  0  0  0  0  0  0  0  0
   56.6349   29.6523   51.8523 H   0  0  0  0  0  0  0  0  0  0  0  0
   56.3310   32.1120   50.6700 H   0  0  0  0  0  0  0  0  0  0  0  0
   57.1993   33.5711   52.0969 H   0  0  0  0  0  0  0  0  0  0  0  0
   57.9938   32.2409   53.0444 H   0  0  0  0  0  0  0  0  0  0  0  0
   59.0984   33.9748   50.9385 H   0  0  0  0  0  0  0  0  0  0  0  0
   59.9251   32.9153   52.1626 H   0  0  0  0  0  0  0  0  0  0  0  0
   59.9160   31.1480   50.7660 H   0  0  0  0  0  0  0  0  0  0  0  0
   58.6450   31.6140   49.8900 H   0  0  0  0  0  0  0  0  0  0  0  0
   57.8602   32.8236   48.5728 H   0  0  0  0  0  0  0  0  0  0  0  0
   57.0511   34.0378   46.5656 H   0  0  0  0  0  0  0  0  0  0  0  0
   58.6668   35.1591   45.0471 H   0  0  0  0  0  0  0  0  0  0  0  0
   61.1032   34.9724   45.4623 H   0  0  0  0  0  0  0  0  0  0  0  0
   64.1727   34.1426   46.7327 H   0  0  0  0  0  0  0  0  0  0  0  0
   63.3054   32.9497   45.7075 H   0  0  0  0  0  0  0  0  0  0  0  0
   62.7961   34.6722   45.7075 H   0  0  0  0  0  0  0  0  0  0  0  0
   64.8013   33.7123   48.2626 H   0  0  0  0  0  0  0  0  0  0  0  0
   64.1936   31.5623   51.9400 H   0  0  0  0  0  0  0  0  0  0  0  0
   61.7582   31.4611   51.4984 H   0  0  0  0  0  0  0  0  0  0  0  0
  1  2  1  0
  2  3  1  0
  3  4  1  0
  4  5  1  0
  5  6  1  0
  6  7  1  0
  7  8  2  0
  8  9  1  0
  9 10  2  0
 10 11  1  0
 11 12  2  0
 12 13  1  0
 13 14  2  0
 14 15  1  0
 14 16  1  0
 16 17  2  0
 17 18  1  0
 18 19  1  0
 18 20  2  0
 20 21  1  0
 21 22  2  0
 22  7  1  0
 13  8  1  0
 22 16  1  0
  1 23  1  0
  1 24  1  0
  1 25  1  0
  2 26  1  0
  2 27  1  0
  3 28  1  0
  4 29  1  0
  4 30  1  0
  5 31  1  0
  5 32  1  0
  6 33  1  0
  6 34  1  0
  9 35  1  0
 10 36  1  0
 11 37  1  0
 12 38  1  0
 15 39  1  0
 15 40  1  0
 15 41  1  0
 17 42  1  0
 20 43  1  0
 21 44  1  0
M  CHG  2   6   1  14   1
M  END
>  <UniqueID>  (7) 
7

>  <SMILES>  (7) 
CCNCC[NH2+]c1c2ccccc2[n+](C)c2cc(Cl)ccc12

>  <Energy>  (7) 
73.57462084656515

>  <Genealogy>  (7) 
CCNCC[NH2+]c1c2ccccc2[n+](C)c2cc(Cl)ccc12 (protonated)
CCNCC[NH2+]c1c2ccccc2[n+](C)c2cc(Cl)ccc12 (3D coordinates assigned)
CCNCC[NH2+]c1c2ccccc2[n+](C)c2cc(Cl)ccc12 (optimized conformer: 73.57462084656515 kcal/mol)

>  <smiles>  (7) 
CCNCCNc1c2ccccc2[n+](C)c2cc(Cl)ccc12

>  <score_type>  (7) 
oracle

>  <origin>  (7) 
adg

>  <m_score__min__energy>  (7) 
-4.7800000000000002

>  <m_primary>  (7) 
energy

$$$$
7:0
     RDKit          3D

 51 54  0  0  0  0  0  0  0  0999 V2000
   55.8900   30.4620   44.1430 C   0  0  0  0  0  0  0  0  0  0  0  0
   57.0690   31.2730   44.4930 N   0  0  0  0  0  0  0  0  0  0  0  0
   57.8240   31.5950   43.2700 C   0  0  0  0  0  0  0  0  0  0  0  0
   56.6730   32.5170   45.1890 C   0  0  0  0  0  0  0  0  0  0  0  0
   57.6880   33.6480   44.9520 C   0  0  0  0  0  0  0  0  0  0  0  0
   58.2920   34.2030   46.2540 C   0  0  0  0  0  0  0  0  0  0  0  0
   59.7330   33.9430   46.3430 N   0  0  0  0  0  0  0  0  0  0  0  0
   60.3350   32.6760   46.7190 C   0  0  0  0  0  0  0  0  0  0  0  0
   59.7540   31.4910   46.2570 C   0  0  0  0  0  0  0  0  0  0  0  0
   59.9730   30.2490   46.8170 C   0  0  0  0  0  0  0  0  0  0  0  0
   59.3380   29.0760   46.4570 C   0  0  0  0  0  0  0  0  0  0  0  0
   58.6110   28.7470   45.3080 C   0  0  0  0  0  0  0  0  0  0  0  0
   58.0280   27.4690   45.2380 C   0  0  0  0  0  0  0  0  0  0  0  0
   58.1660   26.5620   46.3080 C   0  0  0  0  0  0  0  0  0  0  0  0
   58.8840   26.9250   47.4600 C   0  0  0  0  0  0  0  0  0  0  0  0
   59.4580   28.1950   47.5050 C   0  0  0  0  0  0  0  0  0  0  0  0
   60.1310   28.7220   48.5450 N   0  0  0  0  0  0  0  0  0  0  0  0
   60.4770   29.9760   48.1590 C   0  0  0  0  0  0  0  0  0  0  0  0
   61.2140   30.8140   48.9410 N   0  0  0  0  0  0  0  0  0  0  0  0
   61.3540   30.4380   50.3620 C   0  0  0  0  0  0  0  0  0  0  0  0
   62.0140   31.8050   48.4120 C   0  0  0  0  0  0  0  0  0  0  0  0
   63.2990   32.0080   48.9840 C   0  0  0  0  0  0  0  0  0  0  0  0
   64.1550   33.0080   48.5370 C   0  0  0  0  0  0  0  0  0  0  0  0
   63.7660   33.8420   47.5050 C   0  0  0  0  0  0  0  0  0  0  0  0
   62.5160   33.6860   46.9190 C   0  0  0  0  0  0  0  0  0  0  0  0
   61.6060   32.6880   47.3500 C   0  0  0  0  0  0  0  0  0  0  0  0
   55.3936   30.1205   45.0633 H   0  0  0  0  0  0  0  0  0  0  0  0
   55.1890   31.0699   43.5522 H   0  0  0  0  0  0  0  0  0  0  0  0
   56.2071   29.5900   43.5522 H   0  0  0  0  0  0  0  0  0  0  0  0
   58.8041   32.0130   43.5435 H   0  0  0  0  0  0  0  0  0  0  0  0
   57.9682   30.6801   42.6766 H   0  0  0  0  0  0  0  0  0  0  0  0
   57.2636   32.3324   42.6766 H   0  0  0  0  0  0  0  0  0  0  0  0
   55.6890   32.8368   44.8156 H   0  0  0  0  0  0  0  0  0  0  0  0
   56.6360   32.3095   46.2686 H   0  0  0  0  0  0  0  0  0  0  0  0
   58.5045   33.2594   44.3256 H   0  0  0  0  0  0  0  0  0  0  0  0
   57.1495   34.4735   44.4635 H   0  0  0  0  0  0  0  0  0  0  0  0
   58.1239   35.2895   46.2892 H   0  0  0  0  0  0  0  0  0  0  0  0
   57.8017   33.6982   47.0995 H   0  0  0  0  0  0  0  0  0  0  0  0
   60.3320   34.7980   46.3050 H   0  0  0  0  0  0  0  0  0  0  0  0
   59.0786   31.5529   45.3910 H   0  0  0  0  0  0  0  0  0  0  0  0
   58.4986   29.4666   44.4836 H   0  0  0  0  0  0  0  0  0  0  0  0
   57.4607   27.1754   44.3425 H   0  0  0  0  0  0  0  0  0  0  0  0
   57.7088   25.5638   46.2408 H   0  0  0  0  0  0  0  0  0  0  0  0
   58.9903   26.2265   48.3031 H   0  0  0  0  0  0  0  0  0  0  0  0
   61.0405   31.2800   50.9967 H   0  0  0  0  0  0  0  0  0  0  0  0
   60.7212   29.5636   50.5740 H   0  0  0  0  0  0  0  0  0  0  0  0
   62.4046   30.1904   50.5740 H   0  0  0  0  0  0  0  0  0  0  0  0
   63.6263   31.3539   49.8056 H   0  0  0  0  0  0  0  0  0  0  0  0
   65.1424   33.1359   49.0046 H   0  0  0  0  0  0  0  0  0  0  0  0
   64.4464   34.6291   47.1479 H   0  0  0  0  0  0  0  0  0  0  0  0
   62.2240   34.3561   46.0970 H   0  0  0  0  0  0  0  0  0  0  0  0
  1  2  1  0
  2  3  1  0
  2  4  1  0
  4  5  1  0
  5  6  1  0
  6  7  1  0
  7  8  1  0
  8  9  2  0
  9 10  1  0
 10 11  2  0
 11 12  1  0
 12 13  2  0
 13 14  1  0
 14 15  2  0
 15 16  1  0
 16 17  2  0
 17 18  1  0
 18 19  2  0
 19 20  1  0
 19 21  1  0
 21 22  2  0
 22 23  1  0
 23 24  2  0
 24 25  1  0
 25 26  2  0
 26  8  1  0
 18 10  1  0
 26 21  1  0
 16 11  1  0
  1 27  1  0
  1 28  1  0
  1 29  1  0
  3 30  1  0
  3 31  1  0
  3 32  1  0
  4 33  1  0
  4 34  1  0
  5 35  1  0
  5 36  1  0
  6 37  1  0
  6 38  1  0
  7 39  1  0
  9 40  1  0
 12 41  1  0
 13 42  1  0
 14 43  1  0
 15 44  1  0
 20 45  1  0
 20 46  1  0
 20 47  1  0
 22 48  1  0
 23 49  1  0
 24 50  1  0
 25 51  1  0
M  CHG  1  19   1
M  END
>  <UniqueID>  (8) 
8

>  <SMILES>  (8) 
CN(C)CCCNc1cc2c3ccccc3nc-2[n+](C)c2ccccc12

>  <Energy>  (8) 
130.22571771349672

>  <Genealogy>  (8) 
CN(C)CCCNc1cc2c3ccccc3nc-2[n+](C)c2ccccc12 (3D coordinates assigned)
CN(C)CCCNc1cc2c3ccccc3nc-2[n+](C)c2ccccc12 (optimized conformer: 130.22571771349672 kcal/mol)

>  <smiles>  (8) 
CN(C)CCCNc1cc2c3ccccc3nc-2[n+](C)c2ccccc12

>  <score_type>  (8) 
oracle

>  <origin>  (8) 
adg

>  <m_score__min__energy>  (8) 
-6.8399999999999999

>  <m_primary>  (8) 
energy

$$$$
8:0
     RDKit          3D

 73 76  0  0  0  0  0  0  0  0999 V2000
   58.3090   34.1490   52.3850 C   0  0  0  0  0  0  0  0  0  0  0  0
   57.8830   32.7340   52.8070 C   0  0  0  0  0  0  0  0  0  0  0  0
   57.0300   32.0250   51.8130 N   0  0  0  0  0  0  0  0  0  0  0  0
   56.3680   30.8120   52.3670 C   0  0  0  0  0  0  0  0  0  0  0  0
   54.8780   30.7300   52.0180 C   0  0  0  0  0  0  0  0  0  0  0  0
   57.8060   31.6940   50.5860 C   0  0  0  0  0  0  0  0  0  0  0  0
   59.2960   31.4440   50.8790 C   0  0  0  0  0  0  0  0  0  0  0  0
   59.9820   30.9680   49.6780 N   0  0  0  0  0  0  0  0  0  0  0  0
   60.8000   31.8630   48.9110 C   0  0  0  0  0  0  0  0  0  0  0  0
   60.2210   32.6920   47.9380 C   0  0  0  0  0  0  0  0  0  0  0  0
   58.8250   32.6940   47.7330 C   0  0  0  0  0  0  0  0  0  0  0  0
   58.2460   33.5530   46.8020 C   0  0  0  0  0  0  0  0  0  0  0  0
   59.0410   34.4330   46.0770 C   0  0  0  0  0  0  0  0  0  0  0  0
   60.4240   34.4440   46.2610 C   0  0  0  0  0  0  0  0  0  0  0  0
   61.0500   33.5520   47.1690 C   0  0  0  0  0  0  0  0  0  0  0  0
   62.4230   33.5180   47.3300 N   0  0  0  0  0  0  0  0  0  0  0  0
   63.3020   34.1910   46.3480 C   0  0  0  0  0  0  0  0  0  0  0  0
   62.9770   32.8320   48.3960 C   0  0  0  0  0  0  0  0  0  0  0  0
   64.3410   32.9770   48.7520 C   0  0  0  0  0  0  0  0  0  0  0  0
   64.9000   32.2370   49.7940 C   0  0  0  0  0  0  0  0  0  0  0  0
   64.1150   31.3390   50.5280 C   0  0  0  0  0  0  0  0  0  0  0  0
   64.6310   30.5530   51.5720 O   0  0  0  0  0  0  0  0  0  0  0  0
   64.6100   29.1260   51.6300 C   0  0  0  0  0  0  0  0  0  0  0  0
   65.7310   28.6080   52.5640 C   0  0  0  0  0  0  0  0  0  0  0  0
   66.8580   27.8700   51.9110 N   0  0  0  0  0  0  0  0  0  0  0  0
   67.8410   27.5200   52.9730 C   0  0  0  0  0  0  0  0  0  0  0  0
   66.4480   26.6330   51.2070 C   0  0  0  0  0  0  0  0  0  0  0  0
   67.4890   26.3670   50.1250 C   0  0  0  0  0  0  0  0  0  0  0  0
   68.1550   27.7100   49.8660 C   0  0  0  0  0  0  0  0  0  0  0  0
   67.5440   28.6800   50.8760 C   0  0  0  0  0  0  0  0  0  0  0  0
   62.7610   31.2130   50.2200 C   0  0  0  0  0  0  0  0  0  0  0  0
   62.1740   31.9640   49.1800 C   0  0  0  0  0  0  0  0  0  0  0  0
   58.4927   34.7593   53.2815 H   0  0  0  0  0  0  0  0  0  0  0  0
   59.2296   34.0913   51.7857 H   0  0  0  0  0  0  0  0  0  0  0  0
   57.5096   34.6092   51.7857 H   0  0  0  0  0  0  0  0  0  0  0  0
   58.7915   32.1355   52.9694 H   0  0  0  0  0  0  0  0  0  0  0  0
   57.2754   32.8478   53.7169 H   0  0  0  0  0  0  0  0  0  0  0  0
   56.2770   32.7020   51.5450 H   0  0  0  0  0  0  0  0  0  0  0  0
   56.8722   29.9220   51.9624 H   0  0  0  0  0  0  0  0  0  0  0  0
   56.4465   30.8662   53.4629 H   0  0  0  0  0  0  0  0  0  0  0  0
   54.2857   30.6974   52.9443 H   0  0  0  0  0  0  0  0  0  0  0  0
   54.5901   31.6137   51.4296 H   0  0  0  0  0  0  0  0  0  0  0  0
   54.6888   29.8201   51.4296 H   0  0  0  0  0  0  0  0  0  0  0  0
   57.3789   30.7873   50.1327 H   0  0  0  0  0  0  0  0  0  0  0  0
   57.7397   32.5565   49.9065 H   0  0  0  0  0  0  0  0  0  0  0  0
   59.7615   32.3828   51.2136 H   0  0  0  0  0  0  0  0  0  0  0  0
   59.3803   30.6779   51.6638 H   0  0  0  0  0  0  0  0  0  0  0  0
   59.7760   30.0230   49.2820 H   0  0  0  0  0  0  0  0  0  0  0  0
   58.1880   32.0108   48.3139 H   0  0  0  0  0  0  0  0  0  0  0  0
   57.1581   33.5350   46.6402 H   0  0  0  0  0  0  0  0  0  0  0  0
   58.5783   35.1229   45.3559 H   0  0  0  0  0  0  0  0  0  0  0  0
   61.0394   35.1566   45.6922 H   0  0  0  0  0  0  0  0  0  0  0  0
   64.0662   34.7761   46.8805 H   0  0  0  0  0  0  0  0  0  0  0  0
   63.7926   33.4354   45.7168 H   0  0  0  0  0  0  0  0  0  0  0  0
   62.7006   34.8617   45.7168 H   0  0  0  0  0  0  0  0  0  0  0  0
   64.9711   33.6868   48.1959 H   0  0  0  0  0  0  0  0  0  0  0  0
   65.9649   32.3596   50.0409 H   0  0  0  0  0  0  0  0  0  0  0  0
   63.6348   28.7931   52.0148 H   0  0  0  0  0  0  0  0  0  0  0  0
   64.7739   28.7250   50.6189 H   0  0  0  0  0  0  0  0  0  0  0  0
   66.1587   29.4766   53.0861 H   0  0  0  0  0  0  0  0  0  0  0  0
   65.2446   27.8727   53.2218 H   0  0  0  0  0  0  0  0  0  0  0  0
   67.3862   27.6819   53.9614 H   0  0  0  0  0  0  0  0  0  0  0  0
   68.1303   26.4636   52.8711 H   0  0  0  0  0  0  0  0  0  0  0  0
   68.7328   28.1558   52.8711 H   0  0  0  0  0  0  0  0  0  0  0  0
   66.4141   25.7904   51.9133 H   0  0  0  0  0  0  0  0  0  0  0  0
   65.4462   26.7466   50.7671 H   0  0  0  0  0  0  0  0  0  0  0  0
   68.2286   25.6318   50.4750 H   0  0  0  0  0  0  0  0  0  0  0  0
   67.0343   25.9533   49.2128 H   0  0  0  0  0  0  0  0  0  0  0  0
   69.2419   27.6339   50.0173 H   0  0  0  0  0  0  0  0  0  0  0  0
   67.9945   28.0485   48.8318 H   0  0  0  0  0  0  0  0  0  0  0  0
   68.3350   29.2887   51.3384 H   0  0  0  0  0  0  0  0  0  0  0  0
   66.8341   29.3591   50.3812 H   0  0  0  0  0  0  0  0  0  0  0  0
   62.1387   30.5147   50.7989 H   0  0  0  0  0  0  0  0  0  0  0  0
  1  2  1  0
  2  3  1  0
  3  4  1  0
  4  5  1  0
  3  6  1  0
  6  7  1  0
  7  8  1  0
  8  9  1  0
  9 10  2  0
 10 11  1  0
 11 12  2  0
 12 13  1  0
 13 14  2  0
 14 15  1  0
 15 16  2  0
 16 17  1  0
 16 18  1  0
 18 19  2  0
 19 20  1  0
 20 21  2  0
 21 22  1  0
 22 23  1  0
 23 24  1  0
 24 25  1  0
 25 26  1  0
 25 27  1  0
 27 28  1  0
 28 29  1  0
 29 30  1  0
 21 31  1  0
 31 32  2  0
 32  9  1  0
 15 10  1  0
 32 18  1  0
 30 25  1  0
  1 33  1  0
  1 34  1  0
  1 35  1  0
  2 36  1  0
  2 37  1  0
  3 38  1  0
  4 39  1  0
  4 40  1  0
  5 41  1  0
  5 42  1  0
  5 43  1  0
  6 44  1  0
  6 45  1  0
  7 46  1  0
  7 47  1  0
  8 48  1  0
 11 49  1  0
 12 50  1  0
 13 51  1  0
 14 52  1  0
 17 53  1  0
 17 54  1  0
 17 55  1  0
 19 56  1  0
 20 57  1  0
 23 58  1  0
 23 59  1  0
 24 60  1  0
 24 61  1  0
 26 62  1  0
 26 63  1  0
 26 64  1  0
 27 65  1  0
 27 66  1  0
 28 67  1  0
 28 68  1  0
 29 69  1  0
 29 70  1  0
 30 71  1  0
 30 72  1  0
 31 73  1  0
M  CHG  3   3   1  16   1  25   1
M  END
>  <UniqueID>  (9) 
9

>  <SMILES>  (9) 
CC[NH+](CC)CCNc1c2ccccc2[n+](C)c2ccc(OCC[N+]3(C)CCCC3)cc12

>  <Energy>  (9) 
115.51500323340093

>  <Genealogy>  (9) 
CC[NH+](CC)CCNc1c2ccccc2[n+](C)c2ccc(OCC[N+]3(C)CCCC3)cc12 (protonated)
CC[NH+](CC)CCNc1c2ccccc2[n+](C)c2ccc(OCC[N+]3(C)CCCC3)cc12 (3D coordinates assigned)
CC[NH+](CC)CCNc1c2ccccc2[n+](C)c2ccc(OCC[N+]3(C)CCCC3)cc12 (nonaromatic ring conformer: 115.51500323340093 kcal/mol)

>  <smiles>  (9) 
CCN(CC)CCNc1c2ccccc2[n+](C)c2ccc(OCC[N+]3(C)CCCC3)cc12

>  <score_type>  (9) 
oracle

>  <origin>  (9) 
adg

>  <m_score__min__energy>  (9) 
-3.8900000000000001

>  <m_primary>  (9) 
energy

$$$$
9:0
     RDKit          3D

 38 38  0  0  0  0  0  0  0  0999 V2000
   57.9180   27.2110   44.9020 C   0  0  0  0  0  0  0  0  0  0  0  0
   57.5910   27.4940   46.3700 C   0  0  0  0  0  0  0  0  0  0  0  0
   57.9780   28.8610   46.7730 N   0  0  0  0  0  0  0  0  0  0  0  0
   59.2560   28.9130   47.4980 C   0  0  0  0  0  0  0  0  0  0  0  0
   60.4190   29.3580   46.5970 C   0  0  0  0  0  0  0  0  0  0  0  0
   60.7630   30.8040   46.8580 C   0  0  0  0  0  0  0  0  0  0  0  0
   62.0970   31.1500   47.1380 C   0  0  0  0  0  0  0  0  0  0  0  0
   62.4690   32.4950   47.3090 C   0  0  0  0  0  0  0  0  0  0  0  0
   63.7870   32.8800   47.5970 O   0  0  0  0  0  0  0  0  0  0  0  0
   64.3070   33.0520   48.9120 C   0  0  0  0  0  0  0  0  0  0  0  0
   61.5000   33.4940   47.1840 C   0  0  0  0  0  0  0  0  0  0  0  0
   60.1730   33.1680   46.8930 C   0  0  0  0  0  0  0  0  0  0  0  0
   58.8950   34.5860   46.7240 Br  0  0  0  0  0  0  0  0  0  0  0  0
   59.7940   31.8250   46.7360 C   0  0  0  0  0  0  0  0  0  0  0  0
   58.4320   31.5030   46.4360 N   0  0  0  0  0  0  0  0  0  0  0  0
   57.9310   31.2490   44.7980 S   0  0  0  0  0  0  0  0  0  0  0  0
   57.9510   32.7950   43.9210 C   0  0  0  0  0  0  0  0  0  0  0  0
   58.8670   30.2880   44.1190 O   0  0  0  0  0  0  0  0  0  0  0  0
   56.5410   30.6770   44.7850 O   0  0  0  0  0  0  0  0  0  0  0  0
   58.7486   26.4922   44.8433 H   0  0  0  0  0  0  0  0  0  0  0  0
   57.0325   26.7896   44.4037 H   0  0  0  0  0  0  0  0  0  0  0  0
   58.2080   28.1478   44.4037 H   0  0  0  0  0  0  0  0  0  0  0  0
   56.5083   27.3729   46.5217 H   0  0  0  0  0  0  0  0  0  0  0  0
   58.1628   26.7849   46.9867 H   0  0  0  0  0  0  0  0  0  0  0  0
   58.0030   29.5200   45.9590 H   0  0  0  0  0  0  0  0  0  0  0  0
   59.1615   29.6248   48.3313 H   0  0  0  0  0  0  0  0  0  0  0  0
   59.4794   27.8986   47.8602 H   0  0  0  0  0  0  0  0  0  0  0  0
   61.2994   28.7325   46.8061 H   0  0  0  0  0  0  0  0  0  0  0  0
   60.1179   29.2471   45.5448 H   0  0  0  0  0  0  0  0  0  0  0  0
   62.8575   30.3599   47.2241 H   0  0  0  0  0  0  0  0  0  0  0  0
   63.5319   32.7956   49.6492 H   0  0  0  0  0  0  0  0  0  0  0  0
   65.1774   32.3939   49.0511 H   0  0  0  0  0  0  0  0  0  0  0  0
   64.6133   34.0993   49.0511 H   0  0  0  0  0  0  0  0  0  0  0  0
   61.7850   34.5482   47.3161 H   0  0  0  0  0  0  0  0  0  0  0  0
   57.8320   31.1100   47.1950 H   0  0  0  0  0  0  0  0  0  0  0  0
   57.9617   33.6255   44.6422 H   0  0  0  0  0  0  0  0  0  0  0  0
   58.8499   32.8465   43.2891 H   0  0  0  0  0  0  0  0  0  0  0  0
   57.0537   32.8697   43.2891 H   0  0  0  0  0  0  0  0  0  0  0  0
  1  2  1  0
  2  3  1  0
  3  4  1  0
  4  5  1  0
  5  6  1  0
  6  7  2  0
  7  8  1  0
  8  9  1  0
  9 10  1  0
  8 11  2  0
 11 12  1  0
 12 13  1  0
 12 14  2  0
 14 15  1  0
 15 16  1  0
 16 17  1  0
 16 18  2  0
 16 19  2  0
 14  6  1  0
  1 20  1  0
  1 21  1  0
  1 22  1  0
  2 23  1  0
  2 24  1  0
  3 25  1  0
  4 26  1  0
  4 27  1  0
  5 28  1  0
  5 29  1  0
  7 30  1  0
 10 31  1  0
 10 32  1  0
 10 33  1  0
 11 34  1  0
 15 35  1  0
 17 36  1  0
 17 37  1  0
 17 38  1  0
M  END
>  <UniqueID>  (10) 
10

>  <SMILES>  (10) 
CCNCCc1cc(OC)cc(Br)c1NS(C)(=O)=O

>  <Energy>  (10) 
36.46254931986414

>  <Genealogy>  (10) 
CCNCCc1cc(OC)cc(Br)c1NS(C)(=O)=O (3D coordinates assigned)
CCNCCc1cc(OC)cc(Br)c1NS(C)(=O)=O (optimized conformer: 36.46254931986414 kcal/mol)

>  <smiles>  (10) 
CCNCCc1cc(OC)cc(Br)c1NS(C)(=O)=O

>  <score_type>  (10) 
oracle

>  <origin>  (10) 
adg

>  <m_score__min__energy>  (10) 
-6.4400000000000004

>  <m_primary>  (10) 
energy

$$$$
10:0
     RDKit          3D

 50 51  0  0  0  0  0  0  0  0999 V2000
   62.8600   31.9900   47.4950 C   0  0  0  0  0  0  0  0  0  0  0  0
   62.1630   31.5910   48.7960 C   0  0  0  0  0  0  0  0  0  0  0  0
   60.7020   31.4590   48.5830 N   0  0  0  0  0  0  0  0  0  0  0  0
   59.9510   32.3500   49.5050 C   0  0  0  0  0  0  0  0  0  0  0  0
   60.2120   33.8460   49.2060 C   0  0  0  0  0  0  0  0  0  0  0  0
   60.5970   34.0860   47.8030 N   0  0  0  0  0  0  0  0  0  0  0  0
   59.6400   34.9710   47.1140 C   0  0  0  0  0  0  0  0  0  0  0  0
   59.6630   34.7520   45.5920 C   0  0  0  0  0  0  0  0  0  0  0  0
   58.8900   33.5200   45.1920 C   0  0  0  0  0  0  0  0  0  0  0  0
   58.5260   32.5650   46.1540 C   0  0  0  0  0  0  0  0  0  0  0  0
   57.7630   31.4520   45.7900 C   0  0  0  0  0  0  0  0  0  0  0  0
   57.3460   31.2750   44.4590 C   0  0  0  0  0  0  0  0  0  0  0  0
   56.5530   30.1320   44.0910 N   0  0  0  0  0  0  0  0  0  0  0  0
   55.6780   29.6870   44.8630 O   0  0  0  0  0  0  0  0  0  0  0  0
   56.7520   29.5020   42.8830 O   0  0  0  0  0  0  0  0  0  0  0  0
   57.7130   32.2340   43.4980 C   0  0  0  0  0  0  0  0  0  0  0  0
   58.4780   33.3470   43.8620 C   0  0  0  0  0  0  0  0  0  0  0  0
   60.2780   30.0400   48.7090 C   0  0  0  0  0  0  0  0  0  0  0  0
   59.9150   29.4560   47.3650 C   0  0  0  0  0  0  0  0  0  0  0  0
   58.8190   28.5830   47.2510 C   0  0  0  0  0  0  0  0  0  0  0  0
   58.4920   28.0190   46.0140 C   0  0  0  0  0  0  0  0  0  0  0  0
   59.2720   28.2970   44.8890 C   0  0  0  0  0  0  0  0  0  0  0  0
   60.3860   29.1320   45.0010 C   0  0  0  0  0  0  0  0  0  0  0  0
   60.7160   29.7010   46.2350 C   0  0  0  0  0  0  0  0  0  0  0  0
   63.7930   32.5241   47.7278 H   0  0  0  0  0  0  0  0  0  0  0  0
   63.0904   31.0870   46.9106 H   0  0  0  0  0  0  0  0  0  0  0  0
   62.1980   32.6459   46.9106 H   0  0  0  0  0  0  0  0  0  0  0  0
   62.5667   30.6282   49.1424 H   0  0  0  0  0  0  0  0  0  0  0  0
   62.3435   32.3713   49.5500 H   0  0  0  0  0  0  0  0  0  0  0  0
   58.8751   32.1484   49.3959 H   0  0  0  0  0  0  0  0  0  0  0  0
   60.2924   32.1437   50.5301 H   0  0  0  0  0  0  0  0  0  0  0  0
   59.2946   34.4134   49.4214 H   0  0  0  0  0  0  0  0  0  0  0  0
   61.0492   34.1711   49.8411 H   0  0  0  0  0  0  0  0  0  0  0  0
   61.5410   34.5360   47.7910 H   0  0  0  0  0  0  0  0  0  0  0  0
   60.6650   33.1760   47.2980 H   0  0  0  0  0  0  0  0  0  0  0  0
   58.6272   34.7632   47.4895 H   0  0  0  0  0  0  0  0  0  0  0  0
   59.9272   36.0133   47.3165 H   0  0  0  0  0  0  0  0  0  0  0  0
   59.2164   35.6282   45.0993 H   0  0  0  0  0  0  0  0  0  0  0  0
   60.7094   34.6150   45.2819 H   0  0  0  0  0  0  0  0  0  0  0  0
   58.8428   32.6931   47.1996 H   0  0  0  0  0  0  0  0  0  0  0  0
   57.4863   30.7080   46.5515 H   0  0  0  0  0  0  0  0  0  0  0  0
   57.3961   32.1079   42.4522 H   0  0  0  0  0  0  0  0  0  0  0  0
   58.7581   34.0907   43.1014 H   0  0  0  0  0  0  0  0  0  0  0  0
   61.1034   29.4563   49.1425 H   0  0  0  0  0  0  0  0  0  0  0  0
   59.3904   29.9985   49.3574 H   0  0  0  0  0  0  0  0  0  0  0  0
   58.2159   28.3425   48.1390 H   0  0  0  0  0  0  0  0  0  0  0  0
   57.6191   27.3553   45.9266 H   0  0  0  0  0  0  0  0  0  0  0  0
   59.0089   27.8584   43.9151 H   0  0  0  0  0  0  0  0  0  0  0  0
   61.0052   29.3425   44.1165 H   0  0  0  0  0  0  0  0  0  0  0  0
   61.6053   30.3426   46.3223 H   0  0  0  0  0  0  0  0  0  0  0  0
  1  2  1  0
  2  3  1  0
  3  4  1  0
  4  5  1  0
  5  6  1  0
  6  7  1  0
  7  8  1  0
  8  9  1  0
  9 10  2  0
 10 11  1  0
 11 12  2  0
 12 13  1  0
 13 14  2  0
 13 15  1  0
 12 16  1  0
 16 17  2  0
  3 18  1  0
 18 19  1  0
 19 20  2  0
 20 21  1  0
 21 22  2  0
 22 23  1  0
 23 24  2  0
 17  9  1  0
 24 19  1  0
  1 25  1  0
  1 26  1  0
  1 27  1  0
  2 28  1  0
  2 29  1  0
  4 30  1  0
  4 31  1  0
  5 32  1  0
  5 33  1  0
  6 34  1  0
  6 35  1  0
  7 36  1  0
  7 37  1  0
  8 38  1  0
  8 39  1  0
 10 40  1  0
 11 41  1  0
 16 42  1  0
 17 43  1  0
 18 44  1  0
 18 45  1  0
 20 46  1  0
 21 47  1  0
 22 48  1  0
 23 49  1  0
 24 50  1  0
M  CHG  3   6   1  13   1  15  -1
M  END
>  <UniqueID>  (11) 
11

>  <SMILES>  (11) 
CCN(CC[NH2+]CCc1ccc([N+](=O)[O-])cc1)Cc1ccccc1

>  <Energy>  (11) 
50.10969677998912

>  <Genealogy>  (11) 
CCN(CC[NH2+]CCc1ccc([N+](=O)[O-])cc1)Cc1ccccc1 (protonated)
CCN(CC[NH2+]CCc1ccc([N+](=O)[O-])cc1)Cc1ccccc1 (3D coordinates assigned)
CCN(CC[NH2+]CCc1ccc([N+](=O)[O-])cc1)Cc1ccccc1 (optimized conformer: 50.10969677998912 kcal/mol)

>  <smiles>  (11) 
CCN(CCNCCc1ccc([N+](=O)[O-])cc1)Cc1ccccc1

>  <score_type>  (11) 
oracle

>  <origin>  (11) 
adg

>  <m_score__min__energy>  (11) 
-6.0199999999999996

>  <m_primary>  (11) 
energy

$$$$
11:0
     RDKit          3D

 48 50  0  0  0  0  0  0  0  0999 V2000
   60.7840   30.0890   48.3400 C   0  0  0  0  0  0  0  0  0  0  0  0
   61.3130   31.0660   47.2780 C   0  0  0  0  0  0  0  0  0  0  0  0
   61.7050   32.3970   47.8090 N   0  0  0  0  0  0  0  0  0  0  0  0
   63.1410   32.7030   47.6000 C   0  0  0  0  0  0  0  0  0  0  0  0
   63.3020   33.8460   46.5980 C   0  0  0  0  0  0  0  0  0  0  0  0
   60.8090   33.4870   47.3570 C   0  0  0  0  0  0  0  0  0  0  0  0
   59.5520   33.5690   48.2330 C   0  0  0  0  0  0  0  0  0  0  0  0
   58.4850   32.7200   47.7010 N   0  0  0  0  0  0  0  0  0  0  0  0
   58.2540   32.5640   46.2940 C   0  0  0  0  0  0  0  0  0  0  0  0
   58.1110   33.7030   45.4980 C   0  0  0  0  0  0  0  0  0  0  0  0
   57.9820   33.5870   44.1140 C   0  0  0  0  0  0  0  0  0  0  0  0
   57.9710   32.3270   43.4950 C   0  0  0  0  0  0  0  0  0  0  0  0
   57.8460   32.2510   41.9940 C   0  0  0  0  0  0  0  0  0  0  0  0
   58.0790   31.1610   44.2940 C   0  0  0  0  0  0  0  0  0  0  0  0
   58.0600   29.9070   43.7470 N   0  0  0  0  0  0  0  0  0  0  0  0
   58.1540   28.7890   44.5280 C   0  0  0  0  0  0  0  0  0  0  0  0
   58.1530   27.5030   43.9620 C   0  0  0  0  0  0  0  0  0  0  0  0
   58.2510   26.3730   44.7830 C   0  0  0  0  0  0  0  0  0  0  0  0
   58.3430   26.5180   46.1710 C   0  0  0  0  0  0  0  0  0  0  0  0
   58.3480   27.7930   46.7420 C   0  0  0  0  0  0  0  0  0  0  0  0
   58.2570   28.9270   45.9250 C   0  0  0  0  0  0  0  0  0  0  0  0
   58.2790   30.1720   46.4700 N   0  0  0  0  0  0  0  0  0  0  0  0
   58.2080   31.2910   45.6990 C   0  0  0  0  0  0  0  0  0  0  0  0
   60.9990   30.4861   49.3430 H   0  0  0  0  0  0  0  0  0  0  0  0
   59.6974   29.9685   48.2185 H   0  0  0  0  0  0  0  0  0  0  0  0
   61.2770   29.1132   48.2185 H   0  0  0  0  0  0  0  0  0  0  0  0
   62.1948   30.6123   46.8020 H   0  0  0  0  0  0  0  0  0  0  0  0
   60.4869   31.2404   46.5729 H   0  0  0  0  0  0  0  0  0  0  0  0
   63.5925   32.9958   48.5594 H   0  0  0  0  0  0  0  0  0  0  0  0
   63.6425   31.8078   47.2037 H   0  0  0  0  0  0  0  0  0  0  0  0
   63.4354   34.7934   47.1408 H   0  0  0  0  0  0  0  0  0  0  0  0
   64.1826   33.6583   45.9660 H   0  0  0  0  0  0  0  0  0  0  0  0
   62.4038   33.9089   45.9660 H   0  0  0  0  0  0  0  0  0  0  0  0
   61.3496   34.4433   47.4143 H   0  0  0  0  0  0  0  0  0  0  0  0
   60.5001   33.2784   46.3221 H   0  0  0  0  0  0  0  0  0  0  0  0
   59.8013   33.2373   49.2517 H   0  0  0  0  0  0  0  0  0  0  0  0
   59.1989   34.6107   48.2423 H   0  0  0  0  0  0  0  0  0  0  0  0
   57.7500   32.3730   48.3670 H   0  0  0  0  0  0  0  0  0  0  0  0
   58.1001   34.6984   45.9660 H   0  0  0  0  0  0  0  0  0  0  0  0
   57.8877   34.4945   43.4996 H   0  0  0  0  0  0  0  0  0  0  0  0
   56.9336   31.6963   41.7297 H   0  0  0  0  0  0  0  0  0  0  0  0
   57.7900   33.2681   41.5788 H   0  0  0  0  0  0  0  0  0  0  0  0
   58.7232   31.7332   41.5788 H   0  0  0  0  0  0  0  0  0  0  0  0
   57.9790   29.7800   42.7140 H   0  0  0  0  0  0  0  0  0  0  0  0
   58.0750   27.3836   42.8713 H   0  0  0  0  0  0  0  0  0  0  0  0
   58.2556   25.3684   44.3350 H   0  0  0  0  0  0  0  0  0  0  0  0
   58.4115   25.6277   46.8134 H   0  0  0  0  0  0  0  0  0  0  0  0
   58.4234   27.9063   47.8335 H   0  0  0  0  0  0  0  0  0  0  0  0
  1  2  1  0
  2  3  1  0
  3  4  1  0
  4  5  1  0
  3  6  1  0
  6  7  1  0
  7  8  1  0
  8  9  1  0
  9 10  2  0
 10 11  1  0
 11 12  2  0
 12 13  1  0
 12 14  1  0
 14 15  2  0
 15 16  1  0
 16 17  2  0
 17 18  1  0
 18 19  2  0
 19 20  1  0
 20 21  2  0
 21 22  1  0
 22 23  2  0
 23  9  1  0
 23 14  1  0
 21 16  1  0
  1 24  1  0
  1 25  1  0
  1 26  1  0
  2 27  1  0
  2 28  1  0
  4 29  1  0
  4 30  1  0
  5 31  1  0
  5 32  1  0
  5 33  1  0
  6 34  1  0
  6 35  1  0
  7 36  1  0
  7 37  1  0
  8 38  1  0
 10 39  1  0
 11 40  1  0
 13 41  1  0
 13 42  1  0
 13 43  1  0
 15 44  1  0
 17 45  1  0
 18 46  1  0
 19 47  1  0
 20 48  1  0
M  CHG  1  15   1
M  END
>  <UniqueID>  (12) 
12

>  <SMILES>  (12) 
CCN(CC)CCNc1ccc(C)c2[nH+]c3ccccc3nc12

>  <Energy>  (12) 
58.54653559895411

>  <Genealogy>  (12) 
CCN(CC)CCNc1ccc(C)c2[nH+]c3ccccc3nc12 (protonated)
CCN(CC)CCNc1ccc(C)c2[nH+]c3ccccc3nc12 (3D coordinates assigned)
CCN(CC)CCNc1ccc(C)c2[nH+]c3ccccc3nc12 (optimized conformer: 58.54653559895411 kcal/mol)

>  <smiles>  (12) 
CCN(CC)CCNc1ccc(C)c2nc3ccccc3nc12

>  <score_type>  (12) 
oracle

>  <origin>  (12) 
adg

>  <m_score__min__energy>  (12) 
-5.9900000000000002

>  <m_primary>  (12) 
energy

$$$$
12:0
     RDKit          3D

 51 53  0  0  0  0  0  0  0  0999 V2000
   58.5780   32.1450   49.5670 C   0  0  0  0  0  0  0  0  0  0  0  0
   58.9740   32.1800   51.0450 C   0  0  0  0  0  0  0  0  0  0  0  0
   60.4350   32.2280   51.2380 N   0  0  0  0  0  0  0  0  0  0  0  0
   61.0190   33.5560   50.9440 C   0  0  0  0  0  0  0  0  0  0  0  0
   62.1660   33.4680   49.9270 C   0  0  0  0  0  0  0  0  0  0  0  0
   62.2600   32.1500   49.4240 O   0  0  0  0  0  0  0  0  0  0  0  0
   63.1310   32.0970   48.3120 C   0  0  0  0  0  0  0  0  0  0  0  0
   62.4040   31.4550   47.1330 C   0  0  0  0  0  0  0  0  0  0  0  0
   61.0510   31.0500   47.5190 N   0  0  0  0  0  0  0  0  0  0  0  0
   59.9830   31.0170   46.5560 C   0  0  0  0  0  0  0  0  0  0  0  0
   59.3920   32.2120   46.1060 C   0  0  0  0  0  0  0  0  0  0  0  0
   59.7820   33.4620   46.6370 C   0  0  0  0  0  0  0  0  0  0  0  0
   59.1780   34.6390   46.2080 C   0  0  0  0  0  0  0  0  0  0  0  0
   58.1650   34.5940   45.2570 C   0  0  0  0  0  0  0  0  0  0  0  0
   57.7730   33.3740   44.7070 C   0  0  0  0  0  0  0  0  0  0  0  0
   58.4010   32.1620   45.0900 C   0  0  0  0  0  0  0  0  0  0  0  0
   58.0660   30.9540   44.5060 N   0  0  0  0  0  0  0  0  0  0  0  0
   57.2670   30.9290   43.2600 C   0  0  0  0  0  0  0  0  0  0  0  0
   58.4970   29.7690   45.0740 C   0  0  0  0  0  0  0  0  0  0  0  0
   57.9580   28.5160   44.6860 C   0  0  0  0  0  0  0  0  0  0  0  0
   58.4250   27.3250   45.2440 C   0  0  0  0  0  0  0  0  0  0  0  0
   57.7410   25.7900   44.7390 Cl  0  0  0  0  0  0  0  0  0  0  0  0
   59.4220   27.3520   46.2140 C   0  0  0  0  0  0  0  0  0  0  0  0
   59.9430   28.5710   46.6440 C   0  0  0  0  0  0  0  0  0  0  0  0
   59.4890   29.7860   46.0900 C   0  0  0  0  0  0  0  0  0  0  0  0
   57.4855   32.0484   49.4823 H   0  0  0  0  0  0  0  0  0  0  0  0
   58.9029   33.0754   49.0782 H   0  0  0  0  0  0  0  0  0  0  0  0
   59.0610   31.2860   49.0782 H   0  0  0  0  0  0  0  0  0  0  0  0
   58.5276   33.0721   51.5086 H   0  0  0  0  0  0  0  0  0  0  0  0
   58.6059   31.2542   51.5113 H   0  0  0  0  0  0  0  0  0  0  0  0
   60.8890   31.4700   50.6760 H   0  0  0  0  0  0  0  0  0  0  0  0
   60.6190   32.0060   52.2440 H   0  0  0  0  0  0  0  0  0  0  0  0
   60.2321   34.2075   50.5362 H   0  0  0  0  0  0  0  0  0  0  0  0
   61.4266   33.9628   51.8812 H   0  0  0  0  0  0  0  0  0  0  0  0
   61.9719   34.1628   49.0966 H   0  0  0  0  0  0  0  0  0  0  0  0
   63.1112   33.7363   50.4215 H   0  0  0  0  0  0  0  0  0  0  0  0
   63.4431   33.1163   48.0406 H   0  0  0  0  0  0  0  0  0  0  0  0
   64.0190   31.5001   48.5671 H   0  0  0  0  0  0  0  0  0  0  0  0
   62.3426   32.1802   46.3082 H   0  0  0  0  0  0  0  0  0  0  0  0
   62.9636   30.5629   46.8152 H   0  0  0  0  0  0  0  0  0  0  0  0
   60.8150   31.0390   48.5360 H   0  0  0  0  0  0  0  0  0  0  0  0
   60.5736   33.5047   47.3996 H   0  0  0  0  0  0  0  0  0  0  0  0
   59.5019   35.6056   46.6212 H   0  0  0  0  0  0  0  0  0  0  0  0
   57.6712   35.5235   44.9374 H   0  0  0  0  0  0  0  0  0  0  0  0
   56.9628   33.3516   43.9634 H   0  0  0  0  0  0  0  0  0  0  0  0
   56.1966   30.8955   43.5114 H   0  0  0  0  0  0  0  0  0  0  0  0
   57.4772   31.8342   42.6714 H   0  0  0  0  0  0  0  0  0  0  0  0
   57.5334   30.0388   42.6714 H   0  0  0  0  0  0  0  0  0  0  0  0
   57.1578   28.4822   43.9320 H   0  0  0  0  0  0  0  0  0  0  0  0
   59.7990   26.4112   46.6415 H   0  0  0  0  0  0  0  0  0  0  0  0
   60.7176   28.5857   47.4249 H   0  0  0  0  0  0  0  0  0  0  0  0
  1  2  1  0
  2  3  1  0
  3  4  1  0
  4  5  1  0
  5  6  1  0
  6  7  1  0
  7  8  1  0
  8  9  1  0
  9 10  1  0
 10 11  2  0
 11 12  1  0
 12 13  2  0
 13 14  1  0
 14 15  2  0
 15 16  1  0
 16 17  2  0
 17 18  1  0
 17 19  1  0
 19 20  2  0
 20 21  1  0
 21 22  1  0
 21 23  2  0
 23 24  1  0
 24 25  2  0
 25 10  1  0
 16 11  1  0
 25 19  1  0
  1 26  1  0
  1 27  1  0
  1 28  1  0
  2 29  1  0
  2 30  1  0
  3 31  1  0
  3 32  1  0
  4 33  1  0
  4 34  1  0
  5 35  1  0
  5 36  1  0
  7 37  1  0
  7 38  1  0
  8 39  1  0
  8 40  1  0
  9 41  1  0
 12 42  1  0
 13 43  1  0
 14 44  1  0
 15 45  1  0
 18 46  1  0
 18 47  1  0
 18 48  1  0
 20 49  1  0
 23 50  1  0
 24 51  1  0
M  CHG  2   3   1  17   1
M  END
>  <UniqueID>  (13) 
13

>  <SMILES>  (13) 
CC[NH2+]CCOCCNc1c2ccccc2[n+](C)c2cc(Cl)ccc12

>  <Energy>  (13) 
76.12779020988165

>  <Genealogy>  (13) 
CC[NH2+]CCOCCNc1c2ccccc2[n+](C)c2cc(Cl)ccc12 (protonated)
CC[NH2+]CCOCCNc1c2ccccc2[n+](C)c2cc(Cl)ccc12 (3D coordinates assigned)
CC[NH2+]CCOCCNc1c2ccccc2[n+](C)c2cc(Cl)ccc12 (optimized conformer: 76.12779020988165 kcal/mol)

>  <smiles>  (13) 
CCNCCOCCNc1c2ccccc2[n+](C)c2cc(Cl)ccc12

>  <score_type>  (13) 
oracle

>  <origin>  (13) 
adg

>  <m_score__min__energy>  (13) 
-4.2599999999999998

>  <m_primary>  (13) 
energy

$$$$
13:0
     RDKit          3D

 41 43  0  0  0  0  0  0  0  0999 V2000
   58.0170   25.1280   45.2450 C   0  0  0  0  0  0  0  0  0  0  0  0
   58.1230   26.6210   45.3530 C   0  0  0  0  0  0  0  0  0  0  0  0
   58.1260   27.4150   44.1980 C   0  0  0  0  0  0  0  0  0  0  0  0
   58.1870   28.8080   44.2990 C   0  0  0  0  0  0  0  0  0  0  0  0
   58.2250   29.4310   45.5590 C   0  0  0  0  0  0  0  0  0  0  0  0
   58.2980   30.8640   45.6830 N   0  0  0  0  0  0  0  0  0  0  0  0
   57.3520   31.6910   45.2460 N   0  0  0  0  0  0  0  0  0  0  0  0
   57.7450   32.9640   45.5010 C   0  0  0  0  0  0  0  0  0  0  0  0
   56.9390   34.1650   45.1280 C   0  0  0  0  0  0  0  0  0  0  0  0
   58.9910   32.9320   46.1100 C   0  0  0  0  0  0  0  0  0  0  0  0
   59.9050   33.8880   46.5580 C   0  0  0  0  0  0  0  0  0  0  0  0
   59.6410   35.3590   46.4870 C   0  0  0  0  0  0  0  0  0  0  0  0
   61.0890   33.4330   47.0680 N   0  0  0  0  0  0  0  0  0  0  0  0
   61.3820   32.0940   47.1390 C   0  0  0  0  0  0  0  0  0  0  0  0
   62.7000   31.6360   47.7010 C   0  0  0  0  0  0  0  0  0  0  0  0
   63.7670   32.7200   47.5190 C   0  0  0  0  0  0  0  0  0  0  0  0
   62.5520   31.2550   49.1770 C   0  0  0  0  0  0  0  0  0  0  0  0
   60.4780   31.1710   46.6940 N   0  0  0  0  0  0  0  0  0  0  0  0
   59.2930   31.6080   46.2030 C   0  0  0  0  0  0  0  0  0  0  0  0
   58.2210   28.6300   46.7140 C   0  0  0  0  0  0  0  0  0  0  0  0
   58.1570   27.2370   46.6120 C   0  0  0  0  0  0  0  0  0  0  0  0
   57.9858   24.6888   46.2530 H   0  0  0  0  0  0  0  0  0  0  0  0
   57.0979   24.8640   44.7014 H   0  0  0  0  0  0  0  0  0  0  0  0
   58.8896   24.7368   44.7014 H   0  0  0  0  0  0  0  0  0  0  0  0
   58.0801   26.9397   43.2071 H   0  0  0  0  0  0  0  0  0  0  0  0
   58.2054   29.4213   43.3860 H   0  0  0  0  0  0  0  0  0  0  0  0
   56.5968   34.6749   46.0407 H   0  0  0  0  0  0  0  0  0  0  0  0
   57.5591   34.8528   44.5343 H   0  0  0  0  0  0  0  0  0  0  0  0
   56.0675   33.8518   44.5343 H   0  0  0  0  0  0  0  0  0  0  0  0
   59.5676   35.7679   47.5055 H   0  0  0  0  0  0  0  0  0  0  0  0
   60.4647   35.8539   45.9516 H   0  0  0  0  0  0  0  0  0  0  0  0
   58.6966   35.5366   45.9516 H   0  0  0  0  0  0  0  0  0  0  0  0
   63.0238   30.7415   47.1487 H   0  0  0  0  0  0  0  0  0  0  0  0
   64.1088   33.0673   48.5052 H   0  0  0  0  0  0  0  0  0  0  0  0
   64.6193   32.3055   46.9606 H   0  0  0  0  0  0  0  0  0  0  0  0
   63.3391   33.5656   46.9606 H   0  0  0  0  0  0  0  0  0  0  0  0
   62.8785   32.0954   49.8071 H   0  0  0  0  0  0  0  0  0  0  0  0
   61.4984   31.0232   49.3920 H   0  0  0  0  0  0  0  0  0  0  0  0
   63.1728   30.3727   49.3920 H   0  0  0  0  0  0  0  0  0  0  0  0
   58.2686   29.1028   47.7061 H   0  0  0  0  0  0  0  0  0  0  0  0
   58.1332   26.6217   47.5235 H   0  0  0  0  0  0  0  0  0  0  0  0
  1  2  1  0
  2  3  2  0
  3  4  1  0
  4  5  2  0
  5  6  1  0
  6  7  1  0
  7  8  2  0
  8  9  1  0
  8 10  1  0
 10 11  2  0
 11 12  1  0
 11 13  1  0
 13 14  2  0
 14 15  1  0
 15 16  1  0
 15 17  1  0
 14 18  1  0
 18 19  2  0
  5 20  1  0
 20 21  2  0
 21  2  1  0
 19  6  1  0
 19 10  1  0
  1 22  1  0
  1 23  1  0
  1 24  1  0
  3 25  1  0
  4 26  1  0
  9 27  1  0
  9 28  1  0
  9 29  1  0
 12 30  1  0
 12 31  1  0
 12 32  1  0
 15 33  1  0
 16 34  1  0
 16 35  1  0
 16 36  1  0
 17 37  1  0
 17 38  1  0
 17 39  1  0
 20 40  1  0
 21 41  1  0
M  END
>  <UniqueID>  (14) 
14

>  <SMILES>  (14) 
Cc1ccc(-n2nc(C)c3c(C)nc(C(C)C)nc32)cc1

>  <Energy>  (14) 
81.29523714953696

>  <Genealogy>  (14) 
Cc1ccc(-n2nc(C)c3c(C)nc(C(C)C)nc32)cc1 (3D coordinates assigned)
Cc1ccc(-n2nc(C)c3c(C)nc(C(C)C)nc32)cc1 (optimized conformer: 81.29523714953696 kcal/mol)

>  <smiles>  (14) 
Cc1ccc(-n2nc(C)c3c(C)nc(C(C)C)nc32)cc1

>  <score_type>  (14) 
oracle

>  <origin>  (14) 
adg

>  <m_score__min__energy>  (14) 
-7.4400000000000004

>  <m_primary>  (14) 
energy

$$$$
14:0
     RDKit          3D

 69 72  0  0  0  0  0  0  0  0999 V2000
   57.7260   32.2990   41.5570 C   0  0  0  0  0  0  0  0  0  0  0  0
   57.7780   32.0410   43.0610 C   0  0  0  0  0  0  0  0  0  0  0  0
   56.9690   30.8060   43.4870 C   0  0  0  0  0  0  0  0  0  0  0  0
   57.8140   29.7130   44.1700 C   0  0  0  0  0  0  0  0  0  0  0  0
   57.8050   29.8380   45.6320 N   0  0  0  0  0  0  0  0  0  0  0  0
   58.8940   30.3970   46.3960 C   0  0  0  0  0  0  0  0  0  0  0  0
   59.9490   29.5700   46.8160 C   0  0  0  0  0  0  0  0  0  0  0  0
   61.0480   30.1030   47.4880 C   0  0  0  0  0  0  0  0  0  0  0  0
   61.0880   31.4630   47.8320 C   0  0  0  0  0  0  0  0  0  0  0  0
   59.9640   32.2510   47.5930 C   0  0  0  0  0  0  0  0  0  0  0  0
   59.8570   33.5100   48.1900 C   0  0  0  0  0  0  0  0  0  0  0  0
   58.8930   34.4110   47.7050 C   0  0  0  0  0  0  0  0  0  0  0  0
   57.9580   34.0040   46.7570 C   0  0  0  0  0  0  0  0  0  0  0  0
   57.9330   32.6810   46.3240 C   0  0  0  0  0  0  0  0  0  0  0  0
   58.9220   31.7710   46.7520 C   0  0  0  0  0  0  0  0  0  0  0  0
   60.3790   33.7220   49.5680 C   0  0  0  0  0  0  0  0  0  0  0  0
   59.4360   34.2980   50.4930 N   0  0  0  0  0  0  0  0  0  0  0  0
   58.9180   33.5010   51.6050 C   0  0  0  0  0  0  0  0  0  0  0  0
   59.2850   32.0210   51.4350 C   0  0  0  0  0  0  0  0  0  0  0  0
   58.1160   31.2010   51.0380 N   0  0  0  0  0  0  0  0  0  0  0  0
   57.2840   30.7200   52.1770 C   0  0  0  0  0  0  0  0  0  0  0  0
   55.7670   30.8960   51.9960 C   0  0  0  0  0  0  0  0  0  0  0  0
   58.5200   30.1070   50.1230 C   0  0  0  0  0  0  0  0  0  0  0  0
   59.8530   29.4950   50.5510 C   0  0  0  0  0  0  0  0  0  0  0  0
   61.6390   33.4040   49.9940 C   0  0  0  0  0  0  0  0  0  0  0  0
   62.0190   33.8150   51.3020 C   0  0  0  0  0  0  0  0  0  0  0  0
   63.3440   33.7980   51.7190 C   0  0  0  0  0  0  0  0  0  0  0  0
   64.3360   33.3680   50.8590 C   0  0  0  0  0  0  0  0  0  0  0  0
   64.0010   32.8680   49.6090 C   0  0  0  0  0  0  0  0  0  0  0  0
   62.6460   32.7840   49.1690 C   0  0  0  0  0  0  0  0  0  0  0  0
   62.3690   32.0930   48.0730 N   0  0  0  0  0  0  0  0  0  0  0  0
   63.4100   31.7990   47.0650 C   0  0  0  0  0  0  0  0  0  0  0  0
   57.5117   33.3624   41.3746 H   0  0  0  0  0  0  0  0  0  0  0  0
   58.6949   32.0377   41.1064 H   0  0  0  0  0  0  0  0  0  0  0  0
   56.9340   31.6828   41.1064 H   0  0  0  0  0  0  0  0  0  0  0  0
   58.8274   31.8910   43.3548 H   0  0  0  0  0  0  0  0  0  0  0  0
   57.3325   32.9142   43.5601 H   0  0  0  0  0  0  0  0  0  0  0  0
   56.1870   31.1294   44.1898 H   0  0  0  0  0  0  0  0  0  0  0  0
   56.5542   30.3631   42.5695 H   0  0  0  0  0  0  0  0  0  0  0  0
   57.4076   28.7282   43.8962 H   0  0  0  0  0  0  0  0  0  0  0  0
   58.8532   29.8265   43.8278 H   0  0  0  0  0  0  0  0  0  0  0  0
   56.9380   29.5270   46.1210 H   0  0  0  0  0  0  0  0  0  0  0  0
   59.9075   28.4898   46.6124 H   0  0  0  0  0  0  0  0  0  0  0  0
   61.8933   29.4503   47.7516 H   0  0  0  0  0  0  0  0  0  0  0  0
   58.8773   35.4459   48.0775 H   0  0  0  0  0  0  0  0  0  0  0  0
   57.2379   34.7289   46.3495 H   0  0  0  0  0  0  0  0  0  0  0  0
   57.1371   32.3434   45.6439 H   0  0  0  0  0  0  0  0  0  0  0  0
   59.1180   35.2840   50.3470 H   0  0  0  0  0  0  0  0  0  0  0  0
   59.3488   33.8731   52.5463 H   0  0  0  0  0  0  0  0  0  0  0  0
   57.8219   33.5917   51.6220 H   0  0  0  0  0  0  0  0  0  0  0  0
   60.0597   31.9341   50.6589 H   0  0  0  0  0  0  0  0  0  0  0  0
   59.6485   31.6477   52.4038 H   0  0  0  0  0  0  0  0  0  0  0  0
   57.4882   29.6486   52.3197 H   0  0  0  0  0  0  0  0  0  0  0  0
   57.5632   31.3380   53.0431 H   0  0  0  0  0  0  0  0  0  0  0  0
   55.2841   30.9520   52.9827 H   0  0  0  0  0  0  0  0  0  0  0  0
   55.5694   31.8231   51.4379 H   0  0  0  0  0  0  0  0  0  0  0  0
   55.3624   30.0388   51.4379 H   0  0  0  0  0  0  0  0  0  0  0  0
   57.7460   29.3254   50.1339 H   0  0  0  0  0  0  0  0  0  0  0  0
   58.6357   30.5229   49.1113 H   0  0  0  0  0  0  0  0  0  0  0  0
   59.9089   29.4693   51.6493 H   0  0  0  0  0  0  0  0  0  0  0  0
   59.9301   28.4713   50.1559 H   0  0  0  0  0  0  0  0  0  0  0  0
   60.6796   30.1038   50.1559 H   0  0  0  0  0  0  0  0  0  0  0  0
   61.2422   34.1556   52.0024 H   0  0  0  0  0  0  0  0  0  0  0  0
   63.6038   34.1275   52.7358 H   0  0  0  0  0  0  0  0  0  0  0  0
   65.3911   33.4220   51.1652 H   0  0  0  0  0  0  0  0  0  0  0  0
   64.8028   32.5265   48.9378 H   0  0  0  0  0  0  0  0  0  0  0  0
   64.3486   31.5339   47.5738 H   0  0  0  0  0  0  0  0  0  0  0  0
   63.0838   30.9578   46.4357 H   0  0  0  0  0  0  0  0  0  0  0  0
   63.5721   32.6865   46.4357 H   0  0  0  0  0  0  0  0  0  0  0  0
  1  2  1  0
  2  3  1  0
  3  4  1  0
  4  5  1  0
  5  6  1  0
  6  7  2  0
  7  8  1  0
  8  9  2  0
  9 10  1  0
 10 11  2  0
 11 12  1  0
 12 13  2  0
 13 14  1  0
 14 15  2  0
 11 16  1  0
 16 17  1  0
 17 18  1  0
 18 19  1  0
 19 20  1  0
 20 21  1  0
 21 22  1  0
 20 23  1  0
 23 24  1  0
 16 25  2  0
 25 26  1  0
 26 27  2  0
 27 28  1  0
 28 29  2  0
 29 30  1  0
 30 31  2  0
 31 32  1  0
 15  6  1  0
 30 25  1  0
 31  9  1  0
 15 10  1  0
  1 33  1  0
  1 34  1  0
  1 35  1  0
  2 36  1  0
  2 37  1  0
  3 38  1  0
  3 39  1  0
  4 40  1  0
  4 41  1  0
  5 42  1  0
  7 43  1  0
  8 44  1  0
 12 45  1  0
 13 46  1  0
 14 47  1  0
 17 48  1  0
 18 49  1  0
 18 50  1  0
 19 51  1  0
 19 52  1  0
 21 53  1  0
 21 54  1  0
 22 55  1  0
 22 56  1  0
 22 57  1  0
 23 58  1  0
 23 59  1  0
 24 60  1  0
 24 61  1  0
 24 62  1  0
 26 63  1  0
 27 64  1  0
 28 65  1  0
 29 66  1  0
 32 67  1  0
 32 68  1  0
 32 69  1  0
M  CHG  1  31   1
M  END
>  <UniqueID>  (15) 
15

>  <SMILES>  (15) 
CCCCNc1ccc2c3c(cccc13)C(NCCN(CC)CC)=c1ccccc1=[N+]2C

>  <Energy>  (15) 
135.59051209395471

>  <Genealogy>  (15) 
CCCCNc1ccc2c3c(cccc13)C(NCCN(CC)CC)=c1ccccc1=[N+]2C (3D coordinates assigned)
CCCCNc1ccc2c3c(cccc13)C(NCCN(CC)CC)=c1ccccc1=[N+]2C (nonaromatic ring conformer: 135.59051209395471 kcal/mol)

>  <smiles>  (15) 
CCCCNc1ccc2c3c(cccc13)C(NCCN(CC)CC)=c1ccccc1=[N+]2C

>  <score_type>  (15) 
oracle

>  <origin>  (15) 
adg

>  <m_score__min__energy>  (15) 
-6.4500000000000002

>  <m_primary>  (15) 
energy

$$$$
15:0
     RDKit          3D

 36 37  0  0  0  0  0  0  0  0999 V2000
   58.8720   34.3090   44.7450 C   0  0  0  0  0  0  0  0  0  0  0  0
   57.7830   33.4360   44.1190 C   0  0  0  0  0  0  0  0  0  0  0  0
   58.3470   32.3140   43.3440 N   0  0  0  0  0  0  0  0  0  0  0  0
   57.3920   31.7260   42.3930 C   0  0  0  0  0  0  0  0  0  0  0  0
   56.8830   30.3500   42.8570 C   0  0  0  0  0  0  0  0  0  0  0  0
   56.0200   30.4630   44.1190 C   0  0  0  0  0  0  0  0  0  0  0  0
   56.6780   29.8860   45.2490 O   0  0  0  0  0  0  0  0  0  0  0  0
   57.9390   30.2620   45.7460 C   0  0  0  0  0  0  0  0  0  0  0  0
   58.1360   31.4460   46.4860 C   0  0  0  0  0  0  0  0  0  0  0  0
   59.4100   31.7780   46.9700 C   0  0  0  0  0  0  0  0  0  0  0  0
   59.6100   32.9520   47.7130 C   0  0  0  0  0  0  0  0  0  0  0  0
   60.8830   33.2720   48.1900 C   0  0  0  0  0  0  0  0  0  0  0  0
   61.9670   32.4270   47.9320 C   0  0  0  0  0  0  0  0  0  0  0  0
   63.7020   32.8740   48.5890 Br  0  0  0  0  0  0  0  0  0  0  0  0
   61.7800   31.2550   47.1920 C   0  0  0  0  0  0  0  0  0  0  0  0
   60.5060   30.9220   46.7070 C   0  0  0  0  0  0  0  0  0  0  0  0
   60.3070   29.7510   45.9640 C   0  0  0  0  0  0  0  0  0  0  0  0
   59.0340   29.4250   45.4860 C   0  0  0  0  0  0  0  0  0  0  0  0
   58.8040   27.8090   44.4870 Br  0  0  0  0  0  0  0  0  0  0  0  0
   58.8019   34.2528   45.8413 H   0  0  0  0  0  0  0  0  0  0  0  0
   59.8604   33.9502   44.4219 H   0  0  0  0  0  0  0  0  0  0  0  0
   58.7368   35.3518   44.4219 H   0  0  0  0  0  0  0  0  0  0  0  0
   57.1495   33.0297   44.9213 H   0  0  0  0  0  0  0  0  0  0  0  0
   57.2004   34.0645   43.4294 H   0  0  0  0  0  0  0  0  0  0  0  0
   58.7390   31.5650   43.9630 H   0  0  0  0  0  0  0  0  0  0  0  0
   56.5328   32.4048   42.2883 H   0  0  0  0  0  0  0  0  0  0  0  0
   57.9121   31.5880   41.4336 H   0  0  0  0  0  0  0  0  0  0  0  0
   56.2815   29.9021   42.0523 H   0  0  0  0  0  0  0  0  0  0  0  0
   57.7551   29.7222   43.0920 H   0  0  0  0  0  0  0  0  0  0  0  0
   55.8210   31.5253   44.3236 H   0  0  0  0  0  0  0  0  0  0  0  0
   55.0799   29.9181   43.9478 H   0  0  0  0  0  0  0  0  0  0  0  0
   57.2849   32.1138   46.6851 H   0  0  0  0  0  0  0  0  0  0  0  0
   58.7621   33.6215   47.9200 H   0  0  0  0  0  0  0  0  0  0  0  0
   61.0338   34.1934   48.7716 H   0  0  0  0  0  0  0  0  0  0  0  0
   62.6342   30.5922   46.9896 H   0  0  0  0  0  0  0  0  0  0  0  0
   61.1568   29.0844   45.7555 H   0  0  0  0  0  0  0  0  0  0  0  0
  1  2  1  0
  2  3  1  0
  3  4  1  0
  4  5  1  0
  5  6  1  0
  6  7  1  0
  7  8  1  0
  8  9  2  0
  9 10  1  0
 10 11  2  0
 11 12  1  0
 12 13  2  0
 13 14  1  0
 13 15  1  0
 15 16  2  0
 16 17  1  0
 17 18  2  0
 18 19  1  0
 18  8  1  0
 16 10  1  0
  1 20  1  0
  1 21  1  0
  1 22  1  0
  2 23  1  0
  2 24  1  0
  3 25  1  0
  4 26  1  0
  4 27  1  0
  5 28  1  0
  5 29  1  0
  6 30  1  0
  6 31  1  0
  9 32  1  0
 11 33  1  0
 12 34  1  0
 15 35  1  0
 17 36  1  0
M  END
>  <UniqueID>  (16) 
16

>  <SMILES>  (16) 
CCNCCCOc1cc2ccc(Br)cc2cc1Br

>  <Energy>  (16) 
35.872949652178406

>  <Genealogy>  (16) 
CCNCCCOc1cc2ccc(Br)cc2cc1Br (3D coordinates assigned)
CCNCCCOc1cc2ccc(Br)cc2cc1Br (optimized conformer: 35.872949652178406 kcal/mol)

>  <smiles>  (16) 
CCNCCCOc1cc2ccc(Br)cc2cc1Br

>  <score_type>  (16) 
oracle

>  <origin>  (16) 
adg

>  <m_score__min__energy>  (16) 
-6.9400000000000004

>  <m_primary>  (16) 
energy

$$$$
16:0
     RDKit          3D

 49 50  0  0  0  0  0  0  0  0999 V2000
   63.4390   32.8320   47.1080 C   0  0  0  0  0  0  0  0  0  0  0  0
   62.2650   33.7880   47.2880 C   0  0  0  0  0  0  0  0  0  0  0  0
   61.0360   33.0680   47.3800 O   0  0  0  0  0  0  0  0  0  0  0  0
   59.8400   33.3770   46.7110 C   0  0  0  0  0  0  0  0  0  0  0  0
   59.8160   34.2950   45.6390 C   0  0  0  0  0  0  0  0  0  0  0  0
   58.6220   34.5950   44.9820 C   0  0  0  0  0  0  0  0  0  0  0  0
   57.4340   33.9890   45.3820 C   0  0  0  0  0  0  0  0  0  0  0  0
   57.4360   33.0830   46.4420 C   0  0  0  0  0  0  0  0  0  0  0  0
   58.6230   32.7660   47.1180 C   0  0  0  0  0  0  0  0  0  0  0  0
   58.5180   31.8400   48.1720 O   0  0  0  0  0  0  0  0  0  0  0  0
   58.5980   32.1260   49.5650 C   0  0  0  0  0  0  0  0  0  0  0  0
   59.8420   31.4660   50.1920 C   0  0  0  0  0  0  0  0  0  0  0  0
   60.8720   30.9710   49.2340 N   0  0  1  0  0  0  0  0  0  0  0  0
   62.2460   31.2300   49.7040 C   0  0  0  0  0  0  0  0  0  0  0  0
   60.7160   29.5460   48.8510 C   0  0  0  0  0  0  0  0  0  0  0  0
   59.8990   29.3760   47.5910 C   0  0  0  0  0  0  0  0  0  0  0  0
   60.3600   29.9050   46.3740 C   0  0  0  0  0  0  0  0  0  0  0  0
   59.5980   29.7670   45.2100 C   0  0  0  0  0  0  0  0  0  0  0  0
   58.3680   29.1010   45.2510 C   0  0  0  0  0  0  0  0  0  0  0  0
   57.3920   28.9260   43.7570 S   0  0  0  0  0  0  0  0  0  0  0  0
   56.9920   30.6980   43.6640 C   0  0  0  0  0  0  0  0  0  0  0  0
   57.9060   28.5660   46.4580 C   0  0  0  0  0  0  0  0  0  0  0  0
   58.6660   28.7030   47.6220 C   0  0  0  0  0  0  0  0  0  0  0  0
   63.8163   32.5248   48.0946 H   0  0  0  0  0  0  0  0  0  0  0  0
   63.1067   31.9443   46.5498 H   0  0  0  0  0  0  0  0  0  0  0  0
   64.2410   33.3372   46.5498 H   0  0  0  0  0  0  0  0  0  0  0  0
   62.4119   34.3704   48.2096 H   0  0  0  0  0  0  0  0  0  0  0  0
   62.2178   34.4572   46.4163 H   0  0  0  0  0  0  0  0  0  0  0  0
   60.7497   34.7797   45.3177 H   0  0  0  0  0  0  0  0  0  0  0  0
   58.6194   35.3111   44.1470 H   0  0  0  0  0  0  0  0  0  0  0  0
   56.4939   34.2249   44.8619 H   0  0  0  0  0  0  0  0  0  0  0  0
   56.4926   32.6100   46.7525 H   0  0  0  0  0  0  0  0  0  0  0  0
   58.6586   33.2152   49.7060 H   0  0  0  0  0  0  0  0  0  0  0  0
   57.7008   31.7238   50.0582 H   0  0  0  0  0  0  0  0  0  0  0  0
   60.3214   32.2071   50.8484 H   0  0  0  0  0  0  0  0  0  0  0  0
   59.4714   30.5731   50.7167 H   0  0  0  0  0  0  0  0  0  0  0  0
   60.7570   31.5410   48.3620 H   0  0  0  0  0  0  0  0  0  0  0  0
   62.2628   31.2332   50.8039 H   0  0  0  0  0  0  0  0  0  0  0  0
   62.9163   30.4424   49.3293 H   0  0  0  0  0  0  0  0  0  0  0  0
   62.5835   32.2076   49.3293 H   0  0  0  0  0  0  0  0  0  0  0  0
   61.7137   29.1128   48.6867 H   0  0  0  0  0  0  0  0  0  0  0  0
   60.1850   29.0347   49.6675 H   0  0  0  0  0  0  0  0  0  0  0  0
   61.3256   30.4306   46.3367 H   0  0  0  0  0  0  0  0  0  0  0  0
   59.9660   30.1827   44.2603 H   0  0  0  0  0  0  0  0  0  0  0  0
   56.8997   31.1069   44.6810 H   0  0  0  0  0  0  0  0  0  0  0  0
   57.7933   31.2271   43.1274 H   0  0  0  0  0  0  0  0  0  0  0  0
   56.0411   30.8316   43.1274 H   0  0  0  0  0  0  0  0  0  0  0  0
   56.9424   28.0364   46.4906 H   0  0  0  0  0  0  0  0  0  0  0  0
   58.2969   28.2814   48.5686 H   0  0  0  0  0  0  0  0  0  0  0  0
  1  2  1  0
  2  3  1  0
  3  4  1  0
  4  5  2  0
  5  6  1  0
  6  7  2  0
  7  8  1  0
  8  9  2  0
  9 10  1  0
 10 11  1  0
 11 12  1  0
 12 13  1  0
 13 14  1  0
 13 15  1  0
 15 16  1  0
 16 17  2  0
 17 18  1  0
 18 19  2  0
 19 20  1  0
 20 21  1  0
 19 22  1  0
 22 23  2  0
  9  4  1  0
 23 16  1  0
  1 24  1  0
  1 25  1  0
  1 26  1  0
  2 27  1  0
  2 28  1  0
  5 29  1  0
  6 30  1  0
  7 31  1  0
  8 32  1  0
 11 33  1  0
 11 34  1  0
 12 35  1  0
 12 36  1  0
 13 37  1  6
 14 38  1  0
 14 39  1  0
 14 40  1  0
 15 41  1  0
 15 42  1  0
 17 43  1  0
 18 44  1  0
 21 45  1  0
 21 46  1  0
 21 47  1  0
 22 48  1  0
 23 49  1  0
M  CHG  1  13   1
M  END
>  <UniqueID>  (17) 
17

>  <SMILES>  (17) 
CCOc1ccccc1OCC[N@@H+](C)Cc1ccc(SC)cc1

>  <Energy>  (17) 
48.42851251440586

>  <Genealogy>  (17) 
CCOc1ccccc1OCC[NH+](C)Cc1ccc(SC)cc1 (protonated)
CCOc1ccccc1OCC[N@@H+](C)Cc1ccc(SC)cc1 (chirality)
CCOc1ccccc1OCC[N@@H+](C)Cc1ccc(SC)cc1 (3D coordinates assigned)
CCOc1ccccc1OCC[N@@H+](C)Cc1ccc(SC)cc1 (optimized conformer: 48.42851251440586 kcal/mol)

>  <smiles>  (17) 
CCOc1ccccc1OCCN(C)Cc1ccc(SC)cc1

>  <score_type>  (17) 
oracle

>  <origin>  (17) 
adg

>  <m_score__min__energy>  (17) 
-4.3300000000000001

>  <m_primary>  (17) 
energy

$$$$
17:0
     RDKit          3D

 38 39  0  0  0  0  0  0  0  0999 V2000
   57.7690   32.2440   42.0520 C   0  0  0  0  0  0  0  0  0  0  0  0
   57.6600   32.4930   43.4490 O   0  0  0  0  0  0  0  0  0  0  0  0
   58.0950   31.6110   44.4520 C   0  0  0  0  0  0  0  0  0  0  0  0
   58.6240   30.3400   44.1450 C   0  0  0  0  0  0  0  0  0  0  0  0
   59.0550   29.4880   45.1640 C   0  0  0  0  0  0  0  0  0  0  0  0
   58.9640   29.8870   46.4970 C   0  0  0  0  0  0  0  0  0  0  0  0
   58.4410   31.1420   46.8170 C   0  0  0  0  0  0  0  0  0  0  0  0
   58.0010   32.0090   45.8020 C   0  0  0  0  0  0  0  0  0  0  0  0
   57.4930   33.3790   46.1720 C   0  0  0  0  0  0  0  0  0  0  0  0
   58.8030   34.5880   46.0790 S   0  0  0  0  0  0  0  0  0  0  0  0
   59.2830   34.9200   44.5020 O   0  0  0  0  0  0  0  0  0  0  0  0
   60.1730   34.2370   47.1220 C   0  0  0  0  0  0  0  0  0  0  0  0
   60.0620   34.3910   48.5080 C   0  0  0  0  0  0  0  0  0  0  0  0
   61.1580   34.1300   49.3310 C   0  0  0  0  0  0  0  0  0  0  0  0
   62.3800   33.7050   48.7820 C   0  0  0  0  0  0  0  0  0  0  0  0
   63.5420   33.4270   49.6980 C   0  0  0  0  0  0  0  0  0  0  0  0
   62.4880   33.5290   47.3810 C   0  0  0  0  0  0  0  0  0  0  0  0
   63.7760   33.0740   46.7470 C   0  0  0  0  0  0  0  0  0  0  0  0
   61.3780   33.8050   46.5630 C   0  0  0  0  0  0  0  0  0  0  0  0
   58.2053   31.2473   41.8902 H   0  0  0  0  0  0  0  0  0  0  0  0
   56.7702   32.2860   41.5930 H   0  0  0  0  0  0  0  0  0  0  0  0
   58.4157   33.0063   41.5930 H   0  0  0  0  0  0  0  0  0  0  0  0
   58.6975   30.0178   43.0958 H   0  0  0  0  0  0  0  0  0  0  0  0
   59.4675   28.4993   44.9144 H   0  0  0  0  0  0  0  0  0  0  0  0
   59.3043   29.2130   47.2970 H   0  0  0  0  0  0  0  0  0  0  0  0
   58.3731   31.4537   47.8697 H   0  0  0  0  0  0  0  0  0  0  0  0
   56.6887   33.6648   45.4782 H   0  0  0  0  0  0  0  0  0  0  0  0
   57.1151   33.3477   47.2046 H   0  0  0  0  0  0  0  0  0  0  0  0
   58.8920   34.1930   43.9560 H   0  0  0  0  0  0  0  0  0  0  0  0
   59.1092   34.7183   48.9496 H   0  0  0  0  0  0  0  0  0  0  0  0
   61.0648   34.2580   50.4195 H   0  0  0  0  0  0  0  0  0  0  0  0
   63.2113   33.5061   50.7441 H   0  0  0  0  0  0  0  0  0  0  0  0
   63.9229   32.4124   49.5096 H   0  0  0  0  0  0  0  0  0  0  0  0
   64.3408   34.1594   49.5096 H   0  0  0  0  0  0  0  0  0  0  0  0
   64.5013   32.8178   47.5333 H   0  0  0  0  0  0  0  0  0  0  0  0
   63.5846   32.1891   46.1223 H   0  0  0  0  0  0  0  0  0  0  0  0
   64.1829   33.8828   46.1223 H   0  0  0  0  0  0  0  0  0  0  0  0
   61.4594   33.6796   45.4732 H   0  0  0  0  0  0  0  0  0  0  0  0
  1  2  1  0
  2  3  1  0
  3  4  2  0
  4  5  1  0
  5  6  2  0
  6  7  1  0
  7  8  2  0
  8  9  1  0
  9 10  1  0
 10 11  1  6
 10 12  1  0
 12 13  2  0
 13 14  1  0
 14 15  2  0
 15 16  1  0
 15 17  1  0
 17 18  1  0
 17 19  2  0
  8  3  1  0
 19 12  1  0
  1 20  1  0
  1 21  1  0
  1 22  1  0
  4 23  1  0
  5 24  1  0
  6 25  1  0
  7 26  1  0
  9 27  1  0
  9 28  1  0
 11 29  1  0
 13 30  1  0
 14 31  1  0
 16 32  1  0
 16 33  1  0
 16 34  1  0
 18 35  1  0
 18 36  1  0
 18 37  1  0
 19 38  1  0
M  CHG  1  10   1
M  END
>  <UniqueID>  (18) 
18

>  <SMILES>  (18) 
COc1ccccc1C[S@+](O)c1ccc(C)c(C)c1

>  <Energy>  (18) 
31.722771349035263

>  <Genealogy>  (18) 
COc1ccccc1C[S+](O)c1ccc(C)c(C)c1 (protonated)
COc1ccccc1C[S@+](O)c1ccc(C)c(C)c1 (chirality)
COc1ccccc1C[S@+](O)c1ccc(C)c(C)c1 (3D coordinates assigned)
COc1ccccc1C[S@+](O)c1ccc(C)c(C)c1 (optimized conformer: 31.722771349035263 kcal/mol)

>  <smiles>  (18) 
COc1ccccc1C[S+]([O-])c1ccc(C)c(C)c1

>  <score_type>  (18) 
oracle

>  <origin>  (18) 
adg

>  <m_score__min__energy>  (18) 
-5.6900000000000004

>  <m_primary>  (18) 
energy

$$$$
18:0
     RDKit          3D

 42 45  0  0  0  0  0  0  0  0999 V2000
   57.7600   32.3400   41.5200 C   0  0  0  0  0  0  0  0  0  0  0  0
   57.8130   31.6290   42.7530 O   0  0  0  0  0  0  0  0  0  0  0  0
   58.0800   32.2120   44.0030 C   0  0  0  0  0  0  0  0  0  0  0  0
   58.2310   33.6060   44.1440 C   0  0  0  0  0  0  0  0  0  0  0  0
   58.4790   34.1710   45.3940 C   0  0  0  0  0  0  0  0  0  0  0  0
   58.5710   33.3600   46.5340 C   0  0  0  0  0  0  0  0  0  0  0  0
   58.8370   33.9210   47.8320 N   0  0  0  0  0  0  0  0  0  0  0  0
   59.9880   33.5940   48.6290 C   0  0  0  0  0  0  0  0  0  0  0  0
   59.9070   33.8210   50.2520 S   0  0  0  0  0  0  0  0  0  0  0  0
   61.3000   33.3080   48.0000 C   0  0  0  0  0  0  0  0  0  0  0  0
   61.7780   34.1420   46.9730 C   0  0  0  0  0  0  0  0  0  0  0  0
   63.0080   33.8800   46.3630 C   0  0  0  0  0  0  0  0  0  0  0  0
   63.7730   32.7840   46.7700 C   0  0  0  0  0  0  0  0  0  0  0  0
   63.3080   31.9490   47.7880 C   0  0  0  0  0  0  0  0  0  0  0  0
   62.0790   32.2040   48.4040 C   0  0  0  0  0  0  0  0  0  0  0  0
   61.6350   31.3550   49.3650 F   0  0  0  0  0  0  0  0  0  0  0  0
   58.4460   31.9730   46.3980 C   0  0  0  0  0  0  0  0  0  0  0  0
   58.1920   31.3860   45.1440 C   0  0  0  0  0  0  0  0  0  0  0  0
   58.0570   29.9110   45.0280 C   0  0  0  0  0  0  0  0  0  0  0  0
   58.0780   29.2270   43.8500 N   0  0  0  0  0  0  0  0  0  0  0  0
   57.9260   27.9550   44.2390 C   0  0  0  0  0  0  0  0  0  0  0  0
   57.8860   26.8530   43.4480 N   0  0  0  0  0  0  0  0  0  0  0  0
   57.7280   25.6300   44.0410 C   0  0  0  0  0  0  0  0  0  0  0  0
   57.6120   25.5210   45.4490 C   0  0  0  0  0  0  0  0  0  0  0  0
   57.6600   26.6800   46.2470 C   0  0  0  0  0  0  0  0  0  0  0  0
   57.8210   27.8920   45.5880 C   0  0  0  0  0  0  0  0  0  0  0  0
   57.9030   29.1050   46.0730 O   0  0  0  0  0  0  0  0  0  0  0  0
   57.6796   33.4184   41.7217 H   0  0  0  0  0  0  0  0  0  0  0  0
   58.6754   32.1421   40.9430 H   0  0  0  0  0  0  0  0  0  0  0  0
   56.8841   32.0086   40.9430 H   0  0  0  0  0  0  0  0  0  0  0  0
   58.1524   34.2546   43.2591 H   0  0  0  0  0  0  0  0  0  0  0  0
   58.6033   35.2600   45.4866 H   0  0  0  0  0  0  0  0  0  0  0  0
   58.1490   34.6040   48.2210 H   0  0  0  0  0  0  0  0  0  0  0  0
   61.1799   35.0060   46.6478 H   0  0  0  0  0  0  0  0  0  0  0  0
   63.3743   34.5378   45.5611 H   0  0  0  0  0  0  0  0  0  0  0  0
   64.7408   32.5791   46.2889 H   0  0  0  0  0  0  0  0  0  0  0  0
   63.9115   31.0864   48.1069 H   0  0  0  0  0  0  0  0  0  0  0  0
   58.5479   31.3309   47.2853 H   0  0  0  0  0  0  0  0  0  0  0  0
   58.2050   29.5820   42.8770 H   0  0  0  0  0  0  0  0  0  0  0  0
   57.6907   24.7234   43.4192 H   0  0  0  0  0  0  0  0  0  0  0  0
   57.4848   24.5338   45.9172 H   0  0  0  0  0  0  0  0  0  0  0  0
   57.5739   26.6280   47.3424 H   0  0  0  0  0  0  0  0  0  0  0  0
  1  2  1  0
  2  3  1  0
  3  4  2  0
  4  5  1  0
  5  6  2  0
  6  7  1  0
  7  8  1  0
  8  9  2  0
  8 10  1  0
 10 11  2  0
 11 12  1  0
 12 13  2  0
 13 14  1  0
 14 15  2  0
 15 16  1  0
  6 17  1  0
 17 18  2  0
 18 19  1  0
 19 20  2  0
 20 21  1  0
 21 22  2  0
 22 23  1  0
 23 24  2  0
 24 25  1  0
 25 26  2  0
 26 27  1  0
 18  3  1  0
 27 19  1  0
 15 10  1  0
 26 21  1  0
  1 28  1  0
  1 29  1  0
  1 30  1  0
  4 31  1  0
  5 32  1  0
  7 33  1  0
 11 34  1  0
 12 35  1  0
 13 36  1  0
 14 37  1  0
 17 38  1  0
 20 39  1  0
 23 40  1  0
 24 41  1  0
 25 42  1  0
M  CHG  1  20   1
M  END
>  <UniqueID>  (19) 
19

>  <SMILES>  (19) 
COc1ccc(NC(=S)c2ccccc2F)cc1-c1[nH+]c2ncccc2o1

>  <Energy>  (19) 
98.73412701104766

>  <Genealogy>  (19) 
COc1ccc(NC(=S)c2ccccc2F)cc1-c1[nH+]c2ncccc2o1 (protonated)
COc1ccc(NC(=S)c2ccccc2F)cc1-c1[nH+]c2ncccc2o1 (3D coordinates assigned)
COc1ccc(NC(=S)c2ccccc2F)cc1-c1[nH+]c2ncccc2o1 (optimized conformer: 98.73412701104766 kcal/mol)

>  <smiles>  (19) 
COc1ccc(NC(=S)c2ccccc2F)cc1-c1nc2ncccc2o1

>  <score_type>  (19) 
oracle

>  <origin>  (19) 
adg

>  <m_score__min__energy>  (19) 
-6.8899999999999997

>  <m_primary>  (19) 
energy

$$$$
19:0
     RDKit          3D

 38 39  0  0  0  0  0  0  0  0999 V2000
   62.4820   33.6840   46.8230 C   0  0  0  0  0  0  0  0  0  0  0  0
   61.1980   32.9810   47.1240 C   0  0  0  0  0  0  0  0  0  0  0  0
   60.0140   33.5800   46.8290 N   0  0  0  0  0  0  0  0  0  0  0  0
   58.8280   32.9700   47.0970 C   0  0  0  0  0  0  0  0  0  0  0  0
   57.6120   33.5850   46.7800 O   0  0  0  0  0  0  0  0  0  0  0  0
   57.2630   34.0130   45.4650 C   0  0  0  0  0  0  0  0  0  0  0  0
   57.4560   32.8870   44.4450 C   0  0  0  0  0  0  0  0  0  0  0  0
   56.9930   31.6100   45.0130 N   0  0  0  0  0  0  0  0  0  0  0  0
   57.2880   30.4510   44.1430 C   0  0  1  0  0  0  0  0  0  0  0  0
   58.7170   29.9830   44.3920 C   0  0  0  0  0  0  0  0  0  0  0  0
   58.6410   28.8990   45.4650 C   0  0  0  0  0  0  0  0  0  0  0  0
   57.1670   28.4950   45.5930 C   0  0  2  0  0  0  0  0  0  0  0  0
   57.0070   27.1060   45.4620 O   0  0  0  0  0  0  0  0  0  0  0  0
   56.4300   29.2200   44.4660 C   0  0  1  0  0  0  0  0  0  0  0  0
   55.1250   29.5730   44.8490 O   0  0  0  0  0  0  0  0  0  0  0  0
   58.8230   31.7090   47.6920 C   0  0  0  0  0  0  0  0  0  0  0  0
   60.0430   31.1060   47.9940 C   0  0  0  0  0  0  0  0  0  0  0  0
   60.0780   29.3770   48.8060 Br  0  0  0  0  0  0  0  0  0  0  0  0
   61.2080   31.7500   47.7070 N   0  0  0  0  0  0  0  0  0  0  0  0
   62.9802   33.9568   47.7650 H   0  0  0  0  0  0  0  0  0  0  0  0
   63.1367   33.0185   46.2412 H   0  0  0  0  0  0  0  0  0  0  0  0
   62.2741   34.5941   46.2412 H   0  0  0  0  0  0  0  0  0  0  0  0
   56.2086   34.3263   45.4579 H   0  0  0  0  0  0  0  0  0  0  0  0
   57.9192   34.8507   45.1864 H   0  0  0  0  0  0  0  0  0  0  0  0
   56.8768   33.1138   43.5378 H   0  0  0  0  0  0  0  0  0  0  0  0
   58.5239   32.8053   44.1943 H   0  0  0  0  0  0  0  0  0  0  0  0
   55.9680   31.6650   45.2190 H   0  0  0  0  0  0  0  0  0  0  0  0
   57.0970   30.7981   43.1168 H   0  0  0  0  0  0  0  0  0  0  0  0
   59.1482   29.5720   43.4673 H   0  0  0  0  0  0  0  0  0  0  0  0
   59.3566   30.8172   44.7158 H   0  0  0  0  0  0  0  0  0  0  0  0
   59.2461   28.0300   45.1672 H   0  0  0  0  0  0  0  0  0  0  0  0
   59.0305   29.2695   46.4247 H   0  0  0  0  0  0  0  0  0  0  0  0
   56.7714   28.7675   46.5826 H   0  0  0  0  0  0  0  0  0  0  0  0
   56.4320   26.9640   44.6650 H   0  0  0  0  0  0  0  0  0  0  0  0
   56.3058   28.5786   43.5811 H   0  0  0  0  0  0  0  0  0  0  0  0
   55.1840   30.4790   45.2510 H   0  0  0  0  0  0  0  0  0  0  0  0
   57.8747   31.1998   47.9187 H   0  0  0  0  0  0  0  0  0  0  0  0
   62.1170   31.2900   47.9400 H   0  0  0  0  0  0  0  0  0  0  0  0
  1  2  1  0
  2  3  2  0
  3  4  1  0
  4  5  1  0
  5  6  1  0
  6  7  1  0
  7  8  1  0
  8  9  1  0
  9 10  1  0
 10 11  1  0
 11 12  1  0
 12 13  1  0
 12 14  1  0
 14 15  1  0
  4 16  2  0
 16 17  1  0
 17 18  1  0
 17 19  2  0
 19  2  1  0
 14  9  1  0
  1 20  1  0
  1 21  1  0
  1 22  1  0
  6 23  1  0
  6 24  1  0
  7 25  1  0
  7 26  1  0
  8 27  1  0
  9 28  1  6
 10 29  1  0
 10 30  1  0
 11 31  1  0
 11 32  1  0
 12 33  1  1
 13 34  1  0
 14 35  1  6
 15 36  1  0
 16 37  1  0
 19 38  1  0
M  CHG  1  19   1
M  END
>  <UniqueID>  (20) 
20

>  <SMILES>  (20) 
Cc1nc(OCCN[C@H]2CC[C@H](O)C2O)cc(Br)[nH+]1

>  <Energy>  (20) 
36.28452983947268

>  <Genealogy>  (20) 
Cc1nc(OCCNC2CCC(O)C2O)cc(Br)[nH+]1 (protonated)
Cc1nc(OCCN[C@H]2CC[C@H](O)C2O)cc(Br)[nH+]1 (chirality)
Cc1nc(OCCN[C@H]2CC[C@H](O)C2O)cc(Br)[nH+]1 (3D coordinates assigned)
Cc1nc(OCCN[C@H]2CC[C@H](O)C2O)cc(Br)[nH+]1 (nonaromatic ring conformer: 36.28452983947268 kcal/mol)

>  <smiles>  (20) 
Cc1nc(Br)cc(OCCNC2CCC(O)C2O)n1

>  <score_type>  (20) 
oracle

>  <origin>  (20) 
adg

>  <m_score__min__energy>  (20) 
-6.0499999999999998

>  <m_primary>  (20) 
energy

$$$$
20:0
     RDKit          3D

 64 68  0  0  0  0  0  0  0  0999 V2000
   63.3080   33.8110   46.3730 C   0  0  0  0  0  0  0  0  0  0  0  0
   63.6150   32.5110   47.1130 C   0  0  0  0  0  0  0  0  0  0  0  0
   63.2410   32.6170   48.5410 N   0  0  0  0  0  0  0  0  0  0  0  0
   63.3360   31.3600   49.3230 C   0  0  0  0  0  0  0  0  0  0  0  0
   64.1770   31.4730   50.5990 C   0  0  0  0  0  0  0  0  0  0  0  0
   63.7080   33.8340   49.2470 C   0  0  0  0  0  0  0  0  0  0  0  0
   62.6060   34.5960   50.0180 C   0  0  0  0  0  0  0  0  0  0  0  0
   61.3540   34.4250   49.3770 O   0  0  0  0  0  0  0  0  0  0  0  0
   60.4030   33.8440   50.2520 C   0  0  0  0  0  0  0  0  0  0  0  0
   60.0790   32.4160   49.8140 C   0  0  0  0  0  0  0  0  0  0  0  0
   60.4830   32.2120   48.4220 N   0  0  0  0  0  0  0  0  0  0  0  0
   59.5940   31.6160   47.4630 C   0  0  0  0  0  0  0  0  0  0  0  0
   58.9410   32.4160   46.5100 C   0  0  0  0  0  0  0  0  0  0  0  0
   59.0660   33.8230   46.5220 C   0  0  0  0  0  0  0  0  0  0  0  0
   58.4170   34.6030   45.5680 C   0  0  0  0  0  0  0  0  0  0  0  0
   57.6530   33.9990   44.5760 C   0  0  0  0  0  0  0  0  0  0  0  0
   57.5430   32.6110   44.5250 C   0  0  0  0  0  0  0  0  0  0  0  0
   58.1840   31.7900   45.4860 C   0  0  0  0  0  0  0  0  0  0  0  0
   58.1200   30.4150   45.4180 N   0  0  0  0  0  0  0  0  0  0  0  0
   57.8560   29.7950   44.0990 C   0  0  0  0  0  0  0  0  0  0  0  0
   58.5180   29.6480   46.4990 C   0  0  0  0  0  0  0  0  0  0  0  0
   59.3800   30.2290   47.4650 C   0  0  0  0  0  0  0  0  0  0  0  0
   60.0210   29.4060   48.4070 C   0  0  0  0  0  0  0  0  0  0  0  0
   59.7730   28.0760   48.4430 N   0  0  0  0  0  0  0  0  0  0  0  0
   58.8570   27.4950   47.6330 C   0  0  0  0  0  0  0  0  0  0  0  0
   58.5830   26.1220   47.7860 C   0  0  0  0  0  0  0  0  0  0  0  0
   57.5450   25.5790   47.0440 C   0  0  0  0  0  0  0  0  0  0  0  0
   56.7840   26.3340   46.2170 C   0  0  0  0  0  0  0  0  0  0  0  0
   57.0210   27.6900   46.0260 C   0  0  0  0  0  0  0  0  0  0  0  0
   58.1370   28.2840   46.6790 C   0  0  0  0  0  0  0  0  0  0  0  0
   55.8040   25.5440   45.6470 O   0  0  0  0  0  0  0  0  0  0  0  0
   55.9740   24.2050   46.1320 C   0  0  0  0  0  0  0  0  0  0  0  0
   57.0920   24.2750   47.0310 O   0  0  0  0  0  0  0  0  0  0  0  0
   63.1188   34.6123   47.1025 H   0  0  0  0  0  0  0  0  0  0  0  0
   64.1661   34.0850   45.7417 H   0  0  0  0  0  0  0  0  0  0  0  0
   62.4179   33.6722   45.7417 H   0  0  0  0  0  0  0  0  0  0  0  0
   63.0461   31.6905   46.6514 H   0  0  0  0  0  0  0  0  0  0  0  0
   64.6951   32.3141   47.0456 H   0  0  0  0  0  0  0  0  0  0  0  0
   62.3185   31.0533   49.6071 H   0  0  0  0  0  0  0  0  0  0  0  0
   63.8397   30.6251   48.6779 H   0  0  0  0  0  0  0  0  0  0  0  0
   63.5224   31.3850   51.4786 H   0  0  0  0  0  0  0  0  0  0  0  0
   64.9258   30.6674   50.6172 H   0  0  0  0  0  0  0  0  0  0  0  0
   64.6866   32.4477   50.6172 H   0  0  0  0  0  0  0  0  0  0  0  0
   64.4856   33.5361   49.9658 H   0  0  0  0  0  0  0  0  0  0  0  0
   64.0765   34.5213   48.4712 H   0  0  0  0  0  0  0  0  0  0  0  0
   62.5449   34.2062   51.0448 H   0  0  0  0  0  0  0  0  0  0  0  0
   62.8563   35.6670   50.0376 H   0  0  0  0  0  0  0  0  0  0  0  0
   60.8130   33.8259   51.2726 H   0  0  0  0  0  0  0  0  0  0  0  0
   59.4809   34.4433   50.2258 H   0  0  0  0  0  0  0  0  0  0  0  0
   60.6201   31.7066   50.4574 H   0  0  0  0  0  0  0  0  0  0  0  0
   58.9952   32.2500   49.9019 H   0  0  0  0  0  0  0  0  0  0  0  0
   61.4020   32.5740   48.0820 H   0  0  0  0  0  0  0  0  0  0  0  0
   59.6826   34.3078   47.2932 H   0  0  0  0  0  0  0  0  0  0  0  0
   58.5091   35.6987   45.5995 H   0  0  0  0  0  0  0  0  0  0  0  0
   57.1341   34.6184   43.8296 H   0  0  0  0  0  0  0  0  0  0  0  0
   56.9487   32.1446   43.7255 H   0  0  0  0  0  0  0  0  0  0  0  0
   57.4288   28.7918   44.2443 H   0  0  0  0  0  0  0  0  0  0  0  0
   57.1452   30.4182   43.5366 H   0  0  0  0  0  0  0  0  0  0  0  0
   58.7979   29.7145   43.5366 H   0  0  0  0  0  0  0  0  0  0  0  0
   60.7311   29.8472   49.1219 H   0  0  0  0  0  0  0  0  0  0  0  0
   59.1745   25.4993   48.4733 H   0  0  0  0  0  0  0  0  0  0  0  0
   56.3602   28.2910   45.3840 H   0  0  0  0  0  0  0  0  0  0  0  0
   55.0713   23.8685   46.6629 H   0  0  0  0  0  0  0  0  0  0  0  0
   56.1444   23.4880   45.3154 H   0  0  0  0  0  0  0  0  0  0  0  0
  1  2  1  0
  2  3  1  0
  3  4  1  0
  4  5  1  0
  3  6  1  0
  6  7  1  0
  7  8  1  0
  8  9  1  0
  9 10  1  0
 10 11  1  0
 11 12  1  0
 12 13  2  0
 13 14  1  0
 14 15  2  0
 15 16  1  0
 16 17  2  0
 17 18  1  0
 18 19  2  0
 19 20  1  0
 19 21  1  0
 21 22  2  0
 22 23  1  0
 23 24  2  0
 24 25  1  0
 25 26  2  0
 26 27  1  0
 27 28  2  0
 28 29  1  0
 29 30  2  0
 28 31  1  0
 31 32  1  0
 32 33  1  0
 22 12  1  0
 30 25  1  0
 18 13  1  0
 30 21  1  0
 33 27  1  0
  1 34  1  0
  1 35  1  0
  1 36  1  0
  2 37  1  0
  2 38  1  0
  4 39  1  0
  4 40  1  0
  5 41  1  0
  5 42  1  0
  5 43  1  0
  6 44  1  0
  6 45  1  0
  7 46  1  0
  7 47  1  0
  9 48  1  0
  9 49  1  0
 10 50  1  0
 10 51  1  0
 11 52  1  0
 14 53  1  0
 15 54  1  0
 16 55  1  0
 17 56  1  0
 20 57  1  0
 20 58  1  0
 20 59  1  0
 23 60  1  0
 26 61  1  0
 29 62  1  0
 32 63  1  0
 32 64  1  0
M  CHG  1  19   1
M  END
>  <UniqueID>  (21) 
21

>  <SMILES>  (21) 
CCN(CC)CCOCCNc1c2ccccc2[n+](C)c2c1cnc1cc3c(cc12)OCO3

>  <Energy>  (21) 
145.63565121694717

>  <Genealogy>  (21) 
CCN(CC)CCOCCNc1c2ccccc2[n+](C)c2c1cnc1cc3c(cc12)OCO3 (3D coordinates assigned)
CCN(CC)CCOCCNc1c2ccccc2[n+](C)c2c1cnc1cc3c(cc12)OCO3 (nonaromatic ring conformer: 145.63565121694717 kcal/mol)

>  <smiles>  (21) 
CCN(CC)CCOCCNc1c2ccccc2[n+](C)c2c1cnc1cc3c(cc12)OCO3

>  <score_type>  (21) 
oracle

>  <origin>  (21) 
adg

>  <m_score__min__energy>  (21) 
-6.79

>  <m_primary>  (21) 
energy

$$$$
21:0
     RDKit          3D

 34 35  0  0  0  0  0  0  0  0999 V2000
   56.6090   29.3540   42.6250 C   0  0  0  0  0  0  0  0  0  0  0  0
   55.4990   29.7220   43.6030 C   0  0  0  0  0  0  0  0  0  0  0  0
   55.9760   29.6800   44.9470 O   0  0  0  0  0  0  0  0  0  0  0  0
   57.2270   29.1870   45.3630 C   0  0  0  0  0  0  0  0  0  0  0  0
   57.3970   27.8700   45.8370 C   0  0  0  0  0  0  0  0  0  0  0  0
   58.6590   27.4150   46.2250 C   0  0  0  0  0  0  0  0  0  0  0  0
   59.7660   28.2600   46.1380 C   0  0  0  0  0  0  0  0  0  0  0  0
   59.6150   29.5650   45.6680 C   0  0  0  0  0  0  0  0  0  0  0  0
   58.3490   30.0420   45.2890 C   0  0  0  0  0  0  0  0  0  0  0  0
   58.2050   31.4460   44.7610 C   0  0  0  0  0  0  0  0  0  0  0  0
   56.9470   32.0270   45.2410 N   0  0  0  0  0  0  0  0  0  0  0  0
   57.0600   33.4870   45.3310 C   0  0  0  0  0  0  0  0  0  0  0  0
   58.1990   33.8460   46.2310 C   0  0  0  0  0  0  0  0  0  0  0  0
   58.3720   33.4110   47.5390 C   0  0  0  0  0  0  0  0  0  0  0  0
   59.5760   33.8420   48.1070 C   0  0  0  0  0  0  0  0  0  0  0  0
   60.3580   34.6010   47.2450 C   0  0  0  0  0  0  0  0  0  0  0  0
   59.5530   34.7330   45.7750 S   0  0  0  0  0  0  0  0  0  0  0  0
   57.5075   29.0561   43.1853 H   0  0  0  0  0  0  0  0  0  0  0  0
   56.2776   28.5177   41.9920 H   0  0  0  0  0  0  0  0  0  0  0  0
   56.8429   30.2227   41.9920 H   0  0  0  0  0  0  0  0  0  0  0  0
   55.1420   30.7379   43.3782 H   0  0  0  0  0  0  0  0  0  0  0  0
   54.6790   28.9966   43.4962 H   0  0  0  0  0  0  0  0  0  0  0  0
   56.5298   27.1964   45.9016 H   0  0  0  0  0  0  0  0  0  0  0  0
   58.7807   26.3881   46.6001 H   0  0  0  0  0  0  0  0  0  0  0  0
   60.7593   27.8967   46.4404 H   0  0  0  0  0  0  0  0  0  0  0  0
   60.4924   30.2243   45.5937 H   0  0  0  0  0  0  0  0  0  0  0  0
   59.0485   32.0577   45.1136 H   0  0  0  0  0  0  0  0  0  0  0  0
   58.2000   31.4233   43.6612 H   0  0  0  0  0  0  0  0  0  0  0  0
   56.2030   31.8060   44.5370 H   0  0  0  0  0  0  0  0  0  0  0  0
   57.2399   33.9030   44.3287 H   0  0  0  0  0  0  0  0  0  0  0  0
   56.1265   33.9018   45.7390 H   0  0  0  0  0  0  0  0  0  0  0  0
   57.6374   32.7909   48.0737 H   0  0  0  0  0  0  0  0  0  0  0  0
   59.8750   33.6026   49.1382 H   0  0  0  0  0  0  0  0  0  0  0  0
   61.3375   35.0408   47.4839 H   0  0  0  0  0  0  0  0  0  0  0  0
  1  2  1  0
  2  3  1  0
  3  4  1  0
  4  5  2  0
  5  6  1  0
  6  7  2  0
  7  8  1  0
  8  9  2  0
  9 10  1  0
 10 11  1  0
 11 12  1  0
 12 13  1  0
 13 14  2  0
 14 15  1  0
 15 16  2  0
 16 17  1  0
  9  4  1  0
 17 13  1  0
  1 18  1  0
  1 19  1  0
  1 20  1  0
  2 21  1  0
  2 22  1  0
  5 23  1  0
  6 24  1  0
  7 25  1  0
  8 26  1  0
 10 27  1  0
 10 28  1  0
 11 29  1  0
 12 30  1  0
 12 31  1  0
 14 32  1  0
 15 33  1  0
 16 34  1  0
M  END
>  <UniqueID>  (22) 
22

>  <SMILES>  (22) 
CCOc1ccccc1CNCc1cccs1

>  <Energy>  (22) 
54.97124814129325

>  <Genealogy>  (22) 
CCOc1ccccc1CNCc1cccs1 (3D coordinates assigned)
CCOc1ccccc1CNCc1cccs1 (optimized conformer: 54.97124814129325 kcal/mol)

>  <smiles>  (22) 
CCOc1ccccc1CNCc1cccs1

>  <score_type>  (22) 
oracle

>  <origin>  (22) 
adg

>  <m_score__min__energy>  (22) 
-6.5199999999999996

>  <m_primary>  (22) 
energy

$$$$
22:0
     RDKit          3D

 51 52  0  0  0  0  0  0  0  0999 V2000
   63.3910   33.9230   46.3660 C   0  0  0  0  0  0  0  0  0  0  0  0
   63.7170   32.7940   47.3390 C   0  0  0  0  0  0  0  0  0  0  0  0
   62.6590   32.6830   48.3710 N   0  0  0  0  0  0  0  0  0  0  0  0
   62.7910   31.4160   49.1130 C   0  0  0  0  0  0  0  0  0  0  0  0
   62.6930   33.8290   49.3060 C   0  0  0  0  0  0  0  0  0  0  0  0
   61.2640   34.1920   49.7520 C   0  0  0  0  0  0  0  0  0  0  0  0
   60.2500   33.2940   49.1720 N   0  0  0  0  0  0  0  0  0  0  0  0
   59.3130   34.0070   48.2710 C   0  0  0  0  0  0  0  0  0  0  0  0
   59.3300   33.4990   46.7950 C   0  0  2  0  0  0  0  0  0  0  0  0
   60.2140   32.4040   46.7010 O   0  0  0  0  0  0  0  0  0  0  0  0
   59.7510   34.5860   45.7920 C   0  0  0  0  0  0  0  0  0  0  0  0
   58.5510   34.7790   44.8790 C   0  0  0  0  0  0  0  0  0  0  0  0
   57.7390   33.5570   44.9410 N   0  0  0  0  0  0  0  0  0  0  0  0
   58.1620   32.5850   43.9080 C   0  0  0  0  0  0  0  0  0  0  0  0
   57.7390   31.1900   44.2890 C   0  0  0  0  0  0  0  0  0  0  0  0
   58.6840   30.2870   44.8040 C   0  0  0  0  0  0  0  0  0  0  0  0
   58.2990   28.9870   45.1510 C   0  0  0  0  0  0  0  0  0  0  0  0
   56.9720   28.5820   44.9850 C   0  0  0  0  0  0  0  0  0  0  0  0
   56.0270   29.4740   44.4720 C   0  0  0  0  0  0  0  0  0  0  0  0
   56.4070   30.7750   44.1250 C   0  0  0  0  0  0  0  0  0  0  0  0
   57.9460   33.0320   46.3010 C   0  0  0  0  0  0  0  0  0  0  0  0
   63.1292   34.8298   46.9310 H   0  0  0  0  0  0  0  0  0  0  0  0
   64.2673   34.1258   45.7328 H   0  0  0  0  0  0  0  0  0  0  0  0
   62.5415   33.6275   45.7328 H   0  0  0  0  0  0  0  0  0  0  0  0
   63.7847   31.8459   46.7853 H   0  0  0  0  0  0  0  0  0  0  0  0
   64.6761   33.0119   47.8317 H   0  0  0  0  0  0  0  0  0  0  0  0
   62.7697   31.6201   50.1937 H   0  0  0  0  0  0  0  0  0  0  0  0
   61.9576   30.7482   48.8495 H   0  0  0  0  0  0  0  0  0  0  0  0
   63.7442   30.9343   48.8495 H   0  0  0  0  0  0  0  0  0  0  0  0
   63.2923   33.5606   50.1885 H   0  0  0  0  0  0  0  0  0  0  0  0
   63.1419   34.6949   48.7974 H   0  0  0  0  0  0  0  0  0  0  0  0
   61.2086   34.1261   50.8486 H   0  0  0  0  0  0  0  0  0  0  0  0
   61.0509   35.2116   49.3985 H   0  0  0  0  0  0  0  0  0  0  0  0
   59.7340   32.8510   49.9640 H   0  0  0  0  0  0  0  0  0  0  0  0
   60.7420   32.5350   48.6460 H   0  0  0  0  0  0  0  0  0  0  0  0
   58.2939   33.8836   48.6662 H   0  0  0  0  0  0  0  0  0  0  0  0
   59.6374   35.0578   48.2465 H   0  0  0  0  0  0  0  0  0  0  0  0
   61.1380   32.7470   46.8310 H   0  0  0  0  0  0  0  0  0  0  0  0
   59.9897   35.5226   46.3171 H   0  0  0  0  0  0  0  0  0  0  0  0
   60.6510   34.2971   45.2293 H   0  0  0  0  0  0  0  0  0  0  0  0
   57.9572   35.6405   45.2184 H   0  0  0  0  0  0  0  0  0  0  0  0
   58.8801   34.9698   43.8469 H   0  0  0  0  0  0  0  0  0  0  0  0
   57.6987   32.8537   42.9472 H   0  0  0  0  0  0  0  0  0  0  0  0
   59.2583   32.6126   43.8222 H   0  0  0  0  0  0  0  0  0  0  0  0
   59.7296   30.6027   44.9349 H   0  0  0  0  0  0  0  0  0  0  0  0
   59.0418   28.2833   45.5548 H   0  0  0  0  0  0  0  0  0  0  0  0
   56.6711   27.5599   45.2585 H   0  0  0  0  0  0  0  0  0  0  0  0
   54.9831   29.1531   44.3408 H   0  0  0  0  0  0  0  0  0  0  0  0
   55.6603   31.4752   43.7224 H   0  0  0  0  0  0  0  0  0  0  0  0
   57.1628   33.4161   46.9711 H   0  0  0  0  0  0  0  0  0  0  0  0
   57.8970   31.9331   46.2945 H   0  0  0  0  0  0  0  0  0  0  0  0
  1  2  1  0
  2  3  1  0
  3  4  1  0
  3  5  1  0
  5  6  1  0
  6  7  1  0
  7  8  1  0
  8  9  1  0
  9 10  1  1
  9 11  1  0
 11 12  1  0
 12 13  1  0
 13 14  1  0
 14 15  1  0
 15 16  2  0
 16 17  1  0
 17 18  2  0
 18 19  1  0
 19 20  2  0
 13 21  1  0
 21  9  1  0
 20 15  1  0
  1 22  1  0
  1 23  1  0
  1 24  1  0
  2 25  1  0
  2 26  1  0
  4 27  1  0
  4 28  1  0
  4 29  1  0
  5 30  1  0
  5 31  1  0
  6 32  1  0
  6 33  1  0
  7 34  1  0
  7 35  1  0
  8 36  1  0
  8 37  1  0
 10 38  1  0
 11 39  1  0
 11 40  1  0
 12 41  1  0
 12 42  1  0
 14 43  1  0
 14 44  1  0
 16 45  1  0
 17 46  1  0
 18 47  1  0
 19 48  1  0
 20 49  1  0
 21 50  1  0
 21 51  1  0
M  CHG  1   7   1
M  END
>  <UniqueID>  (23) 
23

>  <SMILES>  (23) 
CCN(C)CC[NH2+]C[C@]1(O)CCN(Cc2ccccc2)C1

>  <Energy>  (23) 
56.67474044109177

>  <Genealogy>  (23) 
CCN(C)CC[NH2+]CC1(O)CCN(Cc2ccccc2)C1 (protonated)
CCN(C)CC[NH2+]C[C@]1(O)CCN(Cc2ccccc2)C1 (chirality)
CCN(C)CC[NH2+]C[C@]1(O)CCN(Cc2ccccc2)C1 (3D coordinates assigned)
CCN(C)CC[NH2+]C[C@]1(O)CCN(Cc2ccccc2)C1 (nonaromatic ring conformer: 56.67474044109177 kcal/mol)

>  <smiles>  (23) 
CCN(C)CCNCC1(O)CCN(Cc2ccccc2)C1

>  <score_type>  (23) 
oracle

>  <origin>  (23) 
adg

>  <m_score__min__energy>  (23) 
-5.5800000000000001

>  <m_primary>  (23) 
energy

$$$$
23:0
     RDKit          3D

 54 56  0  0  0  0  0  0  0  0999 V2000
   56.9140   27.1450   45.6240 C   0  0  0  0  0  0  0  0  0  0  0  0
   57.1700   28.5000   45.0350 C   0  0  0  0  0  0  0  0  0  0  0  0
   56.0960   29.3380   44.7020 C   0  0  0  0  0  0  0  0  0  0  0  0
   56.3300   30.5860   44.1170 C   0  0  0  0  0  0  0  0  0  0  0  0
   57.6430   31.0120   43.8590 C   0  0  0  0  0  0  0  0  0  0  0  0
   57.8960   32.3320   43.1890 C   0  0  0  0  0  0  0  0  0  0  0  0
   57.5510   33.3680   44.0850 O   0  0  0  0  0  0  0  0  0  0  0  0
   58.4320   33.3870   45.1950 C   0  0  0  0  0  0  0  0  0  0  0  0
   59.2230   34.7160   45.2250 C   0  0  0  0  0  0  0  0  0  0  0  0
   59.6210   35.1420   46.6500 C   0  0  0  0  0  0  0  0  0  0  0  0
   59.7790   33.9560   47.5090 N   0  0  0  0  0  0  0  0  0  0  0  0
   60.5140   34.2230   48.7650 C   0  0  0  0  0  0  0  0  0  0  0  0
   62.0560   34.1410   48.6270 C   0  0  0  0  0  0  0  0  0  0  0  0
   62.4670   33.6100   47.3160 N   0  0  0  0  0  0  0  0  0  0  0  0
   62.9170   32.2120   47.3890 C   0  0  0  0  0  0  0  0  0  0  0  0
   61.7690   31.3070   47.7490 C   0  0  0  0  0  0  0  0  0  0  0  0
   61.6220   30.8350   49.0610 C   0  0  0  0  0  0  0  0  0  0  0  0
   60.5450   30.0100   49.3900 C   0  0  0  0  0  0  0  0  0  0  0  0
   59.6200   29.6670   48.4020 C   0  0  0  0  0  0  0  0  0  0  0  0
   59.7710   30.1360   47.1350 N   0  0  0  0  0  0  0  0  0  0  0  0
   60.8120   30.9410   46.7900 C   0  0  0  0  0  0  0  0  0  0  0  0
   58.5010   33.2420   47.7340 C   0  0  0  0  0  0  0  0  0  0  0  0
   57.6040   33.2290   46.4770 C   0  0  0  0  0  0  0  0  0  0  0  0
   58.7160   30.1570   44.1590 C   0  0  0  0  0  0  0  0  0  0  0  0
   58.4800   28.9090   44.7440 C   0  0  0  0  0  0  0  0  0  0  0  0
   56.9270   27.2140   46.7218 H   0  0  0  0  0  0  0  0  0  0  0  0
   55.9311   26.7803   45.2912 H   0  0  0  0  0  0  0  0  0  0  0  0
   57.6961   26.4468   45.2912 H   0  0  0  0  0  0  0  0  0  0  0  0
   55.0647   29.0119   44.9020 H   0  0  0  0  0  0  0  0  0  0  0  0
   55.4821   31.2370   43.8577 H   0  0  0  0  0  0  0  0  0  0  0  0
   58.9598   32.4133   42.9211 H   0  0  0  0  0  0  0  0  0  0  0  0
   57.2901   32.4103   42.2743 H   0  0  0  0  0  0  0  0  0  0  0  0
   59.1545   32.5614   45.1152 H   0  0  0  0  0  0  0  0  0  0  0  0
   60.1377   34.5940   44.6264 H   0  0  0  0  0  0  0  0  0  0  0  0
   58.5687   35.4999   44.8158 H   0  0  0  0  0  0  0  0  0  0  0  0
   60.5723   35.6929   46.6124 H   0  0  0  0  0  0  0  0  0  0  0  0
   58.8315   35.7848   47.0666 H   0  0  0  0  0  0  0  0  0  0  0  0
   60.2516   35.2339   49.1104 H   0  0  0  0  0  0  0  0  0  0  0  0
   60.2177   33.4395   49.4780 H   0  0  0  0  0  0  0  0  0  0  0  0
   62.4773   35.1498   48.7491 H   0  0  0  0  0  0  0  0  0  0  0  0
   62.4298   33.4561   49.4024 H   0  0  0  0  0  0  0  0  0  0  0  0
   61.6660   33.6750   46.6450 H   0  0  0  0  0  0  0  0  0  0  0  0
   63.3228   31.9108   46.4120 H   0  0  0  0  0  0  0  0  0  0  0  0
   63.6930   32.1279   48.1640 H   0  0  0  0  0  0  0  0  0  0  0  0
   62.3556   31.1149   49.8314 H   0  0  0  0  0  0  0  0  0  0  0  0
   60.4263   29.6341   50.4169 H   0  0  0  0  0  0  0  0  0  0  0  0
   58.7681   29.0165   48.6491 H   0  0  0  0  0  0  0  0  0  0  0  0
   60.9039   31.3061   45.7564 H   0  0  0  0  0  0  0  0  0  0  0  0
   58.7225   32.2033   48.0206 H   0  0  0  0  0  0  0  0  0  0  0  0
   57.9563   33.7724   48.5290 H   0  0  0  0  0  0  0  0  0  0  0  0
   57.0598   32.2739   46.4358 H   0  0  0  0  0  0  0  0  0  0  0  0
   56.9043   34.0752   46.5430 H   0  0  0  0  0  0  0  0  0  0  0  0
   59.7459   30.4702   43.9329 H   0  0  0  0  0  0  0  0  0  0  0  0
   59.3254   28.2449   44.9771 H   0  0  0  0  0  0  0  0  0  0  0  0
  1  2  1  0
  2  3  2  0
  3  4  1  0
  4  5  2  0
  5  6  1  0
  6  7  1  0
  7  8  1  0
  8  9  1  0
  9 10  1  0
 10 11  1  0
 11 12  1  0
 12 13  1  0
 13 14  1  0
 14 15  1  0
 15 16  1  0
 16 17  2  0
 17 18  1  0
 18 19  2  0
 19 20  1  0
 20 21  2  0
 11 22  1  0
 22 23  1  0
  5 24  1  0
 24 25  2  0
 25  2  1  0
 23  8  1  0
 21 16  1  0
  1 26  1  0
  1 27  1  0
  1 28  1  0
  3 29  1  0
  4 30  1  0
  6 31  1  0
  6 32  1  0
  8 33  1  0
  9 34  1  0
  9 35  1  0
 10 36  1  0
 10 37  1  0
 12 38  1  0
 12 39  1  0
 13 40  1  0
 13 41  1  0
 14 42  1  0
 15 43  1  0
 15 44  1  0
 17 45  1  0
 18 46  1  0
 19 47  1  0
 21 48  1  0
 22 49  1  0
 22 50  1  0
 23 51  1  0
 23 52  1  0
 24 53  1  0
 25 54  1  0
M  END
>  <UniqueID>  (24) 
24

>  <SMILES>  (24) 
Cc1ccc(COC2CCN(CCNCc3cccnc3)CC2)cc1

>  <Energy>  (24) 
64.26736653303618

>  <Genealogy>  (24) 
Cc1ccc(COC2CCN(CCNCc3cccnc3)CC2)cc1 (3D coordinates assigned)
Cc1ccc(COC2CCN(CCNCc3cccnc3)CC2)cc1 (nonaromatic ring conformer: 64.26736653303618 kcal/mol)

>  <smiles>  (24) 
Cc1ccc(COC2CCN(CCNCc3cccnc3)CC2)cc1

>  <score_type>  (24) 
oracle

>  <origin>  (24) 
adg

>  <m_score__min__energy>  (24) 
-9.3100000000000005

>  <m_primary>  (24) 
energy

$$$$
24:0
     RDKit          3D

 59 62  0  0  0  0  0  0  0  0999 V2000
   63.4350   30.5090   50.8590 C   0  0  0  0  0  0  0  0  0  0  0  0
   62.5290   31.7590   50.8730 C   0  0  0  0  0  0  0  0  0  0  0  0
   62.7420   32.7240   49.7360 N   0  0  0  0  0  0  0  0  0  0  0  0
   62.9250   31.9390   48.4670 C   0  0  0  0  0  0  0  0  0  0  0  0
   63.0230   32.7440   47.1630 C   0  0  0  0  0  0  0  0  0  0  0  0
   63.9000   33.6660   49.9680 C   0  0  0  0  0  0  0  0  0  0  0  0
   65.3220   33.0900   49.7930 C   0  0  0  0  0  0  0  0  0  0  0  0
   61.4750   33.5270   49.5780 C   0  0  0  0  0  0  0  0  0  0  0  0
   60.1320   32.8030   49.9040 C   0  0  0  0  0  0  0  0  0  0  0  0
   59.6870   31.9270   48.8070 N   0  0  0  0  0  0  0  0  0  0  0  0
   59.7440   30.5730   48.7390 C   0  0  0  0  0  0  0  0  0  0  0  0
   60.2500   29.6900   49.7050 C   0  0  0  0  0  0  0  0  0  0  0  0
   60.2920   28.3100   49.4110 C   0  0  0  0  0  0  0  0  0  0  0  0
   60.7570   27.3610   50.3330 O   0  0  0  0  0  0  0  0  0  0  0  0
   61.2450   27.6750   51.6330 C   0  0  0  0  0  0  0  0  0  0  0  0
   59.8670   27.8580   48.1480 C   0  0  0  0  0  0  0  0  0  0  0  0
   59.3870   28.7520   47.1810 C   0  0  0  0  0  0  0  0  0  0  0  0
   59.2950   30.1110   47.5110 C   0  0  0  0  0  0  0  0  0  0  0  0
   58.9310   31.2390   46.7730 C   0  0  0  0  0  0  0  0  0  0  0  0
   58.4030   31.4360   45.4730 C   0  0  0  0  0  0  0  0  0  0  0  0
   57.8940   30.3990   44.6670 C   0  0  0  0  0  0  0  0  0  0  0  0
   57.4130   30.6690   43.3850 C   0  0  0  0  0  0  0  0  0  0  0  0
   57.4040   31.9740   42.8930 C   0  0  0  0  0  0  0  0  0  0  0  0
   57.8480   33.0260   43.6940 C   0  0  0  0  0  0  0  0  0  0  0  0
   58.3300   32.7760   44.9880 C   0  0  0  0  0  0  0  0  0  0  0  0
   58.7200   33.8550   45.8080 C   0  0  0  0  0  0  0  0  0  0  0  0
   59.1610   33.6350   47.1160 C   0  0  0  0  0  0  0  0  0  0  0  0
   59.2410   32.3210   47.5870 C   0  0  0  0  0  0  0  0  0  0  0  0
   63.6557   30.2045   51.8927 H   0  0  0  0  0  0  0  0  0  0  0  0
   62.9202   29.6888   50.3372 H   0  0  0  0  0  0  0  0  0  0  0  0
   64.3746   30.7430   50.3372 H   0  0  0  0  0  0  0  0  0  0  0  0
   61.4830   31.4204   50.8393 H   0  0  0  0  0  0  0  0  0  0  0  0
   62.7861   32.3095   51.7900 H   0  0  0  0  0  0  0  0  0  0  0  0
   63.8515   31.3547   48.5678 H   0  0  0  0  0  0  0  0  0  0  0  0
   62.0095   31.3377   48.3659 H   0  0  0  0  0  0  0  0  0  0  0  0
   63.1528   33.8104   47.3993 H   0  0  0  0  0  0  0  0  0  0  0  0
   63.8847   32.3906   46.5778 H   0  0  0  0  0  0  0  0  0  0  0  0
   62.1016   32.6076   46.5778 H   0  0  0  0  0  0  0  0  0  0  0  0
   63.7925   34.5031   49.2625 H   0  0  0  0  0  0  0  0  0  0  0  0
   63.8337   33.9417   51.0308 H   0  0  0  0  0  0  0  0  0  0  0  0
   65.7686   32.9091   50.7819 H   0  0  0  0  0  0  0  0  0  0  0  0
   65.2680   32.1428   49.2362 H   0  0  0  0  0  0  0  0  0  0  0  0
   65.9424   33.8077   49.2362 H   0  0  0  0  0  0  0  0  0  0  0  0
   61.5508   34.4005   50.2423 H   0  0  0  0  0  0  0  0  0  0  0  0
   61.4188   33.7636   48.5052 H   0  0  0  0  0  0  0  0  0  0  0  0
   60.2697   32.1936   50.8093 H   0  0  0  0  0  0  0  0  0  0  0  0
   59.3618   33.5744   50.0514 H   0  0  0  0  0  0  0  0  0  0  0  0
   60.6078   30.0666   50.6746 H   0  0  0  0  0  0  0  0  0  0  0  0
   60.5743   27.2434   52.3906 H   0  0  0  0  0  0  0  0  0  0  0  0
   62.2549   27.2568   51.7565 H   0  0  0  0  0  0  0  0  0  0  0  0
   61.2829   28.7674   51.7565 H   0  0  0  0  0  0  0  0  0  0  0  0
   59.9123   26.7838   47.9154 H   0  0  0  0  0  0  0  0  0  0  0  0
   59.0889   28.3946   46.1843 H   0  0  0  0  0  0  0  0  0  0  0  0
   57.8755   29.3684   45.0510 H   0  0  0  0  0  0  0  0  0  0  0  0
   57.0382   29.8465   42.7580 H   0  0  0  0  0  0  0  0  0  0  0  0
   57.0464   32.1738   41.8721 H   0  0  0  0  0  0  0  0  0  0  0  0
   57.8202   34.0563   43.3096 H   0  0  0  0  0  0  0  0  0  0  0  0
   58.6767   34.8811   45.4139 H   0  0  0  0  0  0  0  0  0  0  0  0
   59.4399   34.4799   47.7628 H   0  0  0  0  0  0  0  0  0  0  0  0
  1  2  1  0
  2  3  1  0
  3  4  1  0
  4  5  1  0
  3  6  1  0
  6  7  1  0
  3  8  1  0
  8  9  1  0
  9 10  1  0
 10 11  1  0
 11 12  2  0
 12 13  1  0
 13 14  1  0
 14 15  1  0
 13 16  2  0
 16 17  1  0
 17 18  2  0
 18 19  1  0
 19 20  2  0
 20 21  1  0
 21 22  2  0
 22 23  1  0
 23 24  2  0
 24 25  1  0
 25 26  2  0
 26 27  1  0
 27 28  2  0
 28 10  1  0
 18 11  1  0
 28 19  1  0
 25 20  1  0
  1 29  1  0
  1 30  1  0
  1 31  1  0
  2 32  1  0
  2 33  1  0
  4 34  1  0
  4 35  1  0
  5 36  1  0
  5 37  1  0
  5 38  1  0
  6 39  1  0
  6 40  1  0
  7 41  1  0
  7 42  1  0
  7 43  1  0
  8 44  1  0
  8 45  1  0
  9 46  1  0
  9 47  1  0
 12 48  1  0
 15 49  1  0
 15 50  1  0
 15 51  1  0
 16 52  1  0
 17 53  1  0
 21 54  1  0
 22 55  1  0
 23 56  1  0
 24 57  1  0
 26 58  1  0
 27 59  1  0
M  CHG  1   3   1
M  END
>  <UniqueID>  (25) 
25

>  <SMILES>  (25) 
CC[N+](CC)(CC)CCn1c2cc(OC)ccc2c2c3ccccc3ccc21

>  <Energy>  (25) 
135.65815329525373

>  <Genealogy>  (25) 
CC[N+](CC)(CC)CCn1c2cc(OC)ccc2c2c3ccccc3ccc21 (3D coordinates assigned)
CC[N+](CC)(CC)CCn1c2cc(OC)ccc2c2c3ccccc3ccc21 (optimized conformer: 135.65815329525373 kcal/mol)

>  <smiles>  (25) 
CC[N+](CC)(CC)CCn1c2cc(OC)ccc2c2c3ccccc3ccc21

>  <score_type>  (25) 
oracle

>  <origin>  (25) 
adg

>  <m_score__min__energy>  (25) 
-6.2300000000000004

>  <m_primary>  (25) 
energy

$$$$
25:0
     RDKit          3D

 58 61  0  0  0  0  0  0  0  0999 V2000
   59.4100   35.0980   45.4020 C   0  0  0  0  0  0  0  0  0  0  0  0
   59.6660   35.1530   46.9050 C   0  0  0  0  0  0  0  0  0  0  0  0
   60.3890   33.9370   47.3520 N   0  0  0  0  0  0  0  0  0  0  0  0
   61.6130   33.7530   46.5260 C   0  0  0  0  0  0  0  0  0  0  0  0
   62.7620   33.1680   47.3450 C   0  0  0  0  0  0  0  0  0  0  0  0
   60.7640   34.0320   48.7830 C   0  0  0  0  0  0  0  0  0  0  0  0
   60.0730   32.9780   49.6830 C   0  0  0  0  0  0  0  0  0  0  0  0
   58.8380   32.3850   49.1260 N   0  0  0  0  0  0  0  0  0  0  0  0
   59.0600   31.1460   48.4080 C   0  0  0  0  0  0  0  0  0  0  0  0
   58.6780   30.9200   47.0630 C   0  0  0  0  0  0  0  0  0  0  0  0
   57.9320   31.8190   46.1470 C   0  0  0  0  0  0  0  0  0  0  0  0
   57.6860   33.0050   46.4880 O   0  0  0  0  0  0  0  0  0  0  0  0
   57.5030   31.3710   44.8040 C   0  0  0  0  0  0  0  0  0  0  0  0
   57.8180   32.1440   43.6720 C   0  0  0  0  0  0  0  0  0  0  0  0
   57.4010   31.7390   42.4010 C   0  0  0  0  0  0  0  0  0  0  0  0
   56.6540   30.5670   42.2490 C   0  0  0  0  0  0  0  0  0  0  0  0
   56.3200   29.8010   43.3690 C   0  0  0  0  0  0  0  0  0  0  0  0
   56.7370   30.2020   44.6420 C   0  0  0  0  0  0  0  0  0  0  0  0
   59.1800   29.3660   46.6170 S   0  0  0  0  0  0  0  0  0  0  0  0
   59.8060   28.9450   48.1060 C   0  0  0  0  0  0  0  0  0  0  0  0
   60.3650   27.7270   48.4750 C   0  0  0  0  0  0  0  0  0  0  0  0
   60.7560   27.5480   49.8080 C   0  0  0  0  0  0  0  0  0  0  0  0
   61.2930   26.3890   50.1760 O   0  0  0  0  0  0  0  0  0  0  0  0
   61.6730   26.1390   51.4230 C   0  0  0  0  0  0  0  0  0  0  0  0
   62.1750   25.0210   51.7060 O   0  0  0  0  0  0  0  0  0  0  0  0
   61.5180   27.1050   52.4190 C   0  0  0  0  0  0  0  0  0  0  0  0
   60.9590   28.3490   52.0970 C   0  0  0  0  0  0  0  0  0  0  0  0
   60.7980   29.3850   53.1780 C   0  0  0  0  0  0  0  0  0  0  0  0
   60.5650   28.5900   50.7610 C   0  0  0  0  0  0  0  0  0  0  0  0
   59.9860   29.8130   50.3470 C   0  0  0  0  0  0  0  0  0  0  0  0
   59.6400   29.9940   48.9980 C   0  0  0  0  0  0  0  0  0  0  0  0
   58.3496   34.8702   45.2188 H   0  0  0  0  0  0  0  0  0  0  0  0
   59.6593   36.0702   44.9518 H   0  0  0  0  0  0  0  0  0  0  0  0
   60.0366   34.3140   44.9518 H   0  0  0  0  0  0  0  0  0  0  0  0
   60.2724   36.0409   47.1370 H   0  0  0  0  0  0  0  0  0  0  0  0
   58.7005   35.2067   47.4294 H   0  0  0  0  0  0  0  0  0  0  0  0
   61.3833   33.0701   45.6948 H   0  0  0  0  0  0  0  0  0  0  0  0
   61.9255   34.7384   46.1502 H   0  0  0  0  0  0  0  0  0  0  0  0
   62.5423   33.2799   48.4170 H   0  0  0  0  0  0  0  0  0  0  0  0
   62.8781   32.1010   47.1039 H   0  0  0  0  0  0  0  0  0  0  0  0
   63.6931   33.7018   47.1039 H   0  0  0  0  0  0  0  0  0  0  0  0
   61.8527   33.8980   48.8656 H   0  0  0  0  0  0  0  0  0  0  0  0
   60.4327   35.0200   49.1355 H   0  0  0  0  0  0  0  0  0  0  0  0
   60.7896   32.1634   49.8643 H   0  0  0  0  0  0  0  0  0  0  0  0
   59.7703   33.5095   50.5973 H   0  0  0  0  0  0  0  0  0  0  0  0
   58.3590   33.0970   48.5370 H   0  0  0  0  0  0  0  0  0  0  0  0
   58.1850   32.1850   49.9170 H   0  0  0  0  0  0  0  0  0  0  0  0
   58.3959   33.0728   43.7877 H   0  0  0  0  0  0  0  0  0  0  0  0
   57.6608   32.3431   41.5192 H   0  0  0  0  0  0  0  0  0  0  0  0
   56.3292   30.2478   41.2477 H   0  0  0  0  0  0  0  0  0  0  0  0
   55.7283   28.8815   43.2491 H   0  0  0  0  0  0  0  0  0  0  0  0
   56.4647   29.6002   45.5216 H   0  0  0  0  0  0  0  0  0  0  0  0
   60.4973   26.9221   47.7370 H   0  0  0  0  0  0  0  0  0  0  0  0
   61.8330   26.8907   53.4509 H   0  0  0  0  0  0  0  0  0  0  0  0
   60.8731   28.9016   54.1632 H   0  0  0  0  0  0  0  0  0  0  0  0
   61.5891   30.1430   53.0802 H   0  0  0  0  0  0  0  0  0  0  0  0
   59.8141   29.8671   53.0802 H   0  0  0  0  0  0  0  0  0  0  0  0
   59.8081   30.6165   51.0769 H   0  0  0  0  0  0  0  0  0  0  0  0
  1  2  1  0
  2  3  1  0
  3  4  1  0
  4  5  1  0
  3  6  1  0
  6  7  1  0
  7  8  1  0
  8  9  1  0
  9 10  2  0
 10 11  1  0
 11 12  2  0
 11 13  1  0
 13 14  2  0
 14 15  1  0
 15 16  2  0
 16 17  1  0
 17 18  2  0
 10 19  1  0
 19 20  1  0
 20 21  2  0
 21 22  1  0
 22 23  1  0
 23 24  1  0
 24 25  2  0
 24 26  1  0
 26 27  2  0
 27 28  1  0
 27 29  1  0
 29 30  1  0
 30 31  2  0
 31  9  1  0
 18 13  1  0
 31 20  1  0
 29 22  2  0
  1 32  1  0
  1 33  1  0
  1 34  1  0
  2 35  1  0
  2 36  1  0
  4 37  1  0
  4 38  1  0
  5 39  1  0
  5 40  1  0
  5 41  1  0
  6 42  1  0
  6 43  1  0
  7 44  1  0
  7 45  1  0
  8 46  1  0
  8 47  1  0
 14 48  1  0
 15 49  1  0
 16 50  1  0
 17 51  1  0
 18 52  1  0
 21 53  1  0
 26 54  1  0
 28 55  1  0
 28 56  1  0
 28 57  1  0
 30 58  1  0
M  CHG  1   8   1
M  END
>  <UniqueID>  (26) 
26

>  <SMILES>  (26) 
CCN(CC)CC[NH2+]c1c(C(=O)c2ccccc2)sc2cc3oc(=O)cc(C)c3cc12

>  <Energy>  (26) 
106.82404775991606

>  <Genealogy>  (26) 
CCN(CC)CC[NH2+]c1c(C(=O)c2ccccc2)sc2cc3oc(=O)cc(C)c3cc12 (protonated)
CCN(CC)CC[NH2+]c1c(C(=O)c2ccccc2)sc2cc3oc(=O)cc(C)c3cc12 (3D coordinates assigned)
CCN(CC)CC[NH2+]c1c(C(=O)c2ccccc2)sc2cc3oc(=O)cc(C)c3cc12 (optimized conformer: 106.82404775991606 kcal/mol)

>  <smiles>  (26) 
CCN(CC)CCNc1c(C(=O)c2ccccc2)sc2cc3oc(=O)cc(C)c3cc12

>  <score_type>  (26) 
oracle

>  <origin>  (26) 
adg

>  <m_score__min__energy>  (26) 
-6.8799999999999999

>  <m_primary>  (26) 
energy

$$$$
26:0
     RDKit          3D

 35 36  0  0  0  0  0  0  0  0999 V2000
   60.1890   28.9530   44.8480 C   0  0  0  0  0  0  0  0  0  0  0  0
   58.8460   28.7910   45.5720 C   0  0  0  0  0  0  0  0  0  0  0  0
   57.7340   28.3470   44.7010 N   0  0  0  0  0  0  0  0  0  0  0  0
   58.1920   27.5090   43.5750 C   0  0  0  0  0  0  0  0  0  0  0  0
   57.7740   26.0560   43.7790 C   0  0  0  0  0  0  0  0  0  0  0  0
   56.7320   29.6830   44.1640 S   0  0  0  0  0  0  0  0  0  0  0  0
   56.4710   29.5820   42.6850 O   0  0  0  0  0  0  0  0  0  0  0  0
   55.4110   29.6450   44.8810 O   0  0  0  0  0  0  0  0  0  0  0  0
   57.4990   31.2280   44.5320 C   0  0  0  0  0  0  0  0  0  0  0  0
   57.8280   32.1000   43.4870 C   0  0  0  0  0  0  0  0  0  0  0  0
   58.4210   33.3370   43.7560 C   0  0  0  0  0  0  0  0  0  0  0  0
   58.6890   33.7160   45.0780 C   0  0  0  0  0  0  0  0  0  0  0  0
   59.2820   34.9570   45.3610 C   0  0  0  0  0  0  0  0  0  0  0  0
   59.5420   35.3250   46.6840 C   0  0  0  0  0  0  0  0  0  0  0  0
   59.2160   34.4600   47.7320 C   0  0  0  0  0  0  0  0  0  0  0  0
   58.6250   33.2220   47.4640 C   0  0  0  0  0  0  0  0  0  0  0  0
   58.3580   32.8400   46.1400 C   0  0  0  0  0  0  0  0  0  0  0  0
   57.7640   31.6000   45.8580 C   0  0  0  0  0  0  0  0  0  0  0  0
   60.9958   29.0503   45.5893 H   0  0  0  0  0  0  0  0  0  0  0  0
   60.3746   28.0707   44.2178 H   0  0  0  0  0  0  0  0  0  0  0  0
   60.1595   29.8541   44.2178 H   0  0  0  0  0  0  0  0  0  0  0  0
   58.9739   28.0481   46.3731 H   0  0  0  0  0  0  0  0  0  0  0  0
   58.5708   29.7860   45.9517 H   0  0  0  0  0  0  0  0  0  0  0  0
   57.7480   27.8847   42.6414 H   0  0  0  0  0  0  0  0  0  0  0  0
   59.2897   27.5570   43.5221 H   0  0  0  0  0  0  0  0  0  0  0  0
   57.7119   25.8401   44.8558 H   0  0  0  0  0  0  0  0  0  0  0  0
   56.7912   25.8885   43.3141 H   0  0  0  0  0  0  0  0  0  0  0  0
   58.5175   25.3918   43.3141 H   0  0  0  0  0  0  0  0  0  0  0  0
   57.6183   31.8096   42.4470 H   0  0  0  0  0  0  0  0  0  0  0  0
   58.6778   34.0142   42.9281 H   0  0  0  0  0  0  0  0  0  0  0  0
   59.5424   35.6409   44.5397 H   0  0  0  0  0  0  0  0  0  0  0  0
   60.0049   36.2990   46.9011 H   0  0  0  0  0  0  0  0  0  0  0  0
   59.4251   34.7543   48.7711 H   0  0  0  0  0  0  0  0  0  0  0  0
   58.3685   32.5455   48.2926 H   0  0  0  0  0  0  0  0  0  0  0  0
   57.5052   30.9170   46.6805 H   0  0  0  0  0  0  0  0  0  0  0  0
  1  2  1  0
  2  3  1  0
  3  4  1  0
  4  5  1  0
  3  6  1  0
  6  7  2  0
  6  8  2  0
  6  9  1  0
  9 10  2  0
 10 11  1  0
 11 12  2  0
 12 13  1  0
 13 14  2  0
 14 15  1  0
 15 16  2  0
 16 17  1  0
 17 18  2  0
 18  9  1  0
 17 12  1  0
  1 19  1  0
  1 20  1  0
  1 21  1  0
  2 22  1  0
  2 23  1  0
  4 24  1  0
  4 25  1  0
  5 26  1  0
  5 27  1  0
  5 28  1  0
 10 29  1  0
 11 30  1  0
 13 31  1  0
 14 32  1  0
 15 33  1  0
 16 34  1  0
 18 35  1  0
M  END
>  <UniqueID>  (27) 
27

>  <SMILES>  (27) 
CCN(CC)S(=O)(=O)c1ccc2ccccc2c1

>  <Energy>  (27) 
37.29315685244048

>  <Genealogy>  (27) 
CCN(CC)S(=O)(=O)c1ccc2ccccc2c1 (3D coordinates assigned)
CCN(CC)S(=O)(=O)c1ccc2ccccc2c1 (optimized conformer: 37.29315685244048 kcal/mol)

>  <smiles>  (27) 
CCN(CC)S(=O)(=O)c1ccc2ccccc2c1

>  <score_type>  (27) 
oracle

>  <origin>  (27) 
adg

>  <m_score__min__energy>  (27) 
-7.7999999999999998

>  <m_primary>  (27) 
energy

$$$$
27:0
     RDKit          3D

 61 64  0  0  0  0  0  0  0  0999 V2000
   58.1600   30.0720   44.1420 C   0  0  0  0  0  0  0  0  0  0  0  0
   58.4710   28.7030   44.6330 N   0  0  0  0  0  0  0  0  0  0  0  0
   57.7810   27.7410   43.7390 C   0  0  0  0  0  0  0  0  0  0  0  0
   57.9670   28.5160   46.0310 C   0  0  0  0  0  0  0  0  0  0  0  0
   59.0080   28.8540   47.1190 C   0  0  0  0  0  0  0  0  0  0  0  0
   59.9500   29.8710   46.6270 N   0  0  0  0  0  0  0  0  0  0  0  0
   60.8040   30.3980   47.7140 C   0  0  0  0  0  0  0  0  0  0  0  0
   61.9840   31.1710   47.1190 C   0  0  0  0  0  0  0  0  0  0  0  0
   62.8020   31.6910   48.1510 O   0  0  0  0  0  0  0  0  0  0  0  0
   63.2390   32.9970   47.8330 C   0  0  0  0  0  0  0  0  0  0  0  0
   62.5320   34.0110   48.7400 C   0  0  0  0  0  0  0  0  0  0  0  0
   61.5090   33.3590   49.5760 N   0  0  0  0  0  0  0  0  0  0  0  0
   60.1850   34.0220   49.5060 C   0  0  0  0  0  0  0  0  0  0  0  0
   59.2690   33.3900   50.5380 C   0  0  0  0  0  0  0  0  0  0  0  0
   59.3790   33.7420   51.8940 C   0  0  0  0  0  0  0  0  0  0  0  0
   58.6330   33.0600   52.8650 C   0  0  0  0  0  0  0  0  0  0  0  0
   57.7890   32.0100   52.4900 C   0  0  0  0  0  0  0  0  0  0  0  0
   57.6770   31.6490   51.1430 C   0  0  0  0  0  0  0  0  0  0  0  0
   58.4030   32.3410   50.1650 C   0  0  0  0  0  0  0  0  0  0  0  0
   58.2360   32.0140   48.8160 O   0  0  0  0  0  0  0  0  0  0  0  0
   58.7090   32.8510   47.8030 C   0  0  0  0  0  0  0  0  0  0  0  0
   58.2630   32.6660   46.4920 C   0  0  0  0  0  0  0  0  0  0  0  0
   58.6360   33.5670   45.4910 C   0  0  0  0  0  0  0  0  0  0  0  0
   59.4550   34.6560   45.8010 C   0  0  0  0  0  0  0  0  0  0  0  0
   59.9250   34.8310   47.1050 C   0  0  0  0  0  0  0  0  0  0  0  0
   59.5830   33.9130   48.1110 C   0  0  0  0  0  0  0  0  0  0  0  0
   60.7610   29.3340   45.5140 C   0  0  0  0  0  0  0  0  0  0  0  0
   59.9350   28.4420   44.5560 C   0  0  0  0  0  0  0  0  0  0  0  0
   58.0075   30.7434   44.9999 H   0  0  0  0  0  0  0  0  0  0  0  0
   58.9971   30.4415   43.5315 H   0  0  0  0  0  0  0  0  0  0  0  0
   57.2454   30.0436   43.5315 H   0  0  0  0  0  0  0  0  0  0  0  0
   57.2462   26.9954   44.3457 H   0  0  0  0  0  0  0  0  0  0  0  0
   57.0628   28.2806   43.1042 H   0  0  0  0  0  0  0  0  0  0  0  0
   58.5224   27.2337   43.1042 H   0  0  0  0  0  0  0  0  0  0  0  0
   57.0919   29.1670   46.1741 H   0  0  0  0  0  0  0  0  0  0  0  0
   57.7214   27.4496   46.1430 H   0  0  0  0  0  0  0  0  0  0  0  0
   58.4899   29.2399   48.0093 H   0  0  0  0  0  0  0  0  0  0  0  0
   59.5676   27.9420   47.3739 H   0  0  0  0  0  0  0  0  0  0  0  0
   60.2107   31.0707   48.3508 H   0  0  0  0  0  0  0  0  0  0  0  0
   61.1856   29.5592   48.3148 H   0  0  0  0  0  0  0  0  0  0  0  0
   62.5805   30.4943   46.4895 H   0  0  0  0  0  0  0  0  0  0  0  0
   61.5971   32.0049   46.5150 H   0  0  0  0  0  0  0  0  0  0  0  0
   64.3263   33.0662   47.9843 H   0  0  0  0  0  0  0  0  0  0  0  0
   62.9987   33.2169   46.7823 H   0  0  0  0  0  0  0  0  0  0  0  0
   63.2774   34.4885   49.3930 H   0  0  0  0  0  0  0  0  0  0  0  0
   62.0358   34.7589   48.1041 H   0  0  0  0  0  0  0  0  0  0  0  0
   61.8380   33.3780   50.5710 H   0  0  0  0  0  0  0  0  0  0  0  0
   61.4140   32.3580   49.2850 H   0  0  0  0  0  0  0  0  0  0  0  0
   60.3060   35.0937   49.7222 H   0  0  0  0  0  0  0  0  0  0  0  0
   60.0539   34.5568   52.1949 H   0  0  0  0  0  0  0  0  0  0  0  0
   58.7115   33.3510   53.9229 H   0  0  0  0  0  0  0  0  0  0  0  0
   57.2130   31.4677   53.2543 H   0  0  0  0  0  0  0  0  0  0  0  0
   57.0167   30.8191   50.8509 H   0  0  0  0  0  0  0  0  0  0  0  0
   57.6172   31.8098   46.2473 H   0  0  0  0  0  0  0  0  0  0  0  0
   58.2849   33.4190   44.4591 H   0  0  0  0  0  0  0  0  0  0  0  0
   59.7301   35.3768   45.0169 H   0  0  0  0  0  0  0  0  0  0  0  0
   60.5661   35.6921   47.3448 H   0  0  0  0  0  0  0  0  0  0  0  0
   61.1763   30.1765   44.9415 H   0  0  0  0  0  0  0  0  0  0  0  0
   61.5557   28.7106   45.9497 H   0  0  0  0  0  0  0  0  0  0  0  0
   60.2706   28.6302   43.5255 H   0  0  0  0  0  0  0  0  0  0  0  0
   60.0986   27.3969   44.8575 H   0  0  0  0  0  0  0  0  0  0  0  0
  1  2  1  0
  2  3  1  0
  2  4  1  0
  4  5  1  0
  5  6  1  0
  6  7  1  0
  7  8  1  0
  8  9  1  0
  9 10  1  0
 10 11  1  0
 11 12  1  0
 12 13  1  0
 13 14  1  0
 14 15  2  0
 15 16  1  0
 16 17  2  0
 17 18  1  0
 18 19  2  0
 19 20  1  0
 20 21  1  0
 21 22  2  0
 22 23  1  0
 23 24  2  0
 24 25  1  0
 25 26  2  0
  6 27  1  0
 27 28  1  0
 28  2  1  0
 26 13  1  0
 19 14  1  0
 26 21  1  0
  1 29  1  0
  1 30  1  0
  1 31  1  0
  3 32  1  0
  3 33  1  0
  3 34  1  0
  4 35  1  0
  4 36  1  0
  5 37  1  0
  5 38  1  0
  7 39  1  0
  7 40  1  0
  8 41  1  0
  8 42  1  0
 10 43  1  0
 10 44  1  0
 11 45  1  0
 11 46  1  0
 12 47  1  0
 12 48  1  0
 13 49  1  0
 15 50  1  0
 16 51  1  0
 17 52  1  0
 18 53  1  0
 22 54  1  0
 23 55  1  0
 24 56  1  0
 25 57  1  0
 27 58  1  0
 27 59  1  0
 28 60  1  0
 28 61  1  0
M  CHG  2   2   1  12   1
M  END
>  <UniqueID>  (28) 
28

>  <SMILES>  (28) 
C[N+]1(C)CCN(CCOCC[NH2+]C2c3ccccc3Oc3ccccc32)CC1

>  <Energy>  (28) 
84.965149617269

>  <Genealogy>  (28) 
C[N+]1(C)CCN(CCOCC[NH2+]C2c3ccccc3Oc3ccccc32)CC1 (protonated)
C[N+]1(C)CCN(CCOCC[NH2+]C2c3ccccc3Oc3ccccc32)CC1 (3D coordinates assigned)
C[N+]1(C)CCN(CCOCC[NH2+]C2c3ccccc3Oc3ccccc32)CC1 (nonaromatic ring conformer: 84.965149617269 kcal/mol)

>  <smiles>  (28) 
C[N+]1(C)CCN(CCOCCNC2c3ccccc3Oc3ccccc32)CC1

>  <score_type>  (28) 
oracle

>  <origin>  (28) 
adg

>  <m_score__min__energy>  (28) 
-6.3099999999999996

>  <m_primary>  (28) 
energy

$$$$
28:0
     RDKit          3D

 47 50  0  0  0  0  0  0  0  0999 V2000
   60.0100   27.8210   45.8700 C   0  0  0  0  0  0  0  0  0  0  0  0
   59.2740   27.6040   47.1250 N   0  0  0  0  0  0  0  0  0  0  0  0
   58.4540   26.3860   47.0640 C   0  0  0  0  0  0  0  0  0  0  0  0
   60.1280   27.6850   48.3330 C   0  0  0  0  0  0  0  0  0  0  0  0
   59.8750   28.9080   49.2420 C   0  0  0  0  0  0  0  0  0  0  0  0
   58.7860   29.7520   48.7490 N   0  0  0  0  0  0  0  0  0  0  0  0
   59.0810   31.0050   48.1160 C   0  0  0  0  0  0  0  0  0  0  0  0
   59.7910   32.0190   48.7840 C   0  0  0  0  0  0  0  0  0  0  0  0
   60.1800   31.8630   50.1300 C   0  0  0  0  0  0  0  0  0  0  0  0
   60.8880   32.8660   50.7870 C   0  0  0  0  0  0  0  0  0  0  0  0
   61.2140   34.0400   50.1200 C   0  0  0  0  0  0  0  0  0  0  0  0
   60.8250   34.2270   48.7950 C   0  0  0  0  0  0  0  0  0  0  0  0
   60.1000   33.2280   48.0960 C   0  0  0  0  0  0  0  0  0  0  0  0
   59.6910   33.4090   46.7870 N   0  0  0  0  0  0  0  0  0  0  0  0
   60.0220   34.6610   46.0720 C   0  0  0  0  0  0  0  0  0  0  0  0
   58.9640   32.4290   46.1490 C   0  0  0  0  0  0  0  0  0  0  0  0
   58.5330   32.5980   44.8650 N   0  0  0  0  0  0  0  0  0  0  0  0
   57.8230   31.6420   44.2130 C   0  0  0  0  0  0  0  0  0  0  0  0
   57.3940   31.8430   42.8960 C   0  0  0  0  0  0  0  0  0  0  0  0
   56.6660   30.8440   42.2410 C   0  0  0  0  0  0  0  0  0  0  0  0
   56.3660   29.6450   42.8990 C   0  0  0  0  0  0  0  0  0  0  0  0
   56.7920   29.4410   44.2160 C   0  0  0  0  0  0  0  0  0  0  0  0
   57.5200   30.4390   44.8740 C   0  0  0  0  0  0  0  0  0  0  0  0
   57.9430   30.2600   46.1510 N   0  0  0  0  0  0  0  0  0  0  0  0
   58.6520   31.2210   46.8060 C   0  0  0  0  0  0  0  0  0  0  0  0
   61.0421   28.1253   46.0982 H   0  0  0  0  0  0  0  0  0  0  0  0
   60.0231   26.8885   45.2867 H   0  0  0  0  0  0  0  0  0  0  0  0
   59.5151   28.6115   45.2867 H   0  0  0  0  0  0  0  0  0  0  0  0
   58.2254   26.0464   48.0850 H   0  0  0  0  0  0  0  0  0  0  0  0
   57.5164   26.6015   46.5307 H   0  0  0  0  0  0  0  0  0  0  0  0
   59.0065   25.5984   46.5307 H   0  0  0  0  0  0  0  0  0  0  0  0
   59.9580   26.7771   48.9304 H   0  0  0  0  0  0  0  0  0  0  0  0
   61.1607   27.7869   47.9680 H   0  0  0  0  0  0  0  0  0  0  0  0
   59.6175   28.5518   50.2503 H   0  0  0  0  0  0  0  0  0  0  0  0
   60.7924   29.5149   49.2518 H   0  0  0  0  0  0  0  0  0  0  0  0
   57.8610   29.3150   48.5370 H   0  0  0  0  0  0  0  0  0  0  0  0
   59.9213   30.9386   50.6672 H   0  0  0  0  0  0  0  0  0  0  0  0
   61.1896   32.7284   51.8359 H   0  0  0  0  0  0  0  0  0  0  0  0
   61.7818   34.8256   50.6400 H   0  0  0  0  0  0  0  0  0  0  0  0
   61.0845   35.1651   48.2825 H   0  0  0  0  0  0  0  0  0  0  0  0
   60.2322   35.4559   46.8027 H   0  0  0  0  0  0  0  0  0  0  0  0
   60.9083   34.4995   45.4408 H   0  0  0  0  0  0  0  0  0  0  0  0
   59.1717   34.9586   45.4408 H   0  0  0  0  0  0  0  0  0  0  0  0
   57.6287   32.7842   42.3772 H   0  0  0  0  0  0  0  0  0  0  0  0
   56.3282   31.0009   41.2060 H   0  0  0  0  0  0  0  0  0  0  0  0
   55.7943   28.8619   42.3795 H   0  0  0  0  0  0  0  0  0  0  0  0
   56.5555   28.4991   44.7327 H   0  0  0  0  0  0  0  0  0  0  0  0
  1  2  1  0
  2  3  1  0
  2  4  1  0
  4  5  1  0
  5  6  1  0
  6  7  1  0
  7  8  2  0
  8  9  1  0
  9 10  2  0
 10 11  1  0
 11 12  2  0
 12 13  1  0
 13 14  2  0
 14 15  1  0
 14 16  1  0
 16 17  2  0
 17 18  1  0
 18 19  2  0
 19 20  1  0
 20 21  2  0
 21 22  1  0
 22 23  2  0
 23 24  1  0
 24 25  2  0
 25  7  1  0
 13  8  1  0
 25 16  1  0
 23 18  1  0
  1 26  1  0
  1 27  1  0
  1 28  1  0
  3 29  1  0
  3 30  1  0
  3 31  1  0
  4 32  1  0
  4 33  1  0
  5 34  1  0
  5 35  1  0
  6 36  1  0
  9 37  1  0
 10 38  1  0
 11 39  1  0
 12 40  1  0
 15 41  1  0
 15 42  1  0
 15 43  1  0
 19 44  1  0
 20 45  1  0
 21 46  1  0
 22 47  1  0
M  CHG  1  14   1
M  END
>  <UniqueID>  (29) 
29

>  <SMILES>  (29) 
CN(C)CCNc1c2ccccc2[n+](C)c2nc3ccccc3nc12

>  <Energy>  (29) 
76.12683983492721

>  <Genealogy>  (29) 
CN(C)CCNc1c2ccccc2[n+](C)c2nc3ccccc3nc12 (3D coordinates assigned)
CN(C)CCNc1c2ccccc2[n+](C)c2nc3ccccc3nc12 (optimized conformer: 76.12683983492721 kcal/mol)

>  <smiles>  (29) 
CN(C)CCNc1c2ccccc2[n+](C)c2nc3ccccc3nc12

>  <score_type>  (29) 
oracle

>  <origin>  (29) 
adg

>  <m_score__min__energy>  (29) 
-6.4100000000000001

>  <m_primary>  (29) 
energy

$$$$
29:0
     RDKit          3D

 48 50  0  0  0  0  0  0  0  0999 V2000
   64.4330   32.1880   50.3310 C   0  0  0  0  0  0  0  0  0  0  0  0
   63.3260   31.6920   49.3940 C   0  0  0  0  0  0  0  0  0  0  0  0
   63.6030   31.9970   47.9660 N   0  0  0  0  0  0  0  0  0  0  0  0
   63.7530   33.4670   47.7400 C   0  0  0  0  0  0  0  0  0  0  0  0
   63.2360   33.8920   46.3630 C   0  0  0  0  0  0  0  0  0  0  0  0
   62.5100   31.4350   47.1320 C   0  0  0  0  0  0  0  0  0  0  0  0
   61.5220   30.5650   47.9480 C   0  0  0  0  0  0  0  0  0  0  0  0
   60.1920   31.1740   48.0090 N   0  0  0  0  0  0  0  0  0  0  0  0
   59.4420   31.4530   46.8170 C   0  0  0  0  0  0  0  0  0  0  0  0
   58.8400   30.4120   46.0830 C   0  0  0  0  0  0  0  0  0  0  0  0
   58.8100   29.0920   46.5730 C   0  0  0  0  0  0  0  0  0  0  0  0
   58.2000   28.0770   45.8380 C   0  0  0  0  0  0  0  0  0  0  0  0
   57.6040   28.3620   44.6140 C   0  0  0  0  0  0  0  0  0  0  0  0
   57.6200   29.6620   44.1070 C   0  0  0  0  0  0  0  0  0  0  0  0
   58.2500   30.7130   44.8180 C   0  0  0  0  0  0  0  0  0  0  0  0
   58.2950   32.0040   44.3210 N   0  0  0  0  0  0  0  0  0  0  0  0
   57.7830   32.3260   42.9760 C   0  0  0  0  0  0  0  0  0  0  0  0
   58.7950   32.9920   45.1310 C   0  0  0  0  0  0  0  0  0  0  0  0
   58.7730   34.3630   44.9110 C   0  0  0  0  0  0  0  0  0  0  0  0
   59.3100   34.9390   46.0460 C   0  0  0  0  0  0  0  0  0  0  0  0
   59.6400   33.9090   46.9090 C   0  0  0  0  0  0  0  0  0  0  0  0
   60.1750   34.2130   48.7240 Br  0  0  0  0  0  0  0  0  0  0  0  0
   59.3350   32.7200   46.3350 N   0  0  0  0  0  0  0  0  0  0  0  0
   64.1192   32.0474   51.3759 H   0  0  0  0  0  0  0  0  0  0  0  0
   65.3543   31.6166   50.1448 H   0  0  0  0  0  0  0  0  0  0  0  0
   64.6198   33.2559   50.1448 H   0  0  0  0  0  0  0  0  0  0  0  0
   63.2300   30.6022   49.5088 H   0  0  0  0  0  0  0  0  0  0  0  0
   62.3981   32.2138   49.6710 H   0  0  0  0  0  0  0  0  0  0  0  0
   64.4820   31.4890   47.7050 H   0  0  0  0  0  0  0  0  0  0  0  0
   63.1856   34.0049   48.5138 H   0  0  0  0  0  0  0  0  0  0  0  0
   64.8245   33.7106   47.7903 H   0  0  0  0  0  0  0  0  0  0  0  0
   62.3916   34.5861   46.4866 H   0  0  0  0  0  0  0  0  0  0  0  0
   64.0428   34.3914   45.8065 H   0  0  0  0  0  0  0  0  0  0  0  0
   62.9021   33.0038   45.8065 H   0  0  0  0  0  0  0  0  0  0  0  0
   61.9526   32.2663   46.6756 H   0  0  0  0  0  0  0  0  0  0  0  0
   62.9717   30.7884   46.3712 H   0  0  0  0  0  0  0  0  0  0  0  0
   61.4405   29.5762   47.4729 H   0  0  0  0  0  0  0  0  0  0  0  0
   61.9077   30.4768   48.9744 H   0  0  0  0  0  0  0  0  0  0  0  0
   59.7460   31.3380   48.9400 H   0  0  0  0  0  0  0  0  0  0  0  0
   59.2719   28.8601   47.5440 H   0  0  0  0  0  0  0  0  0  0  0  0
   58.1899   27.0481   46.2268 H   0  0  0  0  0  0  0  0  0  0  0  0
   57.1173   27.5580   44.0424 H   0  0  0  0  0  0  0  0  0  0  0  0
   57.1367   29.8737   43.1418 H   0  0  0  0  0  0  0  0  0  0  0  0
   56.8550   32.9096   43.0669 H   0  0  0  0  0  0  0  0  0  0  0  0
   58.5342   32.9146   42.4289 H   0  0  0  0  0  0  0  0  0  0  0  0
   57.5779   31.3940   42.4289 H   0  0  0  0  0  0  0  0  0  0  0  0
   58.4033   34.8841   44.0155 H   0  0  0  0  0  0  0  0  0  0  0  0
   59.4491   36.0147   46.2293 H   0  0  0  0  0  0  0  0  0  0  0  0
  1  2  1  0
  2  3  1  0
  3  4  1  0
  4  5  1  0
  3  6  1  0
  6  7  1  0
  7  8  1  0
  8  9  1  0
  9 10  2  0
 10 11  1  0
 11 12  2  0
 12 13  1  0
 13 14  2  0
 14 15  1  0
 15 16  2  0
 16 17  1  0
 16 18  1  0
 18 19  2  0
 19 20  1  0
 20 21  2  0
 21 22  1  0
 21 23  1  0
 23  9  1  0
 15 10  1  0
 23 18  1  0
  1 24  1  0
  1 25  1  0
  1 26  1  0
  2 27  1  0
  2 28  1  0
  3 29  1  0
  4 30  1  0
  4 31  1  0
  5 32  1  0
  5 33  1  0
  5 34  1  0
  6 35  1  0
  6 36  1  0
  7 37  1  0
  7 38  1  0
  8 39  1  0
 11 40  1  0
 12 41  1  0
 13 42  1  0
 14 43  1  0
 17 44  1  0
 17 45  1  0
 17 46  1  0
 19 47  1  0
 20 48  1  0
M  CHG  2   3   1  16   1
M  END
>  <UniqueID>  (30) 
30

>  <SMILES>  (30) 
CC[NH+](CC)CCNc1c2ccccc2[n+](C)c2ccc(Br)n12

>  <Energy>  (30) 
103.34108915828406

>  <Genealogy>  (30) 
CC[NH+](CC)CCNc1c2ccccc2[n+](C)c2ccc(Br)n12 (protonated)
CC[NH+](CC)CCNc1c2ccccc2[n+](C)c2ccc(Br)n12 (3D coordinates assigned)
CC[NH+](CC)CCNc1c2ccccc2[n+](C)c2ccc(Br)n12 (optimized conformer: 103.34108915828406 kcal/mol)

>  <smiles>  (30) 
CCN(CC)CCNc1c2ccccc2[n+](C)c2ccc(Br)n12

>  <score_type>  (30) 
oracle

>  <origin>  (30) 
adg

>  <m_score__min__energy>  (30) 
-4.8600000000000003

>  <m_primary>  (30) 
energy

$$$$
30:0
     RDKit          3D

 47 49  0  0  0  0  0  0  0  0999 V2000
   56.5850   22.9750   43.4040 C   0  0  0  0  0  0  0  0  0  0  0  0
   56.6580   23.1050   44.9200 C   0  0  0  0  0  0  0  0  0  0  0  0
   56.5710   24.5090   45.3100 N   0  0  0  0  0  0  0  0  0  0  0  0
   57.3660   25.5020   44.8670 C   0  0  0  0  0  0  0  0  0  0  0  0
   56.9930   26.6580   45.5230 C   0  0  0  0  0  0  0  0  0  0  0  0
   57.5530   27.9770   45.3670 N   0  0  0  0  0  0  0  0  0  0  0  0
   58.7190   28.3960   46.1620 C   0  0  0  0  0  0  0  0  0  0  0  0
   58.6100   29.8780   46.5440 C   0  0  0  0  0  0  0  0  0  0  0  0
   58.2070   30.7100   45.4010 N   0  0  0  0  0  0  0  0  0  0  0  0
   57.9320   32.1060   45.6040 C   0  0  0  0  0  0  0  0  0  0  0  0
   56.8290   32.5840   45.2250 O   0  0  0  0  0  0  0  0  0  0  0  0
   58.9180   32.9880   46.2570 C   0  0  0  0  0  0  0  0  0  0  0  0
   58.6400   34.3100   46.6020 C   0  0  0  0  0  0  0  0  0  0  0  0
   60.0250   34.9640   47.3000 S   0  0  0  0  0  0  0  0  0  0  0  0
   60.9230   33.5530   47.1310 C   0  0  0  0  0  0  0  0  0  0  0  0
   62.3640   33.4030   47.5360 C   0  0  0  0  0  0  0  0  0  0  0  0
   63.2880   33.9240   46.4310 C   0  0  0  0  0  0  0  0  0  0  0  0
   62.6820   31.9430   47.8780 C   0  0  0  0  0  0  0  0  0  0  0  0
   60.1890   32.5840   46.5390 N   0  0  0  0  0  0  0  0  0  0  0  0
   57.9100   30.0880   44.1080 C   0  0  0  0  0  0  0  0  0  0  0  0
   57.0230   28.8580   44.3140 C   0  0  0  0  0  0  0  0  0  0  0  0
   55.9560   26.2900   46.3640 C   0  0  0  0  0  0  0  0  0  0  0  0
   55.7250   24.9710   46.2190 N   0  0  0  0  0  0  0  0  0  0  0  0
   56.0621   22.0438   43.1406 H   0  0  0  0  0  0  0  0  0  0  0  0
   56.0370   23.8334   42.9883 H   0  0  0  0  0  0  0  0  0  0  0  0
   57.6032   22.9539   42.9883 H   0  0  0  0  0  0  0  0  0  0  0  0
   55.8235   22.5496   45.3730 H   0  0  0  0  0  0  0  0  0  0  0  0
   57.6164   22.6939   45.2699 H   0  0  0  0  0  0  0  0  0  0  0  0
   58.1668   25.4088   44.1186 H   0  0  0  0  0  0  0  0  0  0  0  0
   58.7682   27.7895   47.0784 H   0  0  0  0  0  0  0  0  0  0  0  0
   59.6282   28.2517   45.5599 H   0  0  0  0  0  0  0  0  0  0  0  0
   57.8619   29.9852   47.3433 H   0  0  0  0  0  0  0  0  0  0  0  0
   59.6008   30.2173   46.8804 H   0  0  0  0  0  0  0  0  0  0  0  0
   57.6849   34.8329   46.4457 H   0  0  0  0  0  0  0  0  0  0  0  0
   62.5373   34.0063   48.4393 H   0  0  0  0  0  0  0  0  0  0  0  0
   64.1609   34.4162   46.8847 H   0  0  0  0  0  0  0  0  0  0  0  0
   63.6245   33.0826   45.8074 H   0  0  0  0  0  0  0  0  0  0  0  0
   62.7422   34.6473   45.8074 H   0  0  0  0  0  0  0  0  0  0  0  0
   62.7088   31.8199   48.9708 H   0  0  0  0  0  0  0  0  0  0  0  0
   61.9051   31.2896   47.4543 H   0  0  0  0  0  0  0  0  0  0  0  0
   63.6603   31.6719   47.4543 H   0  0  0  0  0  0  0  0  0  0  0  0
   60.5670   31.6410   46.2970 H   0  0  0  0  0  0  0  0  0  0  0  0
   57.3864   30.8121   43.4665 H   0  0  0  0  0  0  0  0  0  0  0  0
   58.8512   29.7800   43.6292 H   0  0  0  0  0  0  0  0  0  0  0  0
   56.0141   29.1896   44.6006 H   0  0  0  0  0  0  0  0  0  0  0  0
   56.9978   28.2908   43.3718 H   0  0  0  0  0  0  0  0  0  0  0  0
   55.4102   26.9647   47.0399 H   0  0  0  0  0  0  0  0  0  0  0  0
  1  2  1  0
  2  3  1  0
  3  4  1  0
  4  5  2  0
  5  6  1  0
  6  7  1  0
  7  8  1  0
  8  9  1  0
  9 10  1  0
 10 11  2  0
 10 12  1  0
 12 13  2  0
 13 14  1  0
 14 15  1  0
 15 16  1  0
 16 17  1  0
 16 18  1  0
 15 19  2  0
  9 20  1  0
 20 21  1  0
  5 22  1  0
 22 23  2  0
 23  3  1  0
 21  6  1  0
 19 12  1  0
  1 24  1  0
  1 25  1  0
  1 26  1  0
  2 27  1  0
  2 28  1  0
  4 29  1  0
  7 30  1  0
  7 31  1  0
  8 32  1  0
  8 33  1  0
 13 34  1  0
 16 35  1  0
 17 36  1  0
 17 37  1  0
 17 38  1  0
 18 39  1  0
 18 40  1  0
 18 41  1  0
 19 42  1  0
 20 43  1  0
 20 44  1  0
 21 45  1  0
 21 46  1  0
 22 47  1  0
M  CHG  1  19   1
M  END
>  <UniqueID>  (31) 
31

>  <SMILES>  (31) 
CCn1cc(N2CCN(C(=O)c3csc(C(C)C)[nH+]3)CC2)cn1

>  <Energy>  (31) 
103.06228331129296

>  <Genealogy>  (31) 
CCn1cc(N2CCN(C(=O)c3csc(C(C)C)[nH+]3)CC2)cn1 (protonated)
CCn1cc(N2CCN(C(=O)c3csc(C(C)C)[nH+]3)CC2)cn1 (3D coordinates assigned)
CCn1cc(N2CCN(C(=O)c3csc(C(C)C)[nH+]3)CC2)cn1 (nonaromatic ring conformer: 103.06228331129296 kcal/mol)

>  <smiles>  (31) 
CCn1cc(N2CCN(C(=O)c3csc(C(C)C)n3)CC2)cn1

>  <score_type>  (31) 
oracle

>  <origin>  (31) 
adg

>  <m_score__min__energy>  (31) 
-5.8499999999999996

>  <m_primary>  (31) 
energy

$$$$
