0:0
     RDKit          3D

 60 63  0  0  0  0  0  0  0  0999 V2000
   56.2370   29.9400   44.3460 C   0  0  0  0  0  0  0  0  0  0  0  0
   57.4020   30.3120   45.2320 C   0  0  0  0  0  0  0  0  0  0  0  0
   58.0550   29.3140   45.9890 C   0  0  0  0  0  0  0  0  0  0  0  0
   57.5820   27.9890   45.8960 O   0  0  0  0  0  0  0  0  0  0  0  0
   58.2520   26.7980   46.3180 C   0  0  0  0  0  0  0  0  0  0  0  0
   58.4110   25.7950   45.1630 C   0  0  0  0  0  0  0  0  0  0  0  0
   57.4930   26.0650   44.0210 N   0  0  0  0  0  0  0  0  0  0  0  0
   57.0090   24.8030   43.4320 C   0  0  0  0  0  0  0  0  0  0  0  0
   58.1600   26.8650   42.9760 C   0  0  0  0  0  0  0  0  0  0  0  0
   59.1510   29.6710   46.7980 C   0  0  0  0  0  0  0  0  0  0  0  0
   59.6020   30.9880   46.8490 C   0  0  0  0  0  0  0  0  0  0  0  0
   58.9830   31.9820   46.0780 C   0  0  0  0  0  0  0  0  0  0  0  0
   59.4340   33.3200   46.0900 C   0  0  0  0  0  0  0  0  0  0  0  0
   60.5570   33.7170   46.8880 N   0  0  0  0  0  0  0  0  0  0  0  0
   61.9140   33.4930   46.3720 C   0  0  0  0  0  0  0  0  0  0  0  0
   62.9690   33.9530   47.3820 C   0  0  0  0  0  0  0  0  0  0  0  0
   62.5820   33.5140   48.7300 N   0  0  0  0  0  0  0  0  0  0  0  0
   63.4650   32.6900   49.5150 C   0  0  0  0  0  0  0  0  0  0  0  0
   62.9640   31.5830   50.2190 C   0  0  0  0  0  0  0  0  0  0  0  0
   63.8250   30.7770   50.9720 C   0  0  0  0  0  0  0  0  0  0  0  0
   65.1910   31.0640   51.0200 C   0  0  0  0  0  0  0  0  0  0  0  0
   65.7000   32.1570   50.3150 C   0  0  0  0  0  0  0  0  0  0  0  0
   64.8420   32.9680   49.5660 C   0  0  0  0  0  0  0  0  0  0  0  0
   61.2410   33.8310   49.2460 C   0  0  0  0  0  0  0  0  0  0  0  0
   60.3400   34.4240   48.1540 C   0  0  0  0  0  0  0  0  0  0  0  0
   58.7790   34.2770   45.3090 C   0  0  0  0  0  0  0  0  0  0  0  0
   57.6970   33.8970   44.5180 C   0  0  0  0  0  0  0  0  0  0  0  0
   57.2760   32.6070   44.5120 N   0  0  0  0  0  0  0  0  0  0  0  0
   57.8780   31.6420   45.2640 C   0  0  0  0  0  0  0  0  0  0  0  0
   55.3745   29.6646   44.9707 H   0  0  0  0  0  0  0  0  0  0  0  0
   55.9707   30.7978   43.7110 H   0  0  0  0  0  0  0  0  0  0  0  0
   56.5171   29.0866   43.7110 H   0  0  0  0  0  0  0  0  0  0  0  0
   59.2492   27.0654   46.6977 H   0  0  0  0  0  0  0  0  0  0  0  0
   57.6454   26.3233   47.1033 H   0  0  0  0  0  0  0  0  0  0  0  0
   59.4474   25.8439   44.7976 H   0  0  0  0  0  0  0  0  0  0  0  0
   58.1585   24.7996   45.5572 H   0  0  0  0  0  0  0  0  0  0  0  0
   56.6500   26.5900   44.3480 H   0  0  0  0  0  0  0  0  0  0  0  0
   56.7403   24.1023   44.2363 H   0  0  0  0  0  0  0  0  0  0  0  0
   56.1242   25.0042   42.8101 H   0  0  0  0  0  0  0  0  0  0  0  0
   57.8014   24.3610   42.8101 H   0  0  0  0  0  0  0  0  0  0  0  0
   58.7961   27.6280   43.4484 H   0  0  0  0  0  0  0  0  0  0  0  0
   58.7804   26.2066   42.3502 H   0  0  0  0  0  0  0  0  0  0  0  0
   57.4007   27.3569   42.3502 H   0  0  0  0  0  0  0  0  0  0  0  0
   59.6574   28.9000   47.3973 H   0  0  0  0  0  0  0  0  0  0  0  0
   60.4499   31.2500   47.4989 H   0  0  0  0  0  0  0  0  0  0  0  0
   62.0505   32.4198   46.1732 H   0  0  0  0  0  0  0  0  0  0  0  0
   62.0374   34.0755   45.4471 H   0  0  0  0  0  0  0  0  0  0  0  0
   63.9433   33.5150   47.1195 H   0  0  0  0  0  0  0  0  0  0  0  0
   63.0423   35.0504   47.3610 H   0  0  0  0  0  0  0  0  0  0  0  0
   61.8901   31.3485   50.1783 H   0  0  0  0  0  0  0  0  0  0  0  0
   63.4252   29.9157   51.5272 H   0  0  0  0  0  0  0  0  0  0  0  0
   65.8659   30.4293   51.6130 H   0  0  0  0  0  0  0  0  0  0  0  0
   66.7766   32.3799   50.3491 H   0  0  0  0  0  0  0  0  0  0  0  0
   65.2469   33.8286   49.0134 H   0  0  0  0  0  0  0  0  0  0  0  0
   60.7787   32.9090   49.6283 H   0  0  0  0  0  0  0  0  0  0  0  0
   61.3484   34.5782   50.0461 H   0  0  0  0  0  0  0  0  0  0  0  0
   59.2868   34.3196   48.4539 H   0  0  0  0  0  0  0  0  0  0  0  0
   60.5856   35.4879   48.0208 H   0  0  0  0  0  0  0  0  0  0  0  0
   59.1161   35.3240   45.3191 H   0  0  0  0  0  0  0  0  0  0  0  0
   57.1825   34.6447   43.8966 H   0  0  0  0  0  0  0  0  0  0  0  0
  1  2  1  0
  2  3  2  0
  3  4  1  0
  4  5  1  0
  5  6  1  0
  6  7  1  0
  7  8  1  0
  7  9  1  0
  3 10  1  0
 10 11  2  0
 11 12  1  0
 12 13  2  0
 13 14  1  0
 14 15  1  0
 15 16  1  0
 16 17  1  0
 17 18  1  0
 18 19  2  0
 19 20  1  0
 20 21  2  0
 21 22  1  0
 22 23  2  0
 17 24  1  0
 24 25  1  0
 13 26  1  0
 26 27  2  0
 27 28  1  0
 28 29  2  0
 29  2  1  0
 29 12  1  0
 25 14  1  0
 23 18  1  0
  1 30  1  0
  1 31  1  0
  1 32  1  0
  5 33  1  0
  5 34  1  0
  6 35  1  0
  6 36  1  0
  7 37  1  0
  8 38  1  0
  8 39  1  0
  8 40  1  0
  9 41  1  0
  9 42  1  0
  9 43  1  0
 10 44  1  0
 11 45  1  0
 15 46  1  0
 15 47  1  0
 16 48  1  0
 16 49  1  0
 19 50  1  0
 20 51  1  0
 21 52  1  0
 22 53  1  0
 23 54  1  0
 24 55  1  0
 24 56  1  0
 25 57  1  0
 25 58  1  0
 26 59  1  0
 27 60  1  0
M  CHG  1   7   1
M  END
>  <UniqueID>  (1) 
1

>  <SMILES>  (1) 
Cc1c(OCC[NH+](C)C)ccc2c(N3CCN(c4ccccc4)CC3)ccnc12

>  <Energy>  (1) 
81.63145485480453

>  <Genealogy>  (1) 
Cc1c(OCC[NH+](C)C)ccc2c(N3CCN(c4ccccc4)CC3)ccnc12 (protonated)
Cc1c(OCC[NH+](C)C)ccc2c(N3CCN(c4ccccc4)CC3)ccnc12 (3D coordinates assigned)
Cc1c(OCC[NH+](C)C)ccc2c(N3CCN(c4ccccc4)CC3)ccnc12 (nonaromatic ring conformer: 81.63145485480453 kcal/mol)

>  <smiles>  (1) 
Cc1c(OCCN(C)C)ccc2c(N3CCN(c4ccccc4)CC3)ccnc12

>  <score_type>  (1) 
oracle

>  <origin>  (1) 
adg

>  <m_score__min__energy>  (1) 
-6.5300000000000002

>  <m_primary>  (1) 
energy

$$$$
1:0
     RDKit          3D

 31 33  0  0  0  0  0  0  0  0999 V2000
   59.2620   28.0780   45.1670 Cl  0  0  0  0  0  0  0  0  0  0  0  0
   58.7490   29.7530   45.0810 C   0  0  0  0  0  0  0  0  0  0  0  0
   57.8140   30.1480   44.1230 C   0  0  0  0  0  0  0  0  0  0  0  0
   57.3910   31.4770   44.0630 C   0  0  0  0  0  0  0  0  0  0  0  0
   57.9010   32.4250   44.9650 C   0  0  0  0  0  0  0  0  0  0  0  0
   58.8860   32.0430   45.9020 C   0  0  0  0  0  0  0  0  0  0  0  0
   59.2760   30.6920   45.9720 C   0  0  0  0  0  0  0  0  0  0  0  0
   59.4350   33.0450   46.9050 C   0  0  1  0  0  0  0  0  0  0  0  0
   60.9430   32.9410   47.0450 C   0  0  0  0  0  0  0  0  0  0  0  0
   61.5090   31.9590   47.8770 C   0  0  0  0  0  0  0  0  0  0  0  0
   62.8970   31.8680   48.0190 C   0  0  0  0  0  0  0  0  0  0  0  0
   63.7320   32.7590   47.3400 C   0  0  0  0  0  0  0  0  0  0  0  0
   63.1810   33.7440   46.5180 C   0  0  0  0  0  0  0  0  0  0  0  0
   61.7930   33.8390   46.3720 C   0  0  0  0  0  0  0  0  0  0  0  0
   59.0450   34.4960   46.5510 C   0  0  0  0  0  0  0  0  0  0  0  0
   57.6420   34.5830   46.1340 N   0  0  0  0  0  0  0  0  0  0  0  0
   57.4390   33.8590   44.8730 C   0  0  0  0  0  0  0  0  0  0  0  0
   57.4096   29.4107   43.4139 H   0  0  0  0  0  0  0  0  0  0  0  0
   56.6546   31.7832   43.3055 H   0  0  0  0  0  0  0  0  0  0  0  0
   60.0017   30.3728   46.7345 H   0  0  0  0  0  0  0  0  0  0  0  0
   58.9750   32.7876   47.8705 H   0  0  0  0  0  0  0  0  0  0  0  0
   60.8565   31.2587   48.4190 H   0  0  0  0  0  0  0  0  0  0  0  0
   63.3326   31.0931   48.6668 H   0  0  0  0  0  0  0  0  0  0  0  0
   64.8236   32.6845   47.4530 H   0  0  0  0  0  0  0  0  0  0  0  0
   63.8389   34.4459   45.9847 H   0  0  0  0  0  0  0  0  0  0  0  0
   61.3632   34.6200   45.7275 H   0  0  0  0  0  0  0  0  0  0  0  0
   59.1966   35.1337   47.4344 H   0  0  0  0  0  0  0  0  0  0  0  0
   59.6773   34.8320   45.7159 H   0  0  0  0  0  0  0  0  0  0  0  0
   57.0350   34.1570   46.8750 H   0  0  0  0  0  0  0  0  0  0  0  0
   56.3675   33.8719   44.6243 H   0  0  0  0  0  0  0  0  0  0  0  0
   58.0336   34.3588   44.0941 H   0  0  0  0  0  0  0  0  0  0  0  0
  1  2  1  0
  2  3  2  0
  3  4  1  0
  4  5  2  0
  5  6  1  0
  6  7  2  0
  6  8  1  0
  8  9  1  0
  9 10  2  0
 10 11  1  0
 11 12  2  0
 12 13  1  0
 13 14  2  0
  8 15  1  0
 15 16  1  0
 16 17  1  0
  7  2  1  0
 14  9  1  0
 17  5  1  0
  3 18  1  0
  4 19  1  0
  7 20  1  0
  8 21  1  1
 10 22  1  0
 11 23  1  0
 12 24  1  0
 13 25  1  0
 14 26  1  0
 15 27  1  0
 15 28  1  0
 16 29  1  0
 17 30  1  0
 17 31  1  0
M  END
>  <UniqueID>  (2) 
2

>  <SMILES>  (2) 
Clc1ccc2c(c1)[C@@H](c1ccccc1)CNC2

>  <Energy>  (2) 
36.56703513071807

>  <Genealogy>  (2) 
Clc1ccc2c(c1)[C@@H](c1ccccc1)CNC2 (chirality)
Clc1ccc2c(c1)[C@@H](c1ccccc1)CNC2 (3D coordinates assigned)
Clc1ccc2c(c1)[C@@H](c1ccccc1)CNC2 (nonaromatic ring conformer: 36.56703513071807 kcal/mol)

>  <smiles>  (2) 
Clc1ccc2c(c1)C(c1ccccc1)CNC2

>  <score_type>  (2) 
oracle

>  <origin>  (2) 
adg

>  <m_score__min__energy>  (2) 
-7.1399999999999997

>  <m_primary>  (2) 
energy

$$$$
2:0
     RDKit          3D

 38 40  0  0  0  0  0  0  0  0999 V2000
   63.3900   33.8410   46.5800 C   0  0  0  0  0  0  0  0  0  0  0  0
   63.1710   33.8550   48.0940 C   0  0  0  0  0  0  0  0  0  0  0  0
   61.7320   33.7510   48.4310 N   0  0  0  0  0  0  0  0  0  0  0  0
   61.3460   34.1540   49.8040 C   0  0  0  0  0  0  0  0  0  0  0  0
   59.8830   33.8150   50.0880 C   0  0  0  0  0  0  0  0  0  0  0  0
   60.8300   33.2950   47.5690 C   0  0  0  0  0  0  0  0  0  0  0  0
   60.6660   31.9180   47.2740 C   0  0  0  0  0  0  0  0  0  0  0  0
   59.7090   31.4290   46.3630 C   0  0  0  0  0  0  0  0  0  0  0  0
   59.5680   30.1120   46.0880 N   0  0  0  0  0  0  0  0  0  0  0  0
   58.5750   30.0210   45.1890 C   0  0  0  0  0  0  0  0  0  0  0  0
   58.0830   28.8500   44.6150 C   0  0  0  0  0  0  0  0  0  0  0  0
   57.0340   28.9580   43.6890 C   0  0  0  0  0  0  0  0  0  0  0  0
   56.5050   30.2210   43.3560 C   0  0  0  0  0  0  0  0  0  0  0  0
   57.0180   31.3890   43.9470 C   0  0  0  0  0  0  0  0  0  0  0  0
   58.0650   31.2610   44.8700 C   0  0  0  0  0  0  0  0  0  0  0  0
   58.7860   32.1900   45.6210 C   0  0  0  0  0  0  0  0  0  0  0  0
   58.6810   33.5860   45.6860 C   0  0  0  0  0  0  0  0  0  0  0  0
   57.7010   34.4030   44.9040 C   0  0  0  0  0  0  0  0  0  0  0  0
   59.7630   34.3540   46.7400 S   0  0  0  0  0  0  0  0  0  0  0  0
   64.4668   33.7722   46.3659 H   0  0  0  0  0  0  0  0  0  0  0  0
   62.8731   32.9741   46.1427 H   0  0  0  0  0  0  0  0  0  0  0  0
   62.9877   34.7667   46.1427 H   0  0  0  0  0  0  0  0  0  0  0  0
   63.7061   33.0044   48.5413 H   0  0  0  0  0  0  0  0  0  0  0  0
   63.5525   34.8072   48.4911 H   0  0  0  0  0  0  0  0  0  0  0  0
   61.9841   33.6239   50.5264 H   0  0  0  0  0  0  0  0  0  0  0  0
   61.4762   35.2423   49.8975 H   0  0  0  0  0  0  0  0  0  0  0  0
   59.7198   33.7772   51.1752 H   0  0  0  0  0  0  0  0  0  0  0  0
   59.2354   34.5869   49.6466 H   0  0  0  0  0  0  0  0  0  0  0  0
   59.6409   32.8370   49.6466 H   0  0  0  0  0  0  0  0  0  0  0  0
   61.3197   31.1941   47.7826 H   0  0  0  0  0  0  0  0  0  0  0  0
   60.1190   29.3210   46.4930 H   0  0  0  0  0  0  0  0  0  0  0  0
   58.5048   27.8693   44.8802 H   0  0  0  0  0  0  0  0  0  0  0  0
   56.6224   28.0518   43.2205 H   0  0  0  0  0  0  0  0  0  0  0  0
   55.6839   30.2936   42.6276 H   0  0  0  0  0  0  0  0  0  0  0  0
   56.6084   32.3774   43.6917 H   0  0  0  0  0  0  0  0  0  0  0  0
   57.0446   34.9502   45.5966 H   0  0  0  0  0  0  0  0  0  0  0  0
   58.2441   35.1195   44.2703 H   0  0  0  0  0  0  0  0  0  0  0  0
   57.0939   33.7398   44.2703 H   0  0  0  0  0  0  0  0  0  0  0  0
  1  2  1  0
  2  3  1  0
  3  4  1  0
  4  5  1  0
  3  6  2  3
  6  7  1  0
  7  8  2  0
  8  9  1  0
  9 10  1  0
 10 11  2  0
 11 12  1  0
 12 13  2  0
 13 14  1  0
 14 15  2  0
 15 16  1  0
 16 17  2  0
 17 18  1  0
 17 19  1  0
 19  6  1  0
 16  8  1  0
 15 10  1  0
  1 20  1  0
  1 21  1  0
  1 22  1  0
  2 23  1  0
  2 24  1  0
  4 25  1  0
  4 26  1  0
  5 27  1  0
  5 28  1  0
  5 29  1  0
  7 30  1  0
  9 31  1  0
 11 32  1  0
 12 33  1  0
 13 34  1  0
 14 35  1  0
 18 36  1  0
 18 37  1  0
 18 38  1  0
M  CHG  1   3   1
M  END
>  <UniqueID>  (3) 
3

>  <SMILES>  (3) 
CC[N+](CC)=c1cc2[nH]c3ccccc3c2c(C)s1

>  <Energy>  (3) 
81.28439633976494

>  <Genealogy>  (3) 
CC[N+](CC)=c1cc2[nH]c3ccccc3c2c(C)s1 (3D coordinates assigned)
CC[N+](CC)=c1cc2[nH]c3ccccc3c2c(C)s1 (optimized conformer: 81.28439633976494 kcal/mol)

>  <smiles>  (3) 
CC[N+](CC)=c1cc2[nH]c3ccccc3c2c(C)s1

>  <score_type>  (3) 
oracle

>  <origin>  (3) 
adg

>  <m_score__min__energy>  (3) 
-5.5199999999999996

>  <m_primary>  (3) 
energy

$$$$
3:0
     RDKit          3D

 47 48  0  0  0  0  0  0  0  0999 V2000
   66.0560   33.2960   50.9050 C   0  0  0  0  0  0  0  0  0  0  0  0
   64.6960   33.7180   50.8800 O   0  0  0  0  0  0  0  0  0  0  0  0
   63.8470   33.5930   49.7700 C   0  0  0  0  0  0  0  0  0  0  0  0
   64.2910   33.0820   48.5350 C   0  0  0  0  0  0  0  0  0  0  0  0
   63.4100   32.9760   47.4560 C   0  0  0  0  0  0  0  0  0  0  0  0
   62.0740   33.3790   47.5910 C   0  0  0  0  0  0  0  0  0  0  0  0
   61.1830   33.2760   46.5120 C   0  0  0  0  0  0  0  0  0  0  0  0
   59.8430   33.6810   46.6490 C   0  0  0  0  0  0  0  0  0  0  0  0
   58.8930   33.5590   45.4730 C   0  0  2  0  0  0  0  0  0  0  0  0
   58.5580   34.9300   44.8710 C   0  0  0  0  0  0  0  0  0  0  0  0
   57.6490   32.8110   45.8690 C   0  0  0  0  0  0  0  0  0  0  0  0
   56.8900   33.2670   46.7700 O   0  0  0  0  0  0  0  0  0  0  0  0
   57.3590   31.5930   45.2450 O   0  0  0  0  0  0  0  0  0  0  0  0
   58.3470   30.6020   44.9700 C   0  0  0  0  0  0  0  0  0  0  0  0
   58.9080   30.0580   46.2480 C   0  0  0  0  0  0  0  0  0  0  0  0
   59.6840   29.0640   46.2130 O   0  0  0  0  0  0  0  0  0  0  0  0
   58.5620   30.6650   47.5000 N   0  0  0  0  0  0  0  0  0  0  0  0
   59.2370   30.3160   48.7530 C   0  0  0  0  0  0  0  0  0  0  0  0
   58.7700   31.2380   49.8840 C   0  0  0  0  0  0  0  0  0  0  0  0
   60.7550   30.4170   48.5730 C   0  0  0  0  0  0  0  0  0  0  0  0
   59.4050   34.1890   47.8860 C   0  0  0  0  0  0  0  0  0  0  0  0
   60.2870   34.2940   48.9650 C   0  0  0  0  0  0  0  0  0  0  0  0
   61.6220   33.8930   48.8280 C   0  0  0  0  0  0  0  0  0  0  0  0
   62.5140   33.9950   49.9070 C   0  0  0  0  0  0  0  0  0  0  0  0
   66.3888   33.1928   51.9484 H   0  0  0  0  0  0  0  0  0  0  0  0
   66.1487   32.3269   50.3930 H   0  0  0  0  0  0  0  0  0  0  0  0
   66.6810   34.0425   50.3930 H   0  0  0  0  0  0  0  0  0  0  0  0
   65.3378   32.7644   48.4193 H   0  0  0  0  0  0  0  0  0  0  0  0
   63.7662   32.5744   46.4959 H   0  0  0  0  0  0  0  0  0  0  0  0
   61.5356   32.8749   45.5503 H   0  0  0  0  0  0  0  0  0  0  0  0
   59.4016   32.9799   44.6882 H   0  0  0  0  0  0  0  0  0  0  0  0
   58.3814   35.6529   45.6811 H   0  0  0  0  0  0  0  0  0  0  0  0
   59.3987   35.2732   44.2502 H   0  0  0  0  0  0  0  0  0  0  0  0
   57.6538   34.8468   44.2502 H   0  0  0  0  0  0  0  0  0  0  0  0
   57.8890   29.7824   44.3969 H   0  0  0  0  0  0  0  0  0  0  0  0
   59.1607   31.0599   44.3885 H   0  0  0  0  0  0  0  0  0  0  0  0
   57.8240   31.4070   47.5020 H   0  0  0  0  0  0  0  0  0  0  0  0
   58.9793   29.2807   49.0208 H   0  0  0  0  0  0  0  0  0  0  0  0
   59.0042   30.7757   50.8543 H   0  0  0  0  0  0  0  0  0  0  0  0
   59.2865   32.2060   49.8049 H   0  0  0  0  0  0  0  0  0  0  0  0
   57.6840   31.3943   49.8049 H   0  0  0  0  0  0  0  0  0  0  0  0
   61.2399   30.4493   49.5598 H   0  0  0  0  0  0  0  0  0  0  0  0
   61.1172   29.5410   48.0150 H   0  0  0  0  0  0  0  0  0  0  0  0
   60.9979   31.3333   48.0150 H   0  0  0  0  0  0  0  0  0  0  0  0
   58.3585   34.5065   48.0048 H   0  0  0  0  0  0  0  0  0  0  0  0
   59.9312   34.6934   49.9262 H   0  0  0  0  0  0  0  0  0  0  0  0
   62.1616   34.3948   50.8693 H   0  0  0  0  0  0  0  0  0  0  0  0
  1  2  1  0
  2  3  1  0
  3  4  2  0
  4  5  1  0
  5  6  2  0
  6  7  1  0
  7  8  2  0
  8  9  1  0
  9 10  1  0
  9 11  1  0
 11 12  2  0
 11 13  1  0
 13 14  1  0
 14 15  1  0
 15 16  2  0
 15 17  1  0
 17 18  1  0
 18 19  1  0
 18 20  1  0
  8 21  1  0
 21 22  2  0
 22 23  1  0
 23 24  2  0
 24  3  1  0
 23  6  1  0
  1 25  1  0
  1 26  1  0
  1 27  1  0
  4 28  1  0
  5 29  1  0
  7 30  1  0
  9 31  1  6
 10 32  1  0
 10 33  1  0
 10 34  1  0
 14 35  1  0
 14 36  1  0
 17 37  1  0
 18 38  1  0
 19 39  1  0
 19 40  1  0
 19 41  1  0
 20 42  1  0
 20 43  1  0
 20 44  1  0
 21 45  1  0
 22 46  1  0
 24 47  1  0
M  END
>  <UniqueID>  (4) 
4

>  <SMILES>  (4) 
COc1ccc2cc([C@H](C)C(=O)OCC(=O)NC(C)C)ccc2c1

>  <Energy>  (4) 
37.92934743213198

>  <Genealogy>  (4) 
COc1ccc2cc([C@H](C)C(=O)OCC(=O)NC(C)C)ccc2c1 (chirality)
COc1ccc2cc([C@H](C)C(=O)OCC(=O)NC(C)C)ccc2c1 (3D coordinates assigned)
COc1ccc2cc([C@H](C)C(=O)OCC(=O)NC(C)C)ccc2c1 (optimized conformer: 37.92934743213198 kcal/mol)

>  <smiles>  (4) 
COc1ccc2cc(C(C)C(=O)OCC(=O)NC(C)C)ccc2c1

>  <score_type>  (4) 
oracle

>  <origin>  (4) 
adg

>  <m_score__min__energy>  (4) 
-7.9500000000000002

>  <m_primary>  (4) 
energy

$$$$
4:0
     RDKit          3D

 49 51  0  0  0  0  0  0  0  0999 V2000
   56.2850   23.3170   43.0130 C   0  0  0  0  0  0  0  0  0  0  0  0
   56.6900   21.8470   42.8950 C   0  0  0  0  0  0  0  0  0  0  0  0
   57.9770   21.5230   43.6800 C   0  0  0  0  0  0  0  0  0  0  0  0
   57.7360   20.6200   44.8250 N   0  0  0  0  0  0  0  0  0  0  0  0
   56.7120   21.1340   45.7570 C   0  0  0  0  0  0  0  0  0  0  0  0
   57.1990   22.3880   46.5110 C   0  0  0  0  0  0  0  0  0  0  0  0
   56.3580   23.6340   46.1930 C   0  0  0  0  0  0  0  0  0  0  0  0
   56.9100   24.9050   46.8530 C   0  0  0  0  0  0  0  0  0  0  0  0
   56.9460   25.9830   45.9160 O   0  0  0  0  0  0  0  0  0  0  0  0
   57.6230   27.2000   46.0950 C   0  0  0  0  0  0  0  0  0  0  0  0
   58.7960   27.1920   46.8530 C   0  0  0  0  0  0  0  0  0  0  0  0
   59.5150   28.3700   47.0670 C   0  0  0  0  0  0  0  0  0  0  0  0
   59.0690   29.5850   46.5230 C   0  0  0  0  0  0  0  0  0  0  0  0
   57.8830   29.6090   45.7570 C   0  0  0  0  0  0  0  0  0  0  0  0
   57.1670   28.4160   45.5510 C   0  0  0  0  0  0  0  0  0  0  0  0
   57.4030   30.8870   45.1790 C   0  0  0  0  0  0  0  0  0  0  0  0
   56.3430   30.9100   44.4940 O   0  0  0  0  0  0  0  0  0  0  0  0
   58.1650   32.1380   45.4030 C   0  0  0  0  0  0  0  0  0  0  0  0
   57.7170   33.3560   44.8590 C   0  0  0  0  0  0  0  0  0  0  0  0
   58.4390   34.5340   45.0720 C   0  0  0  0  0  0  0  0  0  0  0  0
   59.6100   34.5080   45.8290 C   0  0  0  0  0  0  0  0  0  0  0  0
   60.0660   33.3080   46.3750 C   0  0  0  0  0  0  0  0  0  0  0  0
   59.3510   32.1140   46.1690 C   0  0  0  0  0  0  0  0  0  0  0  0
   59.8310   30.8360   46.7470 C   0  0  0  0  0  0  0  0  0  0  0  0
   60.8910   30.8150   47.4310 O   0  0  0  0  0  0  0  0  0  0  0  0
   56.2092   23.5923   44.0753 H   0  0  0  0  0  0  0  0  0  0  0  0
   57.0432   23.9466   42.5243 H   0  0  0  0  0  0  0  0  0  0  0  0
   55.3114   23.4695   42.5243 H   0  0  0  0  0  0  0  0  0  0  0  0
   55.8723   21.2236   43.2858 H   0  0  0  0  0  0  0  0  0  0  0  0
   56.8858   21.6390   41.8327 H   0  0  0  0  0  0  0  0  0  0  0  0
   58.6935   21.0423   42.9977 H   0  0  0  0  0  0  0  0  0  0  0  0
   58.3684   22.4697   44.0808 H   0  0  0  0  0  0  0  0  0  0  0  0
   57.4410   19.6830   44.4610 H   0  0  0  0  0  0  0  0  0  0  0  0
   58.6250   20.4650   45.3530 H   0  0  0  0  0  0  0  0  0  0  0  0
   55.8080   21.3912   45.1856 H   0  0  0  0  0  0  0  0  0  0  0  0
   56.5019   20.3498   46.4992 H   0  0  0  0  0  0  0  0  0  0  0  0
   57.1437   22.1924   47.5921 H   0  0  0  0  0  0  0  0  0  0  0  0
   58.2304   22.5913   46.1871 H   0  0  0  0  0  0  0  0  0  0  0  0
   56.3446   23.7808   45.1029 H   0  0  0  0  0  0  0  0  0  0  0  0
   55.3474   23.4639   46.5928 H   0  0  0  0  0  0  0  0  0  0  0  0
   56.2642   25.1828   47.6990 H   0  0  0  0  0  0  0  0  0  0  0  0
   57.9332   24.7064   47.2046 H   0  0  0  0  0  0  0  0  0  0  0  0
   59.1575   26.2477   47.2861 H   0  0  0  0  0  0  0  0  0  0  0  0
   60.4373   28.3457   47.6660 H   0  0  0  0  0  0  0  0  0  0  0  0
   56.2405   28.4332   44.9583 H   0  0  0  0  0  0  0  0  0  0  0  0
   56.7931   33.3814   44.2625 H   0  0  0  0  0  0  0  0  0  0  0  0
   58.0833   35.4820   44.6422 H   0  0  0  0  0  0  0  0  0  0  0  0
   60.1757   35.4365   45.9960 H   0  0  0  0  0  0  0  0  0  0  0  0
   60.9907   33.2952   46.9706 H   0  0  0  0  0  0  0  0  0  0  0  0
  1  2  1  0
  2  3  1  0
  3  4  1  0
  4  5  1  0
  5  6  1  0
  6  7  1  0
  7  8  1  0
  8  9  1  0
  9 10  1  0
 10 11  2  0
 11 12  1  0
 12 13  2  0
 13 14  1  0
 14 15  2  0
 14 16  1  0
 16 17  2  0
 16 18  1  0
 18 19  2  0
 19 20  1  0
 20 21  2  0
 21 22  1  0
 22 23  2  0
 23 24  1  0
 24 25  2  0
 15 10  1  0
 23 18  1  0
 24 13  1  0
  1 26  1  0
  1 27  1  0
  1 28  1  0
  2 29  1  0
  2 30  1  0
  3 31  1  0
  3 32  1  0
  4 33  1  0
  4 34  1  0
  5 35  1  0
  5 36  1  0
  6 37  1  0
  6 38  1  0
  7 39  1  0
  7 40  1  0
  8 41  1  0
  8 42  1  0
 11 43  1  0
 12 44  1  0
 15 45  1  0
 19 46  1  0
 20 47  1  0
 21 48  1  0
 22 49  1  0
M  CHG  1   4   1
M  END
>  <UniqueID>  (5) 
5

>  <SMILES>  (5) 
CCC[NH2+]CCCCOc1ccc2c(c1)C(=O)c1ccccc1C2=O

>  <Energy>  (5) 
50.37127695171818

>  <Genealogy>  (5) 
CCC[NH2+]CCCCOc1ccc2c(c1)C(=O)c1ccccc1C2=O (protonated)
CCC[NH2+]CCCCOc1ccc2c(c1)C(=O)c1ccccc1C2=O (3D coordinates assigned)
CCC[NH2+]CCCCOc1ccc2c(c1)C(=O)c1ccccc1C2=O (nonaromatic ring conformer: 50.37127695171818 kcal/mol)

>  <smiles>  (5) 
CCCNCCCCOc1ccc2c(c1)C(=O)c1ccccc1C2=O

>  <score_type>  (5) 
oracle

>  <origin>  (5) 
adg

>  <m_score__min__energy>  (5) 
-6.9199999999999999

>  <m_primary>  (5) 
energy

$$$$
5:0
     RDKit          3D

 38 39  0  0  0  0  0  0  0  0999 V2000
   58.5310   32.2040   49.7550 C   0  0  0  0  0  0  0  0  0  0  0  0
   59.7370   31.3130   50.0250 C   0  0  0  0  0  0  0  0  0  0  0  0
   60.9830   32.0270   49.7270 N   0  0  0  0  0  0  0  0  0  0  0  0
   61.6110   32.8850   50.7310 C   0  0  0  0  0  0  0  0  0  0  0  0
   61.5690   31.9290   48.4240 C   0  0  0  0  0  0  0  0  0  0  0  0
   62.5990   31.2200   48.2610 O   0  0  0  0  0  0  0  0  0  0  0  0
   60.9880   32.7120   47.2740 C   0  0  1  0  0  0  0  0  0  0  0  0
   59.8610   32.0770   46.5050 C   0  0  0  0  0  0  0  0  0  0  0  0
   58.9070   32.8790   45.8550 C   0  0  0  0  0  0  0  0  0  0  0  0
   57.8900   32.2880   45.0990 C   0  0  0  0  0  0  0  0  0  0  0  0
   57.8280   30.8950   44.9720 C   0  0  0  0  0  0  0  0  0  0  0  0
   56.4400   30.0900   43.9410 Br  0  0  0  0  0  0  0  0  0  0  0  0
   58.7900   30.0930   45.5980 C   0  0  0  0  0  0  0  0  0  0  0  0
   59.8060   30.6810   46.3560 C   0  0  0  0  0  0  0  0  0  0  0  0
   60.8770   34.2310   47.4500 C   0  0  0  0  0  0  0  0  0  0  0  0
   61.8980   33.6560   46.4760 C   0  0  1  0  0  0  0  0  0  0  0  0
   63.3620   33.8390   46.9160 C   0  0  0  0  0  0  0  0  0  0  0  0
   64.0950   32.5810   46.7810 N   0  0  0  0  0  0  0  0  0  0  0  0
   58.0929   32.5276   50.7107 H   0  0  0  0  0  0  0  0  0  0  0  0
   58.8484   33.0862   49.1797 H   0  0  0  0  0  0  0  0  0  0  0  0
   57.7810   31.6414   49.1797 H   0  0  0  0  0  0  0  0  0  0  0  0
   59.7359   31.0140   51.0836 H   0  0  0  0  0  0  0  0  0  0  0  0
   59.6738   30.4250   49.3789 H   0  0  0  0  0  0  0  0  0  0  0  0
   61.3479   32.5256   51.7368 H   0  0  0  0  0  0  0  0  0  0  0  0
   62.7035   32.8569   50.6057 H   0  0  0  0  0  0  0  0  0  0  0  0
   61.2540   33.9179   50.6057 H   0  0  0  0  0  0  0  0  0  0  0  0
   58.9606   33.9743   45.9413 H   0  0  0  0  0  0  0  0  0  0  0  0
   57.1373   32.9186   44.6032 H   0  0  0  0  0  0  0  0  0  0  0  0
   58.7459   28.9989   45.4930 H   0  0  0  0  0  0  0  0  0  0  0  0
   60.5659   30.0483   46.8380 H   0  0  0  0  0  0  0  0  0  0  0  0
   59.9942   34.7650   47.0686 H   0  0  0  0  0  0  0  0  0  0  0  0
   60.9238   34.9185   48.3074 H   0  0  0  0  0  0  0  0  0  0  0  0
   62.1295   33.7441   45.4042 H   0  0  0  0  0  0  0  0  0  0  0  0
   63.8371   34.6050   46.2854 H   0  0  0  0  0  0  0  0  0  0  0  0
   63.3816   34.1525   47.9702 H   0  0  0  0  0  0  0  0  0  0  0  0
   64.4450   32.2650   47.7160 H   0  0  0  0  0  0  0  0  0  0  0  0
   63.4690   31.8490   46.3750 H   0  0  0  0  0  0  0  0  0  0  0  0
   64.9090   32.7210   46.1420 H   0  0  0  0  0  0  0  0  0  0  0  0
  1  2  1  0
  2  3  1  0
  3  4  1  0
  3  5  1  0
  5  6  2  0
  7  5  1  1
  7  8  1  0
  8  9  2  0
  9 10  1  0
 10 11  2  0
 11 12  1  0
 11 13  1  0
 13 14  2  0
  7 15  1  0
 15 16  1  0
 16 17  1  0
 17 18  1  0
 16  7  1  0
 14  8  1  0
  1 19  1  0
  1 20  1  0
  1 21  1  0
  2 22  1  0
  2 23  1  0
  4 24  1  0
  4 25  1  0
  4 26  1  0
  9 27  1  0
 10 28  1  0
 13 29  1  0
 14 30  1  0
 15 31  1  0
 15 32  1  0
 16 33  1  6
 17 34  1  0
 17 35  1  0
 18 36  1  0
 18 37  1  0
 18 38  1  0
M  CHG  1  18   1
M  END
>  <UniqueID>  (6) 
6

>  <SMILES>  (6) 
CCN(C)C(=O)[C@@]1(c2ccc(Br)cc2)C[C@H]1C[NH3+]

>  <Energy>  (6) 
304.11453937550664

>  <Genealogy>  (6) 
CCN(C)C(=O)C1(c2ccc(Br)cc2)CC1C[NH3+] (protonated)
CCN(C)C(=O)[C@@]1(c2ccc(Br)cc2)C[C@H]1C[NH3+] (chirality)
CCN(C)C(=O)[C@@]1(c2ccc(Br)cc2)C[C@H]1C[NH3+] (3D coordinates assigned)
CCN(C)C(=O)[C@@]1(c2ccc(Br)cc2)C[C@H]1C[NH3+] (nonaromatic ring conformer: 304.11453937550664 kcal/mol)

>  <smiles>  (6) 
CCN(C)C(=O)C1(c2ccc(Br)cc2)CC1CN

>  <score_type>  (6) 
oracle

>  <origin>  (6) 
adg

>  <m_score__min__energy>  (6) 
-4.6299999999999999

>  <m_primary>  (6) 
energy

$$$$
6:0
     RDKit          3D

 56 59  0  0  0  0  0  0  0  0999 V2000
   63.3870   33.7660   46.3560 C   0  0  0  0  0  0  0  0  0  0  0  0
   63.1360   32.7450   47.4590 C   0  0  0  0  0  0  0  0  0  0  0  0
   62.3700   33.3640   48.5490 N   0  0  0  0  0  0  0  0  0  0  0  0
   61.5210   32.3790   49.2390 C   0  0  0  0  0  0  0  0  0  0  0  0
   60.4100   33.0720   50.0390 C   0  0  0  0  0  0  0  0  0  0  0  0
   59.3630   33.7210   49.1230 C   0  0  0  0  0  0  0  0  0  0  0  0
   59.9760   34.6420   48.2420 O   0  0  0  0  0  0  0  0  0  0  0  0
   59.1490   34.9340   47.1280 C   0  0  0  0  0  0  0  0  0  0  0  0
   59.6760   34.2220   45.8790 C   0  0  0  0  0  0  0  0  0  0  0  0
   60.3390   32.9560   46.2230 N   0  0  0  0  0  0  0  0  0  0  0  0
   59.4140   31.8580   46.0700 C   0  0  0  0  0  0  0  0  0  0  0  0
   58.2060   32.0430   45.3840 C   0  0  0  0  0  0  0  0  0  0  0  0
   57.3210   30.9790   45.2100 C   0  0  0  0  0  0  0  0  0  0  0  0
   57.6300   29.7000   45.7100 C   0  0  0  0  0  0  0  0  0  0  0  0
   56.7350   28.6300   45.5360 C   0  0  0  0  0  0  0  0  0  0  0  0
   55.5250   28.8370   44.8730 O   0  0  0  0  0  0  0  0  0  0  0  0
   57.0560   27.3490   46.0220 C   0  0  0  0  0  0  0  0  0  0  0  0
   56.1700   26.2710   45.8310 C   0  0  0  0  0  0  0  0  0  0  0  0
   56.4980   24.9950   46.2880 C   0  0  0  0  0  0  0  0  0  0  0  0
   57.7120   24.7740   46.9340 C   0  0  0  0  0  0  0  0  0  0  0  0
   58.6030   25.8290   47.1350 C   0  0  0  0  0  0  0  0  0  0  0  0
   58.2840   27.1350   46.7010 C   0  0  0  0  0  0  0  0  0  0  0  0
   59.1720   28.2190   46.9080 C   0  0  0  0  0  0  0  0  0  0  0  0
   60.4020   28.0380   47.6280 N   0  0  0  0  0  0  0  0  0  0  0  0
   60.4880   28.2690   48.8980 C   0  0  0  0  0  0  0  0  0  0  0  0
   60.3160   29.1200   49.9710 C   0  0  0  0  0  0  0  0  0  0  0  0
   60.8160   27.8500   50.1720 C   0  0  0  0  0  0  0  0  0  0  0  0
   58.8560   29.4950   46.3920 C   0  0  0  0  0  0  0  0  0  0  0  0
   59.7380   30.5840   46.5600 C   0  0  0  0  0  0  0  0  0  0  0  0
   63.6266   34.7406   46.8062 H   0  0  0  0  0  0  0  0  0  0  0  0
   64.2300   33.4328   45.7328 H   0  0  0  0  0  0  0  0  0  0  0  0
   62.4856   33.8616   45.7328 H   0  0  0  0  0  0  0  0  0  0  0  0
   62.5670   31.8976   47.0489 H   0  0  0  0  0  0  0  0  0  0  0  0
   64.1009   32.3906   47.8506 H   0  0  0  0  0  0  0  0  0  0  0  0
   61.7410   34.0860   48.1240 H   0  0  0  0  0  0  0  0  0  0  0  0
   61.0641   31.7128   48.4924 H   0  0  0  0  0  0  0  0  0  0  0  0
   62.1482   31.8049   49.9369 H   0  0  0  0  0  0  0  0  0  0  0  0
   59.9118   32.3257   50.6753 H   0  0  0  0  0  0  0  0  0  0  0  0
   60.8713   33.8659   50.6447 H   0  0  0  0  0  0  0  0  0  0  0  0
   58.8611   32.9379   48.5357 H   0  0  0  0  0  0  0  0  0  0  0  0
   58.6312   34.2577   49.7447 H   0  0  0  0  0  0  0  0  0  0  0  0
   58.1244   34.5922   47.3363 H   0  0  0  0  0  0  0  0  0  0  0  0
   59.1534   36.0198   46.9517 H   0  0  0  0  0  0  0  0  0  0  0  0
   58.8331   34.0127   45.2039 H   0  0  0  0  0  0  0  0  0  0  0  0
   60.4129   34.8775   45.3918 H   0  0  0  0  0  0  0  0  0  0  0  0
   61.1650   32.8040   45.6000 H   0  0  0  0  0  0  0  0  0  0  0  0
   60.6820   32.9920   47.2120 H   0  0  0  0  0  0  0  0  0  0  0  0
   57.9539   33.0345   44.9798 H   0  0  0  0  0  0  0  0  0  0  0  0
   56.3725   31.1410   44.6769 H   0  0  0  0  0  0  0  0  0  0  0  0
   55.2116   26.4369   45.3172 H   0  0  0  0  0  0  0  0  0  0  0  0
   55.7964   24.1612   46.1380 H   0  0  0  0  0  0  0  0  0  0  0  0
   57.9693   23.7644   47.2869 H   0  0  0  0  0  0  0  0  0  0  0  0
   59.5639   25.6417   47.6367 H   0  0  0  0  0  0  0  0  0  0  0  0
   60.0066   30.0964   50.3723 H   0  0  0  0  0  0  0  0  0  0  0  0
   61.1971   27.0726   50.8506 H   0  0  0  0  0  0  0  0  0  0  0  0
   60.6937   30.4315   47.0829 H   0  0  0  0  0  0  0  0  0  0  0  0
  1  2  1  0
  2  3  1  0
  3  4  1  0
  4  5  1  0
  5  6  1  0
  6  7  1  0
  7  8  1  0
  8  9  1  0
  9 10  1  0
 10 11  1  0
 11 12  2  0
 12 13  1  0
 13 14  2  0
 14 15  1  0
 15 16  1  0
 15 17  2  0
 17 18  1  0
 18 19  2  0
 19 20  1  0
 20 21  2  0
 21 22  1  0
 22 23  2  0
 23 24  1  0
 24 25  2  3
 25 26  1  0
 26 27  2  0
 23 28  1  0
 28 29  2  0
 29 11  1  0
 28 14  1  0
 22 17  1  0
 27 25  1  0
  1 30  1  0
  1 31  1  0
  1 32  1  0
  2 33  1  0
  2 34  1  0
  3 35  1  0
  4 36  1  0
  4 37  1  0
  5 38  1  0
  5 39  1  0
  6 40  1  0
  6 41  1  0
  8 42  1  0
  8 43  1  0
  9 44  1  0
  9 45  1  0
 10 46  1  0
 10 47  1  0
 12 48  1  0
 13 49  1  0
 18 50  1  0
 19 51  1  0
 20 52  1  0
 21 53  1  0
 26 54  1  0
 27 55  1  0
 29 56  1  0
M  CHG  2  10   1  16  -1
M  END
>  <UniqueID>  (7) 
7

>  <SMILES>  (7) 
CCNCCCOCC[NH2+]c1ccc2c([O-])c3ccccc3c(N=c3cc3)c2c1

>  <Energy>  (7) 
67.97140133254736

>  <Genealogy>  (7) 
CCNCCCOCC[NH2+]c1ccc2c([O-])c3ccccc3c(N=c3cc3)c2c1 (protonated)
CCNCCCOCC[NH2+]c1ccc2c([O-])c3ccccc3c(N=c3cc3)c2c1 (3D coordinates assigned)
CCNCCCOCC[NH2+]c1ccc2c([O-])c3ccccc3c(N=c3cc3)c2c1 (optimized conformer: 67.97140133254736 kcal/mol)

>  <smiles>  (7) 
CCNCCCOCCNc1ccc2c(O)c3ccccc3c(N=c3cc3)c2c1

>  <score_type>  (7) 
oracle

>  <origin>  (7) 
adg

>  <m_score__min__energy>  (7) 
-9.1300000000000008

>  <m_primary>  (7) 
energy

$$$$
7:0
     RDKit          3D

 51 53  0  0  0  0  0  0  0  0999 V2000
   57.0240   24.8840   45.1390 C   0  0  0  0  0  0  0  0  0  0  0  0
   56.9220   26.3470   45.5690 C   0  0  0  0  0  0  0  0  0  0  0  0
   57.4080   27.2400   44.5060 N   0  0  0  0  0  0  0  0  0  0  0  0
   58.8000   27.6440   44.7700 C   0  0  0  0  0  0  0  0  0  0  0  0
   59.1730   27.5600   46.2620 C   0  0  0  0  0  0  0  0  0  0  0  0
   60.4460   28.3220   46.6590 C   0  0  0  0  0  0  0  0  0  0  0  0
   60.1490   29.5100   47.4660 N   0  0  0  0  0  0  0  0  0  0  0  0
   60.1970   30.8420   46.9120 C   0  0  0  0  0  0  0  0  0  0  0  0
   61.3120   31.6740   47.1380 C   0  0  0  0  0  0  0  0  0  0  0  0
   62.4990   31.1720   47.7170 C   0  0  0  0  0  0  0  0  0  0  0  0
   63.5990   32.0020   47.9220 C   0  0  0  0  0  0  0  0  0  0  0  0
   63.5430   33.3380   47.5470 C   0  0  0  0  0  0  0  0  0  0  0  0
   62.3790   33.8610   46.9850 C   0  0  0  0  0  0  0  0  0  0  0  0
   61.2310   33.0510   46.7950 C   0  0  0  0  0  0  0  0  0  0  0  0
   60.0570   33.5710   46.2880 N   0  0  0  0  0  0  0  0  0  0  0  0
   59.8500   35.0350   46.2440 C   0  0  0  0  0  0  0  0  0  0  0  0
   59.0700   32.7180   45.8290 C   0  0  0  0  0  0  0  0  0  0  0  0
   58.0020   33.1830   45.0240 C   0  0  0  0  0  0  0  0  0  0  0  0
   57.0090   32.3150   44.5740 C   0  0  0  0  0  0  0  0  0  0  0  0
   57.0580   30.9580   44.8820 C   0  0  0  0  0  0  0  0  0  0  0  0
   56.0360   30.1290   44.3930 O   0  0  0  0  0  0  0  0  0  0  0  0
   55.8910   29.7470   43.0290 C   0  0  0  0  0  0  0  0  0  0  0  0
   58.1230   30.4700   45.6540 C   0  0  0  0  0  0  0  0  0  0  0  0
   59.1230   31.3370   46.1440 C   0  0  0  0  0  0  0  0  0  0  0  0
   57.0688   24.2419   46.0310 H   0  0  0  0  0  0  0  0  0  0  0  0
   56.1424   24.6161   44.5382 H   0  0  0  0  0  0  0  0  0  0  0  0
   57.9343   24.7410   44.5382 H   0  0  0  0  0  0  0  0  0  0  0  0
   55.8708   26.5859   45.7879 H   0  0  0  0  0  0  0  0  0  0  0  0
   57.5433   26.4949   46.4646 H   0  0  0  0  0  0  0  0  0  0  0  0
   56.7920   28.0820   44.4830 H   0  0  0  0  0  0  0  0  0  0  0  0
   57.3580   26.7440   43.5850 H   0  0  0  0  0  0  0  0  0  0  0  0
   59.4715   26.9832   44.2021 H   0  0  0  0  0  0  0  0  0  0  0  0
   58.9042   28.6946   44.4612 H   0  0  0  0  0  0  0  0  0  0  0  0
   58.3352   27.9683   46.8463 H   0  0  0  0  0  0  0  0  0  0  0  0
   59.3744   26.4984   46.4682 H   0  0  0  0  0  0  0  0  0  0  0  0
   61.0941   27.6506   47.2414 H   0  0  0  0  0  0  0  0  0  0  0  0
   60.9430   28.6552   45.7360 H   0  0  0  0  0  0  0  0  0  0  0  0
   59.7600   29.3610   48.4240 H   0  0  0  0  0  0  0  0  0  0  0  0
   62.5553   30.1131   48.0094 H   0  0  0  0  0  0  0  0  0  0  0  0
   64.5133   31.5985   48.3816 H   0  0  0  0  0  0  0  0  0  0  0  0
   64.4198   33.9858   47.6938 H   0  0  0  0  0  0  0  0  0  0  0  0
   62.3510   34.9187   46.6843 H   0  0  0  0  0  0  0  0  0  0  0  0
   59.7944   35.4284   47.2697 H   0  0  0  0  0  0  0  0  0  0  0  0
   60.6901   35.5084   45.7148 H   0  0  0  0  0  0  0  0  0  0  0  0
   58.9115   35.2569   45.7148 H   0  0  0  0  0  0  0  0  0  0  0  0
   57.9554   34.2471   44.7493 H   0  0  0  0  0  0  0  0  0  0  0  0
   56.1777   32.7060   43.9691 H   0  0  0  0  0  0  0  0  0  0  0  0
   55.5011   28.7198   42.9754 H   0  0  0  0  0  0  0  0  0  0  0  0
   55.1903   30.4318   42.5290 H   0  0  0  0  0  0  0  0  0  0  0  0
   56.8696   29.7943   42.5290 H   0  0  0  0  0  0  0  0  0  0  0  0
   58.1795   29.3951   45.8808 H   0  0  0  0  0  0  0  0  0  0  0  0
  1  2  1  0
  2  3  1  0
  3  4  1  0
  4  5  1  0
  5  6  1  0
  6  7  1  0
  7  8  1  0
  8  9  2  0
  9 10  1  0
 10 11  2  0
 11 12  1  0
 12 13  2  0
 13 14  1  0
 14 15  2  0
 15 16  1  0
 15 17  1  0
 17 18  2  0
 18 19  1  0
 19 20  2  0
 20 21  1  0
 21 22  1  0
 20 23  1  0
 23 24  2  0
 24  8  1  0
 14  9  1  0
 24 17  1  0
  1 25  1  0
  1 26  1  0
  1 27  1  0
  2 28  1  0
  2 29  1  0
  3 30  1  0
  3 31  1  0
  4 32  1  0
  4 33  1  0
  5 34  1  0
  5 35  1  0
  6 36  1  0
  6 37  1  0
  7 38  1  0
 10 39  1  0
 11 40  1  0
 12 41  1  0
 13 42  1  0
 16 43  1  0
 16 44  1  0
 16 45  1  0
 18 46  1  0
 19 47  1  0
 22 48  1  0
 22 49  1  0
 22 50  1  0
 23 51  1  0
M  CHG  2   3   1  15   1
M  END
>  <UniqueID>  (8) 
8

>  <SMILES>  (8) 
CC[NH2+]CCCNc1c2ccccc2[n+](C)c2ccc(OC)cc12

>  <Energy>  (8) 
70.35271013519703

>  <Genealogy>  (8) 
CC[NH2+]CCCNc1c2ccccc2[n+](C)c2ccc(OC)cc12 (protonated)
CC[NH2+]CCCNc1c2ccccc2[n+](C)c2ccc(OC)cc12 (3D coordinates assigned)
CC[NH2+]CCCNc1c2ccccc2[n+](C)c2ccc(OC)cc12 (optimized conformer: 70.35271013519703 kcal/mol)

>  <smiles>  (8) 
CCNCCCNc1c2ccccc2[n+](C)c2ccc(OC)cc12

>  <score_type>  (8) 
oracle

>  <origin>  (8) 
adg

>  <m_score__min__energy>  (8) 
-4.2800000000000002

>  <m_primary>  (8) 
energy

$$$$
8:0
     RDKit          3D

 35 35  0  0  0  0  0  0  0  0999 V2000
   60.6670   28.9720   45.1960 C   0  0  0  0  0  0  0  0  0  0  0  0
   60.1790   27.6490   45.7890 C   0  0  0  0  0  0  0  0  0  0  0  0
   58.8850   27.7940   46.6290 C   0  0  0  0  0  0  0  0  0  0  0  0
   57.6400   27.3960   45.9260 N   0  0  0  0  0  0  0  0  0  0  0  0
   57.4370   25.9280   45.9260 C   0  0  0  0  0  0  0  0  0  0  0  0
   55.9490   25.5620   46.0140 C   0  0  0  0  0  0  0  0  0  0  0  0
   55.1460   26.7110   45.9890 O   0  0  0  0  0  0  0  0  0  0  0  0
   57.5260   28.0150   44.5830 C   0  0  0  0  0  0  0  0  0  0  0  0
   56.6940   29.2690   44.6360 C   0  0  0  0  0  0  0  0  0  0  0  0
   55.4580   29.1600   44.8640 O   0  0  0  0  0  0  0  0  0  0  0  0
   57.2710   30.6190   44.4080 C   0  0  0  0  0  0  0  0  0  0  0  0
   57.2690   31.2090   43.1290 C   0  0  0  0  0  0  0  0  0  0  0  0
   57.8170   32.4800   42.9350 C   0  0  0  0  0  0  0  0  0  0  0  0
   58.3690   33.1780   44.0110 C   0  0  0  0  0  0  0  0  0  0  0  0
   58.3750   32.6050   45.2840 C   0  0  0  0  0  0  0  0  0  0  0  0
   57.8280   31.3340   45.4830 C   0  0  0  0  0  0  0  0  0  0  0  0
   60.9231   29.6663   46.0099 H   0  0  0  0  0  0  0  0  0  0  0  0
   61.5571   28.7897   44.5759 H   0  0  0  0  0  0  0  0  0  0  0  0
   59.8718   29.4113   44.5759 H   0  0  0  0  0  0  0  0  0  0  0  0
   59.9832   26.9479   44.9643 H   0  0  0  0  0  0  0  0  0  0  0  0
   60.9668   27.2846   46.4646 H   0  0  0  0  0  0  0  0  0  0  0  0
   58.9872   27.1661   47.5264 H   0  0  0  0  0  0  0  0  0  0  0  0
   58.7827   28.8649   46.8586 H   0  0  0  0  0  0  0  0  0  0  0  0
   57.8527   25.5104   44.9972 H   0  0  0  0  0  0  0  0  0  0  0  0
   57.9460   25.5109   46.8074 H   0  0  0  0  0  0  0  0  0  0  0  0
   55.6854   24.9204   45.1602 H   0  0  0  0  0  0  0  0  0  0  0  0
   55.7740   25.0331   46.9625 H   0  0  0  0  0  0  0  0  0  0  0  0
   55.7380   27.4780   46.2040 H   0  0  0  0  0  0  0  0  0  0  0  0
   58.5321   28.2660   44.2160 H   0  0  0  0  0  0  0  0  0  0  0  0
   57.0371   27.2982   43.9069 H   0  0  0  0  0  0  0  0  0  0  0  0
   56.8333   30.6659   42.2774 H   0  0  0  0  0  0  0  0  0  0  0  0
   57.8134   32.9316   41.9320 H   0  0  0  0  0  0  0  0  0  0  0  0
   58.7988   34.1786   43.8557 H   0  0  0  0  0  0  0  0  0  0  0  0
   58.8107   33.1543   46.1316 H   0  0  0  0  0  0  0  0  0  0  0  0
   57.8334   30.8894   46.4892 H   0  0  0  0  0  0  0  0  0  0  0  0
  1  2  1  0
  2  3  1  0
  3  4  1  0
  4  5  1  0
  5  6  1  0
  6  7  1  0
  4  8  1  0
  8  9  1  0
  9 10  2  0
  9 11  1  0
 11 12  2  0
 12 13  1  0
 13 14  2  0
 14 15  1  0
 15 16  2  0
 16 11  1  0
  1 17  1  0
  1 18  1  0
  1 19  1  0
  2 20  1  0
  2 21  1  0
  3 22  1  0
  3 23  1  0
  5 24  1  0
  5 25  1  0
  6 26  1  0
  6 27  1  0
  7 28  1  0
  8 29  1  0
  8 30  1  0
 12 31  1  0
 13 32  1  0
 14 33  1  0
 15 34  1  0
 16 35  1  0
M  END
>  <UniqueID>  (9) 
9

>  <SMILES>  (9) 
CCCN(CCO)CC(=O)c1ccccc1

>  <Energy>  (9) 
37.56952134334473

>  <Genealogy>  (9) 
CCCN(CCO)CC(=O)c1ccccc1 (3D coordinates assigned)
CCCN(CCO)CC(=O)c1ccccc1 (optimized conformer: 37.56952134334473 kcal/mol)

>  <smiles>  (9) 
CCCN(CCO)CC(=O)c1ccccc1

>  <score_type>  (9) 
oracle

>  <origin>  (9) 
adg

>  <m_score__min__energy>  (9) 
-6.6299999999999999

>  <m_primary>  (9) 
energy

$$$$
9:0
     RDKit          3D

 31 32  0  0  0  0  0  0  0  0999 V2000
   59.1448   30.5999   45.2492 H   0  0  0  0  0  0  0  0  0  0  0  0
   58.7870   31.6040   45.5210 C   0  0  0  0  0  0  0  0  0  0  0  0
   57.5850   32.0210   45.0790 C   0  0  0  0  0  0  0  0  0  0  0  0
   56.7400   31.1520   44.2160 C   0  0  0  0  0  0  0  0  0  0  0  0
   55.7860   30.4640   44.7700 N   0  0  0  0  0  0  0  0  0  0  0  0
   55.8240   29.0900   44.8650 O   0  0  0  0  0  0  0  0  0  0  0  0
   56.9860   28.4370   45.3500 C   0  0  0  0  0  0  0  0  0  0  0  0
   56.6907   27.5853   45.9804 H   0  0  0  0  0  0  0  0  0  0  0  0
   57.5818   29.1463   45.9432 H   0  0  0  0  0  0  0  0  0  0  0  0
   57.8170   27.9360   44.1810 C   0  0  0  0  0  0  0  0  0  0  0  0
   58.7010   27.4031   44.5613 H   0  0  0  0  0  0  0  0  0  0  0  0
   57.2121   27.2519   43.5677 H   0  0  0  0  0  0  0  0  0  0  0  0
   58.1396   28.7903   43.5677 H   0  0  0  0  0  0  0  0  0  0  0  0
   57.0120   31.0250   42.7370 C   0  0  0  0  0  0  0  0  0  0  0  0
   57.9990   30.5641   42.5840 H   0  0  0  0  0  0  0  0  0  0  0  0
   56.2376   30.3953   42.2745 H   0  0  0  0  0  0  0  0  0  0  0  0
   56.9976   32.0229   42.2745 H   0  0  0  0  0  0  0  0  0  0  0  0
   57.0100   33.3330   45.5850 C   0  0  0  0  0  0  0  0  0  0  0  0
   56.3242   33.1185   46.4179 H   0  0  0  0  0  0  0  0  0  0  0  0
   56.4905   33.8142   44.7432 H   0  0  0  0  0  0  0  0  0  0  0  0
   58.0180   34.2380   46.0440 O   0  0  0  0  0  0  0  0  0  0  0  0
   59.2260   33.7920   46.5840 C   0  0  0  0  0  0  0  0  0  0  0  0
   60.0370   34.6610   47.3210 C   0  0  0  0  0  0  0  0  0  0  0  0
   59.7230   35.7027   47.4830 H   0  0  0  0  0  0  0  0  0  0  0  0
   61.2480   34.2040   47.8520 C   0  0  0  0  0  0  0  0  0  0  0  0
   61.8835   34.8854   48.4367 H   0  0  0  0  0  0  0  0  0  0  0  0
   61.6520   32.8800   47.6400 C   0  0  0  0  0  0  0  0  0  0  0  0
   63.1730   32.3100   48.3020 Cl  0  0  0  0  0  0  0  0  0  0  0  0
   60.8470   32.0140   46.8900 C   0  0  0  0  0  0  0  0  0  0  0  0
   61.1687   30.9768   46.7149 H   0  0  0  0  0  0  0  0  0  0  0  0
   59.6300   32.4700   46.3620 C   0  0  0  0  0  0  0  0  0  0  0  0
  1  2  1  0
  2  3  2  0
  3  4  1  0
  4  5  2  0
  5  6  1  0
  6  7  1  0
  7  8  1  0
  7  9  1  0
  7 10  1  0
 10 11  1  0
 10 12  1  0
 10 13  1  0
  4 14  1  0
 14 15  1  0
 14 16  1  0
 14 17  1  0
  3 18  1  0
 18 19  1  0
 18 20  1  0
 18 21  1  0
 21 22  1  0
 22 23  2  0
 23 24  1  0
 23 25  1  0
 25 26  1  0
 25 27  2  0
 27 28  1  0
 27 29  1  0
 29 30  1  0
 29 31  2  0
 31  2  1  0
 31 22  1  0
M  END
>  <UniqueID>  (10) 
10

>  <SMILES>  (10) 
CCO/N=C(\C)C1=Cc2cc(Cl)ccc2OC1

>  <Energy>  (10) 
28.501307156537475

>  <Genealogy>  (10) 
CCO/N=C(\C)C1=Cc2cc(Cl)ccc2OC1 (cis-trans isomerization)
CCO/N=C(\C)C1=Cc2cc(Cl)ccc2OC1 (3D coordinates assigned)
CCO/N=C(\C)C1=Cc2cc(Cl)ccc2OC1 (nonaromatic ring conformer: 28.501307156537475 kcal/mol)

>  <smiles>  (10) 
CCON=C(C)C1=Cc2cc(Cl)ccc2OC1

>  <score_type>  (10) 
oracle

>  <origin>  (10) 
adg

>  <m_score__min__energy>  (10) 
-7.0099999999999998

>  <m_primary>  (10) 
energy

$$$$
10:0
     RDKit          3D

 47 48  0  0  0  0  0  0  0  0999 V2000
   59.3400   32.8680   49.9650 C   0  0  0  0  0  0  0  0  0  0  0  0
   58.5220   32.2600   48.8370 C   0  0  0  0  0  0  0  0  0  0  0  0
   59.3970   31.6330   47.9040 O   0  0  0  0  0  0  0  0  0  0  0  0
   60.6900   32.0840   47.5990 C   0  0  0  0  0  0  0  0  0  0  0  0
   61.8270   31.2680   47.7630 C   0  0  0  0  0  0  0  0  0  0  0  0
   63.0920   31.7480   47.4200 C   0  0  0  0  0  0  0  0  0  0  0  0
   63.2390   33.0420   46.9210 C   0  0  0  0  0  0  0  0  0  0  0  0
   62.1200   33.8620   46.7600 C   0  0  0  0  0  0  0  0  0  0  0  0
   60.8370   33.3850   47.0920 C   0  0  0  0  0  0  0  0  0  0  0  0
   59.6820   34.1610   46.9110 O   0  0  0  0  0  0  0  0  0  0  0  0
   59.3370   34.8230   45.6970 C   0  0  0  0  0  0  0  0  0  0  0  0
   58.0690   34.2110   45.0850 C   0  0  0  0  0  0  0  0  0  0  0  0
   57.9410   32.7610   45.3160 N   0  0  0  0  0  0  0  0  0  0  0  0
   58.0840   31.9310   44.1040 C   0  0  0  0  0  0  0  0  0  0  0  0
   58.0820   30.4410   44.4100 C   0  0  0  0  0  0  0  0  0  0  0  0
   58.8850   29.9660   45.4590 C   0  0  0  0  0  0  0  0  0  0  0  0
   58.9600   28.6050   45.7300 C   0  0  0  0  0  0  0  0  0  0  0  0
   58.2310   27.7050   44.9490 C   0  0  0  0  0  0  0  0  0  0  0  0
   58.3180   26.2330   45.2220 C   0  0  0  0  0  0  0  0  0  0  0  0
   57.3910   28.1750   43.9840 N   0  0  0  0  0  0  0  0  0  0  0  0
   57.2800   29.5080   43.7020 C   0  0  0  0  0  0  0  0  0  0  0  0
   56.2830   29.9530   42.6620 C   0  0  0  0  0  0  0  0  0  0  0  0
   58.9197   32.5556   50.9323 H   0  0  0  0  0  0  0  0  0  0  0  0
   60.3819   32.5233   49.8894 H   0  0  0  0  0  0  0  0  0  0  0  0
   59.3103   33.9650   49.8894 H   0  0  0  0  0  0  0  0  0  0  0  0
   57.8276   31.5127   49.2485 H   0  0  0  0  0  0  0  0  0  0  0  0
   57.9494   33.0508   48.3302 H   0  0  0  0  0  0  0  0  0  0  0  0
   61.7173   30.2491   48.1628 H   0  0  0  0  0  0  0  0  0  0  0  0
   63.9752   31.1040   47.5436 H   0  0  0  0  0  0  0  0  0  0  0  0
   64.2379   33.4173   46.6538 H   0  0  0  0  0  0  0  0  0  0  0  0
   62.2411   34.8843   46.3724 H   0  0  0  0  0  0  0  0  0  0  0  0
   59.1593   35.8885   45.9049 H   0  0  0  0  0  0  0  0  0  0  0  0
   60.1656   34.7058   44.9831 H   0  0  0  0  0  0  0  0  0  0  0  0
   57.1941   34.7116   45.5255 H   0  0  0  0  0  0  0  0  0  0  0  0
   58.1330   34.3591   43.9969 H   0  0  0  0  0  0  0  0  0  0  0  0
   58.5660   32.4460   46.0920 H   0  0  0  0  0  0  0  0  0  0  0  0
   57.2471   32.1521   43.4252 H   0  0  0  0  0  0  0  0  0  0  0  0
   59.0540   32.1752   43.6463 H   0  0  0  0  0  0  0  0  0  0  0  0
   59.4594   30.6767   46.0713 H   0  0  0  0  0  0  0  0  0  0  0  0
   59.5895   28.2387   46.5544 H   0  0  0  0  0  0  0  0  0  0  0  0
   58.3281   26.0616   46.3085 H   0  0  0  0  0  0  0  0  0  0  0  0
   57.4483   25.7259   44.7789 H   0  0  0  0  0  0  0  0  0  0  0  0
   59.2414   25.8318   44.7789 H   0  0  0  0  0  0  0  0  0  0  0  0
   56.8140   27.4870   43.4480 H   0  0  0  0  0  0  0  0  0  0  0  0
   55.3874   30.3528   43.1600 H   0  0  0  0  0  0  0  0  0  0  0  0
   56.7332   30.7356   42.0336 H   0  0  0  0  0  0  0  0  0  0  0  0
   56.0011   29.0953   42.0336 H   0  0  0  0  0  0  0  0  0  0  0  0
  1  2  1  0
  2  3  1  0
  3  4  1  0
  4  5  2  0
  5  6  1  0
  6  7  2  0
  7  8  1  0
  8  9  2  0
  9 10  1  0
 10 11  1  0
 11 12  1  0
 12 13  1  0
 13 14  1  0
 14 15  1  0
 15 16  2  0
 16 17  1  0
 17 18  2  0
 18 19  1  0
 18 20  1  0
 20 21  2  0
 21 22  1  0
  9  4  1  0
 21 15  1  0
  1 23  1  0
  1 24  1  0
  1 25  1  0
  2 26  1  0
  2 27  1  0
  5 28  1  0
  6 29  1  0
  7 30  1  0
  8 31  1  0
 11 32  1  0
 11 33  1  0
 12 34  1  0
 12 35  1  0
 13 36  1  0
 14 37  1  0
 14 38  1  0
 16 39  1  0
 17 40  1  0
 19 41  1  0
 19 42  1  0
 19 43  1  0
 20 44  1  0
 22 45  1  0
 22 46  1  0
 22 47  1  0
M  CHG  1  20   1
M  END
>  <UniqueID>  (11) 
11

>  <SMILES>  (11) 
CCOc1ccccc1OCCNCc1ccc(C)[nH+]c1C

>  <Energy>  (11) 
40.04277110428066

>  <Genealogy>  (11) 
CCOc1ccccc1OCCNCc1ccc(C)[nH+]c1C (protonated)
CCOc1ccccc1OCCNCc1ccc(C)[nH+]c1C (3D coordinates assigned)
CCOc1ccccc1OCCNCc1ccc(C)[nH+]c1C (optimized conformer: 40.04277110428066 kcal/mol)

>  <smiles>  (11) 
CCOc1ccccc1OCCNCc1ccc(C)nc1C

>  <score_type>  (11) 
oracle

>  <origin>  (11) 
adg

>  <m_score__min__energy>  (11) 
-6.3899999999999997

>  <m_primary>  (11) 
energy

$$$$
11:0
     RDKit          3D

 71 74  0  0  0  0  0  0  0  0999 V2000
   57.4980   31.6430   51.2530 C   0  0  0  0  0  0  0  0  0  0  0  0
   58.0640   30.3410   51.7970 C   0  0  0  0  0  0  0  0  0  0  0  0
   58.4390   29.5130   50.7170 O   0  0  0  0  0  0  0  0  0  0  0  0
   59.7440   29.0190   50.9340 C   0  0  0  0  0  0  0  0  0  0  0  0
   60.4970   28.9490   49.6030 C   0  0  0  0  0  0  0  0  0  0  0  0
   59.5490   29.0820   48.4050 C   0  0  0  0  0  0  0  0  0  0  0  0
   58.9400   30.4120   48.3730 N   0  0  0  0  0  0  0  0  0  0  0  0
   58.7630   31.1210   47.1350 C   0  0  0  0  0  0  0  0  0  0  0  0
   58.1530   30.4670   46.0480 C   0  0  0  0  0  0  0  0  0  0  0  0
   57.6620   29.1480   46.1750 C   0  0  0  0  0  0  0  0  0  0  0  0
   57.0480   28.5070   45.1030 C   0  0  0  0  0  0  0  0  0  0  0  0
   56.8880   29.1720   43.8940 C   0  0  0  0  0  0  0  0  0  0  0  0
   57.3420   30.4820   43.7500 C   0  0  0  0  0  0  0  0  0  0  0  0
   57.9950   31.1530   44.8160 C   0  0  0  0  0  0  0  0  0  0  0  0
   58.4340   32.4550   44.6900 N   0  0  0  0  0  0  0  0  0  0  0  0
   58.5230   33.0790   43.3510 C   0  0  0  0  0  0  0  0  0  0  0  0
   58.7940   33.1740   45.8130 C   0  0  0  0  0  0  0  0  0  0  0  0
   58.8870   34.5850   45.7760 C   0  0  0  0  0  0  0  0  0  0  0  0
   59.2750   35.3090   46.8960 C   0  0  0  0  0  0  0  0  0  0  0  0
   59.6230   34.6530   48.0660 C   0  0  0  0  0  0  0  0  0  0  0  0
   59.5660   33.2510   48.1470 C   0  0  0  0  0  0  0  0  0  0  0  0
   60.0330   32.5790   49.2930 O   0  0  0  0  0  0  0  0  0  0  0  0
   60.5730   33.1730   50.4740 C   0  0  0  0  0  0  0  0  0  0  0  0
   62.0600   32.8130   50.7540 C   0  0  0  0  0  0  0  0  0  0  0  0
   63.0110   32.8020   49.5890 N   0  0  0  0  0  0  0  0  0  0  0  0
   64.4110   32.7100   50.0920 C   0  0  0  0  0  0  0  0  0  0  0  0
   62.8450   34.0460   48.7790 C   0  0  0  0  0  0  0  0  0  0  0  0
   63.7040   34.0690   47.4970 C   0  0  0  0  0  0  0  0  0  0  0  0
   63.7500   32.7170   46.7730 C   0  0  0  0  0  0  0  0  0  0  0  0
   62.6380   31.7910   47.2470 C   0  0  0  0  0  0  0  0  0  0  0  0
   62.7190   31.5630   48.7690 C   0  0  0  0  0  0  0  0  0  0  0  0
   59.0520   32.5060   47.0450 C   0  0  0  0  0  0  0  0  0  0  0  0
   57.2136   32.2973   52.0902 H   0  0  0  0  0  0  0  0  0  0  0  0
   58.2592   32.1449   50.6376 H   0  0  0  0  0  0  0  0  0  0  0  0
   56.6118   31.4288   50.6376 H   0  0  0  0  0  0  0  0  0  0  0  0
   58.9447   30.5544   52.4206 H   0  0  0  0  0  0  0  0  0  0  0  0
   57.3028   29.8324   52.4068 H   0  0  0  0  0  0  0  0  0  0  0  0
   60.2792   29.6899   51.6221 H   0  0  0  0  0  0  0  0  0  0  0  0
   59.6841   28.0118   51.3721 H   0  0  0  0  0  0  0  0  0  0  0  0
   61.2332   29.7656   49.5670 H   0  0  0  0  0  0  0  0  0  0  0  0
   60.9913   27.9683   49.5408 H   0  0  0  0  0  0  0  0  0  0  0  0
   60.1161   28.9220   47.4762 H   0  0  0  0  0  0  0  0  0  0  0  0
   58.7518   28.3300   48.4995 H   0  0  0  0  0  0  0  0  0  0  0  0
   58.6690   30.8940   49.2600 H   0  0  0  0  0  0  0  0  0  0  0  0
   57.7665   28.6205   47.1346 H   0  0  0  0  0  0  0  0  0  0  0  0
   56.6892   27.4730   45.2132 H   0  0  0  0  0  0  0  0  0  0  0  0
   56.4019   28.6636   43.0483 H   0  0  0  0  0  0  0  0  0  0  0  0
   57.1915   31.0044   42.7937 H   0  0  0  0  0  0  0  0  0  0  0  0
   58.6775   34.1625   43.4610 H   0  0  0  0  0  0  0  0  0  0  0  0
   59.3679   32.6423   42.7984 H   0  0  0  0  0  0  0  0  0  0  0  0
   57.5897   32.8960   42.7984 H   0  0  0  0  0  0  0  0  0  0  0  0
   58.6479   35.1181   44.8440 H   0  0  0  0  0  0  0  0  0  0  0  0
   59.3062   36.4078   46.8541 H   0  0  0  0  0  0  0  0  0  0  0  0
   59.9473   35.2358   48.9407 H   0  0  0  0  0  0  0  0  0  0  0  0
   60.4967   34.2659   50.3748 H   0  0  0  0  0  0  0  0  0  0  0  0
   59.9904   32.7765   51.3186 H   0  0  0  0  0  0  0  0  0  0  0  0
   62.4425   33.5429   51.4827 H   0  0  0  0  0  0  0  0  0  0  0  0
   62.0317   31.7685   51.0979 H   0  0  0  0  0  0  0  0  0  0  0  0
   64.4062   32.7103   51.1920 H   0  0  0  0  0  0  0  0  0  0  0  0
   64.8711   31.7797   49.7276 H   0  0  0  0  0  0  0  0  0  0  0  0
   64.9889   33.5721   49.7276 H   0  0  0  0  0  0  0  0  0  0  0  0
   61.7872   34.1342   48.4903 H   0  0  0  0  0  0  0  0  0  0  0  0
   63.1795   34.8857   49.4060 H   0  0  0  0  0  0  0  0  0  0  0  0
   63.2855   34.8190   46.8097 H   0  0  0  0  0  0  0  0  0  0  0  0
   64.7334   34.3121   47.7989 H   0  0  0  0  0  0  0  0  0  0  0  0
   63.6372   32.8866   45.6920 H   0  0  0  0  0  0  0  0  0  0  0  0
   64.7153   32.2390   46.9963 H   0  0  0  0  0  0  0  0  0  0  0  0
   61.6653   32.2426   47.0024 H   0  0  0  0  0  0  0  0  0  0  0  0
   62.7510   30.8207   46.7412 H   0  0  0  0  0  0  0  0  0  0  0  0
   61.7552   31.1520   49.1039 H   0  0  0  0  0  0  0  0  0  0  0  0
   63.5663   30.8808   48.9321 H   0  0  0  0  0  0  0  0  0  0  0  0
  1  2  1  0
  2  3  1  0
  3  4  1  0
  4  5  1  0
  5  6  1  0
  6  7  1  0
  7  8  1  0
  8  9  2  0
  9 10  1  0
 10 11  2  0
 11 12  1  0
 12 13  2  0
 13 14  1  0
 14 15  2  0
 15 16  1  0
 15 17  1  0
 17 18  2  0
 18 19  1  0
 19 20  2  0
 20 21  1  0
 21 22  1  0
 22 23  1  0
 23 24  1  0
 24 25  1  0
 25 26  1  0
 25 27  1  0
 27 28  1  0
 28 29  1  0
 29 30  1  0
 30 31  1  0
 21 32  2  0
 32  8  1  0
 14  9  1  0
 32 17  1  0
 31 25  1  0
  1 33  1  0
  1 34  1  0
  1 35  1  0
  2 36  1  0
  2 37  1  0
  4 38  1  0
  4 39  1  0
  5 40  1  0
  5 41  1  0
  6 42  1  0
  6 43  1  0
  7 44  1  0
 10 45  1  0
 11 46  1  0
 12 47  1  0
 13 48  1  0
 16 49  1  0
 16 50  1  0
 16 51  1  0
 18 52  1  0
 19 53  1  0
 20 54  1  0
 23 55  1  0
 23 56  1  0
 24 57  1  0
 24 58  1  0
 26 59  1  0
 26 60  1  0
 26 61  1  0
 27 62  1  0
 27 63  1  0
 28 64  1  0
 28 65  1  0
 29 66  1  0
 29 67  1  0
 30 68  1  0
 30 69  1  0
 31 70  1  0
 31 71  1  0
M  CHG  2  15   1  25   1
M  END
>  <UniqueID>  (12) 
12

>  <SMILES>  (12) 
CCOCCCNc1c2ccccc2[n+](C)c2cccc(OCC[N+]3(C)CCCCC3)c12

>  <Energy>  (12) 
114.54814162984883

>  <Genealogy>  (12) 
CCOCCCNc1c2ccccc2[n+](C)c2cccc(OCC[N+]3(C)CCCCC3)c12 (3D coordinates assigned)
CCOCCCNc1c2ccccc2[n+](C)c2cccc(OCC[N+]3(C)CCCCC3)c12 (nonaromatic ring conformer: 114.54814162984883 kcal/mol)

>  <smiles>  (12) 
CCOCCCNc1c2ccccc2[n+](C)c2cccc(OCC[N+]3(C)CCCCC3)c12

>  <score_type>  (12) 
oracle

>  <origin>  (12) 
adg

>  <m_score__min__energy>  (12) 
-5.6399999999999997

>  <m_primary>  (12) 
energy

$$$$
12:0
     RDKit          3D

 48 49  0  0  0  0  0  0  0  0999 V2000
   60.7350   34.1180   48.9990 C   0  0  0  0  0  0  0  0  0  0  0  0
   60.9120   33.6950   47.5400 C   0  0  0  0  0  0  0  0  0  0  0  0
   61.2620   32.2720   47.3620 N   0  0  0  0  0  0  0  0  0  0  0  0
   62.6810   31.8880   47.5100 C   0  0  0  0  0  0  0  0  0  0  0  0
   63.6750   32.9900   47.1330 C   0  0  0  0  0  0  0  0  0  0  0  0
   60.0540   31.1200   47.8930 S   0  0  0  0  0  0  0  0  0  0  0  0
   60.6150   30.3350   49.0460 O   0  0  0  0  0  0  0  0  0  0  0  0
   58.8350   31.8500   48.3870 O   0  0  0  0  0  0  0  0  0  0  0  0
   59.5930   29.9880   46.6210 C   0  0  0  0  0  0  0  0  0  0  0  0
   60.5570   29.5200   45.7180 C   0  0  0  0  0  0  0  0  0  0  0  0
   60.1950   28.6400   44.6960 C   0  0  0  0  0  0  0  0  0  0  0  0
   58.8710   28.2120   44.5730 C   0  0  0  0  0  0  0  0  0  0  0  0
   57.8930   28.6540   45.4830 C   0  0  0  0  0  0  0  0  0  0  0  0
   56.4880   28.2050   45.3530 C   0  0  0  0  0  0  0  0  0  0  0  0
   56.1060   27.1440   45.9190 O   0  0  0  0  0  0  0  0  0  0  0  0
   55.5590   28.9710   44.5820 N   0  0  0  0  0  0  0  0  0  0  0  0
   55.6030   30.4260   44.4980 C   0  0  0  0  0  0  0  0  0  0  0  0
   56.8280   30.8730   43.6990 C   0  0  0  0  0  0  0  0  0  0  0  0
   57.4590   32.1050   44.2950 C   0  0  0  0  0  0  0  0  0  0  0  0
   57.0390   32.5860   45.5470 C   0  0  0  0  0  0  0  0  0  0  0  0
   57.6390   33.7200   46.1040 C   0  0  0  0  0  0  0  0  0  0  0  0
   58.6740   34.3690   45.4260 C   0  0  0  0  0  0  0  0  0  0  0  0
   59.1070   33.8890   44.1870 C   0  0  0  0  0  0  0  0  0  0  0  0
   58.5040   32.7610   43.6220 C   0  0  0  0  0  0  0  0  0  0  0  0
   58.2690   29.5360   46.5120 C   0  0  0  0  0  0  0  0  0  0  0  0
   61.0745   33.3067   49.6597 H   0  0  0  0  0  0  0  0  0  0  0  0
   61.3301   35.0225   49.1933 H   0  0  0  0  0  0  0  0  0  0  0  0
   59.6731   34.3291   49.1933 H   0  0  0  0  0  0  0  0  0  0  0  0
   59.9688   33.8877   47.0079 H   0  0  0  0  0  0  0  0  0  0  0  0
   61.7532   34.2804   47.1404 H   0  0  0  0  0  0  0  0  0  0  0  0
   62.8553   31.6116   48.5603 H   0  0  0  0  0  0  0  0  0  0  0  0
   62.8559   31.0546   46.8137 H   0  0  0  0  0  0  0  0  0  0  0  0
   64.0840   33.4435   48.0479 H   0  0  0  0  0  0  0  0  0  0  0  0
   64.4944   32.5575   46.5401 H   0  0  0  0  0  0  0  0  0  0  0  0
   63.1606   33.7607   46.5401 H   0  0  0  0  0  0  0  0  0  0  0  0
   61.6028   29.8471   45.8146 H   0  0  0  0  0  0  0  0  0  0  0  0
   60.9549   28.2827   43.9855 H   0  0  0  0  0  0  0  0  0  0  0  0
   58.5914   27.5256   43.7602 H   0  0  0  0  0  0  0  0  0  0  0  0
   54.6920   30.7887   43.9994 H   0  0  0  0  0  0  0  0  0  0  0  0
   55.6665   30.8421   45.5143 H   0  0  0  0  0  0  0  0  0  0  0  0
   57.5680   30.0592   43.6948 H   0  0  0  0  0  0  0  0  0  0  0  0
   56.5029   31.1132   42.6760 H   0  0  0  0  0  0  0  0  0  0  0  0
   56.2351   32.0685   46.0910 H   0  0  0  0  0  0  0  0  0  0  0  0
   57.2956   34.1013   47.0770 H   0  0  0  0  0  0  0  0  0  0  0  0
   59.1481   35.2580   45.8675 H   0  0  0  0  0  0  0  0  0  0  0  0
   59.9236   34.3994   43.6553 H   0  0  0  0  0  0  0  0  0  0  0  0
   58.8488   32.3857   42.6472 H   0  0  0  0  0  0  0  0  0  0  0  0
   57.5168   29.8753   47.2394 H   0  0  0  0  0  0  0  0  0  0  0  0
  1  2  1  0
  2  3  1  0
  3  4  1  0
  4  5  1  0
  3  6  1  0
  6  7  2  0
  6  8  2  0
  6  9  1  0
  9 10  2  0
 10 11  1  0
 11 12  2  0
 12 13  1  0
 13 14  1  0
 14 15  2  0
 14 16  1  0
 16 17  1  0
 17 18  1  0
 18 19  1  0
 19 20  2  0
 20 21  1  0
 21 22  2  0
 22 23  1  0
 23 24  2  0
 13 25  2  0
 25  9  1  0
 24 19  1  0
  1 26  1  0
  1 27  1  0
  1 28  1  0
  2 29  1  0
  2 30  1  0
  4 31  1  0
  4 32  1  0
  5 33  1  0
  5 34  1  0
  5 35  1  0
 10 36  1  0
 11 37  1  0
 12 38  1  0
 17 39  1  0
 17 40  1  0
 18 41  1  0
 18 42  1  0
 20 43  1  0
 21 44  1  0
 22 45  1  0
 23 46  1  0
 24 47  1  0
 25 48  1  0
M  CHG  1  16  -1
M  END
>  <UniqueID>  (13) 
13

>  <SMILES>  (13) 
CCN(CC)S(=O)(=O)c1cccc(C(=O)[N-]CCc2ccccc2)c1

>  <Energy>  (13) 
47.959587674001845

>  <Genealogy>  (13) 
CCN(CC)S(=O)(=O)c1cccc(C(=O)[N-]CCc2ccccc2)c1 (protonated)
CCN(CC)S(=O)(=O)c1cccc(C(=O)[N-]CCc2ccccc2)c1 (3D coordinates assigned)
CCN(CC)S(=O)(=O)c1cccc(C(=O)[N-]CCc2ccccc2)c1 (optimized conformer: 47.959587674001845 kcal/mol)

>  <smiles>  (13) 
CCN(CC)S(=O)(=O)c1cccc(C(=O)NCCc2ccccc2)c1

>  <score_type>  (13) 
oracle

>  <origin>  (13) 
adg

>  <m_score__min__energy>  (13) 
-10.73

>  <m_primary>  (13) 
energy

$$$$
13:0
     RDKit          3D

 50 52  0  0  0  0  0  0  0  0999 V2000
   56.7440   30.6160   42.9870 C   0  0  0  0  0  0  0  0  0  0  0  0
   55.5290   30.0630   43.7180 C   0  0  0  0  0  0  0  0  0  0  0  0
   55.9540   29.4600   44.9190 O   0  0  0  0  0  0  0  0  0  0  0  0
   57.1230   28.7030   44.6870 C   0  0  0  0  0  0  0  0  0  0  0  0
   58.2850   29.2840   45.5030 C   0  0  0  0  0  0  0  0  0  0  0  0
   57.8660   30.3430   46.4450 N   0  0  0  0  0  0  0  0  0  0  0  0
   58.9580   31.2320   46.8250 C   0  0  0  0  0  0  0  0  0  0  0  0
   59.9780   30.7730   47.6980 C   0  0  0  0  0  0  0  0  0  0  0  0
   61.0280   31.6370   48.0770 C   0  0  0  0  0  0  0  0  0  0  0  0
   61.0290   32.9620   47.6940 N   0  0  0  0  0  0  0  0  0  0  0  0
   61.9910   33.9040   48.3170 C   0  0  0  0  0  0  0  0  0  0  0  0
   63.3600   33.8310   47.6370 C   0  0  0  0  0  0  0  0  0  0  0  0
   60.1130   33.4110   46.7580 C   0  0  0  0  0  0  0  0  0  0  0  0
   60.2150   34.7110   46.1890 C   0  0  0  0  0  0  0  0  0  0  0  0
   59.2880   35.1730   45.2620 C   0  0  0  0  0  0  0  0  0  0  0  0
   58.2410   34.3630   44.8640 C   0  0  0  0  0  0  0  0  0  0  0  0
   58.1190   33.0760   45.3760 C   0  0  0  0  0  0  0  0  0  0  0  0
   59.0490   32.5630   46.3200 C   0  0  0  0  0  0  0  0  0  0  0  0
   62.1660   30.9970   48.8700 C   0  0  0  0  0  0  0  0  0  0  0  0
   61.6200   30.2150   50.0720 C   0  0  0  0  0  0  0  0  0  0  0  0
   60.3870   29.3490   49.7320 C   0  0  0  0  0  0  0  0  0  0  0  0
   60.0380   29.3460   48.2360 C   0  0  0  0  0  0  0  0  0  0  0  0
   57.4901   30.9556   43.7205 H   0  0  0  0  0  0  0  0  0  0  0  0
   57.1821   29.8286   42.3561 H   0  0  0  0  0  0  0  0  0  0  0  0
   56.4380   31.4635   42.3561 H   0  0  0  0  0  0  0  0  0  0  0  0
   54.8294   30.8815   43.9432 H   0  0  0  0  0  0  0  0  0  0  0  0
   55.0211   29.3189   43.0868 H   0  0  0  0  0  0  0  0  0  0  0  0
   56.9493   27.6598   44.9896 H   0  0  0  0  0  0  0  0  0  0  0  0
   57.3748   28.7399   43.6168 H   0  0  0  0  0  0  0  0  0  0  0  0
   58.7496   28.4693   46.0778 H   0  0  0  0  0  0  0  0  0  0  0  0
   58.9870   29.7412   44.7902 H   0  0  0  0  0  0  0  0  0  0  0  0
   57.0340   30.8420   46.0720 H   0  0  0  0  0  0  0  0  0  0  0  0
   57.4720   29.9000   47.3040 H   0  0  0  0  0  0  0  0  0  0  0  0
   61.5998   34.9281   48.2260 H   0  0  0  0  0  0  0  0  0  0  0  0
   62.1133   33.6267   49.3744 H   0  0  0  0  0  0  0  0  0  0  0  0
   64.1482   33.7890   48.4032 H   0  0  0  0  0  0  0  0  0  0  0  0
   63.4101   32.9289   47.0095 H   0  0  0  0  0  0  0  0  0  0  0  0
   63.5057   34.7227   47.0095 H   0  0  0  0  0  0  0  0  0  0  0  0
   61.0465   35.3655   46.4895 H   0  0  0  0  0  0  0  0  0  0  0  0
   59.3878   36.1856   44.8441 H   0  0  0  0  0  0  0  0  0  0  0  0
   57.5022   34.7376   44.1402 H   0  0  0  0  0  0  0  0  0  0  0  0
   57.2846   32.4413   45.0431 H   0  0  0  0  0  0  0  0  0  0  0  0
   62.7204   30.3096   48.2142 H   0  0  0  0  0  0  0  0  0  0  0  0
   62.8297   31.7928   49.2391 H   0  0  0  0  0  0  0  0  0  0  0  0
   62.4156   29.5558   50.4496 H   0  0  0  0  0  0  0  0  0  0  0  0
   61.3010   30.9537   50.8220 H   0  0  0  0  0  0  0  0  0  0  0  0
   60.5906   28.3142   50.0447 H   0  0  0  0  0  0  0  0  0  0  0  0
   59.5282   29.7828   50.2652 H   0  0  0  0  0  0  0  0  0  0  0  0
   60.8071   28.7839   47.6860 H   0  0  0  0  0  0  0  0  0  0  0  0
   59.0538   28.8735   48.1013 H   0  0  0  0  0  0  0  0  0  0  0  0
  1  2  1  0
  2  3  1  0
  3  4  1  0
  4  5  1  0
  5  6  1  0
  6  7  1  0
  7  8  2  0
  8  9  1  0
  9 10  2  0
 10 11  1  0
 11 12  1  0
 10 13  1  0
 13 14  2  0
 14 15  1  0
 15 16  2  0
 16 17  1  0
 17 18  2  0
  9 19  1  0
 19 20  1  0
 20 21  1  0
 21 22  1  0
 18  7  1  0
 22  8  1  0
 18 13  1  0
  1 23  1  0
  1 24  1  0
  1 25  1  0
  2 26  1  0
  2 27  1  0
  4 28  1  0
  4 29  1  0
  5 30  1  0
  5 31  1  0
  6 32  1  0
  6 33  1  0
 11 34  1  0
 11 35  1  0
 12 36  1  0
 12 37  1  0
 12 38  1  0
 14 39  1  0
 15 40  1  0
 16 41  1  0
 17 42  1  0
 19 43  1  0
 19 44  1  0
 20 45  1  0
 20 46  1  0
 21 47  1  0
 21 48  1  0
 22 49  1  0
 22 50  1  0
M  CHG  2   6   1  10   1
M  END
>  <UniqueID>  (14) 
14

>  <SMILES>  (14) 
CCOCC[NH2+]c1c2c([n+](CC)c3ccccc13)CCCC2

>  <Energy>  (14) 
74.03924581355272

>  <Genealogy>  (14) 
CCOCC[NH2+]c1c2c([n+](CC)c3ccccc13)CCCC2 (protonated)
CCOCC[NH2+]c1c2c([n+](CC)c3ccccc13)CCCC2 (3D coordinates assigned)
CCOCC[NH2+]c1c2c([n+](CC)c3ccccc13)CCCC2 (nonaromatic ring conformer: 74.03924581355272 kcal/mol)

>  <smiles>  (14) 
CCOCCNc1c2c([n+](CC)c3ccccc13)CCCC2

>  <score_type>  (14) 
oracle

>  <origin>  (14) 
adg

>  <m_score__min__energy>  (14) 
-4.2800000000000002

>  <m_primary>  (14) 
energy

$$$$
14:0
     RDKit          3D

 38 39  0  0  0  0  0  0  0  0999 V2000
   60.7640   29.2080   49.7670 C   0  0  0  0  0  0  0  0  0  0  0  0
   59.3370   28.9750   49.2820 C   0  0  0  0  0  0  0  0  0  0  0  0
   59.3190   28.1180   48.0130 C   0  0  0  0  0  0  0  0  0  0  0  0
   58.8830   28.9200   46.8610 N   0  0  0  0  0  0  0  0  0  0  0  0
   58.2880   28.2520   45.6940 C   0  0  0  0  0  0  0  0  0  0  0  0
   58.3960   29.1410   44.4490 C   0  0  0  0  0  0  0  0  0  0  0  0
   56.8740   30.0290   44.1490 S   0  0  0  0  0  0  0  0  0  0  0  0
   56.2660   29.6590   42.5150 C   0  0  0  0  0  0  0  0  0  0  0  0
   55.8380   29.6400   45.1670 O   0  0  0  0  0  0  0  0  0  0  0  0
   57.1380   31.5040   44.2510 O   0  0  0  0  0  0  0  0  0  0  0  0
   59.0330   30.3540   46.8620 C   0  0  0  0  0  0  0  0  0  0  0  0
   58.0230   31.2250   46.6030 N   0  0  0  0  0  0  0  0  0  0  0  0
   58.6100   32.4230   46.7390 C   0  0  0  0  0  0  0  0  0  0  0  0
   58.0430   33.6870   46.6060 C   0  0  0  0  0  0  0  0  0  0  0  0
   58.8790   34.8010   46.8270 C   0  0  0  0  0  0  0  0  0  0  0  0
   60.2440   34.6200   47.1520 C   0  0  0  0  0  0  0  0  0  0  0  0
   60.7830   33.3240   47.2730 C   0  0  0  0  0  0  0  0  0  0  0  0
   59.9240   32.2480   47.0620 C   0  0  0  0  0  0  0  0  0  0  0  0
   60.1770   30.9650   47.1330 O   0  0  0  0  0  0  0  0  0  0  0  0
   60.7816   29.2109   50.8669 H   0  0  0  0  0  0  0  0  0  0  0  0
   61.4146   28.4042   49.3920 H   0  0  0  0  0  0  0  0  0  0  0  0
   61.1251   30.1770   49.3920 H   0  0  0  0  0  0  0  0  0  0  0  0
   58.7689   28.4605   50.0710 H   0  0  0  0  0  0  0  0  0  0  0  0
   58.8827   29.9500   49.0516 H   0  0  0  0  0  0  0  0  0  0  0  0
   60.3306   27.7301   47.8229 H   0  0  0  0  0  0  0  0  0  0  0  0
   58.6157   27.2841   48.1547 H   0  0  0  0  0  0  0  0  0  0  0  0
   58.8184   27.3061   45.5097 H   0  0  0  0  0  0  0  0  0  0  0  0
   57.2249   28.0587   45.9002 H   0  0  0  0  0  0  0  0  0  0  0  0
   59.2104   29.8657   44.5961 H   0  0  0  0  0  0  0  0  0  0  0  0
   58.5989   28.4975   43.5802 H   0  0  0  0  0  0  0  0  0  0  0  0
   55.3287   29.0886   42.5930 H   0  0  0  0  0  0  0  0  0  0  0  0
   56.0801   30.5973   41.9718 H   0  0  0  0  0  0  0  0  0  0  0  0
   57.0139   29.0628   41.9718 H   0  0  0  0  0  0  0  0  0  0  0  0
   57.0210   31.0300   46.3760 H   0  0  0  0  0  0  0  0  0  0  0  0
   56.9833   33.8123   46.3387 H   0  0  0  0  0  0  0  0  0  0  0  0
   58.4670   35.8177   46.7461 H   0  0  0  0  0  0  0  0  0  0  0  0
   60.8887   35.4969   47.3113 H   0  0  0  0  0  0  0  0  0  0  0  0
   61.8424   33.1677   47.5246 H   0  0  0  0  0  0  0  0  0  0  0  0
  1  2  1  0
  2  3  1  0
  3  4  1  0
  4  5  1  0
  5  6  1  0
  6  7  1  0
  7  8  1  0
  7  9  2  0
  7 10  2  0
  4 11  1  0
 11 12  2  0
 12 13  1  0
 13 14  2  0
 14 15  1  0
 15 16  2  0
 16 17  1  0
 17 18  2  0
 18 19  1  0
 19 11  1  0
 18 13  1  0
  1 20  1  0
  1 21  1  0
  1 22  1  0
  2 23  1  0
  2 24  1  0
  3 25  1  0
  3 26  1  0
  5 27  1  0
  5 28  1  0
  6 29  1  0
  6 30  1  0
  8 31  1  0
  8 32  1  0
  8 33  1  0
 12 34  1  0
 14 35  1  0
 15 36  1  0
 16 37  1  0
 17 38  1  0
M  CHG  1  12   1
M  END
>  <UniqueID>  (15) 
15

>  <SMILES>  (15) 
CCCN(CCS(C)(=O)=O)c1[nH+]c2ccccc2o1

>  <Energy>  (15) 
60.52910525585614

>  <Genealogy>  (15) 
CCCN(CCS(C)(=O)=O)c1[nH+]c2ccccc2o1 (protonated)
CCCN(CCS(C)(=O)=O)c1[nH+]c2ccccc2o1 (3D coordinates assigned)
CCCN(CCS(C)(=O)=O)c1[nH+]c2ccccc2o1 (optimized conformer: 60.52910525585614 kcal/mol)

>  <smiles>  (15) 
CCCN(CCS(C)(=O)=O)c1nc2ccccc2o1

>  <score_type>  (15) 
oracle

>  <origin>  (15) 
adg

>  <m_score__min__energy>  (15) 
-4.6799999999999997

>  <m_primary>  (15) 
energy

$$$$
15:0
     RDKit          3D

 51 54  0  0  0  0  0  0  0  0999 V2000
   56.4810   24.7350   45.8010 C   0  0  0  0  0  0  0  0  0  0  0  0
   57.1770   26.0130   46.1600 C   0  0  0  0  0  0  0  0  0  0  0  0
   58.3580   25.9830   46.9350 C   0  0  0  0  0  0  0  0  0  0  0  0
   59.0240   27.1800   47.2320 C   0  0  0  0  0  0  0  0  0  0  0  0
   58.5010   28.3470   46.7660 N   0  0  0  0  0  0  0  0  0  0  0  0
   58.9360   29.6180   46.8800 C   0  0  0  0  0  0  0  0  0  0  0  0
   60.1830   30.0390   47.6190 C   0  0  0  0  0  0  0  0  0  0  0  0
   61.1070   30.9180   46.7620 C   0  0  0  0  0  0  0  0  0  0  0  0
   62.2790   31.3730   47.5490 N   0  0  0  0  0  0  0  0  0  0  0  0
   62.0430   31.3450   49.0120 C   0  0  0  0  0  0  0  0  0  0  0  0
   61.4180   32.6500   49.5480 C   0  0  0  0  0  0  0  0  0  0  0  0
   60.7920   33.4090   48.4520 N   0  0  0  0  0  0  0  0  0  0  0  0
   60.0710   34.5760   48.9820 C   0  0  0  0  0  0  0  0  0  0  0  0
   61.8090   33.8360   47.4710 C   0  0  0  0  0  0  0  0  0  0  0  0
   62.7840   32.6890   47.1160 C   0  0  0  0  0  0  0  0  0  0  0  0
   58.0650   30.4160   46.1300 C   0  0  0  0  0  0  0  0  0  0  0  0
   58.1870   31.8590   45.8180 C   0  0  0  0  0  0  0  0  0  0  0  0
   58.4110   32.2560   44.4870 C   0  0  0  0  0  0  0  0  0  0  0  0
   58.5170   33.6110   44.1600 C   0  0  0  0  0  0  0  0  0  0  0  0
   58.3880   34.5830   45.1540 C   0  0  0  0  0  0  0  0  0  0  0  0
   58.1450   34.2010   46.4750 C   0  0  0  0  0  0  0  0  0  0  0  0
   58.0390   32.8470   46.8060 C   0  0  0  0  0  0  0  0  0  0  0  0
   57.1050   29.6400   45.5700 N   0  0  0  0  0  0  0  0  0  0  0  0
   57.4030   28.3980   45.9950 C   0  0  0  0  0  0  0  0  0  0  0  0
   56.7020   27.2410   45.6610 C   0  0  0  0  0  0  0  0  0  0  0  0
   56.1919   24.2042   46.7201 H   0  0  0  0  0  0  0  0  0  0  0  0
   55.5814   24.9610   45.2097 H   0  0  0  0  0  0  0  0  0  0  0  0
   57.1589   24.1019   45.2097 H   0  0  0  0  0  0  0  0  0  0  0  0
   58.7529   25.0248   47.3035 H   0  0  0  0  0  0  0  0  0  0  0  0
   59.9484   27.1763   47.8282 H   0  0  0  0  0  0  0  0  0  0  0  0
   59.8879   30.6057   48.5144 H   0  0  0  0  0  0  0  0  0  0  0  0
   60.7391   29.1272   47.8822 H   0  0  0  0  0  0  0  0  0  0  0  0
   61.4574   30.3364   45.8965 H   0  0  0  0  0  0  0  0  0  0  0  0
   60.5429   31.8008   46.4267 H   0  0  0  0  0  0  0  0  0  0  0  0
   61.3633   30.5111   49.2413 H   0  0  0  0  0  0  0  0  0  0  0  0
   63.0212   31.2244   49.5004 H   0  0  0  0  0  0  0  0  0  0  0  0
   60.6542   32.4035   50.3003 H   0  0  0  0  0  0  0  0  0  0  0  0
   62.2102   33.2649   50.0001 H   0  0  0  0  0  0  0  0  0  0  0  0
   60.0877   34.5490   50.0815 H   0  0  0  0  0  0  0  0  0  0  0  0
   60.5571   35.4980   48.6304 H   0  0  0  0  0  0  0  0  0  0  0  0
   59.0289   34.5539   48.6304 H   0  0  0  0  0  0  0  0  0  0  0  0
   61.3010   34.1679   46.5535 H   0  0  0  0  0  0  0  0  0  0  0  0
   62.3927   34.6539   47.9186 H   0  0  0  0  0  0  0  0  0  0  0  0
   62.9281   32.6716   46.0256 H   0  0  0  0  0  0  0  0  0  0  0  0
   63.7313   32.8766   47.6427 H   0  0  0  0  0  0  0  0  0  0  0  0
   58.5034   31.4949   43.6982 H   0  0  0  0  0  0  0  0  0  0  0  0
   58.7023   33.9118   43.1183 H   0  0  0  0  0  0  0  0  0  0  0  0
   58.4777   35.6487   44.8968 H   0  0  0  0  0  0  0  0  0  0  0  0
   58.0368   34.9672   47.2568 H   0  0  0  0  0  0  0  0  0  0  0  0
   57.8384   32.5531   47.8469 H   0  0  0  0  0  0  0  0  0  0  0  0
   55.8045   27.2856   45.0266 H   0  0  0  0  0  0  0  0  0  0  0  0
  1  2  1  0
  2  3  1  0
  3  4  2  0
  4  5  1  0
  5  6  1  0
  6  7  1  0
  7  8  1  0
  8  9  1  0
  9 10  1  0
 10 11  1  0
 11 12  1  0
 12 13  1  0
 12 14  1  0
 14 15  1  0
  6 16  2  0
 16 17  1  0
 17 18  2  0
 18 19  1  0
 19 20  2  0
 20 21  1  0
 21 22  2  0
 16 23  1  0
 23 24  2  0
 24 25  1  0
 25  2  2  0
 24  5  1  0
 15  9  1  0
 22 17  1  0
  1 26  1  0
  1 27  1  0
  1 28  1  0
  3 29  1  0
  4 30  1  0
  7 31  1  0
  7 32  1  0
  8 33  1  0
  8 34  1  0
 10 35  1  0
 10 36  1  0
 11 37  1  0
 11 38  1  0
 13 39  1  0
 13 40  1  0
 13 41  1  0
 14 42  1  0
 14 43  1  0
 15 44  1  0
 15 45  1  0
 18 46  1  0
 19 47  1  0
 20 48  1  0
 21 49  1  0
 22 50  1  0
 25 51  1  0
M  END
>  <UniqueID>  (16) 
16

>  <SMILES>  (16) 
Cc1ccn2c(CCN3CCN(C)CC3)c(-c3ccccc3)nc2c1

>  <Energy>  (16) 
102.03462731381919

>  <Genealogy>  (16) 
Cc1ccn2c(CCN3CCN(C)CC3)c(-c3ccccc3)nc2c1 (3D coordinates assigned)
Cc1ccn2c(CCN3CCN(C)CC3)c(-c3ccccc3)nc2c1 (nonaromatic ring conformer: 102.03462731381919 kcal/mol)

>  <smiles>  (16) 
Cc1ccn2c(CCN3CCN(C)CC3)c(-c3ccccc3)nc2c1

>  <score_type>  (16) 
oracle

>  <origin>  (16) 
adg

>  <m_score__min__energy>  (16) 
-7.4299999999999997

>  <m_primary>  (16) 
energy

$$$$
16:0
     RDKit          3D

 63 66  0  0  0  0  0  0  0  0999 V2000
   58.4430   27.2000   43.7890 C   0  0  0  0  0  0  0  0  0  0  0  0
   58.8180   27.3090   45.2660 C   0  0  0  0  0  0  0  0  0  0  0  0
   59.8900   28.3780   45.5310 C   0  0  0  0  0  0  0  0  0  0  0  0
   59.6170   29.1750   46.8140 C   0  0  0  0  0  0  0  0  0  0  0  0
   58.1480   29.6070   46.9020 C   0  0  0  0  0  0  0  0  0  0  0  0
   57.9580   30.9000   46.2270 N   0  0  0  0  0  0  0  0  0  0  0  0
   58.4330   32.1160   46.6300 C   0  0  0  0  0  0  0  0  0  0  0  0
   58.4480   33.0090   45.5790 C   0  0  0  0  0  0  0  0  0  0  0  0
   57.9250   32.3450   44.4950 C   0  0  0  0  0  0  0  0  0  0  0  0
   57.7880   32.7370   43.1640 C   0  0  0  0  0  0  0  0  0  0  0  0
   57.3120   31.7870   42.2450 C   0  0  0  0  0  0  0  0  0  0  0  0
   57.0120   30.4760   42.6650 C   0  0  0  0  0  0  0  0  0  0  0  0
   57.1870   30.0970   44.0080 C   0  0  0  0  0  0  0  0  0  0  0  0
   57.6380   31.0650   44.9160 C   0  0  0  0  0  0  0  0  0  0  0  0
   59.2250   34.2860   45.6310 C   0  0  0  0  0  0  0  0  0  0  0  0
   60.5200   34.0500   46.4360 C   0  0  0  0  0  0  0  0  0  0  0  0
   60.2570   33.3620   47.7830 C   0  0  0  0  0  0  0  0  0  0  0  0
   61.0600   33.5900   48.9380 C   0  0  0  0  0  0  0  0  0  0  0  0
   62.3630   34.3800   48.9260 C   0  0  0  0  0  0  0  0  0  0  0  0
   63.5820   33.5790   48.6140 N   0  0  0  0  0  0  0  0  0  0  0  0
   63.9160   32.5610   49.6530 C   0  0  0  0  0  0  0  0  0  0  0  0
   65.4110   32.4360   50.0110 C   0  0  0  0  0  0  0  0  0  0  0  0
   63.5950   33.0760   47.2190 C   0  0  0  0  0  0  0  0  0  0  0  0
   63.1990   31.5960   47.1270 C   0  0  0  0  0  0  0  0  0  0  0  0
   60.6360   33.0610   50.1730 C   0  0  0  0  0  0  0  0  0  0  0  0
   59.4900   32.2760   50.2630 C   0  0  0  0  0  0  0  0  0  0  0  0
   58.7660   31.9610   49.1180 C   0  0  0  0  0  0  0  0  0  0  0  0
   59.1790   32.4370   47.8690 C   0  0  0  0  0  0  0  0  0  0  0  0
   57.3902   26.8940   43.6996 H   0  0  0  0  0  0  0  0  0  0  0  0
   58.5837   28.1762   43.3020 H   0  0  0  0  0  0  0  0  0  0  0  0
   59.0851   26.4513   43.3020 H   0  0  0  0  0  0  0  0  0  0  0  0
   57.9155   27.5666   45.8397 H   0  0  0  0  0  0  0  0  0  0  0  0
   59.2345   26.3387   45.5744 H   0  0  0  0  0  0  0  0  0  0  0  0
   60.8676   27.8824   45.6243 H   0  0  0  0  0  0  0  0  0  0  0  0
   59.8749   29.0843   44.6878 H   0  0  0  0  0  0  0  0  0  0  0  0
   59.8580   28.5465   47.6840 H   0  0  0  0  0  0  0  0  0  0  0  0
   60.2436   30.0789   46.8002 H   0  0  0  0  0  0  0  0  0  0  0  0
   57.5163   28.8479   46.4176 H   0  0  0  0  0  0  0  0  0  0  0  0
   57.8666   29.7096   47.9604 H   0  0  0  0  0  0  0  0  0  0  0  0
   58.0444   33.7576   42.8437 H   0  0  0  0  0  0  0  0  0  0  0  0
   57.1726   32.0685   41.1908 H   0  0  0  0  0  0  0  0  0  0  0  0
   56.6376   29.7423   41.9360 H   0  0  0  0  0  0  0  0  0  0  0  0
   56.9757   29.0688   44.3370 H   0  0  0  0  0  0  0  0  0  0  0  0
   59.4782   34.6061   44.6095 H   0  0  0  0  0  0  0  0  0  0  0  0
   58.6229   35.0694   46.1145 H   0  0  0  0  0  0  0  0  0  0  0  0
   61.1944   33.4160   45.8416 H   0  0  0  0  0  0  0  0  0  0  0  0
   60.9682   35.0327   46.6442 H   0  0  0  0  0  0  0  0  0  0  0  0
   62.2737   35.1743   48.1702 H   0  0  0  0  0  0  0  0  0  0  0  0
   62.4999   34.7635   49.9479 H   0  0  0  0  0  0  0  0  0  0  0  0
   64.3580   34.2830   48.6630 H   0  0  0  0  0  0  0  0  0  0  0  0
   63.3695   32.8232   50.5709 H   0  0  0  0  0  0  0  0  0  0  0  0
   63.6282   31.5897   49.2244 H   0  0  0  0  0  0  0  0  0  0  0  0
   65.5265   32.4263   51.1049 H   0  0  0  0  0  0  0  0  0  0  0  0
   65.8115   31.5012   49.5917 H   0  0  0  0  0  0  0  0  0  0  0  0
   65.9612   33.2913   49.5917 H   0  0  0  0  0  0  0  0  0  0  0  0
   62.8858   33.6692   46.6230 H   0  0  0  0  0  0  0  0  0  0  0  0
   64.6220   33.1728   46.8371 H   0  0  0  0  0  0  0  0  0  0  0  0
   63.0883   31.1824   48.1402 H   0  0  0  0  0  0  0  0  0  0  0  0
   62.2448   31.5046   46.5874 H   0  0  0  0  0  0  0  0  0  0  0  0
   63.9801   31.0403   46.5874 H   0  0  0  0  0  0  0  0  0  0  0  0
   61.2201   33.2717   51.0810 H   0  0  0  0  0  0  0  0  0  0  0  0
   59.1560   31.9037   51.2427 H   0  0  0  0  0  0  0  0  0  0  0  0
   57.8648   31.3349   49.1948 H   0  0  0  0  0  0  0  0  0  0  0  0
  1  2  1  0
  2  3  1  0
  3  4  1  0
  4  5  1  0
  5  6  1  0
  6  7  1  0
  7  8  2  0
  8  9  1  0
  9 10  2  0
 10 11  1  0
 11 12  2  0
 12 13  1  0
 13 14  2  0
  8 15  1  0
 15 16  1  0
 16 17  1  0
 17 18  2  0
 18 19  1  0
 19 20  1  0
 20 21  1  0
 21 22  1  0
 20 23  1  0
 23 24  1  0
 18 25  1  0
 25 26  2  0
 26 27  1  0
 27 28  2  0
 14  6  1  0
 28 17  1  0
 28  7  1  0
 14  9  1  0
  1 29  1  0
  1 30  1  0
  1 31  1  0
  2 32  1  0
  2 33  1  0
  3 34  1  0
  3 35  1  0
  4 36  1  0
  4 37  1  0
  5 38  1  0
  5 39  1  0
 10 40  1  0
 11 41  1  0
 12 42  1  0
 13 43  1  0
 15 44  1  0
 15 45  1  0
 16 46  1  0
 16 47  1  0
 19 48  1  0
 19 49  1  0
 20 50  1  0
 21 51  1  0
 21 52  1  0
 22 53  1  0
 22 54  1  0
 22 55  1  0
 23 56  1  0
 23 57  1  0
 24 58  1  0
 24 59  1  0
 24 60  1  0
 25 61  1  0
 26 62  1  0
 27 63  1  0
M  CHG  1  20   1
M  END
>  <UniqueID>  (17) 
17

>  <SMILES>  (17) 
CCCCCn1c2c(c3ccccc31)CCc1c(C[NH+](CC)CC)cccc1-2

>  <Energy>  (17) 
114.54109676407323

>  <Genealogy>  (17) 
CCCCCn1c2c(c3ccccc31)CCc1c(C[NH+](CC)CC)cccc1-2 (protonated)
CCCCCn1c2c(c3ccccc31)CCc1c(C[NH+](CC)CC)cccc1-2 (3D coordinates assigned)
CCCCCn1c2c(c3ccccc31)CCc1c(C[NH+](CC)CC)cccc1-2 (nonaromatic ring conformer: 114.54109676407323 kcal/mol)

>  <smiles>  (17) 
CCCCCn1c2c(c3ccccc31)CCc1c(CN(CC)CC)cccc1-2

>  <score_type>  (17) 
oracle

>  <origin>  (17) 
adg

>  <m_score__min__energy>  (17) 
-7.0899999999999999

>  <m_primary>  (17) 
energy

$$$$
17:0
     RDKit          3D

 26 27  0  0  0  0  0  0  0  0999 V2000
   51.4200   32.5220   48.8130 H   0  0  0  0  0  0  0  0  0  0  0  0
   51.4130   33.0080   49.7380 N   0  0  0  0  0  0  0  0  0  0  0  0
   51.3460   32.3470   50.8480 C   0  0  0  0  0  0  0  0  0  0  0  0
   50.9960   32.9780   52.0010 N   0  0  0  0  0  0  0  0  0  0  0  0
   50.9190   32.3050   53.1780 C   0  0  0  0  0  0  0  0  0  0  0  0
   50.5910   32.9260   54.2250 O   0  0  0  0  0  0  0  0  0  0  0  0
   51.2050   30.9290   53.2140 C   0  0  0  0  0  0  0  0  0  0  0  0
   51.1430   30.1770   54.3980 C   0  0  0  0  0  0  0  0  0  0  0  0
   50.8605   30.6669   55.3415 H   0  0  0  0  0  0  0  0  0  0  0  0
   51.4380   28.8080   54.3870 C   0  0  0  0  0  0  0  0  0  0  0  0
   51.3150   27.8680   56.0560 Br  0  0  0  0  0  0  0  0  0  0  0  0
   51.8050   28.1700   53.1750 C   0  0  0  0  0  0  0  0  0  0  0  0
   52.1330   26.7610   53.1230 N   0  0  0  0  0  0  0  0  0  0  0  0
   51.3810   26.1660   53.5370 H   0  0  0  0  0  0  0  0  0  0  0  0
   52.2070   26.4770   52.1170 H   0  0  0  0  0  0  0  0  0  0  0  0
   53.4230   26.4740   53.7740 C   0  0  0  0  0  0  0  0  0  0  0  0
   53.2545   26.3518   54.8541 H   0  0  0  0  0  0  0  0  0  0  0  0
   53.8297   25.5564   53.3240 H   0  0  0  0  0  0  0  0  0  0  0  0
   54.4450   27.5930   53.5590 C   0  0  0  0  0  0  0  0  0  0  0  0
   54.7881   27.9686   54.5343 H   0  0  0  0  0  0  0  0  0  0  0  0
   55.3039   27.2016   52.9941 H   0  0  0  0  0  0  0  0  0  0  0  0
   53.9775   28.4130   52.9941 H   0  0  0  0  0  0  0  0  0  0  0  0
   51.8610   28.9320   51.9930 C   0  0  0  0  0  0  0  0  0  0  0  0
   52.1410   28.4469   51.0463 H   0  0  0  0  0  0  0  0  0  0  0  0
   51.5650   30.2980   52.0080 C   0  0  0  0  0  0  0  0  0  0  0  0
   51.6270   31.0190   50.8590 N   0  0  0  0  0  0  0  0  0  0  0  0
  1  2  1  0
  2  3  2  0
  3  4  1  0
  4  5  1  0
  5  6  2  0
  5  7  1  0
  7  8  2  0
  8  9  1  0
  8 10  1  0
 10 11  1  0
 10 12  2  0
 12 13  1  0
 13 14  1  0
 13 15  1  0
 13 16  1  0
 16 17  1  0
 16 18  1  0
 16 19  1  0
 19 20  1  0
 19 21  1  0
 19 22  1  0
 12 23  1  0
 23 24  1  0
 23 25  2  0
 25 26  1  0
 26  3  1  0
 25  7  1  0
M  CHG  3   4  -1  13   1  26  -1
M  END
>  <UniqueID>  (18) 
18

>  <SMILES>  (18) 
[H]/N=c1\[n-]c(=O)c2cc(Br)c([NH2+]CC)cc2[n-]1

>  <Energy>  (18) 
31.64007270395569

>  <Genealogy>  (18) 
CC[NH2+]c1cc2[n-]c(=N)[n-]c(=O)c2cc1Br (protonated)
[H]/N=c1\[n-]c(=O)c2cc(Br)c([NH2+]CC)cc2[n-]1 (cis-trans isomerization)
[H]/N=c1\[n-]c(=O)c2cc(Br)c([NH2+]CC)cc2[n-]1 (3D coordinates assigned)
[H]/N=c1\[n-]c(=O)c2cc(Br)c([NH2+]CC)cc2[n-]1 (optimized conformer: 31.64007270395569 kcal/mol)

>  <smiles>  (18) 
CCNc1cc2[nH]c(=N)[nH]c(=O)c2cc1Br

>  <score_type>  (18) 
oracle

>  <origin>  (18) 
adg

>  <m_score__min__energy>  (18) 
-9.1799999999999997

>  <m_primary>  (18) 
energy

$$$$
18:0
     RDKit          3D

 52 55  0  0  0  0  0  0  0  0999 V2000
   57.8080   33.0740   43.9030 C   0  0  0  0  0  0  0  0  0  0  0  0
   58.1610   34.2130   44.8690 C   0  0  0  0  0  0  0  0  0  0  0  0
   58.1420   33.7850   46.2760 N   0  0  0  0  0  0  0  0  0  0  0  0
   58.9070   34.6980   47.1400 C   0  0  0  0  0  0  0  0  0  0  0  0
   60.4220   34.4460   47.0100 C   0  0  0  0  0  0  0  0  0  0  0  0
   60.7590   33.1320   46.4250 N   0  0  0  0  0  0  0  0  0  0  0  0
   61.0570   32.1290   47.4320 C   0  0  0  0  0  0  0  0  0  0  0  0
   60.3610   30.9100   47.4290 C   0  0  0  0  0  0  0  0  0  0  0  0
   60.6560   29.9010   48.3260 C   0  0  0  0  0  0  0  0  0  0  0  0
   61.5380   30.0880   49.3560 N   0  0  0  0  0  0  0  0  0  0  0  0
   61.5680   29.1400   50.4830 C   0  0  0  0  0  0  0  0  0  0  0  0
   62.3350   31.2210   49.3500 C   0  0  0  0  0  0  0  0  0  0  0  0
   63.4260   31.3480   50.2430 C   0  0  0  0  0  0  0  0  0  0  0  0
   64.2080   32.4980   50.2670 C   0  0  0  0  0  0  0  0  0  0  0  0
   63.9320   33.5480   49.4040 C   0  0  0  0  0  0  0  0  0  0  0  0
   62.8900   33.4480   48.4870 C   0  0  0  0  0  0  0  0  0  0  0  0
   62.0870   32.2840   48.4130 C   0  0  0  0  0  0  0  0  0  0  0  0
   59.8260   28.7160   47.9900 C   0  0  0  0  0  0  0  0  0  0  0  0
   59.9020   27.3840   48.4210 C   0  0  0  0  0  0  0  0  0  0  0  0
   59.0300   26.4400   47.8550 C   0  0  0  0  0  0  0  0  0  0  0  0
   58.1300   26.8140   46.8430 C   0  0  0  0  0  0  0  0  0  0  0  0
   58.1120   28.1330   46.3600 C   0  0  0  0  0  0  0  0  0  0  0  0
   57.0060   28.5810   45.0180 S   0  0  0  0  0  0  0  0  0  0  0  0
   58.0570   27.8310   43.7360 C   0  0  0  0  0  0  0  0  0  0  0  0
   58.9790   29.0640   46.9480 C   0  0  0  0  0  0  0  0  0  0  0  0
   59.2700   30.4400   46.5660 C   0  0  0  0  0  0  0  0  0  0  0  0
   58.6830   31.0960   45.6650 O   0  0  0  0  0  0  0  0  0  0  0  0
   57.5304   32.1783   44.4780 H   0  0  0  0  0  0  0  0  0  0  0  0
   56.9624   33.3795   43.2693 H   0  0  0  0  0  0  0  0  0  0  0  0
   58.6782   32.8478   43.2693 H   0  0  0  0  0  0  0  0  0  0  0  0
   59.1684   34.5819   44.6262 H   0  0  0  0  0  0  0  0  0  0  0  0
   57.4020   35.0001   44.7490 H   0  0  0  0  0  0  0  0  0  0  0  0
   58.5230   32.8150   46.3430 H   0  0  0  0  0  0  0  0  0  0  0  0
   58.6891   35.7359   46.8480 H   0  0  0  0  0  0  0  0  0  0  0  0
   58.6116   34.5201   48.1846 H   0  0  0  0  0  0  0  0  0  0  0  0
   60.8506   35.2311   46.3697 H   0  0  0  0  0  0  0  0  0  0  0  0
   60.8380   34.4600   48.0282 H   0  0  0  0  0  0  0  0  0  0  0  0
   60.0260   32.8350   45.7470 H   0  0  0  0  0  0  0  0  0  0  0  0
   61.6060   33.2510   45.8240 H   0  0  0  0  0  0  0  0  0  0  0  0
   61.5504   29.6971   51.4313 H   0  0  0  0  0  0  0  0  0  0  0  0
   60.6903   28.4791   50.4296 H   0  0  0  0  0  0  0  0  0  0  0  0
   62.4857   28.5359   50.4296 H   0  0  0  0  0  0  0  0  0  0  0  0
   63.6597   30.5219   50.9307 H   0  0  0  0  0  0  0  0  0  0  0  0
   65.0482   32.5749   50.9728 H   0  0  0  0  0  0  0  0  0  0  0  0
   64.5395   34.4641   49.4445 H   0  0  0  0  0  0  0  0  0  0  0  0
   62.6864   34.2885   47.8072 H   0  0  0  0  0  0  0  0  0  0  0  0
   60.6310   27.0841   49.1882 H   0  0  0  0  0  0  0  0  0  0  0  0
   59.0517   25.3981   48.2072 H   0  0  0  0  0  0  0  0  0  0  0  0
   57.4354   26.0696   46.4265 H   0  0  0  0  0  0  0  0  0  0  0  0
   58.8636   27.2554   44.2136 H   0  0  0  0  0  0  0  0  0  0  0  0
   57.4497   27.1610   43.1097 H   0  0  0  0  0  0  0  0  0  0  0  0
   58.4931   28.6232   43.1097 H   0  0  0  0  0  0  0  0  0  0  0  0
  1  2  1  0
  2  3  1  0
  3  4  1  0
  4  5  1  0
  5  6  1  0
  6  7  1  0
  7  8  2  0
  8  9  1  0
  9 10  2  0
 10 11  1  0
 10 12  1  0
 12 13  2  0
 13 14  1  0
 14 15  2  0
 15 16  1  0
 16 17  2  0
  9 18  1  0
 18 19  2  0
 19 20  1  0
 20 21  2  0
 21 22  1  0
 22 23  1  0
 23 24  1  0
 22 25  2  0
 25 26  1  0
 26 27  2  0
 17  7  1  0
 25 18  1  0
 26  8  1  0
 17 12  1  0
  1 28  1  0
  1 29  1  0
  1 30  1  0
  2 31  1  0
  2 32  1  0
  3 33  1  0
  4 34  1  0
  4 35  1  0
  5 36  1  0
  5 37  1  0
  6 38  1  0
  6 39  1  0
 11 40  1  0
 11 41  1  0
 11 42  1  0
 13 43  1  0
 14 44  1  0
 15 45  1  0
 16 46  1  0
 19 47  1  0
 20 48  1  0
 21 49  1  0
 24 50  1  0
 24 51  1  0
 24 52  1  0
M  CHG  2   6   1  10   1
M  END
>  <UniqueID>  (19) 
19

>  <SMILES>  (19) 
CCNCC[NH2+]c1c2c([n+](C)c3ccccc13)-c1cccc(SC)c1C2=O

>  <Energy>  (19) 
104.27587868492705

>  <Genealogy>  (19) 
CCNCC[NH2+]c1c2c([n+](C)c3ccccc13)-c1cccc(SC)c1C2=O (protonated)
CCNCC[NH2+]c1c2c([n+](C)c3ccccc13)-c1cccc(SC)c1C2=O (3D coordinates assigned)
CCNCC[NH2+]c1c2c([n+](C)c3ccccc13)-c1cccc(SC)c1C2=O (nonaromatic ring conformer: 104.27587868492705 kcal/mol)

>  <smiles>  (19) 
CCNCCNc1c2c([n+](C)c3ccccc13)-c1cccc(SC)c1C2=O

>  <score_type>  (19) 
oracle

>  <origin>  (19) 
adg

>  <m_score__min__energy>  (19) 
-4.2300000000000004

>  <m_primary>  (19) 
energy

$$$$
19:0
     RDKit          3D

 62 64  0  0  0  0  0  0  0  0999 V2000
   59.9550   35.3140   46.1570 C   0  0  0  0  0  0  0  0  0  0  0  0
   59.7820   34.7890   47.5740 C   0  0  0  0  0  0  0  0  0  0  0  0
   60.8460   33.9110   47.8780 O   0  0  0  0  0  0  0  0  0  0  0  0
   61.7560   33.8420   46.7930 C   0  0  0  0  0  0  0  0  0  0  0  0
   62.8460   32.8110   47.0720 C   0  0  0  0  0  0  0  0  0  0  0  0
   62.4330   31.9620   48.1250 O   0  0  0  0  0  0  0  0  0  0  0  0
   63.2900   32.0830   49.2460 C   0  0  0  0  0  0  0  0  0  0  0  0
   62.8230   31.2240   50.4250 C   0  0  0  0  0  0  0  0  0  0  0  0
   61.4220   31.0630   50.3540 O   0  0  0  0  0  0  0  0  0  0  0  0
   60.7930   32.1900   50.8280 N   0  0  0  0  0  0  0  0  0  0  0  0
   59.3360   32.0340   50.7150 C   0  0  0  0  0  0  0  0  0  0  0  0
   58.8750   31.7690   49.2630 C   0  0  0  0  0  0  0  0  0  0  0  0
   59.9710   31.4740   48.3130 N   0  0  0  0  0  0  0  0  0  0  0  0
   59.5970   30.5330   47.2600 C   0  0  0  0  0  0  0  0  0  0  0  0
   59.8840   29.1390   47.3770 C   0  0  0  0  0  0  0  0  0  0  0  0
   60.5170   28.5880   48.5230 C   0  0  0  0  0  0  0  0  0  0  0  0
   60.7530   27.2210   48.6350 C   0  0  0  0  0  0  0  0  0  0  0  0
   60.3610   26.3620   47.6220 C   0  0  0  0  0  0  0  0  0  0  0  0
   59.7350   26.8630   46.4870 C   0  0  0  0  0  0  0  0  0  0  0  0
   59.5030   28.2540   46.3250 C   0  0  0  0  0  0  0  0  0  0  0  0
   58.8880   28.7420   45.1900 N   0  0  0  0  0  0  0  0  0  0  0  0
   58.7500   27.8760   43.9950 C   0  0  0  0  0  0  0  0  0  0  0  0
   58.4210   30.0370   45.1590 C   0  0  0  0  0  0  0  0  0  0  0  0
   57.4930   30.4590   44.1730 C   0  0  0  0  0  0  0  0  0  0  0  0
   57.0840   31.7860   44.0830 C   0  0  0  0  0  0  0  0  0  0  0  0
   57.6000   32.7370   44.9580 C   0  0  0  0  0  0  0  0  0  0  0  0
   57.1730   34.1740   44.8670 C   0  0  0  0  0  0  0  0  0  0  0  0
   58.4720   32.3350   45.9720 C   0  0  0  0  0  0  0  0  0  0  0  0
   58.8440   30.9770   46.1360 C   0  0  0  0  0  0  0  0  0  0  0  0
   60.2991   36.3582   46.1923 H   0  0  0  0  0  0  0  0  0  0  0  0
   60.6985   34.7006   45.6270 H   0  0  0  0  0  0  0  0  0  0  0  0
   58.9925   35.2628   45.6270 H   0  0  0  0  0  0  0  0  0  0  0  0
   59.7867   35.6313   48.2814 H   0  0  0  0  0  0  0  0  0  0  0  0
   58.8255   34.2518   47.6545 H   0  0  0  0  0  0  0  0  0  0  0  0
   61.2111   33.5546   45.8817 H   0  0  0  0  0  0  0  0  0  0  0  0
   62.2255   34.8279   46.6602 H   0  0  0  0  0  0  0  0  0  0  0  0
   63.0248   32.2122   46.1668 H   0  0  0  0  0  0  0  0  0  0  0  0
   63.7740   33.3269   47.3593 H   0  0  0  0  0  0  0  0  0  0  0  0
   64.3019   31.7650   48.9546 H   0  0  0  0  0  0  0  0  0  0  0  0
   63.2789   33.1346   49.5683 H   0  0  0  0  0  0  0  0  0  0  0  0
   63.3097   30.2386   50.3782 H   0  0  0  0  0  0  0  0  0  0  0  0
   63.0916   31.7165   51.3712 H   0  0  0  0  0  0  0  0  0  0  0  0
   61.0530   32.4450   51.8140 H   0  0  0  0  0  0  0  0  0  0  0  0
   59.0229   31.1874   51.3437 H   0  0  0  0  0  0  0  0  0  0  0  0
   58.8745   32.9770   51.0432 H   0  0  0  0  0  0  0  0  0  0  0  0
   58.1884   30.9096   49.2724 H   0  0  0  0  0  0  0  0  0  0  0  0
   58.3997   32.6970   48.9124 H   0  0  0  0  0  0  0  0  0  0  0  0
   60.8220   31.1900   48.8400 H   0  0  0  0  0  0  0  0  0  0  0  0
   60.2840   32.3700   47.8750 H   0  0  0  0  0  0  0  0  0  0  0  0
   60.8274   29.2563   49.3397 H   0  0  0  0  0  0  0  0  0  0  0  0
   61.2521   26.8219   49.5303 H   0  0  0  0  0  0  0  0  0  0  0  0
   60.5454   25.2816   47.7159 H   0  0  0  0  0  0  0  0  0  0  0  0
   59.4127   26.1675   45.6981 H   0  0  0  0  0  0  0  0  0  0  0  0
   58.5843   26.8361   44.3130 H   0  0  0  0  0  0  0  0  0  0  0  0
   57.8947   28.2160   43.3926 H   0  0  0  0  0  0  0  0  0  0  0  0
   59.6686   27.9333   43.3926 H   0  0  0  0  0  0  0  0  0  0  0  0
   57.0879   29.7216   43.4643 H   0  0  0  0  0  0  0  0  0  0  0  0
   56.3513   32.0838   43.3186 H   0  0  0  0  0  0  0  0  0  0  0  0
   57.0509   34.5851   45.8800 H   0  0  0  0  0  0  0  0  0  0  0  0
   57.9386   34.7505   44.3272 H   0  0  0  0  0  0  0  0  0  0  0  0
   56.2168   34.2389   44.3272 H   0  0  0  0  0  0  0  0  0  0  0  0
   58.8800   33.0902   46.6599 H   0  0  0  0  0  0  0  0  0  0  0  0
  1  2  1  0
  2  3  1  0
  3  4  1  0
  4  5  1  0
  5  6  1  0
  6  7  1  0
  7  8  1  0
  8  9  1  0
  9 10  1  0
 10 11  1  0
 11 12  1  0
 12 13  1  0
 13 14  1  0
 14 15  2  0
 15 16  1  0
 16 17  2  0
 17 18  1  0
 18 19  2  0
 19 20  1  0
 20 21  2  0
 21 22  1  0
 21 23  1  0
 23 24  2  0
 24 25  1  0
 25 26  2  0
 26 27  1  0
 26 28  1  0
 28 29  2  0
 29 14  1  0
 20 15  1  0
 29 23  1  0
  1 30  1  0
  1 31  1  0
  1 32  1  0
  2 33  1  0
  2 34  1  0
  4 35  1  0
  4 36  1  0
  5 37  1  0
  5 38  1  0
  7 39  1  0
  7 40  1  0
  8 41  1  0
  8 42  1  0
 10 43  1  0
 11 44  1  0
 11 45  1  0
 12 46  1  0
 12 47  1  0
 13 48  1  0
 13 49  1  0
 16 50  1  0
 17 51  1  0
 18 52  1  0
 19 53  1  0
 22 54  1  0
 22 55  1  0
 22 56  1  0
 24 57  1  0
 25 58  1  0
 27 59  1  0
 27 60  1  0
 27 61  1  0
 28 62  1  0
M  CHG  2  13   1  21   1
M  END
>  <UniqueID>  (20) 
20

>  <SMILES>  (20) 
CCOCCOCCONCC[NH2+]c1c2ccccc2[n+](C)c2ccc(C)cc12

>  <Energy>  (20) 
91.1305685974925

>  <Genealogy>  (20) 
CCOCCOCCONCC[NH2+]c1c2ccccc2[n+](C)c2ccc(C)cc12 (protonated)
CCOCCOCCONCC[NH2+]c1c2ccccc2[n+](C)c2ccc(C)cc12 (3D coordinates assigned)
CCOCCOCCONCC[NH2+]c1c2ccccc2[n+](C)c2ccc(C)cc12 (optimized conformer: 91.1305685974925 kcal/mol)

>  <smiles>  (20) 
CCOCCOCCONCCNc1c2ccccc2[n+](C)c2ccc(C)cc12

>  <score_type>  (20) 
oracle

>  <origin>  (20) 
adg

>  <m_score__min__energy>  (20) 
-3.0800000000000001

>  <m_primary>  (20) 
energy

$$$$
20:0
     RDKit          3D

 56 58  0  0  0  0  0  0  0  0999 V2000
   65.3910   32.8450   49.3860 N   0  0  0  0  0  0  0  0  0  0  0  0
   66.2490   32.6470   50.5510 C   0  0  0  0  0  0  0  0  0  0  0  0
   65.9080   31.3330   51.2670 C   0  0  0  0  0  0  0  0  0  0  0  0
   64.4490   31.2440   51.7560 C   0  0  0  0  0  0  0  0  0  0  0  0
   63.5180   31.8900   50.8160 N   0  0  0  0  0  0  0  0  0  0  0  0
   62.1030   31.7400   51.2110 C   0  0  0  0  0  0  0  0  0  0  0  0
   61.0960   32.4630   50.2840 C   0  0  0  0  0  0  0  0  0  0  0  0
   61.6800   33.6500   49.5060 C   0  0  0  0  0  0  0  0  0  0  0  0
   62.8940   33.2430   48.7830 N   0  0  0  0  0  0  0  0  0  0  0  0
   62.6960   33.2580   47.3260 C   0  0  0  0  0  0  0  0  0  0  0  0
   61.4040   32.5470   46.9720 C   0  0  0  0  0  0  0  0  0  0  0  0
   61.3530   31.1610   47.1420 C   0  0  0  0  0  0  0  0  0  0  0  0
   60.2650   30.4130   46.6910 C   0  0  0  0  0  0  0  0  0  0  0  0
   60.2880   29.0180   46.8380 C   0  0  0  0  0  0  0  0  0  0  0  0
   59.2480   28.2370   46.3460 C   0  0  0  0  0  0  0  0  0  0  0  0
   58.1680   28.8350   45.6930 C   0  0  0  0  0  0  0  0  0  0  0  0
   57.0380   27.9900   45.1780 C   0  0  0  0  0  0  0  0  0  0  0  0
   55.8650   28.7510   45.1620 O   0  0  0  0  0  0  0  0  0  0  0  0
   58.1160   30.2320   45.5710 C   0  0  0  0  0  0  0  0  0  0  0  0
   59.1630   31.0520   46.0630 C   0  0  0  0  0  0  0  0  0  0  0  0
   59.1680   32.4750   45.9310 C   0  0  0  0  0  0  0  0  0  0  0  0
   58.0870   33.1880   45.3490 C   0  0  0  0  0  0  0  0  0  0  0  0
   58.1330   34.5710   45.1990 C   0  0  0  0  0  0  0  0  0  0  0  0
   59.2470   35.2850   45.6200 C   0  0  0  0  0  0  0  0  0  0  0  0
   60.3210   34.6220   46.2040 C   0  0  0  0  0  0  0  0  0  0  0  0
   60.3040   33.2200   46.3790 C   0  0  0  0  0  0  0  0  0  0  0  0
   64.8780   33.7460   49.5110 H   0  0  0  0  0  0  0  0  0  0  0  0
   66.0120   32.9710   48.5530 H   0  0  0  0  0  0  0  0  0  0  0  0
   67.2988   32.6167   50.2238 H   0  0  0  0  0  0  0  0  0  0  0  0
   66.0880   33.4801   51.2510 H   0  0  0  0  0  0  0  0  0  0  0  0
   66.0900   30.5021   50.5696 H   0  0  0  0  0  0  0  0  0  0  0  0
   66.5463   31.2839   52.1615 H   0  0  0  0  0  0  0  0  0  0  0  0
   64.1721   30.1845   51.8601 H   0  0  0  0  0  0  0  0  0  0  0  0
   64.3789   31.7670   52.7211 H   0  0  0  0  0  0  0  0  0  0  0  0
   63.6700   31.5260   49.8530 H   0  0  0  0  0  0  0  0  0  0  0  0
   63.7200   32.9170   50.8000 H   0  0  0  0  0  0  0  0  0  0  0  0
   61.8590   30.6674   51.2128 H   0  0  0  0  0  0  0  0  0  0  0  0
   62.0046   32.2060   52.2025 H   0  0  0  0  0  0  0  0  0  0  0  0
   60.7132   31.7316   49.5570 H   0  0  0  0  0  0  0  0  0  0  0  0
   60.3122   32.8744   50.9369 H   0  0  0  0  0  0  0  0  0  0  0  0
   60.9332   34.0129   48.7845 H   0  0  0  0  0  0  0  0  0  0  0  0
   61.9393   34.4488   50.2164 H   0  0  0  0  0  0  0  0  0  0  0  0
   63.6560   33.9220   49.0180 H   0  0  0  0  0  0  0  0  0  0  0  0
   62.6467   34.2995   46.9756 H   0  0  0  0  0  0  0  0  0  0  0  0
   63.5376   32.7414   46.8414 H   0  0  0  0  0  0  0  0  0  0  0  0
   62.1883   30.6488   47.6420 H   0  0  0  0  0  0  0  0  0  0  0  0
   61.1365   28.5376   47.3471 H   0  0  0  0  0  0  0  0  0  0  0  0
   59.2761   27.1445   46.4715 H   0  0  0  0  0  0  0  0  0  0  0  0
   57.2690   27.6486   44.1581 H   0  0  0  0  0  0  0  0  0  0  0  0
   56.9025   27.1158   45.8318 H   0  0  0  0  0  0  0  0  0  0  0  0
   55.1410   28.1350   44.8760 H   0  0  0  0  0  0  0  0  0  0  0  0
   57.2471   30.6995   45.0848 H   0  0  0  0  0  0  0  0  0  0  0  0
   57.1969   32.6374   45.0105 H   0  0  0  0  0  0  0  0  0  0  0  0
   57.2828   35.1009   44.7448 H   0  0  0  0  0  0  0  0  0  0  0  0
   59.2801   36.3770   45.4914 H   0  0  0  0  0  0  0  0  0  0  0  0
   61.1976   35.1982   46.5349 H   0  0  0  0  0  0  0  0  0  0  0  0
  1  2  1  0
  2  3  1  0
  3  4  1  0
  4  5  1  0
  5  6  1  0
  6  7  1  0
  7  8  1  0
  8  9  1  0
  9 10  1  0
 10 11  1  0
 11 12  2  0
 12 13  1  0
 13 14  2  0
 14 15  1  0
 15 16  2  0
 16 17  1  0
 17 18  1  0
 16 19  1  0
 19 20  2  0
 20 21  1  0
 21 22  2  0
 22 23  1  0
 23 24  2  0
 24 25  1  0
 25 26  2  0
 26 11  1  0
 20 13  1  0
 26 21  1  0
  1 27  1  0
  1 28  1  0
  2 29  1  0
  2 30  1  0
  3 31  1  0
  3 32  1  0
  4 33  1  0
  4 34  1  0
  5 35  1  0
  5 36  1  0
  6 37  1  0
  6 38  1  0
  7 39  1  0
  7 40  1  0
  8 41  1  0
  8 42  1  0
  9 43  1  0
 10 44  1  0
 10 45  1  0
 12 46  1  0
 14 47  1  0
 15 48  1  0
 17 49  1  0
 17 50  1  0
 18 51  1  0
 19 52  1  0
 22 53  1  0
 23 54  1  0
 24 55  1  0
 25 56  1  0
M  CHG  1   5   1
M  END
>  <UniqueID>  (21) 
21

>  <SMILES>  (21) 
NCCC[NH2+]CCCNCc1cc2ccc(CO)cc2c2ccccc12

>  <Energy>  (21) 
58.52886449682721

>  <Genealogy>  (21) 
NCCC[NH2+]CCCNCc1cc2ccc(CO)cc2c2ccccc12 (protonated)
NCCC[NH2+]CCCNCc1cc2ccc(CO)cc2c2ccccc12 (3D coordinates assigned)
NCCC[NH2+]CCCNCc1cc2ccc(CO)cc2c2ccccc12 (optimized conformer: 58.52886449682721 kcal/mol)

>  <smiles>  (21) 
NCCCNCCCNCc1cc2ccc(CO)cc2c2ccccc12

>  <score_type>  (21) 
oracle

>  <origin>  (21) 
adg

>  <m_score__min__energy>  (21) 
-5.5800000000000001

>  <m_primary>  (21) 
energy

$$$$
21:0
     RDKit          3D

 59 61  0  0  0  0  0  0  0  0999 V2000
   60.7870   30.4380   48.0100 C   0  0  0  0  0  0  0  0  0  0  0  0
   59.2770   30.2870   48.1860 C   0  0  0  0  0  0  0  0  0  0  0  0
   58.8510   28.9850   47.8290 O   0  0  0  0  0  0  0  0  0  0  0  0
   59.6990   27.9880   48.3710 C   0  0  0  0  0  0  0  0  0  0  0  0
   59.9490   26.8920   47.3290 C   0  0  0  0  0  0  0  0  0  0  0  0
   58.7510   25.9460   47.1440 C   0  0  0  0  0  0  0  0  0  0  0  0
   57.5660   26.6800   46.6830 N   0  0  0  0  0  0  0  0  0  0  0  0
   57.0540   26.0890   45.4390 C   0  0  0  0  0  0  0  0  0  0  0  0
   57.7730   26.6770   44.2190 C   0  0  0  0  0  0  0  0  0  0  0  0
   58.0430   28.1510   44.3830 C   0  0  0  0  0  0  0  0  0  0  0  0
   56.9860   29.0740   44.3350 C   0  0  0  0  0  0  0  0  0  0  0  0
   57.2300   30.4380   44.5290 C   0  0  0  0  0  0  0  0  0  0  0  0
   58.5360   30.8990   44.7660 C   0  0  0  0  0  0  0  0  0  0  0  0
   58.8070   32.2920   44.9980 N   0  0  0  0  0  0  0  0  0  0  0  0
   58.3730   33.0020   46.1670 C   0  0  0  0  0  0  0  0  0  0  0  0
   57.4120   32.5680   46.8580 O   0  0  0  0  0  0  0  0  0  0  0  0
   59.0310   34.2940   46.5540 C   0  0  0  0  0  0  0  0  0  0  0  0
   59.9110   34.0950   47.7690 C   0  0  0  0  0  0  0  0  0  0  0  0
   59.2990   34.0840   49.0370 C   0  0  0  0  0  0  0  0  0  0  0  0
   60.0500   33.8780   50.1920 C   0  0  0  0  0  0  0  0  0  0  0  0
   61.4240   33.6690   50.1100 C   0  0  0  0  0  0  0  0  0  0  0  0
   62.0650   33.6600   48.8650 C   0  0  0  0  0  0  0  0  0  0  0  0
   63.4490   33.4370   48.7920 C   0  0  0  0  0  0  0  0  0  0  0  0
   64.0950   33.4200   47.5570 C   0  0  0  0  0  0  0  0  0  0  0  0
   63.3680   33.6250   46.3840 C   0  0  0  0  0  0  0  0  0  0  0  0
   61.9910   33.8480   46.4370 C   0  0  0  0  0  0  0  0  0  0  0  0
   61.3120   33.8710   47.6760 C   0  0  0  0  0  0  0  0  0  0  0  0
   59.5860   29.9710   44.8420 C   0  0  0  0  0  0  0  0  0  0  0  0
   59.3420   28.6090   44.6470 C   0  0  0  0  0  0  0  0  0  0  0  0
   61.2683   30.4861   48.9979 H   0  0  0  0  0  0  0  0  0  0  0  0
   61.1793   29.5746   47.4527 H   0  0  0  0  0  0  0  0  0  0  0  0
   61.0006   31.3620   47.4527 H   0  0  0  0  0  0  0  0  0  0  0  0
   59.0173   30.4743   49.2384 H   0  0  0  0  0  0  0  0  0  0  0  0
   58.7740   31.0120   47.5293 H   0  0  0  0  0  0  0  0  0  0  0  0
   60.6583   28.4426   48.6594 H   0  0  0  0  0  0  0  0  0  0  0  0
   59.2170   27.5441   49.2545 H   0  0  0  0  0  0  0  0  0  0  0  0
   60.1681   27.3713   46.3635 H   0  0  0  0  0  0  0  0  0  0  0  0
   60.7919   26.2845   47.6901 H   0  0  0  0  0  0  0  0  0  0  0  0
   59.0105   25.1785   46.4000 H   0  0  0  0  0  0  0  0  0  0  0  0
   58.5194   25.4809   48.1135 H   0  0  0  0  0  0  0  0  0  0  0  0
   57.8660   27.6560   46.4600 H   0  0  0  0  0  0  0  0  0  0  0  0
   57.2162   25.0013   45.4633 H   0  0  0  0  0  0  0  0  0  0  0  0
   55.9805   26.3150   45.3577 H   0  0  0  0  0  0  0  0  0  0  0  0
   58.7305   26.1528   44.0836 H   0  0  0  0  0  0  0  0  0  0  0  0
   57.1216   26.5449   43.3425 H   0  0  0  0  0  0  0  0  0  0  0  0
   55.9611   28.7231   44.1440 H   0  0  0  0  0  0  0  0  0  0  0  0
   56.3950   31.1533   44.4958 H   0  0  0  0  0  0  0  0  0  0  0  0
   59.3110   32.8270   44.2550 H   0  0  0  0  0  0  0  0  0  0  0  0
   59.6463   34.6526   45.7157 H   0  0  0  0  0  0  0  0  0  0  0  0
   58.2523   35.0328   46.7947 H   0  0  0  0  0  0  0  0  0  0  0  0
   58.2131   34.2402   49.1166 H   0  0  0  0  0  0  0  0  0  0  0  0
   59.5547   33.8805   51.1742 H   0  0  0  0  0  0  0  0  0  0  0  0
   62.0091   33.5101   51.0279 H   0  0  0  0  0  0  0  0  0  0  0  0
   64.0266   33.2749   49.7140 H   0  0  0  0  0  0  0  0  0  0  0  0
   65.1798   33.2447   47.5071 H   0  0  0  0  0  0  0  0  0  0  0  0
   63.8827   33.6108   45.4120 H   0  0  0  0  0  0  0  0  0  0  0  0
   61.4289   34.0074   45.5050 H   0  0  0  0  0  0  0  0  0  0  0  0
   60.6076   30.3180   45.0564 H   0  0  0  0  0  0  0  0  0  0  0  0
   60.1741   27.8915   44.7009 H   0  0  0  0  0  0  0  0  0  0  0  0
  1  2  1  0
  2  3  1  0
  3  4  1  0
  4  5  1  0
  5  6  1  0
  6  7  1  0
  7  8  1  0
  8  9  1  0
  9 10  1  0
 10 11  2  0
 11 12  1  0
 12 13  2  0
 13 14  1  0
 14 15  1  0
 15 16  2  0
 15 17  1  0
 17 18  1  0
 18 19  2  0
 19 20  1  0
 20 21  2  0
 21 22  1  0
 22 23  2  0
 23 24  1  0
 24 25  2  0
 25 26  1  0
 26 27  2  0
 13 28  1  0
 28 29  2  0
 29 10  1  0
 27 18  1  0
 27 22  1  0
  1 30  1  0
  1 31  1  0
  1 32  1  0
  2 33  1  0
  2 34  1  0
  4 35  1  0
  4 36  1  0
  5 37  1  0
  5 38  1  0
  6 39  1  0
  6 40  1  0
  7 41  1  0
  8 42  1  0
  8 43  1  0
  9 44  1  0
  9 45  1  0
 11 46  1  0
 12 47  1  0
 14 48  1  0
 17 49  1  0
 17 50  1  0
 19 51  1  0
 20 52  1  0
 21 53  1  0
 23 54  1  0
 24 55  1  0
 25 56  1  0
 26 57  1  0
 28 58  1  0
 29 59  1  0
M  END
>  <UniqueID>  (22) 
22

>  <SMILES>  (22) 
CCOCCCNCCc1ccc(NC(=O)Cc2cccc3ccccc23)cc1

>  <Energy>  (22) 
60.07596457987778

>  <Genealogy>  (22) 
CCOCCCNCCc1ccc(NC(=O)Cc2cccc3ccccc23)cc1 (3D coordinates assigned)
CCOCCCNCCc1ccc(NC(=O)Cc2cccc3ccccc23)cc1 (optimized conformer: 60.07596457987778 kcal/mol)

>  <smiles>  (22) 
CCOCCCNCCc1ccc(NC(=O)Cc2cccc3ccccc23)cc1

>  <score_type>  (22) 
oracle

>  <origin>  (22) 
adg

>  <m_score__min__energy>  (22) 
-8.8399999999999999

>  <m_primary>  (22) 
energy

$$$$
