0:0
     RDKit          3D

 47 50  0  0  0  0  0  0  0  0999 V2000
   59.3020   34.9940   45.1840 O   0  0  0  0  0  0  0  0  0  0  0  0
   59.5750   33.8910   45.7340 C   0  0  0  0  0  0  0  0  0  0  0  0
   60.5140   33.8660   46.8690 C   0  0  0  0  0  0  0  0  0  0  0  0
   61.7790   33.3840   46.7840 N   0  0  0  0  0  0  0  0  0  0  0  0
   62.4210   33.4810   47.9770 C   0  0  0  0  0  0  0  0  0  0  0  0
   63.7350   33.0670   48.1990 C   0  0  0  0  0  0  0  0  0  0  0  0
   64.2900   33.2190   49.4880 C   0  0  0  0  0  0  0  0  0  0  0  0
   65.7060   32.7890   49.7450 C   0  0  0  0  0  0  0  0  0  0  0  0
   66.3520   33.7380   50.5160 F   0  0  0  0  0  0  0  0  0  0  0  0
   65.7090   31.5800   50.4140 F   0  0  0  0  0  0  0  0  0  0  0  0
   63.5140   33.7900   50.5250 C   0  0  0  0  0  0  0  0  0  0  0  0
   62.1930   34.1990   50.2850 C   0  0  0  0  0  0  0  0  0  0  0  0
   61.6760   34.0320   49.0040 C   0  0  0  0  0  0  0  0  0  0  0  0
   60.1490   34.4240   48.4290 S   0  0  0  0  0  0  0  0  0  0  0  0
   58.8820   32.6300   45.2740 C   0  0  0  0  0  0  0  0  0  0  0  0
   59.0320   31.5120   46.3290 C   0  0  0  0  0  0  0  0  0  0  0  0
   57.8240   30.5540   46.3610 C   0  0  0  0  0  0  0  0  0  0  0  0
   57.2250   30.3400   45.0230 N   0  0  0  0  0  0  0  0  0  0  0  0
   58.0840   29.5400   44.1210 C   0  0  0  0  0  0  0  0  0  0  0  0
   58.3540   28.1760   44.6980 C   0  0  0  0  0  0  0  0  0  0  0  0
   59.4600   27.9760   45.5380 C   0  0  0  0  0  0  0  0  0  0  0  0
   59.7130   26.7020   46.0480 C   0  0  0  0  0  0  0  0  0  0  0  0
   58.8710   25.6410   45.7130 C   0  0  0  0  0  0  0  0  0  0  0  0
   57.7850   25.8710   44.8670 C   0  0  0  0  0  0  0  0  0  0  0  0
   57.5470   27.1190   44.3790 N   0  0  0  0  0  0  0  0  0  0  0  0
   56.7410   31.5990   44.3940 C   0  0  0  0  0  0  0  0  0  0  0  0
   57.4040   32.8800   44.9470 C   0  0  0  0  0  0  0  0  0  0  0  0
   64.3286   32.6294   47.3829 H   0  0  0  0  0  0  0  0  0  0  0  0
   66.2290   32.6812   48.7833 H   0  0  0  0  0  0  0  0  0  0  0  0
   63.9499   33.9142   51.5273 H   0  0  0  0  0  0  0  0  0  0  0  0
   61.5832   34.6395   51.0875 H   0  0  0  0  0  0  0  0  0  0  0  0
   59.3708   32.3015   44.3449 H   0  0  0  0  0  0  0  0  0  0  0  0
   59.9362   30.9297   46.0978 H   0  0  0  0  0  0  0  0  0  0  0  0
   59.0981   31.9944   47.3154 H   0  0  0  0  0  0  0  0  0  0  0  0
   58.1561   29.5829   46.7567 H   0  0  0  0  0  0  0  0  0  0  0  0
   57.0542   31.0131   46.9987 H   0  0  0  0  0  0  0  0  0  0  0  0
   57.5782   29.4259   43.1509 H   0  0  0  0  0  0  0  0  0  0  0  0
   59.0437   30.0633   43.9976 H   0  0  0  0  0  0  0  0  0  0  0  0
   60.1222   28.8167   45.7924 H   0  0  0  0  0  0  0  0  0  0  0  0
   60.5737   26.5346   46.7122 H   0  0  0  0  0  0  0  0  0  0  0  0
   59.0612   24.6336   46.1116 H   0  0  0  0  0  0  0  0  0  0  0  0
   57.1184   25.0398   44.5934 H   0  0  0  0  0  0  0  0  0  0  0  0
   56.7300   27.2590   43.7440 H   0  0  0  0  0  0  0  0  0  0  0  0
   56.9432   31.5448   43.3141 H   0  0  0  0  0  0  0  0  0  0  0  0
   55.6680   31.6745   44.6240 H   0  0  0  0  0  0  0  0  0  0  0  0
   57.3312   33.6780   44.1934 H   0  0  0  0  0  0  0  0  0  0  0  0
   56.8837   33.1765   45.8697 H   0  0  0  0  0  0  0  0  0  0  0  0
  1  2  2  0
  2  3  1  0
  3  4  2  0
  4  5  1  0
  5  6  2  0
  6  7  1  0
  7  8  1  0
  8  9  1  0
  8 10  1  0
  7 11  2  0
 11 12  1  0
 12 13  2  0
 13 14  1  0
  2 15  1  0
 15 16  1  0
 16 17  1  0
 17 18  1  0
 18 19  1  0
 19 20  1  0
 20 21  2  0
 21 22  1  0
 22 23  2  0
 23 24  1  0
 24 25  2  0
 18 26  1  0
 26 27  1  0
 14  3  1  0
 27 15  1  0
 13  5  1  0
 25 20  1  0
  6 28  1  0
  8 29  1  0
 11 30  1  0
 12 31  1  0
 15 32  1  0
 16 33  1  0
 16 34  1  0
 17 35  1  0
 17 36  1  0
 19 37  1  0
 19 38  1  0
 21 39  1  0
 22 40  1  0
 23 41  1  0
 24 42  1  0
 25 43  1  0
 26 44  1  0
 26 45  1  0
 27 46  1  0
 27 47  1  0
M  CHG  1  25   1
M  END
>  <UniqueID>  (1) 
1

>  <SMILES>  (1) 
O=C(c1nc2cc(C(F)F)ccc2s1)C1CCN(Cc2cccc[nH+]2)CC1

>  <Energy>  (1) 
92.5799733268037

>  <Genealogy>  (1) 
O=C(c1nc2cc(C(F)F)ccc2s1)C1CCN(Cc2cccc[nH+]2)CC1 (protonated)
O=C(c1nc2cc(C(F)F)ccc2s1)C1CCN(Cc2cccc[nH+]2)CC1 (3D coordinates assigned)
O=C(c1nc2cc(C(F)F)ccc2s1)C1CCN(Cc2cccc[nH+]2)CC1 (nonaromatic ring conformer: 92.5799733268037 kcal/mol)

>  <smiles>  (1) 
O=C(c1nc2cc(C(F)F)ccc2s1)C1CCN(Cc2ccccn2)CC1

>  <score_type>  (1) 
oracle

>  <origin>  (1) 
adg

>  <m_score__min__energy>  (1) 
-7.0800000000000001

>  <m_primary>  (1) 
energy

$$$$
1:0
     RDKit          3D

 68 70  0  0  0  0  0  0  0  0999 V2000
   60.3260   30.2510   46.4290 C   0  0  0  0  0  0  0  0  0  0  0  0
   58.9770   30.3950   47.1260 C   0  0  0  0  0  0  0  0  0  0  0  0
   59.1230   30.2640   48.5280 O   0  0  0  0  0  0  0  0  0  0  0  0
   59.3380   28.9140   48.9040 C   0  0  0  0  0  0  0  0  0  0  0  0
   60.7460   28.7460   49.4820 C   0  0  0  0  0  0  0  0  0  0  0  0
   61.0140   29.7340   50.4620 O   0  0  0  0  0  0  0  0  0  0  0  0
   61.0940   29.1720   51.7600 C   0  0  0  0  0  0  0  0  0  0  0  0
   59.7180   29.1500   52.4180 C   0  0  0  0  0  0  0  0  0  0  0  0
   58.8550   30.0110   51.7010 O   0  0  0  0  0  0  0  0  0  0  0  0
   57.5050   29.8060   52.0720 C   0  0  0  0  0  0  0  0  0  0  0  0
   56.6760   31.0820   51.9160 C   0  0  0  0  0  0  0  0  0  0  0  0
   57.4170   32.0120   51.1510 O   0  0  0  0  0  0  0  0  0  0  0  0
   58.0440   32.9670   51.9880 C   0  0  0  0  0  0  0  0  0  0  0  0
   59.5100   33.1610   51.5750 C   0  0  0  0  0  0  0  0  0  0  0  0
   59.9810   32.1140   50.6460 N   0  0  0  0  0  0  0  0  0  0  0  0
   60.8860   32.6540   49.6340 C   0  0  0  0  0  0  0  0  0  0  0  0
   60.3540   33.2360   48.4500 C   0  0  0  0  0  0  0  0  0  0  0  0
   61.2350   33.6900   47.4330 C   0  0  0  0  0  0  0  0  0  0  0  0
   62.5920   33.4670   47.5410 N   0  0  0  0  0  0  0  0  0  0  0  0
   63.4710   33.6840   46.3690 C   0  0  0  0  0  0  0  0  0  0  0  0
   63.1390   33.0580   48.7400 C   0  0  0  0  0  0  0  0  0  0  0  0
   64.5440   33.0810   48.9500 C   0  0  0  0  0  0  0  0  0  0  0  0
   65.1080   32.6110   50.1310 C   0  0  0  0  0  0  0  0  0  0  0  0
   64.2950   32.1260   51.1400 C   0  0  0  0  0  0  0  0  0  0  0  0
   62.9100   32.1310   50.9890 C   0  0  0  0  0  0  0  0  0  0  0  0
   62.3000   32.6080   49.8000 C   0  0  0  0  0  0  0  0  0  0  0  0
   60.6740   34.3680   46.1840 C   0  0  0  0  0  0  0  0  0  0  0  0
   59.2730   34.9350   46.3720 C   0  0  0  0  0  0  0  0  0  0  0  0
   58.3710   33.8540   46.9370 C   0  0  0  0  0  0  0  0  0  0  0  0
   58.8480   33.4630   48.3330 C   0  0  0  0  0  0  0  0  0  0  0  0
   61.1215   30.1661   47.1839 H   0  0  0  0  0  0  0  0  0  0  0  0
   60.3193   29.3485   45.8002 H   0  0  0  0  0  0  0  0  0  0  0  0
   60.5100   31.1346   45.8002 H   0  0  0  0  0  0  0  0  0  0  0  0
   58.5561   31.3853   46.8975 H   0  0  0  0  0  0  0  0  0  0  0  0
   58.3051   29.6027   46.7643 H   0  0  0  0  0  0  0  0  0  0  0  0
   58.5963   28.6254   49.6633 H   0  0  0  0  0  0  0  0  0  0  0  0
   59.2345   28.2725   48.0165 H   0  0  0  0  0  0  0  0  0  0  0  0
   60.8293   27.7506   49.9426 H   0  0  0  0  0  0  0  0  0  0  0  0
   61.4752   28.8552   48.6657 H   0  0  0  0  0  0  0  0  0  0  0  0
   61.4765   28.1433   51.6862 H   0  0  0  0  0  0  0  0  0  0  0  0
   61.7715   29.7853   52.3722 H   0  0  0  0  0  0  0  0  0  0  0  0
   59.3164   28.1261   52.4006 H   0  0  0  0  0  0  0  0  0  0  0  0
   59.7981   29.4867   53.4621 H   0  0  0  0  0  0  0  0  0  0  0  0
   57.0748   29.0209   51.4328 H   0  0  0  0  0  0  0  0  0  0  0  0
   57.4814   29.5088   53.1308 H   0  0  0  0  0  0  0  0  0  0  0  0
   55.7313   30.8495   51.4027 H   0  0  0  0  0  0  0  0  0  0  0  0
   56.4496   31.5058   52.9055 H   0  0  0  0  0  0  0  0  0  0  0  0
   57.5136   33.9269   51.9032 H   0  0  0  0  0  0  0  0  0  0  0  0
   58.0109   32.6070   53.0269 H   0  0  0  0  0  0  0  0  0  0  0  0
   59.6111   34.1398   51.0834 H   0  0  0  0  0  0  0  0  0  0  0  0
   60.1239   33.0995   52.4857 H   0  0  0  0  0  0  0  0  0  0  0  0
   59.1800   31.5850   50.2430 H   0  0  0  0  0  0  0  0  0  0  0  0
   60.4640   31.3740   51.2010 H   0  0  0  0  0  0  0  0  0  0  0  0
   64.4854   33.9344   46.7129 H   0  0  0  0  0  0  0  0  0  0  0  0
   63.5055   32.7674   45.7618 H   0  0  0  0  0  0  0  0  0  0  0  0
   63.0750   34.5113   45.7618 H   0  0  0  0  0  0  0  0  0  0  0  0
   65.1996   33.4791   48.1615 H   0  0  0  0  0  0  0  0  0  0  0  0
   66.2000   32.6248   50.2629 H   0  0  0  0  0  0  0  0  0  0  0  0
   64.7439   31.7349   52.0650 H   0  0  0  0  0  0  0  0  0  0  0  0
   62.2770   31.7579   51.8076 H   0  0  0  0  0  0  0  0  0  0  0  0
   61.3472   35.1916   45.9039 H   0  0  0  0  0  0  0  0  0  0  0  0
   60.6064   33.5968   45.4025 H   0  0  0  0  0  0  0  0  0  0  0  0
   59.3103   35.7850   47.0692 H   0  0  0  0  0  0  0  0  0  0  0  0
   58.8790   35.2773   45.4037 H   0  0  0  0  0  0  0  0  0  0  0  0
   57.3397   34.2322   46.9957 H   0  0  0  0  0  0  0  0  0  0  0  0
   58.4045   32.9720   46.2805 H   0  0  0  0  0  0  0  0  0  0  0  0
   58.5671   34.2669   49.0293 H   0  0  0  0  0  0  0  0  0  0  0  0
   58.3686   32.5013   48.5683 H   0  0  0  0  0  0  0  0  0  0  0  0
  1  2  1  0
  2  3  1  0
  3  4  1  0
  4  5  1  0
  5  6  1  0
  6  7  1  0
  7  8  1  0
  8  9  1  0
  9 10  1  0
 10 11  1  0
 11 12  1  0
 12 13  1  0
 13 14  1  0
 14 15  1  0
 15 16  1  0
 16 17  2  0
 17 18  1  0
 18 19  2  0
 19 20  1  0
 19 21  1  0
 21 22  2  0
 22 23  1  0
 23 24  2  0
 24 25  1  0
 25 26  2  0
 18 27  1  0
 27 28  1  0
 28 29  1  0
 29 30  1  0
 26 16  1  0
 30 17  1  0
 26 21  1  0
  1 31  1  0
  1 32  1  0
  1 33  1  0
  2 34  1  0
  2 35  1  0
  4 36  1  0
  4 37  1  0
  5 38  1  0
  5 39  1  0
  7 40  1  0
  7 41  1  0
  8 42  1  0
  8 43  1  0
 10 44  1  0
 10 45  1  0
 11 46  1  0
 11 47  1  0
 13 48  1  0
 13 49  1  0
 14 50  1  0
 14 51  1  0
 15 52  1  0
 15 53  1  0
 20 54  1  0
 20 55  1  0
 20 56  1  0
 22 57  1  0
 23 58  1  0
 24 59  1  0
 25 60  1  0
 27 61  1  0
 27 62  1  0
 28 63  1  0
 28 64  1  0
 29 65  1  0
 29 66  1  0
 30 67  1  0
 30 68  1  0
M  CHG  2  15   1  19   1
M  END
>  <UniqueID>  (2) 
2

>  <SMILES>  (2) 
CCOCCOCCOCCOCC[NH2+]c1c2c([n+](C)c3ccccc13)CCCC2

>  <Energy>  (2) 
94.22724425914275

>  <Genealogy>  (2) 
CCOCCOCCOCCOCC[NH2+]c1c2c([n+](C)c3ccccc13)CCCC2 (protonated)
CCOCCOCCOCCOCC[NH2+]c1c2c([n+](C)c3ccccc13)CCCC2 (3D coordinates assigned)
CCOCCOCCOCCOCC[NH2+]c1c2c([n+](C)c3ccccc13)CCCC2 (nonaromatic ring conformer: 94.22724425914275 kcal/mol)

>  <smiles>  (2) 
CCOCCOCCOCCOCCNc1c2c([n+](C)c3ccccc13)CCCC2

>  <score_type>  (2) 
oracle

>  <origin>  (2) 
adg

>  <m_score__min__energy>  (2) 
-4.04

>  <m_primary>  (2) 
energy

$$$$
2:0
     RDKit          3D

 73 76  0  0  0  0  0  0  0  0999 V2000
   58.7940   33.6780   52.3840 C   0  0  0  0  0  0  0  0  0  0  0  0
   59.3680   32.2560   52.2650 C   0  0  0  0  0  0  0  0  0  0  0  0
   59.3010   31.7270   50.8910 N   0  0  0  0  0  0  0  0  0  0  0  0
   58.0980   32.1890   50.1760 C   0  0  0  0  0  0  0  0  0  0  0  0
   58.4740   32.7170   48.7870 C   0  0  0  0  0  0  0  0  0  0  0  0
   59.5360   31.9050   48.1890 N   0  0  0  0  0  0  0  0  0  0  0  0
   59.2470   30.9500   47.1640 C   0  0  0  0  0  0  0  0  0  0  0  0
   58.7430   31.4420   45.9400 C   0  0  0  0  0  0  0  0  0  0  0  0
   58.6180   32.8350   45.7080 C   0  0  0  0  0  0  0  0  0  0  0  0
   58.1280   33.3180   44.4960 C   0  0  0  0  0  0  0  0  0  0  0  0
   57.7840   32.4330   43.4820 C   0  0  0  0  0  0  0  0  0  0  0  0
   57.9140   31.0590   43.6810 C   0  0  0  0  0  0  0  0  0  0  0  0
   58.3790   30.5360   44.9160 C   0  0  0  0  0  0  0  0  0  0  0  0
   58.5120   29.1830   45.1210 N   0  0  0  0  0  0  0  0  0  0  0  0
   57.8400   28.2270   44.2090 C   0  0  0  0  0  0  0  0  0  0  0  0
   59.2610   28.7120   46.1800 C   0  0  0  0  0  0  0  0  0  0  0  0
   59.7450   27.3850   46.1620 C   0  0  0  0  0  0  0  0  0  0  0  0
   60.4500   26.8590   47.2240 C   0  0  0  0  0  0  0  0  0  0  0  0
   60.6640   27.6190   48.3530 C   0  0  0  0  0  0  0  0  0  0  0  0
   60.2320   28.9570   48.4420 C   0  0  0  0  0  0  0  0  0  0  0  0
   60.3670   29.5680   49.7530 N   0  0  0  0  0  0  0  0  0  0  0  0
   61.4560   28.9170   50.5070 C   0  0  0  0  0  0  0  0  0  0  0  0
   62.6190   29.8690   50.8360 C   0  0  0  0  0  0  0  0  0  0  0  0
   62.1940   31.3280   51.0380 C   0  0  0  0  0  0  0  0  0  0  0  0
   62.2510   32.0360   49.7420 N   0  0  0  0  0  0  0  0  0  0  0  0
   63.3680   31.6000   48.8770 C   0  0  0  0  0  0  0  0  0  0  0  0
   63.3940   32.3710   47.5390 C   0  0  0  0  0  0  0  0  0  0  0  0
   62.0770   33.1140   47.2770 C   0  0  0  0  0  0  0  0  0  0  0  0
   61.7260   34.0760   48.4320 C   0  0  0  0  0  0  0  0  0  0  0  0
   62.1080   33.5110   49.8270 C   0  0  2  0  0  0  0  0  0  0  0  0
   63.3660   34.2180   50.3810 C   0  0  0  0  0  0  0  0  0  0  0  0
   59.5780   29.5610   47.2950 C   0  0  0  0  0  0  0  0  0  0  0  0
   58.6872   33.9426   53.4463 H   0  0  0  0  0  0  0  0  0  0  0  0
   59.4750   34.3904   51.8954 H   0  0  0  0  0  0  0  0  0  0  0  0
   57.8093   33.7180   51.8954 H   0  0  0  0  0  0  0  0  0  0  0  0
   60.4206   32.2739   52.5839 H   0  0  0  0  0  0  0  0  0  0  0  0
   58.7597   31.5984   52.9034 H   0  0  0  0  0  0  0  0  0  0  0  0
   60.1560   32.0280   50.3620 H   0  0  0  0  0  0  0  0  0  0  0  0
   57.3958   31.3493   50.0671 H   0  0  0  0  0  0  0  0  0  0  0  0
   57.6291   33.0003   50.7521 H   0  0  0  0  0  0  0  0  0  0  0  0
   57.5870   32.6849   48.1373 H   0  0  0  0  0  0  0  0  0  0  0  0
   58.8375   33.7501   48.8903 H   0  0  0  0  0  0  0  0  0  0  0  0
   60.5400   32.0930   48.4170 H   0  0  0  0  0  0  0  0  0  0  0  0
   58.9119   33.5445   46.4956 H   0  0  0  0  0  0  0  0  0  0  0  0
   58.0135   34.4012   44.3422 H   0  0  0  0  0  0  0  0  0  0  0  0
   57.4089   32.8163   42.5216 H   0  0  0  0  0  0  0  0  0  0  0  0
   57.6515   30.3680   42.8664 H   0  0  0  0  0  0  0  0  0  0  0  0
   57.3068   27.4685   44.8010 H   0  0  0  0  0  0  0  0  0  0  0  0
   57.1225   28.7680   43.5746 H   0  0  0  0  0  0  0  0  0  0  0  0
   58.5920   27.7350   43.5746 H   0  0  0  0  0  0  0  0  0  0  0  0
   59.5550   26.7562   45.2797 H   0  0  0  0  0  0  0  0  0  0  0  0
   60.8416   25.8325   47.1697 H   0  0  0  0  0  0  0  0  0  0  0  0
   61.1871   27.1683   49.2093 H   0  0  0  0  0  0  0  0  0  0  0  0
   59.4920   29.6240   50.2970 H   0  0  0  0  0  0  0  0  0  0  0  0
   60.6280   30.5700   49.6130 H   0  0  0  0  0  0  0  0  0  0  0  0
   61.0445   28.5288   51.4504 H   0  0  0  0  0  0  0  0  0  0  0  0
   61.8598   28.1153   49.8713 H   0  0  0  0  0  0  0  0  0  0  0  0
   63.1018   29.5185   51.7602 H   0  0  0  0  0  0  0  0  0  0  0  0
   63.2976   29.8527   49.9704 H   0  0  0  0  0  0  0  0  0  0  0  0
   61.1667   31.3608   51.4300 H   0  0  0  0  0  0  0  0  0  0  0  0
   62.8726   31.8142   51.7543 H   0  0  0  0  0  0  0  0  0  0  0  0
   64.3166   31.7737   49.4062 H   0  0  0  0  0  0  0  0  0  0  0  0
   63.2293   30.5321   48.6528 H   0  0  0  0  0  0  0  0  0  0  0  0
   64.2149   33.1027   47.5668 H   0  0  0  0  0  0  0  0  0  0  0  0
   63.5386   31.6407   46.7292 H   0  0  0  0  0  0  0  0  0  0  0  0
   62.1733   33.6934   46.3470 H   0  0  0  0  0  0  0  0  0  0  0  0
   61.2725   32.3683   47.1947 H   0  0  0  0  0  0  0  0  0  0  0  0
   62.2654   35.0220   48.2769 H   0  0  0  0  0  0  0  0  0  0  0  0
   60.6355   34.2198   48.4217 H   0  0  0  0  0  0  0  0  0  0  0  0
   61.3049   33.7195   50.5492 H   0  0  0  0  0  0  0  0  0  0  0  0
   63.3404   34.2036   51.4806 H   0  0  0  0  0  0  0  0  0  0  0  0
   64.2665   33.6938   50.0283 H   0  0  0  0  0  0  0  0  0  0  0  0
   63.3864   35.2597   50.0283 H   0  0  0  0  0  0  0  0  0  0  0  0
  1  2  1  0
  2  3  1  0
  3  4  1  0
  4  5  1  0
  5  6  1  0
  6  7  1  0
  7  8  2  0
  8  9  1  0
  9 10  2  0
 10 11  1  0
 11 12  2  0
 12 13  1  0
 13 14  2  0
 14 15  1  0
 14 16  1  0
 16 17  2  0
 17 18  1  0
 18 19  2  0
 19 20  1  0
 20 21  1  0
 21 22  1  0
 22 23  1  0
 23 24  1  0
 24 25  1  0
 25 26  1  0
 26 27  1  0
 27 28  1  0
 28 29  1  0
 29 30  1  0
 30 31  1  0
 20 32  2  0
 32  7  1  0
 13  8  1  0
 32 16  1  0
 30 25  1  0
  1 33  1  0
  1 34  1  0
  1 35  1  0
  2 36  1  0
  2 37  1  0
  3 38  1  0
  4 39  1  0
  4 40  1  0
  5 41  1  0
  5 42  1  0
  6 43  1  0
  9 44  1  0
 10 45  1  0
 11 46  1  0
 12 47  1  0
 15 48  1  0
 15 49  1  0
 15 50  1  0
 17 51  1  0
 18 52  1  0
 19 53  1  0
 21 54  1  0
 21 55  1  0
 22 56  1  0
 22 57  1  0
 23 58  1  0
 23 59  1  0
 24 60  1  0
 24 61  1  0
 26 62  1  0
 26 63  1  0
 27 64  1  0
 27 65  1  0
 28 66  1  0
 28 67  1  0
 29 68  1  0
 29 69  1  0
 30 70  1  1
 31 71  1  0
 31 72  1  0
 31 73  1  0
M  CHG  2  14   1  21   1
M  END
>  <UniqueID>  (3) 
3

>  <SMILES>  (3) 
CCNCCNc1c2ccccc2[n+](C)c2cccc([NH2+]CCCN3CCCC[C@@H]3C)c12

>  <Energy>  (3) 
119.90676748495159

>  <Genealogy>  (3) 
CCNCCNc1c2ccccc2[n+](C)c2cccc([NH2+]CCCN3CCCCC3C)c12 (protonated)
CCNCCNc1c2ccccc2[n+](C)c2cccc([NH2+]CCCN3CCCC[C@@H]3C)c12 (chirality)
CCNCCNc1c2ccccc2[n+](C)c2cccc([NH2+]CCCN3CCCC[C@@H]3C)c12 (3D coordinates assigned)
CCNCCNc1c2ccccc2[n+](C)c2cccc([NH2+]CCCN3CCCC[C@@H]3C)c12 (nonaromatic ring conformer: 119.90676748495159 kcal/mol)

>  <smiles>  (3) 
CCNCCNc1c2ccccc2[n+](C)c2cccc(NCCCN3CCCCC3C)c12

>  <score_type>  (3) 
oracle

>  <origin>  (3) 
adg

>  <m_score__min__energy>  (3) 
-4.25

>  <m_primary>  (3) 
energy

$$$$
3:0
     RDKit          3D

 65 67  0  0  0  0  0  0  0  0999 V2000
   59.6840   35.3070   45.6740 C   0  0  0  0  0  0  0  0  0  0  0  0
   59.6220   34.9480   47.1540 C   0  0  0  0  0  0  0  0  0  0  0  0
   60.8770   34.4620   47.5940 O   0  0  0  0  0  0  0  0  0  0  0  0
   61.5980   33.9040   46.5150 C   0  0  0  0  0  0  0  0  0  0  0  0
   62.7740   33.0920   47.0580 C   0  0  0  0  0  0  0  0  0  0  0  0
   62.3410   32.1900   48.0580 O   0  0  0  0  0  0  0  0  0  0  0  0
   63.1430   32.2890   49.2220 C   0  0  0  0  0  0  0  0  0  0  0  0
   62.4170   33.0600   50.3360 C   0  0  0  0  0  0  0  0  0  0  0  0
   61.1890   33.7070   49.8340 N   0  0  0  0  0  0  0  0  0  0  0  0
   60.0320   33.4800   50.7200 C   0  0  0  0  0  0  0  0  0  0  0  0
   59.3270   32.1230   50.4900 C   0  0  0  0  0  0  0  0  0  0  0  0
   58.5270   32.0490   49.1760 C   0  0  0  0  0  0  0  0  0  0  0  0
   59.3990   31.8350   48.0170 N   0  0  0  0  0  0  0  0  0  0  0  0
   59.1540   30.7680   47.0800 C   0  0  0  0  0  0  0  0  0  0  0  0
   59.5270   29.4510   47.4030 C   0  0  0  0  0  0  0  0  0  0  0  0
   59.1900   28.3950   46.5150 C   0  0  0  0  0  0  0  0  0  0  0  0
   58.4250   28.6550   45.3930 N   0  0  0  0  0  0  0  0  0  0  0  0
   57.8520   27.5360   44.6110 C   0  0  0  0  0  0  0  0  0  0  0  0
   58.2190   29.9560   44.9770 C   0  0  0  0  0  0  0  0  0  0  0  0
   57.6760   30.2550   43.7000 C   0  0  0  0  0  0  0  0  0  0  0  0
   57.4790   31.5750   43.2940 C   0  0  0  0  0  0  0  0  0  0  0  0
   57.8340   32.6240   44.1310 C   0  0  0  0  0  0  0  0  0  0  0  0
   58.3900   32.3640   45.3800 C   0  0  0  0  0  0  0  0  0  0  0  0
   58.5780   31.0370   45.8250 C   0  0  0  0  0  0  0  0  0  0  0  0
   59.6090   26.9670   46.8470 C   0  0  0  0  0  0  0  0  0  0  0  0
   60.7730   26.8880   47.8310 C   0  0  0  0  0  0  0  0  0  0  0  0
   60.4650   27.7380   49.0500 C   0  0  0  0  0  0  0  0  0  0  0  0
   60.3650   29.2090   48.6500 C   0  0  0  0  0  0  0  0  0  0  0  0
   59.8703   36.3857   45.5659 H   0  0  0  0  0  0  0  0  0  0  0  0
   60.4983   34.7444   45.1940 H   0  0  0  0  0  0  0  0  0  0  0  0
   58.7282   35.0500   45.1940 H   0  0  0  0  0  0  0  0  0  0  0  0
   59.3560   35.8440   47.7341 H   0  0  0  0  0  0  0  0  0  0  0  0
   58.8632   34.1653   47.3012 H   0  0  0  0  0  0  0  0  0  0  0  0
   60.9362   33.2469   45.9317 H   0  0  0  0  0  0  0  0  0  0  0  0
   61.9747   34.7099   45.8680 H   0  0  0  0  0  0  0  0  0  0  0  0
   63.2319   32.5248   46.2342 H   0  0  0  0  0  0  0  0  0  0  0  0
   63.5067   33.7836   47.4995 H   0  0  0  0  0  0  0  0  0  0  0  0
   63.3789   31.2767   49.5819 H   0  0  0  0  0  0  0  0  0  0  0  0
   64.0629   32.8345   48.9647 H   0  0  0  0  0  0  0  0  0  0  0  0
   62.1486   32.3586   51.1397 H   0  0  0  0  0  0  0  0  0  0  0  0
   63.0921   33.8439   50.7098 H   0  0  0  0  0  0  0  0  0  0  0  0
   60.9790   33.3680   48.8680 H   0  0  0  0  0  0  0  0  0  0  0  0
   61.3470   34.7410   49.7860 H   0  0  0  0  0  0  0  0  0  0  0  0
   60.3809   33.5173   51.7625 H   0  0  0  0  0  0  0  0  0  0  0  0
   59.2962   34.2658   50.4940 H   0  0  0  0  0  0  0  0  0  0  0  0
   60.0927   31.3334   50.4740 H   0  0  0  0  0  0  0  0  0  0  0  0
   58.6053   31.9956   51.3103 H   0  0  0  0  0  0  0  0  0  0  0  0
   57.8116   31.2160   49.2415 H   0  0  0  0  0  0  0  0  0  0  0  0
   58.0067   33.0084   49.0389 H   0  0  0  0  0  0  0  0  0  0  0  0
   60.2710   32.4000   47.9220 H   0  0  0  0  0  0  0  0  0  0  0  0
   57.4604   26.7713   45.2980 H   0  0  0  0  0  0  0  0  0  0  0  0
   57.0355   27.9120   43.9770 H   0  0  0  0  0  0  0  0  0  0  0  0
   58.6344   27.0933   43.9770 H   0  0  0  0  0  0  0  0  0  0  0  0
   57.4064   29.4333   43.0202 H   0  0  0  0  0  0  0  0  0  0  0  0
   57.0408   31.7853   42.3072 H   0  0  0  0  0  0  0  0  0  0  0  0
   57.6755   33.6630   43.8063 H   0  0  0  0  0  0  0  0  0  0  0  0
   58.6865   33.2019   46.0281 H   0  0  0  0  0  0  0  0  0  0  0  0
   58.7463   26.4438   47.2853 H   0  0  0  0  0  0  0  0  0  0  0  0
   59.9459   26.5019   45.9088 H   0  0  0  0  0  0  0  0  0  0  0  0
   60.9207   25.8429   48.1408 H   0  0  0  0  0  0  0  0  0  0  0  0
   61.6878   27.2602   47.3467 H   0  0  0  0  0  0  0  0  0  0  0  0
   59.5094   27.4139   49.4880 H   0  0  0  0  0  0  0  0  0  0  0  0
   61.2729   27.6185   49.7868 H   0  0  0  0  0  0  0  0  0  0  0  0
   59.9135   29.7654   49.4846 H   0  0  0  0  0  0  0  0  0  0  0  0
   61.3858   29.5487   48.4208 H   0  0  0  0  0  0  0  0  0  0  0  0
  1  2  1  0
  2  3  1  0
  3  4  1  0
  4  5  1  0
  5  6  1  0
  6  7  1  0
  7  8  1  0
  8  9  1  0
  9 10  1  0
 10 11  1  0
 11 12  1  0
 12 13  1  0
 13 14  1  0
 14 15  2  0
 15 16  1  0
 16 17  2  0
 17 18  1  0
 17 19  1  0
 19 20  2  0
 20 21  1  0
 21 22  2  0
 22 23  1  0
 23 24  2  0
 16 25  1  0
 25 26  1  0
 26 27  1  0
 27 28  1  0
 24 14  1  0
 28 15  1  0
 24 19  1  0
  1 29  1  0
  1 30  1  0
  1 31  1  0
  2 32  1  0
  2 33  1  0
  4 34  1  0
  4 35  1  0
  5 36  1  0
  5 37  1  0
  7 38  1  0
  7 39  1  0
  8 40  1  0
  8 41  1  0
  9 42  1  0
  9 43  1  0
 10 44  1  0
 10 45  1  0
 11 46  1  0
 11 47  1  0
 12 48  1  0
 12 49  1  0
 13 50  1  0
 18 51  1  0
 18 52  1  0
 18 53  1  0
 20 54  1  0
 21 55  1  0
 22 56  1  0
 23 57  1  0
 25 58  1  0
 25 59  1  0
 26 60  1  0
 26 61  1  0
 27 62  1  0
 27 63  1  0
 28 64  1  0
 28 65  1  0
M  CHG  2   9   1  17   1
M  END
>  <UniqueID>  (4) 
4

>  <SMILES>  (4) 
CCOCCOCC[NH2+]CCCNc1c2c([n+](C)c3ccccc13)CCCC2

>  <Energy>  (4) 
83.71910847123134

>  <Genealogy>  (4) 
CCOCCOCC[NH2+]CCCNc1c2c([n+](C)c3ccccc13)CCCC2 (protonated)
CCOCCOCC[NH2+]CCCNc1c2c([n+](C)c3ccccc13)CCCC2 (3D coordinates assigned)
CCOCCOCC[NH2+]CCCNc1c2c([n+](C)c3ccccc13)CCCC2 (nonaromatic ring conformer: 83.71910847123134 kcal/mol)

>  <smiles>  (4) 
CCOCCOCCNCCCNc1c2c([n+](C)c3ccccc13)CCCC2

>  <score_type>  (4) 
oracle

>  <origin>  (4) 
adg

>  <m_score__min__energy>  (4) 
-4.3399999999999999

>  <m_primary>  (4) 
energy

$$$$
4:0
     RDKit          3D

 38 39  0  0  0  0  0  0  0  0999 V2000
   59.7320   28.5140   45.3060 C   0  0  0  0  0  0  0  0  0  0  0  0
   58.3060   28.3070   45.8120 C   0  0  0  0  0  0  0  0  0  0  0  0
   57.2670   28.5420   44.7090 C   0  0  0  0  0  0  0  0  0  0  0  0
   56.2700   29.5280   45.1490 N   0  0  0  0  0  0  0  0  0  0  0  0
   55.9400   30.5020   44.0960 C   0  0  0  0  0  0  0  0  0  0  0  0
   57.0160   30.5650   42.9940 C   0  0  0  0  0  0  0  0  0  0  0  0
   57.6780   31.9480   42.9080 C   0  0  0  0  0  0  0  0  0  0  0  0
   58.1020   32.4530   44.2640 C   0  0  0  0  0  0  0  0  0  0  0  0
   58.2320   33.8310   44.4940 C   0  0  0  0  0  0  0  0  0  0  0  0
   58.6000   34.2890   45.7580 C   0  0  0  0  0  0  0  0  0  0  0  0
   58.8360   33.3740   46.7900 C   0  0  0  0  0  0  0  0  0  0  0  0
   59.2060   33.8070   48.0710 C   0  0  0  0  0  0  0  0  0  0  0  0
   59.4350   32.8730   49.0880 C   0  0  0  0  0  0  0  0  0  0  0  0
   59.9400   33.4660   50.8320 Br  0  0  0  0  0  0  0  0  0  0  0  0
   59.2930   31.5060   48.8290 C   0  0  0  0  0  0  0  0  0  0  0  0
   58.9230   31.0660   47.5550 C   0  0  0  0  0  0  0  0  0  0  0  0
   58.6930   31.9920   46.5270 C   0  0  0  0  0  0  0  0  0  0  0  0
   58.3310   31.5700   45.2800 N   0  0  0  0  0  0  0  0  0  0  0  0
   60.4144   28.6131   46.1630 H   0  0  0  0  0  0  0  0  0  0  0  0
   60.0334   27.6502   44.6953 H   0  0  0  0  0  0  0  0  0  0  0  0
   59.7753   29.4278   44.6953 H   0  0  0  0  0  0  0  0  0  0  0  0
   58.2059   27.2755   46.1806 H   0  0  0  0  0  0  0  0  0  0  0  0
   58.1206   29.0354   46.6151 H   0  0  0  0  0  0  0  0  0  0  0  0
   57.7736   28.9159   43.8070 H   0  0  0  0  0  0  0  0  0  0  0  0
   56.7578   27.5921   44.4889 H   0  0  0  0  0  0  0  0  0  0  0  0
   56.6360   30.0350   45.9890 H   0  0  0  0  0  0  0  0  0  0  0  0
   54.9818   30.2156   43.6379 H   0  0  0  0  0  0  0  0  0  0  0  0
   55.8823   31.4954   44.5649 H   0  0  0  0  0  0  0  0  0  0  0  0
   57.7903   29.8146   43.2116 H   0  0  0  0  0  0  0  0  0  0  0  0
   56.5245   30.3654   42.0304 H   0  0  0  0  0  0  0  0  0  0  0  0
   58.5649   31.8782   42.2611 H   0  0  0  0  0  0  0  0  0  0  0  0
   56.9416   32.6537   42.4961 H   0  0  0  0  0  0  0  0  0  0  0  0
   58.0443   34.5469   43.6802 H   0  0  0  0  0  0  0  0  0  0  0  0
   58.7047   35.3681   45.9439 H   0  0  0  0  0  0  0  0  0  0  0  0
   59.3165   34.8819   48.2771 H   0  0  0  0  0  0  0  0  0  0  0  0
   59.4731   30.7746   49.6306 H   0  0  0  0  0  0  0  0  0  0  0  0
   58.8118   29.9895   47.3579 H   0  0  0  0  0  0  0  0  0  0  0  0
   58.2230   30.5460   45.0940 H   0  0  0  0  0  0  0  0  0  0  0  0
  1  2  1  0
  2  3  1  0
  3  4  1  0
  4  5  1  0
  5  6  1  0
  6  7  1  0
  7  8  1  0
  8  9  2  0
  9 10  1  0
 10 11  2  0
 11 12  1  0
 12 13  2  0
 13 14  1  0
 13 15  1  0
 15 16  2  0
 16 17  1  0
 17 18  2  0
 18  8  1  0
 17 11  1  0
  1 19  1  0
  1 20  1  0
  1 21  1  0
  2 22  1  0
  2 23  1  0
  3 24  1  0
  3 25  1  0
  4 26  1  0
  5 27  1  0
  5 28  1  0
  6 29  1  0
  6 30  1  0
  7 31  1  0
  7 32  1  0
  9 33  1  0
 10 34  1  0
 12 35  1  0
 15 36  1  0
 16 37  1  0
 18 38  1  0
M  CHG  1  18   1
M  END
>  <UniqueID>  (5) 
5

>  <SMILES>  (5) 
CCCNCCCc1ccc2cc(Br)ccc2[nH+]1

>  <Energy>  (5) 
32.19842339386127

>  <Genealogy>  (5) 
CCCNCCCc1ccc2cc(Br)ccc2[nH+]1 (protonated)
CCCNCCCc1ccc2cc(Br)ccc2[nH+]1 (3D coordinates assigned)
CCCNCCCc1ccc2cc(Br)ccc2[nH+]1 (optimized conformer: 32.19842339386127 kcal/mol)

>  <smiles>  (5) 
CCCNCCCc1ccc2cc(Br)ccc2n1

>  <score_type>  (5) 
oracle

>  <origin>  (5) 
adg

>  <m_score__min__energy>  (5) 
-6.0700000000000003

>  <m_primary>  (5) 
energy

$$$$
5:0
     RDKit          3D

 38 41  0  0  0  0  0  0  0  0999 V2000
   59.9310   29.5240   44.8590 C   0  0  0  0  0  0  0  0  0  0  0  0
   58.5030   29.6760   44.5810 N   0  0  0  0  0  0  0  0  0  0  0  0
   57.6910   30.7290   44.8450 C   0  0  0  0  0  0  0  0  0  0  0  0
   58.0880   31.9760   45.5330 C   0  0  0  0  0  0  0  0  0  0  0  0
   58.4700   31.9740   46.8860 C   0  0  0  0  0  0  0  0  0  0  0  0
   58.8510   33.1640   47.5130 C   0  0  0  0  0  0  0  0  0  0  0  0
   58.8650   34.3620   46.7950 C   0  0  0  0  0  0  0  0  0  0  0  0
   58.5070   34.3700   45.4440 C   0  0  0  0  0  0  0  0  0  0  0  0
   58.1260   33.1820   44.8130 C   0  0  0  0  0  0  0  0  0  0  0  0
   56.4230   30.4820   44.4550 N   0  0  0  0  0  0  0  0  0  0  0  0
   56.4270   29.2740   43.9160 N   0  0  0  0  0  0  0  0  0  0  0  0
   57.6750   28.7870   43.9960 C   0  0  0  0  0  0  0  0  0  0  0  0
   58.1360   27.1320   43.4640 S   0  0  0  0  0  0  0  0  0  0  0  0
   57.6680   26.3260   45.0360 C   0  0  0  0  0  0  0  0  0  0  0  0
   58.4000   26.9310   46.1910 C   0  0  0  0  0  0  0  0  0  0  0  0
   57.9430   28.0080   46.8760 N   0  0  0  0  0  0  0  0  0  0  0  0
   58.7600   28.2990   47.9210 C   0  0  0  0  0  0  0  0  0  0  0  0
   58.5480   29.3450   48.8190 C   0  0  0  0  0  0  0  0  0  0  0  0
   59.4640   29.5280   49.8700 C   0  0  0  0  0  0  0  0  0  0  0  0
   60.5700   28.6670   50.0110 C   0  0  0  0  0  0  0  0  0  0  0  0
   60.7710   27.6160   49.1030 C   0  0  0  0  0  0  0  0  0  0  0  0
   59.8520   27.4580   48.0700 C   0  0  0  0  0  0  0  0  0  0  0  0
   59.8250   26.2980   46.8590 S   0  0  0  0  0  0  0  0  0  0  0  0
   60.0930   29.5068   45.9469 H   0  0  0  0  0  0  0  0  0  0  0  0
   60.2919   28.5824   44.4196 H   0  0  0  0  0  0  0  0  0  0  0  0
   60.4820   30.3686   44.4196 H   0  0  0  0  0  0  0  0  0  0  0  0
   58.4691   31.0319   47.4538 H   0  0  0  0  0  0  0  0  0  0  0  0
   59.1404   33.1569   48.5742 H   0  0  0  0  0  0  0  0  0  0  0  0
   59.1576   35.2985   47.2924 H   0  0  0  0  0  0  0  0  0  0  0  0
   58.5250   35.3121   44.8765 H   0  0  0  0  0  0  0  0  0  0  0  0
   57.8545   33.1915   43.7471 H   0  0  0  0  0  0  0  0  0  0  0  0
   55.5870   28.7910   43.5280 H   0  0  0  0  0  0  0  0  0  0  0  0
   56.5861   26.4470   45.1934 H   0  0  0  0  0  0  0  0  0  0  0  0
   57.9333   25.2603   44.9743 H   0  0  0  0  0  0  0  0  0  0  0  0
   57.6815   30.0134   48.7072 H   0  0  0  0  0  0  0  0  0  0  0  0
   59.3160   30.3490   50.5869 H   0  0  0  0  0  0  0  0  0  0  0  0
   61.2799   28.8193   50.8373 H   0  0  0  0  0  0  0  0  0  0  0  0
   61.6302   26.9367   49.2049 H   0  0  0  0  0  0  0  0  0  0  0  0
  1  2  1  0
  2  3  1  0
  3  4  1  0
  4  5  2  0
  5  6  1  0
  6  7  2  0
  7  8  1  0
  8  9  2  0
  3 10  2  0
 10 11  1  0
 11 12  2  0
 12 13  1  0
 13 14  1  0
 14 15  1  0
 15 16  2  0
 16 17  1  0
 17 18  2  0
 18 19  1  0
 19 20  2  0
 20 21  1  0
 21 22  2  0
 22 23  1  0
 12  2  1  0
 23 15  1  0
  9  4  1  0
 22 17  1  0
  1 24  1  0
  1 25  1  0
  1 26  1  0
  5 27  1  0
  6 28  1  0
  7 29  1  0
  8 30  1  0
  9 31  1  0
 11 32  1  0
 14 33  1  0
 14 34  1  0
 18 35  1  0
 19 36  1  0
 20 37  1  0
 21 38  1  0
M  CHG  1  11   1
M  END
>  <UniqueID>  (6) 
6

>  <SMILES>  (6) 
Cn1c(-c2ccccc2)n[nH+]c1SCc1nc2ccccc2s1

>  <Energy>  (6) 
109.63220340386987

>  <Genealogy>  (6) 
Cn1c(-c2ccccc2)n[nH+]c1SCc1nc2ccccc2s1 (protonated)
Cn1c(-c2ccccc2)n[nH+]c1SCc1nc2ccccc2s1 (3D coordinates assigned)
Cn1c(-c2ccccc2)n[nH+]c1SCc1nc2ccccc2s1 (optimized conformer: 109.63220340386987 kcal/mol)

>  <smiles>  (6) 
Cn1c(SCc2nc3ccccc3s2)nnc1-c1ccccc1

>  <score_type>  (6) 
oracle

>  <origin>  (6) 
adg

>  <m_score__min__energy>  (6) 
-6.3799999999999999

>  <m_primary>  (6) 
energy

$$$$
6:0
     RDKit          3D

 43 46  0  0  0  0  0  0  0  0999 V2000
   59.6570   28.2630   48.5880 C   0  0  0  0  0  0  0  0  0  0  0  0
   59.9660   26.9790   47.8300 C   0  0  0  0  0  0  0  0  0  0  0  0
   60.6000   27.3380   46.1550 S   0  0  0  0  0  0  0  0  0  0  0  0
   59.5560   28.7870   45.8930 C   0  0  0  0  0  0  0  0  0  0  0  0
   60.0820   30.0210   46.1680 N   0  0  0  0  0  0  0  0  0  0  0  0
   59.2970   31.1120   46.0080 C   0  0  0  0  0  0  0  0  0  0  0  0
   58.0060   31.0230   45.5730 C   0  0  0  0  0  0  0  0  0  0  0  0
   57.4240   32.2380   45.4910 N   0  0  0  0  0  0  0  0  0  0  0  0
   58.3850   33.1030   45.8890 C   0  0  0  0  0  0  0  0  0  0  0  0
   58.2750   34.4880   45.9830 C   0  0  0  0  0  0  0  0  0  0  0  0
   59.3970   35.2110   46.4240 C   0  0  0  0  0  0  0  0  0  0  0  0
   60.5950   34.5460   46.7620 C   0  0  0  0  0  0  0  0  0  0  0  0
   60.6940   33.1360   46.6620 C   0  0  0  0  0  0  0  0  0  0  0  0
   61.8610   32.4310   46.9870 O   0  0  0  0  0  0  0  0  0  0  0  0
   63.1470   33.0270   47.1180 C   0  0  0  0  0  0  0  0  0  0  0  0
   59.5600   32.4500   46.2180 C   0  0  0  0  0  0  0  0  0  0  0  0
   57.4640   29.7810   45.2770 C   0  0  0  0  0  0  0  0  0  0  0  0
   56.2750   29.6890   44.8630 O   0  0  0  0  0  0  0  0  0  0  0  0
   58.2530   28.6640   45.4380 N   0  0  0  0  0  0  0  0  0  0  0  0
   57.7100   27.3670   45.1260 C   0  0  0  0  0  0  0  0  0  0  0  0
   58.0710   26.7180   43.9360 C   0  0  0  0  0  0  0  0  0  0  0  0
   57.5430   25.4590   43.6340 C   0  0  0  0  0  0  0  0  0  0  0  0
   56.6560   24.8410   44.5220 C   0  0  0  0  0  0  0  0  0  0  0  0
   56.2980   25.4800   45.7120 C   0  0  0  0  0  0  0  0  0  0  0  0
   56.8240   26.7400   46.0170 C   0  0  0  0  0  0  0  0  0  0  0  0
   59.7034   28.0703   49.6700 H   0  0  0  0  0  0  0  0  0  0  0  0
   60.3954   29.0333   48.3208 H   0  0  0  0  0  0  0  0  0  0  0  0
   58.6490   28.6130   48.3208 H   0  0  0  0  0  0  0  0  0  0  0  0
   60.7240   26.4076   48.3859 H   0  0  0  0  0  0  0  0  0  0  0  0
   59.0365   26.3986   47.7340 H   0  0  0  0  0  0  0  0  0  0  0  0
   61.0660   30.1100   46.5000 H   0  0  0  0  0  0  0  0  0  0  0  0
   56.4500   32.4620   45.1890 H   0  0  0  0  0  0  0  0  0  0  0  0
   57.3381   35.0010   45.7200 H   0  0  0  0  0  0  0  0  0  0  0  0
   59.3406   36.3065   46.5065 H   0  0  0  0  0  0  0  0  0  0  0  0
   61.4618   35.1289   47.1070 H   0  0  0  0  0  0  0  0  0  0  0  0
   63.3917   33.1404   48.1844 H   0  0  0  0  0  0  0  0  0  0  0  0
   63.8992   32.3857   46.6354 H   0  0  0  0  0  0  0  0  0  0  0  0
   63.1439   34.0155   46.6354 H   0  0  0  0  0  0  0  0  0  0  0  0
   58.7713   27.2008   43.2385 H   0  0  0  0  0  0  0  0  0  0  0  0
   57.8251   24.9544   42.6981 H   0  0  0  0  0  0  0  0  0  0  0  0
   56.2400   23.8511   44.2832 H   0  0  0  0  0  0  0  0  0  0  0  0
   55.6018   24.9918   46.4098 H   0  0  0  0  0  0  0  0  0  0  0  0
   56.5433   27.2400   46.9557 H   0  0  0  0  0  0  0  0  0  0  0  0
  1  2  1  0
  2  3  1  0
  3  4  1  0
  4  5  2  0
  5  6  1  0
  6  7  2  0
  7  8  1  0
  8  9  1  0
  9 10  2  0
 10 11  1  0
 11 12  2  0
 12 13  1  0
 13 14  1  0
 14 15  1  0
 13 16  2  0
  7 17  1  0
 17 18  2  0
 17 19  1  0
 19 20  1  0
 20 21  2  0
 21 22  1  0
 22 23  2  0
 23 24  1  0
 24 25  2  0
 19  4  1  0
 25 20  1  0
 16  6  1  0
 16  9  1  0
  1 26  1  0
  1 27  1  0
  1 28  1  0
  2 29  1  0
  2 30  1  0
  5 31  1  0
  8 32  1  0
 10 33  1  0
 11 34  1  0
 12 35  1  0
 15 36  1  0
 15 37  1  0
 15 38  1  0
 21 39  1  0
 22 40  1  0
 23 41  1  0
 24 42  1  0
 25 43  1  0
M  CHG  1   5   1
M  END
>  <UniqueID>  (7) 
7

>  <SMILES>  (7) 
CCSc1[nH+]c2c([nH]c3cccc(OC)c32)c(=O)n1-c1ccccc1

>  <Energy>  (7) 
93.08883209285906

>  <Genealogy>  (7) 
CCSc1[nH+]c2c([nH]c3cccc(OC)c32)c(=O)n1-c1ccccc1 (protonated)
CCSc1[nH+]c2c([nH]c3cccc(OC)c32)c(=O)n1-c1ccccc1 (3D coordinates assigned)
CCSc1[nH+]c2c([nH]c3cccc(OC)c32)c(=O)n1-c1ccccc1 (optimized conformer: 93.08883209285906 kcal/mol)

>  <smiles>  (7) 
CCSc1nc2c([nH]c3cccc(OC)c32)c(=O)n1-c1ccccc1

>  <score_type>  (7) 
oracle

>  <origin>  (7) 
adg

>  <m_score__min__energy>  (7) 
-5.8300000000000001

>  <m_primary>  (7) 
energy

$$$$
7:0
     RDKit          3D

 58 60  0  0  0  0  0  0  0  0999 V2000
   59.5811   34.9794   48.2778 H   0  0  0  0  0  0  0  0  0  0  0  0
   59.2640   34.5590   47.3120 C   0  0  0  0  0  0  0  0  0  0  0  0
   59.6330   35.1960   46.1250 C   0  0  0  0  0  0  0  0  0  0  0  0
   60.2224   36.1240   46.1617 H   0  0  0  0  0  0  0  0  0  0  0  0
   59.2570   34.6600   44.8930 C   0  0  0  0  0  0  0  0  0  0  0  0
   59.5434   35.1698   43.9613 H   0  0  0  0  0  0  0  0  0  0  0  0
   58.5150   33.4730   44.8420 C   0  0  0  0  0  0  0  0  0  0  0  0
   58.1450   32.8980   43.6220 C   0  0  0  0  0  0  0  0  0  0  0  0
   58.4238   33.3881   42.6775 H   0  0  0  0  0  0  0  0  0  0  0  0
   57.4230   31.7040   43.6000 C   0  0  0  0  0  0  0  0  0  0  0  0
   57.1378   31.2472   42.6408 H   0  0  0  0  0  0  0  0  0  0  0  0
   57.0620   31.0880   44.8130 C   0  0  0  0  0  0  0  0  0  0  0  0
   56.4140   29.9580   44.8630 N   0  0  0  0  0  0  0  0  0  0  0  0
   56.9690   28.6060   44.7900 C   0  0  0  0  0  0  0  0  0  0  0  0
   56.1549   27.8933   44.5918 H   0  0  0  0  0  0  0  0  0  0  0  0
   57.7132   28.5761   43.9805 H   0  0  0  0  0  0  0  0  0  0  0  0
   57.6610   28.2240   46.1040 C   0  0  0  0  0  0  0  0  0  0  0  0
   57.6187   29.0748   46.8000 H   0  0  0  0  0  0  0  0  0  0  0  0
   57.1478   27.3577   46.5468 H   0  0  0  0  0  0  0  0  0  0  0  0
   59.0770   27.8730   45.8410 N   0  0  0  0  0  0  0  0  0  0  0  0
   59.7740   27.3150   47.0230 C   0  0  0  0  0  0  0  0  0  0  0  0
   59.0480   26.7497   47.6257 H   0  0  0  0  0  0  0  0  0  0  0  0
   60.5867   26.6704   46.6570 H   0  0  0  0  0  0  0  0  0  0  0  0
   60.4080   28.4090   47.9100 C   0  0  0  0  0  0  0  0  0  0  0  0
   60.2395   28.1569   48.9674 H   0  0  0  0  0  0  0  0  0  0  0  0
   61.4850   28.4562   47.6914 H   0  0  0  0  0  0  0  0  0  0  0  0
   59.8400   29.6710   47.6410 O   0  0  0  0  0  0  0  0  0  0  0  0
   60.1900   30.0720   46.3250 C   0  0  0  0  0  0  0  0  0  0  0  0
   59.6473   30.9976   46.0826 H   0  0  0  0  0  0  0  0  0  0  0  0
   61.2794   30.2226   46.3010 H   0  0  0  0  0  0  0  0  0  0  0  0
   59.8410   29.0000   45.2640 C   0  0  0  0  0  0  0  0  0  0  0  0
   59.2382   29.4682   44.4719 H   0  0  0  0  0  0  0  0  0  0  0  0
   60.7845   28.5998   44.8644 H   0  0  0  0  0  0  0  0  0  0  0  0
   57.4250   31.6750   45.9860 N   0  0  0  0  0  0  0  0  0  0  0  0
   58.1340   32.8340   46.0410 C   0  0  0  0  0  0  0  0  0  0  0  0
   58.4900   33.3840   47.2830 C   0  0  0  0  0  0  0  0  0  0  0  0
   58.0690   32.7300   48.4510 O   0  0  0  0  0  0  0  0  0  0  0  0
   58.8750   32.4440   49.5950 C   0  0  0  0  0  0  0  0  0  0  0  0
   58.4607   31.5686   50.1166 H   0  0  0  0  0  0  0  0  0  0  0  0
   58.8709   33.3245   50.2543 H   0  0  0  0  0  0  0  0  0  0  0  0
   60.3240   32.1460   49.1890 C   0  0  0  0  0  0  0  0  0  0  0  0
   60.3487   31.8608   48.1269 H   0  0  0  0  0  0  0  0  0  0  0  0
   60.7025   31.3260   49.8169 H   0  0  0  0  0  0  0  0  0  0  0  0
   61.1480   33.2800   49.3830 O   0  0  0  0  0  0  0  0  0  0  0  0
   62.4010   32.8980   49.9200 C   0  0  0  0  0  0  0  0  0  0  0  0
   62.6210   31.8596   49.6314 H   0  0  0  0  0  0  0  0  0  0  0  0
   62.3664   32.9778   51.0166 H   0  0  0  0  0  0  0  0  0  0  0  0
   63.4950   33.8170   49.3810 C   0  0  0  0  0  0  0  0  0  0  0  0
   64.1875   34.0727   50.1965 H   0  0  0  0  0  0  0  0  0  0  0  0
   63.0286   34.7291   48.9802 H   0  0  0  0  0  0  0  0  0  0  0  0
   64.2150   33.1740   48.3410 O   0  0  0  0  0  0  0  0  0  0  0  0
   63.3420   32.6850   47.3390 C   0  0  0  0  0  0  0  0  0  0  0  0
   62.4370   32.2793   47.8149 H   0  0  0  0  0  0  0  0  0  0  0  0
   63.8599   31.8977   46.7716 H   0  0  0  0  0  0  0  0  0  0  0  0
   62.9450   33.8030   46.3780 C   0  0  0  0  0  0  0  0  0  0  0  0
   62.6312   34.6866   46.9531 H   0  0  0  0  0  0  0  0  0  0  0  0
   63.8052   34.0645   45.7443 H   0  0  0  0  0  0  0  0  0  0  0  0
   62.1125   33.4634   45.7443 H   0  0  0  0  0  0  0  0  0  0  0  0
  1  2  1  0
  2  3  2  0
  3  4  1  0
  3  5  1  0
  5  6  1  0
  5  7  2  0
  7  8  1  0
  8  9  1  0
  8 10  2  0
 10 11  1  0
 10 12  1  0
 12 13  2  0
 13 14  1  0
 14 15  1  0
 14 16  1  0
 14 17  1  0
 17 18  1  0
 17 19  1  0
 17 20  1  0
 20 21  1  0
 21 22  1  0
 21 23  1  0
 21 24  1  0
 24 25  1  0
 24 26  1  0
 24 27  1  0
 27 28  1  0
 28 29  1  0
 28 30  1  0
 28 31  1  0
 31 32  1  0
 31 33  1  0
 12 34  1  0
 34 35  1  0
 35 36  2  0
 36 37  1  0
 37 38  1  0
 38 39  1  0
 38 40  1  0
 38 41  1  0
 41 42  1  0
 41 43  1  0
 41 44  1  0
 44 45  1  0
 45 46  1  0
 45 47  1  0
 45 48  1  0
 48 49  1  0
 48 50  1  0
 48 51  1  0
 51 52  1  0
 52 53  1  0
 52 54  1  0
 52 55  1  0
 55 56  1  0
 55 57  1  0
 55 58  1  0
 36  2  1  0
 35  7  1  0
 31 20  1  0
M  CHG  1  34  -1
M  END
>  <UniqueID>  (8) 
8

>  <SMILES>  (8) 
CCOCCOCCOc1cccc2cc/c(=N\CCN3CCOCC3)[n-]c12

>  <Energy>  (8) 
76.14570069610383

>  <Genealogy>  (8) 
CCOCCOCCOc1cccc2ccc(=NCCN3CCOCC3)[n-]c12 (protonated)
CCOCCOCCOc1cccc2cc/c(=N\CCN3CCOCC3)[n-]c12 (cis-trans isomerization)
CCOCCOCCOc1cccc2cc/c(=N\CCN3CCOCC3)[n-]c12 (3D coordinates assigned)
CCOCCOCCOc1cccc2cc/c(=N\CCN3CCOCC3)[n-]c12 (nonaromatic ring conformer: 76.14570069610383 kcal/mol)

>  <smiles>  (8) 
CCOCCOCCOc1cccc2ccc(=NCCN3CCOCC3)[nH]c12

>  <score_type>  (8) 
oracle

>  <origin>  (8) 
adg

>  <m_score__min__energy>  (8) 
-10.369999999999999

>  <m_primary>  (8) 
energy

$$$$
8:0
     RDKit          3D

 32 34  0  0  0  0  0  0  0  0999 V2000
   57.4050   28.6740   43.7080 C   0  0  0  0  0  0  0  0  0  0  0  0
   56.4740   29.8370   43.3820 C   0  0  0  0  0  0  0  0  0  0  0  0
   56.3380   30.7080   44.5060 O   0  0  0  0  0  0  0  0  0  0  0  0
   57.3520   31.5260   45.0320 C   0  0  0  0  0  0  0  0  0  0  0  0
   58.3730   30.9090   45.7920 C   0  0  0  0  0  0  0  0  0  0  0  0
   59.4200   31.6660   46.3480 C   0  0  0  0  0  0  0  0  0  0  0  0
   59.4060   33.0460   46.1370 C   0  0  0  0  0  0  0  0  0  0  0  0
   58.4390   33.6470   45.3840 C   0  0  0  0  0  0  0  0  0  0  0  0
   57.3910   32.9270   44.8170 C   0  0  0  0  0  0  0  0  0  0  0  0
   58.6800   34.9660   45.2690 N   0  0  0  0  0  0  0  0  0  0  0  0
   59.8260   35.1330   45.9770 C   0  0  0  0  0  0  0  0  0  0  0  0
   60.2920   33.9820   46.5250 N   0  0  0  0  0  0  0  0  0  0  0  0
   61.4690   33.8340   47.3360 C   0  0  0  0  0  0  0  0  0  0  0  0
   61.3990   34.0410   48.7240 C   0  0  0  0  0  0  0  0  0  0  0  0
   62.5380   33.8840   49.5200 C   0  0  0  0  0  0  0  0  0  0  0  0
   63.7520   33.5070   48.9380 C   0  0  0  0  0  0  0  0  0  0  0  0
   63.8270   33.2820   47.5620 C   0  0  0  0  0  0  0  0  0  0  0  0
   62.6900   33.4390   46.7630 C   0  0  0  0  0  0  0  0  0  0  0  0
   57.4903   28.5674   44.7995 H   0  0  0  0  0  0  0  0  0  0  0  0
   56.9970   27.7465   43.2798 H   0  0  0  0  0  0  0  0  0  0  0  0
   58.3993   28.8691   43.2798 H   0  0  0  0  0  0  0  0  0  0  0  0
   56.8876   30.4035   42.5347 H   0  0  0  0  0  0  0  0  0  0  0  0
   55.4829   29.4343   43.1259 H   0  0  0  0  0  0  0  0  0  0  0  0
   58.3478   29.8208   45.9506 H   0  0  0  0  0  0  0  0  0  0  0  0
   60.2221   31.1873   46.9290 H   0  0  0  0  0  0  0  0  0  0  0  0
   56.6162   33.4301   44.2199 H   0  0  0  0  0  0  0  0  0  0  0  0
   60.3274   36.1049   46.0950 H   0  0  0  0  0  0  0  0  0  0  0  0
   60.4433   34.3280   49.1869 H   0  0  0  0  0  0  0  0  0  0  0  0
   62.4787   34.0572   50.6047 H   0  0  0  0  0  0  0  0  0  0  0  0
   64.6484   33.3876   49.5643 H   0  0  0  0  0  0  0  0  0  0  0  0
   64.7816   32.9809   47.1059 H   0  0  0  0  0  0  0  0  0  0  0  0
   62.7517   33.2524   45.6807 H   0  0  0  0  0  0  0  0  0  0  0  0
  1  2  1  0
  2  3  1  0
  3  4  1  0
  4  5  2  0
  5  6  1  0
  6  7  2  0
  7  8  1  0
  8  9  2  0
  8 10  1  0
 10 11  2  0
 11 12  1  0
 12 13  1  0
 13 14  2  0
 14 15  1  0
 15 16  2  0
 16 17  1  0
 17 18  2  0
  9  4  1  0
 18 13  1  0
 12  7  1  0
  1 19  1  0
  1 20  1  0
  1 21  1  0
  2 22  1  0
  2 23  1  0
  5 24  1  0
  6 25  1  0
  9 26  1  0
 11 27  1  0
 14 28  1  0
 15 29  1  0
 16 30  1  0
 17 31  1  0
 18 32  1  0
M  END
>  <UniqueID>  (9) 
9

>  <SMILES>  (9) 
CCOc1ccc2c(c1)ncn2-c1ccccc1

>  <Energy>  (9) 
75.10276186549305

>  <Genealogy>  (9) 
CCOc1ccc2c(c1)ncn2-c1ccccc1 (3D coordinates assigned)
CCOc1ccc2c(c1)ncn2-c1ccccc1 (optimized conformer: 75.10276186549305 kcal/mol)

>  <smiles>  (9) 
CCOc1ccc2c(c1)ncn2-c1ccccc1

>  <score_type>  (9) 
oracle

>  <origin>  (9) 
adg

>  <m_score__min__energy>  (9) 
-6.9000000000000004

>  <m_primary>  (9) 
energy

$$$$
9:0
     RDKit          3D

 57 59  0  0  0  0  0  0  0  0999 V2000
   63.3440   33.8700   46.3820 C   0  0  0  0  0  0  0  0  0  0  0  0
   63.3600   32.5180   47.0860 C   0  0  0  0  0  0  0  0  0  0  0  0
   62.8640   32.6540   48.4610 N   0  0  0  0  0  0  0  0  0  0  0  0
   63.9290   33.0800   49.3910 C   0  0  0  0  0  0  0  0  0  0  0  0
   63.4250   34.0260   50.4960 C   0  0  0  0  0  0  0  0  0  0  0  0
   62.1310   33.5160   51.1590 C   0  0  0  0  0  0  0  0  0  0  0  0
   60.9390   33.7770   50.3370 N   0  0  0  0  0  0  0  0  0  0  0  0
   59.7390   33.1150   50.8670 C   0  0  0  0  0  0  0  0  0  0  0  0
   59.3400   31.9610   49.9480 C   0  0  0  0  0  0  0  0  0  0  0  0
   60.1120   31.9940   48.7060 N   0  0  0  0  0  0  0  0  0  0  0  0
   59.5110   31.5860   47.4690 C   0  0  0  0  0  0  0  0  0  0  0  0
   59.2350   32.5330   46.4640 C   0  0  0  0  0  0  0  0  0  0  0  0
   58.5540   32.1140   45.2940 C   0  0  0  0  0  0  0  0  0  0  0  0
   58.3180   30.7710   45.0660 N   0  0  0  0  0  0  0  0  0  0  0  0
   57.8520   30.3160   43.7370 C   0  0  0  0  0  0  0  0  0  0  0  0
   58.5140   29.8490   46.0770 C   0  0  0  0  0  0  0  0  0  0  0  0
   58.0880   28.5010   45.9540 C   0  0  0  0  0  0  0  0  0  0  0  0
   58.3180   27.5760   46.9720 C   0  0  0  0  0  0  0  0  0  0  0  0
   58.9650   27.9680   48.1380 C   0  0  0  0  0  0  0  0  0  0  0  0
   59.3680   29.2900   48.3030 C   0  0  0  0  0  0  0  0  0  0  0  0
   59.1370   30.2450   47.2890 C   0  0  0  0  0  0  0  0  0  0  0  0
   58.1330   33.1650   44.2710 C   0  0  0  0  0  0  0  0  0  0  0  0
   57.9240   34.5420   44.9030 C   0  0  0  0  0  0  0  0  0  0  0  0
   59.1930   34.9950   45.6120 C   0  0  0  0  0  0  0  0  0  0  0  0
   59.6450   33.9650   46.6020 C   0  0  0  0  0  0  0  0  0  0  0  0
   60.4470   34.3270   47.5060 O   0  0  0  0  0  0  0  0  0  0  0  0
   63.3345   34.6741   47.1325 H   0  0  0  0  0  0  0  0  0  0  0  0
   64.2411   33.9664   45.7527 H   0  0  0  0  0  0  0  0  0  0  0  0
   62.4449   33.9451   45.7527 H   0  0  0  0  0  0  0  0  0  0  0  0
   62.7171   31.8149   46.5362 H   0  0  0  0  0  0  0  0  0  0  0  0
   64.3930   32.1411   47.1138 H   0  0  0  0  0  0  0  0  0  0  0  0
   62.0620   33.3260   48.4740 H   0  0  0  0  0  0  0  0  0  0  0  0
   64.3578   32.1850   49.8654 H   0  0  0  0  0  0  0  0  0  0  0  0
   64.6759   33.6328   48.8023 H   0  0  0  0  0  0  0  0  0  0  0  0
   64.2049   34.1168   51.2664 H   0  0  0  0  0  0  0  0  0  0  0  0
   63.2036   34.9980   50.0309 H   0  0  0  0  0  0  0  0  0  0  0  0
   62.2196   32.4312   51.3184 H   0  0  0  0  0  0  0  0  0  0  0  0
   62.0069   34.0544   52.1102 H   0  0  0  0  0  0  0  0  0  0  0  0
   61.1100   33.4450   49.3580 H   0  0  0  0  0  0  0  0  0  0  0  0
   59.9509   32.7247   51.8734 H   0  0  0  0  0  0  0  0  0  0  0  0
   58.9147   33.8415   50.9190 H   0  0  0  0  0  0  0  0  0  0  0  0
   59.5278   31.0078   50.4639 H   0  0  0  0  0  0  0  0  0  0  0  0
   58.2725   32.0598   49.7018 H   0  0  0  0  0  0  0  0  0  0  0  0
   61.1330   32.2170   48.7130 H   0  0  0  0  0  0  0  0  0  0  0  0
   57.0702   29.5527   43.8641 H   0  0  0  0  0  0  0  0  0  0  0  0
   57.4423   31.1712   43.1796 H   0  0  0  0  0  0  0  0  0  0  0  0
   58.6972   29.8860   43.1796 H   0  0  0  0  0  0  0  0  0  0  0  0
   57.5673   28.1801   45.0397 H   0  0  0  0  0  0  0  0  0  0  0  0
   57.9867   26.5340   46.8519 H   0  0  0  0  0  0  0  0  0  0  0  0
   59.1590   27.2319   48.9321 H   0  0  0  0  0  0  0  0  0  0  0  0
   59.8715   29.5938   49.2326 H   0  0  0  0  0  0  0  0  0  0  0  0
   58.9163   33.2440   43.5027 H   0  0  0  0  0  0  0  0  0  0  0  0
   57.1739   32.8458   43.8370 H   0  0  0  0  0  0  0  0  0  0  0  0
   57.6688   35.2675   44.1165 H   0  0  0  0  0  0  0  0  0  0  0  0
   57.1067   34.4792   45.6366 H   0  0  0  0  0  0  0  0  0  0  0  0
   59.9865   35.1515   44.8665 H   0  0  0  0  0  0  0  0  0  0  0  0
   58.9822   35.9318   46.1487 H   0  0  0  0  0  0  0  0  0  0  0  0
  1  2  1  0
  2  3  1  0
  3  4  1  0
  4  5  1  0
  5  6  1  0
  6  7  1  0
  7  8  1  0
  8  9  1  0
  9 10  1  0
 10 11  1  0
 11 12  2  0
 12 13  1  0
 13 14  2  0
 14 15  1  0
 14 16  1  0
 16 17  2  0
 17 18  1  0
 18 19  2  0
 19 20  1  0
 20 21  2  0
 13 22  1  0
 22 23  1  0
 23 24  1  0
 24 25  1  0
 25 26  2  0
 21 11  1  0
 25 12  1  0
 21 16  1  0
  1 27  1  0
  1 28  1  0
  1 29  1  0
  2 30  1  0
  2 31  1  0
  3 32  1  0
  4 33  1  0
  4 34  1  0
  5 35  1  0
  5 36  1  0
  6 37  1  0
  6 38  1  0
  7 39  1  0
  8 40  1  0
  8 41  1  0
  9 42  1  0
  9 43  1  0
 10 44  1  0
 15 45  1  0
 15 46  1  0
 15 47  1  0
 17 48  1  0
 18 49  1  0
 19 50  1  0
 20 51  1  0
 22 52  1  0
 22 53  1  0
 23 54  1  0
 23 55  1  0
 24 56  1  0
 24 57  1  0
M  CHG  1  14   1
M  END
>  <UniqueID>  (10) 
10

>  <SMILES>  (10) 
CCNCCCNCCNc1c2c([n+](C)c3ccccc13)CCCC2=O

>  <Energy>  (10) 
74.19103690299174

>  <Genealogy>  (10) 
CCNCCCNCCNc1c2c([n+](C)c3ccccc13)CCCC2=O (3D coordinates assigned)
CCNCCCNCCNc1c2c([n+](C)c3ccccc13)CCCC2=O (nonaromatic ring conformer: 74.19103690299174 kcal/mol)

>  <smiles>  (10) 
CCNCCCNCCNc1c2c([n+](C)c3ccccc13)CCCC2=O

>  <score_type>  (10) 
oracle

>  <origin>  (10) 
adg

>  <m_score__min__energy>  (10) 
-4.6299999999999999

>  <m_primary>  (10) 
energy

$$$$
10:0
     RDKit          3D

 35 35  0  0  0  0  0  0  0  0999 V2000
   61.8062   34.1277   45.3014 H   0  0  0  0  0  0  0  0  0  0  0  0
   61.8540   33.8550   46.3660 C   0  0  0  0  0  0  0  0  0  0  0  0
   60.7000   33.6190   47.0160 C   0  0  0  0  0  0  0  0  0  0  0  0
   59.5700   32.9050   46.3810 C   0  0  0  0  0  0  0  0  0  0  0  0
   59.5180   31.5030   46.3840 C   0  0  0  0  0  0  0  0  0  0  0  0
   60.3274   30.9256   46.8546 H   0  0  0  0  0  0  0  0  0  0  0  0
   58.4410   30.8370   45.7910 C   0  0  0  0  0  0  0  0  0  0  0  0
   58.4134   29.7373   45.7907 H   0  0  0  0  0  0  0  0  0  0  0  0
   57.3980   31.5570   45.1980 C   0  0  0  0  0  0  0  0  0  0  0  0
   56.3410   30.8420   44.6150 O   0  0  0  0  0  0  0  0  0  0  0  0
   56.4480   30.0900   43.4110 C   0  0  0  0  0  0  0  0  0  0  0  0
   56.5991   29.0279   43.6542 H   0  0  0  0  0  0  0  0  0  0  0  0
   55.5246   30.2040   42.8242 H   0  0  0  0  0  0  0  0  0  0  0  0
   57.3030   30.4570   42.8242 H   0  0  0  0  0  0  0  0  0  0  0  0
   57.4430   32.9640   45.2080 C   0  0  0  0  0  0  0  0  0  0  0  0
   56.6275   33.5411   44.7477 H   0  0  0  0  0  0  0  0  0  0  0  0
   58.5190   33.6310   45.8000 C   0  0  0  0  0  0  0  0  0  0  0  0
   58.5422   34.7307   45.8106 H   0  0  0  0  0  0  0  0  0  0  0  0
   60.4990   34.2050   48.3850 C   0  0  0  0  0  0  0  0  0  0  0  0
   60.7565   33.4543   49.1466 H   0  0  0  0  0  0  0  0  0  0  0  0
   61.1462   35.0863   48.5053 H   0  0  0  0  0  0  0  0  0  0  0  0
   59.4471   34.5035   48.5053 H   0  0  0  0  0  0  0  0  0  0  0  0
   63.2130   33.7650   47.0220 C   0  0  0  0  0  0  0  0  0  0  0  0
   63.1691   34.2668   47.9999 H   0  0  0  0  0  0  0  0  0  0  0  0
   63.9433   34.2502   46.3578 H   0  0  0  0  0  0  0  0  0  0  0  0
   63.6390   32.3670   47.2230 N   0  0  0  0  0  0  0  0  0  0  0  0
   62.9840   31.7310   46.7100 H   0  0  0  0  0  0  0  0  0  0  0  0
   64.5860   32.2360   46.7950 H   0  0  0  0  0  0  0  0  0  0  0  0
   63.6780   31.9700   48.6450 C   0  0  0  0  0  0  0  0  0  0  0  0
   64.0694   30.9444   48.7149 H   0  0  0  0  0  0  0  0  0  0  0  0
   62.6539   32.0382   49.0406 H   0  0  0  0  0  0  0  0  0  0  0  0
   64.5660   32.8940   49.4850 C   0  0  0  0  0  0  0  0  0  0  0  0
   64.3845   32.7052   50.5534 H   0  0  0  0  0  0  0  0  0  0  0  0
   65.6230   32.6977   49.2523 H   0  0  0  0  0  0  0  0  0  0  0  0
   64.3279   33.9424   49.2523 H   0  0  0  0  0  0  0  0  0  0  0  0
  1  2  1  0
  2  3  2  0
  3  4  1  0
  4  5  2  0
  5  6  1  0
  5  7  1  0
  7  8  1  0
  7  9  2  0
  9 10  1  0
 10 11  1  0
 11 12  1  0
 11 13  1  0
 11 14  1  0
  9 15  1  0
 15 16  1  0
 15 17  2  0
 17 18  1  0
  3 19  1  0
 19 20  1  0
 19 21  1  0
 19 22  1  0
  2 23  1  0
 23 24  1  0
 23 25  1  0
 23 26  1  0
 26 27  1  0
 26 28  1  0
 26 29  1  0
 29 30  1  0
 29 31  1  0
 29 32  1  0
 32 33  1  0
 32 34  1  0
 32 35  1  0
 17  4  1  0
M  CHG  1  26   1
M  END
>  <UniqueID>  (11) 
11

>  <SMILES>  (11) 
CC[NH2+]C/C=C(/C)c1ccc(OC)cc1

>  <Energy>  (11) 
35.40337518454554

>  <Genealogy>  (11) 
CC[NH2+]CC=C(C)c1ccc(OC)cc1 (protonated)
CC[NH2+]C/C=C(/C)c1ccc(OC)cc1 (cis-trans isomerization)
CC[NH2+]C/C=C(/C)c1ccc(OC)cc1 (3D coordinates assigned)
CC[NH2+]C/C=C(/C)c1ccc(OC)cc1 (optimized conformer: 35.40337518454554 kcal/mol)

>  <smiles>  (11) 
CCNCC=C(C)c1ccc(OC)cc1

>  <score_type>  (11) 
oracle

>  <origin>  (11) 
adg

>  <m_score__min__energy>  (11) 
-4.4699999999999998

>  <m_primary>  (11) 
energy

$$$$
11:0
     RDKit          3D

 66 69  0  0  0  0  0  0  0  0999 V2000
   63.7500   32.8980   46.8840 C   0  0  0  0  0  0  0  0  0  0  0  0
   63.7010   33.5660   48.2540 C   0  0  0  0  0  0  0  0  0  0  0  0
   64.3010   32.6790   49.2590 N   0  0  0  0  0  0  0  0  0  0  0  0
   64.8030   33.4200   50.4290 C   0  0  0  0  0  0  0  0  0  0  0  0
   66.3420   33.4700   50.4810 C   0  0  0  0  0  0  0  0  0  0  0  0
   66.9520   32.0660   50.4970 C   0  0  0  0  0  0  0  0  0  0  0  0
   65.9210   31.0970   50.5260 O   0  0  0  0  0  0  0  0  0  0  0  0
   66.3150   29.9690   51.2870 C   0  0  0  0  0  0  0  0  0  0  0  0
   65.6460   29.9700   52.6650 C   0  0  0  0  0  0  0  0  0  0  0  0
   64.2390   29.8700   52.5380 O   0  0  0  0  0  0  0  0  0  0  0  0
   63.5820   30.9540   53.1720 C   0  0  0  0  0  0  0  0  0  0  0  0
   62.4780   31.5370   52.2730 C   0  0  0  0  0  0  0  0  0  0  0  0
   62.7560   31.2910   50.8480 N   0  0  0  0  0  0  0  0  0  0  0  0
   61.8990   30.2380   50.3420 C   0  0  0  0  0  0  0  0  0  0  0  0
   61.8980   28.9960   51.0050 C   0  0  0  0  0  0  0  0  0  0  0  0
   61.0960   27.9460   50.5660 C   0  0  0  0  0  0  0  0  0  0  0  0
   60.2840   28.1090   49.4460 C   0  0  0  0  0  0  0  0  0  0  0  0
   60.2780   29.3240   48.7480 C   0  0  0  0  0  0  0  0  0  0  0  0
   59.4770   29.4660   47.6120 C   0  0  0  0  0  0  0  0  0  0  0  0
   59.4810   30.6700   46.8910 C   0  0  0  0  0  0  0  0  0  0  0  0
   60.2330   31.7270   47.3440 N   0  0  0  0  0  0  0  0  0  0  0  0
   61.0420   31.5990   48.4410 C   0  0  0  0  0  0  0  0  0  0  0  0
   61.0840   30.4010   49.1830 C   0  0  0  0  0  0  0  0  0  0  0  0
   60.2590   32.9940   46.5920 C   0  0  0  0  0  0  0  0  0  0  0  0
   58.8810   33.3230   46.0090 C   0  0  0  0  0  0  0  0  0  0  0  0
   58.3550   32.1510   45.2290 C   0  0  0  0  0  0  0  0  0  0  0  0
   57.5440   32.3570   44.1010 C   0  0  0  0  0  0  0  0  0  0  0  0
   57.0550   31.2670   43.3800 C   0  0  0  0  0  0  0  0  0  0  0  0
   57.3730   29.9670   43.7750 C   0  0  0  0  0  0  0  0  0  0  0  0
   58.1620   29.7500   44.9100 C   0  0  0  0  0  0  0  0  0  0  0  0
   58.6400   30.8420   45.6670 C   0  0  0  0  0  0  0  0  0  0  0  0
   63.8299   31.8082   47.0101 H   0  0  0  0  0  0  0  0  0  0  0  0
   62.8320   33.1363   46.3268 H   0  0  0  0  0  0  0  0  0  0  0  0
   64.6234   33.2677   46.3268 H   0  0  0  0  0  0  0  0  0  0  0  0
   64.2615   34.5119   48.2199 H   0  0  0  0  0  0  0  0  0  0  0  0
   62.6537   33.7667   48.5241 H   0  0  0  0  0  0  0  0  0  0  0  0
   65.0910   32.1450   48.8220 H   0  0  0  0  0  0  0  0  0  0  0  0
   64.4180   34.4495   50.3861 H   0  0  0  0  0  0  0  0  0  0  0  0
   64.4554   32.8950   51.3310 H   0  0  0  0  0  0  0  0  0  0  0  0
   66.7116   34.0096   49.5965 H   0  0  0  0  0  0  0  0  0  0  0  0
   66.6381   33.9840   51.4074 H   0  0  0  0  0  0  0  0  0  0  0  0
   67.5629   31.9227   49.5935 H   0  0  0  0  0  0  0  0  0  0  0  0
   67.5823   31.9534   51.3915 H   0  0  0  0  0  0  0  0  0  0  0  0
   66.0264   29.0542   50.7486 H   0  0  0  0  0  0  0  0  0  0  0  0
   67.4051   30.0077   51.4288 H   0  0  0  0  0  0  0  0  0  0  0  0
   66.0178   29.1142   53.2476 H   0  0  0  0  0  0  0  0  0  0  0  0
   65.8890   30.9135   53.1756 H   0  0  0  0  0  0  0  0  0  0  0  0
   63.1310   30.6007   54.1110 H   0  0  0  0  0  0  0  0  0  0  0  0
   64.3227   31.7427   53.3706 H   0  0  0  0  0  0  0  0  0  0  0  0
   61.5183   31.0682   52.5360 H   0  0  0  0  0  0  0  0  0  0  0  0
   62.4401   32.6244   52.4344 H   0  0  0  0  0  0  0  0  0  0  0  0
   62.5810   32.1700   50.3060 H   0  0  0  0  0  0  0  0  0  0  0  0
   63.7630   31.0580   50.7000 H   0  0  0  0  0  0  0  0  0  0  0  0
   62.5420   28.8527   51.8852 H   0  0  0  0  0  0  0  0  0  0  0  0
   61.1036   26.9867   51.1042 H   0  0  0  0  0  0  0  0  0  0  0  0
   59.6446   27.2802   49.1080 H   0  0  0  0  0  0  0  0  0  0  0  0
   58.8412   28.6313   47.2817 H   0  0  0  0  0  0  0  0  0  0  0  0
   61.6712   32.4470   48.7493 H   0  0  0  0  0  0  0  0  0  0  0  0
   60.5653   33.8059   47.2681 H   0  0  0  0  0  0  0  0  0  0  0  0
   60.9721   32.8902   45.7609 H   0  0  0  0  0  0  0  0  0  0  0  0
   58.1855   33.5556   46.8289 H   0  0  0  0  0  0  0  0  0  0  0  0
   58.9726   34.1895   45.3375 H   0  0  0  0  0  0  0  0  0  0  0  0
   57.2936   33.3805   43.7850 H   0  0  0  0  0  0  0  0  0  0  0  0
   56.4178   31.4328   42.4988 H   0  0  0  0  0  0  0  0  0  0  0  0
   57.0024   29.1106   43.1926 H   0  0  0  0  0  0  0  0  0  0  0  0
   58.4114   28.7228   45.2144 H   0  0  0  0  0  0  0  0  0  0  0  0
  1  2  1  0
  2  3  1  0
  3  4  1  0
  4  5  1  0
  5  6  1  0
  6  7  1  0
  7  8  1  0
  8  9  1  0
  9 10  1  0
 10 11  1  0
 11 12  1  0
 12 13  1  0
 13 14  1  0
 14 15  2  0
 15 16  1  0
 16 17  2  0
 17 18  1  0
 18 19  2  0
 19 20  1  0
 20 21  2  0
 21 22  1  0
 22 23  2  0
 21 24  1  0
 24 25  1  0
 25 26  1  0
 26 27  2  0
 27 28  1  0
 28 29  2  0
 29 30  1  0
 30 31  2  0
 23 14  1  0
 31 26  1  0
 23 18  1  0
 31 20  1  0
  1 32  1  0
  1 33  1  0
  1 34  1  0
  2 35  1  0
  2 36  1  0
  3 37  1  0
  4 38  1  0
  4 39  1  0
  5 40  1  0
  5 41  1  0
  6 42  1  0
  6 43  1  0
  8 44  1  0
  8 45  1  0
  9 46  1  0
  9 47  1  0
 11 48  1  0
 11 49  1  0
 12 50  1  0
 12 51  1  0
 13 52  1  0
 13 53  1  0
 15 54  1  0
 16 55  1  0
 17 56  1  0
 19 57  1  0
 22 58  1  0
 24 59  1  0
 24 60  1  0
 25 61  1  0
 25 62  1  0
 27 63  1  0
 28 64  1  0
 29 65  1  0
 30 66  1  0
M  CHG  2  13   1  21   1
M  END
>  <UniqueID>  (12) 
12

>  <SMILES>  (12) 
CCNCCCOCCOCC[NH2+]c1cccc2cc3[n+](cc12)CCc1ccccc1-3

>  <Energy>  (12) 
78.59923327019284

>  <Genealogy>  (12) 
CCNCCCOCCOCC[NH2+]c1cccc2cc3[n+](cc12)CCc1ccccc1-3 (protonated)
CCNCCCOCCOCC[NH2+]c1cccc2cc3[n+](cc12)CCc1ccccc1-3 (3D coordinates assigned)
CCNCCCOCCOCC[NH2+]c1cccc2cc3[n+](cc12)CCc1ccccc1-3 (nonaromatic ring conformer: 78.59923327019284 kcal/mol)

>  <smiles>  (12) 
CCNCCCOCCOCCNc1cccc2cc3[n+](cc12)CCc1ccccc1-3

>  <score_type>  (12) 
oracle

>  <origin>  (12) 
adg

>  <m_score__min__energy>  (12) 
-5.0099999999999998

>  <m_primary>  (12) 
energy

$$$$
12:0
     RDKit          3D

 63 67  0  0  0  0  0  0  0  0999 V2000
   60.2440   31.5760   52.3770 C   0  0  0  0  0  0  0  0  0  0  0  0
   61.2960   30.5840   51.8720 C   0  0  0  0  0  0  0  0  0  0  0  0
   61.2460   30.4980   50.4130 N   0  0  0  0  0  0  0  0  0  0  0  0
   60.7220   29.4670   49.7060 C   0  0  0  0  0  0  0  0  0  0  0  0
   60.9690   29.6280   48.3460 C   0  0  0  0  0  0  0  0  0  0  0  0
   60.5470   28.6770   47.2690 C   0  0  0  0  0  0  0  0  0  0  0  0
   59.3450   29.2070   46.5920 N   0  0  0  0  0  0  0  0  0  0  0  0
   59.6080   29.6330   45.1870 C   0  0  0  0  0  0  0  0  0  0  0  0
   58.8240   28.8080   44.1400 C   0  0  0  0  0  0  0  0  0  0  0  0
   57.3590   28.7710   44.4060 N   0  0  0  0  0  0  0  0  0  0  0  0
   56.6420   29.8680   43.7120 C   0  0  0  0  0  0  0  0  0  0  0  0
   57.4050   31.1980   43.7070 C   0  0  0  0  0  0  0  0  0  0  0  0
   57.4880   31.6540   45.0470 O   0  0  0  0  0  0  0  0  0  0  0  0
   58.1350   32.8110   45.4630 C   0  0  0  0  0  0  0  0  0  0  0  0
   58.4860   33.7630   44.4980 C   0  0  0  0  0  0  0  0  0  0  0  0
   59.2320   34.8900   44.8530 C   0  0  0  0  0  0  0  0  0  0  0  0
   59.6270   35.0760   46.1800 C   0  0  0  0  0  0  0  0  0  0  0  0
   59.2840   34.1400   47.1640 C   0  0  0  0  0  0  0  0  0  0  0  0
   59.6860   34.3220   48.4950 C   0  0  0  0  0  0  0  0  0  0  0  0
   59.3420   33.3840   49.4680 C   0  0  0  0  0  0  0  0  0  0  0  0
   58.5690   32.2690   49.1280 C   0  0  0  0  0  0  0  0  0  0  0  0
   58.1730   32.0640   47.8020 C   0  0  0  0  0  0  0  0  0  0  0  0
   58.5230   32.9930   46.8060 C   0  0  0  0  0  0  0  0  0  0  0  0
   57.0380   28.7970   45.8600 C   0  0  0  0  0  0  0  0  0  0  0  0
   58.1980   28.2830   46.7170 C   0  0  0  0  0  0  0  0  0  0  0  0
   61.6850   30.8110   48.2330 C   0  0  0  0  0  0  0  0  0  0  0  0
   62.2670   31.4290   47.1290 C   0  0  0  0  0  0  0  0  0  0  0  0
   63.0000   32.6050   47.3470 C   0  0  0  0  0  0  0  0  0  0  0  0
   63.1510   33.1280   48.6500 C   0  0  0  0  0  0  0  0  0  0  0  0
   62.5620   32.4830   49.7500 C   0  0  0  0  0  0  0  0  0  0  0  0
   61.8320   31.3130   49.5050 C   0  0  0  0  0  0  0  0  0  0  0  0
   60.2409   31.5789   53.4770 H   0  0  0  0  0  0  0  0  0  0  0  0
   60.4839   32.5842   52.0083 H   0  0  0  0  0  0  0  0  0  0  0  0
   59.2516   31.2773   52.0083 H   0  0  0  0  0  0  0  0  0  0  0  0
   62.2951   30.9237   52.1824 H   0  0  0  0  0  0  0  0  0  0  0  0
   61.0890   29.5914   52.2985 H   0  0  0  0  0  0  0  0  0  0  0  0
   60.1765   28.6195   50.1467 H   0  0  0  0  0  0  0  0  0  0  0  0
   61.3612   28.5653   46.5378 H   0  0  0  0  0  0  0  0  0  0  0  0
   60.3178   27.6968   47.7124 H   0  0  0  0  0  0  0  0  0  0  0  0
   59.3222   30.6902   45.0835 H   0  0  0  0  0  0  0  0  0  0  0  0
   60.6787   29.4718   44.9930 H   0  0  0  0  0  0  0  0  0  0  0  0
   58.9889   29.2535   43.1479 H   0  0  0  0  0  0  0  0  0  0  0  0
   59.1940   27.7734   44.1924 H   0  0  0  0  0  0  0  0  0  0  0  0
   57.0100   27.8550   44.0260 H   0  0  0  0  0  0  0  0  0  0  0  0
   56.4679   29.5638   42.6693 H   0  0  0  0  0  0  0  0  0  0  0  0
   55.7048   30.0376   44.2623 H   0  0  0  0  0  0  0  0  0  0  0  0
   58.4156   31.0483   43.2992 H   0  0  0  0  0  0  0  0  0  0  0  0
   56.8848   31.9375   43.0805 H   0  0  0  0  0  0  0  0  0  0  0  0
   58.1723   33.6227   43.4531 H   0  0  0  0  0  0  0  0  0  0  0  0
   59.5081   35.6304   44.0878 H   0  0  0  0  0  0  0  0  0  0  0  0
   60.2127   35.9656   46.4547 H   0  0  0  0  0  0  0  0  0  0  0  0
   60.2752   35.2084   48.7728 H   0  0  0  0  0  0  0  0  0  0  0  0
   59.6796   33.5214   50.5059 H   0  0  0  0  0  0  0  0  0  0  0  0
   58.2714   31.5507   49.9061 H   0  0  0  0  0  0  0  0  0  0  0  0
   57.5855   31.1725   47.5374 H   0  0  0  0  0  0  0  0  0  0  0  0
   56.8115   29.8324   46.1544 H   0  0  0  0  0  0  0  0  0  0  0  0
   56.1751   28.1356   46.0275 H   0  0  0  0  0  0  0  0  0  0  0  0
   57.8820   28.2299   47.7693 H   0  0  0  0  0  0  0  0  0  0  0  0
   58.4935   27.2805   46.3739 H   0  0  0  0  0  0  0  0  0  0  0  0
   62.1555   31.0085   46.1187 H   0  0  0  0  0  0  0  0  0  0  0  0
   63.4617   33.1249   46.4946 H   0  0  0  0  0  0  0  0  0  0  0  0
   63.7344   34.0476   48.8047 H   0  0  0  0  0  0  0  0  0  0  0  0
   62.6703   32.8830   50.7689 H   0  0  0  0  0  0  0  0  0  0  0  0
  1  2  1  0
  2  3  1  0
  3  4  1  0
  4  5  2  0
  5  6  1  0
  6  7  1  0
  7  8  1  0
  8  9  1  0
  9 10  1  0
 10 11  1  0
 11 12  1  0
 12 13  1  0
 13 14  1  0
 14 15  2  0
 15 16  1  0
 16 17  2  0
 17 18  1  0
 18 19  2  0
 19 20  1  0
 20 21  2  0
 21 22  1  0
 22 23  2  0
 10 24  1  0
 24 25  1  0
  5 26  1  0
 26 27  2  0
 27 28  1  0
 28 29  2  0
 29 30  1  0
 30 31  2  0
 31  3  1  0
 25  7  1  0
 31 26  1  0
 23 14  1  0
 23 18  1  0
  1 32  1  0
  1 33  1  0
  1 34  1  0
  2 35  1  0
  2 36  1  0
  4 37  1  0
  6 38  1  0
  6 39  1  0
  8 40  1  0
  8 41  1  0
  9 42  1  0
  9 43  1  0
 10 44  1  0
 11 45  1  0
 11 46  1  0
 12 47  1  0
 12 48  1  0
 15 49  1  0
 16 50  1  0
 17 51  1  0
 19 52  1  0
 20 53  1  0
 21 54  1  0
 22 55  1  0
 24 56  1  0
 24 57  1  0
 25 58  1  0
 25 59  1  0
 27 60  1  0
 28 61  1  0
 29 62  1  0
 30 63  1  0
M  CHG  1  10   1
M  END
>  <UniqueID>  (13) 
13

>  <SMILES>  (13) 
CCn1cc(CN2CC[NH+](CCOc3cccc4ccccc34)CC2)c2ccccc21

>  <Energy>  (13) 
125.34972022243706

>  <Genealogy>  (13) 
CCn1cc(CN2CC[NH+](CCOc3cccc4ccccc34)CC2)c2ccccc21 (protonated)
CCn1cc(CN2CC[NH+](CCOc3cccc4ccccc34)CC2)c2ccccc21 (3D coordinates assigned)
CCn1cc(CN2CC[NH+](CCOc3cccc4ccccc34)CC2)c2ccccc21 (nonaromatic ring conformer: 125.34972022243706 kcal/mol)

>  <smiles>  (13) 
CCn1cc(CN2CCN(CCOc3cccc4ccccc34)CC2)c2ccccc21

>  <score_type>  (13) 
oracle

>  <origin>  (13) 
adg

>  <m_score__min__energy>  (13) 
-7.8200000000000003

>  <m_primary>  (13) 
energy

$$$$
13:0
     RDKit          3D

 45 47  0  0  0  0  0  0  0  0999 V2000
   56.7250   30.7260   52.3720 C   0  0  0  0  0  0  0  0  0  0  0  0
   57.4030   29.7360   51.6300 O   0  0  0  0  0  0  0  0  0  0  0  0
   58.2890   30.1090   50.6350 C   0  0  0  0  0  0  0  0  0  0  0  0
   58.4240   31.4500   50.3600 C   0  0  0  0  0  0  0  0  0  0  0  0
   59.3530   29.4860   45.5970 C   0  0  0  0  0  0  0  0  0  0  0  0
   59.4790   33.1660   49.0550 O   0  0  0  0  0  0  0  0  0  0  0  0
   59.6830   34.2040   49.9710 C   0  0  0  0  0  0  0  0  0  0  0  0
   58.0870   29.4920   45.1090 N   0  0  0  0  0  0  0  0  0  0  0  0
   57.3900   30.6580   44.9750 C   0  0  0  0  0  0  0  0  0  0  0  0
   60.4980   28.6450   48.3850 N   0  0  0  0  0  0  0  0  0  0  0  0
   60.0690   27.2840   48.3750 C   0  0  0  0  0  0  0  0  0  0  0  0
   59.4170   26.9460   47.0300 C   0  0  0  0  0  0  0  0  0  0  0  0
   60.2190   27.9230   45.7510 S   0  0  0  0  0  0  0  0  0  0  0  0
   59.2900   31.8390   49.3860 C   0  0  0  0  0  0  0  0  0  0  0  0
   59.9390   30.6510   45.9610 N   0  0  0  0  0  0  0  0  0  0  0  0
   59.3110   31.8350   45.8560 C   0  0  0  0  0  0  0  0  0  0  0  0
   59.9350   33.0250   46.2380 C   0  0  0  0  0  0  0  0  0  0  0  0
   59.2530   34.2390   46.1170 C   0  0  0  0  0  0  0  0  0  0  0  0
   57.9590   34.2280   45.6150 C   0  0  0  0  0  0  0  0  0  0  0  0
   57.3340   33.0400   45.2330 C   0  0  0  0  0  0  0  0  0  0  0  0
   58.0100   31.8380   45.3540 C   0  0  0  0  0  0  0  0  0  0  0  0
   59.8900   29.5910   48.9500 C   0  0  0  0  0  0  0  0  0  0  0  0
   56.2200   30.6840   44.5250 O   0  0  0  0  0  0  0  0  0  0  0  0
   59.9950   30.8960   48.7120 N   0  0  0  0  0  0  0  0  0  0  0  0
   57.4150   28.2750   44.7060 C   0  0  0  0  0  0  0  0  0  0  0  0
   59.0080   29.2410   49.9390 N   0  0  0  0  0  0  0  0  0  0  0  0
   56.8570   30.5333   53.4469 H   0  0  0  0  0  0  0  0  0  0  0  0
   57.1357   31.7158   52.1238 H   0  0  0  0  0  0  0  0  0  0  0  0
   55.6537   30.7008   52.1238 H   0  0  0  0  0  0  0  0  0  0  0  0
   57.8406   32.1963   50.9192 H   0  0  0  0  0  0  0  0  0  0  0  0
   59.6055   33.8098   50.9950 H   0  0  0  0  0  0  0  0  0  0  0  0
   60.6832   34.6359   49.8190 H   0  0  0  0  0  0  0  0  0  0  0  0
   58.9206   34.9823   49.8190 H   0  0  0  0  0  0  0  0  0  0  0  0
   60.6350   31.2360   47.9870 H   0  0  0  0  0  0  0  0  0  0  0  0
   60.9376   26.6278   48.5331 H   0  0  0  0  0  0  0  0  0  0  0  0
   59.3337   27.1329   49.1791 H   0  0  0  0  0  0  0  0  0  0  0  0
   59.5439   25.8749   46.8141 H   0  0  0  0  0  0  0  0  0  0  0  0
   58.3415   27.1747   47.0626 H   0  0  0  0  0  0  0  0  0  0  0  0
   60.9613   33.0067   46.6333 H   0  0  0  0  0  0  0  0  0  0  0  0
   59.7320   35.1838   46.4135 H   0  0  0  0  0  0  0  0  0  0  0  0
   57.4133   35.1779   45.5159 H   0  0  0  0  0  0  0  0  0  0  0  0
   56.3079   33.0587   44.8372 H   0  0  0  0  0  0  0  0  0  0  0  0
   57.1052   27.7139   45.6000 H   0  0  0  0  0  0  0  0  0  0  0  0
   56.5283   28.5272   44.1059 H   0  0  0  0  0  0  0  0  0  0  0  0
   58.1008   27.6589   44.1059 H   0  0  0  0  0  0  0  0  0  0  0  0
  1  2  1  0
  2  3  1  0
  3  4  1  0
  4  5  2  0
  5  6  1  0
  6  7  1  0
  5  8  1  0
  8  9  1  0
  9 10  2  3
 10 11  1  0
 11 12  1  0
 12 13  1  0
 13 14  1  0
 14 15  2  0
 15 16  1  0
 16 17  2  0
 17 18  1  0
 18 19  2  0
 19 20  1  0
 20 21  2  0
 21 22  1  0
 22 23  2  0
 22 24  1  0
 24 25  1  0
  9 26  1  0
 26  3  2  0
 24 14  1  0
 21 16  1  0
  1 27  1  0
  1 28  1  0
  1 29  1  0
  4 30  1  0
  7 31  1  0
  7 32  1  0
  7 33  1  0
  8 34  1  0
 11 35  1  0
 11 36  1  0
 12 37  1  0
 12 38  1  0
 17 39  1  0
 18 40  1  0
 19 41  1  0
 20 42  1  0
 25 43  1  0
 25 44  1  0
 25 45  1  0
M  END
>  <smiles>  (14) 
COc1cc(OC)[nH]c(=NCCSc2nc3ccccc3c(=O)n2C)n1

>  <score_type>  (14) 
oracle

>  <origin>  (14) 
adg

>  <m_score__min__energy>  (14) 
-7.54

>  <m_primary>  (14) 
energy

$$$$
14:0
     RDKit          3D

 45 45  0  0  0  0  0  0  0  0999 V2000
   57.8140   26.7950   46.5240 C   0  0  0  0  0  0  0  0  0  0  0  0
   58.1690   28.2200   46.9770 C   0  0  0  0  0  0  0  0  0  0  0  0
   58.8060   29.0700   45.9280 N   0  0  0  0  0  0  0  0  0  0  0  0
   60.2910   29.0900   46.0040 C   0  0  0  0  0  0  0  0  0  0  0  0
   60.9720   28.6270   44.7090 C   0  0  0  0  0  0  0  0  0  0  0  0
   58.3910   28.7200   44.5410 C   0  0  0  0  0  0  0  0  0  0  0  0
   56.9830   29.2070   44.1580 C   0  0  0  0  0  0  0  0  0  0  0  0
   56.6550   30.3650   44.8950 O   0  0  0  0  0  0  0  0  0  0  0  0
   56.9930   31.5190   44.1580 C   0  0  0  0  0  0  0  0  0  0  0  0
   57.2840   32.6810   45.1100 C   0  0  0  0  0  0  0  0  0  0  0  0
   57.9610   32.2260   46.2850 O   0  0  0  0  0  0  0  0  0  0  0  0
   59.2920   32.5190   46.6350 C   0  0  0  0  0  0  0  0  0  0  0  0
   60.0090   33.5900   46.0590 C   0  0  0  0  0  0  0  0  0  0  0  0
   61.3240   33.8510   46.4510 C   0  0  0  0  0  0  0  0  0  0  0  0
   61.9400   33.0530   47.4170 C   0  0  0  0  0  0  0  0  0  0  0  0
   63.7310   33.4330   47.9670 Br  0  0  0  0  0  0  0  0  0  0  0  0
   61.2460   31.9820   47.9860 C   0  0  0  0  0  0  0  0  0  0  0  0
   59.9190   31.7050   47.5950 C   0  0  0  0  0  0  0  0  0  0  0  0
   59.1900   30.6360   48.1430 O   0  0  0  0  0  0  0  0  0  0  0  0
   59.0170   30.4080   49.5390 C   0  0  0  0  0  0  0  0  0  0  0  0
   57.6554   26.1584   47.4069 H   0  0  0  0  0  0  0  0  0  0  0  0
   56.8947   26.8204   45.9204 H   0  0  0  0  0  0  0  0  0  0  0  0
   58.6378   26.3862   45.9204 H   0  0  0  0  0  0  0  0  0  0  0  0
   57.2430   28.7159   47.3035 H   0  0  0  0  0  0  0  0  0  0  0  0
   58.9112   28.1132   47.7818 H   0  0  0  0  0  0  0  0  0  0  0  0
   58.4890   30.0530   46.1020 H   0  0  0  0  0  0  0  0  0  0  0  0
   60.6156   30.1185   46.2206 H   0  0  0  0  0  0  0  0  0  0  0  0
   60.5859   28.3864   46.7964 H   0  0  0  0  0  0  0  0  0  0  0  0
   61.8584   28.0243   44.9561 H   0  0  0  0  0  0  0  0  0  0  0  0
   60.2679   28.0197   44.1213 H   0  0  0  0  0  0  0  0  0  0  0  0
   61.2778   29.5051   44.1213 H   0  0  0  0  0  0  0  0  0  0  0  0
   59.1124   29.1688   43.8423 H   0  0  0  0  0  0  0  0  0  0  0  0
   58.3691   27.6215   44.4872 H   0  0  0  0  0  0  0  0  0  0  0  0
   56.9582   29.4402   43.0833 H   0  0  0  0  0  0  0  0  0  0  0  0
   56.2533   28.4159   44.3854 H   0  0  0  0  0  0  0  0  0  0  0  0
   57.8862   31.3141   43.5496 H   0  0  0  0  0  0  0  0  0  0  0  0
   56.1506   31.7898   43.5045 H   0  0  0  0  0  0  0  0  0  0  0  0
   57.9161   33.4187   44.5940 H   0  0  0  0  0  0  0  0  0  0  0  0
   56.3280   33.1345   45.4107 H   0  0  0  0  0  0  0  0  0  0  0  0
   59.5295   34.2224   45.2973 H   0  0  0  0  0  0  0  0  0  0  0  0
   61.8758   34.6875   45.9974 H   0  0  0  0  0  0  0  0  0  0  0  0
   61.7366   31.3518   48.7424 H   0  0  0  0  0  0  0  0  0  0  0  0
   59.5866   31.1587   50.1065 H   0  0  0  0  0  0  0  0  0  0  0  0
   57.9499   30.4876   49.7941 H   0  0  0  0  0  0  0  0  0  0  0  0
   59.3809   29.4018   49.7941 H   0  0  0  0  0  0  0  0  0  0  0  0
  1  2  1  0
  2  3  1  0
  3  4  1  0
  4  5  1  0
  3  6  1  0
  6  7  1  0
  7  8  1  0
  8  9  1  0
  9 10  1  0
 10 11  1  0
 11 12  1  0
 12 13  2  0
 13 14  1  0
 14 15  2  0
 15 16  1  0
 15 17  1  0
 17 18  2  0
 18 19  1  0
 19 20  1  0
 18 12  1  0
  1 21  1  0
  1 22  1  0
  1 23  1  0
  2 24  1  0
  2 25  1  0
  3 26  1  0
  4 27  1  0
  4 28  1  0
  5 29  1  0
  5 30  1  0
  5 31  1  0
  6 32  1  0
  6 33  1  0
  7 34  1  0
  7 35  1  0
  9 36  1  0
  9 37  1  0
 10 38  1  0
 10 39  1  0
 13 40  1  0
 14 41  1  0
 17 42  1  0
 20 43  1  0
 20 44  1  0
 20 45  1  0
M  CHG  1   3   1
M  END
>  <UniqueID>  (15) 
14

>  <SMILES>  (15) 
CC[NH+](CC)CCOCCOc1ccc(Br)cc1OC

>  <Energy>  (15) 
42.0871985179624

>  <Genealogy>  (15) 
CC[NH+](CC)CCOCCOc1ccc(Br)cc1OC (protonated)
CC[NH+](CC)CCOCCOc1ccc(Br)cc1OC (3D coordinates assigned)
CC[NH+](CC)CCOCCOc1ccc(Br)cc1OC (optimized conformer: 42.0871985179624 kcal/mol)

>  <smiles>  (15) 
CCN(CC)CCOCCOc1ccc(Br)cc1OC

>  <score_type>  (15) 
oracle

>  <origin>  (15) 
adg

>  <m_score__min__energy>  (15) 
-3.7400000000000002

>  <m_primary>  (15) 
energy

$$$$
15:0
     RDKit          3D

 67 70  0  0  0  0  0  0  0  0999 V2000
   63.3560   33.8200   46.3700 C   0  0  0  0  0  0  0  0  0  0  0  0
   62.4500   33.0240   47.2100 N   0  0  0  0  0  0  0  0  0  0  0  0
   63.0000   31.6920   47.5030 C   0  0  0  0  0  0  0  0  0  0  0  0
   61.9620   33.7430   48.4090 C   0  0  0  0  0  0  0  0  0  0  0  0
   60.4310   33.9740   48.4770 C   0  0  0  0  0  0  0  0  0  0  0  0
   59.6750   32.9000   47.9140 O   0  0  0  0  0  0  0  0  0  0  0  0
   58.9340   32.9310   46.7180 C   0  0  0  0  0  0  0  0  0  0  0  0
   58.5700   34.1580   46.1370 C   0  0  0  0  0  0  0  0  0  0  0  0
   58.0150   34.2020   44.8670 C   0  0  0  0  0  0  0  0  0  0  0  0
   57.7830   33.0280   44.1640 C   0  0  0  0  0  0  0  0  0  0  0  0
   58.0240   31.7610   44.7500 C   0  0  0  0  0  0  0  0  0  0  0  0
   58.5880   31.7140   46.0610 C   0  0  0  0  0  0  0  0  0  0  0  0
   58.8040   30.4480   46.6630 C   0  0  0  0  0  0  0  0  0  0  0  0
   59.0690   30.3460   48.0760 N   0  0  0  0  0  0  0  0  0  0  0  0
   60.3550   29.8890   48.6030 C   0  0  0  0  0  0  0  0  0  0  0  0
   60.3400   29.9180   50.1450 C   0  0  0  0  0  0  0  0  0  0  0  0
   58.9990   30.1380   50.7340 N   0  0  0  0  0  0  0  0  0  0  0  0
   58.6700   31.5570   50.9560 C   0  0  0  0  0  0  0  0  0  0  0  0
   57.1680   31.7070   51.2660 C   0  0  0  0  0  0  0  0  0  0  0  0
   56.5780   30.4470   51.7740 N   0  0  0  0  0  0  0  0  0  0  0  0
   55.2870   30.7070   52.4270 C   0  0  0  0  0  0  0  0  0  0  0  0
   57.5010   29.7700   52.7010 C   0  0  0  0  0  0  0  0  0  0  0  0
   58.7540   29.3060   51.9340 C   0  0  0  0  0  0  0  0  0  0  0  0
   58.6420   29.2780   45.8920 C   0  0  0  0  0  0  0  0  0  0  0  0
   58.9160   28.0010   46.4270 C   0  0  0  0  0  0  0  0  0  0  0  0
   58.8430   26.8600   45.6320 C   0  0  0  0  0  0  0  0  0  0  0  0
   58.4850   26.9660   44.2950 C   0  0  0  0  0  0  0  0  0  0  0  0
   58.1500   28.2070   43.7600 C   0  0  0  0  0  0  0  0  0  0  0  0
   58.1740   29.3800   44.5570 C   0  0  0  0  0  0  0  0  0  0  0  0
   57.7300   30.5940   44.0720 N   0  0  0  0  0  0  0  0  0  0  0  0
   56.9000   30.6370   42.8470 C   0  0  0  0  0  0  0  0  0  0  0  0
   64.0273   34.4098   47.0114 H   0  0  0  0  0  0  0  0  0  0  0  0
   63.9522   33.1483   45.7349 H   0  0  0  0  0  0  0  0  0  0  0  0
   62.7666   34.4977   45.7349 H   0  0  0  0  0  0  0  0  0  0  0  0
   63.0583   31.5509   48.5924 H   0  0  0  0  0  0  0  0  0  0  0  0
   62.3464   30.9216   47.0679 H   0  0  0  0  0  0  0  0  0  0  0  0
   64.0067   31.6072   47.0679 H   0  0  0  0  0  0  0  0  0  0  0  0
   62.2557   33.1610   49.2950 H   0  0  0  0  0  0  0  0  0  0  0  0
   62.4147   34.7445   48.3632 H   0  0  0  0  0  0  0  0  0  0  0  0
   60.1413   34.0904   49.5318 H   0  0  0  0  0  0  0  0  0  0  0  0
   60.2094   34.8751   47.8863 H   0  0  0  0  0  0  0  0  0  0  0  0
   58.7270   35.0927   46.6953 H   0  0  0  0  0  0  0  0  0  0  0  0
   57.7576   35.1712   44.4149 H   0  0  0  0  0  0  0  0  0  0  0  0
   57.4049   33.0824   43.1325 H   0  0  0  0  0  0  0  0  0  0  0  0
   58.4410   30.8750   48.7240 H   0  0  0  0  0  0  0  0  0  0  0  0
   60.5430   28.8606   48.2608 H   0  0  0  0  0  0  0  0  0  0  0  0
   61.1495   30.5572   48.2394 H   0  0  0  0  0  0  0  0  0  0  0  0
   60.7245   28.9550   50.5121 H   0  0  0  0  0  0  0  0  0  0  0  0
   60.9642   30.7703   50.4517 H   0  0  0  0  0  0  0  0  0  0  0  0
   59.2570   31.9387   51.8043 H   0  0  0  0  0  0  0  0  0  0  0  0
   58.9105   32.1299   50.0483 H   0  0  0  0  0  0  0  0  0  0  0  0
   57.0388   32.4915   52.0262 H   0  0  0  0  0  0  0  0  0  0  0  0
   56.6526   31.9708   50.3307 H   0  0  0  0  0  0  0  0  0  0  0  0
   55.4166   30.6809   53.5190 H   0  0  0  0  0  0  0  0  0  0  0  0
   54.9165   31.6978   52.1253 H   0  0  0  0  0  0  0  0  0  0  0  0
   54.5618   29.9369   52.1253 H   0  0  0  0  0  0  0  0  0  0  0  0
   57.7970   30.4680   53.4980 H   0  0  0  0  0  0  0  0  0  0  0  0
   56.9993   28.8971   53.1442 H   0  0  0  0  0  0  0  0  0  0  0  0
   59.6264   29.3754   52.6005 H   0  0  0  0  0  0  0  0  0  0  0  0
   58.5914   28.2688   51.6056 H   0  0  0  0  0  0  0  0  0  0  0  0
   59.1913   27.9056   47.4877 H   0  0  0  0  0  0  0  0  0  0  0  0
   59.0692   25.8739   46.0638 H   0  0  0  0  0  0  0  0  0  0  0  0
   58.4660   26.0694   43.6581 H   0  0  0  0  0  0  0  0  0  0  0  0
   57.8617   28.2790   42.7009 H   0  0  0  0  0  0  0  0  0  0  0  0
   55.8374   30.6921   43.1258 H   0  0  0  0  0  0  0  0  0  0  0  0
   57.1694   31.5224   42.2524 H   0  0  0  0  0  0  0  0  0  0  0  0
   57.0765   29.7285   42.2524 H   0  0  0  0  0  0  0  0  0  0  0  0
  1  2  1  0
  2  3  1  0
  2  4  1  0
  4  5  1  0
  5  6  1  0
  6  7  1  0
  7  8  2  0
  8  9  1  0
  9 10  2  0
 10 11  1  0
 11 12  2  0
 12 13  1  0
 13 14  1  0
 14 15  1  0
 15 16  1  0
 16 17  1  0
 17 18  1  0
 18 19  1  0
 19 20  1  0
 20 21  1  0
 20 22  1  0
 22 23  1  0
 13 24  2  0
 24 25  1  0
 25 26  2  0
 26 27  1  0
 27 28  2  0
 28 29  1  0
 29 30  2  0
 30 31  1  0
 12  7  1  0
 23 17  1  0
 29 24  1  0
 30 11  1  0
  1 32  1  0
  1 33  1  0
  1 34  1  0
  3 35  1  0
  3 36  1  0
  3 37  1  0
  4 38  1  0
  4 39  1  0
  5 40  1  0
  5 41  1  0
  8 42  1  0
  9 43  1  0
 10 44  1  0
 14 45  1  0
 15 46  1  0
 15 47  1  0
 16 48  1  0
 16 49  1  0
 18 50  1  0
 18 51  1  0
 19 52  1  0
 19 53  1  0
 21 54  1  0
 21 55  1  0
 21 56  1  0
 22 57  1  0
 22 58  1  0
 23 59  1  0
 23 60  1  0
 25 61  1  0
 26 62  1  0
 27 63  1  0
 28 64  1  0
 31 65  1  0
 31 66  1  0
 31 67  1  0
M  CHG  1  30   1
M  END
>  <UniqueID>  (16) 
15

>  <SMILES>  (16) 
CN(C)CCOc1cccc2c1c(NCCN1CCN(C)CC1)c1ccccc1[n+]2C

>  <Energy>  (16) 
111.7944277625615

>  <Genealogy>  (16) 
CN(C)CCOc1cccc2c1c(NCCN1CCN(C)CC1)c1ccccc1[n+]2C (3D coordinates assigned)
CN(C)CCOc1cccc2c1c(NCCN1CCN(C)CC1)c1ccccc1[n+]2C (nonaromatic ring conformer: 111.7944277625615 kcal/mol)

>  <smiles>  (16) 
CN(C)CCOc1cccc2c1c(NCCN1CCN(C)CC1)c1ccccc1[n+]2C

>  <score_type>  (16) 
oracle

>  <origin>  (16) 
adg

>  <m_score__min__energy>  (16) 
-6.5

>  <m_primary>  (16) 
energy

$$$$
16:0
     RDKit          3D

 47 47  0  0  0  0  0  0  0  0999 V2000
   58.1320   32.4140   41.4260 C   0  0  0  0  0  0  0  0  0  0  0  0
   57.0750   31.5940   42.1570 C   0  0  0  0  0  0  0  0  0  0  0  0
   57.4390   31.4390   43.5730 N   0  0  0  0  0  0  0  0  0  0  0  0
   57.5430   30.0860   44.1440 C   0  0  0  0  0  0  0  0  0  0  0  0
   56.2000   29.5900   44.6210 C   0  0  0  0  0  0  0  0  0  0  0  0
   55.1690   30.2660   44.3670 O   0  0  0  0  0  0  0  0  0  0  0  0
   56.0310   28.3300   45.2920 N   0  0  0  0  0  0  0  0  0  0  0  0
   56.9750   27.2220   45.4760 C   0  0  0  0  0  0  0  0  0  0  0  0
   58.1370   27.5870   46.4070 C   0  0  0  0  0  0  0  0  0  0  0  0
   56.2520   25.9430   45.9120 C   0  0  0  0  0  0  0  0  0  0  0  0
   57.8300   32.6010   44.3350 C   0  0  0  0  0  0  0  0  0  0  0  0
   58.8870   33.2180   44.0270 O   0  0  0  0  0  0  0  0  0  0  0  0
   57.0140   33.0710   45.5130 C   0  0  0  0  0  0  0  0  0  0  0  0
   57.7680   34.0660   46.4070 C   0  0  0  0  0  0  0  0  0  0  0  0
   58.5240   33.3920   47.4150 O   0  0  0  0  0  0  0  0  0  0  0  0
   59.8960   33.0890   47.3520 C   0  0  0  0  0  0  0  0  0  0  0  0
   60.8880   34.0900   47.3900 C   0  0  0  0  0  0  0  0  0  0  0  0
   62.2400   33.7480   47.3180 C   0  0  0  0  0  0  0  0  0  0  0  0
   62.6200   32.4100   47.2140 C   0  0  0  0  0  0  0  0  0  0  0  0
   61.6480   31.4070   47.1880 C   0  0  0  0  0  0  0  0  0  0  0  0
   60.2850   31.7380   47.2540 C   0  0  0  0  0  0  0  0  0  0  0  0
   59.2460   30.6510   47.2410 C   0  0  0  0  0  0  0  0  0  0  0  0
   58.7791   32.9160   42.1603 H   0  0  0  0  0  0  0  0  0  0  0  0
   58.7403   31.7492   40.7951 H   0  0  0  0  0  0  0  0  0  0  0  0
   57.6392   33.1685   40.7951 H   0  0  0  0  0  0  0  0  0  0  0  0
   56.1045   32.1068   42.0858 H   0  0  0  0  0  0  0  0  0  0  0  0
   57.0101   30.5987   41.6931 H   0  0  0  0  0  0  0  0  0  0  0  0
   57.9259   29.4001   43.3740 H   0  0  0  0  0  0  0  0  0  0  0  0
   58.2264   30.1231   45.0051 H   0  0  0  0  0  0  0  0  0  0  0  0
   57.4317   27.0191   44.4961 H   0  0  0  0  0  0  0  0  0  0  0  0
   57.8141   27.4856   47.4536 H   0  0  0  0  0  0  0  0  0  0  0  0
   58.9845   26.9118   46.2177 H   0  0  0  0  0  0  0  0  0  0  0  0
   58.4462   28.6255   46.2177 H   0  0  0  0  0  0  0  0  0  0  0  0
   56.2242   25.8938   47.0105 H   0  0  0  0  0  0  0  0  0  0  0  0
   55.2246   25.9505   45.5192 H   0  0  0  0  0  0  0  0  0  0  0  0
   56.7883   25.0666   45.5192 H   0  0  0  0  0  0  0  0  0  0  0  0
   56.1032   33.5591   45.1360 H   0  0  0  0  0  0  0  0  0  0  0  0
   56.7829   32.1876   46.1263 H   0  0  0  0  0  0  0  0  0  0  0  0
   58.4524   34.6599   45.7834 H   0  0  0  0  0  0  0  0  0  0  0  0
   57.0302   34.7139   46.9028 H   0  0  0  0  0  0  0  0  0  0  0  0
   60.5953   35.1468   47.4769 H   0  0  0  0  0  0  0  0  0  0  0  0
   63.0073   34.5358   47.3434 H   0  0  0  0  0  0  0  0  0  0  0  0
   63.6857   32.1444   47.1524 H   0  0  0  0  0  0  0  0  0  0  0  0
   61.9520   30.3523   47.1154 H   0  0  0  0  0  0  0  0  0  0  0  0
   58.9865   30.3795   48.2749 H   0  0  0  0  0  0  0  0  0  0  0  0
   58.3465   31.0098   46.7193 H   0  0  0  0  0  0  0  0  0  0  0  0
   59.6450   29.7686   46.7193 H   0  0  0  0  0  0  0  0  0  0  0  0
  1  2  1  0
  2  3  1  0
  3  4  1  0
  4  5  1  0
  5  6  2  0
  5  7  1  0
  7  8  1  0
  8  9  1  0
  8 10  1  0
  3 11  1  0
 11 12  2  0
 11 13  1  0
 13 14  1  0
 14 15  1  0
 15 16  1  0
 16 17  2  0
 17 18  1  0
 18 19  2  0
 19 20  1  0
 20 21  2  0
 21 22  1  0
 21 16  1  0
  1 23  1  0
  1 24  1  0
  1 25  1  0
  2 26  1  0
  2 27  1  0
  4 28  1  0
  4 29  1  0
  8 30  1  0
  9 31  1  0
  9 32  1  0
  9 33  1  0
 10 34  1  0
 10 35  1  0
 10 36  1  0
 13 37  1  0
 13 38  1  0
 14 39  1  0
 14 40  1  0
 17 41  1  0
 18 42  1  0
 19 43  1  0
 20 44  1  0
 22 45  1  0
 22 46  1  0
 22 47  1  0
M  CHG  1   7  -1
M  END
>  <UniqueID>  (17) 
16

>  <SMILES>  (17) 
CCN(CC(=O)[N-]C(C)C)C(=O)CCOc1ccccc1C

>  <Energy>  (17) 
37.830476813271346

>  <Genealogy>  (17) 
CCN(CC(=O)[N-]C(C)C)C(=O)CCOc1ccccc1C (protonated)
CCN(CC(=O)[N-]C(C)C)C(=O)CCOc1ccccc1C (3D coordinates assigned)
CCN(CC(=O)[N-]C(C)C)C(=O)CCOc1ccccc1C (optimized conformer: 37.830476813271346 kcal/mol)

>  <smiles>  (17) 
CCN(CC(=O)NC(C)C)C(=O)CCOc1ccccc1C

>  <score_type>  (17) 
oracle

>  <origin>  (17) 
adg

>  <m_score__min__energy>  (17) 
-9.1099999999999994

>  <m_primary>  (17) 
energy

$$$$
17:0
     RDKit          3D

 49 52  0  0  0  0  0  0  0  0999 V2000
   53.4860   23.8050   45.0270 C   0  0  0  0  0  0  0  0  0  0  0  0
   54.8940   24.2420   45.2630 C   0  0  0  0  0  0  0  0  0  0  0  0
   55.9110   23.6480   44.5850 N   0  0  0  0  0  0  0  0  0  0  0  0
   57.2010   24.0050   44.8090 C   0  0  0  0  0  0  0  0  0  0  0  0
   57.5010   24.9910   45.7560 C   0  0  0  0  0  0  0  0  0  0  0  0
   58.9240   25.3960   46.0430 C   0  0  0  0  0  0  0  0  0  0  0  0
   59.1780   26.7680   45.5600 N   0  0  0  0  0  0  0  0  0  0  0  0
   59.1090   27.7300   46.6790 C   0  0  0  0  0  0  0  0  0  0  0  0
   59.3260   29.1600   46.1770 C   0  0  0  0  0  0  0  0  0  0  0  0
   58.3870   29.4740   45.0970 N   0  0  0  0  0  0  0  0  0  0  0  0
   58.2600   30.8370   44.6510 C   0  0  0  0  0  0  0  0  0  0  0  0
   58.1790   31.1150   43.3140 N   0  0  0  0  0  0  0  0  0  0  0  0
   58.0950   32.4050   42.8620 C   0  0  0  0  0  0  0  0  0  0  0  0
   58.0200   32.6850   41.3940 C   0  0  0  0  0  0  0  0  0  0  0  0
   58.1110   33.4410   43.7470 N   0  0  0  0  0  0  0  0  0  0  0  0
   58.1890   33.1850   45.0770 C   0  0  0  0  0  0  0  0  0  0  0  0
   58.2580   31.9080   45.5540 C   0  0  0  0  0  0  0  0  0  0  0  0
   58.3930   31.8880   47.0330 C   0  0  0  0  0  0  0  0  0  0  0  0
   58.5270   33.3750   47.4160 C   0  0  0  0  0  0  0  0  0  0  0  0
   58.2570   34.2030   46.1450 C   0  0  0  0  0  0  0  0  0  0  0  0
   57.5190   28.4240   44.5650 C   0  0  0  0  0  0  0  0  0  0  0  0
   58.3150   27.1180   44.3950 C   0  0  0  0  0  0  0  0  0  0  0  0
   56.4410   25.5740   46.4570 C   0  0  0  0  0  0  0  0  0  0  0  0
   55.1660   25.1880   46.2010 N   0  0  0  0  0  0  0  0  0  0  0  0
   52.9837   23.6491   45.9931 H   0  0  0  0  0  0  0  0  0  0  0  0
   52.9523   24.5798   44.4570 H   0  0  0  0  0  0  0  0  0  0  0  0
   53.4847   22.8642   44.4570 H   0  0  0  0  0  0  0  0  0  0  0  0
   58.0114   23.5191   44.2459 H   0  0  0  0  0  0  0  0  0  0  0  0
   59.1001   25.3557   47.1281 H   0  0  0  0  0  0  0  0  0  0  0  0
   59.6029   24.7041   45.5230 H   0  0  0  0  0  0  0  0  0  0  0  0
   58.1196   27.6604   47.1546 H   0  0  0  0  0  0  0  0  0  0  0  0
   59.8990   27.4860   47.4045 H   0  0  0  0  0  0  0  0  0  0  0  0
   59.1693   29.8630   47.0084 H   0  0  0  0  0  0  0  0  0  0  0  0
   60.3527   29.2495   45.7923 H   0  0  0  0  0  0  0  0  0  0  0  0
   58.1700   30.3290   42.6260 H   0  0  0  0  0  0  0  0  0  0  0  0
   57.7384   33.7364   41.2352 H   0  0  0  0  0  0  0  0  0  0  0  0
   59.0008   32.4946   40.9338 H   0  0  0  0  0  0  0  0  0  0  0  0
   57.2657   32.0298   40.9338 H   0  0  0  0  0  0  0  0  0  0  0  0
   57.5026   31.4426   47.5008 H   0  0  0  0  0  0  0  0  0  0  0  0
   59.2485   31.2851   47.3717 H   0  0  0  0  0  0  0  0  0  0  0  0
   57.7931   33.6306   48.1945 H   0  0  0  0  0  0  0  0  0  0  0  0
   59.5316   33.5858   47.8113 H   0  0  0  0  0  0  0  0  0  0  0  0
   57.3065   34.7505   46.2272 H   0  0  0  0  0  0  0  0  0  0  0  0
   59.0269   34.9666   45.9601 H   0  0  0  0  0  0  0  0  0  0  0  0
   56.6845   28.2539   45.2612 H   0  0  0  0  0  0  0  0  0  0  0  0
   57.1298   28.7394   43.5857 H   0  0  0  0  0  0  0  0  0  0  0  0
   57.6000   26.2971   44.2372 H   0  0  0  0  0  0  0  0  0  0  0  0
   58.9887   27.2694   43.5387 H   0  0  0  0  0  0  0  0  0  0  0  0
   56.6408   26.3451   47.2156 H   0  0  0  0  0  0  0  0  0  0  0  0
  1  2  1  0
  2  3  2  0
  3  4  1  0
  4  5  2  0
  5  6  1  0
  6  7  1  0
  7  8  1  0
  8  9  1  0
  9 10  1  0
 10 11  1  0
 11 12  2  0
 12 13  1  0
 13 14  1  0
 13 15  2  0
 15 16  1  0
 16 17  2  0
 17 18  1  0
 18 19  1  0
 19 20  1  0
 10 21  1  0
 21 22  1  0
  5 23  1  0
 23 24  2  0
 24  2  1  0
 22  7  1  0
 17 11  1  0
 20 16  1  0
  1 25  1  0
  1 26  1  0
  1 27  1  0
  4 28  1  0
  6 29  1  0
  6 30  1  0
  8 31  1  0
  8 32  1  0
  9 33  1  0
  9 34  1  0
 12 35  1  0
 14 36  1  0
 14 37  1  0
 14 38  1  0
 18 39  1  0
 18 40  1  0
 19 41  1  0
 19 42  1  0
 20 43  1  0
 20 44  1  0
 21 45  1  0
 21 46  1  0
 22 47  1  0
 22 48  1  0
 23 49  1  0
M  CHG  1  12   1
M  END
>  <UniqueID>  (18) 
17

>  <SMILES>  (18) 
Cc1ncc(CN2CCN(c3[nH+]c(C)nc4c3CCC4)CC2)cn1

>  <Energy>  (18) 
68.87429546460409

>  <Genealogy>  (18) 
Cc1ncc(CN2CCN(c3[nH+]c(C)nc4c3CCC4)CC2)cn1 (protonated)
Cc1ncc(CN2CCN(c3[nH+]c(C)nc4c3CCC4)CC2)cn1 (3D coordinates assigned)
Cc1ncc(CN2CCN(c3[nH+]c(C)nc4c3CCC4)CC2)cn1 (nonaromatic ring conformer: 68.87429546460409 kcal/mol)

>  <smiles>  (18) 
Cc1ncc(CN2CCN(c3nc(C)nc4c3CCC4)CC2)cn1

>  <score_type>  (18) 
oracle

>  <origin>  (18) 
adg

>  <m_score__min__energy>  (18) 
-6.6900000000000004

>  <m_primary>  (18) 
energy

$$$$
18:0
     RDKit          3D

 54 58  0  0  0  0  0  0  0  0999 V2000
   59.9970   35.0960   46.8240 C   0  0  0  0  0  0  0  0  0  0  0  0
   59.3550   33.8790   47.3140 N   0  0  0  0  0  0  0  0  0  0  0  0
   58.6650   32.9620   46.6090 C   0  0  0  0  0  0  0  0  0  0  0  0
   58.4360   32.9980   44.8270 S   0  0  0  0  0  0  0  0  0  0  0  0
   57.0210   31.8430   44.8390 C   0  0  0  0  0  0  0  0  0  0  0  0
   57.2610   30.6830   43.8680 C   0  0  0  0  0  0  0  0  0  0  0  0
   56.6350   29.3590   44.3320 C   0  0  0  0  0  0  0  0  0  0  0  0
   57.5850   28.5550   45.1360 N   0  0  0  0  0  0  0  0  0  0  0  0
   58.8070   28.2320   44.3770 C   0  0  0  0  0  0  0  0  0  0  0  0
   59.9820   28.2100   45.3390 C   0  0  2  0  0  0  0  0  0  0  0  0
   59.8330   27.3590   46.5950 C   0  0  0  0  0  0  0  0  0  0  0  0
   59.4760   28.8410   46.6120 C   0  0  1  0  0  0  0  0  0  0  0  0
   60.4190   29.8040   47.2820 C   0  0  0  0  0  0  0  0  0  0  0  0
   60.6900   29.6970   48.6560 C   0  0  0  0  0  0  0  0  0  0  0  0
   61.6010   30.5650   49.2650 C   0  0  0  0  0  0  0  0  0  0  0  0
   62.2840   31.5280   48.5050 C   0  0  0  0  0  0  0  0  0  0  0  0
   63.2270   32.4930   49.1780 C   0  0  0  0  0  0  0  0  0  0  0  0
   64.5060   32.3790   48.6600 F   0  0  0  0  0  0  0  0  0  0  0  0
   63.2870   32.2400   50.5390 F   0  0  0  0  0  0  0  0  0  0  0  0
   62.7750   33.7840   48.9800 F   0  0  0  0  0  0  0  0  0  0  0  0
   62.0090   31.6330   47.1300 C   0  0  0  0  0  0  0  0  0  0  0  0
   61.0960   30.7650   46.5210 C   0  0  0  0  0  0  0  0  0  0  0  0
   58.0280   29.2310   46.3690 C   0  0  0  0  0  0  0  0  0  0  0  0
   58.1430   32.0140   47.4090 N   0  0  0  0  0  0  0  0  0  0  0  0
   58.4800   32.3290   48.6520 N   0  0  0  0  0  0  0  0  0  0  0  0
   59.1950   33.4700   48.5880 C   0  0  0  0  0  0  0  0  0  0  0  0
   59.7750   34.1570   49.7880 C   0  0  0  0  0  0  0  0  0  0  0  0
   59.1300   33.7600   51.1090 C   0  0  0  0  0  0  0  0  0  0  0  0
   60.5160   33.2480   50.7580 C   0  0  0  0  0  0  0  0  0  0  0  0
   60.3205   35.7092   47.6780 H   0  0  0  0  0  0  0  0  0  0  0  0
   60.8714   34.8286   46.2125 H   0  0  0  0  0  0  0  0  0  0  0  0
   59.2826   35.6667   46.2125 H   0  0  0  0  0  0  0  0  0  0  0  0
   56.8905   31.4423   45.8551 H   0  0  0  0  0  0  0  0  0  0  0  0
   56.1180   32.3866   44.5243 H   0  0  0  0  0  0  0  0  0  0  0  0
   56.8288   30.9500   42.8923 H   0  0  0  0  0  0  0  0  0  0  0  0
   58.3483   30.5260   43.8123 H   0  0  0  0  0  0  0  0  0  0  0  0
   55.7479   29.5794   44.9439 H   0  0  0  0  0  0  0  0  0  0  0  0
   56.3636   28.7768   43.4390 H   0  0  0  0  0  0  0  0  0  0  0  0
   58.6985   27.2460   43.9017 H   0  0  0  0  0  0  0  0  0  0  0  0
   58.9750   28.9873   43.5952 H   0  0  0  0  0  0  0  0  0  0  0  0
   60.8146   28.2965   44.6253 H   0  0  0  0  0  0  0  0  0  0  0  0
   59.0397   26.5994   46.6562 H   0  0  0  0  0  0  0  0  0  0  0  0
   60.4977   26.7080   47.1819 H   0  0  0  0  0  0  0  0  0  0  0  0
   60.1831   28.9266   49.2556 H   0  0  0  0  0  0  0  0  0  0  0  0
   61.7841   30.4931   50.3473 H   0  0  0  0  0  0  0  0  0  0  0  0
   62.5151   32.4028   46.5290 H   0  0  0  0  0  0  0  0  0  0  0  0
   60.9092   30.8379   45.4394 H   0  0  0  0  0  0  0  0  0  0  0  0
   57.4056   28.9097   47.2172 H   0  0  0  0  0  0  0  0  0  0  0  0
   57.9339   30.3222   46.2664 H   0  0  0  0  0  0  0  0  0  0  0  0
   60.0080   35.1048   49.2806 H   0  0  0  0  0  0  0  0  0  0  0  0
   59.0055   34.5072   51.9066 H   0  0  0  0  0  0  0  0  0  0  0  0
   58.1784   33.2909   51.3996 H   0  0  0  0  0  0  0  0  0  0  0  0
   61.3951   33.6244   51.3017 H   0  0  0  0  0  0  0  0  0  0  0  0
   60.9832   32.2545   50.6895 H   0  0  0  0  0  0  0  0  0  0  0  0
  1  2  1  0
  2  3  1  0
  3  4  1  0
  4  5  1  0
  5  6  1  0
  6  7  1  0
  7  8  1  0
  8  9  1  0
  9 10  1  0
 10 11  1  0
 11 12  1  0
 12 13  1  1
 13 14  2  0
 14 15  1  0
 15 16  2  0
 16 17  1  0
 17 18  1  0
 17 19  1  0
 17 20  1  0
 16 21  1  0
 21 22  2  0
 12 23  1  0
  3 24  2  0
 24 25  1  0
 25 26  2  0
 26 27  1  0
 27 28  1  0
 28 29  1  0
 26  2  1  0
 29 27  1  0
 23  8  1  0
 12 10  1  0
 22 13  1  0
  1 30  1  0
  1 31  1  0
  1 32  1  0
  5 33  1  0
  5 34  1  0
  6 35  1  0
  6 36  1  0
  7 37  1  0
  7 38  1  0
  9 39  1  0
  9 40  1  0
 10 41  1  6
 11 42  1  0
 11 43  1  0
 14 44  1  0
 15 45  1  0
 21 46  1  0
 22 47  1  0
 23 48  1  0
 23 49  1  0
 27 50  1  0
 28 51  1  0
 28 52  1  0
 29 53  1  0
 29 54  1  0
M  END
>  <UniqueID>  (19) 
18

>  <SMILES>  (19) 
Cn1c(SCCCN2C[C@@H]3C[C@]3(c3ccc(C(F)(F)F)cc3)C2)nnc1C1CC1

>  <Energy>  (19) 
621.2851989658744

>  <Genealogy>  (19) 
Cn1c(SCCCN2C[C@@H]3C[C@]3(c3ccc(C(F)(F)F)cc3)C2)nnc1C1CC1 (chirality)
Cn1c(SCCCN2C[C@@H]3C[C@]3(c3ccc(C(F)(F)F)cc3)C2)nnc1C1CC1 (3D coordinates assigned)
Cn1c(SCCCN2C[C@@H]3C[C@]3(c3ccc(C(F)(F)F)cc3)C2)nnc1C1CC1 (nonaromatic ring conformer: 621.2851989658744 kcal/mol)

>  <smiles>  (19) 
Cn1c(SCCCN2CC3CC3(c3ccc(C(F)(F)F)cc3)C2)nnc1C1CC1

>  <score_type>  (19) 
oracle

>  <origin>  (19) 
adg

>  <m_score__min__energy>  (19) 
-8.6999999999999993

>  <m_primary>  (19) 
energy

$$$$
19:0
     RDKit          3D

 47 46  0  0  0  0  0  0  0  0999 V2000
   58.7890   25.5860   46.0220 C   0  0  0  0  0  0  0  0  0  0  0  0
   59.6810   26.8410   46.0440 C   0  0  0  0  0  0  0  0  0  0  0  0
   59.0090   28.1360   45.6900 N   0  0  0  0  0  0  0  0  0  0  0  0
   58.6420   28.8690   46.9270 C   0  0  0  0  0  0  0  0  0  0  0  0
   59.9190   28.9670   44.8600 C   0  0  0  0  0  0  0  0  0  0  0  0
   57.7820   27.7780   44.9000 C   0  0  0  0  0  0  0  0  0  0  0  0
   57.7700   28.1960   43.4010 C   0  0  0  0  0  0  0  0  0  0  0  0
   56.7410   29.2990   43.1120 C   0  0  0  0  0  0  0  0  0  0  0  0
   56.2270   29.8830   44.3900 C   0  0  0  0  0  0  0  0  0  0  0  0
   55.1530   29.4550   44.8910 O   0  0  0  0  0  0  0  0  0  0  0  0
   56.9400   30.9570   45.0090 N   0  0  0  0  0  0  0  0  0  0  0  0
   57.7220   31.9280   44.2520 C   0  0  0  0  0  0  0  0  0  0  0  0
   57.3940   33.3490   44.7130 C   0  0  0  0  0  0  0  0  0  0  0  0
   58.1690   33.7220   45.9970 C   0  0  0  0  0  0  0  0  0  0  0  0
   58.5950   32.5620   46.8180 N   0  0  0  0  0  0  0  0  0  0  0  0
   58.2760   32.7300   48.2460 C   0  0  0  0  0  0  0  0  0  0  0  0
   60.0200   32.2290   46.6320 C   0  0  0  0  0  0  0  0  0  0  0  0
   58.5680   25.2751   47.0537 H   0  0  0  0  0  0  0  0  0  0  0  0
   57.8488   25.8135   45.4983 H   0  0  0  0  0  0  0  0  0  0  0  0
   59.3130   24.7729   45.4983 H   0  0  0  0  0  0  0  0  0  0  0  0
   60.0929   26.9427   47.0589 H   0  0  0  0  0  0  0  0  0  0  0  0
   60.4385   26.6784   45.2631 H   0  0  0  0  0  0  0  0  0  0  0  0
   58.9384   28.2771   47.8055 H   0  0  0  0  0  0  0  0  0  0  0  0
   59.1609   29.8387   46.9462 H   0  0  0  0  0  0  0  0  0  0  0  0
   57.5547   29.0345   46.9462 H   0  0  0  0  0  0  0  0  0  0  0  0
   60.5714   29.5627   45.5154 H   0  0  0  0  0  0  0  0  0  0  0  0
   60.5353   28.3135   44.2251 H   0  0  0  0  0  0  0  0  0  0  0  0
   59.3240   29.6400   44.2251 H   0  0  0  0  0  0  0  0  0  0  0  0
   57.6653   26.6850   44.9423 H   0  0  0  0  0  0  0  0  0  0  0  0
   56.9626   28.3455   45.3652 H   0  0  0  0  0  0  0  0  0  0  0  0
   58.7699   28.5648   43.1285 H   0  0  0  0  0  0  0  0  0  0  0  0
   57.4923   27.3126   42.8074 H   0  0  0  0  0  0  0  0  0  0  0  0
   57.2177   30.0922   42.5173 H   0  0  0  0  0  0  0  0  0  0  0  0
   55.8983   28.8629   42.5555 H   0  0  0  0  0  0  0  0  0  0  0  0
   58.7931   31.7335   44.4098 H   0  0  0  0  0  0  0  0  0  0  0  0
   57.4749   31.8322   43.1844 H   0  0  0  0  0  0  0  0  0  0  0  0
   57.6649   34.0552   43.9143 H   0  0  0  0  0  0  0  0  0  0  0  0
   56.3174   33.4002   44.9330 H   0  0  0  0  0  0  0  0  0  0  0  0
   59.0680   34.2844   45.7044 H   0  0  0  0  0  0  0  0  0  0  0  0
   57.4779   34.3089   46.6199 H   0  0  0  0  0  0  0  0  0  0  0  0
   58.0450   31.7380   46.4770 H   0  0  0  0  0  0  0  0  0  0  0  0
   59.0863   32.3033   48.8554 H   0  0  0  0  0  0  0  0  0  0  0  0
   58.1702   33.8008   48.4746 H   0  0  0  0  0  0  0  0  0  0  0  0
   57.3332   32.2114   48.4746 H   0  0  0  0  0  0  0  0  0  0  0  0
   60.5015   32.1165   47.6146 H   0  0  0  0  0  0  0  0  0  0  0  0
   60.1062   31.2865   46.0714 H   0  0  0  0  0  0  0  0  0  0  0  0
   60.5149   33.0357   46.0714 H   0  0  0  0  0  0  0  0  0  0  0  0
  1  2  1  0
  2  3  1  0
  3  4  1  0
  3  5  1  0
  3  6  1  0
  6  7  1  0
  7  8  1  0
  8  9  1  0
  9 10  2  0
  9 11  1  0
 11 12  1  0
 12 13  1  0
 13 14  1  0
 14 15  1  0
 15 16  1  0
 15 17  1  0
  1 18  1  0
  1 19  1  0
  1 20  1  0
  2 21  1  0
  2 22  1  0
  4 23  1  0
  4 24  1  0
  4 25  1  0
  5 26  1  0
  5 27  1  0
  5 28  1  0
  6 29  1  0
  6 30  1  0
  7 31  1  0
  7 32  1  0
  8 33  1  0
  8 34  1  0
 12 35  1  0
 12 36  1  0
 13 37  1  0
 13 38  1  0
 14 39  1  0
 14 40  1  0
 15 41  1  0
 16 42  1  0
 16 43  1  0
 16 44  1  0
 17 45  1  0
 17 46  1  0
 17 47  1  0
M  CHG  3   3   1  11  -1  15   1
M  END
>  <UniqueID>  (20) 
19

>  <SMILES>  (20) 
CC[N+](C)(C)CCCC(=O)[N-]CCC[NH+](C)C

>  <Energy>  (20) 
47.828535139885055

>  <Genealogy>  (20) 
CC[N+](C)(C)CCCC(=O)[N-]CCC[NH+](C)C (protonated)
CC[N+](C)(C)CCCC(=O)[N-]CCC[NH+](C)C (3D coordinates assigned)
CC[N+](C)(C)CCCC(=O)[N-]CCC[NH+](C)C (optimized conformer: 47.828535139885055 kcal/mol)

>  <smiles>  (20) 
CC[N+](C)(C)CCCC(=O)NCCCN(C)C

>  <score_type>  (20) 
oracle

>  <origin>  (20) 
adg

>  <m_score__min__energy>  (20) 
-4.0300000000000002

>  <m_primary>  (20) 
energy

$$$$
20:0
     RDKit          3D

 55 58  0  0  0  0  0  0  0  0999 V2000
   56.4620   23.3270   48.2030 C   0  0  0  0  0  0  0  0  0  0  0  0
   55.6250   23.2500   46.9340 C   0  0  0  0  0  0  0  0  0  0  0  0
   55.1660   24.5530   46.5890 O   0  0  0  0  0  0  0  0  0  0  0  0
   55.9920   25.5210   46.0100 C   0  0  0  0  0  0  0  0  0  0  0  0
   57.2510   25.1490   45.5300 C   0  0  0  0  0  0  0  0  0  0  0  0
   58.0900   26.1140   44.9740 C   0  0  0  0  0  0  0  0  0  0  0  0
   57.6690   27.4540   44.9060 C   0  0  0  0  0  0  0  0  0  0  0  0
   56.3780   27.7760   45.3580 C   0  0  0  0  0  0  0  0  0  0  0  0
   55.5830   26.8180   45.9050 N   0  0  0  0  0  0  0  0  0  0  0  0
   55.9050   29.1200   45.2460 N   0  0  0  0  0  0  0  0  0  0  0  0
   56.6580   30.0900   44.5120 C   0  0  0  0  0  0  0  0  0  0  0  0
   56.2730   31.2870   44.4760 O   0  0  0  0  0  0  0  0  0  0  0  0
   57.8690   29.6570   43.7340 C   0  0  0  0  0  0  0  0  0  0  0  0
   58.5140   28.5130   44.4010 N   0  0  0  0  0  0  0  0  0  0  0  0
   59.9680   28.5240   44.6350 C   0  0  0  0  0  0  0  0  0  0  0  0
   60.3390   28.8100   46.1060 C   0  0  0  0  0  0  0  0  0  0  0  0
   60.3590   27.6240   46.9820 N   0  0  0  0  0  0  0  0  0  0  0  0
   59.7180   27.8060   48.2930 C   0  0  0  0  0  0  0  0  0  0  0  0
   58.5330   28.7880   48.2460 C   0  0  0  0  0  0  0  0  0  0  0  0
   58.8400   30.0070   48.9270 O   0  0  0  0  0  0  0  0  0  0  0  0
   59.0670   31.2490   48.3060 C   0  0  0  0  0  0  0  0  0  0  0  0
   59.6150   32.2820   49.0770 C   0  0  0  0  0  0  0  0  0  0  0  0
   59.8080   33.5540   48.5310 C   0  0  0  0  0  0  0  0  0  0  0  0
   59.4650   33.8090   47.1950 C   0  0  0  0  0  0  0  0  0  0  0  0
   59.6380   35.0880   46.6410 C   0  0  0  0  0  0  0  0  0  0  0  0
   59.2870   35.3280   45.3080 C   0  0  0  0  0  0  0  0  0  0  0  0
   58.7640   34.2970   44.5200 C   0  0  0  0  0  0  0  0  0  0  0  0
   58.5870   33.0200   45.0600 C   0  0  0  0  0  0  0  0  0  0  0  0
   58.9330   32.7660   46.3990 C   0  0  0  0  0  0  0  0  0  0  0  0
   58.7450   31.4910   46.9540 C   0  0  0  0  0  0  0  0  0  0  0  0
   55.8026   23.2663   49.0814 H   0  0  0  0  0  0  0  0  0  0  0  0
   57.1764   22.4908   48.2223 H   0  0  0  0  0  0  0  0  0  0  0  0
   57.0118   24.2795   48.2223 H   0  0  0  0  0  0  0  0  0  0  0  0
   56.2382   22.8481   46.1140 H   0  0  0  0  0  0  0  0  0  0  0  0
   54.7616   22.5898   47.1034 H   0  0  0  0  0  0  0  0  0  0  0  0
   57.5782   24.1005   45.5906 H   0  0  0  0  0  0  0  0  0  0  0  0
   59.0798   25.8275   44.5891 H   0  0  0  0  0  0  0  0  0  0  0  0
   57.5637   29.3622   42.7192 H   0  0  0  0  0  0  0  0  0  0  0  0
   58.5820   30.4930   43.6811 H   0  0  0  0  0  0  0  0  0  0  0  0
   60.3757   27.5414   44.3551 H   0  0  0  0  0  0  0  0  0  0  0  0
   60.3939   29.3338   44.0243 H   0  0  0  0  0  0  0  0  0  0  0  0
   61.3403   29.2651   46.1238 H   0  0  0  0  0  0  0  0  0  0  0  0
   59.5535   29.4718   46.4997 H   0  0  0  0  0  0  0  0  0  0  0  0
   61.3510   27.3300   47.1360 H   0  0  0  0  0  0  0  0  0  0  0  0
   59.3519   26.8298   48.6439 H   0  0  0  0  0  0  0  0  0  0  0  0
   60.4713   28.2280   48.9745 H   0  0  0  0  0  0  0  0  0  0  0  0
   58.2968   29.0142   47.1957 H   0  0  0  0  0  0  0  0  0  0  0  0
   57.6733   28.3183   48.7463 H   0  0  0  0  0  0  0  0  0  0  0  0
   59.8964   32.0902   50.1230 H   0  0  0  0  0  0  0  0  0  0  0  0
   60.2305   34.3582   49.1513 H   0  0  0  0  0  0  0  0  0  0  0  0
   60.0499   35.9019   47.2558 H   0  0  0  0  0  0  0  0  0  0  0  0
   59.4228   36.3313   44.8779 H   0  0  0  0  0  0  0  0  0  0  0  0
   58.4913   34.4920   43.4723 H   0  0  0  0  0  0  0  0  0  0  0  0
   58.1763   32.2123   44.4364 H   0  0  0  0  0  0  0  0  0  0  0  0
   58.3448   30.6767   46.3322 H   0  0  0  0  0  0  0  0  0  0  0  0
  1  2  1  0
  2  3  1  0
  3  4  1  0
  4  5  2  0
  5  6  1  0
  6  7  2  0
  7  8  1  0
  8  9  2  0
  8 10  1  0
 10 11  1  0
 11 12  2  0
 11 13  1  0
 13 14  1  0
 14 15  1  0
 15 16  1  0
 16 17  1  0
 17 18  1  0
 18 19  1  0
 19 20  1  0
 20 21  1  0
 21 22  2  0
 22 23  1  0
 23 24  2  0
 24 25  1  0
 25 26  2  0
 26 27  1  0
 27 28  2  0
 28 29  1  0
 29 30  2  0
  9  4  1  0
 30 21  1  0
 14  7  1  0
 29 24  1  0
  1 31  1  0
  1 32  1  0
  1 33  1  0
  2 34  1  0
  2 35  1  0
  5 36  1  0
  6 37  1  0
 13 38  1  0
 13 39  1  0
 15 40  1  0
 15 41  1  0
 16 42  1  0
 16 43  1  0
 17 44  1  0
 18 45  1  0
 18 46  1  0
 19 47  1  0
 19 48  1  0
 22 49  1  0
 23 50  1  0
 25 51  1  0
 26 52  1  0
 27 53  1  0
 28 54  1  0
 30 55  1  0
M  CHG  1  10  -1
M  END
>  <UniqueID>  (21) 
20

>  <SMILES>  (21) 
CCOc1ccc2c(n1)[N-]C(=O)CN2CCNCCOc1ccc2ccccc2c1

>  <Energy>  (21) 
57.512785051514726

>  <Genealogy>  (21) 
CCOc1ccc2c(n1)[N-]C(=O)CN2CCNCCOc1ccc2ccccc2c1 (protonated)
CCOc1ccc2c(n1)[N-]C(=O)CN2CCNCCOc1ccc2ccccc2c1 (3D coordinates assigned)
CCOc1ccc2c(n1)[N-]C(=O)CN2CCNCCOc1ccc2ccccc2c1 (nonaromatic ring conformer: 57.512785051514726 kcal/mol)

>  <smiles>  (21) 
CCOc1ccc2c(n1)NC(=O)CN2CCNCCOc1ccc2ccccc2c1

>  <score_type>  (21) 
oracle

>  <origin>  (21) 
adg

>  <m_score__min__energy>  (21) 
-10.66

>  <m_primary>  (21) 
energy

$$$$
21:0
     RDKit          3D

 41 42  0  0  0  0  0  0  0  0999 V2000
   58.1810   27.5080   44.7860 C   0  0  0  0  0  0  0  0  0  0  0  0
   57.2720   28.3030   45.7080 C   0  0  0  0  0  0  0  0  0  0  0  0
   55.9460   28.2110   45.2520 O   0  0  0  0  0  0  0  0  0  0  0  0
   55.5090   29.4870   45.0780 N   0  0  0  0  0  0  0  0  0  0  0  0
   55.5020   29.7640   43.6400 C   0  0  0  0  0  0  0  0  0  0  0  0
   56.8930   30.1850   43.1400 C   0  0  0  0  0  0  0  0  0  0  0  0
   57.2580   31.6420   43.4540 C   0  0  0  0  0  0  0  0  0  0  0  0
   57.2070   31.9020   44.8580 O   0  0  0  0  0  0  0  0  0  0  0  0
   58.3010   32.1470   45.7070 C   0  0  0  0  0  0  0  0  0  0  0  0
   59.1000   31.1250   46.2550 C   0  0  0  0  0  0  0  0  0  0  0  0
   60.1870   31.4420   47.0750 C   0  0  0  0  0  0  0  0  0  0  0  0
   60.5020   32.7820   47.3580 C   0  0  0  0  0  0  0  0  0  0  0  0
   61.6880   33.1180   48.1840 C   0  0  0  0  0  0  0  0  0  0  0  0
   62.9770   32.7260   47.7750 C   0  0  0  0  0  0  0  0  0  0  0  0
   64.0940   33.0500   48.5500 C   0  0  0  0  0  0  0  0  0  0  0  0
   63.9390   33.7670   49.7380 C   0  0  0  0  0  0  0  0  0  0  0  0
   62.6660   34.1620   50.1540 C   0  0  0  0  0  0  0  0  0  0  0  0
   61.5440   33.8420   49.3820 C   0  0  0  0  0  0  0  0  0  0  0  0
   59.6890   33.7980   46.8290 C   0  0  0  0  0  0  0  0  0  0  0  0
   58.5980   33.4790   46.0160 C   0  0  0  0  0  0  0  0  0  0  0  0
   58.8741   26.9018   45.3878 H   0  0  0  0  0  0  0  0  0  0  0  0
   57.5722   26.8472   44.1513 H   0  0  0  0  0  0  0  0  0  0  0  0
   58.7548   28.1994   44.1513 H   0  0  0  0  0  0  0  0  0  0  0  0
   57.3380   27.8963   46.7279 H   0  0  0  0  0  0  0  0  0  0  0  0
   57.5858   29.3573   45.7125 H   0  0  0  0  0  0  0  0  0  0  0  0
   56.2220   30.1040   45.5290 H   0  0  0  0  0  0  0  0  0  0  0  0
   55.1888   28.8566   43.1029 H   0  0  0  0  0  0  0  0  0  0  0  0
   54.8027   30.5920   43.4517 H   0  0  0  0  0  0  0  0  0  0  0  0
   57.6418   29.5320   43.6121 H   0  0  0  0  0  0  0  0  0  0  0  0
   56.8775   30.0914   42.0441 H   0  0  0  0  0  0  0  0  0  0  0  0
   58.2765   31.8421   43.0899 H   0  0  0  0  0  0  0  0  0  0  0  0
   56.5288   32.2966   42.9543 H   0  0  0  0  0  0  0  0  0  0  0  0
   58.8677   30.0722   46.0368 H   0  0  0  0  0  0  0  0  0  0  0  0
   60.8010   30.6356   47.5024 H   0  0  0  0  0  0  0  0  0  0  0  0
   63.1057   32.1613   46.8398 H   0  0  0  0  0  0  0  0  0  0  0  0
   65.0974   32.7395   48.2233 H   0  0  0  0  0  0  0  0  0  0  0  0
   64.8197   34.0207   50.3462 H   0  0  0  0  0  0  0  0  0  0  0  0
   62.5451   34.7260   51.0907 H   0  0  0  0  0  0  0  0  0  0  0  0
   60.5438   34.1581   49.7133 H   0  0  0  0  0  0  0  0  0  0  0  0
   59.9124   34.8509   47.0560 H   0  0  0  0  0  0  0  0  0  0  0  0
   57.9654   34.2843   45.6144 H   0  0  0  0  0  0  0  0  0  0  0  0
  1  2  1  0
  2  3  1  0
  3  4  1  0
  4  5  1  0
  5  6  1  0
  6  7  1  0
  7  8  1  0
  8  9  1  0
  9 10  2  0
 10 11  1  0
 11 12  2  0
 12 13  1  0
 13 14  2  0
 14 15  1  0
 15 16  2  0
 16 17  1  0
 17 18  2  0
 12 19  1  0
 19 20  2  0
 20  9  1  0
 18 13  1  0
  1 21  1  0
  1 22  1  0
  1 23  1  0
  2 24  1  0
  2 25  1  0
  4 26  1  0
  5 27  1  0
  5 28  1  0
  6 29  1  0
  6 30  1  0
  7 31  1  0
  7 32  1  0
 10 33  1  0
 11 34  1  0
 14 35  1  0
 15 36  1  0
 16 37  1  0
 17 38  1  0
 18 39  1  0
 19 40  1  0
 20 41  1  0
M  END
>  <UniqueID>  (22) 
21

>  <SMILES>  (22) 
CCONCCCOc1ccc(-c2ccccc2)cc1

>  <Energy>  (22) 
37.62909099188189

>  <Genealogy>  (22) 
CCONCCCOc1ccc(-c2ccccc2)cc1 (3D coordinates assigned)
CCONCCCOc1ccc(-c2ccccc2)cc1 (optimized conformer: 37.62909099188189 kcal/mol)

>  <smiles>  (22) 
CCONCCCOc1ccc(-c2ccccc2)cc1

>  <score_type>  (22) 
oracle

>  <origin>  (22) 
adg

>  <m_score__min__energy>  (22) 
-6.96

>  <m_primary>  (22) 
energy

$$$$
22:0
     RDKit          3D

 43 45  0  0  0  0  0  0  0  0999 V2000
   58.9110   29.3584   44.8547 H   0  0  0  0  0  0  0  0  0  0  0  0
   58.2630   29.8270   45.6100 C   0  0  0  0  0  0  0  0  0  0  0  0
   56.9980   29.5390   45.6220 N   0  0  0  0  0  0  0  0  0  0  0  0
   56.0880   30.2530   44.8730 O   0  0  0  0  0  0  0  0  0  0  0  0
   55.8890   29.9530   43.5030 C   0  0  0  0  0  0  0  0  0  0  0  0
   54.8248   30.0711   43.2510 H   0  0  0  0  0  0  0  0  0  0  0  0
   56.1960   28.9159   43.3025 H   0  0  0  0  0  0  0  0  0  0  0  0
   56.6890   30.8690   42.6910 C   0  0  0  0  0  0  0  0  0  0  0  0
   57.3470   31.6230   42.0170 C   0  0  0  0  0  0  0  0  0  0  0  0
   58.1460   32.5370   41.2030 C   0  0  0  0  0  0  0  0  0  0  0  0
   58.7266   33.2011   41.8602 H   0  0  0  0  0  0  0  0  0  0  0  0
   58.8326   31.9577   40.5681 H   0  0  0  0  0  0  0  0  0  0  0  0
   57.4802   33.1400   40.5681 H   0  0  0  0  0  0  0  0  0  0  0  0
   58.8610   30.7730   46.5890 C   0  0  0  0  0  0  0  0  0  0  0  0
   58.8550   32.1630   46.3430 C   0  0  0  0  0  0  0  0  0  0  0  0
   58.3940   32.6900   45.1140 C   0  0  0  0  0  0  0  0  0  0  0  0
   58.0064   32.0081   44.3427 H   0  0  0  0  0  0  0  0  0  0  0  0
   58.4240   34.0600   44.8670 C   0  0  0  0  0  0  0  0  0  0  0  0
   58.0426   34.4542   43.9135 H   0  0  0  0  0  0  0  0  0  0  0  0
   58.9340   34.9290   45.8210 C   0  0  0  0  0  0  0  0  0  0  0  0
   58.9681   36.0094   45.6169 H   0  0  0  0  0  0  0  0  0  0  0  0
   59.4030   34.4360   47.0370 C   0  0  0  0  0  0  0  0  0  0  0  0
   59.8212   35.1339   47.7773 H   0  0  0  0  0  0  0  0  0  0  0  0
   59.3510   33.0500   47.3380 C   0  0  0  0  0  0  0  0  0  0  0  0
   59.7880   32.5560   48.5520 N   0  0  0  0  0  0  0  0  0  0  0  0
   60.0100   33.4790   49.6880 C   0  0  0  0  0  0  0  0  0  0  0  0
   59.8789   32.9339   50.6344 H   0  0  0  0  0  0  0  0  0  0  0  0
   61.0313   33.8844   49.6368 H   0  0  0  0  0  0  0  0  0  0  0  0
   59.2848   34.3045   49.6368 H   0  0  0  0  0  0  0  0  0  0  0  0
   59.9930   31.2000   48.7140 C   0  0  0  0  0  0  0  0  0  0  0  0
   60.7090   30.6840   49.8260 C   0  0  0  0  0  0  0  0  0  0  0  0
   61.1626   31.3825   50.5446 H   0  0  0  0  0  0  0  0  0  0  0  0
   60.8510   29.3020   50.0290 C   0  0  0  0  0  0  0  0  0  0  0  0
   61.5420   28.7650   51.1260 O   0  0  0  0  0  0  0  0  0  0  0  0
   61.2330   27.5220   51.7470 C   0  0  0  0  0  0  0  0  0  0  0  0
   61.2626   27.6409   52.8402 H   0  0  0  0  0  0  0  0  0  0  0  0
   60.2272   27.1989   51.4404 H   0  0  0  0  0  0  0  0  0  0  0  0
   61.9704   26.7656   51.4404 H   0  0  0  0  0  0  0  0  0  0  0  0
   60.2880   28.4190   49.1120 C   0  0  0  0  0  0  0  0  0  0  0  0
   60.3699   27.3347   49.2783 H   0  0  0  0  0  0  0  0  0  0  0  0
   59.6220   28.8960   47.9860 C   0  0  0  0  0  0  0  0  0  0  0  0
   59.1915   28.1823   47.2681 H   0  0  0  0  0  0  0  0  0  0  0  0
   59.4910   30.2830   47.7520 C   0  0  0  0  0  0  0  0  0  0  0  0
  1  2  1  0
  2  3  2  0
  3  4  1  0
  4  5  1  0
  5  6  1  0
  5  7  1  0
  5  8  1  0
  8  9  3  0
  9 10  1  0
 10 11  1  0
 10 12  1  0
 10 13  1  0
  2 14  1  0
 14 15  2  0
 15 16  1  0
 16 17  1  0
 16 18  2  0
 18 19  1  0
 18 20  1  0
 20 21  1  0
 20 22  2  0
 22 23  1  0
 22 24  1  0
 24 25  2  0
 25 26  1  0
 26 27  1  0
 26 28  1  0
 26 29  1  0
 25 30  1  0
 30 31  2  0
 31 32  1  0
 31 33  1  0
 33 34  1  0
 34 35  1  0
 35 36  1  0
 35 37  1  0
 35 38  1  0
 33 39  2  0
 39 40  1  0
 39 41  1  0
 41 42  1  0
 41 43  2  0
 43 14  1  0
 24 15  1  0
 43 30  1  0
M  CHG  1  25   1
M  END
>  <UniqueID>  (23) 
22

>  <SMILES>  (23) 
CC#CCO/N=C\c1c2ccccc2[n+](C)c2cc(OC)ccc12

>  <Energy>  (23) 
64.97489513912271

>  <Genealogy>  (23) 
CC#CCO/N=C\c1c2ccccc2[n+](C)c2cc(OC)ccc12 (cis-trans isomerization)
CC#CCO/N=C\c1c2ccccc2[n+](C)c2cc(OC)ccc12 (3D coordinates assigned)
CC#CCO/N=C\c1c2ccccc2[n+](C)c2cc(OC)ccc12 (optimized conformer: 64.97489513912271 kcal/mol)

>  <smiles>  (23) 
CC#CCON=Cc1c2ccccc2[n+](C)c2cc(OC)ccc12

>  <score_type>  (23) 
oracle

>  <origin>  (23) 
adg

>  <m_score__min__energy>  (23) 
-6.0300000000000002

>  <m_primary>  (23) 
energy

$$$$
23:0
     RDKit          3D

 69 72  0  0  0  0  0  0  0  0999 V2000
   56.8470   29.1860   53.3300 C   0  0  0  0  0  0  0  0  0  0  0  0
   58.1170   29.2350   52.4890 C   0  0  0  0  0  0  0  0  0  0  0  0
   57.8540   29.9330   51.2240 N   0  0  0  0  0  0  0  0  0  0  0  0
   57.5840   31.3630   51.4300 C   0  0  0  0  0  0  0  0  0  0  0  0
   58.0820   32.2230   50.2590 C   0  0  0  0  0  0  0  0  0  0  0  0
   58.7780   31.4180   49.2510 N   0  0  0  0  0  0  0  0  0  0  0  0
   59.8610   31.9410   48.4610 C   0  0  0  0  0  0  0  0  0  0  0  0
   59.5610   32.7340   47.3370 C   0  0  0  0  0  0  0  0  0  0  0  0
   58.2290   32.8660   46.8830 C   0  0  0  0  0  0  0  0  0  0  0  0
   57.9200   33.6990   45.8130 C   0  0  0  0  0  0  0  0  0  0  0  0
   58.9220   34.4280   45.1860 C   0  0  0  0  0  0  0  0  0  0  0  0
   60.2440   34.3160   45.6160 C   0  0  0  0  0  0  0  0  0  0  0  0
   60.5980   33.4470   46.6820 C   0  0  0  0  0  0  0  0  0  0  0  0
   61.9030   33.3290   47.1170 N   0  0  0  0  0  0  0  0  0  0  0  0
   63.0060   33.8940   46.3060 C   0  0  0  0  0  0  0  0  0  0  0  0
   62.1860   32.6550   48.2900 C   0  0  0  0  0  0  0  0  0  0  0  0
   63.4430   32.7820   48.9270 C   0  0  0  0  0  0  0  0  0  0  0  0
   63.7560   32.0320   50.0530 C   0  0  0  0  0  0  0  0  0  0  0  0
   62.8550   31.0990   50.5430 C   0  0  0  0  0  0  0  0  0  0  0  0
   61.5880   30.9530   49.9590 C   0  0  0  0  0  0  0  0  0  0  0  0
   60.7590   29.8380   50.3440 N   0  0  0  0  0  0  0  0  0  0  0  0
   60.7540   28.5510   49.6490 C   0  0  0  0  0  0  0  0  0  0  0  0
   59.4000   28.2820   48.9720 C   0  0  0  0  0  0  0  0  0  0  0  0
   59.3110   28.9410   47.6490 N   0  0  0  0  0  0  0  0  0  0  0  0
   60.6310   29.0420   46.9650 C   0  0  0  0  0  0  0  0  0  0  0  0
   60.6200   29.7560   45.5960 C   0  0  0  0  0  0  0  0  0  0  0  0
   59.7740   29.0720   44.4950 C   0  0  0  0  0  0  0  0  0  0  0  0
   58.2850   29.4570   44.4620 C   0  0  0  0  0  0  0  0  0  0  0  0
   57.6010   29.4410   45.8360 C   0  0  0  0  0  0  0  0  0  0  0  0
   58.1760   28.4280   46.8440 C   0  0  0  0  0  0  0  0  0  0  0  0
   61.2000   31.8310   48.9020 C   0  0  0  0  0  0  0  0  0  0  0  0
   57.1133   29.1963   54.3972 H   0  0  0  0  0  0  0  0  0  0  0  0
   56.2209   30.0607   53.0999 H   0  0  0  0  0  0  0  0  0  0  0  0
   56.2901   28.2657   53.0999 H   0  0  0  0  0  0  0  0  0  0  0  0
   58.9014   29.7701   53.0443 H   0  0  0  0  0  0  0  0  0  0  0  0
   58.4476   28.2083   52.2734 H   0  0  0  0  0  0  0  0  0  0  0  0
   58.7170   29.8620   50.6370 H   0  0  0  0  0  0  0  0  0  0  0  0
   56.4988   31.5064   51.5382 H   0  0  0  0  0  0  0  0  0  0  0  0
   58.1225   31.6810   52.3349 H   0  0  0  0  0  0  0  0  0  0  0  0
   57.2194   32.7164   49.7873 H   0  0  0  0  0  0  0  0  0  0  0  0
   58.7922   32.9634   50.6558 H   0  0  0  0  0  0  0  0  0  0  0  0
   58.4270   30.4540   49.0520 H   0  0  0  0  0  0  0  0  0  0  0  0
   57.4267   32.3028   47.3822 H   0  0  0  0  0  0  0  0  0  0  0  0
   56.8804   33.7805   45.4628 H   0  0  0  0  0  0  0  0  0  0  0  0
   58.6724   35.0955   44.3481 H   0  0  0  0  0  0  0  0  0  0  0  0
   61.0258   34.9109   45.1211 H   0  0  0  0  0  0  0  0  0  0  0  0
   63.7845   34.2928   46.9730 H   0  0  0  0  0  0  0  0  0  0  0  0
   63.4358   33.1051   45.6713 H   0  0  0  0  0  0  0  0  0  0  0  0
   62.6169   34.7038   45.6713 H   0  0  0  0  0  0  0  0  0  0  0  0
   64.1849   33.4868   48.5234 H   0  0  0  0  0  0  0  0  0  0  0  0
   64.7222   32.1786   50.5580 H   0  0  0  0  0  0  0  0  0  0  0  0
   63.1365   30.4670   51.3982 H   0  0  0  0  0  0  0  0  0  0  0  0
   60.1100   29.9530   51.1540 H   0  0  0  0  0  0  0  0  0  0  0  0
   61.5425   28.5558   48.8820 H   0  0  0  0  0  0  0  0  0  0  0  0
   60.9334   27.7578   50.3897 H   0  0  0  0  0  0  0  0  0  0  0  0
   59.2767   27.1970   48.8393 H   0  0  0  0  0  0  0  0  0  0  0  0
   58.6069   28.6921   49.6144 H   0  0  0  0  0  0  0  0  0  0  0  0
   61.3146   29.5923   47.6282 H   0  0  0  0  0  0  0  0  0  0  0  0
   60.9449   28.0074   46.7623 H   0  0  0  0  0  0  0  0  0  0  0  0
   60.2238   30.7711   45.7463 H   0  0  0  0  0  0  0  0  0  0  0  0
   61.6591   29.7346   45.2357 H   0  0  0  0  0  0  0  0  0  0  0  0
   60.2123   29.3335   43.5206 H   0  0  0  0  0  0  0  0  0  0  0  0
   59.8005   27.9959   44.7217 H   0  0  0  0  0  0  0  0  0  0  0  0
   58.2001   30.4718   44.0461 H   0  0  0  0  0  0  0  0  0  0  0  0
   57.7762   28.7005   43.8465 H   0  0  0  0  0  0  0  0  0  0  0  0
   57.6932   30.4460   46.2736 H   0  0  0  0  0  0  0  0  0  0  0  0
   56.5604   29.1339   45.6550 H   0  0  0  0  0  0  0  0  0  0  0  0
   57.3708   28.1337   47.5332 H   0  0  0  0  0  0  0  0  0  0  0  0
   58.5654   27.5851   46.2542 H   0  0  0  0  0  0  0  0  0  0  0  0
  1  2  1  0
  2  3  1  0
  3  4  1  0
  4  5  1  0
  5  6  1  0
  6  7  1  0
  7  8  2  0
  8  9  1  0
  9 10  2  0
 10 11  1  0
 11 12  2  0
 12 13  1  0
 13 14  2  0
 14 15  1  0
 14 16  1  0
 16 17  2  0
 17 18  1  0
 18 19  2  0
 19 20  1  0
 20 21  1  0
 21 22  1  0
 22 23  1  0
 23 24  1  0
 24 25  1  0
 25 26  1  0
 26 27  1  0
 27 28  1  0
 28 29  1  0
 29 30  1  0
 20 31  2  0
 31  7  1  0
 13  8  1  0
 31 16  1  0
 30 24  1  0
  1 32  1  0
  1 33  1  0
  1 34  1  0
  2 35  1  0
  2 36  1  0
  3 37  1  0
  4 38  1  0
  4 39  1  0
  5 40  1  0
  5 41  1  0
  6 42  1  0
  9 43  1  0
 10 44  1  0
 11 45  1  0
 12 46  1  0
 15 47  1  0
 15 48  1  0
 15 49  1  0
 17 50  1  0
 18 51  1  0
 19 52  1  0
 21 53  1  0
 22 54  1  0
 22 55  1  0
 23 56  1  0
 23 57  1  0
 25 58  1  0
 25 59  1  0
 26 60  1  0
 26 61  1  0
 27 62  1  0
 27 63  1  0
 28 64  1  0
 28 65  1  0
 29 66  1  0
 29 67  1  0
 30 68  1  0
 30 69  1  0
M  CHG  1  14   1
M  END
>  <UniqueID>  (24) 
23

>  <SMILES>  (24) 
CCNCCNc1c2ccccc2[n+](C)c2cccc(NCCN3CCCCCC3)c12

>  <Energy>  (24) 
111.99863170838938

>  <Genealogy>  (24) 
CCNCCNc1c2ccccc2[n+](C)c2cccc(NCCN3CCCCCC3)c12 (3D coordinates assigned)
CCNCCNc1c2ccccc2[n+](C)c2cccc(NCCN3CCCCCC3)c12 (nonaromatic ring conformer: 111.99863170838938 kcal/mol)

>  <smiles>  (24) 
CCNCCNc1c2ccccc2[n+](C)c2cccc(NCCN3CCCCCC3)c12

>  <score_type>  (24) 
oracle

>  <origin>  (24) 
adg

>  <m_score__min__energy>  (24) 
-4.1399999999999997

>  <m_primary>  (24) 
energy

$$$$
24:0
     RDKit          3D

 44 46  0  0  0  0  0  0  0  0999 V2000
   58.7100   32.1300   50.4490 C   0  0  0  0  0  0  0  0  0  0  0  0
   59.3600   33.5100   50.4820 C   0  0  0  0  0  0  0  0  0  0  0  0
   60.8910   33.4590   50.3260 C   0  0  0  0  0  0  0  0  0  0  0  0
   61.3480   33.8040   48.9660 N   0  0  0  0  0  0  0  0  0  0  0  0
   62.7520   34.1840   48.7180 C   0  0  0  0  0  0  0  0  0  0  0  0
   63.2130   33.8170   47.2910 C   0  0  0  0  0  0  0  0  0  0  0  0
   63.5660   32.3380   47.1380 C   0  0  0  0  0  0  0  0  0  0  0  0
   60.4030   33.7620   47.8700 C   0  0  0  0  0  0  0  0  0  0  0  0
   59.7950   34.9100   47.4270 N   0  0  0  0  0  0  0  0  0  0  0  0
   58.8850   34.8940   46.4010 C   0  0  0  0  0  0  0  0  0  0  0  0
   58.5530   33.7240   45.7850 N   0  0  0  0  0  0  0  0  0  0  0  0
   59.1560   32.5860   46.2000 C   0  0  0  0  0  0  0  0  0  0  0  0
   60.0490   32.5710   47.2260 C   0  0  0  0  0  0  0  0  0  0  0  0
   60.3460   31.2340   47.4180 C   0  0  0  0  0  0  0  0  0  0  0  0
   59.6390   30.5020   46.5200 N   0  0  0  0  0  0  0  0  0  0  0  0
   58.9180   31.3310   45.7720 N   0  0  0  0  0  0  0  0  0  0  0  0
   58.0230   30.8960   44.7320 C   0  0  0  0  0  0  0  0  0  0  0  0
   57.1820   29.7800   44.9110 C   0  0  0  0  0  0  0  0  0  0  0  0
   56.3130   29.3790   43.8920 C   0  0  0  0  0  0  0  0  0  0  0  0
   56.2670   30.0880   42.6910 C   0  0  0  0  0  0  0  0  0  0  0  0
   57.0840   31.2060   42.5070 C   0  0  0  0  0  0  0  0  0  0  0  0
   57.9550   31.6120   43.5240 C   0  0  0  0  0  0  0  0  0  0  0  0
   58.5442   31.7781   51.4779 H   0  0  0  0  0  0  0  0  0  0  0  0
   57.7460   32.1912   49.9226 H   0  0  0  0  0  0  0  0  0  0  0  0
   59.3711   31.4258   49.9226 H   0  0  0  0  0  0  0  0  0  0  0  0
   58.9441   34.1128   49.6613 H   0  0  0  0  0  0  0  0  0  0  0  0
   59.1446   33.9512   51.4663 H   0  0  0  0  0  0  0  0  0  0  0  0
   61.3388   34.1697   51.0362 H   0  0  0  0  0  0  0  0  0  0  0  0
   61.2057   32.4238   50.5241 H   0  0  0  0  0  0  0  0  0  0  0  0
   62.8541   35.2707   48.8546 H   0  0  0  0  0  0  0  0  0  0  0  0
   63.3822   33.6297   49.4291 H   0  0  0  0  0  0  0  0  0  0  0  0
   62.4020   34.0581   46.5880 H   0  0  0  0  0  0  0  0  0  0  0  0
   64.1247   34.3957   47.0813 H   0  0  0  0  0  0  0  0  0  0  0  0
   63.6748   31.8822   48.1332 H   0  0  0  0  0  0  0  0  0  0  0  0
   62.7650   31.8251   46.5854 H   0  0  0  0  0  0  0  0  0  0  0  0
   64.5123   32.2421   46.5854 H   0  0  0  0  0  0  0  0  0  0  0  0
   60.0220   35.8270   47.8640 H   0  0  0  0  0  0  0  0  0  0  0  0
   58.4185   35.8343   46.0720 H   0  0  0  0  0  0  0  0  0  0  0  0
   61.0387   30.8315   48.1717 H   0  0  0  0  0  0  0  0  0  0  0  0
   57.2093   29.2210   45.8580 H   0  0  0  0  0  0  0  0  0  0  0  0
   55.6641   28.5027   44.0372 H   0  0  0  0  0  0  0  0  0  0  0  0
   55.5869   29.7663   41.8886 H   0  0  0  0  0  0  0  0  0  0  0  0
   57.0426   31.7675   41.5620 H   0  0  0  0  0  0  0  0  0  0  0  0
   58.5909   32.4975   43.3774 H   0  0  0  0  0  0  0  0  0  0  0  0
  1  2  1  0
  2  3  1  0
  3  4  1  0
  4  5  1  0
  5  6  1  0
  6  7  1  0
  4  8  1  0
  8  9  2  0
  9 10  1  0
 10 11  2  0
 11 12  1  0
 12 13  2  0
 13 14  1  0
 14 15  2  0
 15 16  1  0
 16 17  1  0
 17 18  2  0
 18 19  1  0
 19 20  2  0
 20 21  1  0
 21 22  2  0
 13  8  1  0
 22 17  1  0
 16 12  1  0
  1 23  1  0
  1 24  1  0
  1 25  1  0
  2 26  1  0
  2 27  1  0
  3 28  1  0
  3 29  1  0
  5 30  1  0
  5 31  1  0
  6 32  1  0
  6 33  1  0
  7 34  1  0
  7 35  1  0
  7 36  1  0
  9 37  1  0
 10 38  1  0
 14 39  1  0
 18 40  1  0
 19 41  1  0
 20 42  1  0
 21 43  1  0
 22 44  1  0
M  CHG  1   9   1
M  END
>  <UniqueID>  (25) 
24

>  <SMILES>  (25) 
CCCN(CCC)c1[nH+]cnc2c1cnn2-c1ccccc1

>  <Energy>  (25) 
90.87324122432341

>  <Genealogy>  (25) 
CCCN(CCC)c1[nH+]cnc2c1cnn2-c1ccccc1 (protonated)
CCCN(CCC)c1[nH+]cnc2c1cnn2-c1ccccc1 (3D coordinates assigned)
CCCN(CCC)c1[nH+]cnc2c1cnn2-c1ccccc1 (optimized conformer: 90.87324122432341 kcal/mol)

>  <smiles>  (25) 
CCCN(CCC)c1ncnc2c1cnn2-c1ccccc1

>  <score_type>  (25) 
oracle

>  <origin>  (25) 
adg

>  <m_score__min__energy>  (25) 
-5.4299999999999997

>  <m_primary>  (25) 
energy

$$$$
25:0
     RDKit          3D

 73 76  0  0  0  0  0  0  0  0999 V2000
   57.8010   33.4170   52.3650 C   0  0  0  0  0  0  0  0  0  0  0  0
   57.3670   32.0150   52.7860 C   0  0  0  0  0  0  0  0  0  0  0  0
   57.1830   31.0520   51.5950 C   0  0  0  0  0  0  0  0  0  0  0  0
   58.2960   31.0680   50.6270 N   0  0  0  0  0  0  0  0  0  0  0  0
   59.1000   29.8320   50.6680 C   0  0  0  0  0  0  0  0  0  0  0  0
   59.2940   29.2380   49.2660 C   0  0  0  0  0  0  0  0  0  0  0  0
   59.7080   30.2620   48.3030 N   0  0  0  0  0  0  0  0  0  0  0  0
   59.0060   30.4350   47.0570 C   0  0  0  0  0  0  0  0  0  0  0  0
   58.7900   29.3190   46.2250 C   0  0  0  0  0  0  0  0  0  0  0  0
   59.1420   28.0180   46.6510 C   0  0  0  0  0  0  0  0  0  0  0  0
   59.0040   26.9250   45.8010 C   0  0  0  0  0  0  0  0  0  0  0  0
   58.5240   27.1050   44.5120 C   0  0  0  0  0  0  0  0  0  0  0  0
   58.1480   28.3740   44.0740 C   0  0  0  0  0  0  0  0  0  0  0  0
   58.2350   29.5020   44.9330 C   0  0  0  0  0  0  0  0  0  0  0  0
   57.8220   30.7560   44.5260 N   0  0  0  0  0  0  0  0  0  0  0  0
   57.0060   30.8980   43.2970 C   0  0  0  0  0  0  0  0  0  0  0  0
   58.1270   31.8700   45.2860 C   0  0  0  0  0  0  0  0  0  0  0  0
   57.9510   33.1780   44.7720 C   0  0  0  0  0  0  0  0  0  0  0  0
   58.1530   34.2970   45.5680 C   0  0  0  0  0  0  0  0  0  0  0  0
   58.5220   34.1530   46.8970 C   0  0  0  0  0  0  0  0  0  0  0  0
   58.7580   32.8780   47.4400 C   0  0  0  0  0  0  0  0  0  0  0  0
   59.0770   32.7350   48.8020 O   0  0  0  0  0  0  0  0  0  0  0  0
   59.6260   33.7560   49.6310 C   0  0  0  0  0  0  0  0  0  0  0  0
   60.9680   33.2590   50.2100 C   0  0  0  0  0  0  0  0  0  0  0  0
   62.1570   33.3440   49.2970 N   0  0  0  0  0  0  0  0  0  0  0  0
   63.2940   33.9790   50.0190 C   0  0  0  0  0  0  0  0  0  0  0  0
   62.5450   31.9710   48.8470 C   0  0  0  0  0  0  0  0  0  0  0  0
   63.6950   31.9640   47.8150 C   0  0  0  0  0  0  0  0  0  0  0  0
   63.5990   33.1000   46.7880 C   0  0  0  0  0  0  0  0  0  0  0  0
   62.1980   33.6920   46.7410 C   0  0  0  0  0  0  0  0  0  0  0  0
   61.7640   34.2150   48.1250 C   0  0  0  0  0  0  0  0  0  0  0  0
   58.6420   31.7260   46.6060 C   0  0  0  0  0  0  0  0  0  0  0  0
   57.9898   34.0269   53.2608 H   0  0  0  0  0  0  0  0  0  0  0  0
   58.7209   33.3515   51.7655 H   0  0  0  0  0  0  0  0  0  0  0  0
   57.0050   33.8827   51.7655 H   0  0  0  0  0  0  0  0  0  0  0  0
   58.1329   31.5988   53.4569 H   0  0  0  0  0  0  0  0  0  0  0  0
   56.3902   32.1107   53.2826 H   0  0  0  0  0  0  0  0  0  0  0  0
   57.0838   30.0301   51.9898 H   0  0  0  0  0  0  0  0  0  0  0  0
   56.2872   31.3880   51.0523 H   0  0  0  0  0  0  0  0  0  0  0  0
   58.9090   31.8980   50.7940 H   0  0  0  0  0  0  0  0  0  0  0  0
   57.8750   31.1810   49.6770 H   0  0  0  0  0  0  0  0  0  0  0  0
   60.0861   30.0615   51.0981 H   0  0  0  0  0  0  0  0  0  0  0  0
   58.5653   29.0938   51.2837 H   0  0  0  0  0  0  0  0  0  0  0  0
   60.0672   28.4570   49.3123 H   0  0  0  0  0  0  0  0  0  0  0  0
   58.3336   28.8179   48.9325 H   0  0  0  0  0  0  0  0  0  0  0  0
   60.3710   31.0050   48.6130 H   0  0  0  0  0  0  0  0  0  0  0  0
   59.5306   27.8674   47.6690 H   0  0  0  0  0  0  0  0  0  0  0  0
   59.2755   25.9182   46.1512 H   0  0  0  0  0  0  0  0  0  0  0  0
   58.4398   26.2436   43.8332 H   0  0  0  0  0  0  0  0  0  0  0  0
   57.7779   28.5039   43.0463 H   0  0  0  0  0  0  0  0  0  0  0  0
   55.9568   31.0806   43.5725 H   0  0  0  0  0  0  0  0  0  0  0  0
   57.3817   31.7443   42.7031 H   0  0  0  0  0  0  0  0  0  0  0  0
   57.0738   29.9746   42.7031 H   0  0  0  0  0  0  0  0  0  0  0  0
   57.6486   33.3095   43.7226 H   0  0  0  0  0  0  0  0  0  0  0  0
   58.0198   35.3027   45.1427 H   0  0  0  0  0  0  0  0  0  0  0  0
   58.6310   35.0445   47.5320 H   0  0  0  0  0  0  0  0  0  0  0  0
   59.7945   34.6652   49.0352 H   0  0  0  0  0  0  0  0  0  0  0  0
   58.9288   33.9878   50.4497 H   0  0  0  0  0  0  0  0  0  0  0  0
   61.1893   33.8581   51.1056 H   0  0  0  0  0  0  0  0  0  0  0  0
   60.8242   32.1862   50.4063 H   0  0  0  0  0  0  0  0  0  0  0  0
   63.1349   33.8902   51.1038 H   0  0  0  0  0  0  0  0  0  0  0  0
   64.2314   33.4738   49.7433 H   0  0  0  0  0  0  0  0  0  0  0  0
   63.3556   35.0421   49.7433 H   0  0  0  0  0  0  0  0  0  0  0  0
   62.8631   31.3928   49.7271 H   0  0  0  0  0  0  0  0  0  0  0  0
   61.6653   31.5305   48.3550 H   0  0  0  0  0  0  0  0  0  0  0  0
   64.6485   32.0616   48.3548 H   0  0  0  0  0  0  0  0  0  0  0  0
   63.6269   31.0172   47.2592 H   0  0  0  0  0  0  0  0  0  0  0  0
   64.3124   33.8911   47.0623 H   0  0  0  0  0  0  0  0  0  0  0  0
   63.8334   32.6886   45.7951 H   0  0  0  0  0  0  0  0  0  0  0  0
   62.1850   34.5252   46.0229 H   0  0  0  0  0  0  0  0  0  0  0  0
   61.4974   32.9018   46.4331 H   0  0  0  0  0  0  0  0  0  0  0  0
   62.2175   35.2064   48.2712 H   0  0  0  0  0  0  0  0  0  0  0  0
   60.6642   34.2310   48.1131 H   0  0  0  0  0  0  0  0  0  0  0  0
  1  2  1  0
  2  3  1  0
  3  4  1  0
  4  5  1  0
  5  6  1  0
  6  7  1  0
  7  8  1  0
  8  9  2  0
  9 10  1  0
 10 11  2  0
 11 12  1  0
 12 13  2  0
 13 14  1  0
 14 15  2  0
 15 16  1  0
 15 17  1  0
 17 18  2  0
 18 19  1  0
 19 20  2  0
 20 21  1  0
 21 22  1  0
 22 23  1  0
 23 24  1  0
 24 25  1  0
 25 26  1  0
 25 27  1  0
 27 28  1  0
 28 29  1  0
 29 30  1  0
 30 31  1  0
 21 32  2  0
 32  8  1  0
 14  9  1  0
 32 17  1  0
 31 25  1  0
  1 33  1  0
  1 34  1  0
  1 35  1  0
  2 36  1  0
  2 37  1  0
  3 38  1  0
  3 39  1  0
  4 40  1  0
  4 41  1  0
  5 42  1  0
  5 43  1  0
  6 44  1  0
  6 45  1  0
  7 46  1  0
 10 47  1  0
 11 48  1  0
 12 49  1  0
 13 50  1  0
 16 51  1  0
 16 52  1  0
 16 53  1  0
 18 54  1  0
 19 55  1  0
 20 56  1  0
 23 57  1  0
 23 58  1  0
 24 59  1  0
 24 60  1  0
 26 61  1  0
 26 62  1  0
 26 63  1  0
 27 64  1  0
 27 65  1  0
 28 66  1  0
 28 67  1  0
 29 68  1  0
 29 69  1  0
 30 70  1  0
 30 71  1  0
 31 72  1  0
 31 73  1  0
M  CHG  3   4   1  15   1  25   1
M  END
>  <UniqueID>  (26) 
25

>  <SMILES>  (26) 
CCC[NH2+]CCNc1c2ccccc2[n+](C)c2cccc(OCC[N+]3(C)CCCCC3)c12

>  <Energy>  (26) 
115.96921568540273

>  <Genealogy>  (26) 
CCC[NH2+]CCNc1c2ccccc2[n+](C)c2cccc(OCC[N+]3(C)CCCCC3)c12 (protonated)
CCC[NH2+]CCNc1c2ccccc2[n+](C)c2cccc(OCC[N+]3(C)CCCCC3)c12 (3D coordinates assigned)
CCC[NH2+]CCNc1c2ccccc2[n+](C)c2cccc(OCC[N+]3(C)CCCCC3)c12 (nonaromatic ring conformer: 115.96921568540273 kcal/mol)

>  <smiles>  (26) 
CCCNCCNc1c2ccccc2[n+](C)c2cccc(OCC[N+]3(C)CCCCC3)c12

>  <score_type>  (26) 
oracle

>  <origin>  (26) 
adg

>  <m_score__min__energy>  (26) 
-3.6600000000000001

>  <m_primary>  (26) 
energy

$$$$
26:0
     RDKit          3D

 58 60  0  0  0  0  0  0  0  0999 V2000
   58.1090   33.8520   45.7550 C   0  0  0  0  0  0  0  0  0  0  0  0
   59.6030   34.1750   45.7570 C   0  0  0  0  0  0  0  0  0  0  0  0
   60.0980   34.6390   47.1400 C   0  0  0  0  0  0  0  0  0  0  0  0
   60.7700   33.5490   47.8700 N   0  0  0  0  0  0  0  0  0  0  0  0
   62.1740   33.6850   48.2890 C   0  0  0  0  0  0  0  0  0  0  0  0
   63.1350   33.2700   47.1680 C   0  0  0  0  0  0  0  0  0  0  0  0
   63.3960   31.7660   47.1940 C   0  0  0  0  0  0  0  0  0  0  0  0
   60.0070   32.4010   48.2980 C   0  0  0  0  0  0  0  0  0  0  0  0
   59.3510   32.3830   49.5440 C   0  0  0  0  0  0  0  0  0  0  0  0
   58.6200   31.2360   49.9220 C   0  0  0  0  0  0  0  0  0  0  0  0
   57.8830   31.2180   51.2270 C   0  0  0  0  0  0  0  0  0  0  0  0
   58.5330   30.1680   49.0710 N   0  0  0  0  0  0  0  0  0  0  0  0
   59.1890   30.2190   47.8840 C   0  0  0  0  0  0  0  0  0  0  0  0
   59.2090   29.2860   46.8730 C   0  0  0  0  0  0  0  0  0  0  0  0
   58.5490   27.9650   46.8360 C   0  0  0  0  0  0  0  0  0  0  0  0
   59.1450   26.8390   47.4520 C   0  0  0  0  0  0  0  0  0  0  0  0
   60.4750   26.9340   48.1530 C   0  0  0  0  0  0  0  0  0  0  0  0
   58.4750   25.6060   47.4270 C   0  0  0  0  0  0  0  0  0  0  0  0
   57.2490   25.4790   46.7730 C   0  0  0  0  0  0  0  0  0  0  0  0
   56.4330   23.9250   46.7390 Cl  0  0  0  0  0  0  0  0  0  0  0  0
   56.6710   26.5820   46.1450 C   0  0  0  0  0  0  0  0  0  0  0  0
   57.3110   27.8360   46.1750 C   0  0  0  0  0  0  0  0  0  0  0  0
   56.7420   28.9700   45.5720 O   0  0  0  0  0  0  0  0  0  0  0  0
   56.9060   29.3280   44.2030 C   0  0  0  0  0  0  0  0  0  0  0  0
   59.9730   29.8990   45.8800 C   0  0  0  0  0  0  0  0  0  0  0  0
   60.2780   29.3410   44.5290 C   0  0  0  0  0  0  0  0  0  0  0  0
   60.3650   31.1280   46.2880 N   0  0  0  0  0  0  0  0  0  0  0  0
   59.8900   31.2980   47.5120 N   0  0  0  0  0  0  0  0  0  0  0  0
   57.7493   33.7742   46.7916 H   0  0  0  0  0  0  0  0  0  0  0  0
   57.5615   34.6525   45.2360 H   0  0  0  0  0  0  0  0  0  0  0  0
   57.9411   32.8968   45.2360 H   0  0  0  0  0  0  0  0  0  0  0  0
   60.1606   33.2726   45.4660 H   0  0  0  0  0  0  0  0  0  0  0  0
   59.7709   34.9972   45.0458 H   0  0  0  0  0  0  0  0  0  0  0  0
   60.8075   35.4687   47.0052 H   0  0  0  0  0  0  0  0  0  0  0  0
   59.2253   34.9596   47.7278 H   0  0  0  0  0  0  0  0  0  0  0  0
   62.3677   34.7343   48.5563 H   0  0  0  0  0  0  0  0  0  0  0  0
   62.3433   33.0247   49.1523 H   0  0  0  0  0  0  0  0  0  0  0  0
   62.6930   33.5409   46.1978 H   0  0  0  0  0  0  0  0  0  0  0  0
   64.0914   33.7924   47.3176 H   0  0  0  0  0  0  0  0  0  0  0  0
   63.4557   31.4222   48.2372 H   0  0  0  0  0  0  0  0  0  0  0  0
   62.5753   31.2425   46.6818 H   0  0  0  0  0  0  0  0  0  0  0  0
   64.3451   31.5497   46.6818 H   0  0  0  0  0  0  0  0  0  0  0  0
   59.4076   33.2528   50.2151 H   0  0  0  0  0  0  0  0  0  0  0  0
   58.6054   31.2356   52.0563 H   0  0  0  0  0  0  0  0  0  0  0  0
   57.2294   32.1005   51.2912 H   0  0  0  0  0  0  0  0  0  0  0  0
   57.2733   30.3047   51.2912 H   0  0  0  0  0  0  0  0  0  0  0  0
   57.9620   29.3300   49.3220 H   0  0  0  0  0  0  0  0  0  0  0  0
   60.3173   26.9227   49.2416 H   0  0  0  0  0  0  0  0  0  0  0  0
   61.1034   26.0785   47.8646 H   0  0  0  0  0  0  0  0  0  0  0  0
   60.9754   27.8702   47.8646 H   0  0  0  0  0  0  0  0  0  0  0  0
   58.9199   24.7330   47.9269 H   0  0  0  0  0  0  0  0  0  0  0  0
   55.7091   26.4717   45.6229 H   0  0  0  0  0  0  0  0  0  0  0  0
   57.3633   30.3263   44.1373 H   0  0  0  0  0  0  0  0  0  0  0  0
   57.5572   28.5930   43.7073 H   0  0  0  0  0  0  0  0  0  0  0  0
   55.9241   29.3411   43.7073 H   0  0  0  0  0  0  0  0  0  0  0  0
   60.8029   28.3806   44.6389 H   0  0  0  0  0  0  0  0  0  0  0  0
   59.3398   29.1849   43.9764 H   0  0  0  0  0  0  0  0  0  0  0  0
   60.9160   30.0464   43.9764 H   0  0  0  0  0  0  0  0  0  0  0  0
  1  2  1  0
  2  3  1  0
  3  4  1  0
  4  5  1  0
  5  6  1  0
  6  7  1  0
  4  8  1  0
  8  9  2  0
  9 10  1  0
 10 11  1  0
 10 12  2  0
 12 13  1  0
 13 14  2  0
 14 15  1  0
 15 16  2  0
 16 17  1  0
 16 18  1  0
 18 19  2  0
 19 20  1  0
 19 21  1  0
 21 22  2  0
 22 23  1  0
 23 24  1  0
 14 25  1  0
 25 26  1  0
 25 27  2  0
 27 28  1  0
 28  8  1  0
 28 13  1  0
 22 15  1  0
  1 29  1  0
  1 30  1  0
  1 31  1  0
  2 32  1  0
  2 33  1  0
  3 34  1  0
  3 35  1  0
  5 36  1  0
  5 37  1  0
  6 38  1  0
  6 39  1  0
  7 40  1  0
  7 41  1  0
  7 42  1  0
  9 43  1  0
 11 44  1  0
 11 45  1  0
 11 46  1  0
 12 47  1  0
 17 48  1  0
 17 49  1  0
 17 50  1  0
 18 51  1  0
 21 52  1  0
 24 53  1  0
 24 54  1  0
 24 55  1  0
 26 56  1  0
 26 57  1  0
 26 58  1  0
M  CHG  1  12   1
M  END
>  <UniqueID>  (27) 
26

>  <SMILES>  (27) 
CCCN(CCC)c1cc(C)[nH+]c2c(-c3c(C)cc(Cl)cc3OC)c(C)nn12

>  <Energy>  (27) 
96.46529653379193

>  <Genealogy>  (27) 
CCCN(CCC)c1cc(C)[nH+]c2c(-c3c(C)cc(Cl)cc3OC)c(C)nn12 (protonated)
CCCN(CCC)c1cc(C)[nH+]c2c(-c3c(C)cc(Cl)cc3OC)c(C)nn12 (3D coordinates assigned)
CCCN(CCC)c1cc(C)[nH+]c2c(-c3c(C)cc(Cl)cc3OC)c(C)nn12 (optimized conformer: 96.46529653379193 kcal/mol)

>  <smiles>  (27) 
CCCN(CCC)c1cc(C)nc2c(-c3c(C)cc(Cl)cc3OC)c(C)nn12

>  <score_type>  (27) 
oracle

>  <origin>  (27) 
adg

>  <m_score__min__energy>  (27) 
-6.5199999999999996

>  <m_primary>  (27) 
energy

$$$$
27:0
     RDKit          3D

 36 37  0  0  0  0  0  0  0  0999 V2000
   58.1410   26.8290   44.7710 C   0  0  0  0  0  0  0  0  0  0  0  0
   57.5830   27.2840   46.1140 C   0  0  0  0  0  0  0  0  0  0  0  0
   57.0170   28.5900   46.0120 O   0  0  0  0  0  0  0  0  0  0  0  0
   57.1390   29.4580   44.9110 C   0  0  0  0  0  0  0  0  0  0  0  0
   56.1570   29.5280   43.9030 C   0  0  0  0  0  0  0  0  0  0  0  0
   56.2990   30.4150   42.8340 C   0  0  0  0  0  0  0  0  0  0  0  0
   57.4210   31.2420   42.7520 C   0  0  0  0  0  0  0  0  0  0  0  0
   57.5890   32.3630   41.4150 Cl  0  0  0  0  0  0  0  0  0  0  0  0
   58.4020   31.1830   43.7440 C   0  0  0  0  0  0  0  0  0  0  0  0
   58.2700   30.3020   44.8300 C   0  0  0  0  0  0  0  0  0  0  0  0
   59.3200   30.3190   45.9130 C   0  0  0  0  0  0  0  0  0  0  0  0
   58.7020   30.4760   47.2400 N   0  0  0  0  0  0  0  0  0  0  0  0
   58.9080   31.8180   47.8100 C   0  0  0  0  0  0  0  0  0  0  0  0
   58.6730   32.8930   46.7790 C   0  0  0  0  0  0  0  0  0  0  0  0
   57.3780   33.1630   46.3130 C   0  0  0  0  0  0  0  0  0  0  0  0
   57.1880   34.1430   45.3360 C   0  0  0  0  0  0  0  0  0  0  0  0
   58.2500   34.8390   44.8520 N   0  0  0  0  0  0  0  0  0  0  0  0
   59.5140   34.6130   45.3010 C   0  0  0  0  0  0  0  0  0  0  0  0
   59.7480   33.6430   46.2780 C   0  0  0  0  0  0  0  0  0  0  0  0
   58.9836   26.1419   44.9379 H   0  0  0  0  0  0  0  0  0  0  0  0
   57.3535   26.3123   44.2028 H   0  0  0  0  0  0  0  0  0  0  0  0
   58.4887   27.7044   44.2028 H   0  0  0  0  0  0  0  0  0  0  0  0
   56.8045   26.5780   46.4388 H   0  0  0  0  0  0  0  0  0  0  0  0
   58.4041   27.3120   46.8454 H   0  0  0  0  0  0  0  0  0  0  0  0
   55.2710   28.8784   43.9587 H   0  0  0  0  0  0  0  0  0  0  0  0
   55.5247   30.4624   42.0542 H   0  0  0  0  0  0  0  0  0  0  0  0
   59.2868   31.8328   43.6743 H   0  0  0  0  0  0  0  0  0  0  0  0
   59.8806   29.3730   45.8862 H   0  0  0  0  0  0  0  0  0  0  0  0
   59.9944   31.1698   45.7360 H   0  0  0  0  0  0  0  0  0  0  0  0
   57.6700   30.3480   47.1180 H   0  0  0  0  0  0  0  0  0  0  0  0
   58.2077   31.9637   48.6457 H   0  0  0  0  0  0  0  0  0  0  0  0
   59.9491   31.8917   48.1574 H   0  0  0  0  0  0  0  0  0  0  0  0
   56.5179   32.6068   46.7141 H   0  0  0  0  0  0  0  0  0  0  0  0
   56.1765   34.3518   44.9576 H   0  0  0  0  0  0  0  0  0  0  0  0
   60.3535   35.1955   44.8937 H   0  0  0  0  0  0  0  0  0  0  0  0
   60.7675   33.4681   46.6521 H   0  0  0  0  0  0  0  0  0  0  0  0
  1  2  1  0
  2  3  1  0
  3  4  1  0
  4  5  2  0
  5  6  1  0
  6  7  2  0
  7  8  1  0
  7  9  1  0
  9 10  2  0
 10 11  1  0
 11 12  1  0
 12 13  1  0
 13 14  1  0
 14 15  2  0
 15 16  1  0
 16 17  2  0
 17 18  1  0
 18 19  2  0
 10  4  1  0
 19 14  1  0
  1 20  1  0
  1 21  1  0
  1 22  1  0
  2 23  1  0
  2 24  1  0
  5 25  1  0
  6 26  1  0
  9 27  1  0
 11 28  1  0
 11 29  1  0
 12 30  1  0
 13 31  1  0
 13 32  1  0
 15 33  1  0
 16 34  1  0
 18 35  1  0
 19 36  1  0
M  END
>  <UniqueID>  (28) 
27

>  <SMILES>  (28) 
CCOc1ccc(Cl)cc1CNCc1ccncc1

>  <Energy>  (28) 
32.08906586490118

>  <Genealogy>  (28) 
CCOc1ccc(Cl)cc1CNCc1ccncc1 (3D coordinates assigned)
CCOc1ccc(Cl)cc1CNCc1ccncc1 (optimized conformer: 32.08906586490118 kcal/mol)

>  <smiles>  (28) 
CCOc1ccc(Cl)cc1CNCc1ccncc1

>  <score_type>  (28) 
oracle

>  <origin>  (28) 
adg

>  <m_score__min__energy>  (28) 
-6.2400000000000002

>  <m_primary>  (28) 
energy

$$$$
