0:0
     RDKit          3D

 47 49  0  0  0  0  0  0  0  0999 V2000
   63.3770   33.8380   46.3540 C   0  0  0  0  0  0  0  0  0  0  0  0
   63.6860   33.4040   47.7630 C   0  0  0  0  0  0  0  0  0  0  0  0
   63.6170   31.9680   47.9220 N   0  0  0  0  0  0  0  0  0  0  0  0
   62.7900   31.6020   49.0740 C   0  0  0  0  0  0  0  0  0  0  0  0
   61.4050   31.4460   48.5030 C   0  0  0  0  0  0  0  0  0  0  0  0
   61.3160   31.1990   47.1050 N   0  0  0  0  0  0  0  0  0  0  0  0
   60.1120   31.0190   46.4020 C   0  0  0  0  0  0  0  0  0  0  0  0
   59.4420   32.1650   45.9610 C   0  0  0  0  0  0  0  0  0  0  0  0
   60.0130   33.4090   46.2430 C   0  0  0  0  0  0  0  0  0  0  0  0
   59.4270   34.5870   45.8520 C   0  0  0  0  0  0  0  0  0  0  0  0
   58.2380   34.5110   45.1620 C   0  0  0  0  0  0  0  0  0  0  0  0
   57.6720   33.2700   44.8840 C   0  0  0  0  0  0  0  0  0  0  0  0
   58.2460   32.0830   45.2670 C   0  0  0  0  0  0  0  0  0  0  0  0
   57.6690   30.8770   44.9810 N   0  0  0  0  0  0  0  0  0  0  0  0
   56.4470   30.8830   44.2520 C   0  0  0  0  0  0  0  0  0  0  0  0
   58.3190   29.7750   45.4070 C   0  0  0  0  0  0  0  0  0  0  0  0
   57.7850   28.5410   45.1390 C   0  0  0  0  0  0  0  0  0  0  0  0
   58.4260   27.3630   45.5510 C   0  0  0  0  0  0  0  0  0  0  0  0
   57.8280   26.1230   45.2460 O   0  0  0  0  0  0  0  0  0  0  0  0
   56.6570   25.6980   45.9210 C   0  0  0  0  0  0  0  0  0  0  0  0
   56.1680   24.5170   45.3980 F   0  0  0  0  0  0  0  0  0  0  0  0
   57.0180   25.4210   47.2270 F   0  0  0  0  0  0  0  0  0  0  0  0
   55.6710   26.6550   45.9570 F   0  0  0  0  0  0  0  0  0  0  0  0
   59.6180   27.4100   46.2420 C   0  0  0  0  0  0  0  0  0  0  0  0
   60.1360   28.6630   46.5000 C   0  0  0  0  0  0  0  0  0  0  0  0
   59.5140   29.8240   46.1020 C   0  0  0  0  0  0  0  0  0  0  0  0
   62.7392   34.7339   46.3778 H   0  0  0  0  0  0  0  0  0  0  0  0
   64.3147   34.0694   45.8276 H   0  0  0  0  0  0  0  0  0  0  0  0
   62.8515   33.0276   45.8276 H   0  0  0  0  0  0  0  0  0  0  0  0
   64.7007   33.7404   48.0224 H   0  0  0  0  0  0  0  0  0  0  0  0
   62.9323   33.8529   48.4266 H   0  0  0  0  0  0  0  0  0  0  0  0
   64.5210   31.4920   47.8890 H   0  0  0  0  0  0  0  0  0  0  0  0
   63.1370   30.6575   49.5184 H   0  0  0  0  0  0  0  0  0  0  0  0
   62.8316   32.3528   49.8768 H   0  0  0  0  0  0  0  0  0  0  0  0
   60.9231   30.6042   49.0218 H   0  0  0  0  0  0  0  0  0  0  0  0
   60.9168   32.4196   48.6569 H   0  0  0  0  0  0  0  0  0  0  0  0
   62.2050   31.1410   46.5160 H   0  0  0  0  0  0  0  0  0  0  0  0
   60.9630   33.4453   46.7963 H   0  0  0  0  0  0  0  0  0  0  0  0
   59.8909   35.5575   46.0818 H   0  0  0  0  0  0  0  0  0  0  0  0
   57.7351   35.4313   44.8303 H   0  0  0  0  0  0  0  0  0  0  0  0
   56.7210   33.2389   44.3320 H   0  0  0  0  0  0  0  0  0  0  0  0
   55.6008   30.8872   44.9548 H   0  0  0  0  0  0  0  0  0  0  0  0
   56.4022   31.7814   43.6188 H   0  0  0  0  0  0  0  0  0  0  0  0
   56.3934   29.9851   43.6188 H   0  0  0  0  0  0  0  0  0  0  0  0
   56.8344   28.4732   44.5896 H   0  0  0  0  0  0  0  0  0  0  0  0
   60.1308   26.4943   46.5714 H   0  0  0  0  0  0  0  0  0  0  0  0
   61.0872   28.7367   47.0475 H   0  0  0  0  0  0  0  0  0  0  0  0
  1  2  1  0
  2  3  1  0
  3  4  1  0
  4  5  1  0
  5  6  1  0
  6  7  1  0
  7  8  2  0
  8  9  1  0
  9 10  2  0
 10 11  1  0
 11 12  2  0
 12 13  1  0
 13 14  2  0
 14 15  1  0
 14 16  1  0
 16 17  2  0
 17 18  1  0
 18 19  1  0
 19 20  1  0
 20 21  1  0
 20 22  1  0
 20 23  1  0
 18 24  2  0
 24 25  1  0
 25 26  2  0
 26  7  1  0
 13  8  1  0
 26 16  1  0
  1 27  1  0
  1 28  1  0
  1 29  1  0
  2 30  1  0
  2 31  1  0
  3 32  1  0
  4 33  1  0
  4 34  1  0
  5 35  1  0
  5 36  1  0
  6 37  1  0
  9 38  1  0
 10 39  1  0
 11 40  1  0
 12 41  1  0
 15 42  1  0
 15 43  1  0
 15 44  1  0
 17 45  1  0
 24 46  1  0
 25 47  1  0
M  CHG  1  14   1
M  END
>  <smiles>  (1) 
CCNCCNc1c2ccccc2[n+](C)c2cc(OC(F)(F)F)ccc12

>  <score_type>  (1) 
oracle

>  <origin>  (1) 
adg

>  <m_score__min__energy>  (1) 
-5.3200000000000003

>  <m_primary>  (1) 
energy

$$$$
1:0
     RDKit          3D

 43 45  0  0  0  0  0  0  0  0999 V2000
   60.0000   27.8270   48.1100 C   0  0  0  0  0  0  0  0  0  0  0  0
   58.8320   28.6110   47.5580 C   0  0  0  0  0  0  0  0  0  0  0  0
   57.9050   27.8460   46.8960 O   0  0  0  0  0  0  0  0  0  0  0  0
   58.3460   27.3130   45.6860 C   0  0  0  0  0  0  0  0  0  0  0  0
   58.9920   28.3200   44.8040 C   0  0  0  0  0  0  0  0  0  0  0  0
   58.1270   28.7620   43.7590 N   0  0  0  0  0  0  0  0  0  0  0  0
   56.8250   29.0980   44.2340 C   0  0  0  0  0  0  0  0  0  0  0  0
   56.3770   30.4740   43.8240 C   0  0  0  0  0  0  0  0  0  0  0  0
   56.2680   31.3960   44.8700 O   0  0  0  0  0  0  0  0  0  0  0  0
   57.4040   32.1490   45.2350 C   0  0  0  0  0  0  0  0  0  0  0  0
   57.5320   33.4780   44.8990 C   0  0  0  0  0  0  0  0  0  0  0  0
   58.6820   34.1750   45.2890 C   0  0  0  0  0  0  0  0  0  0  0  0
   59.6880   33.5520   46.0010 C   0  0  0  0  0  0  0  0  0  0  0  0
   60.8150   34.1980   46.3900 N   0  0  0  0  0  0  0  0  0  0  0  0
   61.8010   33.5740   47.0890 C   0  0  0  0  0  0  0  0  0  0  0  0
   62.9940   33.9530   47.5900 N   0  0  0  0  0  0  0  0  0  0  0  0
   63.5860   32.8990   48.2150 C   0  0  0  0  0  0  0  0  0  0  0  0
   64.7080   32.9450   48.7810 O   0  0  0  0  0  0  0  0  0  0  0  0
   62.7580   31.8200   48.1140 N   0  0  0  0  0  0  0  0  0  0  0  0
   61.6800   32.2410   47.4300 C   0  0  0  0  0  0  0  0  0  0  0  0
   60.5440   31.5430   47.0530 C   0  0  0  0  0  0  0  0  0  0  0  0
   59.5630   32.2110   46.3430 C   0  0  0  0  0  0  0  0  0  0  0  0
   58.4200   31.5580   45.9450 C   0  0  0  0  0  0  0  0  0  0  0  0
   59.9689   27.8479   49.2094 H   0  0  0  0  0  0  0  0  0  0  0  0
   59.9401   26.7855   47.7612 H   0  0  0  0  0  0  0  0  0  0  0  0
   60.9412   28.2769   47.7612 H   0  0  0  0  0  0  0  0  0  0  0  0
   58.3283   29.1157   48.3956 H   0  0  0  0  0  0  0  0  0  0  0  0
   59.2441   29.3167   46.8217 H   0  0  0  0  0  0  0  0  0  0  0  0
   59.0742   26.5166   45.8994 H   0  0  0  0  0  0  0  0  0  0  0  0
   57.4614   26.9321   45.1545 H   0  0  0  0  0  0  0  0  0  0  0  0
   59.2827   29.1886   45.4132 H   0  0  0  0  0  0  0  0  0  0  0  0
   59.8670   27.8446   44.3367 H   0  0  0  0  0  0  0  0  0  0  0  0
   58.5380   29.3980   43.0640 H   0  0  0  0  0  0  0  0  0  0  0  0
   56.1084   28.3647   43.8356 H   0  0  0  0  0  0  0  0  0  0  0  0
   56.8663   29.0837   45.3331 H   0  0  0  0  0  0  0  0  0  0  0  0
   57.1031   30.8668   43.0971 H   0  0  0  0  0  0  0  0  0  0  0  0
   55.3645   30.3572   43.4102 H   0  0  0  0  0  0  0  0  0  0  0  0
   56.7395   33.9866   44.3304 H   0  0  0  0  0  0  0  0  0  0  0  0
   58.7860   35.2374   45.0236 H   0  0  0  0  0  0  0  0  0  0  0  0
   63.4130   34.8950   47.5240 H   0  0  0  0  0  0  0  0  0  0  0  0
   62.9750   30.8850   48.5090 H   0  0  0  0  0  0  0  0  0  0  0  0
   60.4250   30.4808   47.3127 H   0  0  0  0  0  0  0  0  0  0  0  0
   58.3130   30.4963   46.2120 H   0  0  0  0  0  0  0  0  0  0  0  0
  1  2  1  0
  2  3  1  0
  3  4  1  0
  4  5  1  0
  5  6  1  0
  6  7  1  0
  7  8  1  0
  8  9  1  0
  9 10  1  0
 10 11  2  0
 11 12  1  0
 12 13  2  0
 13 14  1  0
 14 15  2  0
 15 16  1  0
 16 17  1  0
 17 18  2  0
 17 19  1  0
 19 20  1  0
 20 21  2  0
 21 22  1  0
 22 23  2  0
 23 10  1  0
 22 13  1  0
 20 15  1  0
  1 24  1  0
  1 25  1  0
  1 26  1  0
  2 27  1  0
  2 28  1  0
  4 29  1  0
  4 30  1  0
  5 31  1  0
  5 32  1  0
  6 33  1  0
  7 34  1  0
  7 35  1  0
  8 36  1  0
  8 37  1  0
 11 38  1  0
 12 39  1  0
 16 40  1  0
 19 41  1  0
 21 42  1  0
 23 43  1  0
M  END
>  <smiles>  (2) 
CCOCCNCCOc1ccc2nc3[nH]c(=O)[nH]c3cc2c1

>  <score_type>  (2) 
oracle

>  <origin>  (2) 
adg

>  <m_score__min__energy>  (2) 
-7.7000000000000002

>  <m_primary>  (2) 
energy

$$$$
2:0
     RDKit          3D

 58 60  0  0  0  0  0  0  0  0999 V2000
   59.7860   29.3060   44.8270 C   0  0  0  0  0  0  0  0  0  0  0  0
   59.3630   29.8960   46.0710 N   0  0  0  0  0  0  0  0  0  0  0  0
   60.3900   29.6950   47.0640 C   0  0  0  0  0  0  0  0  0  0  0  0
   58.1010   29.2770   46.4300 C   0  0  0  0  0  0  0  0  0  0  0  0
   57.3150   29.0520   45.1520 C   0  0  0  0  0  0  0  0  0  0  0  0
   56.6280   30.2250   44.8760 O   0  0  0  0  0  0  0  0  0  0  0  0
   56.8590   30.6900   43.5890 C   0  0  0  0  0  0  0  0  0  0  0  0
   57.6270   31.9780   43.5250 C   0  0  0  0  0  0  0  0  0  0  0  0
   58.2650   32.3180   44.7760 N   0  0  0  0  0  0  0  0  0  0  0  0
   57.7810   33.5510   45.3370 C   0  0  0  0  0  0  0  0  0  0  0  0
   58.2480   33.6640   46.7610 C   0  0  0  0  0  0  0  0  0  0  0  0
   59.0380   32.5570   47.2220 N   0  0  0  0  0  0  0  0  0  0  0  0
   59.9070   32.8050   48.3360 C   0  0  0  0  0  0  0  0  0  0  0  0
   61.2110   33.1640   48.0700 C   0  0  0  0  0  0  0  0  0  0  0  0
   61.6060   33.2670   46.7530 C   0  0  0  0  0  0  0  0  0  0  0  0
   62.9010   33.6280   46.4440 C   0  0  0  0  0  0  0  0  0  0  0  0
   63.7490   33.8740   47.5120 C   0  0  0  0  0  0  0  0  0  0  0  0
   63.3480   33.7700   48.8290 C   0  0  0  0  0  0  0  0  0  0  0  0
   62.0530   33.4080   49.1340 C   0  0  0  0  0  0  0  0  0  0  0  0
   61.6860   33.3170   50.4190 N   0  0  0  0  0  0  0  0  0  0  0  0
   62.5300   33.5530   51.5450 C   0  0  0  0  0  0  0  0  0  0  0  0
   60.3980   32.9620   50.6640 C   0  0  0  0  0  0  0  0  0  0  0  0
   59.9020   32.8400   51.9530 C   0  0  0  0  0  0  0  0  0  0  0  0
   58.5720   32.4760   52.1830 C   0  0  0  0  0  0  0  0  0  0  0  0
   57.7160   32.2280   51.1600 C   0  0  0  0  0  0  0  0  0  0  0  0
   58.1870   32.3430   49.8700 C   0  0  0  0  0  0  0  0  0  0  0  0
   59.4980   32.7020   49.6450 C   0  0  0  0  0  0  0  0  0  0  0  0
   60.4156   28.4278   45.0330 H   0  0  0  0  0  0  0  0  0  0  0  0
   58.9028   28.9965   44.2490 H   0  0  0  0  0  0  0  0  0  0  0  0
   60.3627   30.0431   44.2490 H   0  0  0  0  0  0  0  0  0  0  0  0
   59.9505   29.7810   48.0687 H   0  0  0  0  0  0  0  0  0  0  0  0
   60.8288   28.6939   46.9402 H   0  0  0  0  0  0  0  0  0  0  0  0
   61.1738   30.4568   46.9402 H   0  0  0  0  0  0  0  0  0  0  0  0
   58.2851   28.3149   46.9305 H   0  0  0  0  0  0  0  0  0  0  0  0
   57.5378   29.9239   47.1187 H   0  0  0  0  0  0  0  0  0  0  0  0
   58.0010   28.8146   44.3255 H   0  0  0  0  0  0  0  0  0  0  0  0
   56.6161   28.2107   45.2687 H   0  0  0  0  0  0  0  0  0  0  0  0
   57.4272   29.9228   43.0426 H   0  0  0  0  0  0  0  0  0  0  0  0
   55.8726   30.8896   43.1449 H   0  0  0  0  0  0  0  0  0  0  0  0
   58.4021   31.8857   42.7500 H   0  0  0  0  0  0  0  0  0  0  0  0
   56.9085   32.7782   43.2941 H   0  0  0  0  0  0  0  0  0  0  0  0
   58.0430   31.5180   45.4210 H   0  0  0  0  0  0  0  0  0  0  0  0
   58.1707   34.3984   44.7538 H   0  0  0  0  0  0  0  0  0  0  0  0
   56.6815   33.5638   45.3070 H   0  0  0  0  0  0  0  0  0  0  0  0
   58.8529   34.5783   46.8519 H   0  0  0  0  0  0  0  0  0  0  0  0
   57.3423   33.6812   47.3850 H   0  0  0  0  0  0  0  0  0  0  0  0
   58.9980   31.5920   46.7780 H   0  0  0  0  0  0  0  0  0  0  0  0
   60.8867   33.0608   45.9467 H   0  0  0  0  0  0  0  0  0  0  0  0
   63.2433   33.7161   45.4023 H   0  0  0  0  0  0  0  0  0  0  0  0
   64.7885   34.1653   47.3010 H   0  0  0  0  0  0  0  0  0  0  0  0
   64.0642   33.9767   49.6379 H   0  0  0  0  0  0  0  0  0  0  0  0
   61.9587   33.3933   52.4713 H   0  0  0  0  0  0  0  0  0  0  0  0
   63.3828   32.8589   51.5159 H   0  0  0  0  0  0  0  0  0  0  0  0
   62.8991   34.5888   51.5159 H   0  0  0  0  0  0  0  0  0  0  0  0
   60.5659   33.0328   52.8086 H   0  0  0  0  0  0  0  0  0  0  0  0
   58.2108   32.3886   53.2183 H   0  0  0  0  0  0  0  0  0  0  0  0
   56.6719   31.9422   51.3554 H   0  0  0  0  0  0  0  0  0  0  0  0
   57.5164   32.1482   49.0201 H   0  0  0  0  0  0  0  0  0  0  0  0
  1  2  1  0
  2  3  1  0
  2  4  1  0
  4  5  1  0
  5  6  1  0
  6  7  1  0
  7  8  1  0
  8  9  1  0
  9 10  1  0
 10 11  1  0
 11 12  1  0
 12 13  1  0
 13 14  2  0
 14 15  1  0
 15 16  2  0
 16 17  1  0
 17 18  2  0
 18 19  1  0
 19 20  2  0
 20 21  1  0
 20 22  1  0
 22 23  2  0
 23 24  1  0
 24 25  2  0
 25 26  1  0
 26 27  2  0
 27 13  1  0
 19 14  1  0
 27 22  1  0
  1 28  1  0
  1 29  1  0
  1 30  1  0
  3 31  1  0
  3 32  1  0
  3 33  1  0
  4 34  1  0
  4 35  1  0
  5 36  1  0
  5 37  1  0
  7 38  1  0
  7 39  1  0
  8 40  1  0
  8 41  1  0
  9 42  1  0
 10 43  1  0
 10 44  1  0
 11 45  1  0
 11 46  1  0
 12 47  1  0
 15 48  1  0
 16 49  1  0
 17 50  1  0
 18 51  1  0
 21 52  1  0
 21 53  1  0
 21 54  1  0
 23 55  1  0
 24 56  1  0
 25 57  1  0
 26 58  1  0
M  CHG  1  20   1
M  END
>  <smiles>  (3) 
CN(C)CCOCCNCCNc1c2ccccc2[n+](C)c2ccccc12

>  <score_type>  (3) 
oracle

>  <origin>  (3) 
adg

>  <m_score__min__energy>  (3) 
-5.4900000000000002

>  <m_primary>  (3) 
energy

$$$$
4:0
     RDKit          3D

 54 57  0  0  0  0  0  0  0  0999 V2000
   56.6560   29.9010   42.9070 C   0  0  0  0  0  0  0  0  0  0  0  0
   55.5730   30.0890   43.9590 C   0  0  0  0  0  0  0  0  0  0  0  0
   55.9060   29.2710   45.0770 N   0  0  0  0  0  0  0  0  0  0  0  0
   57.1100   28.5030   44.9620 C   0  0  0  0  0  0  0  0  0  0  0  0
   58.2600   29.0510   45.7370 C   0  0  0  0  0  0  0  0  0  0  0  0
   57.8460   30.2290   46.4750 N   0  0  0  0  0  0  0  0  0  0  0  0
   58.8380   31.2000   46.8090 C   0  0  0  0  0  0  0  0  0  0  0  0
   59.7850   30.9180   47.8020 C   0  0  0  0  0  0  0  0  0  0  0  0
   60.7540   31.8190   48.1660 C   0  0  0  0  0  0  0  0  0  0  0  0
   61.6750   31.4960   49.1660 C   0  0  0  0  0  0  0  0  0  0  0  0
   61.6550   30.2810   49.8140 C   0  0  0  0  0  0  0  0  0  0  0  0
   62.5640   29.9450   50.8120 C   0  0  0  0  0  0  0  0  0  0  0  0
   62.5370   28.6830   51.4690 N   0  0  0  0  0  0  0  0  0  0  0  0
   61.4830   27.7240   51.3630 C   0  0  0  0  0  0  0  0  0  0  0  0
   63.6750   28.3330   52.3320 C   0  0  0  0  0  0  0  0  0  0  0  0
   63.5140   30.8870   51.1450 C   0  0  0  0  0  0  0  0  0  0  0  0
   63.5750   32.1180   50.5250 C   0  0  0  0  0  0  0  0  0  0  0  0
   62.6560   32.3860   49.5550 C   0  0  0  0  0  0  0  0  0  0  0  0
   62.7010   33.6090   48.9280 C   0  0  0  0  0  0  0  0  0  0  0  0
   61.7670   33.9160   47.9260 C   0  0  0  0  0  0  0  0  0  0  0  0
   60.8160   33.0350   47.5570 N   0  0  0  0  0  0  0  0  0  0  0  0
   59.9200   33.3390   46.5980 C   0  0  0  0  0  0  0  0  0  0  0  0
   59.9520   34.5560   45.9590 C   0  0  0  0  0  0  0  0  0  0  0  0
   59.0320   34.8960   44.9570 C   0  0  0  0  0  0  0  0  0  0  0  0
   58.0580   34.0110   44.5770 C   0  0  0  0  0  0  0  0  0  0  0  0
   58.0160   32.7790   45.2160 C   0  0  0  0  0  0  0  0  0  0  0  0
   58.9250   32.4360   46.2100 C   0  0  0  0  0  0  0  0  0  0  0  0
   57.6235   29.7330   43.4027 H   0  0  0  0  0  0  0  0  0  0  0  0
   56.4101   29.0321   42.2789 H   0  0  0  0  0  0  0  0  0  0  0  0
   56.7174   30.8019   42.2789 H   0  0  0  0  0  0  0  0  0  0  0  0
   55.5294   31.1441   44.2670 H   0  0  0  0  0  0  0  0  0  0  0  0
   54.5903   29.8053   43.5542 H   0  0  0  0  0  0  0  0  0  0  0  0
   55.7290   29.7070   45.9950 H   0  0  0  0  0  0  0  0  0  0  0  0
   56.9052   27.4841   45.3224 H   0  0  0  0  0  0  0  0  0  0  0  0
   57.4018   28.5290   43.9017 H   0  0  0  0  0  0  0  0  0  0  0  0
   58.6205   28.2877   46.4422 H   0  0  0  0  0  0  0  0  0  0  0  0
   59.0656   29.3265   45.0405 H   0  0  0  0  0  0  0  0  0  0  0  0
   56.8450   30.3020   46.7200 H   0  0  0  0  0  0  0  0  0  0  0  0
   59.7507   29.9414   48.3070 H   0  0  0  0  0  0  0  0  0  0  0  0
   60.8880   29.5453   49.5305 H   0  0  0  0  0  0  0  0  0  0  0  0
   61.1556   27.4261   52.3700 H   0  0  0  0  0  0  0  0  0  0  0  0
   60.6366   28.1681   50.8187 H   0  0  0  0  0  0  0  0  0  0  0  0
   61.8454   26.8395   50.8187 H   0  0  0  0  0  0  0  0  0  0  0  0
   63.3770   28.4247   53.3869 H   0  0  0  0  0  0  0  0  0  0  0  0
   63.9856   27.2978   52.1273 H   0  0  0  0  0  0  0  0  0  0  0  0
   64.5137   29.0147   52.1273 H   0  0  0  0  0  0  0  0  0  0  0  0
   64.2468   30.6495   51.9302 H   0  0  0  0  0  0  0  0  0  0  0  0
   64.3395   32.8580   50.8041 H   0  0  0  0  0  0  0  0  0  0  0  0
   63.4675   34.3454   49.2111 H   0  0  0  0  0  0  0  0  0  0  0  0
   61.8122   34.8973   47.4310 H   0  0  0  0  0  0  0  0  0  0  0  0
   60.7241   35.2863   46.2429 H   0  0  0  0  0  0  0  0  0  0  0  0
   59.0929   35.8815   44.4721 H   0  0  0  0  0  0  0  0  0  0  0  0
   57.3326   34.2680   43.7910 H   0  0  0  0  0  0  0  0  0  0  0  0
   57.2411   32.0536   44.9273 H   0  0  0  0  0  0  0  0  0  0  0  0
  1  2  1  0
  2  3  1  0
  3  4  1  0
  4  5  1  0
  5  6  1  0
  6  7  1  0
  7  8  2  0
  8  9  1  0
  9 10  2  0
 10 11  1  0
 11 12  2  0
 12 13  1  0
 13 14  1  0
 13 15  1  0
 12 16  1  0
 16 17  2  0
 17 18  1  0
 18 19  2  0
 19 20  1  0
 20 21  2  0
 21 22  1  0
 22 23  2  0
 23 24  1  0
 24 25  2  0
 25 26  1  0
 26 27  2  0
 27  7  1  0
 21  9  1  0
 27 22  1  0
 18 10  1  0
  1 28  1  0
  1 29  1  0
  1 30  1  0
  2 31  1  0
  2 32  1  0
  3 33  1  0
  4 34  1  0
  4 35  1  0
  5 36  1  0
  5 37  1  0
  6 38  1  0
  8 39  1  0
 11 40  1  0
 14 41  1  0
 14 42  1  0
 14 43  1  0
 15 44  1  0
 15 45  1  0
 15 46  1  0
 16 47  1  0
 17 48  1  0
 19 49  1  0
 20 50  1  0
 23 51  1  0
 24 52  1  0
 25 53  1  0
 26 54  1  0
M  CHG  1  21   1
M  END
>  <smiles>  (4) 
CCNCCNc1cc2c3cc(N(C)C)ccc3cc[n+]2c2ccccc12

>  <score_type>  (4) 
oracle

>  <origin>  (4) 
adg

>  <m_score__min__energy>  (4) 
-6.3300000000000001

>  <m_primary>  (4) 
energy

$$$$
5:0
     RDKit          3D

 33 34  0  0  0  0  0  0  0  0999 V2000
   55.5220   29.1030   44.8760 O   0  0  0  0  0  0  0  0  0  0  0  0
   56.6190   29.5950   44.7830 C   0  0  0  0  0  0  0  0  0  0  0  0
   57.7820   29.1540   45.6340 C   0  0  0  0  0  0  0  0  0  0  0  0
   58.1550   30.3310   46.4960 C   0  0  0  0  0  0  0  0  0  0  0  0
   58.1980   31.6020   45.7330 C   0  0  0  0  0  0  0  0  0  0  0  0
   57.6560   31.7670   44.5400 C   0  0  0  0  0  0  0  0  0  0  0  0
   57.7870   33.1090   43.9040 C   0  0  0  0  0  0  0  0  0  0  0  0
   57.5240   34.1830   44.9240 C   0  0  0  0  0  0  0  0  0  0  0  0
   58.3910   34.0810   46.1420 C   0  0  0  0  0  0  0  0  0  0  0  0
   58.8660   32.7030   46.3390 N   0  0  0  0  0  0  0  0  0  0  0  0
   60.0280   32.5360   47.1720 C   0  0  0  0  0  0  0  0  0  0  0  0
   60.7810   33.8320   47.3770 C   0  0  0  0  0  0  0  0  0  0  0  0
   62.0380   33.8000   46.5130 C   0  0  0  0  0  0  0  0  0  0  0  0
   63.5430   33.1200   47.4970 Br  0  0  0  0  0  0  0  0  0  0  0  0
   56.9300   30.6980   43.8080 C   0  0  0  0  0  0  0  0  0  0  0  0
   57.4898   28.3003   46.2631 H   0  0  0  0  0  0  0  0  0  0  0  0
   58.6303   28.8337   45.0113 H   0  0  0  0  0  0  0  0  0  0  0  0
   57.4122   30.4279   47.3015 H   0  0  0  0  0  0  0  0  0  0  0  0
   59.1630   30.1466   46.8959 H   0  0  0  0  0  0  0  0  0  0  0  0
   58.8051   33.2261   43.5043 H   0  0  0  0  0  0  0  0  0  0  0  0
   57.0561   33.1970   43.0866 H   0  0  0  0  0  0  0  0  0  0  0  0
   57.7010   35.1609   44.4524 H   0  0  0  0  0  0  0  0  0  0  0  0
   56.4832   34.0612   45.2586 H   0  0  0  0  0  0  0  0  0  0  0  0
   59.2586   34.7466   46.0224 H   0  0  0  0  0  0  0  0  0  0  0  0
   57.7968   34.3750   47.0198 H   0  0  0  0  0  0  0  0  0  0  0  0
   59.7078   32.1544   48.1528 H   0  0  0  0  0  0  0  0  0  0  0  0
   60.7046   31.8310   46.6668 H   0  0  0  0  0  0  0  0  0  0  0  0
   60.1475   34.6808   47.0800 H   0  0  0  0  0  0  0  0  0  0  0  0
   61.0533   33.9476   48.4365 H   0  0  0  0  0  0  0  0  0  0  0  0
   61.8577   33.1535   45.6415 H   0  0  0  0  0  0  0  0  0  0  0  0
   62.2668   34.8275   46.1938 H   0  0  0  0  0  0  0  0  0  0  0  0
   55.9958   31.1006   43.3895 H   0  0  0  0  0  0  0  0  0  0  0  0
   57.5464   30.3147   42.9815 H   0  0  0  0  0  0  0  0  0  0  0  0
  1  2  2  0
  2  3  1  0
  3  4  1  0
  4  5  1  0
  5  6  2  0
  6  7  1  0
  7  8  1  0
  8  9  1  0
  9 10  1  0
 10 11  1  0
 11 12  1  0
 12 13  1  0
 13 14  1  0
  6 15  1  0
 15  2  1  0
 10  5  1  0
  3 16  1  0
  3 17  1  0
  4 18  1  0
  4 19  1  0
  7 20  1  0
  7 21  1  0
  8 22  1  0
  8 23  1  0
  9 24  1  0
  9 25  1  0
 11 26  1  0
 11 27  1  0
 12 28  1  0
 12 29  1  0
 13 30  1  0
 13 31  1  0
 15 32  1  0
 15 33  1  0
M  END
>  <smiles>  (5) 
O=C1CCC2=C(CCCN2CCCBr)C1

>  <score_type>  (5) 
oracle

>  <origin>  (5) 
adg

>  <m_score__min__energy>  (5) 
-7.1399999999999997

>  <m_primary>  (5) 
energy

$$$$
6:0
     RDKit          3D

 43 45  0  0  0  0  0  0  0  0999 V2000
   56.3360   29.8160   42.7410 C   0  0  0  0  0  0  0  0  0  0  0  0
   55.8080   30.3760   44.0480 C   0  0  0  0  0  0  0  0  0  0  0  0
   56.0680   29.3970   45.0610 N   0  0  0  0  0  0  0  0  0  0  0  0
   57.3550   28.7240   44.9150 C   0  0  0  0  0  0  0  0  0  0  0  0
   58.4680   29.5630   45.4830 C   0  0  0  0  0  0  0  0  0  0  0  0
   58.0230   30.6660   46.2940 N   0  0  0  0  0  0  0  0  0  0  0  0
   58.9750   31.5880   46.7640 C   0  0  0  0  0  0  0  0  0  0  0  0
   59.0840   32.9050   46.2580 C   0  0  0  0  0  0  0  0  0  0  0  0
   58.2960   33.4740   45.3200 C   0  0  0  0  0  0  0  0  0  0  0  0
   58.5230   34.7480   44.9510 C   0  0  0  0  0  0  0  0  0  0  0  0
   59.9970   35.2530   46.0100 S   0  0  0  0  0  0  0  0  0  0  0  0
   60.0730   33.6520   46.7900 C   0  0  0  0  0  0  0  0  0  0  0  0
   60.9620   33.2490   47.7590 N   0  0  0  0  0  0  0  0  0  0  0  0
   61.9690   34.1570   48.2220 C   0  0  0  0  0  0  0  0  0  0  0  0
   60.8610   31.9820   48.2510 C   0  0  0  0  0  0  0  0  0  0  0  0
   61.7300   31.5210   49.2360 C   0  0  0  0  0  0  0  0  0  0  0  0
   62.8010   32.3340   49.8140 C   0  0  0  0  0  0  0  0  0  0  0  0
   61.5290   30.2120   49.6640 C   0  0  0  0  0  0  0  0  0  0  0  0
   60.5480   29.3900   49.1740 C   0  0  0  0  0  0  0  0  0  0  0  0
   59.7140   29.8860   48.2040 C   0  0  0  0  0  0  0  0  0  0  0  0
   59.8650   31.1840   47.7360 C   0  0  0  0  0  0  0  0  0  0  0  0
   57.0767   29.0304   42.9513 H   0  0  0  0  0  0  0  0  0  0  0  0
   55.5036   29.3896   42.1619 H   0  0  0  0  0  0  0  0  0  0  0  0
   56.8106   30.6219   42.1619 H   0  0  0  0  0  0  0  0  0  0  0  0
   56.3236   31.3168   44.2912 H   0  0  0  0  0  0  0  0  0  0  0  0
   54.7312   30.5889   43.9763 H   0  0  0  0  0  0  0  0  0  0  0  0
   55.8830   29.7020   46.0290 H   0  0  0  0  0  0  0  0  0  0  0  0
   57.3210   27.7624   45.4481 H   0  0  0  0  0  0  0  0  0  0  0  0
   57.5478   28.5633   43.8440 H   0  0  0  0  0  0  0  0  0  0  0  0
   59.1062   28.9154   46.1022 H   0  0  0  0  0  0  0  0  0  0  0  0
   59.0039   29.9976   44.6263 H   0  0  0  0  0  0  0  0  0  0  0  0
   57.0170   30.8130   46.5460 H   0  0  0  0  0  0  0  0  0  0  0  0
   57.4762   32.9012   44.8620 H   0  0  0  0  0  0  0  0  0  0  0  0
   57.9784   35.3502   44.2089 H   0  0  0  0  0  0  0  0  0  0  0  0
   61.9778   34.1649   49.3219 H   0  0  0  0  0  0  0  0  0  0  0  0
   62.9526   33.8346   47.8498 H   0  0  0  0  0  0  0  0  0  0  0  0
   61.7497   35.1686   47.8498 H   0  0  0  0  0  0  0  0  0  0  0  0
   62.7431   32.2900   50.9116 H   0  0  0  0  0  0  0  0  0  0  0  0
   63.7755   31.9461   49.4824 H   0  0  0  0  0  0  0  0  0  0  0  0
   62.6894   33.3769   49.4824 H   0  0  0  0  0  0  0  0  0  0  0  0
   62.1972   29.8136   50.4417 H   0  0  0  0  0  0  0  0  0  0  0  0
   60.4325   28.3619   49.5477 H   0  0  0  0  0  0  0  0  0  0  0  0
   58.9174   29.2484   47.7929 H   0  0  0  0  0  0  0  0  0  0  0  0
  1  2  1  0
  2  3  1  0
  3  4  1  0
  4  5  1  0
  5  6  1  0
  6  7  1  0
  7  8  2  0
  8  9  1  0
  9 10  2  0
 10 11  1  0
 11 12  1  0
 12 13  2  0
 13 14  1  0
 13 15  1  0
 15 16  2  0
 16 17  1  0
 16 18  1  0
 18 19  2  0
 19 20  1  0
 20 21  2  0
 21  7  1  0
 12  8  1  0
 21 15  1  0
  1 22  1  0
  1 23  1  0
  1 24  1  0
  2 25  1  0
  2 26  1  0
  3 27  1  0
  4 28  1  0
  4 29  1  0
  5 30  1  0
  5 31  1  0
  6 32  1  0
  9 33  1  0
 10 34  1  0
 14 35  1  0
 14 36  1  0
 14 37  1  0
 17 38  1  0
 17 39  1  0
 17 40  1  0
 18 41  1  0
 19 42  1  0
 20 43  1  0
M  CHG  1  13   1
M  END
>  <smiles>  (6) 
CCNCCNc1c2ccsc2[n+](C)c2c(C)cccc12

>  <score_type>  (6) 
oracle

>  <origin>  (6) 
adg

>  <m_score__min__energy>  (6) 
-5.6200000000000001

>  <m_primary>  (6) 
energy

$$$$
7:0
     RDKit          3D

 63 66  0  0  0  0  0  0  0  0999 V2000
   58.0360   32.5000   43.7950 C   0  0  0  0  0  0  0  0  0  0  0  0
   58.0200   31.1700   44.5420 C   0  0  0  0  0  0  0  0  0  0  0  0
   57.8150   31.3630   45.9540 N   0  0  0  0  0  0  0  0  0  0  0  0
   57.5800   32.7740   46.2020 C   0  0  0  0  0  0  0  0  0  0  0  0
   57.7320   33.1060   47.6750 C   0  0  0  0  0  0  0  0  0  0  0  0
   58.4860   32.0300   48.3060 N   0  0  0  0  0  0  0  0  0  0  0  0
   59.4870   32.3880   49.2210 C   0  0  0  0  0  0  0  0  0  0  0  0
   60.6690   32.9190   48.6910 C   0  0  0  0  0  0  0  0  0  0  0  0
   60.8500   33.0860   47.3520 C   0  0  0  0  0  0  0  0  0  0  0  0
   62.0150   33.6120   46.8010 C   0  0  0  0  0  0  0  0  0  0  0  0
   63.0340   33.9810   47.6710 C   0  0  0  0  0  0  0  0  0  0  0  0
   62.8820   33.8250   49.0440 C   0  0  0  0  0  0  0  0  0  0  0  0
   61.7030   33.2950   49.5490 C   0  0  0  0  0  0  0  0  0  0  0  0
   61.5480   33.1410   50.8780 N   0  0  0  0  0  0  0  0  0  0  0  0
   62.6440   33.5440   51.7220 C   0  0  0  0  0  0  0  0  0  0  0  0
   60.4250   32.6330   51.4230 C   0  0  0  0  0  0  0  0  0  0  0  0
   60.0540   32.3930   52.6800 N   0  0  0  0  0  0  0  0  0  0  0  0
   58.8040   31.8710   52.6620 C   0  0  0  0  0  0  0  0  0  0  0  0
   57.9730   31.4550   53.6780 C   0  0  0  0  0  0  0  0  0  0  0  0
   56.7220   30.9520   53.3680 C   0  0  0  0  0  0  0  0  0  0  0  0
   56.2360   30.8350   52.0960 C   0  0  0  0  0  0  0  0  0  0  0  0
   55.0370   30.3610   51.7070 O   0  0  0  0  0  0  0  0  0  0  0  0
   53.9290   30.9180   51.1250 C   0  0  0  0  0  0  0  0  0  0  0  0
   53.0510   31.7770   51.9710 C   0  0  0  0  0  0  0  0  0  0  0  0
   51.6780   31.5410   51.4930 N   0  0  0  0  0  0  0  0  0  0  0  0
   51.0100   30.7720   52.5160 C   0  0  0  0  0  0  0  0  0  0  0  0
   51.7660   30.7700   50.2710 C   0  0  0  0  0  0  0  0  0  0  0  0
   51.0570   32.7160   51.2340 O   0  0  0  0  0  0  0  0  0  0  0  0
   57.1110   31.2690   51.0780 C   0  0  0  0  0  0  0  0  0  0  0  0
   58.3530   31.7680   51.3730 C   0  0  0  0  0  0  0  0  0  0  0  0
   59.3940   32.2570   50.5880 C   0  0  0  0  0  0  0  0  0  0  0  0
   58.0460   33.3275   44.5197 H   0  0  0  0  0  0  0  0  0  0  0  0
   58.9349   32.5550   43.1633 H   0  0  0  0  0  0  0  0  0  0  0  0
   57.1387   32.5766   43.1633 H   0  0  0  0  0  0  0  0  0  0  0  0
   57.2062   30.5459   44.1442 H   0  0  0  0  0  0  0  0  0  0  0  0
   58.9941   30.6800   44.3974 H   0  0  0  0  0  0  0  0  0  0  0  0
   57.0300   30.8070   46.3070 H   0  0  0  0  0  0  0  0  0  0  0  0
   58.3057   33.3654   45.6243 H   0  0  0  0  0  0  0  0  0  0  0  0
   56.5513   33.0145   45.8955 H   0  0  0  0  0  0  0  0  0  0  0  0
   58.2729   34.0570   47.7890 H   0  0  0  0  0  0  0  0  0  0  0  0
   56.7435   33.2065   48.1471 H   0  0  0  0  0  0  0  0  0  0  0  0
   58.2870   31.0230   48.0830 H   0  0  0  0  0  0  0  0  0  0  0  0
   60.0365   32.7911   46.6729 H   0  0  0  0  0  0  0  0  0  0  0  0
   62.1254   33.7316   45.7131 H   0  0  0  0  0  0  0  0  0  0  0  0
   63.9686   34.4000   47.2698 H   0  0  0  0  0  0  0  0  0  0  0  0
   63.6923   34.1202   49.7268 H   0  0  0  0  0  0  0  0  0  0  0  0
   62.3527   33.4369   52.7773 H   0  0  0  0  0  0  0  0  0  0  0  0
   63.5180   32.9084   51.5165 H   0  0  0  0  0  0  0  0  0  0  0  0
   62.8981   34.5943   51.5165 H   0  0  0  0  0  0  0  0  0  0  0  0
   60.6200   32.5730   53.5420 H   0  0  0  0  0  0  0  0  0  0  0  0
   58.3006   31.5219   54.7260 H   0  0  0  0  0  0  0  0  0  0  0  0
   56.0778   30.6256   54.1977 H   0  0  0  0  0  0  0  0  0  0  0  0
   54.2768   31.5346   50.2831 H   0  0  0  0  0  0  0  0  0  0  0  0
   53.2972   30.0581   50.8579 H   0  0  0  0  0  0  0  0  0  0  0  0
   53.1422   31.4927   53.0297 H   0  0  0  0  0  0  0  0  0  0  0  0
   53.3291   32.8386   51.8956 H   0  0  0  0  0  0  0  0  0  0  0  0
   51.3223   31.1315   53.5076 H   0  0  0  0  0  0  0  0  0  0  0  0
   49.9213   30.8883   52.4099 H   0  0  0  0  0  0  0  0  0  0  0  0
   51.2774   29.7103   52.4099 H   0  0  0  0  0  0  0  0  0  0  0  0
   51.8876   29.7049   50.5174 H   0  0  0  0  0  0  0  0  0  0  0  0
   50.8463   30.9078   49.6835 H   0  0  0  0  0  0  0  0  0  0  0  0
   52.6310   31.1115   49.6835 H   0  0  0  0  0  0  0  0  0  0  0  0
   56.7904   31.2057   50.0277 H   0  0  0  0  0  0  0  0  0  0  0  0
  1  2  1  0
  2  3  1  0
  3  4  1  0
  4  5  1  0
  5  6  1  0
  6  7  1  0
  7  8  2  0
  8  9  1  0
  9 10  2  0
 10 11  1  0
 11 12  2  0
 12 13  1  0
 13 14  2  0
 14 15  1  0
 14 16  1  0
 16 17  1  0
 17 18  1  0
 18 19  2  0
 19 20  1  0
 20 21  2  0
 21 22  1  0
 22 23  1  0
 23 24  1  0
 24 25  1  0
 25 26  1  0
 25 27  1  0
 25 28  1  0
 21 29  1  0
 29 30  2  0
 30 31  1  0
 31  7  1  0
 13  8  1  0
 31 16  2  0
 30 18  1  0
  1 32  1  0
  1 33  1  0
  1 34  1  0
  2 35  1  0
  2 36  1  0
  3 37  1  0
  4 38  1  0
  4 39  1  0
  5 40  1  0
  5 41  1  0
  6 42  1  0
  9 43  1  0
 10 44  1  0
 11 45  1  0
 12 46  1  0
 15 47  1  0
 15 48  1  0
 15 49  1  0
 17 50  1  0
 19 51  1  0
 20 52  1  0
 23 53  1  0
 23 54  1  0
 24 55  1  0
 24 56  1  0
 26 57  1  0
 26 58  1  0
 26 59  1  0
 27 60  1  0
 27 61  1  0
 27 62  1  0
 29 63  1  0
M  CHG  3  14   1  25   1  28  -1
M  END
>  <smiles>  (7) 
CCNCCNc1c2ccccc2[n+](C)c2[nH]c3ccc(OCC[N+](C)(C)[O-])cc3c12

>  <score_type>  (7) 
oracle

>  <origin>  (7) 
adg

>  <m_score__min__energy>  (7) 
-7.7999999999999998

>  <m_primary>  (7) 
energy

$$$$
8:0
     RDKit          3D

 36 38  0  0  0  0  0  0  0  0999 V2000
   54.1760   23.8240   45.9970 C   0  0  0  0  0  0  0  0  0  0  0  0
   55.2510   24.7700   45.5730 C   0  0  0  0  0  0  0  0  0  0  0  0
   55.1320   25.9580   45.9560 O   0  0  0  0  0  0  0  0  0  0  0  0
   56.3450   24.3270   44.7750 N   0  0  0  0  0  0  0  0  0  0  0  0
   57.4120   25.2070   44.3370 C   0  0  0  0  0  0  0  0  0  0  0  0
   58.2000   25.7400   45.5410 C   0  0  0  0  0  0  0  0  0  0  0  0
   58.2650   27.2380   45.4780 C   0  0  0  0  0  0  0  0  0  0  0  0
   58.5140   28.1620   46.0660 N   0  0  0  0  0  0  0  0  0  0  0  0
   58.4980   29.4600   45.7980 C   0  0  0  0  0  0  0  0  0  0  0  0
   58.8170   30.5900   46.5610 C   0  0  0  0  0  0  0  0  0  0  0  0
   58.6960   31.8300   45.9890 C   0  0  0  0  0  0  0  0  0  0  0  0
   59.0250   32.9340   46.7870 C   0  0  0  0  0  0  0  0  0  0  0  0
   58.9080   34.1870   46.2250 C   0  0  0  0  0  0  0  0  0  0  0  0
   59.2730   35.3400   47.1220 C   0  0  0  0  0  0  0  0  0  0  0  0
   58.4890   34.4050   44.9310 C   0  0  0  0  0  0  0  0  0  0  0  0
   58.1640   33.3200   44.1430 C   0  0  0  0  0  0  0  0  0  0  0  0
   58.2780   32.0650   44.6990 C   0  0  0  0  0  0  0  0  0  0  0  0
   57.9580   30.9610   43.9260 C   0  0  0  0  0  0  0  0  0  0  0  0
   58.0820   29.7360   44.5060 C   0  0  0  0  0  0  0  0  0  0  0  0
   57.7500   28.0430   43.7990 S   0  0  0  0  0  0  0  0  0  0  0  0
   54.1331   23.7863   47.0955 H   0  0  0  0  0  0  0  0  0  0  0  0
   53.2082   24.1687   45.6039 H   0  0  0  0  0  0  0  0  0  0  0  0
   54.3949   22.8202   45.6039 H   0  0  0  0  0  0  0  0  0  0  0  0
   56.3200   23.2960   44.5220 H   0  0  0  0  0  0  0  0  0  0  0  0
   58.0930   24.6492   43.6773 H   0  0  0  0  0  0  0  0  0  0  0  0
   56.9712   26.0577   43.7966 H   0  0  0  0  0  0  0  0  0  0  0  0
   57.6984   25.4343   46.4710 H   0  0  0  0  0  0  0  0  0  0  0  0
   59.2202   25.3293   45.5202 H   0  0  0  0  0  0  0  0  0  0  0  0
   59.1587   30.4846   47.6012 H   0  0  0  0  0  0  0  0  0  0  0  0
   59.3646   32.8051   47.8253 H   0  0  0  0  0  0  0  0  0  0  0  0
   59.1754   35.0318   48.1734 H   0  0  0  0  0  0  0  0  0  0  0  0
   60.3114   35.6442   46.9239 H   0  0  0  0  0  0  0  0  0  0  0  0
   58.5988   36.1863   46.9239 H   0  0  0  0  0  0  0  0  0  0  0  0
   58.4147   35.4275   44.5324 H   0  0  0  0  0  0  0  0  0  0  0  0
   57.8250   33.4529   43.1050 H   0  0  0  0  0  0  0  0  0  0  0  0
   57.6175   31.0699   42.8857 H   0  0  0  0  0  0  0  0  0  0  0  0
  1  2  1  0
  2  3  2  0
  2  4  1  0
  4  5  1  0
  5  6  1  0
  6  7  1  0
  7  8  2  0
  8  9  1  0
  9 10  2  0
 10 11  1  0
 11 12  2  0
 12 13  1  0
 13 14  1  0
 13 15  2  0
 15 16  1  0
 16 17  2  0
 17 18  1  0
 18 19  2  0
 19 20  1  0
 20  7  1  0
 19  9  1  0
 17 11  1  0
  1 21  1  0
  1 22  1  0
  1 23  1  0
  4 24  1  0
  5 25  1  0
  5 26  1  0
  6 27  1  0
  6 28  1  0
 10 29  1  0
 12 30  1  0
 14 31  1  0
 14 32  1  0
 14 33  1  0
 15 34  1  0
 16 35  1  0
 18 36  1  0
M  END
>  <smiles>  (8) 
CC(=O)NCCc1nc2cc3cc(C)ccc3cc2s1

>  <score_type>  (8) 
oracle

>  <origin>  (8) 
adg

>  <m_score__min__energy>  (8) 
-7.6600000000000001

>  <m_primary>  (8) 
energy

$$$$
9:0
     RDKit          3D

 60 63  0  0  0  0  0  0  0  0999 V2000
   56.2130   26.3660   45.9700 C   0  0  0  0  0  0  0  0  0  0  0  0
   57.6140   26.4210   46.5660 C   0  0  0  0  0  0  0  0  0  0  0  0
   58.4880   26.9840   45.6210 N   0  0  0  0  0  0  0  0  0  0  0  0
   58.0100   27.4860   44.4070 C   0  0  0  0  0  0  0  0  0  0  0  0
   59.8890   26.8660   45.8200 C   0  0  0  0  0  0  0  0  0  0  0  0
   60.3760   28.1080   46.5290 C   0  0  0  0  0  0  0  0  0  0  0  0
   59.3930   29.1160   46.7830 N   0  0  0  0  0  0  0  0  0  0  0  0
   59.6270   30.5170   46.8230 C   0  0  0  0  0  0  0  0  0  0  0  0
   59.1140   31.4160   45.9240 C   0  0  0  0  0  0  0  0  0  0  0  0
   58.3830   30.9560   44.8570 C   0  0  0  0  0  0  0  0  0  0  0  0
   57.8580   31.7600   43.8730 C   0  0  0  0  0  0  0  0  0  0  0  0
   57.0930   31.2520   42.7830 N   0  0  0  0  0  0  0  0  0  0  0  0
   56.2680   30.0590   42.9480 C   0  0  0  0  0  0  0  0  0  0  0  0
   57.1500   31.9410   41.4950 C   0  0  0  0  0  0  0  0  0  0  0  0
   58.0850   33.1100   43.9740 C   0  0  0  0  0  0  0  0  0  0  0  0
   58.8200   33.6020   45.0430 C   0  0  0  0  0  0  0  0  0  0  0  0
   59.3430   32.7740   46.0290 C   0  0  0  0  0  0  0  0  0  0  0  0
   60.0990   33.2970   47.0450 N   0  0  0  0  0  0  0  0  0  0  0  0
   60.0780   34.7180   47.1830 C   0  0  0  0  0  0  0  0  0  0  0  0
   60.6220   32.4340   47.9310 C   0  0  0  0  0  0  0  0  0  0  0  0
   60.3970   31.0530   47.8430 C   0  0  0  0  0  0  0  0  0  0  0  0
   60.9210   30.1590   48.7490 C   0  0  0  0  0  0  0  0  0  0  0  0
   61.7070   30.5800   49.7960 C   0  0  0  0  0  0  0  0  0  0  0  0
   61.9390   31.9540   49.8710 C   0  0  0  0  0  0  0  0  0  0  0  0
   62.7970   32.3340   50.8950 C   0  0  0  0  0  0  0  0  0  0  0  0
   63.1390   33.6560   50.9970 C   0  0  0  0  0  0  0  0  0  0  0  0
   62.6610   34.5810   50.1230 C   0  0  0  0  0  0  0  0  0  0  0  0
   61.7880   34.1590   49.0950 C   0  0  0  0  0  0  0  0  0  0  0  0
   61.4150   32.8450   48.9640 C   0  0  0  0  0  0  0  0  0  0  0  0
   55.4704   26.3368   46.7810 H   0  0  0  0  0  0  0  0  0  0  0  0
   56.0433   27.2582   45.3493 H   0  0  0  0  0  0  0  0  0  0  0  0
   56.1137   25.4633   45.3493 H   0  0  0  0  0  0  0  0  0  0  0  0
   57.6046   27.0400   47.4753 H   0  0  0  0  0  0  0  0  0  0  0  0
   57.9490   25.4059   46.8257 H   0  0  0  0  0  0  0  0  0  0  0  0
   57.2636   28.2699   44.6028 H   0  0  0  0  0  0  0  0  0  0  0  0
   58.8456   27.9109   43.8315 H   0  0  0  0  0  0  0  0  0  0  0  0
   57.5447   26.6722   43.8315 H   0  0  0  0  0  0  0  0  0  0  0  0
   60.1036   25.9792   46.4344 H   0  0  0  0  0  0  0  0  0  0  0  0
   60.4005   26.7581   44.8522 H   0  0  0  0  0  0  0  0  0  0  0  0
   60.7975   27.7986   47.4968 H   0  0  0  0  0  0  0  0  0  0  0  0
   61.1033   28.5711   45.8460 H   0  0  0  0  0  0  0  0  0  0  0  0
   58.3970   28.8280   46.9560 H   0  0  0  0  0  0  0  0  0  0  0  0
   58.2056   29.8728   44.7845 H   0  0  0  0  0  0  0  0  0  0  0  0
   56.1275   29.8558   44.0199 H   0  0  0  0  0  0  0  0  0  0  0  0
   55.2887   30.2220   42.4742 H   0  0  0  0  0  0  0  0  0  0  0  0
   56.7662   29.2003   42.4742 H   0  0  0  0  0  0  0  0  0  0  0  0
   57.2396   33.0245   41.6624 H   0  0  0  0  0  0  0  0  0  0  0  0
   58.0217   31.5844   40.9267 H   0  0  0  0  0  0  0  0  0  0  0  0
   56.2315   31.7325   40.9267 H   0  0  0  0  0  0  0  0  0  0  0  0
   57.6869   33.7970   43.2127 H   0  0  0  0  0  0  0  0  0  0  0  0
   58.9949   34.6858   45.1125 H   0  0  0  0  0  0  0  0  0  0  0  0
   60.0741   34.9827   48.2507 H   0  0  0  0  0  0  0  0  0  0  0  0
   60.9699   35.1463   46.7023 H   0  0  0  0  0  0  0  0  0  0  0  0
   59.1738   35.1198   46.7023 H   0  0  0  0  0  0  0  0  0  0  0  0
   60.7068   29.0863   48.6332 H   0  0  0  0  0  0  0  0  0  0  0  0
   62.1273   29.8764   50.5297 H   0  0  0  0  0  0  0  0  0  0  0  0
   63.1914   31.5925   51.6053 H   0  0  0  0  0  0  0  0  0  0  0  0
   63.8150   33.9764   51.8035 H   0  0  0  0  0  0  0  0  0  0  0  0
   62.9486   35.6388   50.2143 H   0  0  0  0  0  0  0  0  0  0  0  0
   61.3983   34.9014   48.3830 H   0  0  0  0  0  0  0  0  0  0  0  0
  1  2  1  0
  2  3  1  0
  3  4  1  0
  3  5  1  0
  5  6  1  0
  6  7  1  0
  7  8  1  0
  8  9  2  0
  9 10  1  0
 10 11  2  0
 11 12  1  0
 12 13  1  0
 12 14  1  0
 11 15  1  0
 15 16  2  0
 16 17  1  0
 17 18  2  0
 18 19  1  0
 18 20  1  0
 20 21  2  0
 21 22  1  0
 22 23  2  0
 23 24  1  0
 24 25  2  0
 25 26  1  0
 26 27  2  0
 27 28  1  0
 28 29  2  0
 21  8  1  0
 29 24  1  0
 17  9  1  0
 29 20  1  0
  1 30  1  0
  1 31  1  0
  1 32  1  0
  2 33  1  0
  2 34  1  0
  4 35  1  0
  4 36  1  0
  4 37  1  0
  5 38  1  0
  5 39  1  0
  6 40  1  0
  6 41  1  0
  7 42  1  0
 10 43  1  0
 13 44  1  0
 13 45  1  0
 13 46  1  0
 14 47  1  0
 14 48  1  0
 14 49  1  0
 15 50  1  0
 16 51  1  0
 19 52  1  0
 19 53  1  0
 19 54  1  0
 22 55  1  0
 23 56  1  0
 25 57  1  0
 26 58  1  0
 27 59  1  0
 28 60  1  0
M  CHG  1  18   1
M  END
>  <smiles>  (9) 
CCN(C)CCNc1c2cc(N(C)C)ccc2[n+](C)c2c1ccc1ccccc12

>  <score_type>  (9) 
oracle

>  <origin>  (9) 
adg

>  <m_score__min__energy>  (9) 
-5.8399999999999999

>  <m_primary>  (9) 
energy

$$$$
10:0
     RDKit          3D

 38 40  0  0  0  0  0  0  0  0999 V2000
   59.1080   28.2490   47.5670 C   0  0  0  0  0  0  0  0  0  0  0  0
   57.8670   27.8910   47.0330 O   0  0  0  0  0  0  0  0  0  0  0  0
   57.6280   26.8430   46.1470 C   0  0  0  0  0  0  0  0  0  0  0  0
   57.0260   25.6510   46.5410 C   0  0  0  0  0  0  0  0  0  0  0  0
   56.7930   24.6160   45.6650 C   0  0  0  0  0  0  0  0  0  0  0  0
   57.1590   24.7260   44.3380 C   0  0  0  0  0  0  0  0  0  0  0  0
   56.8880   23.5990   43.4010 C   0  0  0  0  0  0  0  0  0  0  0  0
   57.7580   25.9090   43.9460 C   0  0  0  0  0  0  0  0  0  0  0  0
   57.9870   26.9460   44.8230 C   0  0  0  0  0  0  0  0  0  0  0  0
   58.5750   28.1890   44.4200 N   0  0  0  0  0  0  0  0  0  0  0  0
   57.8210   29.2830   44.2310 C   0  0  0  0  0  0  0  0  0  0  0  0
   56.4900   28.9300   44.4990 O   0  0  0  0  0  0  0  0  0  0  0  0
   57.7920   30.6210   43.8800 C   0  0  0  0  0  0  0  0  0  0  0  0
   58.4530   31.0640   45.3560 C   0  0  0  0  0  0  0  0  0  0  0  0
   58.6980   32.3100   45.6740 C   0  0  0  0  0  0  0  0  0  0  0  0
   59.2550   32.5860   46.9330 C   0  0  0  0  0  0  0  0  0  0  0  0
   59.5190   33.8690   47.2830 C   0  0  0  0  0  0  0  0  0  0  0  0
   59.2810   34.9670   46.4930 C   0  0  0  0  0  0  0  0  0  0  0  0
   58.7300   34.7110   45.2420 C   0  0  0  0  0  0  0  0  0  0  0  0
   58.4660   33.4540   44.8820 C   0  0  0  0  0  0  0  0  0  0  0  0
   57.9420   33.0910   43.7120 O   0  0  0  0  0  0  0  0  0  0  0  0
   57.7670   31.8610   43.5540 C   0  0  0  0  0  0  0  0  0  0  0  0
   57.2040   31.7340   42.2450 O   0  0  0  0  0  0  0  0  0  0  0  0
   59.0529   28.2331   48.6655 H   0  0  0  0  0  0  0  0  0  0  0  0
   59.8729   27.5349   47.2279 H   0  0  0  0  0  0  0  0  0  0  0  0
   59.3750   29.2608   47.2279 H   0  0  0  0  0  0  0  0  0  0  0  0
   56.7253   25.5323   47.5924 H   0  0  0  0  0  0  0  0  0  0  0  0
   56.3118   23.6944   46.0242 H   0  0  0  0  0  0  0  0  0  0  0  0
   56.6689   22.6879   43.9770 H   0  0  0  0  0  0  0  0  0  0  0  0
   56.0243   23.8487   42.7672 H   0  0  0  0  0  0  0  0  0  0  0  0
   57.7708   23.4287   42.7672 H   0  0  0  0  0  0  0  0  0  0  0  0
   58.0627   26.0261   42.8956 H   0  0  0  0  0  0  0  0  0  0  0  0
   59.5970   28.1780   44.3070 H   0  0  0  0  0  0  0  0  0  0  0  0
   58.6902   30.2762   46.0861 H   0  0  0  0  0  0  0  0  0  0  0  0
   59.4760   31.7656   47.6317 H   0  0  0  0  0  0  0  0  0  0  0  0
   59.9577   34.0440   48.2764 H   0  0  0  0  0  0  0  0  0  0  0  0
   59.5125   35.9883   46.8298 H   0  0  0  0  0  0  0  0  0  0  0  0
   58.5131   35.5406   44.5531 H   0  0  0  0  0  0  0  0  0  0  0  0
  1  2  1  0
  2  3  1  0
  3  4  2  0
  4  5  1  0
  5  6  2  0
  6  7  1  0
  6  8  1  0
  8  9  2  0
  9 10  1  0
 10 11  1  0
 11 12  2  0
 11 13  1  0
 13 14  2  0
 14 15  1  0
 15 16  2  0
 16 17  1  0
 17 18  2  0
 18 19  1  0
 19 20  2  0
 20 21  1  0
 21 22  1  0
 22 23  2  0
  9  3  1  0
 22 13  1  0
 20 15  1  0
  1 24  1  0
  1 25  1  0
  1 26  1  0
  4 27  1  0
  5 28  1  0
  7 29  1  0
  7 30  1  0
  7 31  1  0
  8 32  1  0
 10 33  1  0
 14 34  1  0
 16 35  1  0
 17 36  1  0
 18 37  1  0
 19 38  1  0
M  END
>  <smiles>  (10) 
COc1ccc(C)cc1NC(=O)c1cc2ccccc2oc1=O

>  <score_type>  (10) 
oracle

>  <origin>  (10) 
adg

>  <m_score__min__energy>  (10) 
-7.0999999999999996

>  <m_primary>  (10) 
energy

$$$$
11:0
     RDKit          3D

 59 62  0  0  0  0  0  0  0  0999 V2000
   57.5830   26.8730   46.6690 C   0  0  0  0  0  0  0  0  0  0  0  0
   56.6470   27.4120   45.6370 C   0  0  0  0  0  0  0  0  0  0  0  0
   56.9860   28.7130   45.1380 N   0  0  0  0  0  0  0  0  0  0  0  0
   55.9740   29.3810   44.4180 C   0  0  0  0  0  0  0  0  0  0  0  0
   56.6340   30.4450   43.5430 C   0  0  0  0  0  0  0  0  0  0  0  0
   58.3160   28.6940   44.5800 C   0  0  0  0  0  0  0  0  0  0  0  0
   59.3670   29.3660   45.3670 C   0  0  0  0  0  0  0  0  0  0  0  0
   58.8720   30.0620   46.5340 N   0  0  0  0  0  0  0  0  0  0  0  0
   59.5520   31.0880   47.2170 C   0  0  0  0  0  0  0  0  0  0  0  0
   59.4580   32.4170   46.7820 C   0  0  0  0  0  0  0  0  0  0  0  0
   58.6880   32.7870   45.7040 C   0  0  0  0  0  0  0  0  0  0  0  0
   58.5750   34.0920   45.2650 C   0  0  0  0  0  0  0  0  0  0  0  0
   59.2670   35.0830   45.9370 C   0  0  0  0  0  0  0  0  0  0  0  0
   60.0490   34.7410   47.0260 C   0  0  0  0  0  0  0  0  0  0  0  0
   60.1460   33.4300   47.4460 C   0  0  0  0  0  0  0  0  0  0  0  0
   60.9180   33.1920   48.5170 N   0  0  0  0  0  0  0  0  0  0  0  0
   61.6220   34.2610   49.1840 C   0  0  0  0  0  0  0  0  0  0  0  0
   61.0250   31.9250   48.9590 C   0  0  0  0  0  0  0  0  0  0  0  0
   61.7060   31.4440   50.0290 N   0  0  0  0  0  0  0  0  0  0  0  0
   61.4890   30.1130   50.1070 C   0  0  0  0  0  0  0  0  0  0  0  0
   61.9220   29.1450   51.0100 C   0  0  0  0  0  0  0  0  0  0  0  0
   62.8150   29.4660   52.1430 C   0  0  0  0  0  0  0  0  0  0  0  0
   61.5280   27.8650   50.8730 N   0  0  0  0  0  0  0  0  0  0  0  0
   61.9530   26.8150   51.7890 C   0  0  0  0  0  0  0  0  0  0  0  0
   60.7150   27.4880   49.8700 C   0  0  0  0  0  0  0  0  0  0  0  0
   60.2860   28.4460   48.9720 C   0  0  0  0  0  0  0  0  0  0  0  0
   60.6520   29.7690   49.0550 C   0  0  0  0  0  0  0  0  0  0  0  0
   60.3540   30.8970   48.3220 C   0  0  0  0  0  0  0  0  0  0  0  0
   57.1919   27.0982   47.6721 H   0  0  0  0  0  0  0  0  0  0  0  0
   57.6750   25.7836   46.5474 H   0  0  0  0  0  0  0  0  0  0  0  0
   58.5714   27.3403   46.5474 H   0  0  0  0  0  0  0  0  0  0  0  0
   56.6342   26.7126   44.7881 H   0  0  0  0  0  0  0  0  0  0  0  0
   55.6689   27.5147   46.1298 H   0  0  0  0  0  0  0  0  0  0  0  0
   55.4311   28.6631   43.7856 H   0  0  0  0  0  0  0  0  0  0  0  0
   55.2598   29.8488   45.1116 H   0  0  0  0  0  0  0  0  0  0  0  0
   57.1056   31.2052   44.1830 H   0  0  0  0  0  0  0  0  0  0  0  0
   57.3991   29.9746   42.9079 H   0  0  0  0  0  0  0  0  0  0  0  0
   55.8726   30.9214   42.9079 H   0  0  0  0  0  0  0  0  0  0  0  0
   58.6119   27.6418   44.4560 H   0  0  0  0  0  0  0  0  0  0  0  0
   58.2468   29.2615   43.6402 H   0  0  0  0  0  0  0  0  0  0  0  0
   60.0906   28.6064   45.6980 H   0  0  0  0  0  0  0  0  0  0  0  0
   59.8200   30.1245   44.7117 H   0  0  0  0  0  0  0  0  0  0  0  0
   57.9230   29.7900   46.9190 H   0  0  0  0  0  0  0  0  0  0  0  0
   58.1344   32.0045   45.1643 H   0  0  0  0  0  0  0  0  0  0  0  0
   57.9461   34.3383   44.3968 H   0  0  0  0  0  0  0  0  0  0  0  0
   59.1965   36.1308   45.6096 H   0  0  0  0  0  0  0  0  0  0  0  0
   60.6012   35.5252   47.5646 H   0  0  0  0  0  0  0  0  0  0  0  0
   61.5372   34.1323   50.2732 H   0  0  0  0  0  0  0  0  0  0  0  0
   62.6827   34.2387   48.8936 H   0  0  0  0  0  0  0  0  0  0  0  0
   61.1825   35.2267   48.8936 H   0  0  0  0  0  0  0  0  0  0  0  0
   62.3060   31.9610   50.7040 H   0  0  0  0  0  0  0  0  0  0  0  0
   62.2884   29.2767   53.0900 H   0  0  0  0  0  0  0  0  0  0  0  0
   63.7145   28.8349   52.0911 H   0  0  0  0  0  0  0  0  0  0  0  0
   63.1068   30.5253   52.0911 H   0  0  0  0  0  0  0  0  0  0  0  0
   61.8153   27.1552   52.8260 H   0  0  0  0  0  0  0  0  0  0  0  0
   61.3498   25.9115   51.6163 H   0  0  0  0  0  0  0  0  0  0  0  0
   63.0148   26.5855   51.6163 H   0  0  0  0  0  0  0  0  0  0  0  0
   60.3986   26.4395   49.7670 H   0  0  0  0  0  0  0  0  0  0  0  0
   59.6208   28.1362   48.1525 H   0  0  0  0  0  0  0  0  0  0  0  0
  1  2  1  0
  2  3  1  0
  3  4  1  0
  4  5  1  0
  3  6  1  0
  6  7  1  0
  7  8  1  0
  8  9  1  0
  9 10  2  0
 10 11  1  0
 11 12  2  0
 12 13  1  0
 13 14  2  0
 14 15  1  0
 15 16  2  0
 16 17  1  0
 16 18  1  0
 18 19  1  0
 19 20  1  0
 20 21  2  0
 21 22  1  0
 21 23  1  0
 23 24  1  0
 23 25  2  0
 25 26  1  0
 26 27  2  0
 27 28  1  0
 28  9  1  0
 15 10  1  0
 28 18  2  0
 27 20  1  0
  1 29  1  0
  1 30  1  0
  1 31  1  0
  2 32  1  0
  2 33  1  0
  4 34  1  0
  4 35  1  0
  5 36  1  0
  5 37  1  0
  5 38  1  0
  6 39  1  0
  6 40  1  0
  7 41  1  0
  7 42  1  0
  8 43  1  0
 11 44  1  0
 12 45  1  0
 13 46  1  0
 14 47  1  0
 17 48  1  0
 17 49  1  0
 17 50  1  0
 19 51  1  0
 22 52  1  0
 22 53  1  0
 22 54  1  0
 24 55  1  0
 24 56  1  0
 24 57  1  0
 25 58  1  0
 26 59  1  0
M  CHG  2  16   1  23   1
M  END
>  <smiles>  (11) 
CCN(CC)CCNc1c2ccccc2[n+](C)c2[nH]c3c(C)[n+](C)ccc3c12

>  <score_type>  (11) 
oracle

>  <origin>  (11) 
adg

>  <m_score__min__energy>  (11) 
-5.2599999999999998

>  <m_primary>  (11) 
energy

$$$$
12:0
     RDKit          3D

 50 53  0  0  0  0  0  0  0  0999 V2000
   57.4820   32.3500   40.7750 C   0  0  0  0  0  0  0  0  0  0  0  0
   57.0980   31.8980   42.1520 C   0  0  0  0  0  0  0  0  0  0  0  0
   57.0180   30.4410   42.2430 N   0  0  0  0  0  0  0  0  0  0  0  0
   56.1280   30.1420   43.3320 C   0  0  0  0  0  0  0  0  0  0  0  0
   56.6830   30.5810   44.6720 C   0  0  0  0  0  0  0  0  0  0  0  0
   58.0940   30.7720   44.5160 N   0  0  0  0  0  0  0  0  0  0  0  0
   58.8630   31.1740   45.6170 C   0  0  0  0  0  0  0  0  0  0  0  0
   59.1310   32.5380   45.7510 C   0  0  0  0  0  0  0  0  0  0  0  0
   58.6520   33.4370   44.8280 C   0  0  0  0  0  0  0  0  0  0  0  0
   58.8790   34.7980   44.8980 C   0  0  0  0  0  0  0  0  0  0  0  0
   59.6290   35.2630   45.9590 C   0  0  0  0  0  0  0  0  0  0  0  0
   60.1250   34.3710   46.9040 C   0  0  0  0  0  0  0  0  0  0  0  0
   59.8780   33.0010   46.8030 C   0  0  0  0  0  0  0  0  0  0  0  0
   60.3640   32.1490   47.7260 N   0  0  0  0  0  0  0  0  0  0  0  0
   61.1430   32.6470   48.8220 C   0  0  0  0  0  0  0  0  0  0  0  0
   60.1190   30.8160   47.6210 C   0  0  0  0  0  0  0  0  0  0  0  0
   60.4800   29.7750   48.3890 N   0  0  0  0  0  0  0  0  0  0  0  0
   59.9760   28.6340   47.8490 C   0  0  0  0  0  0  0  0  0  0  0  0
   60.0760   27.3070   48.2730 C   0  0  0  0  0  0  0  0  0  0  0  0
   59.4570   26.3440   47.5180 C   0  0  0  0  0  0  0  0  0  0  0  0
   58.7580   26.6710   46.3760 C   0  0  0  0  0  0  0  0  0  0  0  0
   58.1240   25.5510   45.6310 C   0  0  0  0  0  0  0  0  0  0  0  0
   58.1200   25.8490   44.2850 F   0  0  0  0  0  0  0  0  0  0  0  0
   58.7910   24.3600   45.8620 F   0  0  0  0  0  0  0  0  0  0  0  0
   56.8300   25.3960   46.1000 F   0  0  0  0  0  0  0  0  0  0  0  0
   58.6510   27.9930   45.9430 C   0  0  0  0  0  0  0  0  0  0  0  0
   59.2660   28.9520   46.6910 C   0  0  0  0  0  0  0  0  0  0  0  0
   59.3710   30.3150   46.5750 C   0  0  0  0  0  0  0  0  0  0  0  0
   58.1926   33.1864   40.8485 H   0  0  0  0  0  0  0  0  0  0  0  0
   57.9520   31.5161   40.2331 H   0  0  0  0  0  0  0  0  0  0  0  0
   56.5831   32.6791   40.2331 H   0  0  0  0  0  0  0  0  0  0  0  0
   57.8512   32.2586   42.8680 H   0  0  0  0  0  0  0  0  0  0  0  0
   56.1043   32.3099   42.3822 H   0  0  0  0  0  0  0  0  0  0  0  0
   57.9410   30.0030   42.3160 H   0  0  0  0  0  0  0  0  0  0  0  0
   55.1728   30.6593   43.1592 H   0  0  0  0  0  0  0  0  0  0  0  0
   55.9963   29.0504   43.3661 H   0  0  0  0  0  0  0  0  0  0  0  0
   56.2092   31.5237   44.9833 H   0  0  0  0  0  0  0  0  0  0  0  0
   56.4791   29.8218   45.4415 H   0  0  0  0  0  0  0  0  0  0  0  0
   58.6090   30.6280   43.6010 H   0  0  0  0  0  0  0  0  0  0  0  0
   58.0555   33.0518   43.9879 H   0  0  0  0  0  0  0  0  0  0  0  0
   58.4776   35.4842   44.1377 H   0  0  0  0  0  0  0  0  0  0  0  0
   59.8346   36.3391   46.0574 H   0  0  0  0  0  0  0  0  0  0  0  0
   60.7223   34.7519   47.7455 H   0  0  0  0  0  0  0  0  0  0  0  0
   60.6743   32.3474   49.7710 H   0  0  0  0  0  0  0  0  0  0  0  0
   62.1599   32.2311   48.7679 H   0  0  0  0  0  0  0  0  0  0  0  0
   61.1924   33.7446   48.7679 H   0  0  0  0  0  0  0  0  0  0  0  0
   61.0560   29.8360   49.2620 H   0  0  0  0  0  0  0  0  0  0  0  0
   60.6336   27.0427   49.1836 H   0  0  0  0  0  0  0  0  0  0  0  0
   59.5195   25.2909   47.8296 H   0  0  0  0  0  0  0  0  0  0  0  0
   58.0913   28.2516   45.0320 H   0  0  0  0  0  0  0  0  0  0  0  0
  1  2  1  0
  2  3  1  0
  3  4  1  0
  4  5  1  0
  5  6  1  0
  6  7  1  0
  7  8  2  0
  8  9  1  0
  9 10  2  0
 10 11  1  0
 11 12  2  0
 12 13  1  0
 13 14  2  0
 14 15  1  0
 14 16  1  0
 16 17  1  0
 17 18  1  0
 18 19  2  0
 19 20  1  0
 20 21  2  0
 21 22  1  0
 22 23  1  0
 22 24  1  0
 22 25  1  0
 21 26  1  0
 26 27  2  0
 27 28  1  0
 28  7  1  0
 13  8  1  0
 28 16  2  0
 27 18  1  0
  1 29  1  0
  1 30  1  0
  1 31  1  0
  2 32  1  0
  2 33  1  0
  3 34  1  0
  4 35  1  0
  4 36  1  0
  5 37  1  0
  5 38  1  0
  6 39  1  0
  9 40  1  0
 10 41  1  0
 11 42  1  0
 12 43  1  0
 15 44  1  0
 15 45  1  0
 15 46  1  0
 17 47  1  0
 19 48  1  0
 20 49  1  0
 26 50  1  0
M  CHG  1  14   1
M  END
>  <smiles>  (12) 
CCNCCNc1c2ccccc2[n+](C)c2[nH]c3ccc(C(F)(F)F)cc3c12

>  <score_type>  (12) 
oracle

>  <origin>  (12) 
adg

>  <m_score__min__energy>  (12) 
-6.04

>  <m_primary>  (12) 
energy

$$$$
13:0
     RDKit          3D

 61 63  0  0  0  0  0  0  0  0999 V2000
   56.2440   29.4770   43.0380 C   0  0  0  0  0  0  0  0  0  0  0  0
   56.1300   29.3740   44.5370 C   0  0  0  0  0  0  0  0  0  0  0  0
   57.0050   28.3400   45.0730 N   0  0  0  0  0  0  0  0  0  0  0  0
   58.2750   28.5060   44.4120 C   0  0  0  0  0  0  0  0  0  0  0  0
   59.1540   29.5670   45.0640 C   0  0  0  0  0  0  0  0  0  0  0  0
   58.4030   30.1280   46.1950 N   0  0  0  0  0  0  0  0  0  0  0  0
   59.1120   30.8120   47.2010 C   0  0  0  0  0  0  0  0  0  0  0  0
   59.0690   32.2150   47.0910 C   0  0  0  0  0  0  0  0  0  0  0  0
   58.3410   32.7990   46.0580 C   0  0  0  0  0  0  0  0  0  0  0  0
   58.2430   34.1590   45.8790 C   0  0  0  0  0  0  0  0  0  0  0  0
   58.9000   34.9670   46.7710 C   0  0  0  0  0  0  0  0  0  0  0  0
   59.6330   34.3990   47.8100 C   0  0  0  0  0  0  0  0  0  0  0  0
   59.7240   33.0290   47.9790 C   0  0  0  0  0  0  0  0  0  0  0  0
   60.4460   32.4850   49.0070 N   0  0  0  0  0  0  0  0  0  0  0  0
   61.0960   33.4370   49.8640 C   0  0  0  0  0  0  0  0  0  0  0  0
   60.4930   31.1580   49.1190 C   0  0  0  0  0  0  0  0  0  0  0  0
   61.2250   30.6290   50.1580 C   0  0  0  0  0  0  0  0  0  0  0  0
   61.3040   29.2860   50.3160 C   0  0  0  0  0  0  0  0  0  0  0  0
   60.6490   28.4570   49.4350 C   0  0  0  0  0  0  0  0  0  0  0  0
   59.8910   28.9280   48.3650 C   0  0  0  0  0  0  0  0  0  0  0  0
   59.1920   27.9710   47.6060 N   0  0  0  0  0  0  0  0  0  0  0  0
   59.7360   26.6200   47.4530 C   0  0  0  0  0  0  0  0  0  0  0  0
   59.2000   25.8660   46.2910 C   0  0  0  0  0  0  0  0  0  0  0  0
   57.7410   26.0510   46.3030 N   0  0  0  0  0  0  0  0  0  0  0  0
   57.0220   24.7980   46.3490 C   0  0  0  0  0  0  0  0  0  0  0  0
   55.5330   24.9900   46.1240 C   0  0  0  0  0  0  0  0  0  0  0  0
   55.1840   26.4110   45.9790 N   0  0  0  0  0  0  0  0  0  0  0  0
   59.8310   30.2910   48.2270 C   0  0  0  0  0  0  0  0  0  0  0  0
   57.0372   30.1937   42.7790 H   0  0  0  0  0  0  0  0  0  0  0  0
   56.4911   28.4898   42.6204 H   0  0  0  0  0  0  0  0  0  0  0  0
   55.2869   29.8227   42.6204 H   0  0  0  0  0  0  0  0  0  0  0  0
   56.4057   30.3410   44.9830 H   0  0  0  0  0  0  0  0  0  0  0  0
   55.0919   29.1079   44.7850 H   0  0  0  0  0  0  0  0  0  0  0  0
   56.6410   27.3860   44.8490 H   0  0  0  0  0  0  0  0  0  0  0  0
   58.8101   27.5452   44.4354 H   0  0  0  0  0  0  0  0  0  0  0  0
   58.0688   28.8374   43.3836 H   0  0  0  0  0  0  0  0  0  0  0  0
   60.0889   29.1117   45.4227 H   0  0  0  0  0  0  0  0  0  0  0  0
   59.4115   30.3548   44.3408 H   0  0  0  0  0  0  0  0  0  0  0  0
   57.3380   30.0570   46.2310 H   0  0  0  0  0  0  0  0  0  0  0  0
   57.8181   32.1397   45.3496 H   0  0  0  0  0  0  0  0  0  0  0  0
   57.6583   34.5836   45.0496 H   0  0  0  0  0  0  0  0  0  0  0  0
   58.8482   36.0608   46.6662 H   0  0  0  0  0  0  0  0  0  0  0  0
   60.1554   35.0596   48.5176 H   0  0  0  0  0  0  0  0  0  0  0  0
   60.9130   33.1690   50.9150 H   0  0  0  0  0  0  0  0  0  0  0  0
   62.1781   33.4291   49.6666 H   0  0  0  0  0  0  0  0  0  0  0  0
   60.6946   34.4420   49.6666 H   0  0  0  0  0  0  0  0  0  0  0  0
   61.7458   31.2969   50.8599 H   0  0  0  0  0  0  0  0  0  0  0  0
   61.8890   28.8604   51.1446 H   0  0  0  0  0  0  0  0  0  0  0  0
   60.7275   27.3698   49.5824 H   0  0  0  0  0  0  0  0  0  0  0  0
   58.2800   28.0680   47.1310 H   0  0  0  0  0  0  0  0  0  0  0  0
   60.8268   26.7005   47.3363 H   0  0  0  0  0  0  0  0  0  0  0  0
   59.4386   26.0603   48.3521 H   0  0  0  0  0  0  0  0  0  0  0  0
   59.6242   26.2595   45.3555 H   0  0  0  0  0  0  0  0  0  0  0  0
   59.4640   24.8001   46.3555 H   0  0  0  0  0  0  0  0  0  0  0  0
   57.4140   26.5620   45.4450 H   0  0  0  0  0  0  0  0  0  0  0  0
   57.4168   24.1328   45.5669 H   0  0  0  0  0  0  0  0  0  0  0  0
   57.1617   24.3618   47.3491 H   0  0  0  0  0  0  0  0  0  0  0  0
   55.2389   24.4554   45.2087 H   0  0  0  0  0  0  0  0  0  0  0  0
   54.9997   24.5935   47.0005 H   0  0  0  0  0  0  0  0  0  0  0  0
   55.8030   26.9160   46.6730 H   0  0  0  0  0  0  0  0  0  0  0  0
   55.4990   26.7600   45.0560 H   0  0  0  0  0  0  0  0  0  0  0  0
  1  2  1  0
  2  3  1  0
  3  4  1  0
  4  5  1  0
  5  6  1  0
  6  7  1  0
  7  8  2  0
  8  9  1  0
  9 10  2  0
 10 11  1  0
 11 12  2  0
 12 13  1  0
 13 14  2  0
 14 15  1  0
 14 16  1  0
 16 17  2  0
 17 18  1  0
 18 19  2  0
 19 20  1  0
 20 21  1  0
 21 22  1  0
 22 23  1  0
 23 24  1  0
 24 25  1  0
 25 26  1  0
 26 27  1  0
 20 28  2  0
 28  7  1  0
 13  8  1  0
 28 16  1  0
  1 29  1  0
  1 30  1  0
  1 31  1  0
  2 32  1  0
  2 33  1  0
  3 34  1  0
  4 35  1  0
  4 36  1  0
  5 37  1  0
  5 38  1  0
  6 39  1  0
  9 40  1  0
 10 41  1  0
 11 42  1  0
 12 43  1  0
 15 44  1  0
 15 45  1  0
 15 46  1  0
 17 47  1  0
 18 48  1  0
 19 49  1  0
 21 50  1  0
 22 51  1  0
 22 52  1  0
 23 53  1  0
 23 54  1  0
 24 55  1  0
 25 56  1  0
 25 57  1  0
 26 58  1  0
 26 59  1  0
 27 60  1  0
 27 61  1  0
M  CHG  1  14   1
M  END
>  <smiles>  (13) 
CCNCCNc1c2ccccc2[n+](C)c2cccc(NCCNCCN)c12

>  <score_type>  (13) 
oracle

>  <origin>  (13) 
adg

>  <m_score__min__energy>  (13) 
-5.75

>  <m_primary>  (13) 
energy

$$$$
14:0
     RDKit          3D

 56 59  0  0  0  0  0  0  0  0999 V2000
   60.7050   28.7120   44.8660 C   0  0  0  0  0  0  0  0  0  0  0  0
   60.4870   27.4280   45.6430 C   0  0  0  0  0  0  0  0  0  0  0  0
   59.0870   27.1020   45.6440 N   0  0  0  0  0  0  0  0  0  0  0  0
   58.4360   26.5490   44.4540 C   0  0  0  0  0  0  0  0  0  0  0  0
   57.9940   27.6230   43.5070 C   0  0  0  0  0  0  0  0  0  0  0  0
   58.2760   27.2950   46.7790 C   0  0  0  0  0  0  0  0  0  0  0  0
   57.0390   27.0200   46.8170 O   0  0  0  0  0  0  0  0  0  0  0  0
   58.8910   27.8610   48.0310 C   0  0  0  0  0  0  0  0  0  0  0  0
   59.2640   29.2400   47.8230 N   0  0  0  0  0  0  0  0  0  0  0  0
   60.2100   29.8670   48.4890 N   0  0  0  0  0  0  0  0  0  0  0  0
   60.3270   31.1500   48.0740 C   0  0  0  0  0  0  0  0  0  0  0  0
   61.2990   32.0500   48.6270 C   0  0  0  0  0  0  0  0  0  0  0  0
   60.8680   32.8820   49.6700 C   0  0  0  0  0  0  0  0  0  0  0  0
   61.7120   33.8180   50.2330 C   0  0  0  0  0  0  0  0  0  0  0  0
   63.0240   33.9610   49.7740 C   0  0  0  0  0  0  0  0  0  0  0  0
   63.4570   33.1560   48.7580 C   0  0  0  0  0  0  0  0  0  0  0  0
   62.5920   32.2300   48.2150 C   0  0  0  0  0  0  0  0  0  0  0  0
   59.4070   31.3400   47.0910 C   0  0  0  0  0  0  0  0  0  0  0  0
   59.0450   32.4070   46.2710 C   0  0  0  0  0  0  0  0  0  0  0  0
   58.0390   32.2260   45.3460 C   0  0  0  0  0  0  0  0  0  0  0  0
   57.4020   30.9880   45.2390 C   0  0  0  0  0  0  0  0  0  0  0  0
   56.3050   30.7650   44.2420 C   0  0  0  0  0  0  0  0  0  0  0  0
   57.7660   29.9690   46.0380 N   0  0  0  0  0  0  0  0  0  0  0  0
   58.7510   30.1220   46.9550 C   0  0  0  0  0  0  0  0  0  0  0  0
   57.5590   33.2680   44.4080 C   0  0  0  0  0  0  0  0  0  0  0  0
   58.0560   34.6080   44.8700 C   0  0  0  0  0  0  0  0  0  0  0  0
   59.5600   34.4570   45.0870 C   0  0  0  0  0  0  0  0  0  0  0  0
   59.7820   33.6800   46.4100 C   0  0  0  0  0  0  0  0  0  0  0  0
   60.8467   29.5463   45.5688 H   0  0  0  0  0  0  0  0  0  0  0  0
   61.5987   28.6102   44.2328 H   0  0  0  0  0  0  0  0  0  0  0  0
   59.8278   28.9109   44.2328 H   0  0  0  0  0  0  0  0  0  0  0  0
   61.0534   26.6122   45.1700 H   0  0  0  0  0  0  0  0  0  0  0  0
   60.8337   27.5619   46.6783 H   0  0  0  0  0  0  0  0  0  0  0  0
   59.1460   25.8881   43.9353 H   0  0  0  0  0  0  0  0  0  0  0  0
   57.5436   25.9951   44.7808 H   0  0  0  0  0  0  0  0  0  0  0  0
   57.6364   28.4918   44.0790 H   0  0  0  0  0  0  0  0  0  0  0  0
   58.8411   27.9246   42.8734 H   0  0  0  0  0  0  0  0  0  0  0  0
   57.1800   27.2409   42.8734 H   0  0  0  0  0  0  0  0  0  0  0  0
   58.1623   27.8016   48.8529 H   0  0  0  0  0  0  0  0  0  0  0  0
   59.7901   27.2799   48.2840 H   0  0  0  0  0  0  0  0  0  0  0  0
   59.8388   32.7871   50.0464 H   0  0  0  0  0  0  0  0  0  0  0  0
   61.3483   34.4574   51.0508 H   0  0  0  0  0  0  0  0  0  0  0  0
   63.6959   34.7077   50.2222 H   0  0  0  0  0  0  0  0  0  0  0  0
   64.4851   33.2460   48.3774 H   0  0  0  0  0  0  0  0  0  0  0  0
   62.9648   31.5948   47.3980 H   0  0  0  0  0  0  0  0  0  0  0  0
   55.3607   30.5730   44.7726 H   0  0  0  0  0  0  0  0  0  0  0  0
   56.1957   31.6593   43.6109 H   0  0  0  0  0  0  0  0  0  0  0  0
   56.5536   29.8990   43.6109 H   0  0  0  0  0  0  0  0  0  0  0  0
   57.9428   33.0604   43.3983 H   0  0  0  0  0  0  0  0  0  0  0  0
   56.4593   33.2678   44.3832 H   0  0  0  0  0  0  0  0  0  0  0  0
   57.8567   35.3725   44.1046 H   0  0  0  0  0  0  0  0  0  0  0  0
   57.5492   34.9253   45.7933 H   0  0  0  0  0  0  0  0  0  0  0  0
   60.0032   33.8995   44.2487 H   0  0  0  0  0  0  0  0  0  0  0  0
   60.0375   35.4464   45.1423 H   0  0  0  0  0  0  0  0  0  0  0  0
   60.8538   33.4851   46.5621 H   0  0  0  0  0  0  0  0  0  0  0  0
   59.4259   34.2559   47.2769 H   0  0  0  0  0  0  0  0  0  0  0  0
  1  2  1  0
  2  3  1  0
  3  4  1  0
  4  5  1  0
  3  6  1  0
  6  7  2  0
  6  8  1  0
  8  9  1  0
  9 10  1  0
 10 11  2  0
 11 12  1  0
 12 13  2  0
 13 14  1  0
 14 15  2  0
 15 16  1  0
 16 17  2  0
 11 18  1  0
 18 19  2  0
 19 20  1  0
 20 21  2  0
 21 22  1  0
 21 23  1  0
 23 24  2  0
 20 25  1  0
 25 26  1  0
 26 27  1  0
 27 28  1  0
 24  9  1  0
 17 12  1  0
 24 18  1  0
 28 19  1  0
  1 29  1  0
  1 30  1  0
  1 31  1  0
  2 32  1  0
  2 33  1  0
  4 34  1  0
  4 35  1  0
  5 36  1  0
  5 37  1  0
  5 38  1  0
  8 39  1  0
  8 40  1  0
 13 41  1  0
 14 42  1  0
 15 43  1  0
 16 44  1  0
 17 45  1  0
 22 46  1  0
 22 47  1  0
 22 48  1  0
 25 49  1  0
 25 50  1  0
 26 51  1  0
 26 52  1  0
 27 53  1  0
 27 54  1  0
 28 55  1  0
 28 56  1  0
M  END
>  <smiles>  (14) 
CCN(CC)C(=O)Cn1nc(-c2ccccc2)c2c3c(c(C)nc21)CCCC3

>  <score_type>  (14) 
oracle

>  <origin>  (14) 
adg

>  <m_score__min__energy>  (14) 
-8.5

>  <m_primary>  (14) 
energy

$$$$
15:0
     RDKit          3D

 57 59  0  0  1  0  0  0  0  0999 V2000
   63.0290   33.2230   47.1260 C   0  0  0  0  0  0  0  0  0  0  0  0
   61.9340   33.0870   48.1450 C   0  0  0  0  0  0  0  0  0  0  0  0
   60.5950   33.2550   47.6030 N   0  0  0  0  0  0  0  0  0  0  0  0
   60.7090   34.0420   46.4230 C   0  0  0  0  0  0  0  0  0  0  0  0
   59.9860   35.3320   46.3750 C   0  0  0  0  0  0  0  0  0  0  0  0
   59.6750   33.7830   48.5820 C   0  0  0  0  0  0  0  0  0  0  0  0
   59.4800   32.9320   49.7700 C   0  0  0  0  0  0  0  0  0  0  0  0
   59.3630   31.5890   49.4620 O   0  0  0  0  0  0  0  0  0  0  0  0
   60.2850   30.7910   50.1030 C   0  0  0  0  0  0  0  0  0  0  0  0
   59.9630   29.2950   49.8530 C   0  0  0  0  0  0  0  0  0  0  0  0
   60.2890   29.0970   48.4610 N   0  0  0  0  0  0  0  0  0  0  0  0
   59.4080   29.3000   47.5550 C   0  0  0  0  0  0  0  0  0  0  0  0
   59.1020   30.4970   47.0340 N   0  0  0  0  0  0  0  0  0  0  0  0
   58.1590   30.6650   46.0900 C   0  0  0  0  0  0  0  0  0  0  0  0
   57.8700   31.9650   45.5560 N   0  0  0  0  0  0  0  0  0  0  0  0
   58.0200   32.3150   44.1530 C   0  0  0  0  0  0  0  0  0  0  0  0
   57.9990   33.8360   44.1650 C   0  0  0  0  0  0  0  0  0  0  0  0
   57.0490   34.1280   45.3030 C   0  0  0  0  0  0  0  0  0  0  0  0
   57.4090   33.0920   46.3300 C   0  0  0  0  0  0  0  0  0  0  0  0
   57.4790   29.5700   45.6370 N   0  0  0  0  0  0  0  0  0  0  0  0
   57.7270   28.3420   46.1080 C   0  0  0  0  0  0  0  0  0  0  0  0
   57.0050   27.2800   45.6050 C   0  0  0  0  0  0  0  0  0  0  0  0
   57.2620   26.0130   46.0870 C   0  0  0  0  0  0  0  0  0  0  0  0
   58.2390   25.8510   47.0650 C   0  0  0  0  0  0  0  0  0  0  0  0
   58.9430   26.9370   47.5450 C   0  0  0  0  0  0  0  0  0  0  0  0
   58.6990   28.2140   47.0740 C   0  0  0  0  0  0  0  0  0  0  0  0
   63.9946   33.3429   47.6391 H   0  0  0  0  0  0  0  0  0  0  0  0
   63.0579   32.3215   46.4963 H   0  0  0  0  0  0  0  0  0  0  0  0
   62.8365   34.1041   46.4963 H   0  0  0  0  0  0  0  0  0  0  0  0
   62.0020   32.0849   48.5936 H   0  0  0  0  0  0  0  0  0  0  0  0
   62.0824   33.8921   48.8797 H   0  0  0  0  0  0  0  0  0  0  0  0
   61.7773   34.2603   46.2776 H   0  0  0  0  0  0  0  0  0  0  0  0
   60.2348   33.4324   45.6397 H   0  0  0  0  0  0  0  0  0  0  0  0
   59.7904   35.6810   47.3997 H   0  0  0  0  0  0  0  0  0  0  0  0
   60.5985   36.0761   45.8448 H   0  0  0  0  0  0  0  0  0  0  0  0
   59.0316   35.1979   45.8448 H   0  0  0  0  0  0  0  0  0  0  0  0
   60.0563   34.7583   48.9187 H   0  0  0  0  0  0  0  0  0  0  0  0
   58.6965   33.8477   48.0837 H   0  0  0  0  0  0  0  0  0  0  0  0
   60.3422   33.0636   50.4403 H   0  0  0  0  0  0  0  0  0  0  0  0
   58.5378   33.2428   50.2450 H   0  0  0  0  0  0  0  0  0  0  0  0
   61.2905   31.0157   49.7176 H   0  0  0  0  0  0  0  0  0  0  0  0
   60.2439   30.9916   51.1838 H   0  0  0  0  0  0  0  0  0  0  0  0
   60.5802   28.6494   50.4950 H   0  0  0  0  0  0  0  0  0  0  0  0
   58.9176   29.0420   50.0837 H   0  0  0  0  0  0  0  0  0  0  0  0
   59.6170   31.3350   47.3680 H   0  0  0  0  0  0  0  0  0  0  0  0
   58.9726   31.9376   43.7528 H   0  0  0  0  0  0  0  0  0  0  0  0
   57.2363   31.8797   43.5156 H   0  0  0  0  0  0  0  0  0  0  0  0
   58.9994   34.2480   44.3638 H   0  0  0  0  0  0  0  0  0  0  0  0
   57.6944   34.2829   43.2072 H   0  0  0  0  0  0  0  0  0  0  0  0
   57.2057   35.1433   45.6961 H   0  0  0  0  0  0  0  0  0  0  0  0
   55.9918   34.0859   45.0021 H   0  0  0  0  0  0  0  0  0  0  0  0
   58.2056   33.4611   46.9927 H   0  0  0  0  0  0  0  0  0  0  0  0
   56.5608   32.8347   46.9814 H   0  0  0  0  0  0  0  0  0  0  0  0
   56.2378   27.4403   44.8332 H   0  0  0  0  0  0  0  0  0  0  0  0
   56.7041   25.1454   45.7048 H   0  0  0  0  0  0  0  0  0  0  0  0
   58.4524   24.8467   47.4597 H   0  0  0  0  0  0  0  0  0  0  0  0
   59.7122   26.7838   48.3163 H   0  0  0  0  0  0  0  0  0  0  0  0
  1  2  1  0
  2  3  1  0
  3  4  1  0
  4  5  1  0
  3  6  1  0
  6  7  1  0
  7  8  1  0
  8  9  1  0
  9 10  1  0
 10 11  1  0
 11 12  2  0
 12 13  1  0
 13 14  1  0
 14 15  1  0
 15 16  1  0
 16 17  1  0
 17 18  1  0
 18 19  1  0
 14 20  2  0
 20 21  1  0
 21 22  2  0
 22 23  1  0
 23 24  2  0
 24 25  1  0
 25 26  2  0
 26 12  1  0
 19 15  1  0
 26 21  1  0
  1 27  1  0
  1 28  1  0
  1 29  1  0
  2 30  1  0
  2 31  1  0
  4 32  1  0
  4 33  1  0
  5 34  1  0
  5 35  1  0
  5 36  1  0
  6 37  1  0
  6 38  1  0
  7 39  1  0
  7 40  1  0
  9 41  1  0
  9 42  1  0
 10 43  1  0
 10 44  1  0
 13 45  1  0
 16 46  1  0
 16 47  1  0
 17 48  1  0
 17 49  1  0
 18 50  1  0
 18 51  1  0
 19 52  1  0
 19 53  1  0
 22 54  1  0
 23 55  1  0
 24 56  1  0
 25 57  1  0
M  END
>  <smiles>  (15) 
CCN(CC)CCOCCN=c1[nH]c(N2CCCC2)nc2ccccc12

>  <score_type>  (15) 
oracle

>  <origin>  (15) 
adg

>  <m_score__min__energy>  (15) 
-7.3300000000000001

>  <m_primary>  (15) 
energy

$$$$
16:0
     RDKit          3D

 71 75  0  0  0  0  0  0  0  0999 V2000
   62.8880   33.8220   46.3740 C   0  0  0  0  0  0  0  0  0  0  0  0
   63.6610   33.8420   47.6930 C   0  0  0  0  0  0  0  0  0  0  0  0
   62.7740   34.1380   48.7450 N   0  0  0  0  0  0  0  0  0  0  0  0
   61.4180   33.9100   48.4610 C   0  0  0  0  0  0  0  0  0  0  0  0
   60.4690   33.8830   49.6100 C   0  0  0  0  0  0  0  0  0  0  0  0
   63.2050   33.7940   50.0800 C   0  0  0  0  0  0  0  0  0  0  0  0
   64.0880   32.5640   50.0350 C   0  0  0  0  0  0  0  0  0  0  0  0
   63.4410   31.2980   50.0040 N   0  0  0  0  0  0  0  0  0  0  0  0
   62.1530   30.9750   50.4450 C   0  0  0  0  0  0  0  0  0  0  0  0
   61.9770   31.0230   51.8440 C   0  0  0  0  0  0  0  0  0  0  0  0
   62.9870   31.5020   52.6540 C   0  0  0  0  0  0  0  0  0  0  0  0
   62.9020   31.6090   54.0220 C   0  0  0  0  0  0  0  0  0  0  0  0
   61.7330   31.2140   54.6170 C   0  0  0  0  0  0  0  0  0  0  0  0
   60.6950   30.7290   53.8220 C   0  0  0  0  0  0  0  0  0  0  0  0
   60.8080   30.6320   52.4450 C   0  0  0  0  0  0  0  0  0  0  0  0
   59.7960   30.1910   51.6960 N   0  0  0  0  0  0  0  0  0  0  0  0
   58.5370   29.7540   52.2620 C   0  0  0  0  0  0  0  0  0  0  0  0
   59.9260   30.1360   50.3490 C   0  0  0  0  0  0  0  0  0  0  0  0
   58.8390   29.6850   49.6350 C   0  0  0  0  0  0  0  0  0  0  0  0
   58.9360   29.6320   48.2680 C   0  0  0  0  0  0  0  0  0  0  0  0
   60.1170   30.0290   47.6280 C   0  0  0  0  0  0  0  0  0  0  0  0
   60.0830   29.8830   46.1470 C   0  0  0  0  0  0  0  0  0  0  0  0
   58.8380   30.4980   45.6430 C   0  0  0  0  0  0  0  0  0  0  0  0
   58.6680   31.8350   45.5710 C   0  0  0  0  0  0  0  0  0  0  0  0
   59.4800   32.9120   45.8940 C   0  0  0  0  0  0  0  0  0  0  0  0
   59.0970   34.2150   45.7450 C   0  0  0  0  0  0  0  0  0  0  0  0
   59.9630   35.3480   46.0870 C   0  0  0  0  0  0  0  0  0  0  0  0
   57.8330   34.5020   45.2480 C   0  0  0  0  0  0  0  0  0  0  0  0
   57.0110   33.4350   44.9210 C   0  0  0  0  0  0  0  0  0  0  0  0
   57.4220   32.1220   45.0810 C   0  0  0  0  0  0  0  0  0  0  0  0
   56.7530   31.0530   44.8210 N   0  0  0  0  0  0  0  0  0  0  0  0
   57.6020   29.9480   45.1590 C   0  0  0  0  0  0  0  0  0  0  0  0
   57.2680   28.7730   45.0310 O   0  0  0  0  0  0  0  0  0  0  0  0
   61.1800   30.4690   48.3270 N   0  0  0  0  0  0  0  0  0  0  0  0
   62.3370   30.9110   47.6000 C   0  0  0  0  0  0  0  0  0  0  0  0
   61.1000   30.5250   49.6950 C   0  0  0  0  0  0  0  0  0  0  0  0
   61.8082   33.7941   46.5822 H   0  0  0  0  0  0  0  0  0  0  0  0
   63.1266   34.7266   45.7954 H   0  0  0  0  0  0  0  0  0  0  0  0
   63.1730   32.9309   45.7954 H   0  0  0  0  0  0  0  0  0  0  0  0
   64.1204   32.8574   47.8651 H   0  0  0  0  0  0  0  0  0  0  0  0
   64.4492   34.6079   47.6477 H   0  0  0  0  0  0  0  0  0  0  0  0
   61.0861   34.7060   47.7782 H   0  0  0  0  0  0  0  0  0  0  0  0
   61.3859   32.8913   48.0473 H   0  0  0  0  0  0  0  0  0  0  0  0
   61.0347   33.8991   50.5532 H   0  0  0  0  0  0  0  0  0  0  0  0
   59.8104   34.7628   49.5624 H   0  0  0  0  0  0  0  0  0  0  0  0
   59.8615   32.9672   49.5624 H   0  0  0  0  0  0  0  0  0  0  0  0
   63.7712   34.6341   50.5085 H   0  0  0  0  0  0  0  0  0  0  0  0
   62.3229   33.5844   50.7029 H   0  0  0  0  0  0  0  0  0  0  0  0
   64.7124   32.6382   49.1325 H   0  0  0  0  0  0  0  0  0  0  0  0
   64.6389   32.5766   50.9870 H   0  0  0  0  0  0  0  0  0  0  0  0
   63.9900   30.4960   49.5440 H   0  0  0  0  0  0  0  0  0  0  0  0
   63.9234   31.8197   52.1722 H   0  0  0  0  0  0  0  0  0  0  0  0
   63.7418   31.9975   54.6169 H   0  0  0  0  0  0  0  0  0  0  0  0
   61.6145   31.2786   55.7087 H   0  0  0  0  0  0  0  0  0  0  0  0
   59.7575   30.4137   54.3034 H   0  0  0  0  0  0  0  0  0  0  0  0
   58.6012   29.7763   53.3599 H   0  0  0  0  0  0  0  0  0  0  0  0
   57.7322   30.4253   51.9281 H   0  0  0  0  0  0  0  0  0  0  0  0
   58.3212   28.7284   51.9281 H   0  0  0  0  0  0  0  0  0  0  0  0
   57.9164   29.3751   50.1476 H   0  0  0  0  0  0  0  0  0  0  0  0
   58.0828   29.2763   47.6717 H   0  0  0  0  0  0  0  0  0  0  0  0
   60.9529   30.3902   45.7042 H   0  0  0  0  0  0  0  0  0  0  0  0
   60.1148   28.8182   45.8728 H   0  0  0  0  0  0  0  0  0  0  0  0
   60.4851   32.7063   46.2910 H   0  0  0  0  0  0  0  0  0  0  0  0
   60.0326   35.4391   47.1810 H   0  0  0  0  0  0  0  0  0  0  0  0
   60.9665   35.1819   45.6683 H   0  0  0  0  0  0  0  0  0  0  0  0
   59.5394   36.2728   45.6683 H   0  0  0  0  0  0  0  0  0  0  0  0
   57.4953   35.5408   45.1181 H   0  0  0  0  0  0  0  0  0  0  0  0
   56.0052   33.6364   44.5237 H   0  0  0  0  0  0  0  0  0  0  0  0
   63.1228   31.2112   48.3088 H   0  0  0  0  0  0  0  0  0  0  0  0
   62.7077   30.0912   46.9672 H   0  0  0  0  0  0  0  0  0  0  0  0
   62.0667   31.7692   46.9672 H   0  0  0  0  0  0  0  0  0  0  0  0
  1  2  1  0
  2  3  1  0
  3  4  1  0
  4  5  1  0
  3  6  1  0
  6  7  1  0
  7  8  1  0
  8  9  1  0
  9 10  2  0
 10 11  1  0
 11 12  2  0
 12 13  1  0
 13 14  2  0
 14 15  1  0
 15 16  2  0
 16 17  1  0
 16 18  1  0
 18 19  2  0
 19 20  1  0
 20 21  2  0
 21 22  1  0
 22 23  1  0
 23 24  2  0
 24 25  1  0
 25 26  2  0
 26 27  1  0
 26 28  1  0
 28 29  2  0
 29 30  1  0
 30 31  2  0
 31 32  1  0
 32 33  2  0
 21 34  1  0
 34 35  1  0
 34 36  2  0
 36  9  1  0
 15 10  1  0
 36 18  1  0
 32 23  1  0
 30 24  1  0
  1 37  1  0
  1 38  1  0
  1 39  1  0
  2 40  1  0
  2 41  1  0
  4 42  1  0
  4 43  1  0
  5 44  1  0
  5 45  1  0
  5 46  1  0
  6 47  1  0
  6 48  1  0
  7 49  1  0
  7 50  1  0
  8 51  1  0
 11 52  1  0
 12 53  1  0
 13 54  1  0
 14 55  1  0
 17 56  1  0
 17 57  1  0
 17 58  1  0
 19 59  1  0
 20 60  1  0
 22 61  1  0
 22 62  1  0
 25 63  1  0
 27 64  1  0
 27 65  1  0
 27 66  1  0
 28 67  1  0
 29 68  1  0
 35 69  1  0
 35 70  1  0
 35 71  1  0
M  CHG  2  16   1  34   1
M  END
>  <smiles>  (16) 
CCN(CC)CCNc1c2ccccc2[n+](C)c2ccc(CC3=c4cc(C)ccc4=NC3=O)[n+](C)c12

>  <score_type>  (16) 
oracle

>  <origin>  (16) 
adg

>  <m_score__min__energy>  (16) 
-6.7599999999999998

>  <m_primary>  (16) 
energy

$$$$
18:0
     RDKit          3D

 45 46  0  0  0  0  0  0  0  0999 V2000
   56.8070   26.7910   45.9430 C   0  0  0  0  0  0  0  0  0  0  0  0
   57.7310   27.6240   45.0970 C   0  0  0  0  0  0  0  0  0  0  0  0
   58.1330   26.9080   43.8220 C   0  0  0  0  0  0  0  0  0  0  0  0
   58.9330   28.0420   45.8790 C   0  0  0  0  0  0  0  0  0  0  0  0
   57.0100   28.8740   44.6670 C   0  0  0  0  0  0  0  0  0  0  0  0
   55.9500   29.2540   45.2450 O   0  0  0  0  0  0  0  0  0  0  0  0
   57.5820   29.5880   43.5910 N   0  0  0  0  0  0  0  0  0  0  0  0
   56.9620   30.7980   43.1110 C   0  0  0  0  0  0  0  0  0  0  0  0
   57.4500   32.0450   43.7870 C   0  0  0  0  0  0  0  0  0  0  0  0
   57.3140   31.9820   45.2320 N   0  0  0  0  0  0  0  0  0  0  0  0
   56.8860   33.2930   45.7240 C   0  0  0  0  0  0  0  0  0  0  0  0
   57.5710   33.4830   47.0590 C   0  0  0  0  0  0  0  0  0  0  0  0
   58.9780   33.7800   46.9050 N   0  0  0  0  0  0  0  0  0  0  0  0
   59.4480   34.9540   46.4000 C   0  0  0  0  0  0  0  0  0  0  0  0
   60.7960   34.9230   46.3860 N   0  0  0  0  0  0  0  0  0  0  0  0
   61.2110   33.7250   46.8840 C   0  0  0  0  0  0  0  0  0  0  0  0
   62.4650   33.1790   47.0890 C   0  0  0  0  0  0  0  0  0  0  0  0
   62.5830   31.8930   47.6280 C   0  0  0  0  0  0  0  0  0  0  0  0
   61.4150   31.2150   47.9370 C   0  0  0  0  0  0  0  0  0  0  0  0
   61.5460   29.9580   48.4650 F   0  0  0  0  0  0  0  0  0  0  0  0
   60.1620   31.7610   47.7330 C   0  0  0  0  0  0  0  0  0  0  0  0
   60.0550   33.0290   47.2000 C   0  0  0  0  0  0  0  0  0  0  0  0
   57.0150   26.9785   47.0068 H   0  0  0  0  0  0  0  0  0  0  0  0
   55.7638   27.0598   45.7204 H   0  0  0  0  0  0  0  0  0  0  0  0
   56.9666   25.7256   45.7204 H   0  0  0  0  0  0  0  0  0  0  0  0
   58.6571   25.9746   44.0753 H   0  0  0  0  0  0  0  0  0  0  0  0
   57.2336   26.6753   43.2330 H   0  0  0  0  0  0  0  0  0  0  0  0
   58.7999   27.5547   43.2330 H   0  0  0  0  0  0  0  0  0  0  0  0
   58.7152   27.9663   46.9546 H   0  0  0  0  0  0  0  0  0  0  0  0
   59.7795   27.3855   45.6292 H   0  0  0  0  0  0  0  0  0  0  0  0
   59.1895   29.0821   45.6292 H   0  0  0  0  0  0  0  0  0  0  0  0
   58.4580   29.2660   43.1190 H   0  0  0  0  0  0  0  0  0  0  0  0
   57.1655   30.8867   42.0336 H   0  0  0  0  0  0  0  0  0  0  0  0
   55.8882   30.7149   43.3347 H   0  0  0  0  0  0  0  0  0  0  0  0
   58.5118   32.1891   43.5382 H   0  0  0  0  0  0  0  0  0  0  0  0
   56.8343   32.8832   43.4288 H   0  0  0  0  0  0  0  0  0  0  0  0
   56.6800   31.2300   45.5390 H   0  0  0  0  0  0  0  0  0  0  0  0
   57.1917   34.0828   45.0220 H   0  0  0  0  0  0  0  0  0  0  0  0
   55.7918   33.3483   45.8219 H   0  0  0  0  0  0  0  0  0  0  0  0
   57.0879   34.3155   47.5915 H   0  0  0  0  0  0  0  0  0  0  0  0
   57.4804   32.5445   47.6256 H   0  0  0  0  0  0  0  0  0  0  0  0
   58.8265   35.7945   46.0577 H   0  0  0  0  0  0  0  0  0  0  0  0
   63.3664   33.7535   46.8293 H   0  0  0  0  0  0  0  0  0  0  0  0
   63.5688   31.4363   47.8003 H   0  0  0  0  0  0  0  0  0  0  0  0
   59.2585   31.1900   47.9931 H   0  0  0  0  0  0  0  0  0  0  0  0
  1  2  1  0
  2  3  1  0
  2  4  1  0
  2  5  1  0
  5  6  2  0
  5  7  1  0
  7  8  1  0
  8  9  1  0
  9 10  1  0
 10 11  1  0
 11 12  1  0
 12 13  1  0
 13 14  1  0
 14 15  2  0
 15 16  1  0
 16 17  2  0
 17 18  1  0
 18 19  2  0
 19 20  1  0
 19 21  1  0
 21 22  2  0
 22 13  1  0
 22 16  1  0
  1 23  1  0
  1 24  1  0
  1 25  1  0
  3 26  1  0
  3 27  1  0
  3 28  1  0
  4 29  1  0
  4 30  1  0
  4 31  1  0
  7 32  1  0
  8 33  1  0
  8 34  1  0
  9 35  1  0
  9 36  1  0
 10 37  1  0
 11 38  1  0
 11 39  1  0
 12 40  1  0
 12 41  1  0
 14 42  1  0
 17 43  1  0
 18 44  1  0
 21 45  1  0
M  END
>  <smiles>  (17) 
CC(C)(C)C(=O)NCCNCCn1cnc2ccc(F)cc21

>  <score_type>  (17) 
oracle

>  <origin>  (17) 
adg

>  <m_score__min__energy>  (17) 
-6.9500000000000002

>  <m_primary>  (17) 
energy

$$$$
19:0
     RDKit          3D

 50 53  0  0  0  0  0  0  0  0999 V2000
   56.9070   26.5740   45.7240 C   0  0  0  0  0  0  0  0  0  0  0  0
   57.0590   27.8040   44.8510 C   0  0  0  0  0  0  0  0  0  0  0  0
   56.0560   28.7520   45.2430 N   0  0  0  0  0  0  0  0  0  0  0  0
   55.7660   29.7150   44.2140 C   0  0  0  0  0  0  0  0  0  0  0  0
   56.9540   29.9820   43.3180 C   0  0  0  0  0  0  0  0  0  0  0  0
   57.9300   30.8860   44.0380 C   0  0  0  0  0  0  0  0  0  0  0  0
   57.5870   31.0450   45.4430 N   0  0  0  0  0  0  0  0  0  0  0  0
   58.5580   31.6650   46.2750 C   0  0  0  0  0  0  0  0  0  0  0  0
   59.1660   30.9690   47.3060 C   0  0  0  0  0  0  0  0  0  0  0  0
   60.1180   31.5550   48.1360 C   0  0  0  0  0  0  0  0  0  0  0  0
   60.4780   32.8570   47.9450 N   0  0  0  0  0  0  0  0  0  0  0  0
   61.4530   33.4270   48.8280 C   0  0  0  0  0  0  0  0  0  0  0  0
   59.8860   33.5190   46.9450 C   0  0  0  0  0  0  0  0  0  0  0  0
   60.2140   34.8510   46.6980 C   0  0  0  0  0  0  0  0  0  0  0  0
   59.6200   35.5700   45.6690 C   0  0  0  0  0  0  0  0  0  0  0  0
   58.6800   34.9800   44.8560 C   0  0  0  0  0  0  0  0  0  0  0  0
   58.3360   33.6680   45.0760 C   0  0  0  0  0  0  0  0  0  0  0  0
   58.9390   32.9720   46.1050 C   0  0  0  0  0  0  0  0  0  0  0  0
   60.5110   30.5110   49.0710 C   0  0  0  0  0  0  0  0  0  0  0  0
   61.4030   30.4740   50.1140 C   0  0  0  0  0  0  0  0  0  0  0  0
   61.5860   29.3120   50.8600 C   0  0  0  0  0  0  0  0  0  0  0  0
   60.8850   28.1510   50.5880 C   0  0  0  0  0  0  0  0  0  0  0  0
   59.9960   28.1850   49.5490 C   0  0  0  0  0  0  0  0  0  0  0  0
   59.8190   29.3370   48.8170 C   0  0  0  0  0  0  0  0  0  0  0  0
   58.9450   29.5830   47.6910 C   0  0  0  0  0  0  0  0  0  0  0  0
   58.1590   28.7520   47.1680 O   0  0  0  0  0  0  0  0  0  0  0  0
   56.9435   26.8692   46.7830 H   0  0  0  0  0  0  0  0  0  0  0  0
   55.9423   26.0903   45.5112 H   0  0  0  0  0  0  0  0  0  0  0  0
   57.7250   25.8700   45.5112 H   0  0  0  0  0  0  0  0  0  0  0  0
   58.0594   28.2396   44.9906 H   0  0  0  0  0  0  0  0  0  0  0  0
   56.9394   27.5373   43.7905 H   0  0  0  0  0  0  0  0  0  0  0  0
   56.2690   29.2200   46.1510 H   0  0  0  0  0  0  0  0  0  0  0  0
   54.9382   29.3341   43.5978 H   0  0  0  0  0  0  0  0  0  0  0  0
   55.5010   30.6615   44.7078 H   0  0  0  0  0  0  0  0  0  0  0  0
   57.4482   29.0311   43.0700 H   0  0  0  0  0  0  0  0  0  0  0  0
   56.6149   30.4691   42.3918 H   0  0  0  0  0  0  0  0  0  0  0  0
   58.9378   30.4512   43.9649 H   0  0  0  0  0  0  0  0  0  0  0  0
   57.8905   31.8774   43.5631 H   0  0  0  0  0  0  0  0  0  0  0  0
   56.6600   30.7170   45.8330 H   0  0  0  0  0  0  0  0  0  0  0  0
   61.1509   33.2504   49.8709 H   0  0  0  0  0  0  0  0  0  0  0  0
   62.4314   32.9586   48.6453 H   0  0  0  0  0  0  0  0  0  0  0  0
   61.5248   34.5093   48.6453 H   0  0  0  0  0  0  0  0  0  0  0  0
   60.9626   35.3454   47.3345 H   0  0  0  0  0  0  0  0  0  0  0  0
   59.9034   36.6198   45.5026 H   0  0  0  0  0  0  0  0  0  0  0  0
   58.2104   35.5506   44.0412 H   0  0  0  0  0  0  0  0  0  0  0  0
   57.5868   33.1764   44.4380 H   0  0  0  0  0  0  0  0  0  0  0  0
   61.9817   31.3753   50.3643 H   0  0  0  0  0  0  0  0  0  0  0  0
   62.3087   29.3178   51.6892 H   0  0  0  0  0  0  0  0  0  0  0  0
   61.0362   27.2381   51.1827 H   0  0  0  0  0  0  0  0  0  0  0  0
   59.4177   27.2840   49.2964 H   0  0  0  0  0  0  0  0  0  0  0  0
  1  2  1  0
  2  3  1  0
  3  4  1  0
  4  5  1  0
  5  6  1  0
  6  7  1  0
  7  8  1  0
  8  9  2  0
  9 10  1  0
 10 11  2  0
 11 12  1  0
 11 13  1  0
 13 14  2  0
 14 15  1  0
 15 16  2  0
 16 17  1  0
 17 18  2  0
 10 19  1  0
 19 20  2  0
 20 21  1  0
 21 22  2  0
 22 23  1  0
 23 24  2  0
 24 25  1  0
 25 26  2  0
 18  8  1  0
 24 19  1  0
 25  9  1  0
 18 13  1  0
  1 27  1  0
  1 28  1  0
  1 29  1  0
  2 30  1  0
  2 31  1  0
  3 32  1  0
  4 33  1  0
  4 34  1  0
  5 35  1  0
  5 36  1  0
  6 37  1  0
  6 38  1  0
  7 39  1  0
 12 40  1  0
 12 41  1  0
 12 42  1  0
 14 43  1  0
 15 44  1  0
 16 45  1  0
 17 46  1  0
 20 47  1  0
 21 48  1  0
 22 49  1  0
 23 50  1  0
M  CHG  1  11   1
M  END
>  <smiles>  (18) 
CCNCCCNc1c2c([n+](C)c3ccccc13)-c1ccccc1C2=O

>  <score_type>  (18) 
oracle

>  <origin>  (18) 
adg

>  <m_score__min__energy>  (18) 
-6.7999999999999998

>  <m_primary>  (18) 
energy

$$$$
20:0
     RDKit          3D

 72 75  0  0  0  0  0  0  0  0999 V2000
   63.0600   33.4570   46.8250 C   0  0  0  0  0  0  0  0  0  0  0  0
   61.5830   33.8390   46.9570 C   0  0  0  0  0  0  0  0  0  0  0  0
   61.1250   33.7050   48.2900 N   0  0  0  0  0  0  0  0  0  0  0  0
   62.0010   34.1370   49.3240 C   0  0  0  0  0  0  0  0  0  0  0  0
   59.7510   34.0370   48.4450 C   0  0  0  0  0  0  0  0  0  0  0  0
   58.8970   32.8060   48.2560 C   0  0  0  0  0  0  0  0  0  0  0  0
   59.6640   31.7220   47.7020 N   0  0  0  0  0  0  0  0  0  0  0  0
   59.2170   30.7960   46.7490 C   0  0  0  0  0  0  0  0  0  0  0  0
   58.7240   31.3020   45.5510 C   0  0  0  0  0  0  0  0  0  0  0  0
   58.7010   32.6600   45.3370 C   0  0  0  0  0  0  0  0  0  0  0  0
   58.2340   33.2470   44.1810 C   0  0  0  0  0  0  0  0  0  0  0  0
   57.7690   32.4180   43.1950 C   0  0  0  0  0  0  0  0  0  0  0  0
   57.7820   31.0320   43.3900 C   0  0  0  0  0  0  0  0  0  0  0  0
   58.2540   30.4790   44.5520 C   0  0  0  0  0  0  0  0  0  0  0  0
   58.2600   29.1460   44.7110 N   0  0  0  0  0  0  0  0  0  0  0  0
   57.7920   28.2050   43.7470 C   0  0  0  0  0  0  0  0  0  0  0  0
   58.7420   28.6340   45.8820 C   0  0  0  0  0  0  0  0  0  0  0  0
   58.7610   27.2620   46.0510 C   0  0  0  0  0  0  0  0  0  0  0  0
   59.2390   26.6610   47.1930 C   0  0  0  0  0  0  0  0  0  0  0  0
   59.7130   27.4990   48.1930 C   0  0  0  0  0  0  0  0  0  0  0  0
   59.7210   28.8690   48.0910 C   0  0  0  0  0  0  0  0  0  0  0  0
   60.1770   29.7420   49.0310 O   0  0  0  0  0  0  0  0  0  0  0  0
   60.7720   29.4490   50.2500 C   0  0  0  0  0  0  0  0  0  0  0  0
   59.8380   29.5010   51.3970 C   0  0  0  0  0  0  0  0  0  0  0  0
   59.4050   30.8150   51.7820 N   0  0  0  0  0  0  0  0  0  0  0  0
   59.5500   30.8650   53.2470 C   0  0  0  0  0  0  0  0  0  0  0  0
   58.0200   30.9690   51.5030 C   0  0  0  0  0  0  0  0  0  0  0  0
   57.4640   32.3280   51.6190 C   0  0  0  0  0  0  0  0  0  0  0  0
   58.3630   33.4130   52.0760 C   0  0  0  0  0  0  0  0  0  0  0  0
   59.8180   33.1640   52.0160 C   0  0  0  0  0  0  0  0  0  0  0  0
   60.2260   31.8930   51.2830 C   0  0  0  0  0  0  0  0  0  0  0  0
   59.2200   29.4270   46.9020 C   0  0  0  0  0  0  0  0  0  0  0  0
   63.5002   33.3431   47.8266 H   0  0  0  0  0  0  0  0  0  0  0  0
   63.1455   32.5072   46.2768 H   0  0  0  0  0  0  0  0  0  0  0  0
   63.5953   34.2463   46.2768 H   0  0  0  0  0  0  0  0  0  0  0  0
   61.4553   34.8844   46.6395 H   0  0  0  0  0  0  0  0  0  0  0  0
   60.9949   33.1599   46.3222 H   0  0  0  0  0  0  0  0  0  0  0  0
   61.5507   33.9149   50.3027 H   0  0  0  0  0  0  0  0  0  0  0  0
   62.9621   33.6096   49.2345 H   0  0  0  0  0  0  0  0  0  0  0  0
   62.1677   35.2206   49.2345 H   0  0  0  0  0  0  0  0  0  0  0  0
   59.5861   34.4432   49.4539 H   0  0  0  0  0  0  0  0  0  0  0  0
   59.4739   34.7877   47.6903 H   0  0  0  0  0  0  0  0  0  0  0  0
   58.4914   32.4973   49.2308 H   0  0  0  0  0  0  0  0  0  0  0  0
   58.0830   33.0500   47.5575 H   0  0  0  0  0  0  0  0  0  0  0  0
   60.6620   31.6050   48.0410 H   0  0  0  0  0  0  0  0  0  0  0  0
   59.0775   33.3164   46.1354 H   0  0  0  0  0  0  0  0  0  0  0  0
   58.2347   34.3398   44.0550 H   0  0  0  0  0  0  0  0  0  0  0  0
   57.3869   32.8397   42.2536 H   0  0  0  0  0  0  0  0  0  0  0  0
   57.4055   30.3727   42.5940 H   0  0  0  0  0  0  0  0  0  0  0  0
   57.3595   27.3354   44.2634 H   0  0  0  0  0  0  0  0  0  0  0  0
   57.0236   28.6769   43.1170 H   0  0  0  0  0  0  0  0  0  0  0  0
   58.6319   27.8770   43.1170 H   0  0  0  0  0  0  0  0  0  0  0  0
   58.3786   26.6250   45.2398 H   0  0  0  0  0  0  0  0  0  0  0  0
   59.2452   25.5671   47.3081 H   0  0  0  0  0  0  0  0  0  0  0  0
   60.1024   27.0424   49.1149 H   0  0  0  0  0  0  0  0  0  0  0  0
   61.1970   28.4360   50.1942 H   0  0  0  0  0  0  0  0  0  0  0  0
   61.5391   30.2175   50.4257 H   0  0  0  0  0  0  0  0  0  0  0  0
   58.9459   28.9134   51.1346 H   0  0  0  0  0  0  0  0  0  0  0  0
   60.3942   29.1017   52.2580 H   0  0  0  0  0  0  0  0  0  0  0  0
   58.6110   30.5412   53.7197 H   0  0  0  0  0  0  0  0  0  0  0  0
   60.3664   30.1965   53.5577 H   0  0  0  0  0  0  0  0  0  0  0  0
   59.7809   31.8946   53.5577 H   0  0  0  0  0  0  0  0  0  0  0  0
   57.8487   30.6268   50.4717 H   0  0  0  0  0  0  0  0  0  0  0  0
   57.5045   30.3812   52.2768 H   0  0  0  0  0  0  0  0  0  0  0  0
   57.0873   32.6127   50.6255 H   0  0  0  0  0  0  0  0  0  0  0  0
   56.7071   32.2471   52.4131 H   0  0  0  0  0  0  0  0  0  0  0  0
   58.1542   34.2971   51.4557 H   0  0  0  0  0  0  0  0  0  0  0  0
   58.1422   33.5272   53.1476 H   0  0  0  0  0  0  0  0  0  0  0  0
   60.2891   34.0175   51.5064 H   0  0  0  0  0  0  0  0  0  0  0  0
   60.1504   33.0376   53.0569 H   0  0  0  0  0  0  0  0  0  0  0  0
   60.0657   32.0163   50.2018 H   0  0  0  0  0  0  0  0  0  0  0  0
   61.2910   31.6760   51.4522 H   0  0  0  0  0  0  0  0  0  0  0  0
  1  2  1  0
  2  3  1  0
  3  4  1  0
  3  5  1  0
  5  6  1  0
  6  7  1  0
  7  8  1  0
  8  9  2  0
  9 10  1  0
 10 11  2  0
 11 12  1  0
 12 13  2  0
 13 14  1  0
 14 15  2  0
 15 16  1  0
 15 17  1  0
 17 18  2  0
 18 19  1  0
 19 20  2  0
 20 21  1  0
 21 22  1  0
 22 23  1  0
 23 24  1  0
 24 25  1  0
 25 26  1  0
 25 27  1  0
 27 28  1  0
 28 29  1  0
 29 30  1  0
 30 31  1  0
 21 32  2  0
 32  8  1  0
 14  9  1  0
 32 17  1  0
 31 25  1  0
  1 33  1  0
  1 34  1  0
  1 35  1  0
  2 36  1  0
  2 37  1  0
  4 38  1  0
  4 39  1  0
  4 40  1  0
  5 41  1  0
  5 42  1  0
  6 43  1  0
  6 44  1  0
  7 45  1  0
 10 46  1  0
 11 47  1  0
 12 48  1  0
 13 49  1  0
 16 50  1  0
 16 51  1  0
 16 52  1  0
 18 53  1  0
 19 54  1  0
 20 55  1  0
 23 56  1  0
 23 57  1  0
 24 58  1  0
 24 59  1  0
 26 60  1  0
 26 61  1  0
 26 62  1  0
 27 63  1  0
 27 64  1  0
 28 65  1  0
 28 66  1  0
 29 67  1  0
 29 68  1  0
 30 69  1  0
 30 70  1  0
 31 71  1  0
 31 72  1  0
M  CHG  2  15   1  25   1
M  END
>  <smiles>  (19) 
CCN(C)CCNc1c2ccccc2[n+](C)c2cccc(OCC[N+]3(C)CCCCC3)c12

>  <score_type>  (19) 
oracle

>  <origin>  (19) 
adg

>  <m_score__min__energy>  (19) 
-5.1200000000000001

>  <m_primary>  (19) 
energy

$$$$
21:0
     RDKit          3D

 61 63  0  0  0  0  0  0  0  0999 V2000
   57.7790   31.4460   51.1980 C   0  0  0  0  0  0  0  0  0  0  0  0
   58.5170   31.1680   49.8980 C   0  0  0  0  0  0  0  0  0  0  0  0
   59.9050   31.3600   50.1540 N   0  0  0  0  0  0  0  0  0  0  0  0
   60.5970   30.1760   50.5590 C   0  0  0  0  0  0  0  0  0  0  0  0
   60.2600   32.5340   50.8810 C   0  0  0  0  0  0  0  0  0  0  0  0
   60.0270   33.8310   50.1640 C   0  0  0  0  0  0  0  0  0  0  0  0
   61.0700   34.2230   49.3690 O   0  0  0  0  0  0  0  0  0  0  0  0
   62.3040   34.2230   49.9700 C   0  0  0  0  0  0  0  0  0  0  0  0
   63.3150   33.2970   49.3300 C   0  0  0  0  0  0  0  0  0  0  0  0
   63.5640   33.7950   48.0690 O   0  0  0  0  0  0  0  0  0  0  0  0
   63.3410   32.9080   47.0510 C   0  0  0  0  0  0  0  0  0  0  0  0
   62.7240   31.5850   47.4840 C   0  0  0  0  0  0  0  0  0  0  0  0
   61.3260   31.8370   47.7060 N   0  0  0  0  0  0  0  0  0  0  0  0
   60.2760   31.6640   46.8130 C   0  0  0  0  0  0  0  0  0  0  0  0
   59.8520   30.3930   46.4890 C   0  0  0  0  0  0  0  0  0  0  0  0
   58.8330   30.3000   45.5640 C   0  0  0  0  0  0  0  0  0  0  0  0
   58.2460   31.3470   44.9800 N   0  0  0  0  0  0  0  0  0  0  0  0
   57.1910   31.0690   44.0290 C   0  0  0  0  0  0  0  0  0  0  0  0
   58.6400   32.6350   45.2750 C   0  0  0  0  0  0  0  0  0  0  0  0
   58.1380   33.7650   44.7440 C   0  0  0  0  0  0  0  0  0  0  0  0
   58.6800   34.9590   45.1560 C   0  0  0  0  0  0  0  0  0  0  0  0
   59.9750   34.4180   46.3730 S   0  0  0  0  0  0  0  0  0  0  0  0
   59.6450   32.7460   46.1860 C   0  0  0  0  0  0  0  0  0  0  0  0
   58.3860   28.9120   45.2270 C   0  0  0  0  0  0  0  0  0  0  0  0
   58.1370   28.1240   46.5040 C   0  0  0  0  0  0  0  0  0  0  0  0
   59.1500   28.3910   47.5760 C   0  0  0  0  0  0  0  0  0  0  0  0
   60.3870   29.1370   47.0410 C   0  0  0  0  0  0  0  0  0  0  0  0
   58.4308   31.2005   52.0494 H   0  0  0  0  0  0  0  0  0  0  0  0
   57.5028   32.5098   51.2425 H   0  0  0  0  0  0  0  0  0  0  0  0
   56.8695   30.8288   51.2425 H   0  0  0  0  0  0  0  0  0  0  0  0
   58.3329   30.1331   49.5737 H   0  0  0  0  0  0  0  0  0  0  0  0
   58.1698   31.8404   49.0997 H   0  0  0  0  0  0  0  0  0  0  0  0
   60.6262   30.1260   51.6575 H   0  0  0  0  0  0  0  0  0  0  0  0
   60.0731   29.2924   50.1655 H   0  0  0  0  0  0  0  0  0  0  0  0
   61.6240   30.1988   50.1655 H   0  0  0  0  0  0  0  0  0  0  0  0
   59.6705   32.5491   51.8096 H   0  0  0  0  0  0  0  0  0  0  0  0
   61.3456   32.4706   51.0469 H   0  0  0  0  0  0  0  0  0  0  0  0
   59.1330   33.7214   49.5325 H   0  0  0  0  0  0  0  0  0  0  0  0
   59.9076   34.6047   50.9367 H   0  0  0  0  0  0  0  0  0  0  0  0
   62.7042   35.2469   49.9324 H   0  0  0  0  0  0  0  0  0  0  0  0
   62.1515   33.8575   50.9962 H   0  0  0  0  0  0  0  0  0  0  0  0
   64.2423   33.2809   49.9214 H   0  0  0  0  0  0  0  0  0  0  0  0
   62.9330   32.2667   49.2807 H   0  0  0  0  0  0  0  0  0  0  0  0
   62.6625   33.3817   46.3262 H   0  0  0  0  0  0  0  0  0  0  0  0
   64.3270   32.6671   46.6270 H   0  0  0  0  0  0  0  0  0  0  0  0
   62.8529   30.8297   46.6947 H   0  0  0  0  0  0  0  0  0  0  0  0
   63.2074   31.2009   48.3944 H   0  0  0  0  0  0  0  0  0  0  0  0
   61.0880   32.1940   48.6830 H   0  0  0  0  0  0  0  0  0  0  0  0
   56.2648   30.8249   44.5699 H   0  0  0  0  0  0  0  0  0  0  0  0
   57.0243   31.9539   43.3972 H   0  0  0  0  0  0  0  0  0  0  0  0
   57.4821   30.2169   43.3972 H   0  0  0  0  0  0  0  0  0  0  0  0
   57.3227   33.7342   44.0063 H   0  0  0  0  0  0  0  0  0  0  0  0
   58.4136   35.9794   44.8434 H   0  0  0  0  0  0  0  0  0  0  0  0
   57.4563   28.9604   44.6411 H   0  0  0  0  0  0  0  0  0  0  0  0
   59.1700   28.4116   44.6397 H   0  0  0  0  0  0  0  0  0  0  0  0
   57.1422   28.3912   46.8901 H   0  0  0  0  0  0  0  0  0  0  0  0
   58.2106   27.0571   46.2465 H   0  0  0  0  0  0  0  0  0  0  0  0
   58.6809   29.0021   48.3612 H   0  0  0  0  0  0  0  0  0  0  0  0
   59.4871   27.4204   47.9688 H   0  0  0  0  0  0  0  0  0  0  0  0
   61.0988   29.3421   47.8542 H   0  0  0  0  0  0  0  0  0  0  0  0
   60.9355   28.5506   46.2892 H   0  0  0  0  0  0  0  0  0  0  0  0
  1  2  1  0
  2  3  1  0
  3  4  1  0
  3  5  1  0
  5  6  1  0
  6  7  1  0
  7  8  1  0
  8  9  1  0
  9 10  1  0
 10 11  1  0
 11 12  1  0
 12 13  1  0
 13 14  1  0
 14 15  2  0
 15 16  1  0
 16 17  2  0
 17 18  1  0
 17 19  1  0
 19 20  1  0
 20 21  2  0
 21 22  1  0
 22 23  1  0
 16 24  1  0
 24 25  1  0
 25 26  1  0
 26 27  1  0
 23 14  1  0
 27 15  1  0
 23 19  2  0
  1 28  1  0
  1 29  1  0
  1 30  1  0
  2 31  1  0
  2 32  1  0
  4 33  1  0
  4 34  1  0
  4 35  1  0
  5 36  1  0
  5 37  1  0
  6 38  1  0
  6 39  1  0
  8 40  1  0
  8 41  1  0
  9 42  1  0
  9 43  1  0
 11 44  1  0
 11 45  1  0
 12 46  1  0
 12 47  1  0
 13 48  1  0
 18 49  1  0
 18 50  1  0
 18 51  1  0
 20 52  1  0
 21 53  1  0
 24 54  1  0
 24 55  1  0
 25 56  1  0
 25 57  1  0
 26 58  1  0
 26 59  1  0
 27 60  1  0
 27 61  1  0
M  CHG  1  17   1
M  END
>  <smiles>  (20) 
CCN(C)CCOCCOCCNc1c2c([n+](C)c3ccsc13)CCCC2

>  <score_type>  (20) 
oracle

>  <origin>  (20) 
adg

>  <m_score__min__energy>  (20) 
-6.1699999999999999

>  <m_primary>  (20) 
energy

$$$$
