0:0
     RDKit          3D

 43 45  0  0  0  0  0  0  0  0999 V2000
   59.9780   30.1110   46.1650 C   0  0  0  0  0  0  0  0  0  0  0  0
   59.3760   29.7110   44.8370 C   0  0  0  0  0  0  0  0  0  0  0  0
   57.9410   29.7860   44.8110 N   0  0  0  0  0  0  0  0  0  0  0  0
   57.2800   30.8780   44.3410 C   0  0  0  0  0  0  0  0  0  0  0  0
   57.9910   32.3740   43.6750 S   0  0  0  0  0  0  0  0  0  0  0  0
   57.4430   33.8570   44.5310 C   0  0  0  0  0  0  0  0  0  0  0  0
   57.0590   33.4900   45.9360 C   0  0  0  0  0  0  0  0  0  0  0  0
   58.1270   33.7500   46.8840 N   0  0  0  0  0  0  0  0  0  0  0  0
   59.4380   33.7580   46.2450 C   0  0  0  0  0  0  0  0  0  0  0  0
   60.3120   34.5970   47.1590 C   0  0  0  0  0  0  0  0  0  0  0  0
   60.0300   34.2990   48.6130 C   0  0  0  0  0  0  0  0  0  0  0  0
   59.3220   32.9950   48.8150 C   0  0  0  0  0  0  0  0  0  0  0  0
   58.2200   32.6840   47.8730 C   0  0  0  0  0  0  0  0  0  0  0  0
   55.9620   30.6350   44.4590 N   0  0  0  0  0  0  0  0  0  0  0  0
   55.7760   29.4250   44.9890 N   0  0  0  0  0  0  0  0  0  0  0  0
   57.0070   28.9030   45.2060 C   0  0  0  0  0  0  0  0  0  0  0  0
   57.2440   27.6170   45.7700 C   0  0  0  0  0  0  0  0  0  0  0  0
   58.3950   26.9630   46.2460 C   0  0  0  0  0  0  0  0  0  0  0  0
   58.3090   25.7480   46.7150 C   0  0  0  0  0  0  0  0  0  0  0  0
   57.0330   25.0940   46.7410 C   0  0  0  0  0  0  0  0  0  0  0  0
   55.9050   26.3310   46.0370 S   0  0  0  0  0  0  0  0  0  0  0  0
   59.3653   29.7039   46.9828 H   0  0  0  0  0  0  0  0  0  0  0  0
   61.0004   29.7120   46.2392 H   0  0  0  0  0  0  0  0  0  0  0  0
   60.0063   31.2081   46.2392 H   0  0  0  0  0  0  0  0  0  0  0  0
   59.7735   30.3796   44.0592 H   0  0  0  0  0  0  0  0  0  0  0  0
   59.6477   28.6594   44.6628 H   0  0  0  0  0  0  0  0  0  0  0  0
   58.2584   34.5950   44.5512 H   0  0  0  0  0  0  0  0  0  0  0  0
   56.5785   34.2926   44.0086 H   0  0  0  0  0  0  0  0  0  0  0  0
   56.1765   34.0787   46.2269 H   0  0  0  0  0  0  0  0  0  0  0  0
   56.8461   32.4110   45.9561 H   0  0  0  0  0  0  0  0  0  0  0  0
   59.8344   32.7353   46.1619 H   0  0  0  0  0  0  0  0  0  0  0  0
   59.3984   34.1630   45.2230 H   0  0  0  0  0  0  0  0  0  0  0  0
   61.3685   34.3764   46.9463 H   0  0  0  0  0  0  0  0  0  0  0  0
   60.0911   35.6584   46.9728 H   0  0  0  0  0  0  0  0  0  0  0  0
   60.9859   34.2670   49.1563 H   0  0  0  0  0  0  0  0  0  0  0  0
   59.3703   35.0942   48.9905 H   0  0  0  0  0  0  0  0  0  0  0  0
   60.0698   32.1928   48.7300 H   0  0  0  0  0  0  0  0  0  0  0  0
   58.8448   33.0746   49.8029 H   0  0  0  0  0  0  0  0  0  0  0  0
   58.4253   31.7288   47.3676 H   0  0  0  0  0  0  0  0  0  0  0  0
   57.2713   32.6041   48.4239 H   0  0  0  0  0  0  0  0  0  0  0  0
   59.3679   27.4758   46.2229 H   0  0  0  0  0  0  0  0  0  0  0  0
   59.2060   25.2310   47.0865 H   0  0  0  0  0  0  0  0  0  0  0  0
   56.7941   24.0827   47.1019 H   0  0  0  0  0  0  0  0  0  0  0  0
  1  2  1  0
  2  3  1  0
  3  4  1  0
  4  5  1  0
  5  6  1  0
  6  7  1  0
  7  8  1  0
  8  9  1  0
  9 10  1  0
 10 11  1  0
 11 12  1  0
 12 13  1  0
  4 14  2  0
 14 15  1  0
 15 16  2  0
 16 17  1  0
 17 18  2  0
 18 19  1  0
 19 20  2  0
 20 21  1  0
 16  3  1  0
 21 17  1  0
 13  8  1  0
  1 22  1  0
  1 23  1  0
  1 24  1  0
  2 25  1  0
  2 26  1  0
  6 27  1  0
  6 28  1  0
  7 29  1  0
  7 30  1  0
  9 31  1  0
  9 32  1  0
 10 33  1  0
 10 34  1  0
 11 35  1  0
 11 36  1  0
 12 37  1  0
 12 38  1  0
 13 39  1  0
 13 40  1  0
 18 41  1  0
 19 42  1  0
 20 43  1  0
M  END
>  <smiles>  (1) 
CCn1c(SCCN2CCCCC2)nnc1-c1cccs1

>  <score_type>  (1) 
oracle

>  <origin>  (1) 
adg

>  <m_score__min__energy>  (1) 
-7.9000000000000004

>  <m_primary>  (1) 
energy

$$$$
1:0
     RDKit          3D

 56 59  0  0  0  0  0  0  0  0999 V2000
   58.8350   33.4330   44.6520 C   0  0  0  0  0  0  0  0  0  0  0  0
   59.3100   34.6990   45.2970 C   0  0  0  0  0  0  0  0  0  0  0  0
   59.9660   34.3840   46.6190 N   0  0  0  0  0  0  0  0  0  0  0  0
   60.3910   32.9860   46.4090 C   0  0  0  0  0  0  0  0  0  0  0  0
   61.6030   32.5790   47.1560 C   0  0  0  0  0  0  0  0  0  0  0  0
   58.7920   34.4390   47.5170 C   0  0  0  0  0  0  0  0  0  0  0  0
   57.9980   33.1980   47.6070 C   0  0  0  0  0  0  0  0  0  0  0  0
   57.9340   32.5850   48.9270 N   0  0  0  0  0  0  0  0  0  0  0  0
   58.9690   31.7740   49.4620 C   0  0  0  0  0  0  0  0  0  0  0  0
   59.6480   32.0590   50.6280 C   0  0  0  0  0  0  0  0  0  0  0  0
   59.3000   33.1660   51.3700 C   0  0  0  0  0  0  0  0  0  0  0  0
   59.9550   33.4720   52.5460 C   0  0  0  0  0  0  0  0  0  0  0  0
   60.9860   32.6860   53.0360 C   0  0  0  0  0  0  0  0  0  0  0  0
   61.3390   31.5640   52.2890 C   0  0  0  0  0  0  0  0  0  0  0  0
   60.6830   31.2510   51.1050 C   0  0  0  0  0  0  0  0  0  0  0  0
   61.0630   30.1540   50.4440 N   0  0  0  0  0  0  0  0  0  0  0  0
   62.1330   29.3280   50.9520 C   0  0  0  0  0  0  0  0  0  0  0  0
   60.4210   29.8390   49.2960 C   0  0  0  0  0  0  0  0  0  0  0  0
   60.6250   28.7740   48.4660 N   0  0  0  0  0  0  0  0  0  0  0  0
   59.7500   28.8410   47.4330 C   0  0  0  0  0  0  0  0  0  0  0  0
   59.5680   27.9970   46.3520 C   0  0  0  0  0  0  0  0  0  0  0  0
   58.5730   28.3060   45.4310 C   0  0  0  0  0  0  0  0  0  0  0  0
   57.8000   29.4330   45.6120 C   0  0  0  0  0  0  0  0  0  0  0  0
   56.5490   29.8400   44.4820 S   0  0  0  0  0  0  0  0  0  0  0  0
   56.9290   29.4430   43.0680 O   0  0  0  0  0  0  0  0  0  0  0  0
   56.2780   31.3250   44.4270 O   0  0  0  0  0  0  0  0  0  0  0  0
   55.1430   28.9890   44.8950 O   0  0  0  0  0  0  0  0  0  0  0  0
   58.0160   30.2640   46.7200 C   0  0  0  0  0  0  0  0  0  0  0  0
   58.9950   29.9750   47.6420 C   0  0  0  0  0  0  0  0  0  0  0  0
   59.3870   30.6170   48.7910 C   0  0  0  0  0  0  0  0  0  0  0  0
   58.5619   32.7051   45.4302 H   0  0  0  0  0  0  0  0  0  0  0  0
   57.9563   33.6477   44.0261 H   0  0  0  0  0  0  0  0  0  0  0  0
   59.6381   33.0167   44.0261 H   0  0  0  0  0  0  0  0  0  0  0  0
   60.0375   35.1944   44.6372 H   0  0  0  0  0  0  0  0  0  0  0  0
   58.4509   35.3645   45.4672 H   0  0  0  0  0  0  0  0  0  0  0  0
   59.5644   32.3287   46.7166 H   0  0  0  0  0  0  0  0  0  0  0  0
   60.6454   32.9001   45.3423 H   0  0  0  0  0  0  0  0  0  0  0  0
   61.4071   32.6448   48.2364 H   0  0  0  0  0  0  0  0  0  0  0  0
   61.8652   31.5435   46.8932 H   0  0  0  0  0  0  0  0  0  0  0  0
   62.4370   33.2464   46.8932 H   0  0  0  0  0  0  0  0  0  0  0  0
   59.1503   34.6853   48.5274 H   0  0  0  0  0  0  0  0  0  0  0  0
   58.1195   35.1954   47.0863 H   0  0  0  0  0  0  0  0  0  0  0  0
   56.9701   33.4305   47.2918 H   0  0  0  0  0  0  0  0  0  0  0  0
   58.5074   32.4678   46.9610 H   0  0  0  0  0  0  0  0  0  0  0  0
   57.0960   32.7130   49.5680 H   0  0  0  0  0  0  0  0  0  0  0  0
   58.4860   33.8176   51.0194 H   0  0  0  0  0  0  0  0  0  0  0  0
   59.6498   34.3654   53.1105 H   0  0  0  0  0  0  0  0  0  0  0  0
   61.5031   32.9370   53.9739 H   0  0  0  0  0  0  0  0  0  0  0  0
   62.1524   30.9138   52.6434 H   0  0  0  0  0  0  0  0  0  0  0  0
   62.1159   29.3412   52.0518 H   0  0  0  0  0  0  0  0  0  0  0  0
   62.0003   28.2958   50.5956 H   0  0  0  0  0  0  0  0  0  0  0  0
   63.0979   29.7177   50.5956 H   0  0  0  0  0  0  0  0  0  0  0  0
   61.3280   28.0070   48.5630 H   0  0  0  0  0  0  0  0  0  0  0  0
   60.1955   27.1027   46.2241 H   0  0  0  0  0  0  0  0  0  0  0  0
   58.4034   27.6538   44.5616 H   0  0  0  0  0  0  0  0  0  0  0  0
   57.3932   31.1607   46.8542 H   0  0  0  0  0  0  0  0  0  0  0  0
  1  2  1  0
  2  3  1  0
  3  4  1  0
  4  5  1  0
  3  6  1  0
  6  7  1  0
  7  8  1  0
  8  9  1  0
  9 10  2  0
 10 11  1  0
 11 12  2  0
 12 13  1  0
 13 14  2  0
 14 15  1  0
 15 16  2  0
 16 17  1  0
 16 18  1  0
 18 19  1  0
 19 20  1  0
 20 21  2  0
 21 22  1  0
 22 23  2  0
 23 24  1  0
 24 25  2  0
 24 26  2  0
 24 27  1  0
 23 28  1  0
 28 29  2  0
 29 30  1  0
 30  9  1  0
 15 10  1  0
 30 18  2  0
 29 20  1  0
  1 31  1  0
  1 32  1  0
  1 33  1  0
  2 34  1  0
  2 35  1  0
  4 36  1  0
  4 37  1  0
  5 38  1  0
  5 39  1  0
  5 40  1  0
  6 41  1  0
  6 42  1  0
  7 43  1  0
  7 44  1  0
  8 45  1  0
 11 46  1  0
 12 47  1  0
 13 48  1  0
 14 49  1  0
 17 50  1  0
 17 51  1  0
 17 52  1  0
 19 53  1  0
 21 54  1  0
 22 55  1  0
 28 56  1  0
M  CHG  2  16   1  27  -1
M  END
>  <smiles>  (2) 
CCN(CC)CCNc1c2ccccc2[n+](C)c2[nH]c3ccc(S(=O)(=O)[O-])cc3c12

>  <score_type>  (2) 
oracle

>  <origin>  (2) 
adg

>  <m_score__min__energy>  (2) 
-9.9000000000000004

>  <m_primary>  (2) 
energy

$$$$
2:0
     RDKit          3D

 56 58  0  0  0  0  0  0  0  0999 V2000
   60.1180   26.2890   46.3960 C   0  0  0  0  0  0  0  0  0  0  0  0
   59.0050   27.1220   46.7280 N   0  0  0  0  0  0  0  0  0  0  0  0
   59.2530   27.8590   47.9290 C   0  0  0  0  0  0  0  0  0  0  0  0
   57.7910   26.3310   46.7490 C   0  0  0  0  0  0  0  0  0  0  0  0
   56.6830   27.0800   46.0020 C   0  0  0  0  0  0  0  0  0  0  0  0
   57.2170   28.3450   45.5060 N   0  0  0  0  0  0  0  0  0  0  0  0
   56.4000   29.2490   44.7420 C   0  0  0  0  0  0  0  0  0  0  0  0
   55.1910   29.0080   44.4770 O   0  0  0  0  0  0  0  0  0  0  0  0
   57.0560   30.4650   44.2830 C   0  0  0  0  0  0  0  0  0  0  0  0
   56.8680   30.7590   42.9230 C   0  0  0  0  0  0  0  0  0  0  0  0
   57.4080   31.8860   42.3410 C   0  0  0  0  0  0  0  0  0  0  0  0
   58.1460   32.7200   43.1540 C   0  0  0  0  0  0  0  0  0  0  0  0
   58.3260   32.4280   44.4780 C   0  0  0  0  0  0  0  0  0  0  0  0
   59.0740   33.3070   45.2300 C   0  0  0  0  0  0  0  0  0  0  0  0
   59.2440   32.9950   46.5630 C   0  0  0  0  0  0  0  0  0  0  0  0
   60.0030   33.8910   47.3030 C   0  0  0  0  0  0  0  0  0  0  0  0
   60.2360   33.6680   48.6500 C   0  0  0  0  0  0  0  0  0  0  0  0
   61.0050   34.5950   49.3580 O   0  0  0  0  0  0  0  0  0  0  0  0
   62.2280   34.1390   49.8790 C   0  0  0  0  0  0  0  0  0  0  0  0
   63.3690   34.2060   48.8790 C   0  0  0  0  0  0  0  0  0  0  0  0
   63.3230   33.2090   47.9010 N   0  0  0  0  0  0  0  0  0  0  0  0
   63.2800   33.5160   46.5410 C   0  0  0  0  0  0  0  0  0  0  0  0
   63.0520   31.9100   48.3650 C   0  0  0  0  0  0  0  0  0  0  0  0
   59.6990   32.5420   49.2340 C   0  0  0  0  0  0  0  0  0  0  0  0
   58.9340   31.6390   48.4870 C   0  0  0  0  0  0  0  0  0  0  0  0
   58.6930   31.8530   47.1330 C   0  0  0  0  0  0  0  0  0  0  0  0
   57.9620   31.0040   46.3790 N   0  0  0  0  0  0  0  0  0  0  0  0
   57.7910   31.2960   45.0860 C   0  0  0  0  0  0  0  0  0  0  0  0
   60.5964   25.9310   47.3196 H   0  0  0  0  0  0  0  0  0  0  0  0
   59.7689   25.4284   45.8065 H   0  0  0  0  0  0  0  0  0  0  0  0
   60.8453   26.8665   45.8065 H   0  0  0  0  0  0  0  0  0  0  0  0
   59.0389   27.2228   48.8004 H   0  0  0  0  0  0  0  0  0  0  0  0
   60.3066   28.1740   47.9550 H   0  0  0  0  0  0  0  0  0  0  0  0
   58.6041   28.7469   47.9550 H   0  0  0  0  0  0  0  0  0  0  0  0
   57.9748   25.3635   46.2590 H   0  0  0  0  0  0  0  0  0  0  0  0
   57.4815   26.1604   47.7907 H   0  0  0  0  0  0  0  0  0  0  0  0
   56.3313   26.4709   45.1562 H   0  0  0  0  0  0  0  0  0  0  0  0
   55.8403   27.2729   46.6822 H   0  0  0  0  0  0  0  0  0  0  0  0
   58.2240   28.6000   45.7180 H   0  0  0  0  0  0  0  0  0  0  0  0
   56.2731   30.0708   42.3046 H   0  0  0  0  0  0  0  0  0  0  0  0
   57.2568   32.1101   41.2747 H   0  0  0  0  0  0  0  0  0  0  0  0
   58.5955   33.6313   42.7326 H   0  0  0  0  0  0  0  0  0  0  0  0
   59.5143   34.2135   44.7891 H   0  0  0  0  0  0  0  0  0  0  0  0
   60.4222   34.7841   46.8165 H   0  0  0  0  0  0  0  0  0  0  0  0
   62.4896   34.7588   50.7493 H   0  0  0  0  0  0  0  0  0  0  0  0
   62.0931   33.0813   50.1491 H   0  0  0  0  0  0  0  0  0  0  0  0
   63.3337   35.1847   48.3781 H   0  0  0  0  0  0  0  0  0  0  0  0
   64.2998   34.0554   49.4455 H   0  0  0  0  0  0  0  0  0  0  0  0
   63.1284   34.5981   46.4140 H   0  0  0  0  0  0  0  0  0  0  0  0
   64.2283   33.2206   46.0683 H   0  0  0  0  0  0  0  0  0  0  0  0
   62.4494   32.9714   46.0683 H   0  0  0  0  0  0  0  0  0  0  0  0
   63.0512   31.9063   49.4650 H   0  0  0  0  0  0  0  0  0  0  0  0
   62.0671   31.5871   47.9965 H   0  0  0  0  0  0  0  0  0  0  0  0
   63.8256   31.2202   47.9965 H   0  0  0  0  0  0  0  0  0  0  0  0
   59.8740   32.3498   50.3029 H   0  0  0  0  0  0  0  0  0  0  0  0
   58.5170   30.7469   48.9772 H   0  0  0  0  0  0  0  0  0  0  0  0
  1  2  1  0
  2  3  1  0
  2  4  1  0
  4  5  1  0
  5  6  1  0
  6  7  1  0
  7  8  2  0
  7  9  1  0
  9 10  2  0
 10 11  1  0
 11 12  2  0
 12 13  1  0
 13 14  2  0
 14 15  1  0
 15 16  2  0
 16 17  1  0
 17 18  1  0
 18 19  1  0
 19 20  1  0
 20 21  1  0
 21 22  1  0
 21 23  1  0
 17 24  2  0
 24 25  1  0
 25 26  2  0
 26 27  1  0
 27 28  2  0
 28  9  1  0
 28 13  1  0
 26 15  1  0
  1 29  1  0
  1 30  1  0
  1 31  1  0
  3 32  1  0
  3 33  1  0
  3 34  1  0
  4 35  1  0
  4 36  1  0
  5 37  1  0
  5 38  1  0
  6 39  1  0
 10 40  1  0
 11 41  1  0
 12 42  1  0
 14 43  1  0
 16 44  1  0
 19 45  1  0
 19 46  1  0
 20 47  1  0
 20 48  1  0
 22 49  1  0
 22 50  1  0
 22 51  1  0
 23 52  1  0
 23 53  1  0
 23 54  1  0
 24 55  1  0
 25 56  1  0
M  END
>  <smiles>  (3) 
CN(C)CCNC(=O)c1cccc2cc3cc(OCCN(C)C)ccc3nc12

>  <score_type>  (3) 
oracle

>  <origin>  (3) 
adg

>  <m_score__min__energy>  (3) 
-7.9400000000000004

>  <m_primary>  (3) 
energy

$$$$
3:0
     RDKit          3D

 64 66  0  0  0  0  0  0  0  0999 V2000
   60.6660   29.9090   46.7920 C   0  0  0  0  0  0  0  0  0  0  0  0
   59.5310   29.6040   47.7430 C   0  0  0  0  0  0  0  0  0  0  0  0
   59.8100   28.2640   48.3800 C   0  0  0  0  0  0  0  0  0  0  0  0
   58.2990   29.6180   46.9720 N   0  0  0  0  0  0  0  0  0  0  0  0
   58.4980   29.0830   45.6490 C   0  0  0  0  0  0  0  0  0  0  0  0
   57.1890   29.0860   44.8930 C   0  0  0  0  0  0  0  0  0  0  0  0
   56.8170   30.4380   44.3890 C   0  0  0  0  0  0  0  0  0  0  0  0
   57.3720   31.4680   45.2410 N   0  0  0  0  0  0  0  0  0  0  0  0
   57.0330   32.8040   44.8630 C   0  0  0  0  0  0  0  0  0  0  0  0
   58.0290   33.8500   45.3410 C   0  0  0  0  0  0  0  0  0  0  0  0
   58.1740   33.8700   46.8370 C   0  0  0  0  0  0  0  0  0  0  0  0
   58.9040   32.6970   47.3410 N   0  0  0  0  0  0  0  0  0  0  0  0
   59.8160   32.8430   48.4070 C   0  0  0  0  0  0  0  0  0  0  0  0
   59.4950   32.6780   49.7350 C   0  0  0  0  0  0  0  0  0  0  0  0
   60.4390   32.8370   50.7560 C   0  0  0  0  0  0  0  0  0  0  0  0
   61.7120   33.1620   50.4730 N   0  0  0  0  0  0  0  0  0  0  0  0
   62.7270   33.3550   51.4500 C   0  0  0  0  0  0  0  0  0  0  0  0
   62.0610   33.3340   49.1640 C   0  0  0  0  0  0  0  0  0  0  0  0
   63.3470   33.6640   48.7870 C   0  0  0  0  0  0  0  0  0  0  0  0
   63.7280   33.8390   47.4700 C   0  0  0  0  0  0  0  0  0  0  0  0
   62.7720   33.6760   46.4660 C   0  0  0  0  0  0  0  0  0  0  0  0
   61.4810   33.3460   46.8110 C   0  0  0  0  0  0  0  0  0  0  0  0
   61.1430   33.1810   48.1400 C   0  0  0  0  0  0  0  0  0  0  0  0
   59.9340   32.6090   52.1320 C   0  0  0  0  0  0  0  0  0  0  0  0
   59.2360   31.2600   52.0990 C   0  0  0  0  0  0  0  0  0  0  0  0
   58.2240   31.1100   51.0210 C   0  0  0  0  0  0  0  0  0  0  0  0
   58.0980   32.3190   50.1030 C   0  0  0  0  0  0  0  0  0  0  0  0
   61.5713   30.1523   47.3676 H   0  0  0  0  0  0  0  0  0  0  0  0
   60.8593   29.0309   46.1582 H   0  0  0  0  0  0  0  0  0  0  0  0
   60.3932   30.7657   46.1582 H   0  0  0  0  0  0  0  0  0  0  0  0
   59.4347   30.3445   48.5507 H   0  0  0  0  0  0  0  0  0  0  0  0
   59.7886   28.3670   49.4750 H   0  0  0  0  0  0  0  0  0  0  0  0
   59.0431   27.5413   48.0646 H   0  0  0  0  0  0  0  0  0  0  0  0
   60.8017   27.9074   48.0646 H   0  0  0  0  0  0  0  0  0  0  0  0
   57.9810   30.6090   46.8640 H   0  0  0  0  0  0  0  0  0  0  0  0
   59.2316   29.7018   45.1114 H   0  0  0  0  0  0  0  0  0  0  0  0
   58.8699   28.0507   45.7269 H   0  0  0  0  0  0  0  0  0  0  0  0
   57.2768   28.4030   44.0353 H   0  0  0  0  0  0  0  0  0  0  0  0
   56.4022   28.7646   45.5913 H   0  0  0  0  0  0  0  0  0  0  0  0
   57.2073   30.5636   43.3683 H   0  0  0  0  0  0  0  0  0  0  0  0
   55.7207   30.5284   44.3902 H   0  0  0  0  0  0  0  0  0  0  0  0
   57.0340   31.2440   46.2120 H   0  0  0  0  0  0  0  0  0  0  0  0
   56.9810   32.8510   43.7652 H   0  0  0  0  0  0  0  0  0  0  0  0
   56.0701   33.0371   45.3410 H   0  0  0  0  0  0  0  0  0  0  0  0
   59.0105   33.6315   44.8949 H   0  0  0  0  0  0  0  0  0  0  0  0
   57.6519   34.8354   45.0299 H   0  0  0  0  0  0  0  0  0  0  0  0
   58.7209   34.7791   47.1276 H   0  0  0  0  0  0  0  0  0  0  0  0
   57.1647   33.8525   47.2740 H   0  0  0  0  0  0  0  0  0  0  0  0
   58.7300   31.7550   46.8880 H   0  0  0  0  0  0  0  0  0  0  0  0
   62.2887   33.2717   52.4555 H   0  0  0  0  0  0  0  0  0  0  0  0
   63.5065   32.5890   51.3252 H   0  0  0  0  0  0  0  0  0  0  0  0
   63.1710   34.3537   51.3252 H   0  0  0  0  0  0  0  0  0  0  0  0
   64.1056   33.7941   49.5729 H   0  0  0  0  0  0  0  0  0  0  0  0
   64.7658   34.1020   47.2176 H   0  0  0  0  0  0  0  0  0  0  0  0
   63.0476   33.8099   45.4096 H   0  0  0  0  0  0  0  0  0  0  0  0
   60.7190   33.2138   46.0288 H   0  0  0  0  0  0  0  0  0  0  0  0
   60.7687   32.5909   52.8482 H   0  0  0  0  0  0  0  0  0  0  0  0
   59.2510   33.4104   52.4504 H   0  0  0  0  0  0  0  0  0  0  0  0
   60.0011   30.4817   51.9613 H   0  0  0  0  0  0  0  0  0  0  0  0
   58.6918   31.1687   53.0506 H   0  0  0  0  0  0  0  0  0  0  0  0
   58.5011   30.2399   50.4077 H   0  0  0  0  0  0  0  0  0  0  0  0
   57.2504   30.9914   51.5190 H   0  0  0  0  0  0  0  0  0  0  0  0
   57.5165   32.0625   49.2052 H   0  0  0  0  0  0  0  0  0  0  0  0
   57.5747   33.1536   50.5925 H   0  0  0  0  0  0  0  0  0  0  0  0
  1  2  1  0
  2  3  1  0
  2  4  1  0
  4  5  1  0
  5  6  1  0
  6  7  1  0
  7  8  1  0
  8  9  1  0
  9 10  1  0
 10 11  1  0
 11 12  1  0
 12 13  1  0
 13 14  2  0
 14 15  1  0
 15 16  2  0
 16 17  1  0
 16 18  1  0
 18 19  2  0
 19 20  1  0
 20 21  2  0
 21 22  1  0
 22 23  2  0
 15 24  1  0
 24 25  1  0
 25 26  1  0
 26 27  1  0
 23 13  1  0
 27 14  1  0
 23 18  1  0
  1 28  1  0
  1 29  1  0
  1 30  1  0
  2 31  1  0
  3 32  1  0
  3 33  1  0
  3 34  1  0
  4 35  1  0
  5 36  1  0
  5 37  1  0
  6 38  1  0
  6 39  1  0
  7 40  1  0
  7 41  1  0
  8 42  1  0
  9 43  1  0
  9 44  1  0
 10 45  1  0
 10 46  1  0
 11 47  1  0
 11 48  1  0
 12 49  1  0
 17 50  1  0
 17 51  1  0
 17 52  1  0
 19 53  1  0
 20 54  1  0
 21 55  1  0
 22 56  1  0
 24 57  1  0
 24 58  1  0
 25 59  1  0
 25 60  1  0
 26 61  1  0
 26 62  1  0
 27 63  1  0
 27 64  1  0
M  CHG  1  16   1
M  END
>  <smiles>  (4) 
CC(C)NCCCNCCCNc1c2c([n+](C)c3ccccc13)CCCC2

>  <score_type>  (4) 
oracle

>  <origin>  (4) 
adg

>  <m_score__min__energy>  (4) 
-5.9500000000000002

>  <m_primary>  (4) 
energy

$$$$
4:0
     RDKit          3D

 50 52  0  0  0  0  0  0  0  0999 V2000
   56.2780   20.4180   44.5730 C   0  0  0  0  0  0  0  0  0  0  0  0
   56.6750   21.2600   43.3600 C   0  0  0  0  0  0  0  0  0  0  0  0
   55.6740   22.2560   43.2530 O   0  0  0  0  0  0  0  0  0  0  0  0
   55.2310   22.9620   44.3480 C   0  0  0  0  0  0  0  0  0  0  0  0
   54.1050   22.7590   44.8730 O   0  0  0  0  0  0  0  0  0  0  0  0
   56.0890   23.9880   44.9310 C   0  0  0  0  0  0  0  0  0  0  0  0
   55.5750   25.0580   45.6340 C   0  0  0  0  0  0  0  0  0  0  0  0
   56.4120   26.0220   46.1790 C   0  0  0  0  0  0  0  0  0  0  0  0
   57.7800   25.9680   46.0530 C   0  0  0  0  0  0  0  0  0  0  0  0
   58.6800   26.9090   46.5940 N   0  0  0  0  0  0  0  0  0  0  0  0
   59.7080   27.6100   45.8620 C   0  0  0  0  0  0  0  0  0  0  0  0
   59.1420   27.9610   44.5050 C   0  0  0  0  0  0  0  0  0  0  0  0
   57.9700   28.9190   44.7700 C   0  0  0  0  0  0  0  0  0  0  0  0
   58.5640   30.1320   45.2960 N   0  0  0  0  0  0  0  0  0  0  0  0
   57.7790   31.3250   45.2750 C   0  0  0  0  0  0  0  0  0  0  0  0
   56.6310   31.2770   44.8080 O   0  0  0  0  0  0  0  0  0  0  0  0
   58.2890   32.5920   45.7840 C   0  0  0  0  0  0  0  0  0  0  0  0
   58.4120   32.9030   47.1050 C   0  0  0  0  0  0  0  0  0  0  0  0
   58.9030   34.1300   47.4930 C   0  0  0  0  0  0  0  0  0  0  0  0
   59.2740   35.0500   46.5230 C   0  0  0  0  0  0  0  0  0  0  0  0
   59.1590   34.7580   45.1760 C   0  0  0  0  0  0  0  0  0  0  0  0
   58.6670   33.5270   44.8200 C   0  0  0  0  0  0  0  0  0  0  0  0
   59.9160   30.0950   45.8190 C   0  0  0  0  0  0  0  0  0  0  0  0
   60.1390   28.8400   46.6290 C   0  0  0  0  0  0  0  0  0  0  0  0
   58.2820   24.8770   45.3370 C   0  0  0  0  0  0  0  0  0  0  0  0
   57.4580   23.9170   44.7930 C   0  0  0  0  0  0  0  0  0  0  0  0
   56.5337   20.9603   45.4953 H   0  0  0  0  0  0  0  0  0  0  0  0
   55.1950   20.2270   44.5482 H   0  0  0  0  0  0  0  0  0  0  0  0
   56.8197   19.4610   44.5482 H   0  0  0  0  0  0  0  0  0  0  0  0
   57.6616   21.7205   43.5168 H   0  0  0  0  0  0  0  0  0  0  0  0
   56.7490   20.6529   42.4457 H   0  0  0  0  0  0  0  0  0  0  0  0
   54.4865   25.1485   45.7645 H   0  0  0  0  0  0  0  0  0  0  0  0
   55.9640   26.8605   46.7324 H   0  0  0  0  0  0  0  0  0  0  0  0
   58.6020   27.1270   47.6190 H   0  0  0  0  0  0  0  0  0  0  0  0
   60.6034   26.9845   45.7318 H   0  0  0  0  0  0  0  0  0  0  0  0
   59.9071   28.4546   43.8878 H   0  0  0  0  0  0  0  0  0  0  0  0
   58.8135   27.0632   43.9609 H   0  0  0  0  0  0  0  0  0  0  0  0
   57.4295   29.1309   43.8357 H   0  0  0  0  0  0  0  0  0  0  0  0
   57.2433   28.4857   45.4730 H   0  0  0  0  0  0  0  0  0  0  0  0
   58.1166   32.1678   47.8681 H   0  0  0  0  0  0  0  0  0  0  0  0
   58.9999   34.3778   48.5603 H   0  0  0  0  0  0  0  0  0  0  0  0
   59.6670   36.0301   46.8311 H   0  0  0  0  0  0  0  0  0  0  0  0
   59.4536   35.4918   44.4113 H   0  0  0  0  0  0  0  0  0  0  0  0
   58.5689   33.2729   43.7543 H   0  0  0  0  0  0  0  0  0  0  0  0
   60.6283   30.1157   44.9811 H   0  0  0  0  0  0  0  0  0  0  0  0
   60.0683   30.9686   46.4699 H   0  0  0  0  0  0  0  0  0  0  0  0
   61.2085   28.7550   46.8717 H   0  0  0  0  0  0  0  0  0  0  0  0
   59.5369   28.9066   47.5472 H   0  0  0  0  0  0  0  0  0  0  0  0
   59.3698   24.7825   45.2040 H   0  0  0  0  0  0  0  0  0  0  0  0
   57.9013   23.0774   44.2376 H   0  0  0  0  0  0  0  0  0  0  0  0
  1  2  1  0
  2  3  1  0
  3  4  1  0
  4  5  2  0
  4  6  1  0
  6  7  2  0
  7  8  1  0
  8  9  2  0
  9 10  1  0
 10 11  1  0
 11 12  1  0
 12 13  1  0
 13 14  1  0
 14 15  1  0
 15 16  2  0
 15 17  1  0
 17 18  2  0
 18 19  1  0
 19 20  2  0
 20 21  1  0
 21 22  2  0
 14 23  1  0
 23 24  1  0
  9 25  1  0
 25 26  2  0
 26  6  1  0
 24 11  1  0
 22 17  1  0
  1 27  1  0
  1 28  1  0
  1 29  1  0
  2 30  1  0
  2 31  1  0
  7 32  1  0
  8 33  1  0
 10 34  1  0
 11 35  1  0
 12 36  1  0
 12 37  1  0
 13 38  1  0
 13 39  1  0
 18 40  1  0
 19 41  1  0
 20 42  1  0
 21 43  1  0
 22 44  1  0
 23 45  1  0
 23 46  1  0
 24 47  1  0
 24 48  1  0
 25 49  1  0
 26 50  1  0
M  END
>  <smiles>  (5) 
CCOC(=O)c1ccc(NC2CCN(C(=O)c3ccccc3)CC2)cc1

>  <score_type>  (5) 
oracle

>  <origin>  (5) 
adg

>  <m_score__min__energy>  (5) 
-8.3800000000000008

>  <m_primary>  (5) 
energy

$$$$
5:0
     RDKit          3D

 57 58  0  0  0  0  0  0  0  0999 V2000
   59.6410   35.0360   46.9070 C   0  0  0  0  0  0  0  0  0  0  0  0
   59.1970   34.4530   45.6170 C   0  0  0  0  0  0  0  0  0  0  0  0
   58.1060   33.5460   45.6560 N   0  0  0  0  0  0  0  0  0  0  0  0
   57.6570   33.4360   47.0610 C   0  0  0  0  0  0  0  0  0  0  0  0
   58.4570   32.2180   45.2540 C   0  0  0  0  0  0  0  0  0  0  0  0
   57.3680   31.5600   44.3940 C   0  0  0  0  0  0  0  0  0  0  0  0
   56.9250   30.4990   45.1090 O   0  0  0  0  0  0  0  0  0  0  0  0
   56.6860   29.2970   44.5520 C   0  0  0  0  0  0  0  0  0  0  0  0
   57.9210   28.5470   44.1060 C   0  0  0  0  0  0  0  0  0  0  0  0
   58.7490   28.2920   45.1980 O   0  0  0  0  0  0  0  0  0  0  0  0
   58.2590   27.4120   46.1230 C   0  0  0  0  0  0  0  0  0  0  0  0
   58.1380   28.2290   47.4560 C   0  0  0  0  0  0  0  0  0  0  0  0
   59.0330   29.1510   47.5130 N   0  0  0  0  0  0  0  0  0  0  0  0
   60.0440   30.1940   47.5760 C   0  0  0  0  0  0  0  0  0  0  0  0
   61.1600   30.3780   46.8400 C   0  0  0  0  0  0  0  0  0  0  0  0
   61.9590   31.4700   47.1260 C   0  0  0  0  0  0  0  0  0  0  0  0
   61.7170   32.3620   48.0740 N   0  0  0  0  0  0  0  0  0  0  0  0
   62.5890   33.4800   48.2780 C   0  0  0  0  0  0  0  0  0  0  0  0
   63.4030   33.8460   47.0600 C   0  0  0  0  0  0  0  0  0  0  0  0
   60.6220   32.2160   48.8270 C   0  0  0  0  0  0  0  0  0  0  0  0
   60.3090   33.0990   49.8370 C   0  0  0  0  0  0  0  0  0  0  0  0
   59.1960   32.9920   50.6320 C   0  0  0  0  0  0  0  0  0  0  0  0
   58.3570   31.9320   50.3880 C   0  0  0  0  0  0  0  0  0  0  0  0
   58.6770   31.0570   49.3890 C   0  0  0  0  0  0  0  0  0  0  0  0
   59.7910   31.1390   48.5750 C   0  0  0  0  0  0  0  0  0  0  0  0
   59.2044   34.4627   47.7381 H   0  0  0  0  0  0  0  0  0  0  0  0
   60.7384   34.9946   46.9697 H   0  0  0  0  0  0  0  0  0  0  0  0
   59.3094   36.0829   46.9697 H   0  0  0  0  0  0  0  0  0  0  0  0
   58.9111   35.2863   44.9583 H   0  0  0  0  0  0  0  0  0  0  0  0
   60.0510   33.8541   45.2678 H   0  0  0  0  0  0  0  0  0  0  0  0
   58.5025   33.6432   47.7334 H   0  0  0  0  0  0  0  0  0  0  0  0
   56.8536   34.1639   47.2472 H   0  0  0  0  0  0  0  0  0  0  0  0
   57.2810   32.4192   47.2472 H   0  0  0  0  0  0  0  0  0  0  0  0
   59.3895   32.2598   44.6721 H   0  0  0  0  0  0  0  0  0  0  0  0
   58.5771   31.6125   46.1645 H   0  0  0  0  0  0  0  0  0  0  0  0
   56.5462   32.2675   44.2091 H   0  0  0  0  0  0  0  0  0  0  0  0
   57.7576   31.2527   43.4123 H   0  0  0  0  0  0  0  0  0  0  0  0
   56.1573   28.6767   45.2907 H   0  0  0  0  0  0  0  0  0  0  0  0
   56.0958   29.4888   43.6438 H   0  0  0  0  0  0  0  0  0  0  0  0
   57.6212   27.5935   43.6467 H   0  0  0  0  0  0  0  0  0  0  0  0
   58.4690   29.1596   43.3750 H   0  0  0  0  0  0  0  0  0  0  0  0
   57.2732   27.0363   45.8116 H   0  0  0  0  0  0  0  0  0  0  0  0
   58.9138   26.5359   46.2395 H   0  0  0  0  0  0  0  0  0  0  0  0
   57.1411   28.6914   47.5056 H   0  0  0  0  0  0  0  0  0  0  0  0
   58.2863   27.5429   48.3029 H   0  0  0  0  0  0  0  0  0  0  0  0
   58.4540   29.8260   46.5200 H   0  0  0  0  0  0  0  0  0  0  0  0
   61.4270   29.6783   46.0343 H   0  0  0  0  0  0  0  0  0  0  0  0
   62.8658   31.6082   46.5188 H   0  0  0  0  0  0  0  0  0  0  0  0
   61.9779   34.3497   48.5613 H   0  0  0  0  0  0  0  0  0  0  0  0
   63.3011   33.1924   49.0656 H   0  0  0  0  0  0  0  0  0  0  0  0
   64.3636   34.2779   47.3772 H   0  0  0  0  0  0  0  0  0  0  0  0
   63.5875   32.9442   46.4577 H   0  0  0  0  0  0  0  0  0  0  0  0
   62.8509   34.5825   46.4577 H   0  0  0  0  0  0  0  0  0  0  0  0
   60.9932   33.9413   50.0171 H   0  0  0  0  0  0  0  0  0  0  0  0
   58.9852   33.7213   51.4280 H   0  0  0  0  0  0  0  0  0  0  0  0
   57.4446   31.7904   50.9859 H   0  0  0  0  0  0  0  0  0  0  0  0
   57.9896   30.2155   49.2178 H   0  0  0  0  0  0  0  0  0  0  0  0
  1  2  1  0
  2  3  1  0
  3  4  1  0
  3  5  1  0
  5  6  1  0
  6  7  1  0
  7  8  1  0
  8  9  1  0
  9 10  1  0
 10 11  1  0
 11 12  1  0
 12 13  1  0
 13 14  1  0
 14 15  2  0
 15 16  1  0
 16 17  2  0
 17 18  1  0
 18 19  1  0
 17 20  1  0
 20 21  2  0
 21 22  1  0
 22 23  2  0
 23 24  1  0
 24 25  2  0
 25 14  1  0
 25 20  1  0
  1 26  1  0
  1 27  1  0
  1 28  1  0
  2 29  1  0
  2 30  1  0
  4 31  1  0
  4 32  1  0
  4 33  1  0
  5 34  1  0
  5 35  1  0
  6 36  1  0
  6 37  1  0
  8 38  1  0
  8 39  1  0
  9 40  1  0
  9 41  1  0
 11 42  1  0
 11 43  1  0
 12 44  1  0
 12 45  1  0
 13 46  1  0
 15 47  1  0
 16 48  1  0
 18 49  1  0
 18 50  1  0
 19 51  1  0
 19 52  1  0
 19 53  1  0
 21 54  1  0
 22 55  1  0
 23 56  1  0
 24 57  1  0
M  CHG  1  17   1
M  END
>  <smiles>  (6) 
CCN(C)CCOCCOCCNc1cc[n+](CC)c2ccccc12

>  <score_type>  (6) 
oracle

>  <origin>  (6) 
adg

>  <m_score__min__energy>  (6) 
-4.3600000000000003

>  <m_primary>  (6) 
energy

$$$$
6:0
     RDKit          3D

 67 70  0  0  0  0  0  0  0  0999 V2000
   57.4030   26.6070   46.1110 C   0  0  0  0  0  0  0  0  0  0  0  0
   58.6900   26.7250   45.3670 C   0  0  0  0  0  0  0  0  0  0  0  0
   59.8300   26.8990   46.3270 N   0  0  0  0  0  0  0  0  0  0  0  0
   60.7570   27.7890   45.7070 C   0  0  0  0  0  0  0  0  0  0  0  0
   60.2810   28.5450   44.5100 C   0  0  0  0  0  0  0  0  0  0  0  0
   59.1250   27.5220   47.4720 C   0  0  0  0  0  0  0  0  0  0  0  0
   59.6730   28.8180   47.9030 C   0  0  0  0  0  0  0  0  0  0  0  0
   58.6210   29.8240   47.9850 N   0  0  0  0  0  0  0  0  0  0  0  0
   58.6300   31.0290   47.2380 C   0  0  0  0  0  0  0  0  0  0  0  0
   58.1360   31.0770   45.9300 C   0  0  0  0  0  0  0  0  0  0  0  0
   57.6320   29.9010   45.3660 C   0  0  0  0  0  0  0  0  0  0  0  0
   57.1250   29.8700   44.0810 C   0  0  0  0  0  0  0  0  0  0  0  0
   57.1230   31.0290   43.3560 C   0  0  0  0  0  0  0  0  0  0  0  0
   57.6220   32.2030   43.9130 C   0  0  0  0  0  0  0  0  0  0  0  0
   58.1340   32.2480   45.2000 C   0  0  0  0  0  0  0  0  0  0  0  0
   58.6130   33.4200   45.7140 N   0  0  0  0  0  0  0  0  0  0  0  0
   58.5650   34.5630   44.8550 C   0  0  0  0  0  0  0  0  0  0  0  0
   59.0900   33.4010   46.9690 C   0  0  0  0  0  0  0  0  0  0  0  0
   59.5570   34.5720   47.5290 C   0  0  0  0  0  0  0  0  0  0  0  0
   60.0380   34.5970   48.8390 C   0  0  0  0  0  0  0  0  0  0  0  0
   60.0610   33.4550   49.6140 C   0  0  0  0  0  0  0  0  0  0  0  0
   60.5570   33.4370   50.9480 N   0  0  0  0  0  0  0  0  0  0  0  0
   61.6720   32.6790   51.4060 C   0  0  0  0  0  0  0  0  0  0  0  0
   63.0180   33.2040   51.0100 C   0  0  0  0  0  0  0  0  0  0  0  0
   63.1330   33.0800   49.5120 C   0  0  0  0  0  0  0  0  0  0  0  0
   62.9550   31.8250   48.9700 C   0  0  0  0  0  0  0  0  0  0  0  0
   63.0370   31.6080   47.6160 C   0  0  0  0  0  0  0  0  0  0  0  0
   63.3070   32.7010   46.7990 C   0  0  0  0  0  0  0  0  0  0  0  0
   63.4820   33.9600   47.3620 C   0  0  0  0  0  0  0  0  0  0  0  0
   63.3970   34.1670   48.7270 C   0  0  0  0  0  0  0  0  0  0  0  0
   59.5880   32.3020   49.0260 C   0  0  0  0  0  0  0  0  0  0  0  0
   59.1080   32.2310   47.7400 C   0  0  0  0  0  0  0  0  0  0  0  0
   57.6018   26.6252   47.1927 H   0  0  0  0  0  0  0  0  0  0  0  0
   56.7469   27.4488   45.8445 H   0  0  0  0  0  0  0  0  0  0  0  0
   56.9109   25.6600   45.8445 H   0  0  0  0  0  0  0  0  0  0  0  0
   58.8512   25.8132   44.7731 H   0  0  0  0  0  0  0  0  0  0  0  0
   58.6421   27.6016   44.7043 H   0  0  0  0  0  0  0  0  0  0  0  0
   61.0644   28.5262   46.4633 H   0  0  0  0  0  0  0  0  0  0  0  0
   61.5635   27.1421   45.3316 H   0  0  0  0  0  0  0  0  0  0  0  0
   59.7213   29.4339   44.8365 H   0  0  0  0  0  0  0  0  0  0  0  0
   61.1456   28.8575   43.9060 H   0  0  0  0  0  0  0  0  0  0  0  0
   59.6255   27.9004   43.9060 H   0  0  0  0  0  0  0  0  0  0  0  0
   58.0738   27.6732   47.1854 H   0  0  0  0  0  0  0  0  0  0  0  0
   59.2485   26.8353   48.3224 H   0  0  0  0  0  0  0  0  0  0  0  0
   60.1383   28.7014   48.8929 H   0  0  0  0  0  0  0  0  0  0  0  0
   60.4193   29.1479   47.1653 H   0  0  0  0  0  0  0  0  0  0  0  0
   57.7770   29.6990   48.6210 H   0  0  0  0  0  0  0  0  0  0  0  0
   57.6393   28.9759   45.9611 H   0  0  0  0  0  0  0  0  0  0  0  0
   56.7328   28.9361   43.6521 H   0  0  0  0  0  0  0  0  0  0  0  0
   56.7261   31.0338   42.3301 H   0  0  0  0  0  0  0  0  0  0  0  0
   57.6095   33.1245   43.3124 H   0  0  0  0  0  0  0  0  0  0  0  0
   58.5266   35.4781   45.4642 H   0  0  0  0  0  0  0  0  0  0  0  0
   59.4631   34.5826   44.2202 H   0  0  0  0  0  0  0  0  0  0  0  0
   57.6684   34.5072   44.2202 H   0  0  0  0  0  0  0  0  0  0  0  0
   59.5502   35.4981   46.9354 H   0  0  0  0  0  0  0  0  0  0  0  0
   60.4054   35.5439   49.2615 H   0  0  0  0  0  0  0  0  0  0  0  0
   60.0490   34.0430   51.6610 H   0  0  0  0  0  0  0  0  0  0  0  0
   61.6311   32.6469   52.5048 H   0  0  0  0  0  0  0  0  0  0  0  0
   61.5815   31.6921   50.9286 H   0  0  0  0  0  0  0  0  0  0  0  0
   63.1115   34.2589   51.3073 H   0  0  0  0  0  0  0  0  0  0  0  0
   63.8166   32.6339   51.5072 H   0  0  0  0  0  0  0  0  0  0  0  0
   62.7422   30.9771   49.6377 H   0  0  0  0  0  0  0  0  0  0  0  0
   62.8939   30.6032   47.1919 H   0  0  0  0  0  0  0  0  0  0  0  0
   63.3819   32.5694   45.7095 H   0  0  0  0  0  0  0  0  0  0  0  0
   63.6940   34.8154   46.7036 H   0  0  0  0  0  0  0  0  0  0  0  0
   63.5364   35.1671   49.1634 H   0  0  0  0  0  0  0  0  0  0  0  0
   59.5950   31.3790   49.6243 H   0  0  0  0  0  0  0  0  0  0  0  0
  1  2  1  0
  2  3  1  0
  3  4  1  0
  4  5  1  0
  3  6  1  0
  6  7  1  0
  7  8  1  0
  8  9  1  0
  9 10  2  0
 10 11  1  0
 11 12  2  0
 12 13  1  0
 13 14  2  0
 14 15  1  0
 15 16  2  0
 16 17  1  0
 16 18  1  0
 18 19  2  0
 19 20  1  0
 20 21  2  0
 21 22  1  0
 22 23  1  0
 23 24  1  0
 24 25  1  0
 25 26  2  0
 26 27  1  0
 27 28  2  0
 28 29  1  0
 29 30  2  0
 21 31  1  0
 31 32  2  0
 32  9  1  0
 15 10  1  0
 32 18  1  0
 30 25  1  0
  1 33  1  0
  1 34  1  0
  1 35  1  0
  2 36  1  0
  2 37  1  0
  4 38  1  0
  4 39  1  0
  5 40  1  0
  5 41  1  0
  5 42  1  0
  6 43  1  0
  6 44  1  0
  7 45  1  0
  7 46  1  0
  8 47  1  0
 11 48  1  0
 12 49  1  0
 13 50  1  0
 14 51  1  0
 17 52  1  0
 17 53  1  0
 17 54  1  0
 19 55  1  0
 20 56  1  0
 22 57  1  0
 23 58  1  0
 23 59  1  0
 24 60  1  0
 24 61  1  0
 26 62  1  0
 27 63  1  0
 28 64  1  0
 29 65  1  0
 30 66  1  0
 31 67  1  0
M  CHG  1  16   1
M  END
>  <smiles>  (7) 
CCN(CC)CCNc1c2ccccc2[n+](C)c2ccc(NCCc3ccccc3)cc12

>  <score_type>  (7) 
oracle

>  <origin>  (7) 
adg

>  <m_score__min__energy>  (7) 
-6.9699999999999998

>  <m_primary>  (7) 
energy

$$$$
7:0
     RDKit          3D

 59 61  0  0  0  0  0  0  0  0999 V2000
   58.7370   29.6280   46.5140 C   0  0  0  0  0  0  0  0  0  0  0  0
   58.6190   28.7260   47.6900 C   0  0  0  0  0  0  0  0  0  0  0  0
   59.3040   29.0820   48.8740 N   0  0  0  0  0  0  0  0  0  0  0  0
   60.4930   28.4160   49.2360 C   0  0  0  0  0  0  0  0  0  0  0  0
   60.9040   28.5350   50.6550 C   0  0  0  0  0  0  0  0  0  0  0  0
   60.0690   29.4010   51.3880 O   0  0  0  0  0  0  0  0  0  0  0  0
   59.2570   28.7220   52.2860 C   0  0  0  0  0  0  0  0  0  0  0  0
   57.9130   29.3550   52.4500 C   0  0  0  0  0  0  0  0  0  0  0  0
   57.6210   30.1730   51.2990 N   0  0  0  0  0  0  0  0  0  0  0  0
   57.3860   31.5620   51.5970 C   0  0  0  0  0  0  0  0  0  0  0  0
   58.3200   32.3770   50.7760 C   0  0  0  0  0  0  0  0  0  0  0  0
   59.3220   31.6770   50.0180 N   0  0  0  0  0  0  0  0  0  0  0  0
   60.1780   32.2810   49.0620 C   0  0  0  0  0  0  0  0  0  0  0  0
   61.5400   32.1450   49.2990 C   0  0  0  0  0  0  0  0  0  0  0  0
   62.4390   32.6990   48.4140 C   0  0  0  0  0  0  0  0  0  0  0  0
   62.0600   33.3790   47.3100 N   0  0  0  0  0  0  0  0  0  0  0  0
   62.9940   33.9560   46.3860 C   0  0  0  0  0  0  0  0  0  0  0  0
   60.7360   33.5140   47.0740 C   0  0  0  0  0  0  0  0  0  0  0  0
   60.3400   34.1970   45.9430 C   0  0  0  0  0  0  0  0  0  0  0  0
   58.9960   34.3570   45.6400 C   0  0  0  0  0  0  0  0  0  0  0  0
   58.0760   33.8090   46.5120 C   0  0  0  0  0  0  0  0  0  0  0  0
   58.4860   33.1300   47.6360 C   0  0  0  0  0  0  0  0  0  0  0  0
   59.8070   32.9650   47.9490 C   0  0  0  0  0  0  0  0  0  0  0  0
   63.8370   32.4280   48.8650 C   0  0  0  0  0  0  0  0  0  0  0  0
   63.6340   32.0770   50.3400 C   0  0  0  0  0  0  0  0  0  0  0  0
   62.2730   31.4600   50.4140 C   0  0  0  0  0  0  0  0  0  0  0  0
   58.8725   30.6638   46.8585 H   0  0  0  0  0  0  0  0  0  0  0  0
   59.6035   29.3273   45.9067 H   0  0  0  0  0  0  0  0  0  0  0  0
   57.8223   29.5603   45.9067 H   0  0  0  0  0  0  0  0  0  0  0  0
   57.5503   28.6538   47.9402 H   0  0  0  0  0  0  0  0  0  0  0  0
   59.0997   27.7909   47.3667 H   0  0  0  0  0  0  0  0  0  0  0  0
   58.6270   29.1590   49.6630 H   0  0  0  0  0  0  0  0  0  0  0  0
   60.3598   27.3470   49.0138 H   0  0  0  0  0  0  0  0  0  0  0  0
   61.2912   28.9031   48.6566 H   0  0  0  0  0  0  0  0  0  0  0  0
   60.8698   27.5373   51.1170 H   0  0  0  0  0  0  0  0  0  0  0  0
   61.9204   28.9552   50.6743 H   0  0  0  0  0  0  0  0  0  0  0  0
   59.1181   27.6925   51.9242 H   0  0  0  0  0  0  0  0  0  0  0  0
   59.7555   28.7483   53.2662 H   0  0  0  0  0  0  0  0  0  0  0  0
   57.1478   28.5705   52.5454 H   0  0  0  0  0  0  0  0  0  0  0  0
   57.9118   29.9818   53.3540 H   0  0  0  0  0  0  0  0  0  0  0  0
   58.3340   30.0960   50.5390 H   0  0  0  0  0  0  0  0  0  0  0  0
   56.3468   31.8252   51.3506 H   0  0  0  0  0  0  0  0  0  0  0  0
   57.5529   31.7549   52.6670 H   0  0  0  0  0  0  0  0  0  0  0  0
   57.7134   32.9562   50.0643 H   0  0  0  0  0  0  0  0  0  0  0  0
   58.8869   32.9736   51.5059 H   0  0  0  0  0  0  0  0  0  0  0  0
   59.4450   30.6490   50.1630 H   0  0  0  0  0  0  0  0  0  0  0  0
   63.8008   34.4544   46.9434 H   0  0  0  0  0  0  0  0  0  0  0  0
   63.4206   33.1639   45.7532 H   0  0  0  0  0  0  0  0  0  0  0  0
   62.4766   34.6920   45.7532 H   0  0  0  0  0  0  0  0  0  0  0  0
   61.1012   34.6210   45.2715 H   0  0  0  0  0  0  0  0  0  0  0  0
   58.6749   34.9000   44.7389 H   0  0  0  0  0  0  0  0  0  0  0  0
   57.0010   33.9169   46.3051 H   0  0  0  0  0  0  0  0  0  0  0  0
   57.7246   32.7049   48.3065 H   0  0  0  0  0  0  0  0  0  0  0  0
   64.2794   31.5867   48.3114 H   0  0  0  0  0  0  0  0  0  0  0  0
   64.5266   33.2691   48.7005 H   0  0  0  0  0  0  0  0  0  0  0  0
   64.4000   31.3623   50.6752 H   0  0  0  0  0  0  0  0  0  0  0  0
   63.7196   32.9616   50.9881 H   0  0  0  0  0  0  0  0  0  0  0  0
   62.3204   30.3735   50.2490 H   0  0  0  0  0  0  0  0  0  0  0  0
   61.7903   31.5834   51.3947 H   0  0  0  0  0  0  0  0  0  0  0  0
  1  2  1  0
  2  3  1  0
  3  4  1  0
  4  5  1  0
  5  6  1  0
  6  7  1  0
  7  8  1  0
  8  9  1  0
  9 10  1  0
 10 11  1  0
 11 12  1  0
 12 13  1  0
 13 14  2  0
 14 15  1  0
 15 16  2  0
 16 17  1  0
 16 18  1  0
 18 19  2  0
 19 20  1  0
 20 21  2  0
 21 22  1  0
 22 23  2  0
 15 24  1  0
 24 25  1  0
 25 26  1  0
 23 13  1  0
 26 14  1  0
 23 18  1  0
  1 27  1  0
  1 28  1  0
  1 29  1  0
  2 30  1  0
  2 31  1  0
  3 32  1  0
  4 33  1  0
  4 34  1  0
  5 35  1  0
  5 36  1  0
  7 37  1  0
  7 38  1  0
  8 39  1  0
  8 40  1  0
  9 41  1  0
 10 42  1  0
 10 43  1  0
 11 44  1  0
 11 45  1  0
 12 46  1  0
 17 47  1  0
 17 48  1  0
 17 49  1  0
 19 50  1  0
 20 51  1  0
 21 52  1  0
 22 53  1  0
 24 54  1  0
 24 55  1  0
 25 56  1  0
 25 57  1  0
 26 58  1  0
 26 59  1  0
M  CHG  1  16   1
M  END
>  <smiles>  (8) 
CCNCCOCCNCCNc1c2c([n+](C)c3ccccc13)CCC2

>  <score_type>  (8) 
oracle

>  <origin>  (8) 
adg

>  <m_score__min__energy>  (8) 
-5.8399999999999999

>  <m_primary>  (8) 
energy

$$$$
8:0
     RDKit          3D

 57 59  0  0  0  0  0  0  0  0999 V2000
   60.3200   29.2460   49.7550 C   0  0  0  0  0  0  0  0  0  0  0  0
   58.9830   29.3470   49.0210 C   0  0  0  0  0  0  0  0  0  0  0  0
   59.2610   29.7450   47.7380 O   0  0  0  0  0  0  0  0  0  0  0  0
   60.1390   28.9990   47.0330 C   0  0  0  0  0  0  0  0  0  0  0  0
   60.4700   29.4130   45.6350 C   0  0  0  0  0  0  0  0  0  0  0  0
   59.6340   30.3750   45.1830 O   0  0  0  0  0  0  0  0  0  0  0  0
   58.4630   30.0310   44.5820 C   0  0  0  0  0  0  0  0  0  0  0  0
   57.4090   31.0770   44.4910 C   0  0  0  0  0  0  0  0  0  0  0  0
   57.1340   31.8030   45.6090 O   0  0  0  0  0  0  0  0  0  0  0  0
   57.2870   33.1800   45.4920 C   0  0  0  0  0  0  0  0  0  0  0  0
   58.2590   33.7240   46.5190 C   0  0  0  0  0  0  0  0  0  0  0  0
   58.9700   32.6320   47.1510 N   0  0  0  0  0  0  0  0  0  0  0  0
   59.8000   32.7870   48.2910 C   0  0  0  0  0  0  0  0  0  0  0  0
   59.3710   32.6180   49.5870 C   0  0  0  0  0  0  0  0  0  0  0  0
   60.2960   32.8000   50.5930 C   0  0  0  0  0  0  0  0  0  0  0  0
   61.5780   33.1300   50.3390 N   0  0  0  0  0  0  0  0  0  0  0  0
   62.5620   33.3240   51.3970 C   0  0  0  0  0  0  0  0  0  0  0  0
   62.0300   33.3020   49.0750 C   0  0  0  0  0  0  0  0  0  0  0  0
   63.3400   33.6390   48.8100 C   0  0  0  0  0  0  0  0  0  0  0  0
   63.7740   33.8100   47.4930 C   0  0  0  0  0  0  0  0  0  0  0  0
   62.8850   33.6390   46.4440 C   0  0  0  0  0  0  0  0  0  0  0  0
   61.5750   33.3010   46.7310 C   0  0  0  0  0  0  0  0  0  0  0  0
   61.1290   33.1280   48.0430 C   0  0  0  0  0  0  0  0  0  0  0  0
   59.6550   32.5780   51.9160 C   0  0  0  0  0  0  0  0  0  0  0  0
   58.1920   32.8000   51.5950 C   0  0  0  0  0  0  0  0  0  0  0  0
   58.0710   32.2710   50.1660 C   0  0  0  0  0  0  0  0  0  0  0  0
   60.1441   29.2593   50.8408 H   0  0  0  0  0  0  0  0  0  0  0  0
   60.8214   28.3074   49.4762 H   0  0  0  0  0  0  0  0  0  0  0  0
   60.9567   30.0986   49.4762 H   0  0  0  0  0  0  0  0  0  0  0  0
   58.4812   28.3682   49.0129 H   0  0  0  0  0  0  0  0  0  0  0  0
   58.3140   30.0641   49.5191 H   0  0  0  0  0  0  0  0  0  0  0  0
   61.0820   28.9868   47.5993 H   0  0  0  0  0  0  0  0  0  0  0  0
   59.6316   28.0305   46.9126 H   0  0  0  0  0  0  0  0  0  0  0  0
   61.5003   29.7978   45.6125 H   0  0  0  0  0  0  0  0  0  0  0  0
   60.3612   28.5331   44.9839 H   0  0  0  0  0  0  0  0  0  0  0  0
   58.6997   29.7105   43.5567 H   0  0  0  0  0  0  0  0  0  0  0  0
   58.0324   29.2521   45.2284 H   0  0  0  0  0  0  0  0  0  0  0  0
   57.7173   31.7854   43.7080 H   0  0  0  0  0  0  0  0  0  0  0  0
   56.4828   30.5186   44.2900 H   0  0  0  0  0  0  0  0  0  0  0  0
   57.6644   33.4127   44.4853 H   0  0  0  0  0  0  0  0  0  0  0  0
   56.3074   33.6501   45.6635 H   0  0  0  0  0  0  0  0  0  0  0  0
   58.9800   34.3897   46.0221 H   0  0  0  0  0  0  0  0  0  0  0  0
   57.7018   34.2845   47.2841 H   0  0  0  0  0  0  0  0  0  0  0  0
   58.8910   31.6540   46.7710 H   0  0  0  0  0  0  0  0  0  0  0  0
   62.0710   33.2272   52.3766 H   0  0  0  0  0  0  0  0  0  0  0  0
   63.3524   32.5644   51.3064 H   0  0  0  0  0  0  0  0  0  0  0  0
   63.0050   34.3268   51.3064 H   0  0  0  0  0  0  0  0  0  0  0  0
   64.0483   33.7742   49.6407 H   0  0  0  0  0  0  0  0  0  0  0  0
   64.8206   34.0802   47.2890 H   0  0  0  0  0  0  0  0  0  0  0  0
   63.2149   33.7696   45.4028 H   0  0  0  0  0  0  0  0  0  0  0  0
   60.8644   33.1646   45.9025 H   0  0  0  0  0  0  0  0  0  0  0  0
   59.8340   31.5558   52.2809 H   0  0  0  0  0  0  0  0  0  0  0  0
   60.0398   33.2325   52.7119 H   0  0  0  0  0  0  0  0  0  0  0  0
   57.5459   32.2342   52.2823 H   0  0  0  0  0  0  0  0  0  0  0  0
   57.8796   33.8497   51.6972 H   0  0  0  0  0  0  0  0  0  0  0  0
   57.9100   31.1829   50.1575 H   0  0  0  0  0  0  0  0  0  0  0  0
   57.2187   32.6931   49.6134 H   0  0  0  0  0  0  0  0  0  0  0  0
  1  2  1  0
  2  3  1  0
  3  4  1  0
  4  5  1  0
  5  6  1  0
  6  7  1  0
  7  8  1  0
  8  9  1  0
  9 10  1  0
 10 11  1  0
 11 12  1  0
 12 13  1  0
 13 14  2  0
 14 15  1  0
 15 16  2  0
 16 17  1  0
 16 18  1  0
 18 19  2  0
 19 20  1  0
 20 21  2  0
 21 22  1  0
 22 23  2  0
 15 24  1  0
 24 25  1  0
 25 26  1  0
 23 13  1  0
 26 14  1  0
 23 18  1  0
  1 27  1  0
  1 28  1  0
  1 29  1  0
  2 30  1  0
  2 31  1  0
  4 32  1  0
  4 33  1  0
  5 34  1  0
  5 35  1  0
  7 36  1  0
  7 37  1  0
  8 38  1  0
  8 39  1  0
 10 40  1  0
 10 41  1  0
 11 42  1  0
 11 43  1  0
 12 44  1  0
 17 45  1  0
 17 46  1  0
 17 47  1  0
 19 48  1  0
 20 49  1  0
 21 50  1  0
 22 51  1  0
 24 52  1  0
 24 53  1  0
 25 54  1  0
 25 55  1  0
 26 56  1  0
 26 57  1  0
M  CHG  1  16   1
M  END
>  <smiles>  (9) 
CCOCCOCCOCCNc1c2c([n+](C)c3ccccc13)CCC2

>  <score_type>  (9) 
oracle

>  <origin>  (9) 
adg

>  <m_score__min__energy>  (9) 
-6.2699999999999996

>  <m_primary>  (9) 
energy

$$$$
9:0
     RDKit          3D

 66 68  0  0  0  0  0  0  0  0999 V2000
   66.0030   32.0090   50.4800 C   0  0  0  0  0  0  0  0  0  0  0  0
   65.2850   33.0860   49.7130 C   0  0  0  0  0  0  0  0  0  0  0  0
   63.8820   32.8350   49.4710 N   0  0  0  0  0  0  0  0  0  0  0  0
   63.6420   32.9970   48.0550 C   0  0  0  0  0  0  0  0  0  0  0  0
   62.8490   31.8370   47.4820 C   0  0  0  0  0  0  0  0  0  0  0  0
   63.1810   33.8770   50.2100 C   0  0  0  0  0  0  0  0  0  0  0  0
   62.1110   34.5450   49.3700 C   0  0  0  0  0  0  0  0  0  0  0  0
   63.5800   31.5270   49.9540 C   0  0  0  0  0  0  0  0  0  0  0  0
   62.5270   31.3650   50.9610 C   0  0  0  0  0  0  0  0  0  0  0  0
   61.2840   31.3910   50.2770 O   0  0  0  0  0  0  0  0  0  0  0  0
   60.2670   31.7890   51.1420 C   0  0  0  0  0  0  0  0  0  0  0  0
   59.2820   32.6250   50.3720 C   0  0  0  0  0  0  0  0  0  0  0  0
   58.5520   31.6990   49.4160 C   0  0  0  0  0  0  0  0  0  0  0  0
   59.3950   31.2310   48.3410 N   0  0  0  0  0  0  0  0  0  0  0  0
   59.0040   31.4790   47.0060 C   0  0  0  0  0  0  0  0  0  0  0  0
   58.5230   30.4340   46.2120 C   0  0  0  0  0  0  0  0  0  0  0  0
   58.4600   29.2050   46.7980 C   0  0  0  0  0  0  0  0  0  0  0  0
   57.9920   28.1380   46.0420 C   0  0  0  0  0  0  0  0  0  0  0  0
   57.5910   28.3060   44.7160 C   0  0  0  0  0  0  0  0  0  0  0  0
   57.6840   29.5900   44.1910 C   0  0  0  0  0  0  0  0  0  0  0  0
   58.1370   30.6720   44.8880 C   0  0  0  0  0  0  0  0  0  0  0  0
   58.2240   31.9230   44.3520 N   0  0  0  0  0  0  0  0  0  0  0  0
   57.7940   32.0990   42.9880 C   0  0  0  0  0  0  0  0  0  0  0  0
   58.6850   32.9410   45.0940 C   0  0  0  0  0  0  0  0  0  0  0  0
   58.8050   34.2210   44.6090 C   0  0  0  0  0  0  0  0  0  0  0  0
   59.2860   35.2470   45.3860 C   0  0  0  0  0  0  0  0  0  0  0  0
   59.6780   35.0400   46.7110 C   0  0  0  0  0  0  0  0  0  0  0  0
   59.5510   33.7530   47.1760 C   0  0  0  0  0  0  0  0  0  0  0  0
   59.0640   32.7110   46.3950 C   0  0  0  0  0  0  0  0  0  0  0  0
   65.8847   32.1864   51.5591 H   0  0  0  0  0  0  0  0  0  0  0  0
   65.5773   31.0284   50.2208 H   0  0  0  0  0  0  0  0  0  0  0  0
   67.0719   32.0248   50.2208 H   0  0  0  0  0  0  0  0  0  0  0  0
   65.3703   34.0238   50.2815 H   0  0  0  0  0  0  0  0  0  0  0  0
   65.7637   33.1285   48.7236 H   0  0  0  0  0  0  0  0  0  0  0  0
   63.0786   33.9279   47.8935 H   0  0  0  0  0  0  0  0  0  0  0  0
   64.6158   33.0309   47.5446 H   0  0  0  0  0  0  0  0  0  0  0  0
   62.4364   31.2334   48.3039 H   0  0  0  0  0  0  0  0  0  0  0  0
   62.0264   32.2252   46.8634 H   0  0  0  0  0  0  0  0  0  0  0  0
   63.5093   31.2115   46.8634 H   0  0  0  0  0  0  0  0  0  0  0  0
   62.7084   33.4277   51.0959 H   0  0  0  0  0  0  0  0  0  0  0  0
   63.9158   34.6434   50.4975 H   0  0  0  0  0  0  0  0  0  0  0  0
   61.3645   35.0110   50.0300 H   0  0  0  0  0  0  0  0  0  0  0  0
   62.5716   35.3163   48.7352 H   0  0  0  0  0  0  0  0  0  0  0  0
   61.6203   33.7925   48.7352 H   0  0  0  0  0  0  0  0  0  0  0  0
   63.2886   30.9215   49.0831 H   0  0  0  0  0  0  0  0  0  0  0  0
   64.4966   31.2230   50.4807 H   0  0  0  0  0  0  0  0  0  0  0  0
   62.6496   30.4047   51.4833 H   0  0  0  0  0  0  0  0  0  0  0  0
   62.5769   32.1686   51.7105 H   0  0  0  0  0  0  0  0  0  0  0  0
   59.7605   30.9025   51.5513 H   0  0  0  0  0  0  0  0  0  0  0  0
   60.6879   32.3742   51.9729 H   0  0  0  0  0  0  0  0  0  0  0  0
   58.5654   33.0936   51.0626 H   0  0  0  0  0  0  0  0  0  0  0  0
   59.7981   33.4248   49.8207 H   0  0  0  0  0  0  0  0  0  0  0  0
   58.1853   30.8287   49.9801 H   0  0  0  0  0  0  0  0  0  0  0  0
   57.7260   32.2696   48.9663 H   0  0  0  0  0  0  0  0  0  0  0  0
   60.2930   30.7100   48.4810 H   0  0  0  0  0  0  0  0  0  0  0  0
   58.7719   29.0618   47.8431 H   0  0  0  0  0  0  0  0  0  0  0  0
   57.9362   27.1387   46.4985 H   0  0  0  0  0  0  0  0  0  0  0  0
   57.2192   27.4630   44.1150 H   0  0  0  0  0  0  0  0  0  0  0  0
   57.3725   29.7434   43.1472 H   0  0  0  0  0  0  0  0  0  0  0  0
   56.7760   32.5156   42.9753 H   0  0  0  0  0  0  0  0  0  0  0  0
   58.4791   32.7891   42.4737 H   0  0  0  0  0  0  0  0  0  0  0  0
   57.7986   31.1266   42.4737 H   0  0  0  0  0  0  0  0  0  0  0  0
   58.5080   34.4299   43.5707 H   0  0  0  0  0  0  0  0  0  0  0  0
   59.3644   36.2558   44.9545 H   0  0  0  0  0  0  0  0  0  0  0  0
   60.0635   35.8548   47.3415 H   0  0  0  0  0  0  0  0  0  0  0  0
   59.8481   33.5376   48.2130 H   0  0  0  0  0  0  0  0  0  0  0  0
  1  2  1  0
  2  3  1  0
  3  4  1  0
  4  5  1  0
  3  6  1  0
  6  7  1  0
  3  8  1  0
  8  9  1  0
  9 10  1  0
 10 11  1  0
 11 12  1  0
 12 13  1  0
 13 14  1  0
 14 15  1  0
 15 16  2  0
 16 17  1  0
 17 18  2  0
 18 19  1  0
 19 20  2  0
 20 21  1  0
 21 22  2  0
 22 23  1  0
 22 24  1  0
 24 25  2  0
 25 26  1  0
 26 27  2  0
 27 28  1  0
 28 29  2  0
 29 15  1  0
 21 16  1  0
 29 24  1  0
  1 30  1  0
  1 31  1  0
  1 32  1  0
  2 33  1  0
  2 34  1  0
  4 35  1  0
  4 36  1  0
  5 37  1  0
  5 38  1  0
  5 39  1  0
  6 40  1  0
  6 41  1  0
  7 42  1  0
  7 43  1  0
  7 44  1  0
  8 45  1  0
  8 46  1  0
  9 47  1  0
  9 48  1  0
 11 49  1  0
 11 50  1  0
 12 51  1  0
 12 52  1  0
 13 53  1  0
 13 54  1  0
 14 55  1  0
 17 56  1  0
 18 57  1  0
 19 58  1  0
 20 59  1  0
 23 60  1  0
 23 61  1  0
 23 62  1  0
 25 63  1  0
 26 64  1  0
 27 65  1  0
 28 66  1  0
M  CHG  2   3   1  22   1
M  END
>  <smiles>  (10) 
CC[N+](CC)(CC)CCOCCCNc1c2ccccc2[n+](C)c2ccccc12

>  <score_type>  (10) 
oracle

>  <origin>  (10) 
adg

>  <m_score__min__energy>  (10) 
-4.0599999999999996

>  <m_primary>  (10) 
energy

$$$$
10:0
     RDKit          3D

 46 45  0  0  0  0  0  0  0  0999 V2000
   60.7580   28.6480   44.8770 C   0  0  0  0  0  0  0  0  0  0  0  0
   60.0670   29.7360   45.6640 C   0  0  0  0  0  0  0  0  0  0  0  0
   58.8940   29.2720   46.3320 N   0  0  0  0  0  0  0  0  0  0  0  0
   58.9650   29.6300   47.7100 C   0  0  0  0  0  0  0  0  0  0  0  0
   58.4880   27.9430   46.0300 C   0  0  0  0  0  0  0  0  0  0  0  0
   57.0220   27.9060   45.6010 C   0  0  0  0  0  0  0  0  0  0  0  0
   56.6850   29.1300   45.1060 O   0  0  0  0  0  0  0  0  0  0  0  0
   56.7070   29.3060   43.7550 C   0  0  0  0  0  0  0  0  0  0  0  0
   56.6680   30.7640   43.4100 C   0  0  0  0  0  0  0  0  0  0  0  0
   56.3070   31.5330   44.5190 O   0  0  0  0  0  0  0  0  0  0  0  0
   57.3490   31.6630   45.3850 N   0  0  0  0  0  0  0  0  0  0  0  0
   57.5300   32.8670   46.0940 C   0  0  0  0  0  0  0  0  0  0  0  0
   56.6730   33.7870   45.8690 O   0  0  0  0  0  0  0  0  0  0  0  0
   58.5900   33.1700   47.0560 C   0  0  0  0  0  0  0  0  0  0  0  0
   59.6720   33.9620   46.5230 N   0  0  0  0  0  0  0  0  0  0  0  0
   60.9650   33.3770   46.7570 C   0  0  0  0  0  0  0  0  0  0  0  0
   59.5150   34.0230   45.0550 C   0  0  0  0  0  0  0  0  0  0  0  0
   59.6630   35.3280   46.9810 C   0  0  0  0  0  0  0  0  0  0  0  0
   61.2155   27.9276   45.5710 H   0  0  0  0  0  0  0  0  0  0  0  0
   60.0227   28.1304   44.2433 H   0  0  0  0  0  0  0  0  0  0  0  0
   61.5391   29.0935   44.2433 H   0  0  0  0  0  0  0  0  0  0  0  0
   60.7688   30.1266   46.4156 H   0  0  0  0  0  0  0  0  0  0  0  0
   59.7578   30.5157   44.9524 H   0  0  0  0  0  0  0  0  0  0  0  0
   58.7882   28.7387   48.3300 H   0  0  0  0  0  0  0  0  0  0  0  0
   59.9618   30.0391   47.9317 H   0  0  0  0  0  0  0  0  0  0  0  0
   58.1998   30.3885   47.9317 H   0  0  0  0  0  0  0  0  0  0  0  0
   59.1125   27.5523   45.2131 H   0  0  0  0  0  0  0  0  0  0  0  0
   58.6062   27.3253   46.9325 H   0  0  0  0  0  0  0  0  0  0  0  0
   56.8821   27.1402   44.8239 H   0  0  0  0  0  0  0  0  0  0  0  0
   56.3836   27.6590   46.4621 H   0  0  0  0  0  0  0  0  0  0  0  0
   57.6281   28.8632   43.3481 H   0  0  0  0  0  0  0  0  0  0  0  0
   55.8235   28.8159   43.3201 H   0  0  0  0  0  0  0  0  0  0  0  0
   57.6636   31.0781   43.0636 H   0  0  0  0  0  0  0  0  0  0  0  0
   55.9182   30.9164   42.6197 H   0  0  0  0  0  0  0  0  0  0  0  0
   57.9860   30.8530   45.4920 H   0  0  0  0  0  0  0  0  0  0  0  0
   58.1435   33.7200   47.8975 H   0  0  0  0  0  0  0  0  0  0  0  0
   59.0259   32.2056   47.3560 H   0  0  0  0  0  0  0  0  0  0  0  0
   61.1409   33.2974   47.8399 H   0  0  0  0  0  0  0  0  0  0  0  0
   61.0013   32.3748   46.3050 H   0  0  0  0  0  0  0  0  0  0  0  0
   61.7417   34.0114   46.3050 H   0  0  0  0  0  0  0  0  0  0  0  0
   58.5156   34.4113   44.8089 H   0  0  0  0  0  0  0  0  0  0  0  0
   60.2815   34.6888   44.6316 H   0  0  0  0  0  0  0  0  0  0  0  0
   59.6310   33.0144   44.6316 H   0  0  0  0  0  0  0  0  0  0  0  0
   59.6629   35.3460   48.0809 H   0  0  0  0  0  0  0  0  0  0  0  0
   60.5577   35.8464   46.6059 H   0  0  0  0  0  0  0  0  0  0  0  0
   58.7615   35.8346   46.6059 H   0  0  0  0  0  0  0  0  0  0  0  0
  1  2  1  0
  2  3  1  0
  3  4  1  0
  3  5  1  0
  5  6  1  0
  6  7  1  0
  7  8  1  0
  8  9  1  0
  9 10  1  0
 10 11  1  0
 11 12  1  0
 12 13  2  0
 12 14  1  0
 14 15  1  0
 15 16  1  0
 15 17  1  0
 15 18  1  0
  1 19  1  0
  1 20  1  0
  1 21  1  0
  2 22  1  0
  2 23  1  0
  4 24  1  0
  4 25  1  0
  4 26  1  0
  5 27  1  0
  5 28  1  0
  6 29  1  0
  6 30  1  0
  8 31  1  0
  8 32  1  0
  9 33  1  0
  9 34  1  0
 11 35  1  0
 14 36  1  0
 14 37  1  0
 16 38  1  0
 16 39  1  0
 16 40  1  0
 17 41  1  0
 17 42  1  0
 17 43  1  0
 18 44  1  0
 18 45  1  0
 18 46  1  0
M  CHG  1  15   1
M  END
>  <smiles>  (11) 
CCN(C)CCOCCONC(=O)C[N+](C)(C)C

>  <score_type>  (11) 
oracle

>  <origin>  (11) 
adg

>  <m_score__min__energy>  (11) 
-3.9399999999999999

>  <m_primary>  (11) 
energy

$$$$
12:0
     RDKit          3D

 43 44  0  0  1  0  0  0  0  0999 V2000
   54.8790   23.7650   44.5570 C   0  0  0  0  0  0  0  0  0  0  0  0
   53.9930   24.5700   45.4590 C   0  0  0  0  0  0  0  0  0  0  0  0
   54.4340   25.8890   45.6610 O   0  0  0  0  0  0  0  0  0  0  0  0
   55.5090   26.2610   46.3640 N   0  0  0  0  0  0  0  0  0  0  0  0
   56.7250   26.1350   45.9810 C   0  0  0  0  0  0  0  0  0  0  0  0
   57.8120   27.0430   46.2820 C   0  0  0  0  0  0  0  0  0  0  0  0
   58.9660   26.7100   46.9410 C   0  0  0  0  0  0  0  0  0  0  0  0
   59.9840   27.6270   47.2050 C   0  0  0  0  0  0  0  0  0  0  0  0
   59.8420   28.9300   46.7940 C   0  0  0  0  0  0  0  0  0  0  0  0
   58.6830   29.2560   46.1360 C   0  0  0  0  0  0  0  0  0  0  0  0
   57.6630   28.3750   45.8600 C   0  0  0  0  0  0  0  0  0  0  0  0
   56.5750   28.7390   45.2260 O   0  0  0  0  0  0  0  0  0  0  0  0
   55.8620   29.5100   44.4200 C   0  0  0  0  0  0  0  0  0  0  0  0
   56.4410   30.8130   43.9400 C   0  0  0  0  0  0  0  0  0  0  0  0
   56.6400   31.8050   44.8470 O   0  0  0  0  0  0  0  0  0  0  0  0
   57.5240   32.8030   44.4460 C   0  0  0  0  0  0  0  0  0  0  0  0
   58.2350   33.4420   45.5760 C   0  0  0  0  0  0  0  0  0  0  0  0
   58.2320   33.0000   46.8700 C   0  0  0  0  0  0  0  0  0  0  0  0
   58.9240   33.6790   47.8510 C   0  0  0  0  0  0  0  0  0  0  0  0
   59.6460   34.8200   47.6010 C   0  0  0  0  0  0  0  0  0  0  0  0
   59.6560   35.2770   46.2920 C   0  0  0  0  0  0  0  0  0  0  0  0
   58.9710   34.6030   45.3210 C   0  0  0  0  0  0  0  0  0  0  0  0
   55.5577   23.1484   45.1646 H   0  0  0  0  0  0  0  0  0  0  0  0
   54.2608   23.1132   43.9222 H   0  0  0  0  0  0  0  0  0  0  0  0
   55.4688   24.4427   43.9222 H   0  0  0  0  0  0  0  0  0  0  0  0
   52.9871   24.6052   45.0151 H   0  0  0  0  0  0  0  0  0  0  0  0
   54.0038   24.0756   46.4416 H   0  0  0  0  0  0  0  0  0  0  0  0
   56.9657   25.2551   45.3663 H   0  0  0  0  0  0  0  0  0  0  0  0
   59.0961   25.6709   47.2778 H   0  0  0  0  0  0  0  0  0  0  0  0
   60.8924   27.3092   47.7377 H   0  0  0  0  0  0  0  0  0  0  0  0
   60.6239   29.6799   46.9842 H   0  0  0  0  0  0  0  0  0  0  0  0
   58.5604   30.2978   45.8050 H   0  0  0  0  0  0  0  0  0  0  0  0
   55.6327   28.9125   43.5253 H   0  0  0  0  0  0  0  0  0  0  0  0
   55.0103   29.8191   45.0437 H   0  0  0  0  0  0  0  0  0  0  0  0
   57.4170   30.5873   43.4855 H   0  0  0  0  0  0  0  0  0  0  0  0
   55.6741   31.2162   43.2623 H   0  0  0  0  0  0  0  0  0  0  0  0
   58.2697   32.3585   43.7705 H   0  0  0  0  0  0  0  0  0  0  0  0
   56.9303   33.5849   43.9498 H   0  0  0  0  0  0  0  0  0  0  0  0
   57.6704   32.0911   47.1319 H   0  0  0  0  0  0  0  0  0  0  0  0
   58.8963   33.2892   48.8793 H   0  0  0  0  0  0  0  0  0  0  0  0
   60.1897   35.3456   48.3999 H   0  0  0  0  0  0  0  0  0  0  0  0
   60.2182   36.1866   46.0341 H   0  0  0  0  0  0  0  0  0  0  0  0
   58.9998   34.9913   44.2922 H   0  0  0  0  0  0  0  0  0  0  0  0
  1  2  1  0
  2  3  1  0
  3  4  1  0
  4  5  2  0
  5  6  1  0
  6  7  2  0
  7  8  1  0
  8  9  2  0
  9 10  1  0
 10 11  2  0
 11 12  1  0
 12 13  1  0
 13 14  1  0
 14 15  1  0
 15 16  1  0
 16 17  1  0
 17 18  2  0
 18 19  1  0
 19 20  2  0
 20 21  1  0
 21 22  2  0
 11  6  1  0
 22 17  1  0
  1 23  1  0
  1 24  1  0
  1 25  1  0
  2 26  1  0
  2 27  1  0
  5 28  1  0
  7 29  1  0
  8 30  1  0
  9 31  1  0
 10 32  1  0
 13 33  1  0
 13 34  1  0
 14 35  1  0
 14 36  1  0
 16 37  1  0
 16 38  1  0
 18 39  1  0
 19 40  1  0
 20 41  1  0
 21 42  1  0
 22 43  1  0
M  END
>  <smiles>  (12) 
CCON=Cc1ccccc1OCCOCc1ccccc1

>  <score_type>  (12) 
oracle

>  <origin>  (12) 
adg

>  <m_score__min__energy>  (12) 
-7.6699999999999999

>  <m_primary>  (12) 
energy

$$$$
13:0
     RDKit          3D

 85 88  0  0  0  0  0  0  0  0999 V2000
   63.3350   33.9020   46.3160 C   0  0  0  0  0  0  0  0  0  0  0  0
   63.3900   33.3380   47.7080 C   0  0  0  0  0  0  0  0  0  0  0  0
   63.0980   31.8910   47.8460 C   0  0  0  0  0  0  0  0  0  0  0  0
   62.7130   31.4120   49.0890 N   0  0  0  0  0  0  0  0  0  0  0  0
   63.1780   32.0290   50.2800 C   0  0  0  0  0  0  0  0  0  0  0  0
   64.6460   31.8730   50.5480 C   0  0  0  0  0  0  0  0  0  0  0  0
   65.2450   33.2720   50.5090 C   0  0  0  0  0  0  0  0  0  0  0  0
   61.6950   30.4670   49.2450 C   0  0  0  0  0  0  0  0  0  0  0  0
   60.7890   30.1700   48.1300 C   0  0  0  0  0  0  0  0  0  0  0  0
   59.5030   30.7670   48.0490 N   0  0  0  0  0  0  0  0  0  0  0  0
   59.1280   31.4250   46.8510 C   0  0  0  0  0  0  0  0  0  0  0  0
   58.5210   30.5680   45.9090 C   0  0  0  0  0  0  0  0  0  0  0  0
   58.3360   29.2190   46.2020 C   0  0  0  0  0  0  0  0  0  0  0  0
   57.7620   28.3250   45.3350 C   0  0  0  0  0  0  0  0  0  0  0  0
   57.3500   28.7900   44.1150 C   0  0  0  0  0  0  0  0  0  0  0  0
   57.5160   30.1120   43.7920 C   0  0  0  0  0  0  0  0  0  0  0  0
   58.1000   31.0060   44.6840 C   0  0  0  0  0  0  0  0  0  0  0  0
   58.2680   32.3220   44.3520 N   0  0  0  0  0  0  0  0  0  0  0  0
   57.7740   32.6890   43.0470 C   0  0  0  0  0  0  0  0  0  0  0  0
   58.8420   33.1530   45.2300 C   0  0  0  0  0  0  0  0  0  0  0  0
   59.0020   34.4650   44.8470 C   0  0  0  0  0  0  0  0  0  0  0  0
   59.5990   35.3420   45.7270 C   0  0  0  0  0  0  0  0  0  0  0  0
   60.0160   34.8920   46.9600 C   0  0  0  0  0  0  0  0  0  0  0  0
   59.8750   33.5820   47.3860 C   0  0  0  0  0  0  0  0  0  0  0  0
   60.2520   33.2820   48.7050 N   0  0  0  0  0  0  0  0  0  0  0  0
   59.6720   34.0940   49.8120 C   0  0  0  0  0  0  0  0  0  0  0  0
   60.3450   33.7870   51.0990 C   0  0  0  0  0  0  0  0  0  0  0  0
   59.5210   33.2150   52.1910 C   0  0  0  0  0  0  0  0  0  0  0  0
   59.6990   31.8570   52.5500 N   0  0  0  0  0  0  0  0  0  0  0  0
   60.9650   31.4930   53.1020 C   0  0  0  0  0  0  0  0  0  0  0  0
   58.7030   31.6090   53.6340 C   0  0  0  0  0  0  0  0  0  0  0  0
   57.3440   32.0310   53.1810 C   0  0  0  0  0  0  0  0  0  0  0  0
   56.9030   31.4650   51.8750 C   0  0  0  0  0  0  0  0  0  0  0  0
   57.9950   31.1480   50.9050 C   0  0  0  0  0  0  0  0  0  0  0  0
   59.3290   30.8900   51.5320 C   0  0  0  0  0  0  0  0  0  0  0  0
   59.2810   32.7150   46.4980 C   0  0  0  0  0  0  0  0  0  0  0  0
   63.2284   34.9956   46.3674 H   0  0  0  0  0  0  0  0  0  0  0  0
   64.2621   33.6488   45.7809 H   0  0  0  0  0  0  0  0  0  0  0  0
   62.4743   33.4744   45.7809 H   0  0  0  0  0  0  0  0  0  0  0  0
   64.4025   33.5138   48.1004 H   0  0  0  0  0  0  0  0  0  0  0  0
   62.5905   33.8512   48.2625 H   0  0  0  0  0  0  0  0  0  0  0  0
   62.2878   31.6539   47.1408 H   0  0  0  0  0  0  0  0  0  0  0  0
   64.0638   31.4006   47.6543 H   0  0  0  0  0  0  0  0  0  0  0  0
   62.9561   33.1044   50.2154 H   0  0  0  0  0  0  0  0  0  0  0  0
   62.6606   31.5231   51.1085 H   0  0  0  0  0  0  0  0  0  0  0  0
   64.8053   31.4191   51.5372 H   0  0  0  0  0  0  0  0  0  0  0  0
   65.1186   31.2176   49.8016 H   0  0  0  0  0  0  0  0  0  0  0  0
   65.3997   33.6334   51.5364 H   0  0  0  0  0  0  0  0  0  0  0  0
   66.2097   33.2432   49.9812 H   0  0  0  0  0  0  0  0  0  0  0  0
   64.5584   33.9503   49.9812 H   0  0  0  0  0  0  0  0  0  0  0  0
   62.1815   29.5193   49.5191 H   0  0  0  0  0  0  0  0  0  0  0  0
   61.0327   30.9315   49.9904 H   0  0  0  0  0  0  0  0  0  0  0  0
   61.3227   30.4528   47.2106 H   0  0  0  0  0  0  0  0  0  0  0  0
   60.5511   29.1081   48.2903 H   0  0  0  0  0  0  0  0  0  0  0  0
   58.7540   30.7540   48.7970 H   0  0  0  0  0  0  0  0  0  0  0  0
   58.6688   28.8502   47.1834 H   0  0  0  0  0  0  0  0  0  0  0  0
   57.6365   27.2676   45.6110 H   0  0  0  0  0  0  0  0  0  0  0  0
   56.8853   28.1022   43.3932 H   0  0  0  0  0  0  0  0  0  0  0  0
   57.1809   30.4730   42.8084 H   0  0  0  0  0  0  0  0  0  0  0  0
   56.8955   33.3417   43.1577 H   0  0  0  0  0  0  0  0  0  0  0  0
   58.5606   33.2235   42.4942 H   0  0  0  0  0  0  0  0  0  0  0  0
   57.4893   31.7816   42.4942 H   0  0  0  0  0  0  0  0  0  0  0  0
   58.6605   34.8069   43.8588 H   0  0  0  0  0  0  0  0  0  0  0  0
   59.7416   36.3959   45.4459 H   0  0  0  0  0  0  0  0  0  0  0  0
   60.4871   35.6130   47.6442 H   0  0  0  0  0  0  0  0  0  0  0  0
   60.8650   32.5540   49.0660 H   0  0  0  0  0  0  0  0  0  0  0  0
   59.8023   35.1619   49.5826 H   0  0  0  0  0  0  0  0  0  0  0  0
   58.6034   33.8503   49.9058 H   0  0  0  0  0  0  0  0  0  0  0  0
   61.1503   33.0688   50.8850 H   0  0  0  0  0  0  0  0  0  0  0  0
   60.6709   34.7655   51.4814 H   0  0  0  0  0  0  0  0  0  0  0  0
   59.7195   33.8145   53.0916 H   0  0  0  0  0  0  0  0  0  0  0  0
   58.4965   33.2487   51.7918 H   0  0  0  0  0  0  0  0  0  0  0  0
   60.9048   31.5103   54.2002 H   0  0  0  0  0  0  0  0  0  0  0  0
   61.2344   30.4810   52.7655 H   0  0  0  0  0  0  0  0  0  0  0  0
   61.7308   32.2073   52.7655 H   0  0  0  0  0  0  0  0  0  0  0  0
   58.6894   30.5366   53.8786 H   0  0  0  0  0  0  0  0  0  0  0  0
   58.9847   32.1897   54.5248 H   0  0  0  0  0  0  0  0  0  0  0  0
   56.6188   31.7209   53.9478 H   0  0  0  0  0  0  0  0  0  0  0  0
   57.3961   33.1204   53.0379 H   0  0  0  0  0  0  0  0  0  0  0  0
   56.3511   30.5355   52.0784 H   0  0  0  0  0  0  0  0  0  0  0  0
   56.2959   32.2485   51.3980 H   0  0  0  0  0  0  0  0  0  0  0  0
   57.7022   30.2509   50.3397 H   0  0  0  0  0  0  0  0  0  0  0  0
   58.1158   32.0377   50.2695 H   0  0  0  0  0  0  0  0  0  0  0  0
   59.3069   29.8921   51.9943 H   0  0  0  0  0  0  0  0  0  0  0  0
   60.0783   30.9685   50.7306 H   0  0  0  0  0  0  0  0  0  0  0  0
  1  2  1  0
  2  3  1  0
  3  4  1  0
  4  5  1  0
  5  6  1  0
  6  7  1  0
  4  8  1  0
  8  9  1  0
  9 10  1  0
 10 11  1  0
 11 12  2  0
 12 13  1  0
 13 14  2  0
 14 15  1  0
 15 16  2  0
 16 17  1  0
 17 18  2  0
 18 19  1  0
 18 20  1  0
 20 21  2  0
 21 22  1  0
 22 23  2  0
 23 24  1  0
 24 25  1  0
 25 26  1  0
 26 27  1  0
 27 28  1  0
 28 29  1  0
 29 30  1  0
 29 31  1  0
 31 32  1  0
 32 33  1  0
 33 34  1  0
 34 35  1  0
 24 36  2  0
 36 11  1  0
 17 12  1  0
 36 20  1  0
 35 29  1  0
  1 37  1  0
  1 38  1  0
  1 39  1  0
  2 40  1  0
  2 41  1  0
  3 42  1  0
  3 43  1  0
  5 44  1  0
  5 45  1  0
  6 46  1  0
  6 47  1  0
  7 48  1  0
  7 49  1  0
  7 50  1  0
  8 51  1  0
  8 52  1  0
  9 53  1  0
  9 54  1  0
 10 55  1  0
 13 56  1  0
 14 57  1  0
 15 58  1  0
 16 59  1  0
 19 60  1  0
 19 61  1  0
 19 62  1  0
 21 63  1  0
 22 64  1  0
 23 65  1  0
 25 66  1  0
 26 67  1  0
 26 68  1  0
 27 69  1  0
 27 70  1  0
 28 71  1  0
 28 72  1  0
 30 73  1  0
 30 74  1  0
 30 75  1  0
 31 76  1  0
 31 77  1  0
 32 78  1  0
 32 79  1  0
 33 80  1  0
 33 81  1  0
 34 82  1  0
 34 83  1  0
 35 84  1  0
 35 85  1  0
M  CHG  2  18   1  29   1
M  END
>  <smiles>  (13) 
CCCN(CCC)CCNc1c2ccccc2[n+](C)c2cccc(NCCC[N+]3(C)CCCCC3)c12

>  <score_type>  (13) 
oracle

>  <origin>  (13) 
adg

>  <m_score__min__energy>  (13) 
-5.3799999999999999

>  <m_primary>  (13) 
energy

$$$$
14:0
     RDKit          3D

 56 58  0  0  0  0  0  0  0  0999 V2000
   60.0300   29.4990   46.8500 C   0  0  0  0  0  0  0  0  0  0  0  0
   58.8940   28.9900   47.7480 C   0  0  0  0  0  0  0  0  0  0  0  0
   59.3900   29.0010   49.1120 N   0  0  0  0  0  0  0  0  0  0  0  0
   60.3870   27.9330   49.2180 C   0  0  0  0  0  0  0  0  0  0  0  0
   60.9970   28.1420   50.6180 C   0  0  0  0  0  0  0  0  0  0  0  0
   60.2040   29.1020   51.2930 N   0  0  0  0  0  0  0  0  0  0  0  0
   59.3320   28.7450   52.3040 C   0  0  0  0  0  0  0  0  0  0  0  0
   57.9680   29.3510   52.3740 C   0  0  0  0  0  0  0  0  0  0  0  0
   57.6200   30.1520   51.2520 N   0  0  0  0  0  0  0  0  0  0  0  0
   57.3620   31.5610   51.5440 C   0  0  0  0  0  0  0  0  0  0  0  0
   58.2350   32.3380   50.6290 C   0  0  0  0  0  0  0  0  0  0  0  0
   59.1860   31.6480   49.8210 N   0  0  0  0  0  0  0  0  0  0  0  0
   60.0570   32.2450   48.8790 C   0  0  0  0  0  0  0  0  0  0  0  0
   59.6980   32.9690   47.7850 C   0  0  0  0  0  0  0  0  0  0  0  0
   58.3660   33.1420   47.5010 C   0  0  0  0  0  0  0  0  0  0  0  0
   57.9520   33.8610   46.3940 C   0  0  0  0  0  0  0  0  0  0  0  0
   58.9070   34.4140   45.5640 C   0  0  0  0  0  0  0  0  0  0  0  0
   60.2470   34.2260   45.8730 C   0  0  0  0  0  0  0  0  0  0  0  0
   60.6810   33.5180   46.9620 C   0  0  0  0  0  0  0  0  0  0  0  0
   62.0010   33.3340   47.2440 N   0  0  0  0  0  0  0  0  0  0  0  0
   62.9950   33.9160   46.3690 C   0  0  0  0  0  0  0  0  0  0  0  0
   62.3970   32.6170   48.3280 C   0  0  0  0  0  0  0  0  0  0  0  0
   63.5810   32.2920   48.8230 O   0  0  0  0  0  0  0  0  0  0  0  0
   63.4250   31.5620   49.9240 C   0  0  0  0  0  0  0  0  0  0  0  0
   62.0790   31.3880   50.1820 C   0  0  0  0  0  0  0  0  0  0  0  0
   61.4210   32.0720   49.1470 C   0  0  0  0  0  0  0  0  0  0  0  0
   60.8551   29.8687   47.4766 H   0  0  0  0  0  0  0  0  0  0  0  0
   60.3918   28.6769   46.2149 H   0  0  0  0  0  0  0  0  0  0  0  0
   59.6573   30.3162   46.2149 H   0  0  0  0  0  0  0  0  0  0  0  0
   58.0186   29.6502   47.6596 H   0  0  0  0  0  0  0  0  0  0  0  0
   58.5854   27.9765   47.4520 H   0  0  0  0  0  0  0  0  0  0  0  0
   58.6510   28.8770   49.8210 H   0  0  0  0  0  0  0  0  0  0  0  0
   59.9122   26.9438   49.1405 H   0  0  0  0  0  0  0  0  0  0  0  0
   61.1383   27.9693   48.4154 H   0  0  0  0  0  0  0  0  0  0  0  0
   60.9918   27.1932   51.1746 H   0  0  0  0  0  0  0  0  0  0  0  0
   62.0377   28.4891   50.5375 H   0  0  0  0  0  0  0  0  0  0  0  0
   59.9870   29.9770   50.7600 H   0  0  0  0  0  0  0  0  0  0  0  0
   59.1906   27.6567   52.2294 H   0  0  0  0  0  0  0  0  0  0  0  0
   59.8244   29.1355   53.2068 H   0  0  0  0  0  0  0  0  0  0  0  0
   57.2338   28.5359   52.4551 H   0  0  0  0  0  0  0  0  0  0  0  0
   57.9673   30.0194   53.2476 H   0  0  0  0  0  0  0  0  0  0  0  0
   58.2210   30.0500   50.4310 H   0  0  0  0  0  0  0  0  0  0  0  0
   56.3048   31.8018   51.3589 H   0  0  0  0  0  0  0  0  0  0  0  0
   57.5722   31.7980   52.5974 H   0  0  0  0  0  0  0  0  0  0  0  0
   57.5733   32.8903   49.9455 H   0  0  0  0  0  0  0  0  0  0  0  0
   58.8568   32.9390   51.3088 H   0  0  0  0  0  0  0  0  0  0  0  0
   59.2890   30.5800   49.9010 H   0  0  0  0  0  0  0  0  0  0  0  0
   57.6116   32.6993   48.1681 H   0  0  0  0  0  0  0  0  0  0  0  0
   56.8810   33.9899   46.1788 H   0  0  0  0  0  0  0  0  0  0  0  0
   58.6117   34.9919   44.6758 H   0  0  0  0  0  0  0  0  0  0  0  0
   61.0015   34.6699   45.2069 H   0  0  0  0  0  0  0  0  0  0  0  0
   63.7883   34.3805   46.9730 H   0  0  0  0  0  0  0  0  0  0  0  0
   63.4301   33.1300   45.7343 H   0  0  0  0  0  0  0  0  0  0  0  0
   62.5225   34.6801   45.7343 H   0  0  0  0  0  0  0  0  0  0  0  0
   64.2443   31.1578   50.5367 H   0  0  0  0  0  0  0  0  0  0  0  0
   61.6225   30.8346   51.0159 H   0  0  0  0  0  0  0  0  0  0  0  0
  1  2  1  0
  2  3  1  0
  3  4  1  0
  4  5  1  0
  5  6  1  0
  6  7  1  0
  7  8  1  0
  8  9  1  0
  9 10  1  0
 10 11  1  0
 11 12  1  0
 12 13  1  0
 13 14  2  0
 14 15  1  0
 15 16  2  0
 16 17  1  0
 17 18  2  0
 18 19  1  0
 19 20  2  0
 20 21  1  0
 20 22  1  0
 22 23  1  0
 23 24  1  0
 24 25  2  0
 25 26  1  0
 26 13  1  0
 19 14  1  0
 26 22  2  0
  1 27  1  0
  1 28  1  0
  1 29  1  0
  2 30  1  0
  2 31  1  0
  3 32  1  0
  4 33  1  0
  4 34  1  0
  5 35  1  0
  5 36  1  0
  6 37  1  0
  7 38  1  0
  7 39  1  0
  8 40  1  0
  8 41  1  0
  9 42  1  0
 10 43  1  0
 10 44  1  0
 11 45  1  0
 11 46  1  0
 12 47  1  0
 15 48  1  0
 16 49  1  0
 17 50  1  0
 18 51  1  0
 21 52  1  0
 21 53  1  0
 21 54  1  0
 24 55  1  0
 25 56  1  0
M  CHG  1  20   1
M  END
>  <smiles>  (14) 
CCNCCNCCNCCNc1c2ccccc2[n+](C)c2occc12

>  <score_type>  (14) 
oracle

>  <origin>  (14) 
adg

>  <m_score__min__energy>  (14) 
-5.0800000000000001

>  <m_primary>  (14) 
energy

$$$$
15:0
     RDKit          3D

 36 38  0  0  1  0  0  0  0  0999 V2000
   64.1000   33.0810   48.0530 C   0  0  0  0  0  0  0  0  0  0  0  0
   62.8730   33.9470   48.0810 C   0  0  0  0  0  0  0  0  0  0  0  0
   61.7110   33.2050   47.4840 C   0  0  0  0  0  0  0  0  0  0  0  0
   61.4490   31.9050   47.8630 C   0  0  0  0  0  0  0  0  0  0  0  0
   60.3740   31.2300   47.3060 C   0  0  0  0  0  0  0  0  0  0  0  0
   59.5540   31.8170   46.3790 C   0  0  0  0  0  0  0  0  0  0  0  0
   59.8150   33.1230   45.9960 C   0  0  0  0  0  0  0  0  0  0  0  0
   60.8760   33.7830   46.5500 C   0  0  0  0  0  0  0  0  0  0  0  0
   58.9870   33.8500   45.0000 C   0  0  0  0  0  0  0  0  0  0  0  0
   57.9600   33.0120   44.3210 C   0  0  0  0  0  0  0  0  0  0  0  0
   57.4030   31.9210   45.2160 C   0  0  1  0  0  0  0  0  0  0  0  0
   56.3670   31.1130   44.4990 C   0  0  0  0  0  0  0  0  0  0  0  0
   56.2090   29.7700   45.0130 N   0  0  0  0  0  0  0  0  0  0  0  0
   57.4510   29.0540   44.9240 C   0  0  0  0  0  0  0  0  0  0  0  0
   58.4490   29.6950   45.8370 C   0  0  0  0  0  0  0  0  0  0  0  0
   58.4520   31.1380   45.8020 N   0  0  0  0  0  0  0  0  0  0  0  0
   64.4153   32.8585   49.0831 H   0  0  0  0  0  0  0  0  0  0  0  0
   63.8737   32.1414   47.5277 H   0  0  0  0  0  0  0  0  0  0  0  0
   64.9095   33.6090   47.5277 H   0  0  0  0  0  0  0  0  0  0  0  0
   62.6390   34.2148   49.1219 H   0  0  0  0  0  0  0  0  0  0  0  0
   63.0598   34.8595   47.4958 H   0  0  0  0  0  0  0  0  0  0  0  0
   62.0905   31.4059   48.6042 H   0  0  0  0  0  0  0  0  0  0  0  0
   60.1739   30.1941   47.6171 H   0  0  0  0  0  0  0  0  0  0  0  0
   61.0726   34.8193   46.2379 H   0  0  0  0  0  0  0  0  0  0  0  0
   58.4719   34.6732   45.5168 H   0  0  0  0  0  0  0  0  0  0  0  0
   59.6751   34.1982   44.2156 H   0  0  0  0  0  0  0  0  0  0  0  0
   57.1315   33.6617   44.0023 H   0  0  0  0  0  0  0  0  0  0  0  0
   58.4472   32.5209   43.4657 H   0  0  0  0  0  0  0  0  0  0  0  0
   56.8818   32.3912   46.0629 H   0  0  0  0  0  0  0  0  0  0  0  0
   55.4014   31.6327   44.5863 H   0  0  0  0  0  0  0  0  0  0  0  0
   56.7035   31.0172   43.4561 H   0  0  0  0  0  0  0  0  0  0  0  0
   55.7600   29.7110   45.9420 H   0  0  0  0  0  0  0  0  0  0  0  0
   57.2956   28.0072   45.2240 H   0  0  0  0  0  0  0  0  0  0  0  0
   57.8226   29.0813   43.8890 H   0  0  0  0  0  0  0  0  0  0  0  0
   58.2270   29.3768   46.8663 H   0  0  0  0  0  0  0  0  0  0  0  0
   59.4420   29.3716   45.4915 H   0  0  0  0  0  0  0  0  0  0  0  0
  1  2  1  0
  2  3  1  0
  3  4  2  0
  4  5  1  0
  5  6  2  0
  6  7  1  0
  7  8  2  0
  7  9  1  0
  9 10  1  0
 10 11  1  0
 11 12  1  0
 12 13  1  0
 13 14  1  0
 14 15  1  0
 15 16  1  0
  8  3  1  0
 16 11  1  0
 16  6  1  0
  1 17  1  0
  1 18  1  0
  1 19  1  0
  2 20  1  0
  2 21  1  0
  4 22  1  0
  5 23  1  0
  8 24  1  0
  9 25  1  0
  9 26  1  0
 10 27  1  0
 10 28  1  0
 11 29  1  1
 12 30  1  0
 12 31  1  0
 13 32  1  0
 14 33  1  0
 14 34  1  0
 15 35  1  0
 15 36  1  0
M  END
>  <smiles>  (15) 
CCc1ccc2c(c1)CCC1CNCCN21

>  <score_type>  (15) 
oracle

>  <origin>  (15) 
adg

>  <m_score__min__energy>  (15) 
-6.9199999999999999

>  <m_primary>  (15) 
energy

$$$$
16:0
     RDKit          3D

 53 56  0  0  0  0  0  0  0  0999 V2000
   55.4170   24.0600   44.9140 C   0  0  0  0  0  0  0  0  0  0  0  0
   54.3170   24.8710   45.6170 C   0  0  0  0  0  0  0  0  0  0  0  0
   54.7820   26.1280   45.9590 O   0  0  0  0  0  0  0  0  0  0  0  0
   56.1050   26.1390   46.3480 C   0  0  0  0  0  0  0  0  0  0  0  0
   56.8380   27.3730   45.8740 C   0  0  0  0  0  0  0  0  0  0  0  0
   55.8960   28.2150   45.2700 O   0  0  0  0  0  0  0  0  0  0  0  0
   56.4620   29.2080   44.5040 C   0  0  0  0  0  0  0  0  0  0  0  0
   57.7030   28.7880   43.7550 C   0  0  0  0  0  0  0  0  0  0  0  0
   58.7510   29.7390   44.0790 N   0  0  0  0  0  0  0  0  0  0  0  0
   58.7710   30.3540   45.3670 C   0  0  0  0  0  0  0  0  0  0  0  0
   59.2180   29.6860   46.4990 C   0  0  0  0  0  0  0  0  0  0  0  0
   59.2380   30.2880   47.7500 C   0  0  0  0  0  0  0  0  0  0  0  0
   58.8110   31.5680   47.8900 N   0  0  0  0  0  0  0  0  0  0  0  0
   58.8590   32.1730   49.2000 C   0  0  0  0  0  0  0  0  0  0  0  0
   58.3790   32.2100   46.7900 C   0  0  0  0  0  0  0  0  0  0  0  0
   57.9280   33.5160   46.8790 C   0  0  0  0  0  0  0  0  0  0  0  0
   57.4680   34.2130   45.7600 C   0  0  0  0  0  0  0  0  0  0  0  0
   57.4560   33.6030   44.5300 C   0  0  0  0  0  0  0  0  0  0  0  0
   57.8980   32.3070   44.4090 C   0  0  0  0  0  0  0  0  0  0  0  0
   58.3470   31.6410   45.5350 C   0  0  0  0  0  0  0  0  0  0  0  0
   59.7610   29.2690   48.6510 C   0  0  0  0  0  0  0  0  0  0  0  0
   60.0070   29.2630   50.0080 C   0  0  0  0  0  0  0  0  0  0  0  0
   60.5150   28.1310   50.6230 C   0  0  0  0  0  0  0  0  0  0  0  0
   60.7970   26.9680   49.9380 C   0  0  0  0  0  0  0  0  0  0  0  0
   60.5500   26.9710   48.5800 C   0  0  0  0  0  0  0  0  0  0  0  0
   60.0450   28.1030   47.9740 C   0  0  0  0  0  0  0  0  0  0  0  0
   59.7120   28.3200   46.5770 C   0  0  0  0  0  0  0  0  0  0  0  0
   59.8340   27.4840   45.6450 O   0  0  0  0  0  0  0  0  0  0  0  0
   56.0613   23.5850   45.6685 H   0  0  0  0  0  0  0  0  0  0  0  0
   54.9555   23.2844   44.2852 H   0  0  0  0  0  0  0  0  0  0  0  0
   56.0215   24.7302   44.2852 H   0  0  0  0  0  0  0  0  0  0  0  0
   53.4565   24.9758   44.9399 H   0  0  0  0  0  0  0  0  0  0  0  0
   54.0176   24.3421   46.5339 H   0  0  0  0  0  0  0  0  0  0  0  0
   56.1499   26.1023   47.4465 H   0  0  0  0  0  0  0  0  0  0  0  0
   56.5941   25.2648   45.8935 H   0  0  0  0  0  0  0  0  0  0  0  0
   57.3053   27.8840   46.7287 H   0  0  0  0  0  0  0  0  0  0  0  0
   57.6308   27.1032   45.1607 H   0  0  0  0  0  0  0  0  0  0  0  0
   55.7148   29.5443   43.7702 H   0  0  0  0  0  0  0  0  0  0  0  0
   56.7694   30.0033   45.1990 H   0  0  0  0  0  0  0  0  0  0  0  0
   58.0046   27.7766   44.0651 H   0  0  0  0  0  0  0  0  0  0  0  0
   57.5150   28.7729   42.6713 H   0  0  0  0  0  0  0  0  0  0  0  0
   59.5030   30.0040   43.4070 H   0  0  0  0  0  0  0  0  0  0  0  0
   58.7968   31.3886   49.9686 H   0  0  0  0  0  0  0  0  0  0  0  0
   59.8037   32.7246   49.3147 H   0  0  0  0  0  0  0  0  0  0  0  0
   58.0131   32.8667   49.3147 H   0  0  0  0  0  0  0  0  0  0  0  0
   57.9322   34.0181   47.8577 H   0  0  0  0  0  0  0  0  0  0  0  0
   57.1156   35.2498   45.8638 H   0  0  0  0  0  0  0  0  0  0  0  0
   57.0945   34.1486   43.6459 H   0  0  0  0  0  0  0  0  0  0  0  0
   57.8946   31.8062   43.4296 H   0  0  0  0  0  0  0  0  0  0  0  0
   59.7984   30.1628   50.6054 H   0  0  0  0  0  0  0  0  0  0  0  0
   60.7019   28.1609   51.7066 H   0  0  0  0  0  0  0  0  0  0  0  0
   61.1993   26.0809   50.4490 H   0  0  0  0  0  0  0  0  0  0  0  0
   60.7556   26.0714   47.9813 H   0  0  0  0  0  0  0  0  0  0  0  0
  1  2  1  0
  2  3  1  0
  3  4  1  0
  4  5  1  0
  5  6  1  0
  6  7  1  0
  7  8  1  0
  8  9  1  0
  9 10  1  0
 10 11  2  0
 11 12  1  0
 12 13  2  0
 13 14  1  0
 13 15  1  0
 15 16  2  0
 16 17  1  0
 17 18  2  0
 18 19  1  0
 19 20  2  0
 12 21  1  0
 21 22  2  0
 22 23  1  0
 23 24  2  0
 24 25  1  0
 25 26  2  0
 26 27  1  0
 27 28  2  0
 20 10  1  0
 26 21  1  0
 27 11  1  0
 20 15  1  0
  1 29  1  0
  1 30  1  0
  1 31  1  0
  2 32  1  0
  2 33  1  0
  4 34  1  0
  4 35  1  0
  5 36  1  0
  5 37  1  0
  7 38  1  0
  7 39  1  0
  8 40  1  0
  8 41  1  0
  9 42  1  0
 14 43  1  0
 14 44  1  0
 14 45  1  0
 16 46  1  0
 17 47  1  0
 18 48  1  0
 19 49  1  0
 22 50  1  0
 23 51  1  0
 24 52  1  0
 25 53  1  0
M  CHG  1  13   1
M  END
>  <smiles>  (16) 
CCOCCOCCNc1c2c([n+](C)c3ccccc13)-c1ccccc1C2=O

>  <score_type>  (16) 
oracle

>  <origin>  (16) 
adg

>  <m_score__min__energy>  (16) 
-6.7199999999999998

>  <m_primary>  (16) 
energy

$$$$
17:0
     RDKit          3D

 60 62  0  0  0  0  0  0  0  0999 V2000
   60.2930   26.7970   47.2380 C   0  0  0  0  0  0  0  0  0  0  0  0
   58.8260   27.0200   47.4740 C   0  0  0  0  0  0  0  0  0  0  0  0
   58.0000   26.6420   46.4040 O   0  0  0  0  0  0  0  0  0  0  0  0
   56.9530   27.3690   45.8870 C   0  0  0  0  0  0  0  0  0  0  0  0
   55.7660   26.8990   45.9940 O   0  0  0  0  0  0  0  0  0  0  0  0
   57.1540   28.6380   45.2320 N   0  0  0  0  0  0  0  0  0  0  0  0
   58.5010   29.1110   45.1380 C   0  0  0  0  0  0  0  0  0  0  0  0
   58.6940   30.3740   44.3720 C   0  0  0  0  0  0  0  0  0  0  0  0
   57.4210   31.2830   44.5550 C   0  0  0  0  0  0  0  0  0  0  0  0
   57.7670   32.5810   43.9560 C   0  0  0  0  0  0  0  0  0  0  0  0
   57.5720   33.8400   44.7300 C   0  0  0  0  0  0  0  0  0  0  0  0
   58.7860   34.4630   45.1210 N   0  0  0  0  0  0  0  0  0  0  0  0
   58.9190   34.5480   46.6140 C   0  0  0  0  0  0  0  0  0  0  0  0
   59.3020   33.2350   47.1020 C   0  0  0  0  0  0  0  0  0  0  0  0
   58.4470   32.2450   47.5360 C   0  0  0  0  0  0  0  0  0  0  0  0
   58.9100   31.0260   47.9870 C   0  0  0  0  0  0  0  0  0  0  0  0
   60.2360   30.7130   48.0330 C   0  0  0  0  0  0  0  0  0  0  0  0
   60.7850   29.5320   48.4660 O   0  0  0  0  0  0  0  0  0  0  0  0
   60.7280   29.1450   49.8190 C   0  0  0  0  0  0  0  0  0  0  0  0
   61.5700   30.0190   50.7160 C   0  0  0  0  0  0  0  0  0  0  0  0
   61.1220   31.7060   47.5960 C   0  0  0  0  0  0  0  0  0  0  0  0
   62.4820   31.4360   47.6150 C   0  0  0  0  0  0  0  0  0  0  0  0
   63.4240   32.3490   47.1960 C   0  0  0  0  0  0  0  0  0  0  0  0
   62.9810   33.5670   46.7430 C   0  0  0  0  0  0  0  0  0  0  0  0
   61.6200   33.8340   46.7260 C   0  0  0  0  0  0  0  0  0  0  0  0
   60.6680   32.9280   47.1450 C   0  0  0  0  0  0  0  0  0  0  0  0
   56.4060   30.4470   43.7580 C   0  0  0  0  0  0  0  0  0  0  0  0
   55.9930   29.3450   44.7170 C   0  0  0  0  0  0  0  0  0  0  0  0
   60.8120   26.7181   48.2046 H   0  0  0  0  0  0  0  0  0  0  0  0
   60.4355   25.8669   46.6683 H   0  0  0  0  0  0  0  0  0  0  0  0
   60.7055   27.6428   46.6683 H   0  0  0  0  0  0  0  0  0  0  0  0
   58.5284   26.4393   48.3595 H   0  0  0  0  0  0  0  0  0  0  0  0
   58.6916   28.1039   47.6051 H   0  0  0  0  0  0  0  0  0  0  0  0
   58.8725   29.2764   46.1601 H   0  0  0  0  0  0  0  0  0  0  0  0
   59.0504   28.3376   44.5811 H   0  0  0  0  0  0  0  0  0  0  0  0
   59.5820   30.9023   44.7493 H   0  0  0  0  0  0  0  0  0  0  0  0
   58.8371   30.1444   43.3058 H   0  0  0  0  0  0  0  0  0  0  0  0
   57.0495   31.5139   45.5643 H   0  0  0  0  0  0  0  0  0  0  0  0
   58.8338   32.5336   43.6922 H   0  0  0  0  0  0  0  0  0  0  0  0
   57.0435   32.6781   43.1332 H   0  0  0  0  0  0  0  0  0  0  0  0
   57.0041   34.5464   44.1067 H   0  0  0  0  0  0  0  0  0  0  0  0
   57.0371   33.5707   45.6527 H   0  0  0  0  0  0  0  0  0  0  0  0
   58.7080   35.5090   44.8300 H   0  0  0  0  0  0  0  0  0  0  0  0
   59.6909   35.2854   46.8794 H   0  0  0  0  0  0  0  0  0  0  0  0
   57.9673   34.8632   47.0668 H   0  0  0  0  0  0  0  0  0  0  0  0
   57.3631   32.4323   47.5224 H   0  0  0  0  0  0  0  0  0  0  0  0
   58.1791   30.2759   48.3233 H   0  0  0  0  0  0  0  0  0  0  0  0
   59.6824   29.2004   50.1561 H   0  0  0  0  0  0  0  0  0  0  0  0
   61.1264   28.1219   49.8867 H   0  0  0  0  0  0  0  0  0  0  0  0
   61.3469   29.7874   51.7679 H   0  0  0  0  0  0  0  0  0  0  0  0
   62.6352   29.8302   50.5169 H   0  0  0  0  0  0  0  0  0  0  0  0
   61.3416   31.0765   50.5169 H   0  0  0  0  0  0  0  0  0  0  0  0
   62.8214   30.4549   47.9787 H   0  0  0  0  0  0  0  0  0  0  0  0
   64.4974   32.1100   47.2234 H   0  0  0  0  0  0  0  0  0  0  0  0
   63.6993   34.3246   46.3965 H   0  0  0  0  0  0  0  0  0  0  0  0
   61.2836   34.8156   46.3608 H   0  0  0  0  0  0  0  0  0  0  0  0
   55.5382   31.0585   43.4699 H   0  0  0  0  0  0  0  0  0  0  0  0
   56.8285   30.0532   42.8219 H   0  0  0  0  0  0  0  0  0  0  0  0
   55.4403   29.7890   45.5581 H   0  0  0  0  0  0  0  0  0  0  0  0
   55.3596   28.6281   44.1740 H   0  0  0  0  0  0  0  0  0  0  0  0
  1  2  1  0
  2  3  1  0
  3  4  1  0
  4  5  2  0
  4  6  1  0
  6  7  1  0
  7  8  1  0
  8  9  1  0
  9 10  1  0
 10 11  1  0
 11 12  1  0
 12 13  1  0
 13 14  1  0
 14 15  2  0
 15 16  1  0
 16 17  2  0
 17 18  1  0
 18 19  1  0
 19 20  1  0
 17 21  1  0
 21 22  2  0
 22 23  1  0
 23 24  2  0
 24 25  1  0
 25 26  2  0
  9 27  1  0
 27 28  1  0
 28  6  1  0
 26 14  1  0
 26 21  1  0
  1 29  1  0
  1 30  1  0
  1 31  1  0
  2 32  1  0
  2 33  1  0
  7 34  1  0
  7 35  1  0
  8 36  1  0
  8 37  1  0
  9 38  1  0
 10 39  1  0
 10 40  1  0
 11 41  1  0
 11 42  1  0
 12 43  1  0
 13 44  1  0
 13 45  1  0
 15 46  1  0
 16 47  1  0
 19 48  1  0
 19 49  1  0
 20 50  1  0
 20 51  1  0
 20 52  1  0
 22 53  1  0
 23 54  1  0
 24 55  1  0
 25 56  1  0
 27 57  1  0
 27 58  1  0
 28 59  1  0
 28 60  1  0
M  END
>  <smiles>  (17) 
CCOC(=O)N1CCC(CCNCc2ccc(OCC)c3ccccc23)CC1

>  <score_type>  (17) 
oracle

>  <origin>  (17) 
adg

>  <m_score__min__energy>  (17) 
-7.8200000000000003

>  <m_primary>  (17) 
energy

$$$$
18:0
     RDKit          3D

 42 44  0  0  0  0  0  0  0  0999 V2000
   58.5210   31.4780   50.1810 C   0  0  0  0  0  0  0  0  0  0  0  0
   58.2090   30.1770   49.8870 O   0  0  0  0  0  0  0  0  0  0  0  0
   59.2340   29.4190   49.4370 C   0  0  0  0  0  0  0  0  0  0  0  0
   59.3330   29.2050   47.9800 C   0  0  0  0  0  0  0  0  0  0  0  0
   60.4680   29.4110   47.2350 C   0  0  0  0  0  0  0  0  0  0  0  0
   60.4830   29.2170   45.8650 C   0  0  0  0  0  0  0  0  0  0  0  0
   59.3410   28.8080   45.2050 C   0  0  0  0  0  0  0  0  0  0  0  0
   58.1960   28.6050   45.9800 C   0  0  0  0  0  0  0  0  0  0  0  0
   56.9790   28.1650   45.2550 C   0  0  0  0  0  0  0  0  0  0  0  0
   56.0020   29.1950   45.0960 N   0  0  0  0  0  0  0  0  0  0  0  0
   56.3610   30.1480   44.0670 C   0  0  0  0  0  0  0  0  0  0  0  0
   57.1420   31.2940   44.6530 C   0  0  0  0  0  0  0  0  0  0  0  0
   57.3520   31.5720   45.9540 N   0  0  0  0  0  0  0  0  0  0  0  0
   58.1080   32.6920   46.0640 C   0  0  0  0  0  0  0  0  0  0  0  0
   58.6250   33.4300   47.1050 C   0  0  0  0  0  0  0  0  0  0  0  0
   59.3900   34.5720   46.9140 C   0  0  0  0  0  0  0  0  0  0  0  0
   59.6430   34.9790   45.6150 C   0  0  0  0  0  0  0  0  0  0  0  0
   59.1320   34.2480   44.5410 C   0  0  0  0  0  0  0  0  0  0  0  0
   58.3630   33.1030   44.7700 C   0  0  0  0  0  0  0  0  0  0  0  0
   57.7730   32.2490   43.9170 N   0  0  0  0  0  0  0  0  0  0  0  0
   57.8190   32.3550   42.4650 C   0  0  0  0  0  0  0  0  0  0  0  0
   58.2310   28.8060   47.3120 N   0  0  0  0  0  0  0  0  0  0  0  0
   58.5526   31.6098   51.2726 H   0  0  0  0  0  0  0  0  0  0  0  0
   59.5039   31.7250   49.7532 H   0  0  0  0  0  0  0  0  0  0  0  0
   57.7571   32.1439   49.7532 H   0  0  0  0  0  0  0  0  0  0  0  0
   60.1679   29.8996   49.7639 H   0  0  0  0  0  0  0  0  0  0  0  0
   59.0488   28.4189   49.8559 H   0  0  0  0  0  0  0  0  0  0  0  0
   61.3886   29.7385   47.7401 H   0  0  0  0  0  0  0  0  0  0  0  0
   61.4099   29.3896   45.2984 H   0  0  0  0  0  0  0  0  0  0  0  0
   59.3330   28.6489   44.1166 H   0  0  0  0  0  0  0  0  0  0  0  0
   57.2777   27.8125   44.2568 H   0  0  0  0  0  0  0  0  0  0  0  0
   56.5144   27.3713   45.8584 H   0  0  0  0  0  0  0  0  0  0  0  0
   55.9760   29.7300   45.9900 H   0  0  0  0  0  0  0  0  0  0  0  0
   56.9751   29.6439   43.3062 H   0  0  0  0  0  0  0  0  0  0  0  0
   55.4399   30.5427   43.6133 H   0  0  0  0  0  0  0  0  0  0  0  0
   58.4226   33.0995   48.1345 H   0  0  0  0  0  0  0  0  0  0  0  0
   59.7844   35.1381   47.7707 H   0  0  0  0  0  0  0  0  0  0  0  0
   60.2472   35.8792   45.4291 H   0  0  0  0  0  0  0  0  0  0  0  0
   59.3352   34.5742   43.5103 H   0  0  0  0  0  0  0  0  0  0  0  0
   58.2422   33.3300   42.1818 H   0  0  0  0  0  0  0  0  0  0  0  0
   58.4487   31.5499   42.0584 H   0  0  0  0  0  0  0  0  0  0  0  0
   56.8009   32.2651   42.0584 H   0  0  0  0  0  0  0  0  0  0  0  0
  1  2  1  0
  2  3  1  0
  3  4  1  0
  4  5  2  0
  5  6  1  0
  6  7  2  0
  7  8  1  0
  8  9  1  0
  9 10  1  0
 10 11  1  0
 11 12  1  0
 12 13  2  0
 13 14  1  0
 14 15  2  0
 15 16  1  0
 16 17  2  0
 17 18  1  0
 18 19  2  0
 19 20  1  0
 20 21  1  0
  8 22  2  0
 22  4  1  0
 20 12  1  0
 19 14  1  0
  1 23  1  0
  1 24  1  0
  1 25  1  0
  3 26  1  0
  3 27  1  0
  5 28  1  0
  6 29  1  0
  7 30  1  0
  9 31  1  0
  9 32  1  0
 10 33  1  0
 11 34  1  0
 11 35  1  0
 15 36  1  0
 16 37  1  0
 17 38  1  0
 18 39  1  0
 21 40  1  0
 21 41  1  0
 21 42  1  0
M  END
>  <smiles>  (18) 
COCc1cccc(CNCc2nc3ccccc3n2C)n1

>  <score_type>  (18) 
oracle

>  <origin>  (18) 
adg

>  <m_score__min__energy>  (18) 
-8.1300000000000008

>  <m_primary>  (18) 
energy

$$$$
19:0
     RDKit          3D

 57 59  0  0  0  0  0  0  0  0999 V2000
   63.3380   33.8320   46.4210 C   0  0  0  0  0  0  0  0  0  0  0  0
   63.6660   32.5610   47.1810 C   0  0  0  0  0  0  0  0  0  0  0  0
   62.9520   32.6690   48.4510 N   0  0  0  0  0  0  0  0  0  0  0  0
   63.6490   33.5500   49.3600 C   0  0  0  0  0  0  0  0  0  0  0  0
   62.7590   34.5160   50.0660 C   0  0  0  0  0  0  0  0  0  0  0  0
   62.7040   31.3640   49.0190 C   0  0  0  0  0  0  0  0  0  0  0  0
   61.3410   31.4020   49.6780 C   0  0  0  0  0  0  0  0  0  0  0  0
   60.3620   30.8220   48.6910 C   0  0  0  0  0  0  0  0  0  0  0  0
   60.8120   31.1490   47.3170 N   0  0  0  0  0  0  0  0  0  0  0  0
   59.7650   31.1810   46.3550 C   0  0  0  0  0  0  0  0  0  0  0  0
   59.4630   29.9360   45.8020 C   0  0  0  0  0  0  0  0  0  0  0  0
   60.1290   28.7920   46.2160 C   0  0  0  0  0  0  0  0  0  0  0  0
   59.8780   27.5410   45.7100 C   0  0  0  0  0  0  0  0  0  0  0  0
   58.9140   27.4200   44.7390 C   0  0  0  0  0  0  0  0  0  0  0  0
   58.2410   28.5460   44.3170 C   0  0  0  0  0  0  0  0  0  0  0  0
   58.5080   29.8120   44.8420 C   0  0  0  0  0  0  0  0  0  0  0  0
   57.8180   30.9070   44.3930 N   0  0  0  0  0  0  0  0  0  0  0  0
   56.8380   30.6430   43.3890 C   0  0  0  0  0  0  0  0  0  0  0  0
   58.1120   32.1010   44.9290 C   0  0  0  0  0  0  0  0  0  0  0  0
   57.4100   33.1870   44.4520 C   0  0  0  0  0  0  0  0  0  0  0  0
   57.6880   34.4320   44.9750 C   0  0  0  0  0  0  0  0  0  0  0  0
   58.6460   34.5650   45.9470 C   0  0  0  0  0  0  0  0  0  0  0  0
   59.3820   33.4940   46.4590 C   0  0  0  0  0  0  0  0  0  0  0  0
   60.2820   33.7630   47.4960 N   0  0  0  0  0  0  0  0  0  0  0  0
   59.7600   34.5560   48.6410 C   0  0  0  0  0  0  0  0  0  0  0  0
   59.0890   32.2660   45.9190 C   0  0  0  0  0  0  0  0  0  0  0  0
   63.1289   34.6424   47.1348 H   0  0  0  0  0  0  0  0  0  0  0  0
   64.1933   34.1121   45.7885 H   0  0  0  0  0  0  0  0  0  0  0  0
   62.4540   33.6632   45.7885 H   0  0  0  0  0  0  0  0  0  0  0  0
   63.3224   31.6789   46.6208 H   0  0  0  0  0  0  0  0  0  0  0  0
   64.7494   32.4439   47.3311 H   0  0  0  0  0  0  0  0  0  0  0  0
   64.1605   32.9347   50.1149 H   0  0  0  0  0  0  0  0  0  0  0  0
   64.3494   34.1443   48.7549 H   0  0  0  0  0  0  0  0  0  0  0  0
   62.8729   34.3924   51.1531 H   0  0  0  0  0  0  0  0  0  0  0  0
   63.0343   35.5426   49.7829 H   0  0  0  0  0  0  0  0  0  0  0  0
   61.7133   34.3255   49.7829 H   0  0  0  0  0  0  0  0  0  0  0  0
   62.7160   30.6016   48.2262 H   0  0  0  0  0  0  0  0  0  0  0  0
   63.4813   31.1091   49.7544 H   0  0  0  0  0  0  0  0  0  0  0  0
   61.3495   30.8017   50.5997 H   0  0  0  0  0  0  0  0  0  0  0  0
   61.0634   32.4311   49.9498 H   0  0  0  0  0  0  0  0  0  0  0  0
   60.3170   29.7299   48.8144 H   0  0  0  0  0  0  0  0  0  0  0  0
   59.3622   31.2462   48.8658 H   0  0  0  0  0  0  0  0  0  0  0  0
   61.8090   31.3680   47.1060 H   0  0  0  0  0  0  0  0  0  0  0  0
   60.9012   28.8928   46.9929 H   0  0  0  0  0  0  0  0  0  0  0  0
   60.4320   26.6620   46.0711 H   0  0  0  0  0  0  0  0  0  0  0  0
   58.6822   26.4367   44.3038 H   0  0  0  0  0  0  0  0  0  0  0  0
   57.4680   28.4441   43.5410 H   0  0  0  0  0  0  0  0  0  0  0  0
   55.8821   30.3855   43.8684 H   0  0  0  0  0  0  0  0  0  0  0  0
   56.7048   31.5373   42.7625 H   0  0  0  0  0  0  0  0  0  0  0  0
   57.1720   29.8028   42.7625 H   0  0  0  0  0  0  0  0  0  0  0  0
   56.6449   33.0631   43.6714 H   0  0  0  0  0  0  0  0  0  0  0  0
   57.1427   35.3163   44.6135 H   0  0  0  0  0  0  0  0  0  0  0  0
   58.8459   35.5706   46.3455 H   0  0  0  0  0  0  0  0  0  0  0  0
   61.2540   33.4980   47.6480 H   0  0  0  0  0  0  0  0  0  0  0  0
   60.0703   34.0846   49.5852 H   0  0  0  0  0  0  0  0  0  0  0  0
   60.1620   35.5787   48.5923 H   0  0  0  0  0  0  0  0  0  0  0  0
   58.6616   34.5911   48.5923 H   0  0  0  0  0  0  0  0  0  0  0  0
  1  2  1  0
  2  3  1  0
  3  4  1  0
  4  5  1  0
  3  6  1  0
  6  7  1  0
  7  8  1  0
  8  9  1  0
  9 10  1  0
 10 11  2  0
 11 12  1  0
 12 13  2  0
 13 14  1  0
 14 15  2  0
 15 16  1  0
 16 17  2  0
 17 18  1  0
 17 19  1  0
 19 20  2  0
 20 21  1  0
 21 22  2  0
 22 23  1  0
 23 24  1  0
 24 25  1  0
 23 26  2  0
 26 10  1  0
 16 11  1  0
 26 19  1  0
  1 27  1  0
  1 28  1  0
  1 29  1  0
  2 30  1  0
  2 31  1  0
  4 32  1  0
  4 33  1  0
  5 34  1  0
  5 35  1  0
  5 36  1  0
  6 37  1  0
  6 38  1  0
  7 39  1  0
  7 40  1  0
  8 41  1  0
  8 42  1  0
  9 43  1  0
 12 44  1  0
 13 45  1  0
 14 46  1  0
 15 47  1  0
 18 48  1  0
 18 49  1  0
 18 50  1  0
 20 51  1  0
 21 52  1  0
 22 53  1  0
 24 54  1  0
 25 55  1  0
 25 56  1  0
 25 57  1  0
M  CHG  1  17   1
M  END
>  <smiles>  (19) 
CCN(CC)CCCNc1c2ccccc2[n+](C)c2cccc(NC)c12

>  <score_type>  (19) 
oracle

>  <origin>  (19) 
adg

>  <m_score__min__energy>  (19) 
-5.25

>  <m_primary>  (19) 
energy

$$$$
