0:0
     RDKit          3D

 33 33  0  0  0  0  0  0  0  0999 V2000
   60.1560   28.8380   45.3390 C   0  0  0  0  0  0  0  0  0  0  0  0
   59.5680   28.7630   46.7490 C   0  0  0  0  0  0  0  0  0  0  0  0
   58.0300   28.6480   46.7440 C   0  0  0  0  0  0  0  0  0  0  0  0
   57.3890   29.5450   45.7610 N   0  0  0  0  0  0  0  0  0  0  0  0
   56.7090   28.7900   44.6910 C   0  0  0  0  0  0  0  0  0  0  0  0
   57.0080   29.3630   43.2940 C   0  0  0  0  0  0  0  0  0  0  0  0
   56.8340   30.8820   43.2100 C   0  0  0  0  0  0  0  0  0  0  0  0
   56.5020   31.4100   44.4900 O   0  0  0  0  0  0  0  0  0  0  0  0
   57.3120   32.3260   45.1670 C   0  0  0  0  0  0  0  0  0  0  0  0
   57.6650   33.5250   44.5390 C   0  0  0  0  0  0  0  0  0  0  0  0
   58.4760   34.4390   45.2140 C   0  0  0  0  0  0  0  0  0  0  0  0
   58.9230   34.1500   46.5050 C   0  0  0  0  0  0  0  0  0  0  0  0
   58.5510   32.9430   47.1020 C   0  0  0  0  0  0  0  0  0  0  0  0
   57.7610   32.0650   46.4270 N   0  0  0  0  0  0  0  0  0  0  0  0
   61.2453   28.9769   45.4029 H   0  0  0  0  0  0  0  0  0  0  0  0
   59.9364   27.9046   44.8000 H   0  0  0  0  0  0  0  0  0  0  0  0
   59.7091   29.6864   44.8000 H   0  0  0  0  0  0  0  0  0  0  0  0
   59.9856   27.8822   47.2586 H   0  0  0  0  0  0  0  0  0  0  0  0
   59.8310   29.6954   47.2701 H   0  0  0  0  0  0  0  0  0  0  0  0
   57.7566   27.6103   46.5025 H   0  0  0  0  0  0  0  0  0  0  0  0
   57.6739   28.9440   47.7418 H   0  0  0  0  0  0  0  0  0  0  0  0
   58.0900   30.2040   45.3510 H   0  0  0  0  0  0  0  0  0  0  0  0
   56.6720   30.1090   46.2720 H   0  0  0  0  0  0  0  0  0  0  0  0
   57.0484   27.7442   44.7249 H   0  0  0  0  0  0  0  0  0  0  0  0
   55.6249   28.8652   44.8616 H   0  0  0  0  0  0  0  0  0  0  0  0
   58.0471   29.1159   43.0308 H   0  0  0  0  0  0  0  0  0  0  0  0
   56.2848   28.9142   42.5972 H   0  0  0  0  0  0  0  0  0  0  0  0
   57.7731   31.3367   42.8617 H   0  0  0  0  0  0  0  0  0  0  0  0
   56.0216   31.1120   42.5049 H   0  0  0  0  0  0  0  0  0  0  0  0
   57.3068   33.7456   43.5226 H   0  0  0  0  0  0  0  0  0  0  0  0
   58.7622   35.3845   44.7301 H   0  0  0  0  0  0  0  0  0  0  0  0
   59.5608   34.8647   47.0458 H   0  0  0  0  0  0  0  0  0  0  0  0
   58.8970   32.7025   48.1181 H   0  0  0  0  0  0  0  0  0  0  0  0
  1  2  1  0
  2  3  1  0
  3  4  1  0
  4  5  1  0
  5  6  1  0
  6  7  1  0
  7  8  1  0
  8  9  1  0
  9 10  2  0
 10 11  1  0
 11 12  2  0
 12 13  1  0
 13 14  2  0
 14  9  1  0
  1 15  1  0
  1 16  1  0
  1 17  1  0
  2 18  1  0
  2 19  1  0
  3 20  1  0
  3 21  1  0
  4 22  1  0
  4 23  1  0
  5 24  1  0
  5 25  1  0
  6 26  1  0
  6 27  1  0
  7 28  1  0
  7 29  1  0
 10 30  1  0
 11 31  1  0
 12 32  1  0
 13 33  1  0
M  CHG  1   4   1
M  END
>  <UniqueID>  (1) 
1

>  <SMILES>  (1) 
CCC[NH2+]CCCOc1ccccn1

>  <Energy>  (1) 
24.08178832858244

>  <Genealogy>  (1) 
CCC[NH2+]CCCOc1ccccn1 (protonated)
CCC[NH2+]CCCOc1ccccn1 (3D coordinates assigned)
CCC[NH2+]CCCOc1ccccn1 (optimized conformer: 24.08178832858244 kcal/mol)

>  <smiles>  (1) 
CCCNCCCOc1ccccn1

>  <score_type>  (1) 
oracle

>  <origin>  (1) 
adg

>  <m_score__min__energy>  (1) 
-2.96

>  <m_primary>  (1) 
energy

$$$$
1:0
     RDKit          3D

 34 36  0  0  0  0  0  0  0  0999 V2000
   57.8152   31.3124   43.2385 H   0  0  0  0  0  0  0  0  0  0  0  0
   57.3060   31.2790   44.2130 C   0  0  0  0  0  0  0  0  0  0  0  0
   56.9690   29.9620   44.7980 C   0  0  0  0  0  0  0  0  0  0  0  0
   55.7600   29.6140   44.8890 O   0  0  0  0  0  0  0  0  0  0  0  0
   58.0270   29.0300   45.2610 C   0  0  0  0  0  0  0  0  0  0  0  0
   57.7140   27.8910   46.0310 C   0  0  0  0  0  0  0  0  0  0  0  0
   56.6681   27.6862   46.3032 H   0  0  0  0  0  0  0  0  0  0  0  0
   58.7240   27.0200   46.4510 C   0  0  0  0  0  0  0  0  0  0  0  0
   58.4707   26.1363   47.0550 H   0  0  0  0  0  0  0  0  0  0  0  0
   60.0540   27.2700   46.1050 C   0  0  0  0  0  0  0  0  0  0  0  0
   60.8478   26.5867   46.4410 H   0  0  0  0  0  0  0  0  0  0  0  0
   60.3750   28.3870   45.3330 C   0  0  0  0  0  0  0  0  0  0  0  0
   61.4222   28.5804   45.0572 H   0  0  0  0  0  0  0  0  0  0  0  0
   59.3700   29.2610   44.9090 C   0  0  0  0  0  0  0  0  0  0  0  0
   59.6307   30.1360   44.2955 H   0  0  0  0  0  0  0  0  0  0  0  0
   57.0130   32.4300   44.8280 C   0  0  0  0  0  0  0  0  0  0  0  0
   55.9656   32.7642   44.8651 H   0  0  0  0  0  0  0  0  0  0  0  0
   58.0570   33.2670   45.4600 C   0  0  0  0  0  0  0  0  0  0  0  0
   58.3220   34.5150   44.8740 C   0  0  0  0  0  0  0  0  0  0  0  0
   57.7265   34.8479   44.0111 H   0  0  0  0  0  0  0  0  0  0  0  0
   59.3310   35.3370   45.3730 C   0  0  0  0  0  0  0  0  0  0  0  0
   59.5314   36.3081   44.8967 H   0  0  0  0  0  0  0  0  0  0  0  0
   60.0870   34.9350   46.4720 C   0  0  0  0  0  0  0  0  0  0  0  0
   60.8942   35.5814   46.8471 H   0  0  0  0  0  0  0  0  0  0  0  0
   59.8240   33.7110   47.1020 C   0  0  0  0  0  0  0  0  0  0  0  0
   60.5700   33.3280   48.2270 C   0  0  0  0  0  0  0  0  0  0  0  0
   61.3802   33.9757   48.5931 H   0  0  0  0  0  0  0  0  0  0  0  0
   60.2890   32.1300   48.8830 C   0  0  0  0  0  0  0  0  0  0  0  0
   60.8846   31.8307   49.7580 H   0  0  0  0  0  0  0  0  0  0  0  0
   59.2540   31.3100   48.4320 C   0  0  0  0  0  0  0  0  0  0  0  0
   59.0276   30.3725   48.9611 H   0  0  0  0  0  0  0  0  0  0  0  0
   58.5040   31.6750   47.3110 C   0  0  0  0  0  0  0  0  0  0  0  0
   57.6825   31.0273   46.9711 H   0  0  0  0  0  0  0  0  0  0  0  0
   58.7900   32.8670   46.6100 C   0  0  0  0  0  0  0  0  0  0  0  0
  1  2  1  0
  2  3  1  0
  3  4  2  0
  3  5  1  0
  5  6  2  0
  6  7  1  0
  6  8  1  0
  8  9  1  0
  8 10  2  0
 10 11  1  0
 10 12  1  0
 12 13  1  0
 12 14  2  0
 14 15  1  0
  2 16  2  0
 16 17  1  0
 16 18  1  0
 18 19  2  0
 19 20  1  0
 19 21  1  0
 21 22  1  0
 21 23  2  0
 23 24  1  0
 23 25  1  0
 25 26  2  0
 26 27  1  0
 26 28  1  0
 28 29  1  0
 28 30  2  0
 30 31  1  0
 30 32  1  0
 32 33  1  0
 32 34  2  0
 14  5  1  0
 34 18  1  0
 34 25  1  0
M  END
>  <UniqueID>  (2) 
2

>  <SMILES>  (2) 
O=C(/C=C/c1cccc2ccccc12)c1ccccc1

>  <Energy>  (2) 
49.82498412717533

>  <Genealogy>  (2) 
O=C(/C=C/c1cccc2ccccc12)c1ccccc1 (cis-trans isomerization)
O=C(/C=C/c1cccc2ccccc12)c1ccccc1 (3D coordinates assigned)
O=C(/C=C/c1cccc2ccccc12)c1ccccc1 (optimized conformer: 49.82498412717533 kcal/mol)

>  <smiles>  (2) 
O=C(C=Cc1cccc2ccccc12)c1ccccc1

>  <score_type>  (2) 
oracle

>  <origin>  (2) 
adg

>  <m_score__min__energy>  (2) 
-7.96

>  <m_primary>  (2) 
energy

$$$$
2:0
     RDKit          3D

 53 57  0  0  0  0  0  0  0  0999 V2000
   58.5450   22.8400   44.8670 C   0  0  0  0  0  0  0  0  0  0  0  0
   58.3110   23.4710   46.1220 O   0  0  0  0  0  0  0  0  0  0  0  0
   58.5870   24.8180   46.3950 C   0  0  0  0  0  0  0  0  0  0  0  0
   57.6740   25.6590   47.0590 C   0  0  0  0  0  0  0  0  0  0  0  0
   57.9960   26.9960   47.3050 C   0  0  0  0  0  0  0  0  0  0  0  0
   59.2260   27.5200   46.8810 C   0  0  0  0  0  0  0  0  0  0  0  0
   59.5470   28.8950   47.1500 N   0  0  0  0  0  0  0  0  0  0  0  0
   60.4010   29.2670   48.0920 N   0  0  0  0  0  0  0  0  0  0  0  0
   60.4870   30.6110   48.0220 C   0  0  0  0  0  0  0  0  0  0  0  0
   61.3210   31.4060   48.9500 C   0  0  0  0  0  0  0  0  0  0  0  0
   60.7250   32.0250   50.0620 C   0  0  0  0  0  0  0  0  0  0  0  0
   61.4980   32.7900   50.9430 C   0  0  0  0  0  0  0  0  0  0  0  0
   62.8650   32.9540   50.7120 C   0  0  0  0  0  0  0  0  0  0  0  0
   63.4620   32.3620   49.5970 C   0  0  0  0  0  0  0  0  0  0  0  0
   62.6940   31.5970   48.7140 C   0  0  0  0  0  0  0  0  0  0  0  0
   59.6960   31.1070   47.0390 N   0  0  0  0  0  0  0  0  0  0  0  0
   59.5410   32.4750   46.6200 C   0  0  0  0  0  0  0  0  0  0  0  0
   58.2630   32.9980   46.3660 C   0  0  0  0  0  0  0  0  0  0  0  0
   58.1170   34.3260   45.9540 C   0  0  0  0  0  0  0  0  0  0  0  0
   59.2430   35.1390   45.7950 C   0  0  0  0  0  0  0  0  0  0  0  0
   60.5170   34.6240   46.0480 C   0  0  0  0  0  0  0  0  0  0  0  0
   60.6680   33.2960   46.4570 C   0  0  0  0  0  0  0  0  0  0  0  0
   59.1140   30.0070   46.5110 C   0  0  0  0  0  0  0  0  0  0  0  0
   58.1200   30.0240   45.4140 C   0  0  0  0  0  0  0  0  0  0  0  0
   56.9080   29.3260   45.5480 C   0  0  0  0  0  0  0  0  0  0  0  0
   55.9690   29.3430   44.5130 C   0  0  0  0  0  0  0  0  0  0  0  0
   56.2310   30.0590   43.3410 C   0  0  0  0  0  0  0  0  0  0  0  0
   57.4330   30.7570   43.2020 C   0  0  0  0  0  0  0  0  0  0  0  0
   58.3770   30.7390   44.2340 C   0  0  0  0  0  0  0  0  0  0  0  0
   60.1450   26.6750   46.2380 C   0  0  0  0  0  0  0  0  0  0  0  0
   59.8230   25.3390   45.9910 C   0  0  0  0  0  0  0  0  0  0  0  0
   58.9230   21.8206   45.0340 H   0  0  0  0  0  0  0  0  0  0  0  0
   57.6042   22.7937   44.2988 H   0  0  0  0  0  0  0  0  0  0  0  0
   59.2885   23.4183   44.2988 H   0  0  0  0  0  0  0  0  0  0  0  0
   56.7019   25.2613   47.3859 H   0  0  0  0  0  0  0  0  0  0  0  0
   57.2803   27.6419   47.8346 H   0  0  0  0  0  0  0  0  0  0  0  0
   59.6460   31.9077   50.2408 H   0  0  0  0  0  0  0  0  0  0  0  0
   61.0280   33.2624   51.8182 H   0  0  0  0  0  0  0  0  0  0  0  0
   63.4724   33.5501   51.4089 H   0  0  0  0  0  0  0  0  0  0  0  0
   64.5380   32.4977   49.4132 H   0  0  0  0  0  0  0  0  0  0  0  0
   63.1660   31.1424   47.8305 H   0  0  0  0  0  0  0  0  0  0  0  0
   57.3747   32.3615   46.4914 H   0  0  0  0  0  0  0  0  0  0  0  0
   57.1142   34.7319   45.7546 H   0  0  0  0  0  0  0  0  0  0  0  0
   59.1261   36.1836   45.4709 H   0  0  0  0  0  0  0  0  0  0  0  0
   61.4026   35.2648   45.9251 H   0  0  0  0  0  0  0  0  0  0  0  0
   61.6728   32.8930   46.6517 H   0  0  0  0  0  0  0  0  0  0  0  0
   56.6976   28.7645   46.4702 H   0  0  0  0  0  0  0  0  0  0  0  0
   55.0228   28.7925   44.6206 H   0  0  0  0  0  0  0  0  0  0  0  0
   55.4902   30.0727   42.5280 H   0  0  0  0  0  0  0  0  0  0  0  0
   57.6373   31.3213   42.2801 H   0  0  0  0  0  0  0  0  0  0  0  0
   59.3239   31.2871   44.1203 H   0  0  0  0  0  0  0  0  0  0  0  0
   61.1243   27.0679   45.9271 H   0  0  0  0  0  0  0  0  0  0  0  0
   60.5459   24.6902   45.4749 H   0  0  0  0  0  0  0  0  0  0  0  0
  1  2  1  0
  2  3  1  0
  3  4  2  0
  4  5  1  0
  5  6  2  0
  6  7  1  0
  7  8  1  0
  8  9  2  0
  9 10  1  0
 10 11  2  0
 11 12  1  0
 12 13  2  0
 13 14  1  0
 14 15  2  0
  9 16  1  0
 16 17  1  0
 17 18  2  0
 18 19  1  0
 19 20  2  0
 20 21  1  0
 21 22  2  0
 16 23  1  0
 23 24  1  0
 24 25  2  0
 25 26  1  0
 26 27  2  0
 27 28  1  0
 28 29  2  0
  6 30  1  0
 30 31  2  0
 31  3  1  0
 23  7  2  0
 29 24  1  0
 15 10  1  0
 22 17  1  0
  1 32  1  0
  1 33  1  0
  1 34  1  0
  4 35  1  0
  5 36  1  0
 11 37  1  0
 12 38  1  0
 13 39  1  0
 14 40  1  0
 15 41  1  0
 18 42  1  0
 19 43  1  0
 20 44  1  0
 21 45  1  0
 22 46  1  0
 25 47  1  0
 26 48  1  0
 27 49  1  0
 28 50  1  0
 29 51  1  0
 30 52  1  0
 31 53  1  0
M  CHG  1   7   1
M  END
>  <UniqueID>  (3) 
3

>  <SMILES>  (3) 
COc1ccc(-[n+]2nc(-c3ccccc3)n(-c3ccccc3)c2-c2ccccc2)cc1

>  <Energy>  (3) 
113.17949670315662

>  <Genealogy>  (3) 
COc1ccc(-[n+]2nc(-c3ccccc3)n(-c3ccccc3)c2-c2ccccc2)cc1 (3D coordinates assigned)
COc1ccc(-[n+]2nc(-c3ccccc3)n(-c3ccccc3)c2-c2ccccc2)cc1 (optimized conformer: 113.17949670315662 kcal/mol)

>  <smiles>  (3) 
COc1ccc(-[n+]2nc(-c3ccccc3)n(-c3ccccc3)c2-c2ccccc2)cc1

>  <score_type>  (3) 
oracle

>  <origin>  (3) 
adg

>  <m_score__min__energy>  (3) 
-7.0499999999999998

>  <m_primary>  (3) 
energy

$$$$
3:0
     RDKit          3D

 64 66  0  0  0  0  0  0  0  0999 V2000
   57.7710   26.1600   43.4880 C   0  0  0  0  0  0  0  0  0  0  0  0
   58.3700   27.2480   44.1830 O   0  0  0  0  0  0  0  0  0  0  0  0
   57.9220   28.5760   44.1280 C   0  0  0  0  0  0  0  0  0  0  0  0
   57.0070   29.0140   43.1490 C   0  0  0  0  0  0  0  0  0  0  0  0
   56.6050   30.3510   43.1040 C   0  0  0  0  0  0  0  0  0  0  0  0
   57.1120   31.2660   44.0280 C   0  0  0  0  0  0  0  0  0  0  0  0
   58.0180   30.8450   45.0040 C   0  0  0  0  0  0  0  0  0  0  0  0
   58.4200   29.5020   45.0670 C   0  0  0  0  0  0  0  0  0  0  0  0
   59.3500   29.0800   46.0800 N   0  0  0  0  0  0  0  0  0  0  0  0
   59.0180   27.9630   46.9650 C   0  0  0  0  0  0  0  0  0  0  0  0
   59.9610   27.9410   48.1830 C   0  0  0  0  0  0  0  0  0  0  0  0
   60.2630   29.3110   48.6670 N   0  0  0  0  0  0  0  0  0  0  0  0
   59.0350   29.9920   49.1760 C   0  0  0  0  0  0  0  0  0  0  0  0
   59.2690   30.9250   50.3910 C   0  0  1  0  0  0  0  0  0  0  0  0
   60.6260   30.9290   50.7690 O   0  0  0  0  0  0  0  0  0  0  0  0
   58.7210   32.3540   50.1980 C   0  0  0  0  0  0  0  0  0  0  0  0
   59.6670   33.1640   49.5000 O   0  0  0  0  0  0  0  0  0  0  0  0
   59.6500   33.4640   48.1260 C   0  0  0  0  0  0  0  0  0  0  0  0
   58.4400   33.6710   47.4290 C   0  0  0  0  0  0  0  0  0  0  0  0
   58.4420   33.9460   46.0560 C   0  0  0  0  0  0  0  0  0  0  0  0
   57.1510   34.2000   45.3340 C   0  0  0  0  0  0  0  0  0  0  0  0
   59.6580   34.0480   45.3760 C   0  0  0  0  0  0  0  0  0  0  0  0
   60.8620   33.8480   46.0500 C   0  0  0  0  0  0  0  0  0  0  0  0
   60.8790   33.5520   47.4250 C   0  0  0  0  0  0  0  0  0  0  0  0
   62.2250   33.3540   48.1110 C   0  0  0  0  0  0  0  0  0  0  0  0
   63.3910   33.4470   47.1180 C   0  0  0  0  0  0  0  0  0  0  0  0
   62.4140   34.3130   49.2940 C   0  0  0  0  0  0  0  0  0  0  0  0
   60.9740   30.1170   47.6290 C   0  0  0  0  0  0  0  0  0  0  0  0
   60.6780   29.6900   46.1770 C   0  0  0  0  0  0  0  0  0  0  0  0
   57.3724   25.4361   44.2140 H   0  0  0  0  0  0  0  0  0  0  0  0
   56.9520   26.5347   42.8564 H   0  0  0  0  0  0  0  0  0  0  0  0
   58.5256   25.6684   42.8564 H   0  0  0  0  0  0  0  0  0  0  0  0
   56.6070   28.2982   42.4158 H   0  0  0  0  0  0  0  0  0  0  0  0
   55.8877   30.6833   42.3391 H   0  0  0  0  0  0  0  0  0  0  0  0
   56.7978   32.3194   43.9875 H   0  0  0  0  0  0  0  0  0  0  0  0
   58.4187   31.5703   45.7274 H   0  0  0  0  0  0  0  0  0  0  0  0
   57.9802   28.0727   47.3126 H   0  0  0  0  0  0  0  0  0  0  0  0
   59.1339   27.0214   46.4083 H   0  0  0  0  0  0  0  0  0  0  0  0
   59.4822   27.3735   48.9946 H   0  0  0  0  0  0  0  0  0  0  0  0
   60.9062   27.4689   47.8769 H   0  0  0  0  0  0  0  0  0  0  0  0
   60.9310   29.1810   49.4620 H   0  0  0  0  0  0  0  0  0  0  0  0
   58.6129   30.5941   48.3578 H   0  0  0  0  0  0  0  0  0  0  0  0
   58.3585   29.1962   49.5209 H   0  0  0  0  0  0  0  0  0  0  0  0
   58.6792   30.5028   51.2180 H   0  0  0  0  0  0  0  0  0  0  0  0
   61.0150   31.8140   50.5480 H   0  0  0  0  0  0  0  0  0  0  0  0
   57.7871   32.3080   49.6187 H   0  0  0  0  0  0  0  0  0  0  0  0
   58.5336   32.7989   51.1864 H   0  0  0  0  0  0  0  0  0  0  0  0
   57.4843   33.6156   47.9708 H   0  0  0  0  0  0  0  0  0  0  0  0
   56.3461   34.3584   46.0668 H   0  0  0  0  0  0  0  0  0  0  0  0
   57.2537   35.0951   44.7030 H   0  0  0  0  0  0  0  0  0  0  0  0
   56.9070   33.3326   44.7030 H   0  0  0  0  0  0  0  0  0  0  0  0
   59.6657   34.2875   44.3024 H   0  0  0  0  0  0  0  0  0  0  0  0
   61.8112   33.9227   45.4992 H   0  0  0  0  0  0  0  0  0  0  0  0
   62.2254   32.3328   48.5199 H   0  0  0  0  0  0  0  0  0  0  0  0
   64.3387   33.5226   47.6713 H   0  0  0  0  0  0  0  0  0  0  0  0
   63.4065   32.5472   46.4854 H   0  0  0  0  0  0  0  0  0  0  0  0
   63.2637   34.3378   46.4854 H   0  0  0  0  0  0  0  0  0  0  0  0
   62.3046   33.7577   50.2372 H   0  0  0  0  0  0  0  0  0  0  0  0
   63.4177   34.7607   49.2464 H   0  0  0  0  0  0  0  0  0  0  0  0
   61.6553   35.1080   49.2464 H   0  0  0  0  0  0  0  0  0  0  0  0
   60.6748   31.1691   47.7459 H   0  0  0  0  0  0  0  0  0  0  0  0
   62.0503   29.9565   47.7900 H   0  0  0  0  0  0  0  0  0  0  0  0
   60.7180   30.5748   45.5246 H   0  0  0  0  0  0  0  0  0  0  0  0
   61.4312   28.9520   45.8637 H   0  0  0  0  0  0  0  0  0  0  0  0
  1  2  1  0
  2  3  1  0
  3  4  2  0
  4  5  1  0
  5  6  2  0
  6  7  1  0
  7  8  2  0
  8  9  1  0
  9 10  1  0
 10 11  1  0
 11 12  1  0
 12 13  1  0
 13 14  1  0
 14 15  1  0
 14 16  1  0
 16 17  1  0
 17 18  1  0
 18 19  2  0
 19 20  1  0
 20 21  1  0
 20 22  2  0
 22 23  1  0
 23 24  2  0
 24 25  1  0
 25 26  1  0
 25 27  1  0
 12 28  1  0
 28 29  1  0
  8  3  1  0
 29  9  1  0
 24 18  1  0
  1 30  1  0
  1 31  1  0
  1 32  1  0
  4 33  1  0
  5 34  1  0
  6 35  1  0
  7 36  1  0
 10 37  1  0
 10 38  1  0
 11 39  1  0
 11 40  1  0
 12 41  1  0
 13 42  1  0
 13 43  1  0
 14 44  1  1
 15 45  1  0
 16 46  1  0
 16 47  1  0
 19 48  1  0
 21 49  1  0
 21 50  1  0
 21 51  1  0
 22 52  1  0
 23 53  1  0
 25 54  1  0
 26 55  1  0
 26 56  1  0
 26 57  1  0
 27 58  1  0
 27 59  1  0
 27 60  1  0
 28 61  1  0
 28 62  1  0
 29 63  1  0
 29 64  1  0
M  CHG  1  12   1
M  END
>  <UniqueID>  (4) 
4

>  <SMILES>  (4) 
COc1ccccc1N1CC[NH+](C[C@@H](O)COc2cc(C)ccc2C(C)C)CC1

>  <Energy>  (4) 
76.58037853052134

>  <Genealogy>  (4) 
COc1ccccc1N1CC[NH+](CC(O)COc2cc(C)ccc2C(C)C)CC1 (protonated)
COc1ccccc1N1CC[NH+](C[C@@H](O)COc2cc(C)ccc2C(C)C)CC1 (chirality)
COc1ccccc1N1CC[NH+](C[C@@H](O)COc2cc(C)ccc2C(C)C)CC1 (3D coordinates assigned)
COc1ccccc1N1CC[NH+](C[C@@H](O)COc2cc(C)ccc2C(C)C)CC1 (nonaromatic ring conformer: 76.58037853052134 kcal/mol)

>  <smiles>  (4) 
COc1ccccc1N1CCN(CC(O)COc2cc(C)ccc2C(C)C)CC1

>  <score_type>  (4) 
oracle

>  <origin>  (4) 
adg

>  <m_score__min__energy>  (4) 
-5.9299999999999997

>  <m_primary>  (4) 
energy

$$$$
4:0
     RDKit          3D

 39 40  0  0  0  0  0  0  0  0999 V2000
   58.0620   27.2530   43.4820 C   0  0  0  0  0  0  0  0  0  0  0  0
   58.4990   28.4190   44.3290 C   0  0  0  0  0  0  0  0  0  0  0  0
   59.7960   28.4180   44.8660 C   0  0  0  0  0  0  0  0  0  0  0  0
   60.2450   29.4890   45.6340 C   0  0  0  0  0  0  0  0  0  0  0  0
   59.4080   30.5740   45.8820 C   0  0  0  0  0  0  0  0  0  0  0  0
   58.1000   30.6000   45.3640 C   0  0  0  0  0  0  0  0  0  0  0  0
   57.2250   31.6700   45.6190 O   0  0  0  0  0  0  0  0  0  0  0  0
   57.5940   32.9480   46.1400 C   0  0  0  0  0  0  0  0  0  0  0  0
   58.3620   33.7580   45.0900 C   0  0  0  0  0  0  0  0  0  0  0  0
   59.6620   34.2200   45.6270 N   0  0  0  0  0  0  0  0  0  0  0  0
   59.6520   35.6840   45.7970 C   0  0  0  0  0  0  0  0  0  0  0  0
   59.9660   33.5480   46.9100 C   0  0  0  0  0  0  0  0  0  0  0  0
   61.4320   33.2590   47.0270 C   0  0  0  0  0  0  0  0  0  0  0  0
   62.0010   32.2460   47.7730 C   0  0  0  0  0  0  0  0  0  0  0  0
   63.3620   32.3770   47.5980 C   0  0  0  0  0  0  0  0  0  0  0  0
   63.5380   33.4590   46.7590 C   0  0  0  0  0  0  0  0  0  0  0  0
   62.3690   33.9620   46.4360 O   0  0  0  0  0  0  0  0  0  0  0  0
   57.6340   29.5080   44.5970 C   0  0  0  0  0  0  0  0  0  0  0  0
   56.2900   29.5220   44.0830 N   0  0  0  0  0  0  0  0  0  0  0  0
   55.3190   29.3360   44.8460 O   0  0  0  0  0  0  0  0  0  0  0  0
   56.0610   29.6620   42.7340 O   0  0  0  0  0  0  0  0  0  0  0  0
   57.7509   26.4229   44.1333 H   0  0  0  0  0  0  0  0  0  0  0  0
   57.2169   27.5574   42.8470 H   0  0  0  0  0  0  0  0  0  0  0  0
   58.8990   26.9270   42.8470 H   0  0  0  0  0  0  0  0  0  0  0  0
   60.4632   27.5638   44.6784 H   0  0  0  0  0  0  0  0  0  0  0  0
   61.2647   29.4781   46.0464 H   0  0  0  0  0  0  0  0  0  0  0  0
   59.7722   31.4171   46.4874 H   0  0  0  0  0  0  0  0  0  0  0  0
   56.6852   33.4975   46.4266 H   0  0  0  0  0  0  0  0  0  0  0  0
   58.2418   32.7997   47.0166 H   0  0  0  0  0  0  0  0  0  0  0  0
   58.5408   33.1261   44.2076 H   0  0  0  0  0  0  0  0  0  0  0  0
   57.7616   34.6382   44.8166 H   0  0  0  0  0  0  0  0  0  0  0  0
   59.6503   35.9286   46.8695 H   0  0  0  0  0  0  0  0  0  0  0  0
   60.5472   36.1142   45.3242 H   0  0  0  0  0  0  0  0  0  0  0  0
   58.7510   36.1019   45.3242 H   0  0  0  0  0  0  0  0  0  0  0  0
   59.6602   34.2014   47.7404 H   0  0  0  0  0  0  0  0  0  0  0  0
   59.4156   32.5963   46.9479 H   0  0  0  0  0  0  0  0  0  0  0  0
   61.4778   31.4923   48.3798 H   0  0  0  0  0  0  0  0  0  0  0  0
   64.1488   31.7467   48.0380 H   0  0  0  0  0  0  0  0  0  0  0  0
   64.5098   33.8416   46.4136 H   0  0  0  0  0  0  0  0  0  0  0  0
  1  2  1  0
  2  3  2  0
  3  4  1  0
  4  5  2  0
  5  6  1  0
  6  7  1  0
  7  8  1  0
  8  9  1  0
  9 10  1  0
 10 11  1  0
 10 12  1  0
 12 13  1  0
 13 14  2  0
 14 15  1  0
 15 16  2  0
 16 17  1  0
  6 18  2  0
 18 19  1  0
 19 20  2  0
 19 21  1  0
 18  2  1  0
 17 13  1  0
  1 22  1  0
  1 23  1  0
  1 24  1  0
  3 25  1  0
  4 26  1  0
  5 27  1  0
  8 28  1  0
  8 29  1  0
  9 30  1  0
  9 31  1  0
 11 32  1  0
 11 33  1  0
 11 34  1  0
 12 35  1  0
 12 36  1  0
 14 37  1  0
 15 38  1  0
 16 39  1  0
M  CHG  2  19   1  21  -1
M  END
>  <UniqueID>  (5) 
5

>  <SMILES>  (5) 
Cc1cccc(OCCN(C)Cc2ccco2)c1[N+](=O)[O-]

>  <Energy>  (5) 
70.01481240106614

>  <Genealogy>  (5) 
Cc1cccc(OCCN(C)Cc2ccco2)c1[N+](=O)[O-] (3D coordinates assigned)
Cc1cccc(OCCN(C)Cc2ccco2)c1[N+](=O)[O-] (optimized conformer: 70.01481240106614 kcal/mol)

>  <smiles>  (5) 
Cc1cccc(OCCN(C)Cc2ccco2)c1[N+](=O)[O-]

>  <score_type>  (5) 
oracle

>  <origin>  (5) 
adg

>  <m_score__min__energy>  (5) 
-7.3300000000000001

>  <m_primary>  (5) 
energy

$$$$
5:0
     RDKit          3D

 43 45  0  0  0  0  0  0  0  0999 V2000
   59.0490   29.0470   47.7700 C   0  0  0  0  0  0  0  0  0  0  0  0
   58.7500   28.5230   46.3910 C   0  0  0  0  0  0  0  0  0  0  0  0
   58.7600   27.1350   46.1720 C   0  0  0  0  0  0  0  0  0  0  0  0
   58.4450   26.6130   44.9150 C   0  0  0  0  0  0  0  0  0  0  0  0
   58.1190   27.4700   43.8630 C   0  0  0  0  0  0  0  0  0  0  0  0
   58.1230   28.8520   44.0610 C   0  0  0  0  0  0  0  0  0  0  0  0
   58.4660   29.3910   45.3090 C   0  0  0  0  0  0  0  0  0  0  0  0
   58.4740   30.8170   45.4660 N   0  0  0  0  0  0  0  0  0  0  0  0
   57.4030   31.6500   44.9930 C   0  0  0  0  0  0  0  0  0  0  0  0
   56.3450   31.1220   44.5510 O   0  0  0  0  0  0  0  0  0  0  0  0
   57.5190   33.1580   45.0090 C   0  0  0  0  0  0  0  0  0  0  0  0
   58.9150   33.6100   44.5190 C   0  0  0  0  0  0  0  0  0  0  0  0
   59.9990   33.4570   45.5990 C   0  0  0  0  0  0  0  0  0  0  0  0
   59.5170   33.8790   46.9240 N   0  0  0  0  0  0  0  0  0  0  0  0
   60.1340   33.3450   48.1110 C   0  0  0  0  0  0  0  0  0  0  0  0
   59.4100   32.9510   49.0660 O   0  0  0  0  0  0  0  0  0  0  0  0
   61.5960   33.2190   48.2330 C   0  0  0  0  0  0  0  0  0  0  0  0
   62.4180   32.3600   47.5120 C   0  0  0  0  0  0  0  0  0  0  0  0
   63.7770   32.5080   47.8210 C   0  0  0  0  0  0  0  0  0  0  0  0
   64.0310   33.4870   48.7720 C   0  0  0  0  0  0  0  0  0  0  0  0
   62.5640   34.1730   49.2240 S   0  0  0  0  0  0  0  0  0  0  0  0
   58.2410   34.5960   47.0220 C   0  0  0  0  0  0  0  0  0  0  0  0
   57.1210   33.7630   46.3860 C   0  0  0  0  0  0  0  0  0  0  0  0
   58.6509   28.3494   48.5216 H   0  0  0  0  0  0  0  0  0  0  0  0
   60.1374   29.1421   47.8981 H   0  0  0  0  0  0  0  0  0  0  0  0
   58.5772   30.0324   47.8981 H   0  0  0  0  0  0  0  0  0  0  0  0
   59.0178   26.4542   46.9967 H   0  0  0  0  0  0  0  0  0  0  0  0
   58.4540   25.5248   44.7543 H   0  0  0  0  0  0  0  0  0  0  0  0
   57.8588   27.0565   42.8774 H   0  0  0  0  0  0  0  0  0  0  0  0
   57.8550   29.5230   43.2316 H   0  0  0  0  0  0  0  0  0  0  0  0
   59.1980   31.2280   46.0950 H   0  0  0  0  0  0  0  0  0  0  0  0
   56.7881   33.5632   44.2937 H   0  0  0  0  0  0  0  0  0  0  0  0
   59.1970   33.0004   43.6479 H   0  0  0  0  0  0  0  0  0  0  0  0
   58.8485   34.6776   44.2626 H   0  0  0  0  0  0  0  0  0  0  0  0
   60.3028   32.4011   45.6508 H   0  0  0  0  0  0  0  0  0  0  0  0
   60.8475   34.1007   45.3240 H   0  0  0  0  0  0  0  0  0  0  0  0
   62.0399   31.6374   46.7738 H   0  0  0  0  0  0  0  0  0  0  0  0
   64.5689   31.9045   47.3534 H   0  0  0  0  0  0  0  0  0  0  0  0
   65.0209   33.7657   49.1623 H   0  0  0  0  0  0  0  0  0  0  0  0
   58.0047   34.7759   48.0811 H   0  0  0  0  0  0  0  0  0  0  0  0
   58.3241   35.5553   46.4901 H   0  0  0  0  0  0  0  0  0  0  0  0
   56.8652   32.9400   47.0695 H   0  0  0  0  0  0  0  0  0  0  0  0
   56.2677   34.4358   46.2151 H   0  0  0  0  0  0  0  0  0  0  0  0
  1  2  1  0
  2  3  2  0
  3  4  1  0
  4  5  2  0
  5  6  1  0
  6  7  2  0
  7  8  1  0
  8  9  1  0
  9 10  2  0
  9 11  1  0
 11 12  1  0
 12 13  1  0
 13 14  1  0
 14 15  1  0
 15 16  2  0
 15 17  1  0
 17 18  2  0
 18 19  1  0
 19 20  2  0
 20 21  1  0
 14 22  1  0
 22 23  1  0
  7  2  1  0
 23 11  1  0
 21 17  1  0
  1 24  1  0
  1 25  1  0
  1 26  1  0
  3 27  1  0
  4 28  1  0
  5 29  1  0
  6 30  1  0
  8 31  1  0
 11 32  1  0
 12 33  1  0
 12 34  1  0
 13 35  1  0
 13 36  1  0
 18 37  1  0
 19 38  1  0
 20 39  1  0
 22 40  1  0
 22 41  1  0
 23 42  1  0
 23 43  1  0
M  END
>  <UniqueID>  (6) 
6

>  <SMILES>  (6) 
Cc1ccccc1NC(=O)C1CCN(C(=O)c2cccs2)CC1

>  <Energy>  (6) 
81.52874727458607

>  <Genealogy>  (6) 
Cc1ccccc1NC(=O)C1CCN(C(=O)c2cccs2)CC1 (3D coordinates assigned)
Cc1ccccc1NC(=O)C1CCN(C(=O)c2cccs2)CC1 (nonaromatic ring conformer: 81.52874727458607 kcal/mol)

>  <smiles>  (6) 
Cc1ccccc1NC(=O)C1CCN(C(=O)c2cccs2)CC1

>  <score_type>  (6) 
oracle

>  <origin>  (6) 
adg

>  <m_score__min__energy>  (6) 
-7.7699999999999996

>  <m_primary>  (6) 
energy

$$$$
6:0
     RDKit          3D

 44 45  0  0  0  0  0  0  0  0999 V2000
   57.7680   27.5990   45.1680 C   0  0  0  0  0  0  0  0  0  0  0  0
   57.8670   28.2070   43.7720 C   0  0  0  0  0  0  0  0  0  0  0  0
   56.8910   29.3680   43.5530 C   0  0  0  0  0  0  0  0  0  0  0  0
   56.6570   30.0870   44.7670 O   0  0  0  0  0  0  0  0  0  0  0  0
   57.3820   31.1950   45.2370 C   0  0  0  0  0  0  0  0  0  0  0  0
   57.4130   32.4370   44.5700 C   0  0  0  0  0  0  0  0  0  0  0  0
   58.1530   33.5000   45.0960 C   0  0  0  0  0  0  0  0  0  0  0  0
   58.8760   33.3410   46.2830 C   0  0  0  0  0  0  0  0  0  0  0  0
   59.7840   34.7010   46.9420 S   0  0  0  0  0  0  0  0  0  0  0  0
   58.9450   35.3530   48.0060 O   0  0  0  0  0  0  0  0  0  0  0  0
   60.0530   35.7110   45.8620 O   0  0  0  0  0  0  0  0  0  0  0  0
   61.2940   34.1400   47.6320 N   0  0  0  0  0  0  0  0  0  0  0  0
   61.8910   33.1280   46.7330 C   0  0  0  0  0  0  0  0  0  0  0  0
   63.4240   33.0200   46.8580 C   0  0  0  0  0  0  0  0  0  0  0  0
   64.0310   33.5110   48.1960 C   0  0  0  0  0  0  0  0  0  0  0  0
   63.5230   32.7620   49.4400 C   0  0  0  0  0  0  0  0  0  0  0  0
   61.9910   32.5270   49.4970 C   0  0  0  0  0  0  0  0  0  0  0  0
   61.1030   33.7080   49.0410 C   0  0  0  0  0  0  0  0  0  0  0  0
   58.8530   32.1070   46.9450 C   0  0  0  0  0  0  0  0  0  0  0  0
   58.1130   31.0440   46.4220 C   0  0  0  0  0  0  0  0  0  0  0  0
   57.8967   28.3894   45.9221 H   0  0  0  0  0  0  0  0  0  0  0  0
   56.7815   27.1290   45.2941 H   0  0  0  0  0  0  0  0  0  0  0  0
   58.5544   26.8403   45.2941 H   0  0  0  0  0  0  0  0  0  0  0  0
   58.8918   28.5780   43.6233 H   0  0  0  0  0  0  0  0  0  0  0  0
   57.6066   27.4183   43.0508 H   0  0  0  0  0  0  0  0  0  0  0  0
   57.3139   30.0553   42.8055 H   0  0  0  0  0  0  0  0  0  0  0  0
   55.9330   28.9548   43.2044 H   0  0  0  0  0  0  0  0  0  0  0  0
   56.8530   32.5699   43.6326 H   0  0  0  0  0  0  0  0  0  0  0  0
   58.1669   34.4677   44.5732 H   0  0  0  0  0  0  0  0  0  0  0  0
   61.9330   34.9710   47.6400 H   0  0  0  0  0  0  0  0  0  0  0  0
   61.4525   32.1480   46.9725 H   0  0  0  0  0  0  0  0  0  0  0  0
   61.6725   33.4430   45.7020 H   0  0  0  0  0  0  0  0  0  0  0  0
   63.6986   31.9624   46.7316 H   0  0  0  0  0  0  0  0  0  0  0  0
   63.8330   33.6860   46.0839 H   0  0  0  0  0  0  0  0  0  0  0  0
   65.1229   33.3886   48.1433 H   0  0  0  0  0  0  0  0  0  0  0  0
   63.7209   34.5598   48.3140 H   0  0  0  0  0  0  0  0  0  0  0  0
   64.0181   31.7802   49.4704 H   0  0  0  0  0  0  0  0  0  0  0  0
   63.7626   33.4054   50.2994 H   0  0  0  0  0  0  0  0  0  0  0  0
   61.7593   31.6649   48.8543 H   0  0  0  0  0  0  0  0  0  0  0  0
   61.7554   32.3743   50.5606 H   0  0  0  0  0  0  0  0  0  0  0  0
   60.0514   33.4101   49.1654 H   0  0  0  0  0  0  0  0  0  0  0  0
   61.3951   34.5661   49.6642 H   0  0  0  0  0  0  0  0  0  0  0  0
   59.4190   31.9746   47.8789 H   0  0  0  0  0  0  0  0  0  0  0  0
   58.1043   30.0773   46.9468 H   0  0  0  0  0  0  0  0  0  0  0  0
  1  2  1  0
  2  3  1  0
  3  4  1  0
  4  5  1  0
  5  6  2  0
  6  7  1  0
  7  8  2  0
  8  9  1  0
  9 10  2  0
  9 11  2  0
  9 12  1  0
 12 13  1  0
 13 14  1  0
 14 15  1  0
 15 16  1  0
 16 17  1  0
 17 18  1  0
  8 19  1  0
 19 20  2  0
 20  5  1  0
 18 12  1  0
  1 21  1  0
  1 22  1  0
  1 23  1  0
  2 24  1  0
  2 25  1  0
  3 26  1  0
  3 27  1  0
  6 28  1  0
  7 29  1  0
 12 30  1  0
 13 31  1  0
 13 32  1  0
 14 33  1  0
 14 34  1  0
 15 35  1  0
 15 36  1  0
 16 37  1  0
 16 38  1  0
 17 39  1  0
 17 40  1  0
 18 41  1  0
 18 42  1  0
 19 43  1  0
 20 44  1  0
M  CHG  1  12   1
M  END
>  <UniqueID>  (7) 
7

>  <SMILES>  (7) 
CCCOc1ccc(S(=O)(=O)[NH+]2CCCCCC2)cc1

>  <Energy>  (7) 
52.65321838607739

>  <Genealogy>  (7) 
CCCOc1ccc(S(=O)(=O)[NH+]2CCCCCC2)cc1 (protonated)
CCCOc1ccc(S(=O)(=O)[NH+]2CCCCCC2)cc1 (3D coordinates assigned)
CCCOc1ccc(S(=O)(=O)[NH+]2CCCCCC2)cc1 (nonaromatic ring conformer: 52.65321838607739 kcal/mol)

>  <smiles>  (7) 
CCCOc1ccc(S(=O)(=O)N2CCCCCC2)cc1

>  <score_type>  (7) 
oracle

>  <origin>  (7) 
adg

>  <m_score__min__energy>  (7) 
-4.0300000000000002

>  <m_primary>  (7) 
energy

$$$$
7:0
     RDKit          3D

 32 33  0  0  0  0  0  0  0  0999 V2000
   58.5400   32.0920   49.2040 C   0  0  0  0  0  0  0  0  0  0  0  0
   57.9050   32.5120   48.0020 O   0  0  0  0  0  0  0  0  0  0  0  0
   58.4410   33.4440   47.0980 C   0  0  0  0  0  0  0  0  0  0  0  0
   59.3940   34.4000   47.5060 C   0  0  0  0  0  0  0  0  0  0  0  0
   59.8960   35.3300   46.5940 C   0  0  0  0  0  0  0  0  0  0  0  0
   59.4520   35.3270   45.2730 C   0  0  0  0  0  0  0  0  0  0  0  0
   58.5120   34.3850   44.8540 C   0  0  0  0  0  0  0  0  0  0  0  0
   58.0110   33.4240   45.7520 C   0  0  0  0  0  0  0  0  0  0  0  0
   57.0090   32.3950   45.2630 C   0  0  0  0  0  0  0  0  0  0  0  0
   57.6210   31.2220   44.5950 N   0  0  0  0  0  0  0  0  0  0  0  0
   56.9750   30.8030   43.3350 C   0  0  0  0  0  0  0  0  0  0  0  0
   55.8490   29.7650   43.5580 C   0  0  0  0  0  0  0  0  0  0  0  0
   55.7430   29.3490   44.9040 O   0  0  0  0  0  0  0  0  0  0  0  0
   57.0010   28.9160   45.3680 C   0  0  0  0  0  0  0  0  0  0  0  0
   57.9810   30.0970   45.4840 C   0  0  0  0  0  0  0  0  0  0  0  0
   57.9729   32.4671   50.0687 H   0  0  0  0  0  0  0  0  0  0  0  0
   58.5735   30.9930   49.2363 H   0  0  0  0  0  0  0  0  0  0  0  0
   59.5645   32.4912   49.2363 H   0  0  0  0  0  0  0  0  0  0  0  0
   59.7438   34.4130   48.5488 H   0  0  0  0  0  0  0  0  0  0  0  0
   60.6445   36.0676   46.9191 H   0  0  0  0  0  0  0  0  0  0  0  0
   59.8430   36.0679   44.5601 H   0  0  0  0  0  0  0  0  0  0  0  0
   58.1592   34.3934   43.8122 H   0  0  0  0  0  0  0  0  0  0  0  0
   56.4316   32.0371   46.1282 H   0  0  0  0  0  0  0  0  0  0  0  0
   56.3821   32.8962   44.5108 H   0  0  0  0  0  0  0  0  0  0  0  0
   56.5443   31.6904   42.8482 H   0  0  0  0  0  0  0  0  0  0  0  0
   57.7448   30.3289   42.7084 H   0  0  0  0  0  0  0  0  0  0  0  0
   54.8923   30.2141   43.2531 H   0  0  0  0  0  0  0  0  0  0  0  0
   56.0947   28.8773   42.9567 H   0  0  0  0  0  0  0  0  0  0  0  0
   56.8792   28.4509   46.3573 H   0  0  0  0  0  0  0  0  0  0  0  0
   57.4094   28.1903   44.6493 H   0  0  0  0  0  0  0  0  0  0  0  0
   57.9799   30.4552   46.5240 H   0  0  0  0  0  0  0  0  0  0  0  0
   58.9752   29.7368   45.1808 H   0  0  0  0  0  0  0  0  0  0  0  0
  1  2  1  0
  2  3  1  0
  3  4  2  0
  4  5  1  0
  5  6  2  0
  6  7  1  0
  7  8  2  0
  8  9  1  0
  9 10  1  0
 10 11  1  0
 11 12  1  0
 12 13  1  0
 13 14  1  0
 14 15  1  0
  8  3  1  0
 15 10  1  0
  1 16  1  0
  1 17  1  0
  1 18  1  0
  4 19  1  0
  5 20  1  0
  6 21  1  0
  7 22  1  0
  9 23  1  0
  9 24  1  0
 11 25  1  0
 11 26  1  0
 12 27  1  0
 12 28  1  0
 14 29  1  0
 14 30  1  0
 15 31  1  0
 15 32  1  0
M  END
>  <UniqueID>  (8) 
8

>  <SMILES>  (8) 
COc1ccccc1CN1CCOCC1

>  <Energy>  (8) 
46.04495097885407

>  <Genealogy>  (8) 
COc1ccccc1CN1CCOCC1 (3D coordinates assigned)
COc1ccccc1CN1CCOCC1 (nonaromatic ring conformer: 46.04495097885407 kcal/mol)

>  <smiles>  (8) 
COc1ccccc1CN1CCOCC1

>  <score_type>  (8) 
oracle

>  <origin>  (8) 
adg

>  <m_score__min__energy>  (8) 
-6.0599999999999996

>  <m_primary>  (8) 
energy

$$$$
8:0
     RDKit          3D

 40 42  0  0  0  0  0  0  0  0999 V2000
   59.6750   33.6410   49.4930 C   0  0  0  0  0  0  0  0  0  0  0  0
   60.8930   33.6700   48.6080 C   0  0  0  0  0  0  0  0  0  0  0  0
   62.1560   33.8700   49.1910 C   0  0  0  0  0  0  0  0  0  0  0  0
   63.3100   33.8600   48.4040 C   0  0  0  0  0  0  0  0  0  0  0  0
   63.2160   33.6530   47.0270 C   0  0  0  0  0  0  0  0  0  0  0  0
   61.9660   33.4710   46.4310 C   0  0  0  0  0  0  0  0  0  0  0  0
   60.7970   33.5070   47.2050 C   0  0  0  0  0  0  0  0  0  0  0  0
   59.5310   33.3350   46.5530 N   0  0  0  0  0  0  0  0  0  0  0  0
   58.8980   34.3880   45.8140 C   0  0  0  0  0  0  0  0  0  0  0  0
   59.4950   35.4810   45.6220 O   0  0  0  0  0  0  0  0  0  0  0  0
   57.5120   34.1940   45.2630 C   0  0  0  0  0  0  0  0  0  0  0  0
   57.0940   32.7830   45.3080 N   0  0  0  0  0  0  0  0  0  0  0  0
   57.7060   31.9730   44.2430 C   0  0  0  0  0  0  0  0  0  0  0  0
   57.8420   30.5380   44.6760 C   0  0  0  0  0  0  0  0  0  0  0  0
   59.1260   29.9660   44.8730 C   0  0  0  0  0  0  0  0  0  0  0  0
   59.2550   28.6310   45.2970 C   0  0  0  0  0  0  0  0  0  0  0  0
   58.0880   27.9050   45.5160 C   0  0  0  0  0  0  0  0  0  0  0  0
   56.8570   28.4470   45.3340 C   0  0  0  0  0  0  0  0  0  0  0  0
   56.6860   29.7630   44.9160 C   0  0  0  0  0  0  0  0  0  0  0  0
   55.8910   27.5040   45.6260 O   0  0  0  0  0  0  0  0  0  0  0  0
   56.5560   26.2940   46.0160 C   0  0  0  0  0  0  0  0  0  0  0  0
   57.9560   26.5930   45.9320 O   0  0  0  0  0  0  0  0  0  0  0  0
   59.9878   33.6484   50.5476 H   0  0  0  0  0  0  0  0  0  0  0  0
   59.0524   34.5246   49.2890 H   0  0  0  0  0  0  0  0  0  0  0  0
   59.0951   32.7288   49.2890 H   0  0  0  0  0  0  0  0  0  0  0  0
   62.2364   34.0357   50.2755 H   0  0  0  0  0  0  0  0  0  0  0  0
   64.2941   34.0155   48.8702 H   0  0  0  0  0  0  0  0  0  0  0  0
   64.1269   33.6332   46.4107 H   0  0  0  0  0  0  0  0  0  0  0  0
   61.8979   33.2982   45.3468 H   0  0  0  0  0  0  0  0  0  0  0  0
   59.1440   32.3680   46.4750 H   0  0  0  0  0  0  0  0  0  0  0  0
   56.8063   34.7928   45.8575 H   0  0  0  0  0  0  0  0  0  0  0  0
   57.5165   34.5140   44.2106 H   0  0  0  0  0  0  0  0  0  0  0  0
   56.0530   32.7320   45.2080 H   0  0  0  0  0  0  0  0  0  0  0  0
   57.0730   32.0204   43.3446 H   0  0  0  0  0  0  0  0  0  0  0  0
   58.7076   32.3730   44.0264 H   0  0  0  0  0  0  0  0  0  0  0  0
   60.0268   30.5711   44.6928 H   0  0  0  0  0  0  0  0  0  0  0  0
   60.2448   28.1762   45.4503 H   0  0  0  0  0  0  0  0  0  0  0  0
   55.6806   30.1871   44.7766 H   0  0  0  0  0  0  0  0  0  0  0  0
   56.2814   26.0168   47.0445 H   0  0  0  0  0  0  0  0  0  0  0  0
   56.2768   25.4452   45.3744 H   0  0  0  0  0  0  0  0  0  0  0  0
  1  2  1  0
  2  3  2  0
  3  4  1  0
  4  5  2  0
  5  6  1  0
  6  7  2  0
  7  8  1  0
  8  9  1  0
  9 10  2  0
  9 11  1  0
 11 12  1  0
 12 13  1  0
 13 14  1  0
 14 15  2  0
 15 16  1  0
 16 17  2  0
 17 18  1  0
 18 19  2  0
 18 20  1  0
 20 21  1  0
 21 22  1  0
  7  2  1  0
 19 14  1  0
 22 17  1  0
  1 23  1  0
  1 24  1  0
  1 25  1  0
  3 26  1  0
  4 27  1  0
  5 28  1  0
  6 29  1  0
  8 30  1  0
 11 31  1  0
 11 32  1  0
 12 33  1  0
 13 34  1  0
 13 35  1  0
 15 36  1  0
 16 37  1  0
 19 38  1  0
 21 39  1  0
 21 40  1  0
M  END
>  <UniqueID>  (9) 
9

>  <SMILES>  (9) 
Cc1ccccc1NC(=O)CNCc1ccc2c(c1)OCO2

>  <Energy>  (9) 
73.48993051189407

>  <Genealogy>  (9) 
Cc1ccccc1NC(=O)CNCc1ccc2c(c1)OCO2 (3D coordinates assigned)
Cc1ccccc1NC(=O)CNCc1ccc2c(c1)OCO2 (nonaromatic ring conformer: 73.48993051189407 kcal/mol)

>  <smiles>  (9) 
Cc1ccccc1NC(=O)CNCc1ccc2c(c1)OCO2

>  <score_type>  (9) 
oracle

>  <origin>  (9) 
adg

>  <m_score__min__energy>  (9) 
-7.5499999999999998

>  <m_primary>  (9) 
energy

$$$$
9:0
     RDKit          3D

 32 33  0  0  0  0  0  0  0  0999 V2000
   58.0580   32.9150   43.9060 C   0  0  0  0  0  0  0  0  0  0  0  0
   57.5050   31.5660   43.4770 C   0  0  0  0  0  0  0  0  0  0  0  0
   56.6480   31.0550   44.4930 O   0  0  0  0  0  0  0  0  0  0  0  0
   56.3390   29.6970   44.6050 C   0  0  0  0  0  0  0  0  0  0  0  0
   55.1490   29.3210   44.7870 O   0  0  0  0  0  0  0  0  0  0  0  0
   57.4370   28.6890   44.5560 C   0  0  0  0  0  0  0  0  0  0  0  0
   57.8750   28.1930   46.2520 S   0  0  0  0  0  0  0  0  0  0  0  0
   58.8730   29.6500   46.5390 C   0  0  0  0  0  0  0  0  0  0  0  0
   60.2280   29.6140   46.6390 N   0  0  0  0  0  0  0  0  0  0  0  0
   60.4950   30.9140   46.8440 C   0  0  0  0  0  0  0  0  0  0  0  0
   61.7280   31.4530   47.0030 N   0  0  0  0  0  0  0  0  0  0  0  0
   61.8400   32.8020   47.1940 C   0  0  0  0  0  0  0  0  0  0  0  0
   63.1930   33.4170   47.3530 C   0  0  0  0  0  0  0  0  0  0  0  0
   60.6840   33.6150   47.2130 C   0  0  0  0  0  0  0  0  0  0  0  0
   59.4240   33.0120   47.0560 C   0  0  0  0  0  0  0  0  0  0  0  0
   58.1650   33.8270   47.0310 C   0  0  0  0  0  0  0  0  0  0  0  0
   59.3950   31.6680   46.8670 N   0  0  0  0  0  0  0  0  0  0  0  0
   58.3470   30.8910   46.6750 N   0  0  0  0  0  0  0  0  0  0  0  0
   58.0804   32.9696   45.0044 H   0  0  0  0  0  0  0  0  0  0  0  0
   59.0780   33.0352   43.5120 H   0  0  0  0  0  0  0  0  0  0  0  0
   57.4159   33.7166   43.5120 H   0  0  0  0  0  0  0  0  0  0  0  0
   56.9356   31.6841   42.5433 H   0  0  0  0  0  0  0  0  0  0  0  0
   58.3373   30.8652   43.3152 H   0  0  0  0  0  0  0  0  0  0  0  0
   57.1013   27.8073   43.9905 H   0  0  0  0  0  0  0  0  0  0  0  0
   58.3168   29.1264   44.0613 H   0  0  0  0  0  0  0  0  0  0  0  0
   63.4245   33.5222   48.4232 H   0  0  0  0  0  0  0  0  0  0  0  0
   63.9468   32.7731   46.8764 H   0  0  0  0  0  0  0  0  0  0  0  0
   63.2035   34.4083   46.8764 H   0  0  0  0  0  0  0  0  0  0  0  0
   60.7691   34.7033   47.3486 H   0  0  0  0  0  0  0  0  0  0  0  0
   57.8427   34.0356   48.0618 H   0  0  0  0  0  0  0  0  0  0  0  0
   58.3526   34.7755   46.5064 H   0  0  0  0  0  0  0  0  0  0  0  0
   57.3764   33.2676   46.5064 H   0  0  0  0  0  0  0  0  0  0  0  0
  1  2  1  0
  2  3  1  0
  3  4  1  0
  4  5  2  0
  4  6  1  0
  6  7  1  0
  7  8  1  0
  8  9  1  0
  9 10  2  0
 10 11  1  0
 11 12  2  0
 12 13  1  0
 12 14  1  0
 14 15  2  0
 15 16  1  0
 15 17  1  0
 17 18  1  0
 18  8  2  0
 17 10  1  0
  1 19  1  0
  1 20  1  0
  1 21  1  0
  2 22  1  0
  2 23  1  0
  6 24  1  0
  6 25  1  0
 13 26  1  0
 13 27  1  0
 13 28  1  0
 14 29  1  0
 16 30  1  0
 16 31  1  0
 16 32  1  0
M  END
>  <UniqueID>  (10) 
10

>  <SMILES>  (10) 
CCOC(=O)CSc1nc2nc(C)cc(C)n2n1

>  <Energy>  (10) 
59.213706936897395

>  <Genealogy>  (10) 
CCOC(=O)CSc1nc2nc(C)cc(C)n2n1 (3D coordinates assigned)
CCOC(=O)CSc1nc2nc(C)cc(C)n2n1 (optimized conformer: 59.213706936897395 kcal/mol)

>  <smiles>  (10) 
CCOC(=O)CSc1nc2nc(C)cc(C)n2n1

>  <score_type>  (10) 
oracle

>  <origin>  (10) 
adg

>  <m_score__min__energy>  (10) 
-6.29

>  <m_primary>  (10) 
energy

$$$$
10:0
     RDKit          3D

 32 34  0  0  0  0  0  0  0  0999 V2000
   57.4330   21.6440   45.6960 C   0  0  0  0  0  0  0  0  0  0  0  0
   57.3910   22.6170   46.7340 O   0  0  0  0  0  0  0  0  0  0  0  0
   57.6660   23.9810   46.5530 C   0  0  0  0  0  0  0  0  0  0  0  0
   56.7490   24.9890   46.9050 C   0  0  0  0  0  0  0  0  0  0  0  0
   57.0710   26.3350   46.7040 C   0  0  0  0  0  0  0  0  0  0  0  0
   58.3110   26.6940   46.1560 C   0  0  0  0  0  0  0  0  0  0  0  0
   58.6260   28.0820   45.9280 N   0  0  0  0  0  0  0  0  0  0  0  0
   59.1390   28.9500   46.9370 C   0  0  0  0  0  0  0  0  0  0  0  0
   59.4520   28.4650   48.4710 S   0  0  0  0  0  0  0  0  0  0  0  0
   59.7400   30.5160   46.3480 S   0  0  0  0  0  0  0  0  0  0  0  0
   58.8450   30.2040   44.7850 C   0  0  2  0  0  0  0  0  0  0  0  0
   57.4510   30.8460   44.8360 C   0  0  0  0  0  0  0  0  0  0  0  0
   56.3740   29.7390   43.9840 S   0  0  0  0  0  0  0  0  0  0  0  0
   55.2010   29.3470   44.8390 O   0  0  0  0  0  0  0  0  0  0  0  0
   55.9070   30.3180   42.6770 O   0  0  0  0  0  0  0  0  0  0  0  0
   57.4710   28.3830   43.7350 C   0  0  0  0  0  0  0  0  0  0  0  0
   58.7120   28.6760   44.5930 C   0  0  2  0  0  0  0  0  0  0  0  0
   59.2200   25.6880   45.7960 C   0  0  0  0  0  0  0  0  0  0  0  0
   58.8980   24.3430   45.9970 C   0  0  0  0  0  0  0  0  0  0  0  0
   57.4764   20.6377   46.1382 H   0  0  0  0  0  0  0  0  0  0  0  0
   56.5302   21.7324   45.0738 H   0  0  0  0  0  0  0  0  0  0  0  0
   58.3248   21.8099   45.0738 H   0  0  0  0  0  0  0  0  0  0  0  0
   55.7758   24.7172   47.3397 H   0  0  0  0  0  0  0  0  0  0  0  0
   56.3472   27.1169   46.9774 H   0  0  0  0  0  0  0  0  0  0  0  0
   59.4002   30.6442   43.9436 H   0  0  0  0  0  0  0  0  0  0  0  0
   57.1249   30.9692   45.8793 H   0  0  0  0  0  0  0  0  0  0  0  0
   57.4502   31.8442   44.3739 H   0  0  0  0  0  0  0  0  0  0  0  0
   56.9969   27.4442   44.0574 H   0  0  0  0  0  0  0  0  0  0  0  0
   57.7343   28.2687   42.6731 H   0  0  0  0  0  0  0  0  0  0  0  0
   59.5741   28.2428   44.0648 H   0  0  0  0  0  0  0  0  0  0  0  0
   60.1901   25.9589   45.3538 H   0  0  0  0  0  0  0  0  0  0  0  0
   59.6196   23.5619   45.7156 H   0  0  0  0  0  0  0  0  0  0  0  0
  1  2  1  0
  2  3  1  0
  3  4  2  0
  4  5  1  0
  5  6  2  0
  6  7  1  0
  7  8  1  0
  8  9  2  0
  8 10  1  0
 10 11  1  0
 11 12  1  0
 12 13  1  0
 13 14  2  0
 13 15  2  0
 13 16  1  0
 16 17  1  0
  6 18  1  0
 18 19  2  0
 19  3  1  0
 17  7  1  0
 17 11  1  0
  1 20  1  0
  1 21  1  0
  1 22  1  0
  4 23  1  0
  5 24  1  0
 11 25  1  6
 12 26  1  0
 12 27  1  0
 16 28  1  0
 16 29  1  0
 17 30  1  6
 18 31  1  0
 19 32  1  0
M  END
>  <UniqueID>  (11) 
11

>  <SMILES>  (11) 
COc1ccc(N2C(=S)S[C@@H]3CS(=O)(=O)C[C@@H]32)cc1

>  <Energy>  (11) 
44.84596147069501

>  <Genealogy>  (11) 
COc1ccc(N2C(=S)S[C@@H]3CS(=O)(=O)C[C@@H]32)cc1 (chirality)
COc1ccc(N2C(=S)S[C@@H]3CS(=O)(=O)C[C@@H]32)cc1 (3D coordinates assigned)
COc1ccc(N2C(=S)S[C@@H]3CS(=O)(=O)C[C@@H]32)cc1 (nonaromatic ring conformer: 44.84596147069501 kcal/mol)

>  <smiles>  (11) 
COc1ccc(N2C(=S)SC3CS(=O)(=O)CC32)cc1

>  <score_type>  (11) 
oracle

>  <origin>  (11) 
adg

>  <m_score__min__energy>  (11) 
-6.7599999999999998

>  <m_primary>  (11) 
energy

$$$$
11:0
     RDKit          3D

 46 49  0  0  0  0  0  0  0  0999 V2000
   58.1790   26.4650   44.1660 C   0  0  0  0  0  0  0  0  0  0  0  0
   58.0460   27.9340   43.8000 C   0  0  0  0  0  0  0  0  0  0  0  0
   57.8820   28.7080   44.9840 O   0  0  0  0  0  0  0  0  0  0  0  0
   57.1420   29.8930   45.0160 C   0  0  0  0  0  0  0  0  0  0  0  0
   55.8910   29.8630   44.8630 O   0  0  0  0  0  0  0  0  0  0  0  0
   57.8510   31.1760   45.1820 C   0  0  0  0  0  0  0  0  0  0  0  0
   57.4010   32.5710   44.3410 S   0  0  0  0  0  0  0  0  0  0  0  0
   58.5270   33.5560   45.0820 C   0  0  0  0  0  0  0  0  0  0  0  0
   58.6940   34.8790   44.8580 N   0  0  0  0  0  0  0  0  0  0  0  0
   59.6360   35.5520   45.5700 C   0  0  0  0  0  0  0  0  0  0  0  0
   60.3790   34.9030   46.5100 N   0  0  0  0  0  0  0  0  0  0  0  0
   60.2380   33.5670   46.7510 C   0  0  0  0  0  0  0  0  0  0  0  0
   60.9780   32.9780   47.8310 N   0  0  0  0  0  0  0  0  0  0  0  0
   60.6900   33.4260   49.2000 C   0  0  0  0  0  0  0  0  0  0  0  0
   61.8810   34.1840   49.8110 C   0  0  0  0  0  0  0  0  0  0  0  0
   63.1960   33.5300   49.6010 N   0  0  0  0  0  0  0  0  0  0  0  0
   63.1990   32.0750   49.8710 C   0  0  0  0  0  0  0  0  0  0  0  0
   62.5500   31.2490   48.7330 C   0  0  0  0  0  0  0  0  0  0  0  0
   62.1490   32.1280   47.5300 C   0  0  0  0  0  0  0  0  0  0  0  0
   63.3550   32.9900   47.1370 C   0  0  0  0  0  0  0  0  0  0  0  0
   63.8320   33.8740   48.3070 C   0  0  0  0  0  0  0  0  0  0  0  0
   59.2800   32.8470   46.0040 C   0  0  0  0  0  0  0  0  0  0  0  0
   58.9320   31.4710   46.0400 C   0  0  0  0  0  0  0  0  0  0  0  0
   59.6460   30.4280   46.8550 C   0  0  0  0  0  0  0  0  0  0  0  0
   58.1886   26.3593   45.2609 H   0  0  0  0  0  0  0  0  0  0  0  0
   57.3279   25.9052   43.7510 H   0  0  0  0  0  0  0  0  0  0  0  0
   59.1168   26.0672   43.7510 H   0  0  0  0  0  0  0  0  0  0  0  0
   58.9522   28.2628   43.2702 H   0  0  0  0  0  0  0  0  0  0  0  0
   57.1694   28.0707   43.1497 H   0  0  0  0  0  0  0  0  0  0  0  0
   59.7992   36.6243   45.3868 H   0  0  0  0  0  0  0  0  0  0  0  0
   59.8150   34.0923   49.1808 H   0  0  0  0  0  0  0  0  0  0  0  0
   60.4943   32.5376   49.8184 H   0  0  0  0  0  0  0  0  0  0  0  0
   61.9192   35.1863   49.3595 H   0  0  0  0  0  0  0  0  0  0  0  0
   61.7129   34.2096   50.8978 H   0  0  0  0  0  0  0  0  0  0  0  0
   64.2404   31.7433   49.9953 H   0  0  0  0  0  0  0  0  0  0  0  0
   62.6042   31.9071   50.7810 H   0  0  0  0  0  0  0  0  0  0  0  0
   63.2689   30.4892   48.3925 H   0  0  0  0  0  0  0  0  0  0  0  0
   61.6358   30.7851   49.1317 H   0  0  0  0  0  0  0  0  0  0  0  0
   61.8570   31.4755   46.6940 H   0  0  0  0  0  0  0  0  0  0  0  0
   64.1797   32.3299   46.8301 H   0  0  0  0  0  0  0  0  0  0  0  0
   63.0493   33.6502   46.3119 H   0  0  0  0  0  0  0  0  0  0  0  0
   64.9208   33.7569   48.4114 H   0  0  0  0  0  0  0  0  0  0  0  0
   63.5465   34.9094   48.0695 H   0  0  0  0  0  0  0  0  0  0  0  0
   59.5026   30.6375   47.9253 H   0  0  0  0  0  0  0  0  0  0  0  0
   59.2377   29.4345   46.6179 H   0  0  0  0  0  0  0  0  0  0  0  0
   60.7199   30.4492   46.6179 H   0  0  0  0  0  0  0  0  0  0  0  0
  1  2  1  0
  2  3  1  0
  3  4  1  0
  4  5  2  0
  4  6  1  0
  6  7  1  0
  7  8  1  0
  8  9  2  0
  9 10  1  0
 10 11  2  0
 11 12  1  0
 12 13  1  0
 13 14  1  0
 14 15  1  0
 15 16  1  0
 16 17  1  0
 17 18  1  0
 18 19  1  0
 19 20  1  0
 20 21  1  0
 12 22  2  0
 22 23  1  0
 23 24  1  0
 23  6  2  0
 22  8  1  0
 19 13  1  0
 21 16  1  0
  1 25  1  0
  1 26  1  0
  1 27  1  0
  2 28  1  0
  2 29  1  0
 10 30  1  0
 14 31  1  0
 14 32  1  0
 15 33  1  0
 15 34  1  0
 17 35  1  0
 17 36  1  0
 18 37  1  0
 18 38  1  0
 19 39  1  0
 20 40  1  0
 20 41  1  0
 21 42  1  0
 21 43  1  0
 24 44  1  0
 24 45  1  0
 24 46  1  0
M  END
>  <UniqueID>  (12) 
12

>  <SMILES>  (12) 
CCOC(=O)c1sc2ncnc(N3CCN4CCC3CC4)c2c1C

>  <Energy>  (12) 
102.16037447035458

>  <Genealogy>  (12) 
CCOC(=O)c1sc2ncnc(N3CCN4CCC3CC4)c2c1C (3D coordinates assigned)
CCOC(=O)c1sc2ncnc(N3CCN4CCC3CC4)c2c1C (nonaromatic ring conformer: 102.16037447035458 kcal/mol)

>  <smiles>  (12) 
CCOC(=O)c1sc2ncnc(N3CCN4CCC3CC4)c2c1C

>  <score_type>  (12) 
oracle

>  <origin>  (12) 
adg

>  <m_score__min__energy>  (12) 
-6.7999999999999998

>  <m_primary>  (12) 
energy

$$$$
12:0
     RDKit          3D

 40 42  0  0  0  0  0  0  0  0999 V2000
   56.9940   20.7360   44.1710 C   0  0  0  0  0  0  0  0  0  0  0  0
   57.5560   22.0900   44.1600 N   0  0  0  0  0  0  0  0  0  0  0  0
   58.9630   22.2920   44.5210 C   0  0  0  0  0  0  0  0  0  0  0  0
   56.7350   23.1820   43.6880 C   0  0  0  0  0  0  0  0  0  0  0  0
   55.7360   22.9280   42.9600 O   0  0  0  0  0  0  0  0  0  0  0  0
   57.0170   24.5950   44.0390 C   0  0  0  0  0  0  0  0  0  0  0  0
   56.6760   25.0990   45.3030 C   0  0  0  0  0  0  0  0  0  0  0  0
   56.9720   26.4250   45.6200 C   0  0  0  0  0  0  0  0  0  0  0  0
   57.6150   27.2520   44.6850 C   0  0  0  0  0  0  0  0  0  0  0  0
   57.9370   28.6650   45.0090 C   0  0  0  0  0  0  0  0  0  0  0  0
   58.9510   28.9750   45.9320 C   0  0  0  0  0  0  0  0  0  0  0  0
   59.2540   30.3050   46.2370 C   0  0  0  0  0  0  0  0  0  0  0  0
   58.5480   31.3570   45.6260 C   0  0  0  0  0  0  0  0  0  0  0  0
   58.8700   32.7700   45.9490 C   0  0  0  0  0  0  0  0  0  0  0  0
   59.0980   33.1680   47.2780 C   0  0  0  0  0  0  0  0  0  0  0  0
   59.4000   34.5030   47.5600 C   0  0  0  0  0  0  0  0  0  0  0  0
   59.4730   35.4130   46.5520 N   0  0  0  0  0  0  0  0  0  0  0  0
   59.2590   35.0610   45.2580 C   0  0  0  0  0  0  0  0  0  0  0  0
   58.9540   33.7370   44.9320 C   0  0  0  0  0  0  0  0  0  0  0  0
   57.5340   31.0470   44.7030 C   0  0  0  0  0  0  0  0  0  0  0  0
   57.2320   29.7170   44.3990 C   0  0  0  0  0  0  0  0  0  0  0  0
   57.9490   26.7040   43.4350 C   0  0  0  0  0  0  0  0  0  0  0  0
   57.6480   25.4100   43.1500 N   0  0  0  0  0  0  0  0  0  0  0  0
   56.8564   20.4045   45.2108 H   0  0  0  0  0  0  0  0  0  0  0  0
   56.0224   20.7381   43.6552 H   0  0  0  0  0  0  0  0  0  0  0  0
   57.6815   20.0495   43.6552 H   0  0  0  0  0  0  0  0  0  0  0  0
   59.0621   22.3062   45.6164 H   0  0  0  0  0  0  0  0  0  0  0  0
   59.5688   21.4716   44.1087 H   0  0  0  0  0  0  0  0  0  0  0  0
   59.3135   23.2497   44.1087 H   0  0  0  0  0  0  0  0  0  0  0  0
   56.1779   24.4522   46.0402 H   0  0  0  0  0  0  0  0  0  0  0  0
   56.7001   26.8249   46.6080 H   0  0  0  0  0  0  0  0  0  0  0  0
   59.5113   28.1632   46.4188 H   0  0  0  0  0  0  0  0  0  0  0  0
   60.0510   30.5308   46.9607 H   0  0  0  0  0  0  0  0  0  0  0  0
   59.0389   32.4313   48.0928 H   0  0  0  0  0  0  0  0  0  0  0  0
   59.5789   34.8182   48.5986 H   0  0  0  0  0  0  0  0  0  0  0  0
   59.3259   35.8200   44.4646 H   0  0  0  0  0  0  0  0  0  0  0  0
   58.7803   33.4524   43.8837 H   0  0  0  0  0  0  0  0  0  0  0  0
   56.9734   31.8585   44.2159 H   0  0  0  0  0  0  0  0  0  0  0  0
   56.4349   29.4911   43.6754 H   0  0  0  0  0  0  0  0  0  0  0  0
   58.4569   27.3259   42.6831 H   0  0  0  0  0  0  0  0  0  0  0  0
  1  2  1  0
  2  3  1  0
  2  4  1  0
  4  5  2  0
  4  6  1  0
  6  7  2  0
  7  8  1  0
  8  9  2  0
  9 10  1  0
 10 11  2  0
 11 12  1  0
 12 13  2  0
 13 14  1  0
 14 15  2  0
 15 16  1  0
 16 17  2  0
 17 18  1  0
 18 19  2  0
 13 20  1  0
 20 21  2  0
  9 22  1  0
 22 23  2  0
 23  6  1  0
 21 10  1  0
 19 14  1  0
  1 24  1  0
  1 25  1  0
  1 26  1  0
  3 27  1  0
  3 28  1  0
  3 29  1  0
  7 30  1  0
  8 31  1  0
 11 32  1  0
 12 33  1  0
 15 34  1  0
 16 35  1  0
 18 36  1  0
 19 37  1  0
 20 38  1  0
 21 39  1  0
 22 40  1  0
M  END
>  <UniqueID>  (13) 
13

>  <SMILES>  (13) 
CN(C)C(=O)c1ccc(-c2ccc(-c3ccncc3)cc2)cn1

>  <Energy>  (13) 
55.89202968534478

>  <Genealogy>  (13) 
CN(C)C(=O)c1ccc(-c2ccc(-c3ccncc3)cc2)cn1 (3D coordinates assigned)
CN(C)C(=O)c1ccc(-c2ccc(-c3ccncc3)cc2)cn1 (optimized conformer: 55.89202968534478 kcal/mol)

>  <smiles>  (13) 
CN(C)C(=O)c1ccc(-c2ccc(-c3ccncc3)cc2)cn1

>  <score_type>  (13) 
oracle

>  <origin>  (13) 
adg

>  <m_score__min__energy>  (13) 
-7.4900000000000002

>  <m_primary>  (13) 
energy

$$$$
13:0
     RDKit          3D

 32 33  0  0  0  0  0  0  0  0999 V2000
   58.2500   29.0790   44.3310 C   0  0  0  0  0  0  0  0  0  0  0  0
   57.0990   30.4240   44.1580 S   0  0  0  0  0  0  0  0  0  0  0  0
   55.8170   30.0840   44.8640 O   0  0  0  0  0  0  0  0  0  0  0  0
   56.8030   30.6470   42.7010 O   0  0  0  0  0  0  0  0  0  0  0  0
   57.7970   31.8810   44.8570 C   0  0  0  0  0  0  0  0  0  0  0  0
   57.3920   33.1440   44.4060 C   0  0  0  0  0  0  0  0  0  0  0  0
   57.9480   34.2980   44.9620 C   0  0  0  0  0  0  0  0  0  0  0  0
   58.9230   34.2010   45.9580 C   0  0  0  0  0  0  0  0  0  0  0  0
   59.4020   35.3370   46.5260 F   0  0  0  0  0  0  0  0  0  0  0  0
   59.3640   32.9370   46.3930 C   0  0  0  0  0  0  0  0  0  0  0  0
   60.3560   32.8040   47.4220 N   0  0  0  0  0  0  0  0  0  0  0  0
   61.6310   33.4680   47.3780 C   0  0  0  0  0  0  0  0  0  0  0  0
   61.9700   34.1170   46.3520 O   0  0  0  0  0  0  0  0  0  0  0  0
   62.5750   33.3620   48.5150 C   0  0  0  0  0  0  0  0  0  0  0  0
   63.9320   33.0890   48.2670 C   0  0  0  0  0  0  0  0  0  0  0  0
   64.8440   33.0020   49.3220 C   0  0  0  0  0  0  0  0  0  0  0  0
   64.4130   33.1860   50.6360 C   0  0  0  0  0  0  0  0  0  0  0  0
   63.0700   33.4590   50.8990 C   0  0  0  0  0  0  0  0  0  0  0  0
   62.1460   33.5500   49.8500 C   0  0  0  0  0  0  0  0  0  0  0  0
   60.4580   33.8410   50.2590 Cl  0  0  0  0  0  0  0  0  0  0  0  0
   58.7810   31.7820   45.8510 C   0  0  0  0  0  0  0  0  0  0  0  0
   58.4217   28.8784   45.3988 H   0  0  0  0  0  0  0  0  0  0  0  0
   57.8377   28.1795   43.8506 H   0  0  0  0  0  0  0  0  0  0  0  0
   59.2025   29.3474   43.8506 H   0  0  0  0  0  0  0  0  0  0  0  0
   56.6347   33.2268   43.6125 H   0  0  0  0  0  0  0  0  0  0  0  0
   57.6169   35.2877   44.6143 H   0  0  0  0  0  0  0  0  0  0  0  0
   60.1690   32.1180   48.1860 H   0  0  0  0  0  0  0  0  0  0  0  0
   64.2786   32.9427   47.2333 H   0  0  0  0  0  0  0  0  0  0  0  0
   65.9032   32.7881   49.1162 H   0  0  0  0  0  0  0  0  0  0  0  0
   65.1323   33.1158   51.4653 H   0  0  0  0  0  0  0  0  0  0  0  0
   62.7348   33.6037   51.9366 H   0  0  0  0  0  0  0  0  0  0  0  0
   59.0981   30.7912   46.2084 H   0  0  0  0  0  0  0  0  0  0  0  0
  1  2  1  0
  2  3  2  0
  2  4  2  0
  2  5  1  0
  5  6  2  0
  6  7  1  0
  7  8  2  0
  8  9  1  0
  8 10  1  0
 10 11  1  0
 11 12  1  0
 12 13  2  0
 12 14  1  0
 14 15  2  0
 15 16  1  0
 16 17  2  0
 17 18  1  0
 18 19  2  0
 19 20  1  0
 10 21  2  0
 21  5  1  0
 19 14  1  0
  1 22  1  0
  1 23  1  0
  1 24  1  0
  6 25  1  0
  7 26  1  0
 11 27  1  0
 15 28  1  0
 16 29  1  0
 17 30  1  0
 18 31  1  0
 21 32  1  0
M  END
>  <UniqueID>  (14) 
14

>  <SMILES>  (14) 
CS(=O)(=O)c1ccc(F)c(NC(=O)c2ccccc2Cl)c1

>  <Energy>  (14) 
40.25762047953236

>  <Genealogy>  (14) 
CS(=O)(=O)c1ccc(F)c(NC(=O)c2ccccc2Cl)c1 (3D coordinates assigned)
CS(=O)(=O)c1ccc(F)c(NC(=O)c2ccccc2Cl)c1 (optimized conformer: 40.25762047953236 kcal/mol)

>  <smiles>  (14) 
CS(=O)(=O)c1ccc(F)c(NC(=O)c2ccccc2Cl)c1

>  <score_type>  (14) 
oracle

>  <origin>  (14) 
adg

>  <m_score__min__energy>  (14) 
-8.1699999999999999

>  <m_primary>  (14) 
energy

$$$$
14:0
     RDKit          3D

 43 45  0  0  0  0  0  0  0  0999 V2000
   58.4410   31.6150   49.2710 O   0  0  0  0  0  0  0  0  0  0  0  0
   59.0880   31.7400   48.1940 C   0  0  0  0  0  0  0  0  0  0  0  0
   58.3350   32.1780   46.9940 C   0  0  0  0  0  0  0  0  0  0  0  0
   57.8250   33.4160   46.9430 C   0  0  0  0  0  0  0  0  0  0  0  0
   57.0430   33.8500   45.7410 C   0  0  0  0  0  0  0  0  0  0  0  0
   57.7630   33.3910   44.4670 C   0  0  0  0  0  0  0  0  0  0  0  0
   58.1020   31.8790   44.4820 C   0  0  0  0  0  0  0  0  0  0  0  0
   58.0110   31.2140   45.8750 C   0  0  0  0  0  0  0  0  0  0  0  0
   60.4800   31.3090   48.1220 N   0  0  2  0  0  0  0  0  0  0  0  0
   61.2780   31.6470   49.3290 C   0  0  0  0  0  0  0  0  0  0  0  0
   61.5510   33.1690   49.6150 C   0  0  1  0  0  0  0  0  0  0  0  0
   63.0670   33.4720   49.7150 C   0  0  0  0  0  0  0  0  0  0  0  0
   63.7340   33.8180   48.3760 C   0  0  0  0  0  0  0  0  0  0  0  0
   63.3370   32.8800   47.2240 C   0  0  0  0  0  0  0  0  0  0  0  0
   61.8980   32.9180   46.8530 N   0  0  0  0  0  0  0  0  0  0  0  0
   61.0910   34.0940   47.2110 C   0  0  0  0  0  0  0  0  0  0  0  0
   60.8230   34.2150   48.7240 C   0  0  0  0  0  0  0  0  0  0  0  0
   61.1820   31.6290   46.8460 C   0  0  0  0  0  0  0  0  0  0  0  0
   57.9800   34.1115   47.7810 H   0  0  0  0  0  0  0  0  0  0  0  0
   56.0390   33.4020   45.7759 H   0  0  0  0  0  0  0  0  0  0  0  0
   56.9564   34.9466   45.7373 H   0  0  0  0  0  0  0  0  0  0  0  0
   57.1146   33.5975   43.6028 H   0  0  0  0  0  0  0  0  0  0  0  0
   58.7123   33.9432   44.4052 H   0  0  0  0  0  0  0  0  0  0  0  0
   57.4012   31.3633   43.8089 H   0  0  0  0  0  0  0  0  0  0  0  0
   59.1507   31.7909   44.1618 H   0  0  0  0  0  0  0  0  0  0  0  0
   56.9886   30.8349   46.0198 H   0  0  0  0  0  0  0  0  0  0  0  0
   58.7501   30.3999   45.9079 H   0  0  0  0  0  0  0  0  0  0  0  0
   60.4140   30.2630   48.1420 H   0  0  0  0  0  0  0  0  0  0  0  0
   60.7464   31.2379   50.2008 H   0  0  0  0  0  0  0  0  0  0  0  0
   62.2714   31.2146   49.1388 H   0  0  0  0  0  0  0  0  0  0  0  0
   61.0727   33.3105   50.5954 H   0  0  0  0  0  0  0  0  0  0  0  0
   63.2034   34.3237   50.3976 H   0  0  0  0  0  0  0  0  0  0  0  0
   63.5481   32.5514   50.0769 H   0  0  0  0  0  0  0  0  0  0  0  0
   63.4488   34.8443   48.1015 H   0  0  0  0  0  0  0  0  0  0  0  0
   64.8188   33.7067   48.5203 H   0  0  0  0  0  0  0  0  0  0  0  0
   63.9258   33.1592   46.3378 H   0  0  0  0  0  0  0  0  0  0  0  0
   63.5378   31.8573   47.5759 H   0  0  0  0  0  0  0  0  0  0  0  0
   61.6237   34.9969   46.8780 H   0  0  0  0  0  0  0  0  0  0  0  0
   60.1150   33.9808   46.7164 H   0  0  0  0  0  0  0  0  0  0  0  0
   61.1427   35.2169   49.0464 H   0  0  0  0  0  0  0  0  0  0  0  0
   59.7468   34.0308   48.8573 H   0  0  0  0  0  0  0  0  0  0  0  0
   60.4349   31.6545   46.0390 H   0  0  0  0  0  0  0  0  0  0  0  0
   61.9424   30.8475   46.7008 H   0  0  0  0  0  0  0  0  0  0  0  0
  1  2  2  0
  2  3  1  0
  3  4  2  0
  4  5  1  0
  5  6  1  0
  6  7  1  0
  7  8  1  0
  2  9  1  0
  9 10  1  0
 10 11  1  0
 11 12  1  0
 12 13  1  0
 13 14  1  0
 14 15  1  0
 15 16  1  0
 16 17  1  0
 15 18  1  0
  8  3  1  0
 18  9  1  0
 17 11  1  0
  4 19  1  0
  5 20  1  0
  5 21  1  0
  6 22  1  0
  6 23  1  0
  7 24  1  0
  7 25  1  0
  8 26  1  0
  8 27  1  0
  9 28  1  6
 10 29  1  0
 10 30  1  0
 11 31  1  1
 12 32  1  0
 12 33  1  0
 13 34  1  0
 13 35  1  0
 14 36  1  0
 14 37  1  0
 16 38  1  0
 16 39  1  0
 17 40  1  0
 17 41  1  0
 18 42  1  0
 18 43  1  0
M  CHG  1   9   1
M  END
>  <UniqueID>  (15) 
15

>  <SMILES>  (15) 
O=C(C1=CCCCC1)[N@@H+]1C[C@H]2CCCN(CC2)C1

>  <Energy>  (15) 
92.15423393178429

>  <Genealogy>  (15) 
O=C(C1=CCCCC1)[NH+]1CC2CCCN(CC2)C1 (protonated)
O=C(C1=CCCCC1)[N@@H+]1C[C@H]2CCCN(CC2)C1 (chirality)
O=C(C1=CCCCC1)[N@@H+]1C[C@H]2CCCN(CC2)C1 (3D coordinates assigned)
O=C(C1=CCCCC1)[N@@H+]1C[C@H]2CCCN(CC2)C1 (nonaromatic ring conformer: 92.15423393178429 kcal/mol)

>  <smiles>  (15) 
O=C(C1=CCCCC1)N1CC2CCCN(CC2)C1

>  <score_type>  (15) 
oracle

>  <origin>  (15) 
adg

>  <m_score__min__energy>  (15) 
-1.1499999999999999

>  <m_primary>  (15) 
energy

$$$$
15:0
     RDKit          3D

 48 51  0  0  1  0  0  0  0  0999 V2000
   56.0160   30.0670   43.5100 C   0  0  0  0  0  0  0  0  0  0  0  0
   56.4940   30.1300   44.8390 O   0  0  0  0  0  0  0  0  0  0  0  0
   57.4440   31.0200   45.2870 C   0  0  0  0  0  0  0  0  0  0  0  0
   57.5230   32.3300   44.8480 C   0  0  0  0  0  0  0  0  0  0  0  0
   58.4810   33.2080   45.3070 C   0  0  0  0  0  0  0  0  0  0  0  0
   58.5730   34.4800   44.8930 N   0  0  0  0  0  0  0  0  0  0  0  0
   59.5330   35.3230   45.3670 C   0  0  0  0  0  0  0  0  0  0  0  0
   60.4450   34.9380   46.2740 N   0  0  0  0  0  0  0  0  0  0  0  0
   60.3790   33.6640   46.7100 C   0  0  0  0  0  0  0  0  0  0  0  0
   61.2060   33.1820   47.5830 N   0  0  0  0  0  0  0  0  0  0  0  0
   62.5090   33.7920   47.7730 C   0  0  0  0  0  0  0  0  0  0  0  0
   63.3750   33.7840   46.5470 C   0  0  0  0  0  0  0  0  0  0  0  0
   63.7470   32.9640   47.7410 C   0  0  0  0  0  0  0  0  0  0  0  0
   59.4070   32.7850   46.2400 C   0  0  0  0  0  0  0  0  0  0  0  0
   59.3530   31.4950   46.6920 C   0  0  0  0  0  0  0  0  0  0  0  0
   58.3840   30.6200   46.2220 C   0  0  0  0  0  0  0  0  0  0  0  0
   58.3850   29.2570   46.7490 C   0  0  0  0  0  0  0  0  0  0  0  0
   58.2170   29.0280   47.9820 O   0  0  0  0  0  0  0  0  0  0  0  0
   58.5760   28.1360   45.9080 N   0  0  0  0  0  0  0  0  0  0  0  0
   58.5730   26.8170   46.4480 C   0  0  0  0  0  0  0  0  0  0  0  0
   57.9780   25.7540   45.5940 C   0  0  0  0  0  0  0  0  0  0  0  0
   58.1710   25.9960   44.1720 N   0  0  0  0  0  0  0  0  0  0  0  0
   57.5000   25.0140   43.3780 C   0  0  0  0  0  0  0  0  0  0  0  0
   57.7730   27.3480   43.8270 C   0  0  0  0  0  0  0  0  0  0  0  0
   58.7790   28.2830   44.4690 C   0  0  0  0  0  0  0  0  0  0  0  0
   54.9255   29.9233   43.5190 H   0  0  0  0  0  0  0  0  0  0  0  0
   56.2579   31.0048   42.9885 H   0  0  0  0  0  0  0  0  0  0  0  0
   56.4927   29.2239   42.9885 H   0  0  0  0  0  0  0  0  0  0  0  0
   56.7936   32.6839   44.1046 H   0  0  0  0  0  0  0  0  0  0  0  0
   57.8760   34.8040   44.1880 H   0  0  0  0  0  0  0  0  0  0  0  0
   59.5618   36.3570   44.9928 H   0  0  0  0  0  0  0  0  0  0  0  0
   62.1275   34.5261   48.4979 H   0  0  0  0  0  0  0  0  0  0  0  0
   63.0244   33.2917   45.6279 H   0  0  0  0  0  0  0  0  0  0  0  0
   63.8772   34.5530   45.9417 H   0  0  0  0  0  0  0  0  0  0  0  0
   63.6730   31.8673   47.6985 H   0  0  0  0  0  0  0  0  0  0  0  0
   64.6409   32.8805   48.3766 H   0  0  0  0  0  0  0  0  0  0  0  0
   60.0853   31.1477   47.4357 H   0  0  0  0  0  0  0  0  0  0  0  0
   59.6168   26.5367   46.6526 H   0  0  0  0  0  0  0  0  0  0  0  0
   57.9318   26.8680   47.3403 H   0  0  0  0  0  0  0  0  0  0  0  0
   58.4458   24.7927   45.8531 H   0  0  0  0  0  0  0  0  0  0  0  0
   56.8945   25.7462   45.7835 H   0  0  0  0  0  0  0  0  0  0  0  0
   57.0031   24.2868   44.0370 H   0  0  0  0  0  0  0  0  0  0  0  0
   56.7488   25.5066   42.7431 H   0  0  0  0  0  0  0  0  0  0  0  0
   58.2319   24.4932   42.7431 H   0  0  0  0  0  0  0  0  0  0  0  0
   57.7807   27.4771   42.7346 H   0  0  0  0  0  0  0  0  0  0  0  0
   56.7548   27.5611   44.1846 H   0  0  0  0  0  0  0  0  0  0  0  0
   59.8040   27.9949   44.1928 H   0  0  0  0  0  0  0  0  0  0  0  0
   58.6416   29.3233   44.1390 H   0  0  0  0  0  0  0  0  0  0  0  0
  1  2  1  0
  2  3  1  0
  3  4  2  0
  4  5  1  0
  5  6  1  0
  6  7  1  0
  7  8  2  0
  8  9  1  0
  9 10  2  0
 10 11  1  0
 11 12  1  0
 12 13  1  0
  9 14  1  0
 14 15  1  0
 15 16  2  0
 16 17  1  0
 17 18  2  0
 17 19  1  0
 19 20  1  0
 20 21  1  0
 21 22  1  0
 22 23  1  0
 22 24  1  0
 24 25  1  0
 16  3  1  0
 25 19  1  0
 14  5  2  0
 13 11  1  0
  1 26  1  0
  1 27  1  0
  1 28  1  0
  4 29  1  0
  6 30  1  0
  7 31  1  0
 11 32  1  0
 12 33  1  0
 12 34  1  0
 13 35  1  0
 13 36  1  0
 15 37  1  0
 20 38  1  0
 20 39  1  0
 21 40  1  0
 21 41  1  0
 23 42  1  0
 23 43  1  0
 23 44  1  0
 24 45  1  0
 24 46  1  0
 25 47  1  0
 25 48  1  0
M  END
>  <smiles>  (16) 
COc1cc2[nH]cnc(=NC3CC3)c2cc1C(=O)N1CCN(C)CC1

>  <score_type>  (16) 
oracle

>  <origin>  (16) 
adg

>  <m_score__min__energy>  (16) 
-7.4100000000000001

>  <m_primary>  (16) 
energy

$$$$
16:0
     RDKit          3D

 39 42  0  0  0  0  0  0  0  0999 V2000
   63.3010   31.9010   49.9890 C   0  0  0  0  0  0  0  0  0  0  0  0
   63.6050   33.2710   49.5370 N   0  0  0  0  0  0  0  0  0  0  0  0
   64.0070   33.3040   48.1060 C   0  0  0  0  0  0  0  0  0  0  0  0
   62.9150   33.8390   47.1610 C   0  0  0  0  0  0  0  0  0  0  0  0
   61.5860   33.5020   47.6760 N   0  0  0  0  0  0  0  0  0  0  0  0
   60.6370   32.7700   46.8760 C   0  0  0  0  0  0  0  0  0  0  0  0
   59.5830   33.4440   46.2330 C   0  0  0  0  0  0  0  0  0  0  0  0
   58.6500   32.7410   45.4670 C   0  0  0  0  0  0  0  0  0  0  0  0
   58.7550   31.3500   45.3390 C   0  0  0  0  0  0  0  0  0  0  0  0
   59.8070   30.6560   45.9910 C   0  0  0  0  0  0  0  0  0  0  0  0
   59.9010   29.2480   45.8620 C   0  0  0  0  0  0  0  0  0  0  0  0
   58.9900   28.5570   45.1140 N   0  0  0  0  0  0  0  0  0  0  0  0
   57.9880   29.2320   44.4940 C   0  0  0  0  0  0  0  0  0  0  0  0
   57.0250   28.6930   43.7320 N   0  0  0  0  0  0  0  0  0  0  0  0
   56.2570   29.7320   43.3310 C   0  0  0  0  0  0  0  0  0  0  0  0
   56.7400   30.9330   43.8440 C   0  0  0  0  0  0  0  0  0  0  0  0
   57.8540   30.5890   44.5880 C   0  0  0  0  0  0  0  0  0  0  0  0
   60.7380   31.3730   46.7560 C   0  0  0  0  0  0  0  0  0  0  0  0
   61.2400   33.9110   49.0420 C   0  0  0  0  0  0  0  0  0  0  0  0
   62.5090   34.2100   49.8580 C   0  0  0  0  0  0  0  0  0  0  0  0
   63.2943   31.8707   51.0886 H   0  0  0  0  0  0  0  0  0  0  0  0
   62.3141   31.5996   49.6078 H   0  0  0  0  0  0  0  0  0  0  0  0
   64.0678   31.2105   49.6078 H   0  0  0  0  0  0  0  0  0  0  0  0
   64.8933   33.9485   48.0104 H   0  0  0  0  0  0  0  0  0  0  0  0
   64.2053   32.2642   47.8070 H   0  0  0  0  0  0  0  0  0  0  0  0
   63.0070   34.9323   47.0825 H   0  0  0  0  0  0  0  0  0  0  0  0
   63.0420   33.3776   46.1706 H   0  0  0  0  0  0  0  0  0  0  0  0
   59.4925   34.5356   46.3344 H   0  0  0  0  0  0  0  0  0  0  0  0
   57.8331   33.2796   44.9645 H   0  0  0  0  0  0  0  0  0  0  0  0
   60.7140   28.7069   46.3682 H   0  0  0  0  0  0  0  0  0  0  0  0
   59.0640   27.5190   45.0220 H   0  0  0  0  0  0  0  0  0  0  0  0
   56.8920   27.6840   43.4960 H   0  0  0  0  0  0  0  0  0  0  0  0
   55.3703   29.6404   42.6865 H   0  0  0  0  0  0  0  0  0  0  0  0
   56.3245   31.9399   43.6904 H   0  0  0  0  0  0  0  0  0  0  0  0
   61.5531   30.8386   47.2658 H   0  0  0  0  0  0  0  0  0  0  0  0
   60.6157   34.8157   49.0008 H   0  0  0  0  0  0  0  0  0  0  0  0
   60.6918   33.0908   49.5286 H   0  0  0  0  0  0  0  0  0  0  0  0
   62.8418   35.2345   49.6353 H   0  0  0  0  0  0  0  0  0  0  0  0
   62.2635   34.0957   50.9241 H   0  0  0  0  0  0  0  0  0  0  0  0
  1  2  1  0
  2  3  1  0
  3  4  1  0
  4  5  1  0
  5  6  1  0
  6  7  2  0
  7  8  1  0
  8  9  2  0
  9 10  1  0
 10 11  1  0
 11 12  2  0
 12 13  1  0
 13 14  1  0
 14 15  1  0
 15 16  2  0
 16 17  1  0
 10 18  2  0
  5 19  1  0
 19 20  1  0
 20  2  1  0
 18  6  1  0
 17  9  1  0
 17 13  2  0
  1 21  1  0
  1 22  1  0
  1 23  1  0
  3 24  1  0
  3 25  1  0
  4 26  1  0
  4 27  1  0
  7 28  1  0
  8 29  1  0
 11 30  1  0
 12 31  1  0
 14 32  1  0
 15 33  1  0
 16 34  1  0
 18 35  1  0
 19 36  1  0
 19 37  1  0
 20 38  1  0
 20 39  1  0
M  CHG  1  12   1
M  END
>  <UniqueID>  (17) 
16

>  <SMILES>  (17) 
CN1CCN(c2ccc3c(c[nH+]c4[nH]ccc43)c2)CC1

>  <Energy>  (17) 
90.38136846975765

>  <Genealogy>  (17) 
CN1CCN(c2ccc3c(c[nH+]c4[nH]ccc43)c2)CC1 (protonated)
CN1CCN(c2ccc3c(c[nH+]c4[nH]ccc43)c2)CC1 (3D coordinates assigned)
CN1CCN(c2ccc3c(c[nH+]c4[nH]ccc43)c2)CC1 (nonaromatic ring conformer: 90.38136846975765 kcal/mol)

>  <smiles>  (17) 
CN1CCN(c2ccc3c(cnc4[nH]ccc43)c2)CC1

>  <score_type>  (17) 
oracle

>  <origin>  (17) 
adg

>  <m_score__min__energy>  (17) 
-5.46

>  <m_primary>  (17) 
energy

$$$$
17:0
     RDKit          3D

 31 32  0  0  0  0  0  0  0  0999 V2000
   59.7400   28.7820   44.8580 C   0  0  0  0  0  0  0  0  0  0  0  0
   58.3620   28.1350   44.7880 C   0  0  0  0  0  0  0  0  0  0  0  0
   57.3880   28.9520   45.4350 O   0  0  0  0  0  0  0  0  0  0  0  0
   56.5000   29.7870   44.7460 C   0  0  0  0  0  0  0  0  0  0  0  0
   55.2550   29.6320   44.8690 O   0  0  0  0  0  0  0  0  0  0  0  0
   57.0400   30.8650   43.8940 C   0  0  0  0  0  0  0  0  0  0  0  0
   57.0220   30.8390   42.5110 C   0  0  0  0  0  0  0  0  0  0  0  0
   57.6720   31.9790   42.0860 C   0  0  0  0  0  0  0  0  0  0  0  0
   58.0610   32.6600   43.2210 C   0  0  0  0  0  0  0  0  0  0  0  0
   57.6800   31.9790   44.3220 N   0  0  0  0  0  0  0  0  0  0  0  0
   57.8340   32.4520   45.6700 C   0  0  0  0  0  0  0  0  0  0  0  0
   56.9660   33.2310   46.1520 O   0  0  0  0  0  0  0  0  0  0  0  0
   59.0100   32.0710   46.4880 C   0  0  0  0  0  0  0  0  0  0  0  0
   58.9560   30.9450   47.3300 C   0  0  0  0  0  0  0  0  0  0  0  0
   60.0660   30.5800   48.0970 C   0  0  0  0  0  0  0  0  0  0  0  0
   61.2430   31.3290   48.0280 C   0  0  0  0  0  0  0  0  0  0  0  0
   61.3140   32.4430   47.1870 C   0  0  0  0  0  0  0  0  0  0  0  0
   62.9290   33.4590   47.0840 Br  0  0  0  0  0  0  0  0  0  0  0  0
   60.2050   32.8120   46.4170 C   0  0  0  0  0  0  0  0  0  0  0  0
   60.0284   28.9174   45.9108 H   0  0  0  0  0  0  0  0  0  0  0  0
   60.4748   28.1348   44.3568 H   0  0  0  0  0  0  0  0  0  0  0  0
   59.7114   29.7608   44.3568 H   0  0  0  0  0  0  0  0  0  0  0  0
   58.0787   28.0019   43.7335 H   0  0  0  0  0  0  0  0  0  0  0  0
   58.4021   27.1613   45.2982 H   0  0  0  0  0  0  0  0  0  0  0  0
   56.5761   30.0607   41.8742 H   0  0  0  0  0  0  0  0  0  0  0  0
   57.8464   32.2857   41.0441 H   0  0  0  0  0  0  0  0  0  0  0  0
   58.6023   33.6176   43.2276 H   0  0  0  0  0  0  0  0  0  0  0  0
   58.0338   30.3478   47.3850 H   0  0  0  0  0  0  0  0  0  0  0  0
   60.0126   29.7011   48.7563 H   0  0  0  0  0  0  0  0  0  0  0  0
   62.1140   31.0421   48.6355 H   0  0  0  0  0  0  0  0  0  0  0  0
   60.2675   33.6863   45.7523 H   0  0  0  0  0  0  0  0  0  0  0  0
  1  2  1  0
  2  3  1  0
  3  4  1  0
  4  5  2  0
  4  6  1  0
  6  7  2  0
  7  8  1  0
  8  9  2  0
  9 10  1  0
 10 11  1  0
 11 12  2  0
 11 13  1  0
 13 14  2  0
 14 15  1  0
 15 16  2  0
 16 17  1  0
 17 18  1  0
 17 19  2  0
 10  6  1  0
 19 13  1  0
  1 20  1  0
  1 21  1  0
  1 22  1  0
  2 23  1  0
  2 24  1  0
  7 25  1  0
  8 26  1  0
  9 27  1  0
 14 28  1  0
 15 29  1  0
 16 30  1  0
 19 31  1  0
M  END
>  <UniqueID>  (18) 
17

>  <SMILES>  (18) 
CCOC(=O)c1cccn1C(=O)c1cccc(Br)c1

>  <Energy>  (18) 
60.26287726438926

>  <Genealogy>  (18) 
CCOC(=O)c1cccn1C(=O)c1cccc(Br)c1 (3D coordinates assigned)
CCOC(=O)c1cccn1C(=O)c1cccc(Br)c1 (optimized conformer: 60.26287726438926 kcal/mol)

>  <smiles>  (18) 
CCOC(=O)c1cccn1C(=O)c1cccc(Br)c1

>  <score_type>  (18) 
oracle

>  <origin>  (18) 
adg

>  <m_score__min__energy>  (18) 
-7.4800000000000004

>  <m_primary>  (18) 
energy

$$$$
18:0
     RDKit          3D

 37 39  0  0  0  0  0  0  0  0999 V2000
   63.4200   32.7980   47.1470 C   0  0  0  0  0  0  0  0  0  0  0  0
   62.3030   32.6560   48.0180 O   0  0  0  0  0  0  0  0  0  0  0  0
   61.9150   31.4230   48.5530 C   0  0  0  0  0  0  0  0  0  0  0  0
   62.5230   30.9490   49.5530 O   0  0  0  0  0  0  0  0  0  0  0  0
   60.7910   30.6760   47.9450 C   0  0  0  0  0  0  0  0  0  0  0  0
   60.5910   30.6860   46.5530 C   0  0  0  0  0  0  0  0  0  0  0  0
   59.5290   29.9770   45.9850 C   0  0  0  0  0  0  0  0  0  0  0  0
   58.6610   29.2290   46.7970 C   0  0  0  0  0  0  0  0  0  0  0  0
   57.5490   28.5120   46.2460 N   0  0  0  0  0  0  0  0  0  0  0  0
   56.7680   28.8830   45.1010 C   0  0  0  0  0  0  0  0  0  0  0  0
   55.5180   28.9730   45.2210 O   0  0  0  0  0  0  0  0  0  0  0  0
   57.3820   29.0740   43.7440 C   0  0  0  0  0  0  0  0  0  0  0  0
   56.5790   30.4710   42.8910 S   0  0  0  0  0  0  0  0  0  0  0  0
   57.2960   31.6920   43.9840 C   0  0  0  0  0  0  0  0  0  0  0  0
   58.1990   32.6190   43.5680 N   0  0  0  0  0  0  0  0  0  0  0  0
   58.4460   33.2890   44.7060 C   0  0  0  0  0  0  0  0  0  0  0  0
   59.3080   34.3670   44.8960 C   0  0  0  0  0  0  0  0  0  0  0  0
   59.4020   34.9070   46.1940 C   0  0  0  0  0  0  0  0  0  0  0  0
   58.6400   34.3610   47.2530 C   0  0  0  0  0  0  0  0  0  0  0  0
   57.7780   33.2710   47.0240 C   0  0  0  0  0  0  0  0  0  0  0  0
   57.7140   32.7660   45.7290 C   0  0  0  0  0  0  0  0  0  0  0  0
   57.0010   31.7740   45.2700 O   0  0  0  0  0  0  0  0  0  0  0  0
   58.8380   29.2430   48.1840 C   0  0  0  0  0  0  0  0  0  0  0  0
   59.9000   29.9520   48.7560 C   0  0  0  0  0  0  0  0  0  0  0  0
   64.3372   32.9146   47.7430 H   0  0  0  0  0  0  0  0  0  0  0  0
   63.5062   31.9036   46.5125 H   0  0  0  0  0  0  0  0  0  0  0  0
   63.2797   33.6855   46.5125 H   0  0  0  0  0  0  0  0  0  0  0  0
   61.2751   31.2557   45.9069 H   0  0  0  0  0  0  0  0  0  0  0  0
   59.3722   30.0050   44.8966 H   0  0  0  0  0  0  0  0  0  0  0  0
   58.4560   29.2836   43.8558 H   0  0  0  0  0  0  0  0  0  0  0  0
   57.2417   28.1584   43.1508 H   0  0  0  0  0  0  0  0  0  0  0  0
   59.8941   34.7816   44.0626 H   0  0  0  0  0  0  0  0  0  0  0  0
   60.0720   35.7583   46.3848 H   0  0  0  0  0  0  0  0  0  0  0  0
   58.7211   34.7906   48.2624 H   0  0  0  0  0  0  0  0  0  0  0  0
   57.1787   32.8358   47.8373 H   0  0  0  0  0  0  0  0  0  0  0  0
   58.1376   28.6929   48.8297 H   0  0  0  0  0  0  0  0  0  0  0  0
   60.0385   29.9428   49.8472 H   0  0  0  0  0  0  0  0  0  0  0  0
  1  2  1  0
  2  3  1  0
  3  4  2  0
  3  5  1  0
  5  6  2  0
  6  7  1  0
  7  8  2  0
  8  9  1  0
  9 10  1  0
 10 11  2  0
 10 12  1  0
 12 13  1  0
 13 14  1  0
 14 15  2  0
 15 16  1  0
 16 17  2  0
 17 18  1  0
 18 19  2  0
 19 20  1  0
 20 21  2  0
 21 22  1  0
  8 23  1  0
 23 24  2  0
 24  5  1  0
 22 14  1  0
 21 16  1  0
  1 25  1  0
  1 26  1  0
  1 27  1  0
  6 28  1  0
  7 29  1  0
 12 30  1  0
 12 31  1  0
 17 32  1  0
 18 33  1  0
 19 34  1  0
 20 35  1  0
 23 36  1  0
 24 37  1  0
M  CHG  1   9  -1
M  END
>  <UniqueID>  (19) 
18

>  <SMILES>  (19) 
COC(=O)c1ccc([N-]C(=O)CSc2nc3ccccc3o2)cc1

>  <Energy>  (19) 
75.28992618443564

>  <Genealogy>  (19) 
COC(=O)c1ccc([N-]C(=O)CSc2nc3ccccc3o2)cc1 (protonated)
COC(=O)c1ccc([N-]C(=O)CSc2nc3ccccc3o2)cc1 (3D coordinates assigned)
COC(=O)c1ccc([N-]C(=O)CSc2nc3ccccc3o2)cc1 (optimized conformer: 75.28992618443564 kcal/mol)

>  <smiles>  (19) 
COC(=O)c1ccc(NC(=O)CSc2nc3ccccc3o2)cc1

>  <score_type>  (19) 
oracle

>  <origin>  (19) 
adg

>  <m_score__min__energy>  (19) 
-9.4900000000000002

>  <m_primary>  (19) 
energy

$$$$
19:0
     RDKit          3D

 48 51  0  0  0  0  0  0  0  0999 V2000
   62.6230   30.2440   51.2660 C   0  0  0  0  0  0  0  0  0  0  0  0
   61.8550   31.0510   50.2970 N   0  0  0  0  0  0  0  0  0  0  0  0
   60.6810   30.3020   49.7920 C   0  0  0  0  0  0  0  0  0  0  0  0
   59.4180   30.7970   50.4530 C   0  0  0  0  0  0  0  0  0  0  0  0
   58.5360   31.7730   49.9770 C   0  0  0  0  0  0  0  0  0  0  0  0
   58.7030   32.6360   48.7920 C   0  0  0  0  0  0  0  0  0  0  0  0
   58.1540   32.2680   47.5530 C   0  0  0  0  0  0  0  0  0  0  0  0
   58.3290   33.0880   46.4330 C   0  0  0  0  0  0  0  0  0  0  0  0
   59.0640   34.2730   46.5410 C   0  0  0  0  0  0  0  0  0  0  0  0
   59.2830   35.3010   45.1370 Cl  0  0  0  0  0  0  0  0  0  0  0  0
   59.6300   34.6340   47.7680 C   0  0  0  0  0  0  0  0  0  0  0  0
   59.4570   33.8160   48.8880 C   0  0  0  0  0  0  0  0  0  0  0  0
   57.4320   31.7920   50.7600 N   0  0  0  0  0  0  0  0  0  0  0  0
   57.6570   30.8480   51.6910 C   0  0  0  0  0  0  0  0  0  0  0  0
   56.8000   30.4730   52.7210 C   0  0  0  0  0  0  0  0  0  0  0  0
   57.1990   29.4670   53.5510 N   0  0  0  0  0  0  0  0  0  0  0  0
   58.4000   28.8340   53.3860 C   0  0  0  0  0  0  0  0  0  0  0  0
   59.2520   29.2200   52.3410 C   0  0  0  0  0  0  0  0  0  0  0  0
   58.8390   30.2300   51.5310 N   0  0  0  0  0  0  0  0  0  0  0  0
   62.7420   31.6060   49.2350 C   0  0  0  0  0  0  0  0  0  0  0  0
   63.0010   33.1160   49.4710 C   0  0  0  0  0  0  0  0  0  0  0  0
   63.7650   33.7530   48.3040 C   0  0  0  0  0  0  0  0  0  0  0  0
   63.0580   33.4960   47.0010 C   0  0  0  0  0  0  0  0  0  0  0  0
   63.3910   34.1070   45.9980 O   0  0  0  0  0  0  0  0  0  0  0  0
   61.9310   32.5010   46.9390 C   0  0  0  0  0  0  0  0  0  0  0  0
   62.2850   31.2640   47.7760 C   0  0  0  0  0  0  0  0  0  0  0  0
   62.3445   30.5366   52.2891 H   0  0  0  0  0  0  0  0  0  0  0  0
   62.3977   29.1779   51.1154 H   0  0  0  0  0  0  0  0  0  0  0  0
   63.6989   30.4162   51.1154 H   0  0  0  0  0  0  0  0  0  0  0  0
   60.6007   30.4443   48.7042 H   0  0  0  0  0  0  0  0  0  0  0  0
   60.8112   29.2348   50.0247 H   0  0  0  0  0  0  0  0  0  0  0  0
   57.5842   31.3314   47.4627 H   0  0  0  0  0  0  0  0  0  0  0  0
   57.8883   32.8006   45.4670 H   0  0  0  0  0  0  0  0  0  0  0  0
   60.2124   35.5634   47.8517 H   0  0  0  0  0  0  0  0  0  0  0  0
   59.9134   34.0980   49.8483 H   0  0  0  0  0  0  0  0  0  0  0  0
   56.5890   32.4000   50.6610 H   0  0  0  0  0  0  0  0  0  0  0  0
   55.8302   30.9727   52.8616 H   0  0  0  0  0  0  0  0  0  0  0  0
   58.6966   28.0253   54.0702 H   0  0  0  0  0  0  0  0  0  0  0  0
   60.2203   28.7228   52.1826 H   0  0  0  0  0  0  0  0  0  0  0  0
   63.7095   31.0903   49.3246 H   0  0  0  0  0  0  0  0  0  0  0  0
   62.0348   33.6291   49.5861 H   0  0  0  0  0  0  0  0  0  0  0  0
   63.6147   33.2195   50.3780 H   0  0  0  0  0  0  0  0  0  0  0  0
   63.8356   34.8384   48.4684 H   0  0  0  0  0  0  0  0  0  0  0  0
   64.7697   33.3079   48.2546 H   0  0  0  0  0  0  0  0  0  0  0  0
   61.0147   32.9615   47.3369 H   0  0  0  0  0  0  0  0  0  0  0  0
   61.7694   32.1990   45.8937 H   0  0  0  0  0  0  0  0  0  0  0  0
   61.3978   30.6161   47.8320 H   0  0  0  0  0  0  0  0  0  0  0  0
   63.1326   30.7692   47.2793 H   0  0  0  0  0  0  0  0  0  0  0  0
  1  2  1  0
  2  3  1  0
  3  4  1  0
  4  5  2  0
  5  6  1  0
  6  7  2  0
  7  8  1  0
  8  9  2  0
  9 10  1  0
  9 11  1  0
 11 12  2  0
  5 13  1  0
 13 14  2  0
 14 15  1  0
 15 16  2  0
 16 17  1  0
 17 18  2  0
 18 19  1  0
  2 20  1  0
 20 21  1  0
 21 22  1  0
 22 23  1  0
 23 24  2  0
 23 25  1  0
 25 26  1  0
 19  4  1  0
 26 20  1  0
 12  6  1  0
 19 14  1  0
  1 27  1  0
  1 28  1  0
  1 29  1  0
  3 30  1  0
  3 31  1  0
  7 32  1  0
  8 33  1  0
 11 34  1  0
 12 35  1  0
 13 36  1  0
 15 37  1  0
 17 38  1  0
 18 39  1  0
 20 40  1  0
 21 41  1  0
 21 42  1  0
 22 43  1  0
 22 44  1  0
 25 45  1  0
 25 46  1  0
 26 47  1  0
 26 48  1  0
M  CHG  1  13   1
M  END
>  <UniqueID>  (20) 
19

>  <SMILES>  (20) 
CN(Cc1c(-c2ccc(Cl)cc2)[nH+]c2cnccn12)C1CCC(=O)CC1

>  <Energy>  (20) 
100.4301605037684

>  <Genealogy>  (20) 
CN(Cc1c(-c2ccc(Cl)cc2)[nH+]c2cnccn12)C1CCC(=O)CC1 (protonated)
CN(Cc1c(-c2ccc(Cl)cc2)[nH+]c2cnccn12)C1CCC(=O)CC1 (3D coordinates assigned)
CN(Cc1c(-c2ccc(Cl)cc2)[nH+]c2cnccn12)C1CCC(=O)CC1 (nonaromatic ring conformer: 100.4301605037684 kcal/mol)

>  <smiles>  (20) 
CN(Cc1c(-c2ccc(Cl)cc2)nc2cnccn12)C1CCC(=O)CC1

>  <score_type>  (20) 
oracle

>  <origin>  (20) 
adg

>  <m_score__min__energy>  (20) 
-6.4900000000000002

>  <m_primary>  (20) 
energy

$$$$
20:0
     RDKit          3D

 51 56  0  0  0  0  0  0  0  0999 V2000
   58.6190   31.8060   50.0880 O   0  0  0  0  0  0  0  0  0  0  0  0
   59.9610   31.3400   49.5970 S   0  0  0  0  0  0  0  0  0  0  0  0
   60.9300   31.3300   50.7460 O   0  0  0  0  0  0  0  0  0  0  0  0
   60.5450   32.4440   48.3340 C   0  0  0  0  0  0  0  0  0  0  0  0
   61.9270   32.6760   48.2240 C   0  0  0  0  0  0  0  0  0  0  0  0
   62.4320   33.5400   47.2530 C   0  0  0  0  0  0  0  0  0  0  0  0
   61.5710   34.1870   46.3710 C   0  0  0  0  0  0  0  0  0  0  0  0
   60.1890   33.9740   46.4530 C   0  0  0  0  0  0  0  0  0  0  0  0
   59.3200   34.6230   45.5650 C   0  0  0  0  0  0  0  0  0  0  0  0
   57.9820   34.4120   45.6420 N   0  0  0  0  0  0  0  0  0  0  0  0
   57.4420   33.5780   46.5670 C   0  0  0  0  0  0  0  0  0  0  0  0
   58.2620   32.9100   47.4790 C   0  0  0  0  0  0  0  0  0  0  0  0
   59.6580   33.0980   47.4360 C   0  0  0  0  0  0  0  0  0  0  0  0
   59.7940   29.6920   49.0110 C   0  0  0  0  0  0  0  0  0  0  0  0
   60.2130   28.5800   49.6580 N   0  0  0  0  0  0  0  0  0  0  0  0
   59.9340   27.5240   48.9000 N   0  0  0  0  0  0  0  0  0  0  0  0
   59.3500   27.9370   47.7860 N   0  0  0  0  0  0  0  0  0  0  0  0
   59.2520   29.2660   47.8250 C   0  0  0  0  0  0  0  0  0  0  0  0
   58.6940   29.9790   46.8200 N   0  0  0  0  0  0  0  0  0  0  0  0
   58.2100   29.3180   45.7280 C   0  0  0  0  0  0  0  0  0  0  0  0
   57.6140   30.0840   44.6730 N   0  0  0  0  0  0  0  0  0  0  0  0
   58.1800   31.3800   44.3020 C   0  0  0  0  0  0  0  0  0  0  0  0
   58.0010   31.5990   42.7970 C   0  0  0  0  0  0  0  0  0  0  0  0
   56.6530   31.3930   42.4140 O   0  0  0  0  0  0  0  0  0  0  0  0
   56.2940   30.0380   42.6200 C   0  0  0  0  0  0  0  0  0  0  0  0
   56.3240   29.6880   44.1100 C   0  0  0  0  0  0  0  0  0  0  0  0
   58.2930   27.8970   45.6570 C   0  0  0  0  0  0  0  0  0  0  0  0
   57.7950   27.1620   44.5670 C   0  0  0  0  0  0  0  0  0  0  0  0
   57.9070   25.7680   44.5490 C   0  0  0  0  0  0  0  0  0  0  0  0
   58.5090   25.0920   45.6150 C   0  0  0  0  0  0  0  0  0  0  0  0
   59.0010   25.8040   46.7110 C   0  0  0  0  0  0  0  0  0  0  0  0
   58.8950   27.2030   46.7390 C   0  0  0  0  0  0  0  0  0  0  0  0
   62.6191   32.1694   48.9128 H   0  0  0  0  0  0  0  0  0  0  0  0
   63.5164   33.7112   47.1836 H   0  0  0  0  0  0  0  0  0  0  0  0
   61.9769   34.8672   45.6078 H   0  0  0  0  0  0  0  0  0  0  0  0
   59.7243   35.3057   44.8031 H   0  0  0  0  0  0  0  0  0  0  0  0
   56.3528   33.4275   46.5984 H   0  0  0  0  0  0  0  0  0  0  0  0
   57.8192   32.2385   48.2293 H   0  0  0  0  0  0  0  0  0  0  0  0
   60.6830   28.5380   50.5880 H   0  0  0  0  0  0  0  0  0  0  0  0
   57.6621   32.1785   44.8536 H   0  0  0  0  0  0  0  0  0  0  0  0
   59.2510   31.3992   44.5521 H   0  0  0  0  0  0  0  0  0  0  0  0
   58.2937   32.6291   42.5455 H   0  0  0  0  0  0  0  0  0  0  0  0
   58.6338   30.8780   42.2588 H   0  0  0  0  0  0  0  0  0  0  0  0
   55.2789   29.8707   42.2307 H   0  0  0  0  0  0  0  0  0  0  0  0
   57.0167   29.3978   42.0929 H   0  0  0  0  0  0  0  0  0  0  0  0
   55.5161   30.2238   44.6298 H   0  0  0  0  0  0  0  0  0  0  0  0
   56.1832   28.6045   44.2371 H   0  0  0  0  0  0  0  0  0  0  0  0
   57.3159   27.6847   43.7260 H   0  0  0  0  0  0  0  0  0  0  0  0
   57.5191   25.1997   43.6908 H   0  0  0  0  0  0  0  0  0  0  0  0
   58.5953   23.9957   45.5901 H   0  0  0  0  0  0  0  0  0  0  0  0
   59.4704   25.2696   47.5501 H   0  0  0  0  0  0  0  0  0  0  0  0
  1  2  2  0
  2  3  2  0
  2  4  1  0
  4  5  2  0
  5  6  1  0
  6  7  2  0
  7  8  1  0
  8  9  2  0
  9 10  1  0
 10 11  2  0
 11 12  1  0
 12 13  2  0
  2 14  1  0
 14 15  1  0
 15 16  2  0
 16 17  1  0
 17 18  1  0
 18 19  1  0
 19 20  2  0
 20 21  1  0
 21 22  1  0
 22 23  1  0
 23 24  1  0
 24 25  1  0
 25 26  1  0
 20 27  1  0
 27 28  2  0
 28 29  1  0
 29 30  2  0
 30 31  1  0
 31 32  2  0
 13  4  1  0
 18 14  2  0
 26 21  1  0
 32 27  1  0
 13  8  1  0
 32 17  1  0
  5 33  1  0
  6 34  1  0
  7 35  1  0
  9 36  1  0
 11 37  1  0
 12 38  1  0
 15 39  1  0
 22 40  1  0
 22 41  1  0
 23 42  1  0
 23 43  1  0
 25 44  1  0
 25 45  1  0
 26 46  1  0
 26 47  1  0
 28 48  1  0
 29 49  1  0
 30 50  1  0
 31 51  1  0
M  CHG  1  15   1
M  END
>  <UniqueID>  (21) 
20

>  <SMILES>  (21) 
O=S(=O)(c1cccc2cnccc12)c1[nH+]nn2c1nc(N1CCOCC1)c1ccccc12

>  <Energy>  (21) 
123.96976265126165

>  <Genealogy>  (21) 
O=S(=O)(c1cccc2cnccc12)c1[nH+]nn2c1nc(N1CCOCC1)c1ccccc12 (protonated)
O=S(=O)(c1cccc2cnccc12)c1[nH+]nn2c1nc(N1CCOCC1)c1ccccc12 (3D coordinates assigned)
O=S(=O)(c1cccc2cnccc12)c1[nH+]nn2c1nc(N1CCOCC1)c1ccccc12 (nonaromatic ring conformer: 123.96976265126165 kcal/mol)

>  <smiles>  (21) 
O=S(=O)(c1cccc2cnccc12)c1nnn2c1nc(N1CCOCC1)c1ccccc12

>  <score_type>  (21) 
oracle

>  <origin>  (21) 
adg

>  <m_score__min__energy>  (21) 
-8.0299999999999994

>  <m_primary>  (21) 
energy

$$$$
21:0
     RDKit          3D

 40 42  0  0  0  0  0  0  0  0999 V2000
   63.3890   34.0410   46.3640 C   0  0  0  0  0  0  0  0  0  0  0  0
   63.6550   32.7460   46.8950 O   0  0  0  0  0  0  0  0  0  0  0  0
   62.8340   32.0720   47.8170 C   0  0  0  0  0  0  0  0  0  0  0  0
   61.5530   31.6120   47.4540 C   0  0  0  0  0  0  0  0  0  0  0  0
   60.7600   30.9440   48.3950 C   0  0  0  0  0  0  0  0  0  0  0  0
   59.4730   30.4580   48.0990 C   0  0  0  0  0  0  0  0  0  0  0  0
   58.9120   30.5930   46.7880 N   0  0  0  0  0  0  0  0  0  0  0  0
   58.3190   31.8770   46.4010 C   0  0  0  0  0  0  0  0  0  0  0  0
   57.6560   31.7780   45.0260 C   0  0  0  0  0  0  0  0  0  0  0  0
   57.0130   30.4600   44.9020 N   0  0  0  0  0  0  0  0  0  0  0  0
   56.1180   30.4320   43.7350 C   0  0  0  0  0  0  0  0  0  0  0  0
   58.0250   29.3850   44.7990 C   0  0  0  0  0  0  0  0  0  0  0  0
   59.2090   29.5760   45.7750 C   0  0  0  0  0  0  0  0  0  0  0  0
   58.7450   29.8520   49.0740 N   0  0  0  0  0  0  0  0  0  0  0  0
   59.2400   29.6920   50.3290 C   0  0  0  0  0  0  0  0  0  0  0  0
   60.4840   30.1420   50.6330 N   0  0  0  0  0  0  0  0  0  0  0  0
   61.2500   30.7610   49.6980 C   0  0  0  0  0  0  0  0  0  0  0  0
   62.5240   31.2270   50.0270 C   0  0  0  0  0  0  0  0  0  0  0  0
   63.2950   31.8630   49.0920 N   0  0  0  0  0  0  0  0  0  0  0  0
   64.6290   32.3480   49.4660 C   0  0  0  0  0  0  0  0  0  0  0  0
   63.2428   34.7529   47.1897 H   0  0  0  0  0  0  0  0  0  0  0  0
   64.2392   34.3657   45.7462 H   0  0  0  0  0  0  0  0  0  0  0  0
   62.4796   34.0043   45.7462 H   0  0  0  0  0  0  0  0  0  0  0  0
   61.1766   31.7772   46.4337 H   0  0  0  0  0  0  0  0  0  0  0  0
   57.5624   32.1638   47.1462 H   0  0  0  0  0  0  0  0  0  0  0  0
   59.1165   32.6332   46.3537 H   0  0  0  0  0  0  0  0  0  0  0  0
   56.8991   32.5695   44.9229 H   0  0  0  0  0  0  0  0  0  0  0  0
   58.4128   31.8998   44.2371 H   0  0  0  0  0  0  0  0  0  0  0  0
   55.0725   30.3993   44.0754 H   0  0  0  0  0  0  0  0  0  0  0  0
   56.2780   31.3356   43.1284 H   0  0  0  0  0  0  0  0  0  0  0  0
   56.3342   29.5402   43.1284 H   0  0  0  0  0  0  0  0  0  0  0  0
   57.5391   28.4234   45.0209 H   0  0  0  0  0  0  0  0  0  0  0  0
   58.4322   29.4125   43.7775 H   0  0  0  0  0  0  0  0  0  0  0  0
   59.4151   28.6198   46.2783 H   0  0  0  0  0  0  0  0  0  0  0  0
   60.0826   29.9104   45.1962 H   0  0  0  0  0  0  0  0  0  0  0  0
   58.6316   29.1969   51.1002 H   0  0  0  0  0  0  0  0  0  0  0  0
   62.9115   31.0819   51.0462 H   0  0  0  0  0  0  0  0  0  0  0  0
   64.7139   32.3789   50.5623 H   0  0  0  0  0  0  0  0  0  0  0  0
   65.3933   31.6702   49.0580 H   0  0  0  0  0  0  0  0  0  0  0  0
   64.7795   33.3584   49.0580 H   0  0  0  0  0  0  0  0  0  0  0  0
  1  2  1  0
  2  3  1  0
  3  4  2  0
  4  5  1  0
  5  6  2  0
  6  7  1  0
  7  8  1  0
  8  9  1  0
  9 10  1  0
 10 11  1  0
 10 12  1  0
 12 13  1  0
  6 14  1  0
 14 15  2  0
 15 16  1  0
 16 17  2  0
 17 18  1  0
 18 19  2  0
 19 20  1  0
 19  3  1  0
 17  5  1  0
 13  7  1  0
  1 21  1  0
  1 22  1  0
  1 23  1  0
  4 24  1  0
  8 25  1  0
  8 26  1  0
  9 27  1  0
  9 28  1  0
 11 29  1  0
 11 30  1  0
 11 31  1  0
 12 32  1  0
 12 33  1  0
 13 34  1  0
 13 35  1  0
 15 36  1  0
 18 37  1  0
 20 38  1  0
 20 39  1  0
 20 40  1  0
M  CHG  1  19   1
M  END
>  <UniqueID>  (22) 
21

>  <SMILES>  (22) 
COc1cc2c(N3CCN(C)CC3)ncnc2c[n+]1C

>  <Energy>  (22) 
55.71469728435574

>  <Genealogy>  (22) 
COc1cc2c(N3CCN(C)CC3)ncnc2c[n+]1C (3D coordinates assigned)
COc1cc2c(N3CCN(C)CC3)ncnc2c[n+]1C (nonaromatic ring conformer: 55.71469728435574 kcal/mol)

>  <smiles>  (22) 
COc1cc2c(N3CCN(C)CC3)ncnc2c[n+]1C

>  <score_type>  (22) 
oracle

>  <origin>  (22) 
adg

>  <m_score__min__energy>  (22) 
-4.3499999999999996

>  <m_primary>  (22) 
energy

$$$$
22:0
     RDKit          3D

 48 50  0  0  0  0  0  0  0  0999 V2000
   58.5150   27.6580   44.0020 C   0  0  0  0  0  0  0  0  0  0  0  0
   58.5510   28.3120   45.3840 C   0  0  0  0  0  0  0  0  0  0  0  0
   59.8890   29.0090   45.6720 C   0  0  0  0  0  0  0  0  0  0  0  0
   60.3990   28.7510   47.0960 C   0  0  0  0  0  0  0  0  0  0  0  0
   60.7660   30.0150   47.7260 N   0  0  0  0  0  0  0  0  0  0  0  0
   60.8370   30.2650   49.0490 C   0  0  0  0  0  0  0  0  0  0  0  0
   61.0200   31.5750   49.2980 N   0  0  0  0  0  0  0  0  0  0  0  0
   61.0460   32.1710   48.0890 C   0  0  0  0  0  0  0  0  0  0  0  0
   61.0950   33.6630   47.8810 C   0  0  0  0  0  0  0  0  0  0  0  0
   59.8970   34.1990   47.1930 N   0  0  0  0  0  0  0  0  0  0  0  0
   58.6060   33.6710   47.6920 C   0  0  0  0  0  0  0  0  0  0  0  0
   58.0510   32.5310   46.8210 C   0  0  0  0  0  0  0  0  0  0  0  0
   58.0650   32.8850   45.3980 N   0  0  0  0  0  0  0  0  0  0  0  0
   57.4630   31.9820   44.4480 C   0  0  0  0  0  0  0  0  0  0  0  0
   57.6760   32.1220   43.0650 C   0  0  0  0  0  0  0  0  0  0  0  0
   57.0760   31.2220   42.1820 C   0  0  0  0  0  0  0  0  0  0  0  0
   56.2670   30.1980   42.6740 C   0  0  0  0  0  0  0  0  0  0  0  0
   56.0620   30.0930   44.0500 C   0  0  0  0  0  0  0  0  0  0  0  0
   56.6530   30.9780   44.8950 N   0  0  0  0  0  0  0  0  0  0  0  0
   58.7180   34.1280   44.9730 C   0  0  0  0  0  0  0  0  0  0  0  0
   60.0460   34.2860   45.7200 C   0  0  0  0  0  0  0  0  0  0  0  0
   60.8950   31.2060   47.1120 C   0  0  0  0  0  0  0  0  0  0  0  0
   58.4549   26.5655   44.1148 H   0  0  0  0  0  0  0  0  0  0  0  0
   57.6353   28.0184   43.4486 H   0  0  0  0  0  0  0  0  0  0  0  0
   59.4289   27.9197   43.4486 H   0  0  0  0  0  0  0  0  0  0  0  0
   57.7451   29.0585   45.4418 H   0  0  0  0  0  0  0  0  0  0  0  0
   58.4212   27.5167   46.1328 H   0  0  0  0  0  0  0  0  0  0  0  0
   60.6391   28.6390   44.9575 H   0  0  0  0  0  0  0  0  0  0  0  0
   59.7273   30.0922   45.5691 H   0  0  0  0  0  0  0  0  0  0  0  0
   59.6070   28.2656   47.6852 H   0  0  0  0  0  0  0  0  0  0  0  0
   61.2823   28.0968   47.0526 H   0  0  0  0  0  0  0  0  0  0  0  0
   60.7554   29.4934   49.8288 H   0  0  0  0  0  0  0  0  0  0  0  0
   61.0750   32.0340   50.2340 H   0  0  0  0  0  0  0  0  0  0  0  0
   61.1802   34.1498   48.8637 H   0  0  0  0  0  0  0  0  0  0  0  0
   61.9617   33.8737   47.2373 H   0  0  0  0  0  0  0  0  0  0  0  0
   58.7528   33.2925   48.7144 H   0  0  0  0  0  0  0  0  0  0  0  0
   57.8778   34.4949   47.6622 H   0  0  0  0  0  0  0  0  0  0  0  0
   58.6683   31.6331   46.9719 H   0  0  0  0  0  0  0  0  0  0  0  0
   57.0088   32.3450   47.1197 H   0  0  0  0  0  0  0  0  0  0  0  0
   58.3106   32.9346   42.6816 H   0  0  0  0  0  0  0  0  0  0  0  0
   57.2413   31.3206   41.0990 H   0  0  0  0  0  0  0  0  0  0  0  0
   55.7960   29.4814   41.9851 H   0  0  0  0  0  0  0  0  0  0  0  0
   55.4217   29.2935   44.4510 H   0  0  0  0  0  0  0  0  0  0  0  0
   58.9081   34.0911   43.8902 H   0  0  0  0  0  0  0  0  0  0  0  0
   58.0643   34.9829   45.2006 H   0  0  0  0  0  0  0  0  0  0  0  0
   60.7307   33.4910   45.3895 H   0  0  0  0  0  0  0  0  0  0  0  0
   60.4367   35.2877   45.4877 H   0  0  0  0  0  0  0  0  0  0  0  0
   60.8824   31.3799   46.0259 H   0  0  0  0  0  0  0  0  0  0  0  0
  1  2  1  0
  2  3  1  0
  3  4  1  0
  4  5  1  0
  5  6  1  0
  6  7  2  0
  7  8  1  0
  8  9  1  0
  9 10  1  0
 10 11  1  0
 11 12  1  0
 12 13  1  0
 13 14  1  0
 14 15  2  0
 15 16  1  0
 16 17  2  0
 17 18  1  0
 18 19  2  0
 13 20  1  0
 20 21  1  0
  8 22  2  0
 22  5  1  0
 21 10  1  0
 19 14  1  0
  1 23  1  0
  1 24  1  0
  1 25  1  0
  2 26  1  0
  2 27  1  0
  3 28  1  0
  3 29  1  0
  4 30  1  0
  4 31  1  0
  6 32  1  0
  7 33  1  0
  9 34  1  0
  9 35  1  0
 11 36  1  0
 11 37  1  0
 12 38  1  0
 12 39  1  0
 15 40  1  0
 16 41  1  0
 17 42  1  0
 18 43  1  0
 20 44  1  0
 20 45  1  0
 21 46  1  0
 21 47  1  0
 22 48  1  0
M  CHG  1   7   1
M  END
>  <UniqueID>  (23) 
22

>  <SMILES>  (23) 
CCCCn1c[nH+]c(CN2CCN(c3ccccn3)CC2)c1

>  <Energy>  (23) 
81.63037665442583

>  <Genealogy>  (23) 
CCCCn1c[nH+]c(CN2CCN(c3ccccn3)CC2)c1 (protonated)
CCCCn1c[nH+]c(CN2CCN(c3ccccn3)CC2)c1 (3D coordinates assigned)
CCCCn1c[nH+]c(CN2CCN(c3ccccn3)CC2)c1 (nonaromatic ring conformer: 81.63037665442583 kcal/mol)

>  <smiles>  (23) 
CCCCn1cnc(CN2CCN(c3ccccn3)CC2)c1

>  <score_type>  (23) 
oracle

>  <origin>  (23) 
adg

>  <m_score__min__energy>  (23) 
-5.7800000000000002

>  <m_primary>  (23) 
energy

$$$$
23:0
     RDKit          3D

 22 23  0  0  0  0  0  0  0  0999 V2000
   57.3900   32.3980   40.7400 C   0  0  0  0  0  0  0  0  0  0  0  0
   57.8040   31.9730   41.9350 C   0  0  0  0  0  0  0  0  0  0  0  0
   56.9850   31.0240   42.7640 C   0  0  0  0  0  0  0  0  0  0  0  0
   57.5650   30.8730   44.1090 N   0  0  0  0  0  0  0  0  0  0  0  0
   57.9750   29.6910   44.6580 C   0  0  0  0  0  0  0  0  0  0  0  0
   57.8710   28.2250   43.9290 S   0  0  0  0  0  0  0  0  0  0  0  0
   58.6200   29.8920   46.2060 S   0  0  0  0  0  0  0  0  0  0  0  0
   58.3750   31.5500   46.1790 C   0  0  0  0  0  0  0  0  0  0  0  0
   58.6830   32.4800   47.1690 C   0  0  0  0  0  0  0  0  0  0  0  0
   58.3960   33.8290   46.9250 C   0  0  0  0  0  0  0  0  0  0  0  0
   57.8140   34.2220   45.7050 C   0  0  0  0  0  0  0  0  0  0  0  0
   57.5110   33.2680   44.7190 C   0  0  0  0  0  0  0  0  0  0  0  0
   57.7980   31.9160   44.9680 C   0  0  0  0  0  0  0  0  0  0  0  0
   58.0127   33.0928   40.1573 H   0  0  0  0  0  0  0  0  0  0  0  0
   56.4260   32.0536   40.3374 H   0  0  0  0  0  0  0  0  0  0  0  0
   58.7704   32.3266   42.3238 H   0  0  0  0  0  0  0  0  0  0  0  0
   55.9609   31.4152   42.8544 H   0  0  0  0  0  0  0  0  0  0  0  0
   56.9763   30.0409   42.2706 H   0  0  0  0  0  0  0  0  0  0  0  0
   59.1399   32.1632   48.1181 H   0  0  0  0  0  0  0  0  0  0  0  0
   58.6265   34.5848   47.6902 H   0  0  0  0  0  0  0  0  0  0  0  0
   57.5947   35.2843   45.5222 H   0  0  0  0  0  0  0  0  0  0  0  0
   57.0557   33.5756   43.7661 H   0  0  0  0  0  0  0  0  0  0  0  0
  1  2  2  0
  2  3  1  0
  3  4  1  0
  4  5  1  0
  5  6  2  0
  5  7  1  0
  7  8  1  0
  8  9  2  0
  9 10  1  0
 10 11  2  0
 11 12  1  0
 12 13  2  0
 13  4  1  0
 13  8  1  0
  1 14  1  0
  1 15  1  0
  2 16  1  0
  3 17  1  0
  3 18  1  0
  9 19  1  0
 10 20  1  0
 11 21  1  0
 12 22  1  0
M  END
>  <UniqueID>  (24) 
23

>  <SMILES>  (24) 
C=CCn1c(=S)sc2ccccc21

>  <Energy>  (24) 
56.735863552892646

>  <Genealogy>  (24) 
C=CCn1c(=S)sc2ccccc21 (3D coordinates assigned)
C=CCn1c(=S)sc2ccccc21 (optimized conformer: 56.735863552892646 kcal/mol)

>  <smiles>  (24) 
C=CCn1c(=S)sc2ccccc21

>  <score_type>  (24) 
oracle

>  <origin>  (24) 
adg

>  <m_score__min__energy>  (24) 
-5.5499999999999998

>  <m_primary>  (24) 
energy

$$$$
24:0
     RDKit          3D

 48 50  0  0  0  0  0  0  0  0999 V2000
   58.5966   27.0930   44.6706 H   0  0  0  0  0  0  0  0  0  0  0  0
   59.0700   28.0850   44.7120 C   0  0  0  0  0  0  0  0  0  0  0  0
   59.6966   28.4307   43.8766 H   0  0  0  0  0  0  0  0  0  0  0  0
   58.8840   28.8700   45.7770 C   0  0  0  0  0  0  0  0  0  0  0  0
   58.2560   28.5168   46.6082 H   0  0  0  0  0  0  0  0  0  0  0  0
   59.5210   30.2290   45.8550 C   0  0  0  0  0  0  0  0  0  0  0  0
   60.3258   30.2054   46.6045 H   0  0  0  0  0  0  0  0  0  0  0  0
   59.9219   30.4828   44.8626 H   0  0  0  0  0  0  0  0  0  0  0  0
   58.5400   31.2560   46.2370 N   0  0  0  0  0  0  0  0  0  0  0  0
   58.7730   32.1550   47.3330 C   0  0  0  0  0  0  0  0  0  0  0  0
   59.0980   31.8010   48.5440 N   0  0  0  0  0  0  0  0  0  0  0  0
   60.3690   31.2460   48.9870 C   0  0  0  0  0  0  0  0  0  0  0  0
   60.3652   31.1452   50.0824 H   0  0  0  0  0  0  0  0  0  0  0  0
   60.5195   30.2555   48.5329 H   0  0  0  0  0  0  0  0  0  0  0  0
   61.4830   32.1710   48.5690 C   0  0  0  0  0  0  0  0  0  0  0  0
   61.7550   33.3780   49.2570 C   0  0  0  0  0  0  0  0  0  0  0  0
   60.9220   33.8340   50.4210 C   0  0  0  0  0  0  0  0  0  0  0  0
   61.4236   33.5594   51.3607 H   0  0  0  0  0  0  0  0  0  0  0  0
   60.7975   34.9261   50.3773 H   0  0  0  0  0  0  0  0  0  0  0  0
   59.9350   33.3504   50.3773 H   0  0  0  0  0  0  0  0  0  0  0  0
   62.7890   34.1650   48.8500 N   0  0  0  0  0  0  0  0  0  0  0  0
   63.5910   33.8260   47.8070 C   0  0  0  0  0  0  0  0  0  0  0  0
   64.4138   34.4917   47.5073 H   0  0  0  0  0  0  0  0  0  0  0  0
   63.3720   32.6360   47.1170 C   0  0  0  0  0  0  0  0  0  0  0  0
   64.0229   32.3538   46.2763 H   0  0  0  0  0  0  0  0  0  0  0  0
   62.3200   31.8060   47.5020 C   0  0  0  0  0  0  0  0  0  0  0  0
   62.1447   30.8607   46.9674 H   0  0  0  0  0  0  0  0  0  0  0  0
   58.5300   33.5220   47.0140 N   0  0  0  0  0  0  0  0  0  0  0  0
   59.5150   34.5630   47.2540 C   0  0  0  0  0  0  0  0  0  0  0  0
   59.1866   35.2230   48.0704 H   0  0  0  0  0  0  0  0  0  0  0  0
   60.4877   34.1455   47.5533 H   0  0  0  0  0  0  0  0  0  0  0  0
   59.6090   35.3410   45.9420 C   0  0  0  0  0  0  0  0  0  0  0  0
   59.0791   36.3012   46.0269 H   0  0  0  0  0  0  0  0  0  0  0  0
   60.6526   35.5698   45.6801 H   0  0  0  0  0  0  0  0  0  0  0  0
   58.9440   34.4570   44.8870 C   0  0  0  0  0  0  0  0  0  0  0  0
   58.3946   35.0696   44.1570 H   0  0  0  0  0  0  0  0  0  0  0  0
   59.6758   33.8709   44.3117 H   0  0  0  0  0  0  0  0  0  0  0  0
   57.9860   33.5720   45.6770 C   0  0  1  0  0  0  0  0  0  0  0  0
   56.9767   33.9914   45.5528 H   0  0  0  0  0  0  0  0  0  0  0  0
   57.9680   32.1350   45.2490 C   0  0  0  0  0  0  0  0  0  0  0  0
   57.4360   31.7520   44.1200 N   0  0  0  0  0  0  0  0  0  0  0  0
   57.5500   32.3690   43.2840 H   0  0  0  0  0  0  0  0  0  0  0  0
   56.6290   30.5800   43.9470 C   0  0  0  0  0  0  0  0  0  0  0  0
   55.8310   30.2140   44.8500 O   0  0  0  0  0  0  0  0  0  0  0  0
   56.6160   29.8760   42.6300 C   0  0  0  0  0  0  0  0  0  0  0  0
   56.5959   28.7887   42.7956 H   0  0  0  0  0  0  0  0  0  0  0  0
   55.7233   30.1769   42.0622 H   0  0  0  0  0  0  0  0  0  0  0  0
   57.5192   30.1438   42.0622 H   0  0  0  0  0  0  0  0  0  0  0  0
  1  2  1  0
  2  3  1  0
  2  4  2  0
  4  5  1  0
  4  6  1  0
  6  7  1  0
  6  8  1  0
  6  9  1  0
  9 10  1  0
 10 11  2  0
 11 12  1  0
 12 13  1  0
 12 14  1  0
 12 15  1  0
 15 16  2  0
 16 17  1  0
 17 18  1  0
 17 19  1  0
 17 20  1  0
 16 21  1  0
 21 22  2  0
 22 23  1  0
 22 24  1  0
 24 25  1  0
 24 26  2  0
 26 27  1  0
 10 28  1  0
 28 29  1  0
 29 30  1  0
 29 31  1  0
 29 32  1  0
 32 33  1  0
 32 34  1  0
 32 35  1  0
 35 36  1  0
 35 37  1  0
 35 38  1  0
 38 39  1  1
 38 40  1  0
 40 41  2  0
 41 42  1  0
 41 43  1  0
 43 44  2  0
 43 45  1  0
 45 46  1  0
 45 47  1  0
 45 48  1  0
 40  9  1  0
 26 15  1  0
 38 28  1  0
M  CHG  1  41   1
M  END
>  <UniqueID>  (25) 
24

>  <SMILES>  (25) 
C=CCN1/C(=N\Cc2cccnc2C)N2CCC[C@H]2/C1=[NH+]/C(C)=O

>  <Energy>  (25) 
80.52575491809274

>  <Genealogy>  (25) 
C=CCN1C(=NCc2cccnc2C)N2CCCC2C1=[NH+]C(C)=O (protonated)
C=CCN1C(=NCc2cccnc2C)N2CCC[C@H]2C1=[NH+]C(C)=O (chirality)
C=CCN1/C(=N\Cc2cccnc2C)N2CCC[C@H]2/C1=[NH+]/C(C)=O (cis-trans isomerization)
C=CCN1/C(=N\Cc2cccnc2C)N2CCC[C@H]2/C1=[NH+]/C(C)=O (3D coordinates assigned)
C=CCN1/C(=N\Cc2cccnc2C)N2CCC[C@H]2/C1=[NH+]/C(C)=O (nonaromatic ring conformer: 80.52575491809274 kcal/mol)

>  <smiles>  (25) 
C=CCN1C(=NC(C)=O)C2CCCN2C1=NCc1cccnc1C

>  <score_type>  (25) 
oracle

>  <origin>  (25) 
adg

>  <m_score__min__energy>  (25) 
-6.6600000000000001

>  <m_primary>  (25) 
energy

$$$$
25:0
     RDKit          3D

 35 37  0  0  0  0  0  0  0  0999 V2000
   55.5990   29.7230   43.4090 C   0  0  0  0  0  0  0  0  0  0  0  0
   55.9330   29.5860   44.7860 O   0  0  0  0  0  0  0  0  0  0  0  0
   57.2290   29.7290   45.3130 C   0  0  0  0  0  0  0  0  0  0  0  0
   57.7670   30.9920   45.6140 C   0  0  0  0  0  0  0  0  0  0  0  0
   59.0630   31.1010   46.1410 C   0  0  0  0  0  0  0  0  0  0  0  0
   59.6180   32.3920   46.4520 N   0  0  0  0  0  0  0  0  0  0  0  0
   60.9150   32.4850   47.1280 C   0  0  0  0  0  0  0  0  0  0  0  0
   61.6070   33.7930   46.7340 C   0  0  0  0  0  0  0  0  0  0  0  0
   60.7520   34.9000   46.9530 O   0  0  0  0  0  0  0  0  0  0  0  0
   59.6300   34.8160   46.0940 C   0  0  0  0  0  0  0  0  0  0  0  0
   58.7740   33.5910   46.4330 C   0  0  0  0  0  0  0  0  0  0  0  0
   59.8010   29.9740   46.3550 N   0  0  0  0  0  0  0  0  0  0  0  0
   59.3130   28.7310   46.0770 C   0  0  0  0  0  0  0  0  0  0  0  0
   60.1020   27.5930   46.3100 C   0  0  0  0  0  0  0  0  0  0  0  0
   59.6050   26.3200   46.0230 C   0  0  0  0  0  0  0  0  0  0  0  0
   58.3180   26.1700   45.5010 C   0  0  0  0  0  0  0  0  0  0  0  0
   57.6480   24.4250   45.1100 Br  0  0  0  0  0  0  0  0  0  0  0  0
   57.5220   27.2940   45.2630 C   0  0  0  0  0  0  0  0  0  0  0  0
   58.0090   28.5820   45.5470 C   0  0  0  0  0  0  0  0  0  0  0  0
   54.5848   30.1390   43.3173 H   0  0  0  0  0  0  0  0  0  0  0  0
   56.3179   30.3989   42.9228 H   0  0  0  0  0  0  0  0  0  0  0  0
   55.6362   28.7370   42.9228 H   0  0  0  0  0  0  0  0  0  0  0  0
   57.1699   31.8985   45.4358 H   0  0  0  0  0  0  0  0  0  0  0  0
   60.7624   32.4652   48.2172 H   0  0  0  0  0  0  0  0  0  0  0  0
   61.5447   31.6341   46.8289 H   0  0  0  0  0  0  0  0  0  0  0  0
   62.5177   33.9155   47.3387 H   0  0  0  0  0  0  0  0  0  0  0  0
   61.8605   33.7495   45.6645 H   0  0  0  0  0  0  0  0  0  0  0  0
   59.0202   35.7244   46.2078 H   0  0  0  0  0  0  0  0  0  0  0  0
   59.9864   34.7206   45.0577 H   0  0  0  0  0  0  0  0  0  0  0  0
   58.3120   33.7293   47.4216 H   0  0  0  0  0  0  0  0  0  0  0  0
   57.9878   33.4727   45.6728 H   0  0  0  0  0  0  0  0  0  0  0  0
   60.7750   30.0710   46.7210 H   0  0  0  0  0  0  0  0  0  0  0  0
   61.1164   27.7049   46.7205 H   0  0  0  0  0  0  0  0  0  0  0  0
   60.2286   25.4330   46.2084 H   0  0  0  0  0  0  0  0  0  0  0  0
   56.5094   27.1703   44.8514 H   0  0  0  0  0  0  0  0  0  0  0  0
  1  2  1  0
  2  3  1  0
  3  4  2  0
  4  5  1  0
  5  6  1  0
  6  7  1  0
  7  8  1  0
  8  9  1  0
  9 10  1  0
 10 11  1  0
  5 12  2  0
 12 13  1  0
 13 14  2  0
 14 15  1  0
 15 16  2  0
 16 17  1  0
 16 18  1  0
 18 19  2  0
 19  3  1  0
 11  6  1  0
 19 13  1  0
  1 20  1  0
  1 21  1  0
  1 22  1  0
  4 23  1  0
  7 24  1  0
  7 25  1  0
  8 26  1  0
  8 27  1  0
 10 28  1  0
 10 29  1  0
 11 30  1  0
 11 31  1  0
 12 32  1  0
 14 33  1  0
 15 34  1  0
 18 35  1  0
M  CHG  1  12   1
M  END
>  <UniqueID>  (26) 
25

>  <SMILES>  (26) 
COc1cc(N2CCOCC2)[nH+]c2ccc(Br)cc12

>  <Energy>  (26) 
44.51170299240799

>  <Genealogy>  (26) 
COc1cc(N2CCOCC2)[nH+]c2ccc(Br)cc12 (protonated)
COc1cc(N2CCOCC2)[nH+]c2ccc(Br)cc12 (3D coordinates assigned)
COc1cc(N2CCOCC2)[nH+]c2ccc(Br)cc12 (nonaromatic ring conformer: 44.51170299240799 kcal/mol)

>  <smiles>  (26) 
COc1cc(N2CCOCC2)nc2ccc(Br)cc12

>  <score_type>  (26) 
oracle

>  <origin>  (26) 
adg

>  <m_score__min__energy>  (26) 
-4.9100000000000001

>  <m_primary>  (26) 
energy

$$$$
26:0
     RDKit          3D

 29 30  0  0  1  0  0  0  0  0999 V2000
   59.6860   35.6640   46.7700 N   0  0  0  0  0  0  0  0  0  0  0  0
   58.4590   33.2940   44.5140 C   0  0  0  0  0  0  0  0  0  0  0  0
   59.4740   33.3750   47.0330 C   0  0  0  0  0  0  0  0  0  0  0  0
   59.0850   32.1610   46.4830 C   0  0  0  0  0  0  0  0  0  0  0  0
   58.5870   32.1470   45.2360 N   0  0  0  0  0  0  0  0  0  0  0  0
   58.1740   30.9030   44.6310 C   0  0  2  0  0  0  0  0  0  0  0  0
   56.6780   30.8490   44.3980 C   0  0  0  0  0  0  0  0  0  0  0  0
   56.4860   29.3490   44.5320 C   0  0  2  0  0  0  0  0  0  0  0  0
   55.1640   29.0080   44.7550 O   0  0  0  0  0  0  0  0  0  0  0  0
   57.3620   29.1400   45.7490 C   0  0  1  0  0  0  0  0  0  0  0  0
   57.6450   27.6790   45.9960 C   0  0  0  0  0  0  0  0  0  0  0  0
   56.5240   26.8850   45.6660 O   0  0  0  0  0  0  0  0  0  0  0  0
   58.5210   29.8410   45.4420 O   0  0  0  0  0  0  0  0  0  0  0  0
   59.3290   34.5120   46.2730 C   0  0  0  0  0  0  0  0  0  0  0  0
   57.9850   33.2110   43.3530 O   0  0  0  0  0  0  0  0  0  0  0  0
   58.8290   34.4730   45.0310 N   0  0  0  0  0  0  0  0  0  0  0  0
   58.9780   36.3350   47.1420 H   0  0  0  0  0  0  0  0  0  0  0  0
   59.8877   33.4261   48.0509 H   0  0  0  0  0  0  0  0  0  0  0  0
   59.1829   31.2283   47.0579 H   0  0  0  0  0  0  0  0  0  0  0  0
   58.6865   30.8383   43.6599 H   0  0  0  0  0  0  0  0  0  0  0  0
   56.1187   31.4088   45.1621 H   0  0  0  0  0  0  0  0  0  0  0  0
   56.3238   31.2947   43.4568 H   0  0  0  0  0  0  0  0  0  0  0  0
   56.7381   28.7419   43.6500 H   0  0  0  0  0  0  0  0  0  0  0  0
   55.1440   28.0270   44.8980 H   0  0  0  0  0  0  0  0  0  0  0  0
   56.8846   29.4906   46.6759 H   0  0  0  0  0  0  0  0  0  0  0  0
   58.5005   27.3685   45.3782 H   0  0  0  0  0  0  0  0  0  0  0  0
   57.8713   27.5407   47.0635 H   0  0  0  0  0  0  0  0  0  0  0  0
   56.2710   27.1080   44.7350 H   0  0  0  0  0  0  0  0  0  0  0  0
   58.7280   35.3480   44.4730 H   0  0  0  0  0  0  0  0  0  0  0  0
  1  2  2  3
  2  3  1  0
  3  4  2  0
  4  5  1  0
  5  6  1  0
  6  7  1  0
  7  8  1  0
  8  9  1  0
  8 10  1  0
 10 11  1  0
 11 12  1  0
 10 13  1  0
  5 14  1  0
 14 15  2  0
 14 16  1  0
 16  2  1  0
 13  6  1  0
  1 17  1  0
  3 18  1  0
  4 19  1  0
  6 20  1  6
  7 21  1  0
  7 22  1  0
  8 23  1  6
  9 24  1  0
 10 25  1  1
 11 26  1  0
 11 27  1  0
 12 28  1  0
 16 29  1  0
M  END
>  <smiles>  (27) 
N=c1ccn(C2CC(O)C(CO)O2)c(=O)[nH]1

>  <score_type>  (27) 
oracle

>  <origin>  (27) 
adg

>  <m_score__min__energy>  (27) 
-6.3799999999999999

>  <m_primary>  (27) 
energy

$$$$
27:0
     RDKit          3D

 47 49  0  0  0  0  0  0  0  0999 V2000
   59.2800   34.9410   47.4490 C   0  0  0  0  0  0  0  0  0  0  0  0
   60.0100   34.2250   48.5810 C   0  0  0  0  0  0  0  0  0  0  0  0
   61.1620   33.4100   48.0450 C   0  0  0  0  0  0  0  0  0  0  0  0
   62.4410   33.9910   47.9820 C   0  0  0  0  0  0  0  0  0  0  0  0
   63.5340   33.2490   47.5350 C   0  0  0  0  0  0  0  0  0  0  0  0
   63.3690   31.9170   47.1640 C   0  0  0  0  0  0  0  0  0  0  0  0
   62.1100   31.3180   47.2370 C   0  0  0  0  0  0  0  0  0  0  0  0
   60.9890   32.0580   47.6660 C   0  0  0  0  0  0  0  0  0  0  0  0
   59.6870   31.4590   47.8070 N   0  0  0  0  0  0  0  0  0  0  0  0
   59.3250   30.0750   47.7470 C   0  0  0  0  0  0  0  0  0  0  0  0
   58.9180   29.4640   48.7720 O   0  0  0  0  0  0  0  0  0  0  0  0
   59.4580   29.3760   46.5060 N   0  0  0  0  0  0  0  0  0  0  0  0
   58.7140   28.1870   46.2040 C   0  0  0  0  0  0  0  0  0  0  0  0
   59.3530   26.9430   46.2980 C   0  0  0  0  0  0  0  0  0  0  0  0
   58.6410   25.7620   46.0710 C   0  0  0  0  0  0  0  0  0  0  0  0
   57.2850   25.8160   45.7450 C   0  0  0  0  0  0  0  0  0  0  0  0
   56.6430   27.0500   45.6190 C   0  0  0  0  0  0  0  0  0  0  0  0
   57.3520   28.2420   45.8100 C   0  0  0  0  0  0  0  0  0  0  0  0
   56.6780   29.4560   45.6060 O   0  0  0  0  0  0  0  0  0  0  0  0
   57.0180   30.4070   44.6300 C   0  0  0  0  0  0  0  0  0  0  0  0
   56.7110   30.2200   43.2710 C   0  0  0  0  0  0  0  0  0  0  0  0
   57.0900   31.1770   42.3270 C   0  0  0  0  0  0  0  0  0  0  0  0
   57.7760   32.3260   42.7280 C   0  0  0  0  0  0  0  0  0  0  0  0
   58.0840   32.5260   44.0820 C   0  0  0  0  0  0  0  0  0  0  0  0
   58.7970   33.7690   44.5230 C   0  0  0  0  0  0  0  0  0  0  0  0
   57.6740   31.5780   45.0310 C   0  0  0  0  0  0  0  0  0  0  0  0
   58.5551   35.6520   47.8721 H   0  0  0  0  0  0  0  0  0  0  0  0
   60.0082   35.4849   46.8293 H   0  0  0  0  0  0  0  0  0  0  0  0
   58.7503   34.2025   46.8293 H   0  0  0  0  0  0  0  0  0  0  0  0
   60.3959   34.9718   49.2905 H   0  0  0  0  0  0  0  0  0  0  0  0
   59.3033   33.5484   49.0839 H   0  0  0  0  0  0  0  0  0  0  0  0
   62.5805   35.0385   48.2875 H   0  0  0  0  0  0  0  0  0  0  0  0
   64.5279   33.7166   47.4754 H   0  0  0  0  0  0  0  0  0  0  0  0
   64.2335   31.3348   46.8123 H   0  0  0  0  0  0  0  0  0  0  0  0
   61.9916   30.2607   46.9577 H   0  0  0  0  0  0  0  0  0  0  0  0
   60.1650   29.7160   45.8170 H   0  0  0  0  0  0  0  0  0  0  0  0
   60.4222   26.8960   46.5522 H   0  0  0  0  0  0  0  0  0  0  0  0
   59.1494   24.7897   46.1493 H   0  0  0  0  0  0  0  0  0  0  0  0
   56.7209   24.8850   45.5870 H   0  0  0  0  0  0  0  0  0  0  0  0
   55.5726   27.0855   45.3679 H   0  0  0  0  0  0  0  0  0  0  0  0
   56.1706   29.3172   42.9501 H   0  0  0  0  0  0  0  0  0  0  0  0
   56.8477   31.0256   41.2648 H   0  0  0  0  0  0  0  0  0  0  0  0
   58.0753   33.0755   41.9805 H   0  0  0  0  0  0  0  0  0  0  0  0
   58.8196   33.8084   45.6221 H   0  0  0  0  0  0  0  0  0  0  0  0
   59.8263   33.7584   44.1352 H   0  0  0  0  0  0  0  0  0  0  0  0
   58.2682   34.6522   44.1352 H   0  0  0  0  0  0  0  0  0  0  0  0
   57.8692   31.7555   46.0989 H   0  0  0  0  0  0  0  0  0  0  0  0
  1  2  1  0
  2  3  1  0
  3  4  2  0
  4  5  1  0
  5  6  2  0
  6  7  1  0
  7  8  2  0
  8  9  1  0
  9 10  1  0
 10 11  2  0
 10 12  1  0
 12 13  1  0
 13 14  2  0
 14 15  1  0
 15 16  2  0
 16 17  1  0
 17 18  2  0
 18 19  1  0
 19 20  1  0
 20 21  2  0
 21 22  1  0
 22 23  2  0
 23 24  1  0
 24 25  1  0
 24 26  2  0
  8  3  1  0
 18 13  1  0
 26 20  1  0
  1 27  1  0
  1 28  1  0
  1 29  1  0
  2 30  1  0
  2 31  1  0
  4 32  1  0
  5 33  1  0
  6 34  1  0
  7 35  1  0
 12 36  1  0
 14 37  1  0
 15 38  1  0
 16 39  1  0
 17 40  1  0
 21 41  1  0
 22 42  1  0
 23 43  1  0
 25 44  1  0
 25 45  1  0
 25 46  1  0
 26 47  1  0
M  CHG  1   9  -1
M  END
>  <UniqueID>  (28) 
26

>  <SMILES>  (28) 
CCc1ccccc1[N-]C(=O)Nc1ccccc1Oc1cccc(C)c1

>  <Energy>  (28) 
57.781674637789365

>  <Genealogy>  (28) 
CCc1ccccc1[N-]C(=O)Nc1ccccc1Oc1cccc(C)c1 (protonated)
CCc1ccccc1[N-]C(=O)Nc1ccccc1Oc1cccc(C)c1 (3D coordinates assigned)
CCc1ccccc1[N-]C(=O)Nc1ccccc1Oc1cccc(C)c1 (optimized conformer: 57.781674637789365 kcal/mol)

>  <smiles>  (28) 
CCc1ccccc1NC(=O)Nc1ccccc1Oc1cccc(C)c1

>  <score_type>  (28) 
oracle

>  <origin>  (28) 
adg

>  <m_score__min__energy>  (28) 
-10.119999999999999

>  <m_primary>  (28) 
energy

$$$$
28:0
     RDKit          3D

 27 29  0  0  0  0  0  0  0  0999 V2000
   60.3440   28.3650   45.0730 C   0  0  0  0  0  0  0  0  0  0  0  0
   58.9130   27.8790   45.2080 C   0  0  0  0  0  0  0  0  0  0  0  0
   57.8300   28.7700   44.9740 C   0  0  0  0  0  0  0  0  0  0  0  0
   56.5140   28.3570   45.2420 C   0  0  0  0  0  0  0  0  0  0  0  0
   56.2480   27.0680   45.6980 C   0  0  0  0  0  0  0  0  0  0  0  0
   54.9320   26.7120   45.9860 O   0  0  0  0  0  0  0  0  0  0  0  0
   57.2890   26.1380   45.8380 C   0  0  0  0  0  0  0  0  0  0  0  0
   57.0090   24.8170   46.2360 C   0  0  0  0  0  0  0  0  0  0  0  0
   58.0320   23.8750   46.3310 C   0  0  0  0  0  0  0  0  0  0  0  0
   59.3400   24.2310   46.0210 C   0  0  0  0  0  0  0  0  0  0  0  0
   59.6410   25.5380   45.6330 C   0  0  0  0  0  0  0  0  0  0  0  0
   58.6290   26.5260   45.5600 C   0  0  0  0  0  0  0  0  0  0  0  0
   55.4530   29.2520   45.0680 O   0  0  0  0  0  0  0  0  0  0  0  0
   55.5590   30.4370   44.2780 C   0  0  0  0  0  0  0  0  0  0  0  0
   56.9700   30.9470   44.2110 C   0  0  0  0  0  0  0  0  0  0  0  0
   58.0150   30.1580   44.4730 C   0  0  0  0  0  0  0  0  0  0  0  0
   60.7772   28.5121   46.0734 H   0  0  0  0  0  0  0  0  0  0  0  0
   60.9350   27.6172   44.5239 H   0  0  0  0  0  0  0  0  0  0  0  0
   60.3573   29.3180   44.5239 H   0  0  0  0  0  0  0  0  0  0  0  0
   55.9752   24.5260   46.4738 H   0  0  0  0  0  0  0  0  0  0  0  0
   57.8041   22.8478   46.6519 H   0  0  0  0  0  0  0  0  0  0  0  0
   60.1411   23.4796   46.0817 H   0  0  0  0  0  0  0  0  0  0  0  0
   60.6781   25.8039   45.3806 H   0  0  0  0  0  0  0  0  0  0  0  0
   55.2132   30.2151   43.2576 H   0  0  0  0  0  0  0  0  0  0  0  0
   54.9398   31.2146   44.7490 H   0  0  0  0  0  0  0  0  0  0  0  0
   57.1473   31.9980   43.9390 H   0  0  0  0  0  0  0  0  0  0  0  0
   59.0334   30.5425   44.3150 H   0  0  0  0  0  0  0  0  0  0  0  0
  1  2  1  0
  2  3  2  0
  3  4  1  0
  4  5  2  0
  5  6  1  0
  5  7  1  0
  7  8  2  0
  8  9  1  0
  9 10  2  0
 10 11  1  0
 11 12  2  0
  4 13  1  0
 13 14  1  0
 14 15  1  0
 15 16  2  0
 12  2  1  0
 16  3  1  0
 12  7  1  0
  1 17  1  0
  1 18  1  0
  1 19  1  0
  8 20  1  0
  9 21  1  0
 10 22  1  0
 11 23  1  0
 14 24  1  0
 14 25  1  0
 15 26  1  0
 16 27  1  0
M  CHG  1   6  -1
M  END
>  <UniqueID>  (29) 
27

>  <SMILES>  (29) 
Cc1c2c(c([O-])c3ccccc13)OCC=C2

>  <Energy>  (29) 
43.51518021836181

>  <Genealogy>  (29) 
Cc1c2c(c([O-])c3ccccc13)OCC=C2 (protonated)
Cc1c2c(c([O-])c3ccccc13)OCC=C2 (3D coordinates assigned)
Cc1c2c(c([O-])c3ccccc13)OCC=C2 (nonaromatic ring conformer: 43.51518021836181 kcal/mol)

>  <smiles>  (29) 
Cc1c2c(c(O)c3ccccc13)OCC=C2

>  <score_type>  (29) 
oracle

>  <origin>  (29) 
adg

>  <m_score__min__energy>  (29) 
-10.65

>  <m_primary>  (29) 
energy

$$$$
29:0
     RDKit          3D

 37 39  0  0  0  0  0  0  0  0999 V2000
   56.4300   29.7000   42.4770 C   0  0  0  0  0  0  0  0  0  0  0  0
   56.9970   30.5880   43.5610 C   0  0  0  0  0  0  0  0  0  0  0  0
   57.6290   31.8230   43.2560 C   0  0  0  0  0  0  0  0  0  0  0  0
   57.7710   32.3090   41.8270 C   0  0  0  0  0  0  0  0  0  0  0  0
   58.1320   32.6110   44.3220 C   0  0  0  0  0  0  0  0  0  0  0  0
   58.7660   33.8550   44.1230 C   0  0  0  0  0  0  0  0  0  0  0  0
   59.2460   34.5920   45.2090 C   0  0  0  0  0  0  0  0  0  0  0  0
   59.1070   34.1020   46.5200 C   0  0  0  0  0  0  0  0  0  0  0  0
   59.5780   34.7990   47.6440 O   0  0  0  0  0  0  0  0  0  0  0  0
   59.9260   34.2080   48.8970 C   0  0  0  0  0  0  0  0  0  0  0  0
   61.3930   33.8730   48.9420 C   0  0  0  0  0  0  0  0  0  0  0  0
   62.0620   33.4340   47.7860 C   0  0  0  0  0  0  0  0  0  0  0  0
   63.4270   33.1340   47.8320 C   0  0  0  0  0  0  0  0  0  0  0  0
   64.1360   33.2790   49.0290 C   0  0  0  0  0  0  0  0  0  0  0  0
   65.4590   32.9880   49.0720 F   0  0  0  0  0  0  0  0  0  0  0  0
   63.4810   33.7280   50.1790 C   0  0  0  0  0  0  0  0  0  0  0  0
   62.1160   34.0280   50.1370 C   0  0  0  0  0  0  0  0  0  0  0  0
   58.4740   32.8740   46.7230 C   0  0  0  0  0  0  0  0  0  0  0  0
   57.9890   32.1290   45.6430 C   0  0  0  0  0  0  0  0  0  0  0  0
   57.3970   30.9670   45.8750 O   0  0  0  0  0  0  0  0  0  0  0  0
   56.9070   30.1980   44.9140 C   0  0  0  0  0  0  0  0  0  0  0  0
   56.3600   29.1090   45.2340 O   0  0  0  0  0  0  0  0  0  0  0  0
   55.8922   28.8578   42.9369 H   0  0  0  0  0  0  0  0  0  0  0  0
   55.7356   30.2814   41.8527 H   0  0  0  0  0  0  0  0  0  0  0  0
   57.2496   29.3147   41.8527 H   0  0  0  0  0  0  0  0  0  0  0  0
   58.0795   33.3649   41.8277 H   0  0  0  0  0  0  0  0  0  0  0  0
   58.5304   31.7055   41.3082 H   0  0  0  0  0  0  0  0  0  0  0  0
   56.8062   32.2093   41.3082 H   0  0  0  0  0  0  0  0  0  0  0  0
   58.8838   34.2491   43.1028 H   0  0  0  0  0  0  0  0  0  0  0  0
   59.7358   35.5618   45.0373 H   0  0  0  0  0  0  0  0  0  0  0  0
   59.6928   34.9155   49.7064 H   0  0  0  0  0  0  0  0  0  0  0  0
   59.3488   33.2798   49.0210 H   0  0  0  0  0  0  0  0  0  0  0  0
   61.5092   33.3260   46.8411 H   0  0  0  0  0  0  0  0  0  0  0  0
   63.9436   32.7837   46.9262 H   0  0  0  0  0  0  0  0  0  0  0  0
   64.0403   33.8456   51.1189 H   0  0  0  0  0  0  0  0  0  0  0  0
   61.6059   34.3868   51.0431 H   0  0  0  0  0  0  0  0  0  0  0  0
   58.3552   32.4873   47.7459 H   0  0  0  0  0  0  0  0  0  0  0  0
  1  2  1  0
  2  3  2  0
  3  4  1  0
  3  5  1  0
  5  6  2  0
  6  7  1  0
  7  8  2  0
  8  9  1  0
  9 10  1  0
 10 11  1  0
 11 12  2  0
 12 13  1  0
 13 14  2  0
 14 15  1  0
 14 16  1  0
 16 17  2  0
  8 18  1  0
 18 19  2  0
 19 20  1  0
 20 21  1  0
 21 22  2  0
 21  2  1  0
 19  5  1  0
 17 11  1  0
  1 23  1  0
  1 24  1  0
  1 25  1  0
  4 26  1  0
  4 27  1  0
  4 28  1  0
  6 29  1  0
  7 30  1  0
 10 31  1  0
 10 32  1  0
 12 33  1  0
 13 34  1  0
 16 35  1  0
 17 36  1  0
 18 37  1  0
M  END
>  <UniqueID>  (30) 
28

>  <SMILES>  (30) 
Cc1c(C)c2ccc(OCc3ccc(F)cc3)cc2oc1=O

>  <Energy>  (30) 
48.678967126016886

>  <Genealogy>  (30) 
Cc1c(C)c2ccc(OCc3ccc(F)cc3)cc2oc1=O (3D coordinates assigned)
Cc1c(C)c2ccc(OCc3ccc(F)cc3)cc2oc1=O (optimized conformer: 48.678967126016886 kcal/mol)

>  <smiles>  (30) 
Cc1c(C)c2ccc(OCc3ccc(F)cc3)cc2oc1=O

>  <score_type>  (30) 
oracle

>  <origin>  (30) 
adg

>  <m_score__min__energy>  (30) 
-8.3200000000000003

>  <m_primary>  (30) 
energy

$$$$
30:0
     RDKit          3D

 42 44  0  0  0  0  0  0  0  0999 V2000
   60.2070   28.9950   45.0620 C   0  0  0  0  0  0  0  0  0  0  0  0
   59.1440   29.7810   45.8220 C   0  0  0  0  0  0  0  0  0  0  0  0
   59.5170   29.9190   47.2340 N   0  0  0  0  0  0  0  0  0  0  0  0
   58.9010   29.2240   48.1790 N   0  0  0  0  0  0  0  0  0  0  0  0
   59.4470   29.5460   49.3640 C   0  0  0  0  0  0  0  0  0  0  0  0
   60.4460   30.4730   49.1730 C   0  0  0  0  0  0  0  0  0  0  0  0
   60.4730   30.7000   47.8080 C   0  0  0  0  0  0  0  0  0  0  0  0
   61.4900   31.6140   47.1360 C   0  0  2  0  0  0  0  0  0  0  0  0
   62.9680   31.2740   47.4920 C   0  0  0  0  0  0  0  0  0  0  0  0
   63.7720   32.4640   47.8040 N   0  0  0  0  0  0  0  0  0  0  0  0
   63.6670   33.4800   46.7470 C   0  0  0  0  0  0  0  0  0  0  0  0
   62.2170   33.9680   46.5130 C   0  0  0  0  0  0  0  0  0  0  0  0
   61.1350   33.1400   47.2500 C   0  0  2  0  0  0  0  0  0  0  0  0
   61.1610   33.5340   48.6040 O   0  0  0  0  0  0  0  0  0  0  0  0
   59.7650   33.4800   46.6190 C   0  0  0  0  0  0  0  0  0  0  0  0
   58.5560   33.1340   47.2670 C   0  0  0  0  0  0  0  0  0  0  0  0
   57.3190   33.4650   46.7070 C   0  0  0  0  0  0  0  0  0  0  0  0
   57.2600   34.1710   45.5070 C   0  0  0  0  0  0  0  0  0  0  0  0
   58.4360   34.5680   44.8740 C   0  0  0  0  0  0  0  0  0  0  0  0
   59.6780   34.2410   45.4290 C   0  0  0  0  0  0  0  0  0  0  0  0
   60.8782   28.4987   45.7784 H   0  0  0  0  0  0  0  0  0  0  0  0
   59.7208   28.2375   44.4297 H   0  0  0  0  0  0  0  0  0  0  0  0
   60.7888   29.6818   44.4297 H   0  0  0  0  0  0  0  0  0  0  0  0
   59.0446   30.7810   45.3747 H   0  0  0  0  0  0  0  0  0  0  0  0
   58.1885   29.2397   45.7582 H   0  0  0  0  0  0  0  0  0  0  0  0
   59.1423   29.1324   50.3367 H   0  0  0  0  0  0  0  0  0  0  0  0
   61.0854   30.9343   49.9401 H   0  0  0  0  0  0  0  0  0  0  0  0
   61.4100   31.3921   46.0616 H   0  0  0  0  0  0  0  0  0  0  0  0
   62.9734   30.6080   48.3674 H   0  0  0  0  0  0  0  0  0  0  0  0
   63.4173   30.7956   46.6092 H   0  0  0  0  0  0  0  0  0  0  0  0
   64.7750   32.1730   47.8790 H   0  0  0  0  0  0  0  0  0  0  0  0
   63.5000   32.8690   48.7280 H   0  0  0  0  0  0  0  0  0  0  0  0
   64.2855   34.3444   47.0302 H   0  0  0  0  0  0  0  0  0  0  0  0
   64.0107   33.0152   45.8112 H   0  0  0  0  0  0  0  0  0  0  0  0
   62.1454   35.0105   46.8566 H   0  0  0  0  0  0  0  0  0  0  0  0
   62.0184   33.8558   45.4369 H   0  0  0  0  0  0  0  0  0  0  0  0
   60.4950   34.2590   48.7290 H   0  0  0  0  0  0  0  0  0  0  0  0
   58.5900   32.5963   48.2260 H   0  0  0  0  0  0  0  0  0  0  0  0
   56.3897   33.1675   47.2148 H   0  0  0  0  0  0  0  0  0  0  0  0
   56.2851   34.4148   45.0596 H   0  0  0  0  0  0  0  0  0  0  0  0
   58.3879   35.1399   43.9356 H   0  0  0  0  0  0  0  0  0  0  0  0
   60.5997   34.5801   44.9335 H   0  0  0  0  0  0  0  0  0  0  0  0
  1  2  1  0
  2  3  1  0
  3  4  1  0
  4  5  2  0
  5  6  1  0
  6  7  2  0
  7  8  1  0
  8  9  1  0
  9 10  1  0
 10 11  1  0
 11 12  1  0
 12 13  1  0
 13 14  1  1
 13 15  1  0
 15 16  2  0
 16 17  1  0
 17 18  2  0
 18 19  1  0
 19 20  2  0
  7  3  1  0
 13  8  1  0
 20 15  1  0
  1 21  1  0
  1 22  1  0
  1 23  1  0
  2 24  1  0
  2 25  1  0
  5 26  1  0
  6 27  1  0
  8 28  1  6
  9 29  1  0
  9 30  1  0
 10 31  1  0
 10 32  1  0
 11 33  1  0
 11 34  1  0
 12 35  1  0
 12 36  1  0
 14 37  1  0
 16 38  1  0
 17 39  1  0
 18 40  1  0
 19 41  1  0
 20 42  1  0
M  CHG  1  10   1
M  END
>  <UniqueID>  (31) 
29

>  <SMILES>  (31) 
CCn1nccc1[C@@H]1C[NH2+]CC[C@@]1(O)c1ccccc1

>  <Energy>  (31) 
89.16387261487742

>  <Genealogy>  (31) 
CCn1nccc1C1C[NH2+]CCC1(O)c1ccccc1 (protonated)
CCn1nccc1[C@@H]1C[NH2+]CC[C@@]1(O)c1ccccc1 (chirality)
CCn1nccc1[C@@H]1C[NH2+]CC[C@@]1(O)c1ccccc1 (3D coordinates assigned)
CCn1nccc1[C@@H]1C[NH2+]CC[C@@]1(O)c1ccccc1 (nonaromatic ring conformer: 89.16387261487742 kcal/mol)

>  <smiles>  (31) 
CCn1nccc1C1CNCCC1(O)c1ccccc1

>  <score_type>  (31) 
oracle

>  <origin>  (31) 
adg

>  <m_score__min__energy>  (31) 
-5.0199999999999996

>  <m_primary>  (31) 
energy

$$$$
31:0
     RDKit          3D

 32 33  0  0  0  0  0  0  0  0999 V2000
   55.9824   32.8393   45.2483 H   0  0  0  0  0  0  0  0  0  0  0  0
   57.0330   32.5930   45.0350 C   0  0  0  0  0  0  0  0  0  0  0  0
   57.2670   31.6260   44.1260 C   0  0  0  0  0  0  0  0  0  0  0  0
   56.7300   30.2450   44.2390 C   0  0  0  0  0  0  0  0  0  0  0  0
   55.5090   30.0970   44.5100 O   0  0  0  0  0  0  0  0  0  0  0  0
   57.5570   29.0270   44.0720 C   0  0  0  0  0  0  0  0  0  0  0  0
   57.5654   28.5613   43.0755 H   0  0  0  0  0  0  0  0  0  0  0  0
   58.2970   28.4400   45.0260 C   0  0  0  0  0  0  0  0  0  0  0  0
   58.3411   27.3409   45.0274 H   0  0  0  0  0  0  0  0  0  0  0  0
   59.0560   29.1510   46.0730 C   0  0  0  0  0  0  0  0  0  0  0  0
   58.5290   29.3280   47.3640 C   0  0  0  0  0  0  0  0  0  0  0  0
   57.5366   28.9225   47.6104 H   0  0  0  0  0  0  0  0  0  0  0  0
   59.2590   30.0160   48.3350 C   0  0  0  0  0  0  0  0  0  0  0  0
   58.8493   30.1344   49.3490 H   0  0  0  0  0  0  0  0  0  0  0  0
   60.5110   30.5550   48.0200 C   0  0  0  0  0  0  0  0  0  0  0  0
   61.4300   31.4170   49.2410 Cl  0  0  0  0  0  0  0  0  0  0  0  0
   61.0260   30.4140   46.7270 C   0  0  0  0  0  0  0  0  0  0  0  0
   62.0061   30.8456   46.4757 H   0  0  0  0  0  0  0  0  0  0  0  0
   60.2960   29.7250   45.7540 C   0  0  0  0  0  0  0  0  0  0  0  0
   60.6956   29.6324   44.7334 H   0  0  0  0  0  0  0  0  0  0  0  0
   58.0930   31.9680   42.9170 C   0  0  0  0  0  0  0  0  0  0  0  0
   59.0649   32.3704   43.2388 H   0  0  0  0  0  0  0  0  0  0  0  0
   58.2528   31.0621   42.3139 H   0  0  0  0  0  0  0  0  0  0  0  0
   57.5656   32.7217   42.3139 H   0  0  0  0  0  0  0  0  0  0  0  0
   58.0650   33.3490   45.7680 C   0  0  0  0  0  0  0  0  0  0  0  0
   58.3170   33.2300   47.4260 S   0  0  0  0  0  0  0  0  0  0  0  0
   59.6630   34.2350   47.4860 C   0  0  0  0  0  0  0  0  0  0  0  0
   60.2210   34.5121   48.3926 H   0  0  0  0  0  0  0  0  0  0  0  0
   59.9490   34.6550   46.1940 C   0  0  0  0  0  0  0  0  0  0  0  0
   60.7895   35.3216   45.9506 H   0  0  0  0  0  0  0  0  0  0  0  0
   59.0680   34.1510   45.2300 C   0  0  0  0  0  0  0  0  0  0  0  0
   59.1590   34.3669   44.1552 H   0  0  0  0  0  0  0  0  0  0  0  0
  1  2  1  0
  2  3  2  3
  3  4  1  0
  4  5  2  0
  4  6  1  0
  6  7  1  0
  6  8  2  0
  8  9  1  0
  8 10  1  0
 10 11  2  0
 11 12  1  0
 11 13  1  0
 13 14  1  0
 13 15  2  0
 15 16  1  0
 15 17  1  0
 17 18  1  0
 17 19  2  0
 19 20  1  0
  3 21  1  0
 21 22  1  0
 21 23  1  0
 21 24  1  0
  2 25  1  0
 25 26  1  0
 26 27  1  0
 27 28  1  0
 27 29  2  0
 29 30  1  0
 29 31  1  0
 31 32  1  0
 19 10  1  0
 31 25  2  0
M  END
>  <UniqueID>  (32) 
30

>  <SMILES>  (32) 
CC(=Cc1cccs1)C(=O)/C=C\c1ccc(Cl)cc1

>  <Energy>  (32) 
71.77692983727657

>  <Genealogy>  (32) 
CC(=Cc1cccs1)C(=O)/C=C\c1ccc(Cl)cc1 (cis-trans isomerization)
CC(=Cc1cccs1)C(=O)/C=C\c1ccc(Cl)cc1 (3D coordinates assigned)
CC(=Cc1cccs1)C(=O)/C=C\c1ccc(Cl)cc1 (optimized conformer: 71.77692983727657 kcal/mol)

>  <smiles>  (32) 
CC(=Cc1cccs1)C(=O)C=Cc1ccc(Cl)cc1

>  <score_type>  (32) 
oracle

>  <origin>  (32) 
adg

>  <m_score__min__energy>  (32) 
-7.5700000000000003

>  <m_primary>  (32) 
energy

$$$$
32:0
     RDKit          3D

 45 48  0  0  0  0  0  0  0  0999 V2000
   57.7140   25.1550   46.1150 C   0  0  0  0  0  0  0  0  0  0  0  0
   58.9330   26.0350   45.8780 C   0  0  0  0  0  0  0  0  0  0  0  0
   58.7340   27.3550   46.4850 N   0  0  0  0  0  0  0  0  0  0  0  0
   57.9720   28.3930   46.0350 C   0  0  0  0  0  0  0  0  0  0  0  0
   57.0260   28.3260   44.8670 C   0  0  0  0  0  0  0  0  0  0  0  0
   56.0560   29.4320   44.9250 N   0  0  0  0  0  0  0  0  0  0  0  0
   56.2550   30.4250   43.8560 C   0  0  0  0  0  0  0  0  0  0  0  0
   57.1860   31.5270   44.2980 C   0  0  0  0  0  0  0  0  0  0  0  0
   57.7710   32.3780   43.3490 C   0  0  0  0  0  0  0  0  0  0  0  0
   58.5420   33.4590   43.7730 C   0  0  0  0  0  0  0  0  0  0  0  0
   58.7390   33.6810   45.1390 C   0  0  0  0  0  0  0  0  0  0  0  0
   59.4680   34.7900   45.5940 C   0  0  0  0  0  0  0  0  0  0  0  0
   59.6380   35.0000   46.9650 C   0  0  0  0  0  0  0  0  0  0  0  0
   59.0880   34.1040   47.8870 C   0  0  0  0  0  0  0  0  0  0  0  0
   58.3650   32.9930   47.4430 C   0  0  0  0  0  0  0  0  0  0  0  0
   58.1800   32.7760   46.0690 C   0  0  0  0  0  0  0  0  0  0  0  0
   57.4380   31.7190   45.6280 N   0  0  0  0  0  0  0  0  0  0  0  0
   58.0500   29.4980   46.8230 N   0  0  0  0  0  0  0  0  0  0  0  0
   58.9040   29.1230   47.7920 C   0  0  0  0  0  0  0  0  0  0  0  0
   59.3080   29.8700   48.8960 C   0  0  0  0  0  0  0  0  0  0  0  0
   60.1770   29.2560   49.8180 C   0  0  0  0  0  0  0  0  0  0  0  0
   60.6150   27.9290   49.6130 C   0  0  0  0  0  0  0  0  0  0  0  0
   60.1880   27.2030   48.4870 C   0  0  0  0  0  0  0  0  0  0  0  0
   59.3210   27.8400   47.5950 C   0  0  0  0  0  0  0  0  0  0  0  0
   57.5513   25.0375   47.1965 H   0  0  0  0  0  0  0  0  0  0  0  0
   56.8292   25.6240   45.6599 H   0  0  0  0  0  0  0  0  0  0  0  0
   57.8806   24.1675   45.6599 H   0  0  0  0  0  0  0  0  0  0  0  0
   59.8171   25.5588   46.3270 H   0  0  0  0  0  0  0  0  0  0  0  0
   59.0802   26.1579   44.7948 H   0  0  0  0  0  0  0  0  0  0  0  0
   57.6003   28.3969   43.9315 H   0  0  0  0  0  0  0  0  0  0  0  0
   56.4802   27.3717   44.9055 H   0  0  0  0  0  0  0  0  0  0  0  0
   56.2050   29.9260   45.8360 H   0  0  0  0  0  0  0  0  0  0  0  0
   56.6854   29.9235   42.9766 H   0  0  0  0  0  0  0  0  0  0  0  0
   55.2800   30.8715   43.6109 H   0  0  0  0  0  0  0  0  0  0  0  0
   57.6220   32.1932   42.2749 H   0  0  0  0  0  0  0  0  0  0  0  0
   58.9947   34.1363   43.0339 H   0  0  0  0  0  0  0  0  0  0  0  0
   59.9058   35.4943   44.8714 H   0  0  0  0  0  0  0  0  0  0  0  0
   60.2060   35.8725   47.3199 H   0  0  0  0  0  0  0  0  0  0  0  0
   59.2247   34.2740   48.9652 H   0  0  0  0  0  0  0  0  0  0  0  0
   57.9402   32.2874   48.1722 H   0  0  0  0  0  0  0  0  0  0  0  0
   57.0170   31.0610   46.3230 H   0  0  0  0  0  0  0  0  0  0  0  0
   58.9603   30.9033   49.0424 H   0  0  0  0  0  0  0  0  0  0  0  0
   60.5169   29.8132   50.7034 H   0  0  0  0  0  0  0  0  0  0  0  0
   61.2950   27.4601   50.3394 H   0  0  0  0  0  0  0  0  0  0  0  0
   60.5245   26.1701   48.3143 H   0  0  0  0  0  0  0  0  0  0  0  0
  1  2  1  0
  2  3  1  0
  3  4  1  0
  4  5  1  0
  5  6  1  0
  6  7  1  0
  7  8  1  0
  8  9  2  0
  9 10  1  0
 10 11  2  0
 11 12  1  0
 12 13  2  0
 13 14  1  0
 14 15  2  0
 15 16  1  0
 16 17  2  0
  4 18  2  0
 18 19  1  0
 19 20  2  0
 20 21  1  0
 21 22  2  0
 22 23  1  0
 23 24  2  0
 24  3  1  0
 17  8  1  0
 24 19  1  0
 16 11  1  0
  1 25  1  0
  1 26  1  0
  1 27  1  0
  2 28  1  0
  2 29  1  0
  5 30  1  0
  5 31  1  0
  6 32  1  0
  7 33  1  0
  7 34  1  0
  9 35  1  0
 10 36  1  0
 12 37  1  0
 13 38  1  0
 14 39  1  0
 15 40  1  0
 17 41  1  0
 20 42  1  0
 21 43  1  0
 22 44  1  0
 23 45  1  0
M  CHG  1  17   1
M  END
>  <UniqueID>  (33) 
31

>  <SMILES>  (33) 
CCn1c(CNCc2ccc3ccccc3[nH+]2)nc2ccccc21

>  <Energy>  (33) 
79.83911845798742

>  <Genealogy>  (33) 
CCn1c(CNCc2ccc3ccccc3[nH+]2)nc2ccccc21 (protonated)
CCn1c(CNCc2ccc3ccccc3[nH+]2)nc2ccccc21 (3D coordinates assigned)
CCn1c(CNCc2ccc3ccccc3[nH+]2)nc2ccccc21 (optimized conformer: 79.83911845798742 kcal/mol)

>  <smiles>  (33) 
CCn1c(CNCc2ccc3ccccc3n2)nc2ccccc21

>  <score_type>  (33) 
oracle

>  <origin>  (33) 
adg

>  <m_score__min__energy>  (33) 
-6.4199999999999999

>  <m_primary>  (33) 
energy

$$$$
33:0
     RDKit          3D

 39 41  0  0  0  0  0  0  0  0999 V2000
   56.2710   29.5490   42.6040 C   0  0  0  0  0  0  0  0  0  0  0  0
   56.2310   29.3520   44.0870 C   0  0  0  0  0  0  0  0  0  0  0  0
   55.1480   28.9910   44.6200 O   0  0  0  0  0  0  0  0  0  0  0  0
   57.3770   29.6010   44.9190 N   0  0  0  0  0  0  0  0  0  0  0  0
   58.1230   28.5310   45.5820 C   0  0  0  0  0  0  0  0  0  0  0  0
   59.0940   29.2280   46.5630 C   0  0  0  0  0  0  0  0  0  0  0  0
   58.8650   30.6750   46.3000 C   0  0  0  0  0  0  0  0  0  0  0  0
   59.5390   31.7570   46.8640 C   0  0  0  0  0  0  0  0  0  0  0  0
   59.2200   33.0610   46.4400 C   0  0  0  0  0  0  0  0  0  0  0  0
   60.0660   34.4250   47.1910 S   0  0  0  0  0  0  0  0  0  0  0  0
   60.2390   35.5460   46.2050 O   0  0  0  0  0  0  0  0  0  0  0  0
   59.2470   34.9320   48.3460 O   0  0  0  0  0  0  0  0  0  0  0  0
   61.6640   33.9220   47.7330 C   0  0  0  0  0  0  0  0  0  0  0  0
   62.5970   33.4530   46.7970 C   0  0  0  0  0  0  0  0  0  0  0  0
   63.8650   33.0370   47.2160 C   0  0  0  0  0  0  0  0  0  0  0  0
   64.2060   33.0890   48.5700 C   0  0  0  0  0  0  0  0  0  0  0  0
   63.2800   33.5600   49.5070 C   0  0  0  0  0  0  0  0  0  0  0  0
   62.0120   33.9760   49.0910 C   0  0  0  0  0  0  0  0  0  0  0  0
   58.2420   33.2480   45.4190 C   0  0  0  0  0  0  0  0  0  0  0  0
   57.8620   34.6180   44.9210 C   0  0  0  0  0  0  0  0  0  0  0  0
   57.5780   32.1260   44.8780 C   0  0  0  0  0  0  0  0  0  0  0  0
   57.8900   30.8510   45.3600 C   0  0  0  0  0  0  0  0  0  0  0  0
   56.4853   30.6044   42.3800 H   0  0  0  0  0  0  0  0  0  0  0  0
   57.0587   28.9150   42.1710 H   0  0  0  0  0  0  0  0  0  0  0  0
   55.2984   29.2724   42.1710 H   0  0  0  0  0  0  0  0  0  0  0  0
   57.4358   27.8699   46.1304 H   0  0  0  0  0  0  0  0  0  0  0  0
   58.6652   27.9092   44.8544 H   0  0  0  0  0  0  0  0  0  0  0  0
   58.8513   28.9736   47.6053 H   0  0  0  0  0  0  0  0  0  0  0  0
   60.1417   28.9248   46.4204 H   0  0  0  0  0  0  0  0  0  0  0  0
   60.3106   31.5940   47.6309 H   0  0  0  0  0  0  0  0  0  0  0  0
   62.3309   33.4122   45.7304 H   0  0  0  0  0  0  0  0  0  0  0  0
   64.5941   32.6687   46.4792 H   0  0  0  0  0  0  0  0  0  0  0  0
   65.2025   32.7596   48.8992 H   0  0  0  0  0  0  0  0  0  0  0  0
   63.5501   33.6030   50.5725 H   0  0  0  0  0  0  0  0  0  0  0  0
   61.2858   34.3463   49.8296 H   0  0  0  0  0  0  0  0  0  0  0  0
   57.6779   35.2818   45.7786 H   0  0  0  0  0  0  0  0  0  0  0  0
   58.6808   35.0263   44.3104 H   0  0  0  0  0  0  0  0  0  0  0  0
   56.9499   34.5462   44.3104 H   0  0  0  0  0  0  0  0  0  0  0  0
   56.8243   32.2531   44.0869 H   0  0  0  0  0  0  0  0  0  0  0  0
  1  2  1  0
  2  3  2  0
  2  4  1  0
  4  5  1  0
  5  6  1  0
  6  7  1  0
  7  8  2  0
  8  9  1  0
  9 10  1  0
 10 11  2  0
 10 12  2  0
 10 13  1  0
 13 14  2  0
 14 15  1  0
 15 16  2  0
 16 17  1  0
 17 18  2  0
  9 19  2  0
 19 20  1  0
 19 21  1  0
 21 22  2  0
 22  4  1  0
 22  7  1  0
 18 13  1  0
  1 23  1  0
  1 24  1  0
  1 25  1  0
  5 26  1  0
  5 27  1  0
  6 28  1  0
  6 29  1  0
  8 30  1  0
 14 31  1  0
 15 32  1  0
 16 33  1  0
 17 34  1  0
 18 35  1  0
 20 36  1  0
 20 37  1  0
 20 38  1  0
 21 39  1  0
M  END
>  <UniqueID>  (34) 
32

>  <SMILES>  (34) 
CC(=O)N1CCc2cc(S(=O)(=O)c3ccccc3)c(C)cc21

>  <Energy>  (34) 
60.30845479199732

>  <Genealogy>  (34) 
CC(=O)N1CCc2cc(S(=O)(=O)c3ccccc3)c(C)cc21 (3D coordinates assigned)
CC(=O)N1CCc2cc(S(=O)(=O)c3ccccc3)c(C)cc21 (nonaromatic ring conformer: 60.30845479199732 kcal/mol)

>  <smiles>  (34) 
CC(=O)N1CCc2cc(S(=O)(=O)c3ccccc3)c(C)cc21

>  <score_type>  (34) 
oracle

>  <origin>  (34) 
adg

>  <m_score__min__energy>  (34) 
-8.8800000000000008

>  <m_primary>  (34) 
energy

$$$$
34:0
     RDKit          3D

 30 32  0  0  0  0  0  0  0  0999 V2000
   56.6420   27.4400   45.6320 C   0  0  0  0  0  0  0  0  0  0  0  0
   55.8510   28.5460   45.2120 O   0  0  0  0  0  0  0  0  0  0  0  0
   56.3910   29.6470   44.5400 C   0  0  0  0  0  0  0  0  0  0  0  0
   56.2690   29.7310   43.1510 C   0  0  0  0  0  0  0  0  0  0  0  0
   56.8190   30.8250   42.4800 C   0  0  0  0  0  0  0  0  0  0  0  0
   57.4770   31.8240   43.1990 C   0  0  0  0  0  0  0  0  0  0  0  0
   57.5610   31.7250   44.5970 C   0  0  0  0  0  0  0  0  0  0  0  0
   58.2510   32.7190   45.3700 N   0  0  0  0  0  0  0  0  0  0  0  0
   58.2400   34.0420   45.1100 C   0  0  0  0  0  0  0  0  0  0  0  0
   58.9200   34.6920   46.1170 C   0  0  0  0  0  0  0  0  0  0  0  0
   59.3620   33.7770   46.9980 N   0  0  0  0  0  0  0  0  0  0  0  0
   58.9560   32.5830   46.5210 C   0  0  0  0  0  0  0  0  0  0  0  0
   59.3440   31.3020   47.1480 C   0  0  0  0  0  0  0  0  0  0  0  0
   60.0720   30.3120   46.4690 C   0  0  0  0  0  0  0  0  0  0  0  0
   60.2990   29.1700   47.2230 C   0  0  0  0  0  0  0  0  0  0  0  0
   59.5760   29.3850   48.7240 S   0  0  0  0  0  0  0  0  0  0  0  0
   58.9740   30.9260   48.4380 C   0  0  0  0  0  0  0  0  0  0  0  0
   57.0330   30.6360   45.2230 N   0  0  0  0  0  0  0  0  0  0  0  0
   56.6677   27.4040   46.7311 H   0  0  0  0  0  0  0  0  0  0  0  0
   56.2043   26.5081   45.2448 H   0  0  0  0  0  0  0  0  0  0  0  0
   57.6654   27.5530   45.2448 H   0  0  0  0  0  0  0  0  0  0  0  0
   55.7446   28.9427   42.5911 H   0  0  0  0  0  0  0  0  0  0  0  0
   56.7338   30.8994   41.3858 H   0  0  0  0  0  0  0  0  0  0  0  0
   57.9256   32.6810   42.6752 H   0  0  0  0  0  0  0  0  0  0  0  0
   57.7676   34.5218   44.2402 H   0  0  0  0  0  0  0  0  0  0  0  0
   59.0754   35.7786   46.1884 H   0  0  0  0  0  0  0  0  0  0  0  0
   59.9360   33.9610   47.8510 H   0  0  0  0  0  0  0  0  0  0  0  0
   60.4291   30.4309   45.4354 H   0  0  0  0  0  0  0  0  0  0  0  0
   60.8552   28.2793   46.8953 H   0  0  0  0  0  0  0  0  0  0  0  0
   58.3896   31.5329   49.1453 H   0  0  0  0  0  0  0  0  0  0  0  0
  1  2  1  0
  2  3  1  0
  3  4  2  0
  4  5  1  0
  5  6  2  0
  6  7  1  0
  7  8  1  0
  8  9  1  0
  9 10  2  0
 10 11  1  0
 11 12  2  0
 12 13  1  0
 13 14  1  0
 14 15  2  0
 15 16  1  0
 16 17  1  0
  7 18  2  0
 18  3  1  0
 12  8  1  0
 17 13  2  0
  1 19  1  0
  1 20  1  0
  1 21  1  0
  4 22  1  0
  5 23  1  0
  6 24  1  0
  9 25  1  0
 10 26  1  0
 11 27  1  0
 14 28  1  0
 15 29  1  0
 17 30  1  0
M  CHG  1  11   1
M  END
>  <UniqueID>  (35) 
33

>  <SMILES>  (35) 
COc1cccc(-n2cc[nH+]c2-c2ccsc2)n1

>  <Energy>  (35) 
94.39636074971546

>  <Genealogy>  (35) 
COc1cccc(-n2cc[nH+]c2-c2ccsc2)n1 (protonated)
COc1cccc(-n2cc[nH+]c2-c2ccsc2)n1 (3D coordinates assigned)
COc1cccc(-n2cc[nH+]c2-c2ccsc2)n1 (optimized conformer: 94.39636074971546 kcal/mol)

>  <smiles>  (35) 
COc1cccc(-n2ccnc2-c2ccsc2)n1

>  <score_type>  (35) 
oracle

>  <origin>  (35) 
adg

>  <m_score__min__energy>  (35) 
-5.0599999999999996

>  <m_primary>  (35) 
energy

$$$$
35:0
     RDKit          3D

 59 62  0  0  0  0  0  0  0  0999 V2000
   60.7660   29.3690   45.6120 C   0  0  0  0  0  0  0  0  0  0  0  0
   59.5490   28.4900   45.6180 C   0  0  0  0  0  0  0  0  0  0  0  0
   59.1210   27.8910   44.4220 C   0  0  0  0  0  0  0  0  0  0  0  0
   58.0110   27.0390   44.4170 C   0  0  0  0  0  0  0  0  0  0  0  0
   57.3270   26.7650   45.6020 C   0  0  0  0  0  0  0  0  0  0  0  0
   57.7550   27.3390   46.7980 C   0  0  0  0  0  0  0  0  0  0  0  0
   58.8680   28.1930   46.8180 C   0  0  0  0  0  0  0  0  0  0  0  0
   59.3210   28.7230   48.0720 N   0  0  0  0  0  0  0  0  0  0  0  0
   58.9370   30.1040   48.3900 C   0  0  0  0  0  0  0  0  0  0  0  0
   59.2810   30.4800   49.8390 C   0  0  0  0  0  0  0  0  0  0  0  0
   60.6510   30.0690   50.2120 N   0  0  0  0  0  0  0  0  0  0  0  0
   61.6690   30.7950   49.4070 C   0  0  0  0  0  0  0  0  0  0  0  0
   61.8740   32.2490   49.8550 C   0  0  0  0  0  0  0  0  0  0  0  0
   61.3900   33.1550   48.8030 N   0  0  0  0  0  0  0  0  0  0  0  0
   62.0000   33.1270   47.4990 C   0  0  0  0  0  0  0  0  0  0  0  0
   63.0780   32.4990   47.3110 O   0  0  0  0  0  0  0  0  0  0  0  0
   61.3800   33.8620   46.3440 C   0  0  0  0  0  0  0  0  0  0  0  0
   59.8450   33.9240   46.4810 C   0  0  0  0  0  0  0  0  0  0  0  0
   59.1900   32.5310   46.3450 C   0  0  0  0  0  0  0  0  0  0  0  0
   57.9170   32.7070   45.5100 C   0  0  0  0  0  0  0  0  0  0  0  0
   57.8410   34.1790   45.1220 C   0  0  0  0  0  0  0  0  0  0  0  0
   59.2360   34.7330   45.3270 C   0  0  0  0  0  0  0  0  0  0  0  0
   59.4840   34.5750   47.8410 C   0  0  0  0  0  0  0  0  0  0  0  0
   60.1580   33.8810   48.9930 C   0  0  0  0  0  0  0  0  0  0  0  0
   59.6470   33.9760   50.1420 O   0  0  0  0  0  0  0  0  0  0  0  0
   60.7490   28.5950   50.1160 C   0  0  0  0  0  0  0  0  0  0  0  0
   60.4680   28.0650   48.7000 C   0  0  0  0  0  0  0  0  0  0  0  0
   61.0666   29.5861   46.6476 H   0  0  0  0  0  0  0  0  0  0  0  0
   61.5874   28.8544   45.0920 H   0  0  0  0  0  0  0  0  0  0  0  0
   60.5357   30.3106   45.0920 H   0  0  0  0  0  0  0  0  0  0  0  0
   59.6608   28.0925   43.4850 H   0  0  0  0  0  0  0  0  0  0  0  0
   57.6758   26.5828   43.4739 H   0  0  0  0  0  0  0  0  0  0  0  0
   56.4524   26.0979   45.5924 H   0  0  0  0  0  0  0  0  0  0  0  0
   57.2167   27.1210   47.7322 H   0  0  0  0  0  0  0  0  0  0  0  0
   59.4696   30.7857   47.7106 H   0  0  0  0  0  0  0  0  0  0  0  0
   57.8472   30.1895   48.2673 H   0  0  0  0  0  0  0  0  0  0  0  0
   59.1952   31.5708   49.9519 H   0  0  0  0  0  0  0  0  0  0  0  0
   58.5781   29.9527   50.5008 H   0  0  0  0  0  0  0  0  0  0  0  0
   60.7860   30.3330   51.2190 H   0  0  0  0  0  0  0  0  0  0  0  0
   62.6281   30.2638   49.4960 H   0  0  0  0  0  0  0  0  0  0  0  0
   61.3047   30.8223   48.3694 H   0  0  0  0  0  0  0  0  0  0  0  0
   61.3119   32.4302   50.7830 H   0  0  0  0  0  0  0  0  0  0  0  0
   62.9437   32.4316   50.0348 H   0  0  0  0  0  0  0  0  0  0  0  0
   61.7792   34.8866   46.3150 H   0  0  0  0  0  0  0  0  0  0  0  0
   61.6252   33.3235   45.4167 H   0  0  0  0  0  0  0  0  0  0  0  0
   59.8792   31.8384   45.8396 H   0  0  0  0  0  0  0  0  0  0  0  0
   58.9527   32.1134   47.3346 H   0  0  0  0  0  0  0  0  0  0  0  0
   57.9671   32.0802   44.6075 H   0  0  0  0  0  0  0  0  0  0  0  0
   57.0269   32.4042   46.0811 H   0  0  0  0  0  0  0  0  0  0  0  0
   57.5387   34.2825   44.0694 H   0  0  0  0  0  0  0  0  0  0  0  0
   57.0981   34.7192   45.7273 H   0  0  0  0  0  0  0  0  0  0  0  0
   59.8356   34.6072   44.4134 H   0  0  0  0  0  0  0  0  0  0  0  0
   59.2136   35.8087   45.5558 H   0  0  0  0  0  0  0  0  0  0  0  0
   59.8008   35.6283   47.8261 H   0  0  0  0  0  0  0  0  0  0  0  0
   58.3964   34.4894   47.9813 H   0  0  0  0  0  0  0  0  0  0  0  0
   61.7650   28.2915   50.4087 H   0  0  0  0  0  0  0  0  0  0  0  0
   59.9851   28.1703   50.7839 H   0  0  0  0  0  0  0  0  0  0  0  0
   61.3578   28.2362   48.0763 H   0  0  0  0  0  0  0  0  0  0  0  0
   60.2333   26.9937   48.7848 H   0  0  0  0  0  0  0  0  0  0  0  0
  1  2  1  0
  2  3  2  0
  3  4  1  0
  4  5  2  0
  5  6  1  0
  6  7  2  0
  7  8  1  0
  8  9  1  0
  9 10  1  0
 10 11  1  0
 11 12  1  0
 12 13  1  0
 13 14  1  0
 14 15  1  0
 15 16  2  0
 15 17  1  0
 17 18  1  0
 18 19  1  0
 19 20  1  0
 20 21  1  0
 21 22  1  0
 18 23  1  0
 23 24  1  0
 24 25  2  0
 11 26  1  0
 26 27  1  0
  7  2  1  0
 27  8  1  0
 24 14  1  0
 22 18  1  0
  1 28  1  0
  1 29  1  0
  1 30  1  0
  3 31  1  0
  4 32  1  0
  5 33  1  0
  6 34  1  0
  9 35  1  0
  9 36  1  0
 10 37  1  0
 10 38  1  0
 11 39  1  0
 12 40  1  0
 12 41  1  0
 13 42  1  0
 13 43  1  0
 17 44  1  0
 17 45  1  0
 19 46  1  0
 19 47  1  0
 20 48  1  0
 20 49  1  0
 21 50  1  0
 21 51  1  0
 22 52  1  0
 22 53  1  0
 23 54  1  0
 23 55  1  0
 26 56  1  0
 26 57  1  0
 27 58  1  0
 27 59  1  0
M  CHG  1  11   1
M  END
>  <UniqueID>  (36) 
34

>  <SMILES>  (36) 
Cc1ccccc1N1CC[NH+](CCN2C(=O)CC3(CCCC3)CC2=O)CC1

>  <Energy>  (36) 
70.61157048694074

>  <Genealogy>  (36) 
Cc1ccccc1N1CC[NH+](CCN2C(=O)CC3(CCCC3)CC2=O)CC1 (protonated)
Cc1ccccc1N1CC[NH+](CCN2C(=O)CC3(CCCC3)CC2=O)CC1 (3D coordinates assigned)
Cc1ccccc1N1CC[NH+](CCN2C(=O)CC3(CCCC3)CC2=O)CC1 (nonaromatic ring conformer: 70.61157048694074 kcal/mol)

>  <smiles>  (36) 
Cc1ccccc1N1CCN(CCN2C(=O)CC3(CCCC3)CC2=O)CC1

>  <score_type>  (36) 
oracle

>  <origin>  (36) 
adg

>  <m_score__min__energy>  (36) 
-7.3600000000000003

>  <m_primary>  (36) 
energy

$$$$
36:0
     RDKit          3D

 52 56  0  0  0  0  0  0  0  0999 V2000
   58.4200   28.6750   44.6600 C   0  0  0  0  0  0  0  0  0  0  0  0
   59.7020   29.1940   44.8620 C   0  0  0  0  0  0  0  0  0  0  0  0
   60.3650   28.9750   46.0740 C   0  0  0  0  0  0  0  0  0  0  0  0
   59.7580   28.2160   47.0900 C   0  0  0  0  0  0  0  0  0  0  0  0
   60.4760   27.9580   48.4010 C   0  0  0  0  0  0  0  0  0  0  0  0
   60.0570   28.8550   49.5020 N   0  0  0  0  0  0  0  0  0  0  0  0
   58.8900   29.7130   49.1850 C   0  0  0  0  0  0  0  0  0  0  0  0
   59.2800   31.1920   49.0930 C   0  0  0  0  0  0  0  0  0  0  0  0
   59.8200   31.6730   50.3850 N   0  0  0  0  0  0  0  0  0  0  0  0
   60.5020   32.9700   50.2030 C   0  0  0  0  0  0  0  0  0  0  0  0
   61.9310   32.7700   49.7750 C   0  0  0  0  0  0  0  0  0  0  0  0
   62.9920   32.5760   50.6770 C   0  0  0  0  0  0  0  0  0  0  0  0
   64.4830   32.5860   49.8280 S   0  0  0  0  0  0  0  0  0  0  0  0
   63.6830   32.8120   48.3760 C   0  0  0  0  0  0  0  0  0  0  0  0
   64.1010   33.0330   47.1220 N   0  0  0  0  0  0  0  0  0  0  0  0
   63.0040   33.2450   46.3960 N   0  0  0  0  0  0  0  0  0  0  0  0
   61.9460   33.1430   47.2470 C   0  0  0  0  0  0  0  0  0  0  0  0
   60.5460   33.2800   46.8250 C   0  0  0  0  0  0  0  0  0  0  0  0
   59.8810   32.1940   46.2360 C   0  0  0  0  0  0  0  0  0  0  0  0
   58.5400   32.3160   45.8540 C   0  0  0  0  0  0  0  0  0  0  0  0
   57.8540   33.5140   46.0780 C   0  0  0  0  0  0  0  0  0  0  0  0
   58.5080   34.5910   46.6840 C   0  0  0  0  0  0  0  0  0  0  0  0
   59.8510   34.4770   47.0550 C   0  0  0  0  0  0  0  0  0  0  0  0
   62.3760   32.8770   48.4980 N   0  0  0  0  0  0  0  0  0  0  0  0
   60.6700   30.6700   51.0850 C   0  0  0  0  0  0  0  0  0  0  0  0
   61.1830   29.5670   50.1470 C   0  0  0  0  0  0  0  0  0  0  0  0
   58.4570   27.7200   46.8840 C   0  0  0  0  0  0  0  0  0  0  0  0
   57.7970   27.9430   45.6730 C   0  0  0  0  0  0  0  0  0  0  0  0
   57.9024   28.8430   43.7041 H   0  0  0  0  0  0  0  0  0  0  0  0
   60.1904   29.7757   44.0664 H   0  0  0  0  0  0  0  0  0  0  0  0
   61.3674   29.3992   46.2332 H   0  0  0  0  0  0  0  0  0  0  0  0
   60.2778   26.9198   48.7058 H   0  0  0  0  0  0  0  0  0  0  0  0
   61.5444   28.1495   48.2226 H   0  0  0  0  0  0  0  0  0  0  0  0
   58.4662   29.3958   48.2208 H   0  0  0  0  0  0  0  0  0  0  0  0
   58.1543   29.6029   49.9953 H   0  0  0  0  0  0  0  0  0  0  0  0
   60.0460   31.3155   48.3132 H   0  0  0  0  0  0  0  0  0  0  0  0
   58.3836   31.7790   48.8443 H   0  0  0  0  0  0  0  0  0  0  0  0
   59.9731   33.5500   49.4324 H   0  0  0  0  0  0  0  0  0  0  0  0
   60.4945   33.5087   51.1621 H   0  0  0  0  0  0  0  0  0  0  0  0
   62.8827   32.4386   51.7629 H   0  0  0  0  0  0  0  0  0  0  0  0
   65.0820   33.0670   46.7630 H   0  0  0  0  0  0  0  0  0  0  0  0
   60.4142   31.2455   46.0742 H   0  0  0  0  0  0  0  0  0  0  0  0
   58.0252   31.4689   45.3772 H   0  0  0  0  0  0  0  0  0  0  0  0
   56.8001   33.6089   45.7775 H   0  0  0  0  0  0  0  0  0  0  0  0
   57.9649   35.5295   46.8691 H   0  0  0  0  0  0  0  0  0  0  0  0
   60.3639   35.3273   47.5281 H   0  0  0  0  0  0  0  0  0  0  0  0
   61.5351   31.1880   51.5248 H   0  0  0  0  0  0  0  0  0  0  0  0
   60.0487   30.1883   51.8544 H   0  0  0  0  0  0  0  0  0  0  0  0
   61.8147   30.0209   49.3692 H   0  0  0  0  0  0  0  0  0  0  0  0
   61.7624   28.8437   50.7395 H   0  0  0  0  0  0  0  0  0  0  0  0
   57.9562   27.1526   47.6823 H   0  0  0  0  0  0  0  0  0  0  0  0
   56.7849   27.5413   45.5172 H   0  0  0  0  0  0  0  0  0  0  0  0
  1  2  2  0
  2  3  1  0
  3  4  2  0
  4  5  1  0
  5  6  1  0
  6  7  1  0
  7  8  1  0
  8  9  1  0
  9 10  1  0
 10 11  1  0
 11 12  2  0
 12 13  1  0
 13 14  1  0
 14 15  2  0
 15 16  1  0
 16 17  2  0
 17 18  1  0
 18 19  2  0
 19 20  1  0
 20 21  2  0
 21 22  1  0
 22 23  2  0
 17 24  1  0
  9 25  1  0
 25 26  1  0
  4 27  1  0
 27 28  2  0
 28  1  1  0
 26  6  1  0
 24 11  1  0
 24 14  1  0
 23 18  1  0
  1 29  1  0
  2 30  1  0
  3 31  1  0
  5 32  1  0
  5 33  1  0
  7 34  1  0
  7 35  1  0
  8 36  1  0
  8 37  1  0
 10 38  1  0
 10 39  1  0
 12 40  1  0
 15 41  1  0
 19 42  1  0
 20 43  1  0
 21 44  1  0
 22 45  1  0
 23 46  1  0
 25 47  1  0
 25 48  1  0
 26 49  1  0
 26 50  1  0
 27 51  1  0
 28 52  1  0
M  CHG  1  15   1
M  END
>  <UniqueID>  (37) 
35

>  <SMILES>  (37) 
c1ccc(CN2CCN(Cc3csc4[nH+]nc(-c5ccccc5)n34)CC2)cc1

>  <Energy>  (37) 
162.85226451986586

>  <Genealogy>  (37) 
c1ccc(CN2CCN(Cc3csc4[nH+]nc(-c5ccccc5)n34)CC2)cc1 (protonated)
c1ccc(CN2CCN(Cc3csc4[nH+]nc(-c5ccccc5)n34)CC2)cc1 (3D coordinates assigned)
c1ccc(CN2CCN(Cc3csc4[nH+]nc(-c5ccccc5)n34)CC2)cc1 (nonaromatic ring conformer: 162.85226451986586 kcal/mol)

>  <smiles>  (37) 
c1ccc(CN2CCN(Cc3csc4nnc(-c5ccccc5)n34)CC2)cc1

>  <score_type>  (37) 
oracle

>  <origin>  (37) 
adg

>  <m_score__min__energy>  (37) 
-7.4699999999999998

>  <m_primary>  (37) 
energy

$$$$
37:0
     RDKit          3D

 33 35  0  0  0  0  0  0  0  0999 V2000
   57.3870   31.6110   43.5030 C   0  0  0  0  0  0  0  0  0  0  0  0
   56.8030   31.1150   44.7030 O   0  0  0  0  0  0  0  0  0  0  0  0
   57.3860   30.1340   45.5200 C   0  0  0  0  0  0  0  0  0  0  0  0
   58.3650   30.5310   46.4380 C   0  0  0  0  0  0  0  0  0  0  0  0
   58.9750   29.5930   47.2730 C   0  0  0  0  0  0  0  0  0  0  0  0
   58.6130   28.2470   47.1980 C   0  0  0  0  0  0  0  0  0  0  0  0
   57.6320   27.8260   46.2860 C   0  0  0  0  0  0  0  0  0  0  0  0
   57.2560   26.4390   46.2110 N   0  0  0  0  0  0  0  0  0  0  0  0
   58.0770   25.3670   46.2550 C   0  0  0  0  0  0  0  0  0  0  0  0
   59.4610   25.4460   46.3610 O   0  0  0  0  0  0  0  0  0  0  0  0
   57.3670   24.1860   46.1540 C   0  0  0  0  0  0  0  0  0  0  0  0
   56.0410   24.5610   46.0480 C   0  0  0  0  0  0  0  0  0  0  0  0
   54.6390   23.4590   45.8890 S   0  0  0  0  0  0  0  0  0  0  0  0
   55.3560   22.6000   44.4880 C   0  0  0  0  0  0  0  0  0  0  0  0
   55.4400   23.1170   43.2500 N   0  0  0  0  0  0  0  0  0  0  0  0
   56.0420   22.1800   42.5270 N   0  0  0  0  0  0  0  0  0  0  0  0
   56.3190   21.1290   43.2850 N   0  0  0  0  0  0  0  0  0  0  0  0
   55.8850   21.3660   44.5100 N   0  0  0  0  0  0  0  0  0  0  0  0
   56.0780   20.4770   45.6470 C   0  0  0  0  0  0  0  0  0  0  0  0
   56.0100   25.9390   46.0800 C   0  0  0  0  0  0  0  0  0  0  0  0
   54.8560   26.7130   46.0040 O   0  0  0  0  0  0  0  0  0  0  0  0
   57.0220   28.7760   45.4480 C   0  0  0  0  0  0  0  0  0  0  0  0
   58.2036   32.3046   43.7521 H   0  0  0  0  0  0  0  0  0  0  0  0
   57.7857   30.7713   42.9149 H   0  0  0  0  0  0  0  0  0  0  0  0
   56.6229   32.1404   42.9149 H   0  0  0  0  0  0  0  0  0  0  0  0
   58.6560   31.5899   46.5021 H   0  0  0  0  0  0  0  0  0  0  0  0
   59.7427   29.9155   47.9917 H   0  0  0  0  0  0  0  0  0  0  0  0
   59.0988   27.5123   47.8569 H   0  0  0  0  0  0  0  0  0  0  0  0
   57.7717   23.1632   46.1573 H   0  0  0  0  0  0  0  0  0  0  0  0
   55.9548   21.0445   46.5812 H   0  0  0  0  0  0  0  0  0  0  0  0
   55.3348   19.6669   45.6093 H   0  0  0  0  0  0  0  0  0  0  0  0
   57.0902   20.0480   45.6093 H   0  0  0  0  0  0  0  0  0  0  0  0
   56.2533   28.4552   44.7295 H   0  0  0  0  0  0  0  0  0  0  0  0
  1  2  1  0
  2  3  1  0
  3  4  2  0
  4  5  1  0
  5  6  2  0
  6  7  1  0
  7  8  1  0
  8  9  1  0
  9 10  1  0
  9 11  2  0
 11 12  1  0
 12 13  1  0
 13 14  1  0
 14 15  2  0
 15 16  1  0
 16 17  2  0
 17 18  1  0
 18 19  1  0
 12 20  2  0
 20 21  1  0
  7 22  2  0
 22  3  1  0
 20  8  1  0
 18 14  1  0
  1 23  1  0
  1 24  1  0
  1 25  1  0
  4 26  1  0
  5 27  1  0
  6 28  1  0
 11 29  1  0
 19 30  1  0
 19 31  1  0
 19 32  1  0
 22 33  1  0
M  CHG  2  10  -1  21  -1
M  END
>  <UniqueID>  (38) 
36

>  <SMILES>  (38) 
COc1cccc(-n2c([O-])cc(Sc3nnnn3C)c2[O-])c1

>  <Energy>  (38) 
104.11751671069543

>  <Genealogy>  (38) 
COc1cccc(-n2c([O-])cc(Sc3nnnn3C)c2[O-])c1 (protonated)
COc1cccc(-n2c([O-])cc(Sc3nnnn3C)c2[O-])c1 (3D coordinates assigned)
COc1cccc(-n2c([O-])cc(Sc3nnnn3C)c2[O-])c1 (optimized conformer: 104.11751671069543 kcal/mol)

>  <smiles>  (38) 
COc1cccc(-n2c(O)cc(Sc3nnnn3C)c2O)c1

>  <score_type>  (38) 
oracle

>  <origin>  (38) 
adg

>  <m_score__min__energy>  (38) 
-12.800000000000001

>  <m_primary>  (38) 
energy

$$$$
38:0
     RDKit          3D

 43 44  0  0  0  0  0  0  0  0999 V2000
   61.1620   30.4880   47.0760 C   0  0  0  0  0  0  0  0  0  0  0  0
   59.8900   29.8800   46.5870 C   0  0  0  0  0  0  0  0  0  0  0  0
   58.8300   29.4310   47.3520 C   0  0  0  0  0  0  0  0  0  0  0  0
   57.8280   29.0510   46.5370 N   0  0  0  0  0  0  0  0  0  0  0  0
   58.2280   29.2510   45.2890 N   0  0  0  0  0  0  0  0  0  0  0  0
   57.3900   29.0120   44.1180 C   0  0  0  0  0  0  0  0  0  0  0  0
   56.2580   30.0380   44.0340 C   0  0  0  0  0  0  0  0  0  0  0  0
   56.5700   31.2130   44.8590 N   0  0  0  0  0  0  0  0  0  0  0  0
   57.4050   32.1800   44.1290 C   0  0  0  0  0  0  0  0  0  0  0  0
   57.3550   33.5650   44.7860 C   0  0  0  0  0  0  0  0  0  0  0  0
   58.4490   33.7270   45.8140 C   0  0  0  0  0  0  0  0  0  0  0  0
   59.7400   34.0950   45.4060 C   0  0  0  0  0  0  0  0  0  0  0  0
   60.7700   34.2140   46.3430 C   0  0  0  0  0  0  0  0  0  0  0  0
   60.5330   33.9610   47.6980 C   0  0  0  0  0  0  0  0  0  0  0  0
   61.6000   34.0930   48.5980 O   0  0  0  0  0  0  0  0  0  0  0  0
   62.5060   33.0440   48.9340 C   0  0  0  0  0  0  0  0  0  0  0  0
   63.7050   33.0810   47.9970 C   0  0  0  0  0  0  0  0  0  0  0  0
   63.6860   31.9700   47.1740 F   0  0  0  0  0  0  0  0  0  0  0  0
   64.8770   33.0800   48.7310 F   0  0  0  0  0  0  0  0  0  0  0  0
   63.6580   34.2230   47.2170 F   0  0  0  0  0  0  0  0  0  0  0  0
   59.2410   33.5830   48.1100 C   0  0  0  0  0  0  0  0  0  0  0  0
   58.2070   33.4640   47.1740 C   0  0  0  0  0  0  0  0  0  0  0  0
   56.9730   33.0900   47.5980 F   0  0  0  0  0  0  0  0  0  0  0  0
   59.4700   29.7700   45.2800 C   0  0  0  0  0  0  0  0  0  0  0  0
   61.1679   30.4908   48.1760 H   0  0  0  0  0  0  0  0  0  0  0  0
   62.0152   29.9003   46.7062 H   0  0  0  0  0  0  0  0  0  0  0  0
   61.2405   31.5210   46.7062 H   0  0  0  0  0  0  0  0  0  0  0  0
   58.8085   29.3906   48.4510 H   0  0  0  0  0  0  0  0  0  0  0  0
   58.0093   29.0849   43.2118 H   0  0  0  0  0  0  0  0  0  0  0  0
   56.9474   28.0086   44.2032 H   0  0  0  0  0  0  0  0  0  0  0  0
   56.1311   30.3530   42.9877 H   0  0  0  0  0  0  0  0  0  0  0  0
   55.3305   29.5774   44.4050 H   0  0  0  0  0  0  0  0  0  0  0  0
   57.1230   30.8830   45.6850 H   0  0  0  0  0  0  0  0  0  0  0  0
   58.4455   31.8231   44.1235 H   0  0  0  0  0  0  0  0  0  0  0  0
   57.0190   32.2678   43.1027 H   0  0  0  0  0  0  0  0  0  0  0  0
   57.4771   34.3342   44.0092 H   0  0  0  0  0  0  0  0  0  0  0  0
   56.3848   33.6728   45.2931 H   0  0  0  0  0  0  0  0  0  0  0  0
   59.9425   34.2909   44.3427 H   0  0  0  0  0  0  0  0  0  0  0  0
   61.7765   34.5094   46.0118 H   0  0  0  0  0  0  0  0  0  0  0  0
   62.8484   33.1749   49.9711 H   0  0  0  0  0  0  0  0  0  0  0  0
   61.9948   32.0752   48.8329 H   0  0  0  0  0  0  0  0  0  0  0  0
   59.0430   33.3801   49.1729 H   0  0  0  0  0  0  0  0  0  0  0  0
   60.0467   30.0554   44.3878 H   0  0  0  0  0  0  0  0  0  0  0  0
  1  2  1  0
  2  3  1  0
  3  4  2  0
  4  5  1  0
  5  6  1  0
  6  7  1  0
  7  8  1  0
  8  9  1  0
  9 10  1  0
 10 11  1  0
 11 12  2  0
 12 13  1  0
 13 14  2  0
 14 15  1  0
 15 16  1  0
 16 17  1  0
 17 18  1  0
 17 19  1  0
 17 20  1  0
 14 21  1  0
 21 22  2  0
 22 23  1  0
  5 24  1  0
 24  2  2  0
 22 11  1  0
  1 25  1  0
  1 26  1  0
  1 27  1  0
  3 28  1  0
  6 29  1  0
  6 30  1  0
  7 31  1  0
  7 32  1  0
  8 33  1  0
  9 34  1  0
  9 35  1  0
 10 36  1  0
 10 37  1  0
 12 38  1  0
 13 39  1  0
 16 40  1  0
 16 41  1  0
 21 42  1  0
 24 43  1  0
M  END
>  <UniqueID>  (39) 
37

>  <SMILES>  (39) 
Cc1cnn(CCNCCc2ccc(OCC(F)(F)F)cc2F)c1

>  <Energy>  (39) 
62.10459930234851

>  <Genealogy>  (39) 
Cc1cnn(CCNCCc2ccc(OCC(F)(F)F)cc2F)c1 (3D coordinates assigned)
Cc1cnn(CCNCCc2ccc(OCC(F)(F)F)cc2F)c1 (optimized conformer: 62.10459930234851 kcal/mol)

>  <smiles>  (39) 
Cc1cnn(CCNCCc2ccc(OCC(F)(F)F)cc2F)c1

>  <score_type>  (39) 
oracle

>  <origin>  (39) 
adg

>  <m_score__min__energy>  (39) 
-5.9900000000000002

>  <m_primary>  (39) 
energy

$$$$
39:0
     RDKit          3D

 37 39  0  0  0  0  0  0  0  0999 V2000
   59.1250   34.9960   45.2520 C   0  0  0  0  0  0  0  0  0  0  0  0
   57.9670   34.2480   45.6070 O   0  0  0  0  0  0  0  0  0  0  0  0
   57.8720   32.8490   45.5410 C   0  0  0  0  0  0  0  0  0  0  0  0
   57.3950   32.1860   44.3960 C   0  0  0  0  0  0  0  0  0  0  0  0
   57.3130   30.7930   44.3650 C   0  0  0  0  0  0  0  0  0  0  0  0
   57.7060   30.0310   45.4770 C   0  0  0  0  0  0  0  0  0  0  0  0
   57.6280   28.5520   45.4680 C   0  0  0  0  0  0  0  0  0  0  0  0
   58.6940   27.6600   45.3080 C   0  0  0  0  0  0  0  0  0  0  0  0
   58.1130   26.4150   45.3720 C   0  0  0  0  0  0  0  0  0  0  0  0
   58.6730   25.1450   45.2760 C   0  0  0  0  0  0  0  0  0  0  0  0
   57.8100   24.0380   45.3820 C   0  0  0  0  0  0  0  0  0  0  0  0
   58.5180   22.2700   45.2590 Br  0  0  0  0  0  0  0  0  0  0  0  0
   56.4220   24.2300   45.5800 C   0  0  0  0  0  0  0  0  0  0  0  0
   55.8830   25.5370   45.6730 C   0  0  0  0  0  0  0  0  0  0  0  0
   54.5180   25.7920   45.8670 O   0  0  0  0  0  0  0  0  0  0  0  0
   53.4860   24.8430   45.6210 C   0  0  0  0  0  0  0  0  0  0  0  0
   56.7710   26.6050   45.5620 C   0  0  0  0  0  0  0  0  0  0  0  0
   56.4960   27.8840   45.6180 O   0  0  0  0  0  0  0  0  0  0  0  0
   58.1820   30.6940   46.6220 C   0  0  0  0  0  0  0  0  0  0  0  0
   58.2670   32.0990   46.6590 C   0  0  0  0  0  0  0  0  0  0  0  0
   58.7390   32.7880   47.7880 O   0  0  0  0  0  0  0  0  0  0  0  0
   60.0710   33.2680   47.9440 C   0  0  0  0  0  0  0  0  0  0  0  0
   59.6405   35.3290   46.1649 H   0  0  0  0  0  0  0  0  0  0  0  0
   59.8020   34.3641   44.6584 H   0  0  0  0  0  0  0  0  0  0  0  0
   58.8273   35.8729   44.6584 H   0  0  0  0  0  0  0  0  0  0  0  0
   57.0839   32.7703   43.5174 H   0  0  0  0  0  0  0  0  0  0  0  0
   56.9376   30.2883   43.4626 H   0  0  0  0  0  0  0  0  0  0  0  0
   59.7576   27.9004   45.1635 H   0  0  0  0  0  0  0  0  0  0  0  0
   59.7539   25.0105   45.1224 H   0  0  0  0  0  0  0  0  0  0  0  0
   55.7566   23.3580   45.6623 H   0  0  0  0  0  0  0  0  0  0  0  0
   53.0882   24.4772   46.5791 H   0  0  0  0  0  0  0  0  0  0  0  0
   52.6782   25.3203   45.0469 H   0  0  0  0  0  0  0  0  0  0  0  0
   53.8941   23.9981   45.0469 H   0  0  0  0  0  0  0  0  0  0  0  0
   58.4918   30.1078   47.4997 H   0  0  0  0  0  0  0  0  0  0  0  0
   60.3070   33.3531   49.0150 H   0  0  0  0  0  0  0  0  0  0  0  0
   60.7718   32.5659   47.4687 H   0  0  0  0  0  0  0  0  0  0  0  0
   60.1628   34.2558   47.4687 H   0  0  0  0  0  0  0  0  0  0  0  0
  1  2  1  0
  2  3  1  0
  3  4  2  0
  4  5  1  0
  5  6  2  0
  6  7  1  0
  7  8  2  0
  8  9  1  0
  9 10  2  0
 10 11  1  0
 11 12  1  0
 11 13  2  0
 13 14  1  0
 14 15  1  0
 15 16  1  0
 14 17  2  0
 17 18  1  0
  6 19  1  0
 19 20  2  0
 20 21  1  0
 21 22  1  0
 20  3  1  0
 18  7  1  0
 17  9  1  0
  1 23  1  0
  1 24  1  0
  1 25  1  0
  4 26  1  0
  5 27  1  0
  8 28  1  0
 10 29  1  0
 13 30  1  0
 16 31  1  0
 16 32  1  0
 16 33  1  0
 19 34  1  0
 22 35  1  0
 22 36  1  0
 22 37  1  0
M  END
>  <UniqueID>  (40) 
38

>  <SMILES>  (40) 
COc1ccc(-c2cc3cc(Br)cc(OC)c3o2)cc1OC

>  <Energy>  (40) 
71.82955917770698

>  <Genealogy>  (40) 
COc1ccc(-c2cc3cc(Br)cc(OC)c3o2)cc1OC (3D coordinates assigned)
COc1ccc(-c2cc3cc(Br)cc(OC)c3o2)cc1OC (optimized conformer: 71.82955917770698 kcal/mol)

>  <smiles>  (40) 
COc1ccc(-c2cc3cc(Br)cc(OC)c3o2)cc1OC

>  <score_type>  (40) 
oracle

>  <origin>  (40) 
adg

>  <m_score__min__energy>  (40) 
-6.5999999999999996

>  <m_primary>  (40) 
energy

$$$$
40:0
     RDKit          3D

 46 47  0  0  0  0  0  0  0  0999 V2000
   63.3370   32.2690   47.2080 C   0  0  0  0  0  0  0  0  0  0  0  0
   63.1430   33.7480   47.5210 C   0  0  0  0  0  0  0  0  0  0  0  0
   61.8400   33.9740   48.1600 N   0  0  0  0  0  0  0  0  0  0  0  0
   61.7380   34.2230   49.6040 C   0  0  0  0  0  0  0  0  0  0  0  0
   63.0890   34.0240   50.2860 C   0  0  0  0  0  0  0  0  0  0  0  0
   60.6420   33.7430   47.4040 C   0  0  0  0  0  0  0  0  0  0  0  0
   59.5320   33.1430   48.0140 C   0  0  0  0  0  0  0  0  0  0  0  0
   58.3570   32.9300   47.2850 C   0  0  0  0  0  0  0  0  0  0  0  0
   58.2840   33.3100   45.9340 C   0  0  0  0  0  0  0  0  0  0  0  0
   57.0020   33.1350   45.1700 C   0  0  0  0  0  0  0  0  0  0  0  0
   56.6530   31.7100   45.1340 N   0  0  0  0  0  0  0  0  0  0  0  0
   57.1520   31.0220   43.9330 C   0  0  0  0  0  0  0  0  0  0  0  0
   57.7630   29.6350   44.2270 C   0  0  0  0  0  0  0  0  0  0  0  0
   58.6250   29.6170   45.4610 C   0  0  0  0  0  0  0  0  0  0  0  0
   60.0230   29.7140   45.3650 C   0  0  0  0  0  0  0  0  0  0  0  0
   60.7930   29.6870   46.5310 C   0  0  0  0  0  0  0  0  0  0  0  0
   60.1690   29.5490   47.7740 C   0  0  0  0  0  0  0  0  0  0  0  0
   58.7790   29.4390   47.8310 C   0  0  0  0  0  0  0  0  0  0  0  0
   58.0440   29.4720   46.6860 N   0  0  0  0  0  0  0  0  0  0  0  0
   59.3930   33.9220   45.3300 C   0  0  0  0  0  0  0  0  0  0  0  0
   60.5690   34.1290   46.0590 C   0  0  0  0  0  0  0  0  0  0  0  0
   63.4114   31.7020   48.1477 H   0  0  0  0  0  0  0  0  0  0  0  0
   62.4793   31.9020   46.6252 H   0  0  0  0  0  0  0  0  0  0  0  0
   64.2603   32.1356   46.6252 H   0  0  0  0  0  0  0  0  0  0  0  0
   63.9415   34.0817   48.2000 H   0  0  0  0  0  0  0  0  0  0  0  0
   63.1807   34.3176   46.5807 H   0  0  0  0  0  0  0  0  0  0  0  0
   61.3999   35.2567   49.7685 H   0  0  0  0  0  0  0  0  0  0  0  0
   61.0181   33.5112   50.0342 H   0  0  0  0  0  0  0  0  0  0  0  0
   62.9551   34.0437   51.3776 H   0  0  0  0  0  0  0  0  0  0  0  0
   63.5119   33.0539   49.9859 H   0  0  0  0  0  0  0  0  0  0  0  0
   63.7736   34.8310   49.9859 H   0  0  0  0  0  0  0  0  0  0  0  0
   59.5848   32.8385   49.0697 H   0  0  0  0  0  0  0  0  0  0  0  0
   57.4874   32.4635   47.7710 H   0  0  0  0  0  0  0  0  0  0  0  0
   56.1980   33.6984   45.6662 H   0  0  0  0  0  0  0  0  0  0  0  0
   57.1288   33.5107   44.1440 H   0  0  0  0  0  0  0  0  0  0  0  0
   57.0240   31.2410   45.9950 H   0  0  0  0  0  0  0  0  0  0  0  0
   56.3137   30.8918   43.2327 H   0  0  0  0  0  0  0  0  0  0  0  0
   57.9540   31.6463   43.5122 H   0  0  0  0  0  0  0  0  0  0  0  0
   56.9438   28.9135   44.3621 H   0  0  0  0  0  0  0  0  0  0  0  0
   58.4069   29.3737   43.3743 H   0  0  0  0  0  0  0  0  0  0  0  0
   60.5069   29.8103   44.3819 H   0  0  0  0  0  0  0  0  0  0  0  0
   61.8879   29.7742   46.4706 H   0  0  0  0  0  0  0  0  0  0  0  0
   60.7669   29.5273   48.6971 H   0  0  0  0  0  0  0  0  0  0  0  0
   58.2766   29.3254   48.8029 H   0  0  0  0  0  0  0  0  0  0  0  0
   59.3374   34.2404   44.2786 H   0  0  0  0  0  0  0  0  0  0  0  0
   61.4391   34.5963   45.5747 H   0  0  0  0  0  0  0  0  0  0  0  0
  1  2  1  0
  2  3  1  0
  3  4  1  0
  4  5  1  0
  3  6  1  0
  6  7  2  0
  7  8  1  0
  8  9  2  0
  9 10  1  0
 10 11  1  0
 11 12  1  0
 12 13  1  0
 13 14  1  0
 14 15  2  0
 15 16  1  0
 16 17  2  0
 17 18  1  0
 18 19  2  0
  9 20  1  0
 20 21  2  0
 21  6  1  0
 19 14  1  0
  1 22  1  0
  1 23  1  0
  1 24  1  0
  2 25  1  0
  2 26  1  0
  4 27  1  0
  4 28  1  0
  5 29  1  0
  5 30  1  0
  5 31  1  0
  7 32  1  0
  8 33  1  0
 10 34  1  0
 10 35  1  0
 11 36  1  0
 12 37  1  0
 12 38  1  0
 13 39  1  0
 13 40  1  0
 15 41  1  0
 16 42  1  0
 17 43  1  0
 18 44  1  0
 20 45  1  0
 21 46  1  0
M  END
>  <UniqueID>  (41) 
39

>  <SMILES>  (41) 
CCN(CC)c1ccc(CNCCc2ccccn2)cc1

>  <Energy>  (41) 
43.83678433564414

>  <Genealogy>  (41) 
CCN(CC)c1ccc(CNCCc2ccccn2)cc1 (3D coordinates assigned)
CCN(CC)c1ccc(CNCCc2ccccn2)cc1 (optimized conformer: 43.83678433564414 kcal/mol)

>  <smiles>  (41) 
CCN(CC)c1ccc(CNCCc2ccccn2)cc1

>  <score_type>  (41) 
oracle

>  <origin>  (41) 
adg

>  <m_score__min__energy>  (41) 
-6.6200000000000001

>  <m_primary>  (41) 
energy

$$$$
41:0
     RDKit          3D

 46 49  0  0  1  0  0  0  0  0999 V2000
   63.4790   32.5290   47.2130 C   0  0  0  0  0  0  0  0  0  0  0  0
   62.1650   32.1350   46.8220 O   0  0  0  0  0  0  0  0  0  0  0  0
   61.0850   32.9590   46.9830 C   0  0  0  0  0  0  0  0  0  0  0  0
   61.1080   34.2060   46.3930 C   0  0  0  0  0  0  0  0  0  0  0  0
   60.0090   35.0120   46.5730 C   0  0  0  0  0  0  0  0  0  0  0  0
   58.9150   34.6120   47.3080 C   0  0  0  0  0  0  0  0  0  0  0  0
   58.9030   33.3650   47.8930 C   0  0  0  0  0  0  0  0  0  0  0  0
   59.9890   32.5460   47.7260 C   0  0  0  0  0  0  0  0  0  0  0  0
   56.6020   28.4330   45.3210 N   0  0  0  0  0  0  0  0  0  0  0  0
   56.9810   27.3030   45.8090 C   0  0  0  0  0  0  0  0  0  0  0  0
   56.1830   26.2380   45.6180 N   0  0  0  0  0  0  0  0  0  0  0  0
   59.9280   28.8830   45.8280 N   0  0  0  0  0  0  0  0  0  0  0  0
   58.9880   28.4270   46.6720 C   0  0  0  0  0  0  0  0  0  0  0  0
   58.1720   27.2290   46.5020 C   0  0  0  0  0  0  0  0  0  0  0  0
   58.6000   26.0310   47.0360 C   0  0  0  0  0  0  0  0  0  0  0  0
   57.7710   24.9340   46.8330 C   0  0  0  0  0  0  0  0  0  0  0  0
   56.5770   25.0590   46.1260 C   0  0  0  0  0  0  0  0  0  0  0  0
   60.4100   30.0000   46.3900 N   0  0  0  0  0  0  0  0  0  0  0  0
   59.7860   30.2250   47.5450 C   0  0  0  0  0  0  0  0  0  0  0  0
   60.0430   31.2310   48.3080 N   0  0  0  0  0  0  0  0  0  0  0  0
   57.0290   29.0060   44.0840 C   0  0  0  0  0  0  0  0  0  0  0  0
   57.2940   30.4680   44.1460 C   0  0  0  0  0  0  0  0  0  0  0  0
   57.7810   31.1620   43.0330 C   0  0  0  0  0  0  0  0  0  0  0  0
   58.0360   32.5150   43.0660 C   0  0  0  0  0  0  0  0  0  0  0  0
   57.8040   33.2070   44.2290 C   0  0  0  0  0  0  0  0  0  0  0  0
   57.3240   32.4900   45.3040 C   0  0  0  0  0  0  0  0  0  0  0  0
   57.0760   31.1720   45.2710 N   0  0  0  0  0  0  0  0  0  0  0  0
   58.9220   29.2500   47.6960 O   0  0  0  0  0  0  0  0  0  0  0  0
   63.5445   32.5486   48.3109 H   0  0  0  0  0  0  0  0  0  0  0  0
   64.2109   31.8108   46.8148 H   0  0  0  0  0  0  0  0  0  0  0  0
   63.6950   33.5314   46.8148 H   0  0  0  0  0  0  0  0  0  0  0  0
   61.9723   34.5423   45.8015 H   0  0  0  0  0  0  0  0  0  0  0  0
   60.0031   36.0116   46.1139 H   0  0  0  0  0  0  0  0  0  0  0  0
   58.0539   35.2860   47.4274 H   0  0  0  0  0  0  0  0  0  0  0  0
   58.0368   33.0324   48.4839 H   0  0  0  0  0  0  0  0  0  0  0  0
   55.2860   26.3130   45.0910 H   0  0  0  0  0  0  0  0  0  0  0  0
   59.5456   25.9486   47.5920 H   0  0  0  0  0  0  0  0  0  0  0  0
   58.0618   23.9528   47.2364 H   0  0  0  0  0  0  0  0  0  0  0  0
   55.9428   24.1720   45.9807 H   0  0  0  0  0  0  0  0  0  0  0  0
   61.1720   30.5480   45.9060 H   0  0  0  0  0  0  0  0  0  0  0  0
   57.9550   28.5010   43.7718 H   0  0  0  0  0  0  0  0  0  0  0  0
   56.2039   28.8654   43.3702 H   0  0  0  0  0  0  0  0  0  0  0  0
   57.9664   30.6086   42.1006 H   0  0  0  0  0  0  0  0  0  0  0  0
   58.4195   33.0331   42.1747 H   0  0  0  0  0  0  0  0  0  0  0  0
   57.9933   34.2883   44.2999 H   0  0  0  0  0  0  0  0  0  0  0  0
   57.1333   33.0298   46.2433 H   0  0  0  0  0  0  0  0  0  0  0  0
  1  2  1  0
  2  3  1  0
  3  4  2  0
  4  5  1  0
  5  6  2  0
  6  7  1  0
  7  8  2  0
  8  9  1  0
  9 10  2  0
 10 11  1  0
 11 12  1  0
 12 13  2  0
 13 14  1  0
 14 15  2  0
 15 16  1  0
 16 17  2  0
 17 18  1  0
 18 19  1  0
 19 20  2  0
 20 21  1  0
 21 22  1  0
 22 23  2  0
 23 24  1  0
 24 25  2  0
 25 26  1  0
 26 27  2  0
 13 28  1  0
  8  3  1  0
 28 10  1  0
 19 14  1  0
 27 22  1  0
  1 29  1  0
  1 30  1  0
  1 31  1  0
  4 32  1  0
  5 33  1  0
  6 34  1  0
  7 35  1  0
 11 36  1  0
 15 37  1  0
 16 38  1  0
 17 39  1  0
 18 40  1  0
 21 41  1  0
 21 42  1  0
 23 43  1  0
 24 44  1  0
 25 45  1  0
 26 46  1  0
M  END
>  <smiles>  (42) 
COc1ccccc1N=c1[nH]nc(-c2ccc[nH]c2=NCc2ccccn2)o1

>  <score_type>  (42) 
oracle

>  <origin>  (42) 
adg

>  <m_score__min__energy>  (42) 
-8.9199999999999999

>  <m_primary>  (42) 
energy

$$$$
42:0
     RDKit          3D

 51 53  0  0  0  0  0  0  0  0999 V2000
   65.6550   31.7500   50.5490 C   0  0  0  0  0  0  0  0  0  0  0  0
   65.4200   33.0190   49.7360 C   0  0  0  0  0  0  0  0  0  0  0  0
   63.9920   33.1230   49.3470 N   0  0  0  0  0  0  0  0  0  0  0  0
   63.6950   32.2630   48.1790 C   0  0  0  0  0  0  0  0  0  0  0  0
   63.6610   33.1000   46.9030 C   0  0  0  0  0  0  0  0  0  0  0  0
   63.1060   32.8000   50.4910 C   0  0  0  0  0  0  0  0  0  0  0  0
   61.9330   33.7840   50.5700 C   0  0  0  0  0  0  0  0  0  0  0  0
   61.4720   34.1310   49.2270 N   0  0  0  0  0  0  0  0  0  0  0  0
   60.0890   34.3590   48.9120 C   0  0  0  0  0  0  0  0  0  0  0  0
   59.2780   34.6530   49.8320 O   0  0  0  0  0  0  0  0  0  0  0  0
   59.6010   34.2580   47.5160 C   0  0  0  0  0  0  0  0  0  0  0  0
   59.7440   35.3440   46.6340 C   0  0  0  0  0  0  0  0  0  0  0  0
   59.2650   35.2590   45.3240 C   0  0  0  0  0  0  0  0  0  0  0  0
   58.6250   34.0990   44.8830 C   0  0  0  0  0  0  0  0  0  0  0  0
   58.4600   33.0090   45.7530 C   0  0  0  0  0  0  0  0  0  0  0  0
   57.7600   31.7860   45.3140 C   0  0  0  0  0  0  0  0  0  0  0  0
   56.5140   31.7540   44.8040 N   0  0  0  0  0  0  0  0  0  0  0  0
   56.2480   30.4830   44.5480 N   0  0  0  0  0  0  0  0  0  0  0  0
   57.3410   29.7850   44.9110 C   0  0  0  0  0  0  0  0  0  0  0  0
   57.4800   28.3200   44.7970 C   0  0  0  0  0  0  0  0  0  0  0  0
   57.2960   27.5060   45.9280 C   0  0  0  0  0  0  0  0  0  0  0  0
   57.4260   26.1180   45.8280 C   0  0  0  0  0  0  0  0  0  0  0  0
   57.7400   25.5330   44.5990 C   0  0  0  0  0  0  0  0  0  0  0  0
   57.9240   26.3340   43.4680 C   0  0  0  0  0  0  0  0  0  0  0  0
   57.7960   27.7220   43.5650 C   0  0  0  0  0  0  0  0  0  0  0  0
   58.2720   30.5800   45.3810 O   0  0  0  0  0  0  0  0  0  0  0  0
   58.9570   33.0940   47.0640 C   0  0  0  0  0  0  0  0  0  0  0  0
   65.6108   31.9885   51.6219 H   0  0  0  0  0  0  0  0  0  0  0  0
   64.8787   31.0096   50.3057 H   0  0  0  0  0  0  0  0  0  0  0  0
   66.6449   31.3367   50.3057 H   0  0  0  0  0  0  0  0  0  0  0  0
   65.6960   33.8947   50.3419 H   0  0  0  0  0  0  0  0  0  0  0  0
   66.0373   32.9812   48.8263 H   0  0  0  0  0  0  0  0  0  0  0  0
   64.4748   31.4925   48.0875 H   0  0  0  0  0  0  0  0  0  0  0  0
   62.7132   31.7885   48.3232 H   0  0  0  0  0  0  0  0  0  0  0  0
   63.6176   34.1673   47.1656 H   0  0  0  0  0  0  0  0  0  0  0  0
   64.5678   32.9044   46.3119 H   0  0  0  0  0  0  0  0  0  0  0  0
   62.7730   32.8315   46.3119 H   0  0  0  0  0  0  0  0  0  0  0  0
   62.7128   31.7804   50.3652 H   0  0  0  0  0  0  0  0  0  0  0  0
   63.6904   32.8748   51.4199 H   0  0  0  0  0  0  0  0  0  0  0  0
   61.1069   33.3201   51.1289 H   0  0  0  0  0  0  0  0  0  0  0  0
   62.2666   34.6988   51.0818 H   0  0  0  0  0  0  0  0  0  0  0  0
   62.1840   34.1490   48.4630 H   0  0  0  0  0  0  0  0  0  0  0  0
   60.2359   36.2660   46.9774 H   0  0  0  0  0  0  0  0  0  0  0  0
   59.3926   36.1091   44.6377 H   0  0  0  0  0  0  0  0  0  0  0  0
   58.2489   34.0388   43.8510 H   0  0  0  0  0  0  0  0  0  0  0  0
   57.0484   27.9638   46.8971 H   0  0  0  0  0  0  0  0  0  0  0  0
   57.2811   25.4864   46.7169 H   0  0  0  0  0  0  0  0  0  0  0  0
   57.8426   24.4406   44.5210 H   0  0  0  0  0  0  0  0  0  0  0  0
   58.1698   25.8711   42.5009 H   0  0  0  0  0  0  0  0  0  0  0  0
   57.9432   28.3493   42.6734 H   0  0  0  0  0  0  0  0  0  0  0  0
   58.8405   32.2384   47.7454 H   0  0  0  0  0  0  0  0  0  0  0  0
  1  2  1  0
  2  3  1  0
  3  4  1  0
  4  5  1  0
  3  6  1  0
  6  7  1  0
  7  8  1  0
  8  9  1  0
  9 10  2  0
  9 11  1  0
 11 12  2  0
 12 13  1  0
 13 14  2  0
 14 15  1  0
 15 16  1  0
 16 17  2  0
 17 18  1  0
 18 19  2  0
 19 20  1  0
 20 21  2  0
 21 22  1  0
 22 23  2  0
 23 24  1  0
 24 25  2  0
 19 26  1  0
 15 27  2  0
 27 11  1  0
 26 16  1  0
 25 20  1  0
  1 28  1  0
  1 29  1  0
  1 30  1  0
  2 31  1  0
  2 32  1  0
  4 33  1  0
  4 34  1  0
  5 35  1  0
  5 36  1  0
  5 37  1  0
  6 38  1  0
  6 39  1  0
  7 40  1  0
  7 41  1  0
  8 42  1  0
 12 43  1  0
 13 44  1  0
 14 45  1  0
 21 46  1  0
 22 47  1  0
 23 48  1  0
 24 49  1  0
 25 50  1  0
 27 51  1  0
M  END
>  <UniqueID>  (43) 
40

>  <SMILES>  (43) 
CCN(CC)CCNC(=O)c1cccc(-c2nnc(-c3ccccc3)o2)c1

>  <Energy>  (43) 
83.27350995979516

>  <Genealogy>  (43) 
CCN(CC)CCNC(=O)c1cccc(-c2nnc(-c3ccccc3)o2)c1 (3D coordinates assigned)
CCN(CC)CCNC(=O)c1cccc(-c2nnc(-c3ccccc3)o2)c1 (optimized conformer: 83.27350995979516 kcal/mol)

>  <smiles>  (43) 
CCN(CC)CCNC(=O)c1cccc(-c2nnc(-c3ccccc3)o2)c1

>  <score_type>  (43) 
oracle

>  <origin>  (43) 
adg

>  <m_score__min__energy>  (43) 
-8.4100000000000001

>  <m_primary>  (43) 
energy

$$$$
43:0
     RDKit          3D

 59 62  0  0  0  0  0  0  0  0999 V2000
   57.5060   28.7770   45.6730 C   0  0  0  0  0  0  0  0  0  0  0  0
   56.9960   30.0880   45.4540 O   0  0  0  0  0  0  0  0  0  0  0  0
   57.2240   30.8480   44.2960 C   0  0  0  0  0  0  0  0  0  0  0  0
   56.7450   30.4450   43.0330 C   0  0  0  0  0  0  0  0  0  0  0  0
   57.0160   31.2120   41.8970 C   0  0  0  0  0  0  0  0  0  0  0  0
   57.7660   32.3830   42.0050 C   0  0  0  0  0  0  0  0  0  0  0  0
   58.2430   32.7950   43.2500 C   0  0  0  0  0  0  0  0  0  0  0  0
   57.9680   32.0390   44.4010 C   0  0  0  0  0  0  0  0  0  0  0  0
   58.4570   32.4790   45.6780 N   0  0  0  0  0  0  0  0  0  0  0  0
   59.2700   31.5630   46.4840 C   0  0  0  0  0  0  0  0  0  0  0  0
   59.6640   32.2120   47.8110 C   0  0  0  0  0  0  0  0  0  0  0  0
   60.1000   33.5970   47.5600 N   0  0  0  0  0  0  0  0  0  0  0  0
   60.7490   34.1610   48.7620 C   0  0  0  0  0  0  0  0  0  0  0  0
   61.2170   33.0520   49.7150 C   0  0  0  0  0  0  0  0  0  0  0  0
   62.6670   33.1670   49.9640 N   0  0  0  0  0  0  0  0  0  0  0  0
   63.5860   32.8510   48.9680 C   0  0  0  0  0  0  0  0  0  0  0  0
   63.0640   32.2610   47.3430 S   0  0  0  0  0  0  0  0  0  0  0  0
   63.3960   33.8540   46.5290 C   0  0  0  0  0  0  0  0  0  0  0  0
   64.9290   32.9970   49.1880 N   0  0  0  0  0  0  0  0  0  0  0  0
   65.3410   33.4540   50.3910 C   0  0  0  0  0  0  0  0  0  0  0  0
   66.6030   33.7010   50.8810 C   0  0  0  0  0  0  0  0  0  0  0  0
   67.9000   33.4870   50.1750 C   0  0  0  0  0  0  0  0  0  0  0  0
   66.4820   34.1650   52.1490 N   0  0  0  0  0  0  0  0  0  0  0  0
   65.1850   34.2140   52.4450 N   0  0  0  0  0  0  0  0  0  0  0  0
   64.6640   34.6700   53.7290 C   0  0  0  0  0  0  0  0  0  0  0  0
   64.4810   33.7820   51.3780 C   0  0  0  0  0  0  0  0  0  0  0  0
   63.1110   33.6510   51.1790 C   0  0  0  0  0  0  0  0  0  0  0  0
   62.3000   33.9750   52.0900 O   0  0  0  0  0  0  0  0  0  0  0  0
   58.9730   34.4520   47.0960 C   0  0  0  0  0  0  0  0  0  0  0  0
   57.8990   33.6880   46.2910 C   0  0  0  0  0  0  0  0  0  0  0  0
   57.5795   28.5880   46.7542 H   0  0  0  0  0  0  0  0  0  0  0  0
   56.8292   28.0394   45.2170 H   0  0  0  0  0  0  0  0  0  0  0  0
   58.5033   28.6906   45.2170 H   0  0  0  0  0  0  0  0  0  0  0  0
   56.1545   29.5215   42.9412 H   0  0  0  0  0  0  0  0  0  0  0  0
   56.6370   30.8916   40.9153 H   0  0  0  0  0  0  0  0  0  0  0  0
   57.9816   32.9822   41.1081 H   0  0  0  0  0  0  0  0  0  0  0  0
   58.8376   33.7169   43.3302 H   0  0  0  0  0  0  0  0  0  0  0  0
   58.6908   30.6501   46.6869 H   0  0  0  0  0  0  0  0  0  0  0  0
   60.1855   31.3191   45.9251 H   0  0  0  0  0  0  0  0  0  0  0  0
   58.7989   32.2156   48.4904 H   0  0  0  0  0  0  0  0  0  0  0  0
   60.4847   31.6431   48.2724 H   0  0  0  0  0  0  0  0  0  0  0  0
   61.6192   34.7584   48.4525 H   0  0  0  0  0  0  0  0  0  0  0  0
   60.0157   34.7872   49.2912 H   0  0  0  0  0  0  0  0  0  0  0  0
   60.6770   33.1420   50.6691 H   0  0  0  0  0  0  0  0  0  0  0  0
   61.0100   32.0746   49.2548 H   0  0  0  0  0  0  0  0  0  0  0  0
   63.5576   34.6292   47.2925 H   0  0  0  0  0  0  0  0  0  0  0  0
   64.2948   33.7647   45.9012 H   0  0  0  0  0  0  0  0  0  0  0  0
   62.5363   34.1312   45.9012 H   0  0  0  0  0  0  0  0  0  0  0  0
   65.6230   32.7620   48.4440 H   0  0  0  0  0  0  0  0  0  0  0  0
   68.7029   33.3545   50.9152 H   0  0  0  0  0  0  0  0  0  0  0  0
   67.8304   32.5882   49.5447 H   0  0  0  0  0  0  0  0  0  0  0  0
   68.1229   34.3605   49.5447 H   0  0  0  0  0  0  0  0  0  0  0  0
   65.2199   34.1834   54.5440 H   0  0  0  0  0  0  0  0  0  0  0  0
   64.7811   35.7611   53.8056 H   0  0  0  0  0  0  0  0  0  0  0  0
   63.5981   34.4094   53.8056 H   0  0  0  0  0  0  0  0  0  0  0  0
   58.4917   34.8996   47.9781 H   0  0  0  0  0  0  0  0  0  0  0  0
   59.4017   35.2070   46.4206 H   0  0  0  0  0  0  0  0  0  0  0  0
   57.0795   33.4023   46.9669 H   0  0  0  0  0  0  0  0  0  0  0  0
   57.5296   34.3460   45.4906 H   0  0  0  0  0  0  0  0  0  0  0  0
  1  2  1  0
  2  3  1  0
  3  4  2  0
  4  5  1  0
  5  6  2  0
  6  7  1  0
  7  8  2  0
  8  9  1  0
  9 10  1  0
 10 11  1  0
 11 12  1  0
 12 13  1  0
 13 14  1  0
 14 15  1  0
 15 16  1  0
 16 17  1  0
 17 18  1  0
 16 19  2  0
 19 20  1  0
 20 21  1  0
 21 22  1  0
 21 23  2  0
 23 24  1  0
 24 25  1  0
 24 26  1  0
 26 27  1  0
 27 28  2  0
 12 29  1  0
 29 30  1  0
  8  3  1  0
 30  9  1  0
 27 15  1  0
 26 20  2  0
  1 31  1  0
  1 32  1  0
  1 33  1  0
  4 34  1  0
  5 35  1  0
  6 36  1  0
  7 37  1  0
 10 38  1  0
 10 39  1  0
 11 40  1  0
 11 41  1  0
 13 42  1  0
 13 43  1  0
 14 44  1  0
 14 45  1  0
 18 46  1  0
 18 47  1  0
 18 48  1  0
 19 49  1  0
 22 50  1  0
 22 51  1  0
 22 52  1  0
 25 53  1  0
 25 54  1  0
 25 55  1  0
 29 56  1  0
 29 57  1  0
 30 58  1  0
 30 59  1  0
M  CHG  1  19   1
M  END
>  <UniqueID>  (44) 
41

>  <SMILES>  (44) 
COc1ccccc1N1CCN(CCn2c(SC)[nH+]c3c(C)nn(C)c3c2=O)CC1

>  <Energy>  (44) 
110.62576884763605

>  <Genealogy>  (44) 
COc1ccccc1N1CCN(CCn2c(SC)[nH+]c3c(C)nn(C)c3c2=O)CC1 (protonated)
COc1ccccc1N1CCN(CCn2c(SC)[nH+]c3c(C)nn(C)c3c2=O)CC1 (3D coordinates assigned)
COc1ccccc1N1CCN(CCn2c(SC)[nH+]c3c(C)nn(C)c3c2=O)CC1 (nonaromatic ring conformer: 110.62576884763605 kcal/mol)

>  <smiles>  (44) 
COc1ccccc1N1CCN(CCn2c(SC)nc3c(C)nn(C)c3c2=O)CC1

>  <score_type>  (44) 
oracle

>  <origin>  (44) 
adg

>  <m_score__min__energy>  (44) 
-7.0899999999999999

>  <m_primary>  (44) 
energy

$$$$
44:0
     RDKit          3D

 39 41  0  0  0  0  0  0  0  0999 V2000
   57.4470   31.9390   42.1510 C   0  0  0  0  0  0  0  0  0  0  0  0
   58.1340   32.3220   43.4590 C   0  0  0  0  0  0  0  0  0  0  0  0
   57.2610   32.0090   44.6120 N   0  0  0  0  0  0  0  0  0  0  0  0
   56.7010   33.2310   45.2530 C   0  0  0  0  0  0  0  0  0  0  0  0
   57.3870   33.6120   46.5800 C   0  0  0  0  0  0  0  0  0  0  0  0
   58.7950   33.2060   46.5610 N   0  0  0  0  0  0  0  0  0  0  0  0
   59.8420   34.1960   46.6050 C   0  0  0  0  0  0  0  0  0  0  0  0
   59.6390   35.3380   46.1080 O   0  0  0  0  0  0  0  0  0  0  0  0
   61.1630   33.8960   47.2010 C   0  0  0  0  0  0  0  0  0  0  0  0
   62.2390   33.5220   46.3750 C   0  0  0  0  0  0  0  0  0  0  0  0
   63.4930   33.2430   46.9260 C   0  0  0  0  0  0  0  0  0  0  0  0
   63.6920   33.3470   48.3090 C   0  0  0  0  0  0  0  0  0  0  0  0
   64.9070   33.0800   48.8690 N   0  0  0  0  0  0  0  0  0  0  0  0
   65.0960   33.1910   50.2120 C   0  0  0  0  0  0  0  0  0  0  0  0
   64.0340   33.5820   51.0320 C   0  0  0  0  0  0  0  0  0  0  0  0
   62.8220   33.8480   50.4790 N   0  0  0  0  0  0  0  0  0  0  0  0
   62.6220   33.7390   49.1400 C   0  0  0  0  0  0  0  0  0  0  0  0
   61.3670   34.0170   48.5860 C   0  0  0  0  0  0  0  0  0  0  0  0
   59.1130   31.8020   46.2680 C   0  0  0  0  0  0  0  0  0  0  0  0
   57.9240   31.1100   45.5810 C   0  0  0  0  0  0  0  0  0  0  0  0
   56.5057   31.4142   42.3712 H   0  0  0  0  0  0  0  0  0  0  0  0
   57.2328   32.8478   41.5695 H   0  0  0  0  0  0  0  0  0  0  0  0
   58.1074   31.2789   41.5695 H   0  0  0  0  0  0  0  0  0  0  0  0
   59.0741   31.7587   43.5529 H   0  0  0  0  0  0  0  0  0  0  0  0
   58.3396   33.4026   43.4506 H   0  0  0  0  0  0  0  0  0  0  0  0
   56.8122   34.0714   44.5521 H   0  0  0  0  0  0  0  0  0  0  0  0
   55.6489   33.0135   45.4890 H   0  0  0  0  0  0  0  0  0  0  0  0
   57.3255   34.7013   46.7203 H   0  0  0  0  0  0  0  0  0  0  0  0
   56.8774   33.0956   47.4068 H   0  0  0  0  0  0  0  0  0  0  0  0
   62.0922   33.4486   45.2873 H   0  0  0  0  0  0  0  0  0  0  0  0
   64.3250   32.9413   46.2727 H   0  0  0  0  0  0  0  0  0  0  0  0
   65.7120   32.7880   48.2700 H   0  0  0  0  0  0  0  0  0  0  0  0
   66.0811   32.9738   50.6506 H   0  0  0  0  0  0  0  0  0  0  0  0
   64.1786   33.6738   52.1186 H   0  0  0  0  0  0  0  0  0  0  0  0
   60.5378   34.3312   49.2369 H   0  0  0  0  0  0  0  0  0  0  0  0
   59.9886   31.7607   45.6035 H   0  0  0  0  0  0  0  0  0  0  0  0
   59.3280   31.2823   47.2133 H   0  0  0  0  0  0  0  0  0  0  0  0
   58.2875   30.2177   45.0502 H   0  0  0  0  0  0  0  0  0  0  0  0
   57.1913   30.8341   46.3536 H   0  0  0  0  0  0  0  0  0  0  0  0
  1  2  1  0
  2  3  1  0
  3  4  1  0
  4  5  1  0
  5  6  1  0
  6  7  1  0
  7  8  2  0
  7  9  1  0
  9 10  2  0
 10 11  1  0
 11 12  2  0
 12 13  1  0
 13 14  2  0
 14 15  1  0
 15 16  2  0
 16 17  1  0
 17 18  2  0
  6 19  1  0
 19 20  1  0
 20  3  1  0
 18  9  1  0
 17 12  1  0
  1 21  1  0
  1 22  1  0
  1 23  1  0
  2 24  1  0
  2 25  1  0
  4 26  1  0
  4 27  1  0
  5 28  1  0
  5 29  1  0
 10 30  1  0
 11 31  1  0
 13 32  1  0
 14 33  1  0
 15 34  1  0
 18 35  1  0
 19 36  1  0
 19 37  1  0
 20 38  1  0
 20 39  1  0
M  CHG  1  13   1
M  END
>  <UniqueID>  (45) 
42

>  <SMILES>  (45) 
CCN1CCN(C(=O)c2ccc3[nH+]ccnc3c2)CC1

>  <Energy>  (45) 
55.51437447361434

>  <Genealogy>  (45) 
CCN1CCN(C(=O)c2ccc3[nH+]ccnc3c2)CC1 (protonated)
CCN1CCN(C(=O)c2ccc3[nH+]ccnc3c2)CC1 (3D coordinates assigned)
CCN1CCN(C(=O)c2ccc3[nH+]ccnc3c2)CC1 (nonaromatic ring conformer: 55.51437447361434 kcal/mol)

>  <smiles>  (45) 
CCN1CCN(C(=O)c2ccc3nccnc3c2)CC1

>  <score_type>  (45) 
oracle

>  <origin>  (45) 
adg

>  <m_score__min__energy>  (45) 
-6.0099999999999998

>  <m_primary>  (45) 
energy

$$$$
45:0
     RDKit          3D

 57 60  0  0  0  0  0  0  0  0999 V2000
   57.4000   21.2950   43.2340 C   0  0  0  0  0  0  0  0  0  0  0  0
   58.0900   21.2780   44.5370 N   0  0  0  0  0  0  0  0  0  0  0  0
   59.2340   22.2110   44.4920 C   0  0  0  0  0  0  0  0  0  0  0  0
   57.1350   21.6310   45.6180 C   0  0  0  0  0  0  0  0  0  0  0  0
   55.8200   22.2570   45.1040 C   0  0  0  0  0  0  0  0  0  0  0  0
   55.7870   23.7920   45.1310 C   0  0  0  0  0  0  0  0  0  0  0  0
   56.3380   24.3020   46.3490 O   0  0  0  0  0  0  0  0  0  0  0  0
   57.0640   25.4940   46.5100 C   0  0  0  0  0  0  0  0  0  0  0  0
   58.1720   25.6150   47.3720 C   0  0  0  0  0  0  0  0  0  0  0  0
   58.8450   26.8350   47.4890 C   0  0  0  0  0  0  0  0  0  0  0  0
   58.4340   27.9510   46.7430 C   0  0  0  0  0  0  0  0  0  0  0  0
   59.1490   29.2360   46.8680 C   0  0  0  0  0  0  0  0  0  0  0  0
   60.2590   29.4060   47.6180 N   0  0  0  0  0  0  0  0  0  0  0  0
   60.5710   30.7050   47.4370 C   0  0  0  0  0  0  0  0  0  0  0  0
   61.7920   31.3180   48.0010 C   0  0  0  0  0  0  0  0  0  0  0  0
   62.1110   31.1760   49.3630 C   0  0  0  0  0  0  0  0  0  0  0  0
   63.2620   31.7790   49.8850 C   0  0  0  0  0  0  0  0  0  0  0  0
   64.0940   32.5360   49.0560 C   0  0  0  0  0  0  0  0  0  0  0  0
   63.7710   32.7010   47.7070 C   0  0  0  0  0  0  0  0  0  0  0  0
   62.6210   32.1010   47.1810 C   0  0  0  0  0  0  0  0  0  0  0  0
   59.6270   31.2780   46.5960 C   0  0  0  0  0  0  0  0  0  0  0  0
   59.5090   32.6810   46.1470 C   0  0  0  0  0  0  0  0  0  0  0  0
   59.9580   33.7430   46.9520 C   0  0  0  0  0  0  0  0  0  0  0  0
   59.8260   35.0650   46.5150 C   0  0  0  0  0  0  0  0  0  0  0  0
   59.2260   35.3360   45.2810 C   0  0  0  0  0  0  0  0  0  0  0  0
   58.7450   34.2890   44.4920 C   0  0  0  0  0  0  0  0  0  0  0  0
   58.8800   32.9650   44.9250 C   0  0  0  0  0  0  0  0  0  0  0  0
   58.7770   30.3400   46.2580 O   0  0  0  0  0  0  0  0  0  0  0  0
   57.3370   27.8240   45.8750 C   0  0  0  0  0  0  0  0  0  0  0  0
   56.6620   26.6070   45.7630 C   0  0  0  0  0  0  0  0  0  0  0  0
   56.3122   21.3218   43.3954 H   0  0  0  0  0  0  0  0  0  0  0  0
   57.7086   22.1858   42.6673 H   0  0  0  0  0  0  0  0  0  0  0  0
   57.6644   20.3901   42.6673 H   0  0  0  0  0  0  0  0  0  0  0  0
   58.4650   20.3130   44.6820 H   0  0  0  0  0  0  0  0  0  0  0  0
   59.5425   22.4626   45.5174 H   0  0  0  0  0  0  0  0  0  0  0  0
   60.0734   21.7366   43.9625 H   0  0  0  0  0  0  0  0  0  0  0  0
   58.9381   23.1287   43.9625 H   0  0  0  0  0  0  0  0  0  0  0  0
   56.8890   20.7159   46.1767 H   0  0  0  0  0  0  0  0  0  0  0  0
   57.6268   22.3873   46.2474 H   0  0  0  0  0  0  0  0  0  0  0  0
   55.6675   21.9292   44.0651 H   0  0  0  0  0  0  0  0  0  0  0  0
   55.0266   21.9170   45.7858 H   0  0  0  0  0  0  0  0  0  0  0  0
   56.3724   24.1780   44.2835 H   0  0  0  0  0  0  0  0  0  0  0  0
   54.7389   24.1183   45.0604 H   0  0  0  0  0  0  0  0  0  0  0  0
   58.5091   24.7456   47.9556 H   0  0  0  0  0  0  0  0  0  0  0  0
   59.7036   26.9211   48.1712 H   0  0  0  0  0  0  0  0  0  0  0  0
   61.4537   30.5888   50.0212 H   0  0  0  0  0  0  0  0  0  0  0  0
   63.5116   31.6566   50.9493 H   0  0  0  0  0  0  0  0  0  0  0  0
   65.0026   33.0016   49.4654 H   0  0  0  0  0  0  0  0  0  0  0  0
   64.4219   33.3038   47.0566 H   0  0  0  0  0  0  0  0  0  0  0  0
   62.3653   32.2433   46.1206 H   0  0  0  0  0  0  0  0  0  0  0  0
   60.4153   33.5330   47.9302 H   0  0  0  0  0  0  0  0  0  0  0  0
   60.1938   35.8910   47.1414 H   0  0  0  0  0  0  0  0  0  0  0  0
   59.1329   36.3749   44.9316 H   0  0  0  0  0  0  0  0  0  0  0  0
   58.2594   34.5052   43.5290 H   0  0  0  0  0  0  0  0  0  0  0  0
   58.4915   32.1436   44.3050 H   0  0  0  0  0  0  0  0  0  0  0  0
   57.0078   28.6886   45.2799 H   0  0  0  0  0  0  0  0  0  0  0  0
   55.8042   26.5220   45.0796 H   0  0  0  0  0  0  0  0  0  0  0  0
  1  2  1  0
  2  3  1  0
  2  4  1  0
  4  5  1  0
  5  6  1  0
  6  7  1  0
  7  8  1  0
  8  9  2  0
  9 10  1  0
 10 11  2  0
 11 12  1  0
 12 13  2  0
 13 14  1  0
 14 15  1  0
 15 16  2  0
 16 17  1  0
 17 18  2  0
 18 19  1  0
 19 20  2  0
 14 21  2  0
 21 22  1  0
 22 23  2  0
 23 24  1  0
 24 25  2  0
 25 26  1  0
 26 27  2  0
 21 28  1  0
 11 29  1  0
 29 30  2  0
 30  8  1  0
 28 12  1  0
 20 15  1  0
 27 22  1  0
  1 31  1  0
  1 32  1  0
  1 33  1  0
  2 34  1  0
  3 35  1  0
  3 36  1  0
  3 37  1  0
  4 38  1  0
  4 39  1  0
  5 40  1  0
  5 41  1  0
  6 42  1  0
  6 43  1  0
  9 44  1  0
 10 45  1  0
 16 46  1  0
 17 47  1  0
 18 48  1  0
 19 49  1  0
 20 50  1  0
 23 51  1  0
 24 52  1  0
 25 53  1  0
 26 54  1  0
 27 55  1  0
 29 56  1  0
 30 57  1  0
M  CHG  1   2   1
M  END
>  <UniqueID>  (46) 
43

>  <SMILES>  (46) 
C[NH+](C)CCCOc1ccc(-c2nc(-c3ccccc3)c(-c3ccccc3)o2)cc1

>  <Energy>  (46) 
99.71230074826855

>  <Genealogy>  (46) 
C[NH+](C)CCCOc1ccc(-c2nc(-c3ccccc3)c(-c3ccccc3)o2)cc1 (protonated)
C[NH+](C)CCCOc1ccc(-c2nc(-c3ccccc3)c(-c3ccccc3)o2)cc1 (3D coordinates assigned)
C[NH+](C)CCCOc1ccc(-c2nc(-c3ccccc3)c(-c3ccccc3)o2)cc1 (optimized conformer: 99.71230074826855 kcal/mol)

>  <smiles>  (46) 
CN(C)CCCOc1ccc(-c2nc(-c3ccccc3)c(-c3ccccc3)o2)cc1

>  <score_type>  (46) 
oracle

>  <origin>  (46) 
adg

>  <m_score__min__energy>  (46) 
-6.5999999999999996

>  <m_primary>  (46) 
energy

$$$$
46:0
     RDKit          3D

 76 79  0  0  0  0  0  0  0  0999 V2000
   56.4880   30.1010   43.4820 C   0  0  0  0  0  0  0  0  0  0  0  0
   56.5890   30.5770   44.8170 O   0  0  0  0  0  0  0  0  0  0  0  0
   57.7810   30.6060   45.5590 C   0  0  0  0  0  0  0  0  0  0  0  0
   58.4700   29.4360   45.9330 C   0  0  0  0  0  0  0  0  0  0  0  0
   59.6710   29.5180   46.6670 C   0  0  0  0  0  0  0  0  0  0  0  0
   60.3820   28.3830   47.0860 O   0  0  0  0  0  0  0  0  0  0  0  0
   60.4020   27.1450   46.3900 C   0  0  0  0  0  0  0  0  0  0  0  0
   60.1830   30.7750   47.0040 C   0  0  0  0  0  0  0  0  0  0  0  0
   59.4960   31.9510   46.6560 C   0  0  0  0  0  0  0  0  0  0  0  0
   60.0300   33.2400   47.0230 N   0  0  0  0  0  0  0  0  0  0  0  0
   59.5370   33.9410   48.2190 C   0  0  0  0  0  0  0  0  0  0  0  0
   58.8730   32.9790   49.2140 C   0  0  0  0  0  0  0  0  0  0  0  0
   59.7980   32.7380   50.3480 N   0  0  0  0  0  0  0  0  0  0  0  0
   60.2000   31.3260   50.4830 C   0  0  0  0  0  0  0  0  0  0  0  0
   59.0320   30.4490   50.9610 C   0  0  0  0  0  0  0  0  0  0  0  0
   58.1500   31.1860   51.8670 N   0  0  0  0  0  0  0  0  0  0  0  0
   56.9100   30.5850   52.2650 C   0  0  0  0  0  0  0  0  0  0  0  0
   55.7060   31.2510   51.9920 C   0  0  0  0  0  0  0  0  0  0  0  0
   54.4870   30.6940   52.3840 C   0  0  0  0  0  0  0  0  0  0  0  0
   54.4590   29.4650   53.0460 C   0  0  0  0  0  0  0  0  0  0  0  0
   55.6530   28.7840   53.3080 C   0  0  0  0  0  0  0  0  0  0  0  0
   56.8890   29.3340   52.9140 C   0  0  0  0  0  0  0  0  0  0  0  0
   58.1000   28.6630   53.1290 O   0  0  0  0  0  0  0  0  0  0  0  0
   58.9100   28.8120   54.2890 C   0  0  0  0  0  0  0  0  0  0  0  0
   58.6620   32.3550   52.5850 C   0  0  0  0  0  0  0  0  0  0  0  0
   59.3650   33.3450   51.6290 C   0  0  0  0  0  0  0  0  0  0  0  0
   61.0710   33.8660   46.1970 C   0  0  0  0  0  0  0  0  0  0  0  0
   62.4630   33.5550   46.6840 C   0  0  0  0  0  0  0  0  0  0  0  0
   63.4360   34.1190   46.1170 O   0  0  0  0  0  0  0  0  0  0  0  0
   62.7000   32.6190   47.7480 N   0  0  0  0  0  0  0  0  0  0  0  0
   64.0410   32.3400   48.2580 C   0  0  0  0  0  0  0  0  0  0  0  0
   64.2840   33.0950   49.5390 C   0  0  0  0  0  0  0  0  0  0  0  0
   65.5550   33.0790   50.1410 C   0  0  0  0  0  0  0  0  0  0  0  0
   65.7730   33.7670   51.3390 C   0  0  0  0  0  0  0  0  0  0  0  0
   64.7320   34.4850   51.9380 C   0  0  0  0  0  0  0  0  0  0  0  0
   63.4680   34.5090   51.3430 C   0  0  0  0  0  0  0  0  0  0  0  0
   63.2430   33.8170   50.1480 C   0  0  0  0  0  0  0  0  0  0  0  0
   58.2950   31.8530   45.9350 C   0  0  0  0  0  0  0  0  0  0  0  0
   56.2597   29.0250   43.4927 H   0  0  0  0  0  0  0  0  0  0  0  0
   55.6845   30.6412   42.9599 H   0  0  0  0  0  0  0  0  0  0  0  0
   57.4416   30.2683   42.9599 H   0  0  0  0  0  0  0  0  0  0  0  0
   58.0685   28.4516   45.6506 H   0  0  0  0  0  0  0  0  0  0  0  0
   60.4154   26.3173   47.1144 H   0  0  0  0  0  0  0  0  0  0  0  0
   59.5050   27.0650   45.7583 H   0  0  0  0  0  0  0  0  0  0  0  0
   61.3011   27.0940   45.7583 H   0  0  0  0  0  0  0  0  0  0  0  0
   61.1361   30.8444   47.5487 H   0  0  0  0  0  0  0  0  0  0  0  0
   60.3844   34.4366   48.7152 H   0  0  0  0  0  0  0  0  0  0  0  0
   58.7818   34.6734   47.8976 H   0  0  0  0  0  0  0  0  0  0  0  0
   57.9391   33.4235   49.5886 H   0  0  0  0  0  0  0  0  0  0  0  0
   58.6456   32.0266   48.7127 H   0  0  0  0  0  0  0  0  0  0  0  0
   60.5460   30.9583   49.5057 H   0  0  0  0  0  0  0  0  0  0  0  0
   61.0037   31.2669   51.2317 H   0  0  0  0  0  0  0  0  0  0  0  0
   58.4519   30.1173   50.0872 H   0  0  0  0  0  0  0  0  0  0  0  0
   59.4451   29.5862   51.5040 H   0  0  0  0  0  0  0  0  0  0  0  0
   55.7222   32.2171   51.4663 H   0  0  0  0  0  0  0  0  0  0  0  0
   53.5472   31.2244   52.1709 H   0  0  0  0  0  0  0  0  0  0  0  0
   53.4983   29.0321   53.3616 H   0  0  0  0  0  0  0  0  0  0  0  0
   55.6265   27.8133   53.8247 H   0  0  0  0  0  0  0  0  0  0  0  0
   58.2871   28.6974   55.1884 H   0  0  0  0  0  0  0  0  0  0  0  0
   59.6971   28.0436   54.2878 H   0  0  0  0  0  0  0  0  0  0  0  0
   59.3721   29.8102   54.2878 H   0  0  0  0  0  0  0  0  0  0  0  0
   57.8224   32.8683   53.0766 H   0  0  0  0  0  0  0  0  0  0  0  0
   59.3982   32.0094   53.3257 H   0  0  0  0  0  0  0  0  0  0  0  0
   58.6670   34.1652   51.4052 H   0  0  0  0  0  0  0  0  0  0  0  0
   60.2744   33.6923   52.1412 H   0  0  0  0  0  0  0  0  0  0  0  0
   60.9690   33.5000   45.1647 H   0  0  0  0  0  0  0  0  0  0  0  0
   60.9330   34.9557   46.2568 H   0  0  0  0  0  0  0  0  0  0  0  0
   61.8980   32.1310   48.2020 H   0  0  0  0  0  0  0  0  0  0  0  0
   64.1388   31.2612   48.4491 H   0  0  0  0  0  0  0  0  0  0  0  0
   64.7809   32.6602   47.5096 H   0  0  0  0  0  0  0  0  0  0  0  0
   66.3792   32.5243   49.6687 H   0  0  0  0  0  0  0  0  0  0  0  0
   66.7659   33.7436   51.8118 H   0  0  0  0  0  0  0  0  0  0  0  0
   64.9087   35.0303   52.8769 H   0  0  0  0  0  0  0  0  0  0  0  0
   62.6492   35.0723   51.8144 H   0  0  0  0  0  0  0  0  0  0  0  0
   62.2465   33.8381   49.6827 H   0  0  0  0  0  0  0  0  0  0  0  0
   57.7503   32.7688   45.6617 H   0  0  0  0  0  0  0  0  0  0  0  0
  1  2  1  0
  2  3  1  0
  3  4  2  0
  4  5  1  0
  5  6  1  0
  6  7  1  0
  5  8  2  0
  8  9  1  0
  9 10  1  0
 10 11  1  0
 11 12  1  0
 12 13  1  0
 13 14  1  0
 14 15  1  0
 15 16  1  0
 16 17  1  0
 17 18  2  0
 18 19  1  0
 19 20  2  0
 20 21  1  0
 21 22  2  0
 22 23  1  0
 23 24  1  0
 16 25  1  0
 25 26  1  0
 10 27  1  0
 27 28  1  0
 28 29  2  0
 28 30  1  0
 30 31  1  0
 31 32  1  0
 32 33  2  0
 33 34  1  0
 34 35  2  0
 35 36  1  0
 36 37  2  0
  9 38  2  0
 38  3  1  0
 26 13  1  0
 37 32  1  0
 22 17  1  0
  1 39  1  0
  1 40  1  0
  1 41  1  0
  4 42  1  0
  7 43  1  0
  7 44  1  0
  7 45  1  0
  8 46  1  0
 11 47  1  0
 11 48  1  0
 12 49  1  0
 12 50  1  0
 14 51  1  0
 14 52  1  0
 15 53  1  0
 15 54  1  0
 18 55  1  0
 19 56  1  0
 20 57  1  0
 21 58  1  0
 24 59  1  0
 24 60  1  0
 24 61  1  0
 25 62  1  0
 25 63  1  0
 26 64  1  0
 26 65  1  0
 27 66  1  0
 27 67  1  0
 30 68  1  0
 31 69  1  0
 31 70  1  0
 33 71  1  0
 34 72  1  0
 35 73  1  0
 36 74  1  0
 37 75  1  0
 38 76  1  0
M  END
>  <UniqueID>  (47) 
44

>  <SMILES>  (47) 
COc1cc(OC)cc(N(CCN2CCN(c3ccccc3OC)CC2)CC(=O)NCc2ccccc2)c1

>  <Energy>  (47) 
93.53621602013197

>  <Genealogy>  (47) 
COc1cc(OC)cc(N(CCN2CCN(c3ccccc3OC)CC2)CC(=O)NCc2ccccc2)c1 (3D coordinates assigned)
COc1cc(OC)cc(N(CCN2CCN(c3ccccc3OC)CC2)CC(=O)NCc2ccccc2)c1 (nonaromatic ring conformer: 93.53621602013197 kcal/mol)

>  <smiles>  (47) 
COc1cc(OC)cc(N(CCN2CCN(c3ccccc3OC)CC2)CC(=O)NCc2ccccc2)c1

>  <score_type>  (47) 
oracle

>  <origin>  (47) 
adg

>  <m_score__min__energy>  (47) 
-9.5399999999999991

>  <m_primary>  (47) 
energy

$$$$
