0:0
     RDKit          3D

 68 71  0  0  0  0  0  0  0  0999 V2000
   57.3580   33.7267   44.1670 H   0  0  0  0  0  0  0  0  0  0  0  0
   57.8910   33.9180   45.1100 C   0  0  0  0  0  0  0  0  0  0  0  0
   58.9320   34.8460   45.1460 C   0  0  0  0  0  0  0  0  0  0  0  0
   59.2219   35.3826   44.2306 H   0  0  0  0  0  0  0  0  0  0  0  0
   59.6060   35.0940   46.3430 C   0  0  0  0  0  0  0  0  0  0  0  0
   60.4372   35.8143   46.3607 H   0  0  0  0  0  0  0  0  0  0  0  0
   59.2330   34.4320   47.5270 C   0  0  0  0  0  0  0  0  0  0  0  0
   60.0020   34.7340   48.7960 C   0  0  0  0  0  0  0  0  0  0  0  0
   61.0227   35.0433   48.5268 H   0  0  0  0  0  0  0  0  0  0  0  0
   59.4700   35.5341   49.3316 H   0  0  0  0  0  0  0  0  0  0  0  0
   60.0800   33.5670   49.6880 N   0  0  0  0  0  0  0  0  0  0  0  0
   59.8910   32.6950   49.1420 H   0  0  0  0  0  0  0  0  0  0  0  0
   61.4030   33.4500   50.3180 C   0  0  0  0  0  0  0  0  0  0  0  0
   61.3546   33.8585   51.3382 H   0  0  0  0  0  0  0  0  0  0  0  0
   61.6892   32.3882   50.3455 H   0  0  0  0  0  0  0  0  0  0  0  0
   62.4570   34.2250   49.5140 C   0  0  0  0  0  0  0  0  0  0  0  0
   61.9434   35.0094   48.9387 H   0  0  0  0  0  0  0  0  0  0  0  0
   63.1744   34.6301   50.2429 H   0  0  0  0  0  0  0  0  0  0  0  0
   63.2680   33.3580   48.5310 C   0  0  0  0  0  0  0  0  0  0  0  0
   62.9977   33.6497   47.5054 H   0  0  0  0  0  0  0  0  0  0  0  0
   64.3319   33.5326   48.7490 H   0  0  0  0  0  0  0  0  0  0  0  0
   63.0160   31.8430   48.6900 C   0  0  0  0  0  0  0  0  0  0  0  0
   63.9622   31.3518   48.9607 H   0  0  0  0  0  0  0  0  0  0  0  0
   62.2580   31.7044   49.4750 H   0  0  0  0  0  0  0  0  0  0  0  0
   62.4810   31.2110   47.3950 C   0  0  0  0  0  0  0  0  0  0  0  0
   62.9347   31.7232   46.5337 H   0  0  0  0  0  0  0  0  0  0  0  0
   62.7434   30.1428   47.3993 H   0  0  0  0  0  0  0  0  0  0  0  0
   60.9570   31.3300   47.2980 C   0  0  0  0  0  0  0  0  0  0  0  0
   60.6793   32.3934   47.2521 H   0  0  0  0  0  0  0  0  0  0  0  0
   60.6169   30.8093   46.3907 H   0  0  0  0  0  0  0  0  0  0  0  0
   60.2870   30.6850   48.5210 C   0  0  0  0  0  0  0  0  0  0  0  0
   60.9837   30.7382   49.3705 H   0  0  0  0  0  0  0  0  0  0  0  0
   59.3569   31.2391   48.7156 H   0  0  0  0  0  0  0  0  0  0  0  0
   59.9040   29.2110   48.2930 C   0  0  0  0  0  0  0  0  0  0  0  0
   60.0760   28.6606   49.2297 H   0  0  0  0  0  0  0  0  0  0  0  0
   58.8488   29.2019   47.9824 H   0  0  0  0  0  0  0  0  0  0  0  0
   60.7000   28.5220   47.1760 C   0  0  0  0  0  0  0  0  0  0  0  0
   61.6499   29.0555   47.0239 H   0  0  0  0  0  0  0  0  0  0  0  0
   60.8983   27.4795   47.4657 H   0  0  0  0  0  0  0  0  0  0  0  0
   59.9340   28.5350   45.9320 N   0  0  0  0  0  0  0  0  0  0  0  0
   58.6940   28.2230   45.6420 C   0  0  0  0  0  0  0  0  0  0  0  0
   57.9520   29.1920   44.9150 C   0  0  0  0  0  0  0  0  0  0  0  0
   58.5590   30.3560   44.3860 C   0  0  0  0  0  0  0  0  0  0  0  0
   59.6350   30.5268   44.5379 H   0  0  0  0  0  0  0  0  0  0  0  0
   57.8020   31.2920   43.6710 C   0  0  0  0  0  0  0  0  0  0  0  0
   58.2863   32.1905   43.2611 H   0  0  0  0  0  0  0  0  0  0  0  0
   56.4370   31.0890   43.4770 C   0  0  0  0  0  0  0  0  0  0  0  0
   55.8494   31.8180   42.8997 H   0  0  0  0  0  0  0  0  0  0  0  0
   55.8150   29.9610   44.0150 C   0  0  0  0  0  0  0  0  0  0  0  0
   54.7339   29.8127   43.8764 H   0  0  0  0  0  0  0  0  0  0  0  0
   56.5630   29.0170   44.7310 C   0  0  0  0  0  0  0  0  0  0  0  0
   55.9400   27.9350   45.2490 N   0  0  0  0  0  0  0  0  0  0  0  0
   56.6070   26.9560   45.9030 C   0  0  0  0  0  0  0  0  0  0  0  0
   55.8810   25.8500   46.3620 C   0  0  0  0  0  0  0  0  0  0  0  0
   54.7862   25.8326   46.2562 H   0  0  0  0  0  0  0  0  0  0  0  0
   56.5360   24.7730   46.9510 C   0  0  0  0  0  0  0  0  0  0  0  0
   55.6220   23.3790   47.4970 Cl  0  0  0  0  0  0  0  0  0  0  0  0
   57.9230   24.7850   47.0600 C   0  0  0  0  0  0  0  0  0  0  0  0
   58.4437   23.9212   47.4990 H   0  0  0  0  0  0  0  0  0  0  0  0
   58.6590   25.8860   46.6160 C   0  0  0  0  0  0  0  0  0  0  0  0
   59.7566   25.8645   46.6853 H   0  0  0  0  0  0  0  0  0  0  0  0
   58.0190   27.0300   46.0780 C   0  0  0  0  0  0  0  0  0  0  0  0
   58.1810   33.4800   47.4850 C   0  0  0  0  0  0  0  0  0  0  0  0
   57.7770   32.7410   48.6490 N   0  0  0  0  0  0  0  0  0  0  0  0
   56.7940   32.7260   48.9910 H   0  0  0  0  0  0  0  0  0  0  0  0
   58.4800   32.1870   49.1910 H   0  0  0  0  0  0  0  0  0  0  0  0
   57.5250   33.2320   46.2690 C   0  0  0  0  0  0  0  0  0  0  0  0
   56.7143   32.4895   46.2292 H   0  0  0  0  0  0  0  0  0  0  0  0
  1  2  1  0
  2  3  2  0
  3  4  1  0
  3  5  1  0
  5  6  1  0
  5  7  2  0
  7  8  1  0
  8  9  1  0
  8 10  1  0
  8 11  1  0
 11 12  1  0
 11 13  1  0
 13 14  1  0
 13 15  1  0
 13 16  1  0
 16 17  1  0
 16 18  1  0
 16 19  1  0
 19 20  1  0
 19 21  1  0
 19 22  1  0
 22 23  1  0
 22 24  1  0
 22 25  1  0
 25 26  1  0
 25 27  1  0
 25 28  1  0
 28 29  1  0
 28 30  1  0
 28 31  1  0
 31 32  1  0
 31 33  1  0
 31 34  1  0
 34 35  1  0
 34 36  1  0
 34 37  1  0
 37 38  1  0
 37 39  1  0
 37 40  1  0
 40 41  2  0
 41 42  1  0
 42 43  2  0
 43 44  1  0
 43 45  1  0
 45 46  1  0
 45 47  2  0
 47 48  1  0
 47 49  1  0
 49 50  1  0
 49 51  2  0
 51 52  1  0
 52 53  1  0
 53 54  2  0
 54 55  1  0
 54 56  1  0
 56 57  1  0
 56 58  2  0
 58 59  1  0
 58 60  1  0
 60 61  1  0
 60 62  2  0
  7 63  1  0
 63 64  1  0
 64 65  1  0
 64 66  1  0
 63 67  2  0
 67 68  1  0
 67  2  1  0
 62 41  1  0
 51 42  1  0
 62 53  1  0
M  CHG  1  52  -1
M  END
>  <UniqueID>  (1) 
1

>  <SMILES>  (1) 
Nc1ccccc1CNCCCCCCCCC/N=c1/c2ccccc2[n-]c2cc(Cl)ccc12

>  <Energy>  (1) 
79.15018566109877

>  <Genealogy>  (1) 
Nc1ccccc1CNCCCCCCCCCN=c1c2ccccc2[n-]c2cc(Cl)ccc12 (protonated)
Nc1ccccc1CNCCCCCCCCC/N=c1/c2ccccc2[n-]c2cc(Cl)ccc12 (cis-trans isomerization)
Nc1ccccc1CNCCCCCCCCC/N=c1/c2ccccc2[n-]c2cc(Cl)ccc12 (3D coordinates assigned)
Nc1ccccc1CNCCCCCCCCC/N=c1/c2ccccc2[n-]c2cc(Cl)ccc12 (optimized conformer: 79.15018566109877 kcal/mol)

>  <smiles>  (1) 
Nc1ccccc1CNCCCCCCCCCN=c1c2ccccc2[nH]c2cc(Cl)ccc12

>  <score_type>  (1) 
oracle

>  <origin>  (1) 
adg

>  <m_score__min__energy>  (1) 
-10.26

>  <m_primary>  (1) 
energy

$$$$
1:0
     RDKit          3D

 23 25  0  0  0  0  0  0  0  0999 V2000
   51.3100   32.2440   48.4810 H   0  0  0  0  0  0  0  0  0  0  0  0
   50.7460   32.3400   49.3560 N   0  0  0  0  0  0  0  0  0  0  0  0
   51.2200   31.9760   50.5020 C   0  0  0  0  0  0  0  0  0  0  0  0
   52.3430   31.2290   50.6180 N   0  0  0  0  0  0  0  0  0  0  0  0
   52.4620   31.0960   51.9490 C   0  0  0  0  0  0  0  0  0  0  0  0
   51.4390   31.7360   52.5810 C   0  0  0  0  0  0  0  0  0  0  0  0
   50.6410   32.3260   51.6770 N   0  0  0  0  0  0  0  0  0  0  0  0
   51.3770   31.8970   54.0680 C   0  0  0  0  0  0  0  0  0  0  0  0
   50.3239   31.9152   54.3852 H   0  0  0  0  0  0  0  0  0  0  0  0
   51.8755   32.8385   54.3419 H   0  0  0  0  0  0  0  0  0  0  0  0
   52.1010   30.7270   54.7780 C   0  0  0  0  0  0  0  0  0  0  0  0
   51.4201   29.8636   54.8076 H   0  0  0  0  0  0  0  0  0  0  0  0
   52.3740   31.0797   55.7835 H   0  0  0  0  0  0  0  0  0  0  0  0
   53.3920   30.2990   54.0890 C   0  0  0  0  0  0  0  0  0  0  0  0
   54.4040   29.6650   54.8260 C   0  0  0  0  0  0  0  0  0  0  0  0
   54.2972   29.5477   55.9145 H   0  0  0  0  0  0  0  0  0  0  0  0
   55.5470   29.1820   54.1830 C   0  0  0  0  0  0  0  0  0  0  0  0
   56.3428   28.6993   54.7693 H   0  0  0  0  0  0  0  0  0  0  0  0
   55.6830   29.3100   52.7970 C   0  0  0  0  0  0  0  0  0  0  0  0
   56.5846   28.9273   52.2963 H   0  0  0  0  0  0  0  0  0  0  0  0
   54.6760   29.9230   52.0470 C   0  0  0  0  0  0  0  0  0  0  0  0
   54.7821   30.0187   50.9563 H   0  0  0  0  0  0  0  0  0  0  0  0
   53.5300   30.4160   52.6870 C   0  0  0  0  0  0  0  0  0  0  0  0
  1  2  1  0
  2  3  2  0
  3  4  1  0
  4  5  1  0
  5  6  2  0
  6  7  1  0
  6  8  1  0
  8  9  1  0
  8 10  1  0
  8 11  1  0
 11 12  1  0
 11 13  1  0
 11 14  1  0
 14 15  2  0
 15 16  1  0
 15 17  1  0
 17 18  1  0
 17 19  2  0
 19 20  1  0
 19 21  1  0
 21 22  1  0
 21 23  2  0
  7  3  1  0
 23 14  1  0
 23  5  1  0
M  CHG  2   4  -1   7  -1
M  END
>  <UniqueID>  (2) 
2

>  <SMILES>  (2) 
[H]/N=c1\[n-]c2c([n-]1)-c1ccccc1CC2

>  <Energy>  (2) 
58.43344215124458

>  <Genealogy>  (2) 
N=c1[n-]c2c([n-]1)-c1ccccc1CC2 (protonated)
[H]/N=c1\[n-]c2c([n-]1)-c1ccccc1CC2 (cis-trans isomerization)
[H]/N=c1\[n-]c2c([n-]1)-c1ccccc1CC2 (3D coordinates assigned)
[H]/N=c1\[n-]c2c([n-]1)-c1ccccc1CC2 (nonaromatic ring conformer: 58.43344215124458 kcal/mol)

>  <smiles>  (2) 
N=c1[nH]c2c([nH]1)-c1ccccc1CC2

>  <score_type>  (2) 
oracle

>  <origin>  (2) 
adg

>  <m_score__min__energy>  (2) 
-10.880000000000001

>  <m_primary>  (2) 
energy

$$$$
2:0
     RDKit          3D

 31 32  0  0  0  0  0  0  0  0999 V2000
   61.4400   33.8180   46.7090 C   0  0  0  0  0  0  0  0  0  0  0  0
   60.1650   33.8930   46.3230 C   0  0  0  0  0  0  0  0  0  0  0  0
   59.1480   32.9070   46.8260 C   0  0  0  0  0  0  0  0  0  0  0  0
   57.4490   33.4330   46.4080 S   0  0  0  0  0  0  0  0  0  0  0  0
   57.3670   32.4350   44.9250 C   0  0  0  0  0  0  0  0  0  0  0  0
   57.8180   32.8340   43.7220 N   0  0  0  0  0  0  0  0  0  0  0  0
   57.5470   31.8490   42.8820 N   0  0  0  0  0  0  0  0  0  0  0  0
   56.9440   30.8900   43.6090 C   0  0  0  0  0  0  0  0  0  0  0  0
   56.4060   29.6120   43.0360 C   0  0  0  0  0  0  0  0  0  0  0  0
   57.3920   28.5230   43.1260 N   0  0  0  0  0  0  0  0  0  0  0  0
   58.0600   28.5200   44.4070 C   0  0  0  0  0  0  0  0  0  0  0  0
   59.3760   29.0050   44.5250 C   0  0  0  0  0  0  0  0  0  0  0  0
   60.0340   28.9680   45.7580 C   0  0  0  0  0  0  0  0  0  0  0  0
   59.3900   28.4410   46.8810 C   0  0  0  0  0  0  0  0  0  0  0  0
   58.0860   27.9510   46.7740 C   0  0  0  0  0  0  0  0  0  0  0  0
   57.4230   27.9890   45.5440 C   0  0  0  0  0  0  0  0  0  0  0  0
   56.8350   31.2400   44.8670 O   0  0  0  0  0  0  0  0  0  0  0  0
   62.1725   34.5470   46.3322 H   0  0  0  0  0  0  0  0  0  0  0  0
   61.7586   33.0272   47.4041 H   0  0  0  0  0  0  0  0  0  0  0  0
   59.8541   34.6866   45.6277 H   0  0  0  0  0  0  0  0  0  0  0  0
   59.3424   31.9263   46.3672 H   0  0  0  0  0  0  0  0  0  0  0  0
   59.2335   32.8486   47.9211 H   0  0  0  0  0  0  0  0  0  0  0  0
   55.5025   29.3230   43.5930 H   0  0  0  0  0  0  0  0  0  0  0  0
   56.1743   29.7807   41.9740 H   0  0  0  0  0  0  0  0  0  0  0  0
   58.0890   28.6100   42.3490 H   0  0  0  0  0  0  0  0  0  0  0  0
   56.8960   27.6110   42.9950 H   0  0  0  0  0  0  0  0  0  0  0  0
   59.8893   29.4152   43.6428 H   0  0  0  0  0  0  0  0  0  0  0  0
   61.0603   29.3543   45.8445 H   0  0  0  0  0  0  0  0  0  0  0  0
   59.9102   28.4120   47.8498 H   0  0  0  0  0  0  0  0  0  0  0  0
   57.5808   27.5351   47.6582 H   0  0  0  0  0  0  0  0  0  0  0  0
   56.3967   27.6013   45.4643 H   0  0  0  0  0  0  0  0  0  0  0  0
  1  2  2  0
  2  3  1  0
  3  4  1  0
  4  5  1  0
  5  6  2  0
  6  7  1  0
  7  8  2  0
  8  9  1  0
  9 10  1  0
 10 11  1  0
 11 12  2  0
 12 13  1  0
 13 14  2  0
 14 15  1  0
 15 16  2  0
  8 17  1  0
 17  5  1  0
 16 11  1  0
  1 18  1  0
  1 19  1  0
  2 20  1  0
  3 21  1  0
  3 22  1  0
  9 23  1  0
  9 24  1  0
 10 25  1  0
 10 26  1  0
 12 27  1  0
 13 28  1  0
 14 29  1  0
 15 30  1  0
 16 31  1  0
M  CHG  1  10   1
M  END
>  <UniqueID>  (3) 
3

>  <SMILES>  (3) 
C=CCSc1nnc(C[NH2+]c2ccccc2)o1

>  <Energy>  (3) 
57.80626462709495

>  <Genealogy>  (3) 
C=CCSc1nnc(C[NH2+]c2ccccc2)o1 (protonated)
C=CCSc1nnc(C[NH2+]c2ccccc2)o1 (3D coordinates assigned)
C=CCSc1nnc(C[NH2+]c2ccccc2)o1 (optimized conformer: 57.80626462709495 kcal/mol)

>  <smiles>  (3) 
C=CCSc1nnc(CNc2ccccc2)o1

>  <score_type>  (3) 
oracle

>  <origin>  (3) 
adg

>  <m_score__min__energy>  (3) 
-5.5599999999999996

>  <m_primary>  (3) 
energy

$$$$
3:0
     RDKit          3D

 30 31  0  0  0  0  0  0  0  0999 V2000
   57.9895   31.8021   42.4999 H   0  0  0  0  0  0  0  0  0  0  0  0
   57.6140   31.9020   43.5290 C   0  0  0  0  0  0  0  0  0  0  0  0
   57.7680   33.0930   44.1280 C   0  0  0  0  0  0  0  0  0  0  0  0
   57.3902   33.9794   43.5974 H   0  0  0  0  0  0  0  0  0  0  0  0
   58.4050   33.3080   45.4440 C   0  0  0  0  0  0  0  0  0  0  0  0
   59.2180   34.4300   45.6380 C   0  0  0  0  0  0  0  0  0  0  0  0
   59.3487   35.1577   44.8235 H   0  0  0  0  0  0  0  0  0  0  0  0
   59.8650   34.6320   46.8600 C   0  0  0  0  0  0  0  0  0  0  0  0
   60.4858   35.5287   47.0034 H   0  0  0  0  0  0  0  0  0  0  0  0
   59.7330   33.7020   47.9120 C   0  0  0  0  0  0  0  0  0  0  0  0
   60.4010   33.9120   49.1830 N   0  0  0  0  0  0  0  0  0  0  0  0
   59.6540   33.8220   50.4450 C   0  0  0  0  0  0  0  0  0  0  0  0
   60.3520   33.9061   51.2910 H   0  0  0  0  0  0  0  0  0  0  0  0
   58.9179   34.6380   50.4944 H   0  0  0  0  0  0  0  0  0  0  0  0
   59.1328   32.8546   50.4944 H   0  0  0  0  0  0  0  0  0  0  0  0
   61.8360   34.2170   49.2310 C   0  0  0  0  0  0  0  0  0  0  0  0
   62.1613   34.2861   50.2795 H   0  0  0  0  0  0  0  0  0  0  0  0
   62.3978   33.4182   48.7247 H   0  0  0  0  0  0  0  0  0  0  0  0
   62.0243   35.1752   48.7247 H   0  0  0  0  0  0  0  0  0  0  0  0
   58.9380   32.5580   47.6930 C   0  0  0  0  0  0  0  0  0  0  0  0
   58.8243   31.8139   48.4951 H   0  0  0  0  0  0  0  0  0  0  0  0
   58.2930   32.3580   46.4700 C   0  0  0  0  0  0  0  0  0  0  0  0
   57.6934   31.4497   46.3106 H   0  0  0  0  0  0  0  0  0  0  0  0
   56.9820   30.7150   44.1380 C   0  0  0  0  0  0  0  0  0  0  0  0
   57.6240   29.7650   44.8410 N   0  0  0  0  0  0  0  0  0  0  0  0
   56.6360   28.9410   45.2470 C   0  0  0  0  0  0  0  0  0  0  0  0
   56.8153   28.0350   45.8445 H   0  0  0  0  0  0  0  0  0  0  0  0
   55.4070   29.3330   44.8510 N   0  0  0  0  0  0  0  0  0  0  0  0
   55.6320   30.4600   44.1550 C   0  0  0  0  0  0  0  0  0  0  0  0
   54.8594   31.0792   43.6757 H   0  0  0  0  0  0  0  0  0  0  0  0
  1  2  1  0
  2  3  2  0
  3  4  1  0
  3  5  1  0
  5  6  2  0
  6  7  1  0
  6  8  1  0
  8  9  1  0
  8 10  2  0
 10 11  1  0
 11 12  1  0
 12 13  1  0
 12 14  1  0
 12 15  1  0
 11 16  1  0
 16 17  1  0
 16 18  1  0
 16 19  1  0
 10 20  1  0
 20 21  1  0
 20 22  2  0
 22 23  1  0
  2 24  1  0
 24 25  1  0
 25 26  2  0
 26 27  1  0
 26 28  1  0
 28 29  1  0
 29 30  1  0
 22  5  1  0
 29 24  2  0
M  CHG  1  28  -1
M  END
>  <UniqueID>  (4) 
4

>  <SMILES>  (4) 
CN(C)c1ccc(/C=C\c2c[n-]cn2)cc1

>  <Energy>  (4) 
66.1511870358692

>  <Genealogy>  (4) 
CN(C)c1ccc(C=Cc2c[n-]cn2)cc1 (protonated)
CN(C)c1ccc(/C=C\c2c[n-]cn2)cc1 (cis-trans isomerization)
CN(C)c1ccc(/C=C\c2c[n-]cn2)cc1 (3D coordinates assigned)
CN(C)c1ccc(/C=C\c2c[n-]cn2)cc1 (optimized conformer: 66.1511870358692 kcal/mol)

>  <smiles>  (4) 
CN(C)c1ccc(C=Cc2c[nH]cn2)cc1

>  <score_type>  (4) 
oracle

>  <origin>  (4) 
adg

>  <m_score__min__energy>  (4) 
-7.7400000000000002

>  <m_primary>  (4) 
energy

$$$$
4:0
     RDKit          3D

 30 32  0  0  0  0  0  0  0  0999 V2000
   56.5810   29.6900   43.0730 C   0  0  0  0  0  0  0  0  0  0  0  0
   57.0750   30.9570   43.5940 N   0  0  0  0  0  0  0  0  0  0  0  0
   57.7690   31.8770   42.9010 C   0  0  0  0  0  0  0  0  0  0  0  0
   58.1370   32.8870   43.7650 C   0  0  0  0  0  0  0  0  0  0  0  0
   57.6200   32.5010   44.9910 C   0  0  0  0  0  0  0  0  0  0  0  0
   57.7900   33.1910   46.2810 C   0  0  0  0  0  0  0  0  0  0  0  0
   56.7600   33.4730   46.9500 O   0  0  0  0  0  0  0  0  0  0  0  0
   59.0850   33.5690   46.7840 N   0  0  0  0  0  0  0  0  0  0  0  0
   59.3910   33.7670   48.2070 C   0  0  0  0  0  0  0  0  0  0  0  0
   60.8730   33.7820   48.2330 C   0  0  0  0  0  0  0  0  0  0  0  0
   61.7230   33.9390   49.3250 C   0  0  0  0  0  0  0  0  0  0  0  0
   63.1070   33.9270   49.0930 C   0  0  0  0  0  0  0  0  0  0  0  0
   63.5910   33.7610   47.7800 C   0  0  0  0  0  0  0  0  0  0  0  0
   62.7210   33.6120   46.7380 N   0  0  0  0  0  0  0  0  0  0  0  0
   61.3820   33.6260   46.9710 C   0  0  0  0  0  0  0  0  0  0  0  0
   60.3020   33.4680   45.9720 C   0  0  0  0  0  0  0  0  0  0  0  0
   56.9980   31.3100   44.8660 N   0  0  0  0  0  0  0  0  0  0  0  0
   56.3218   29.0253   43.9103 H   0  0  0  0  0  0  0  0  0  0  0  0
   55.6872   29.8701   42.4576 H   0  0  0  0  0  0  0  0  0  0  0  0
   57.3608   29.2176   42.4576 H   0  0  0  0  0  0  0  0  0  0  0  0
   58.0034   31.8317   41.8272 H   0  0  0  0  0  0  0  0  0  0  0  0
   58.7121   33.7955   43.5327 H   0  0  0  0  0  0  0  0  0  0  0  0
   58.9800   34.7204   48.5704 H   0  0  0  0  0  0  0  0  0  0  0  0
   58.9549   32.9925   48.8550 H   0  0  0  0  0  0  0  0  0  0  0  0
   61.3209   34.0687   50.3406 H   0  0  0  0  0  0  0  0  0  0  0  0
   63.8096   34.0464   49.9309 H   0  0  0  0  0  0  0  0  0  0  0  0
   64.6750   33.7514   47.5935 H   0  0  0  0  0  0  0  0  0  0  0  0
   63.0850   33.4860   45.7670 H   0  0  0  0  0  0  0  0  0  0  0  0
   60.3413   34.2673   45.2173 H   0  0  0  0  0  0  0  0  0  0  0  0
   60.3689   32.5271   45.4060 H   0  0  0  0  0  0  0  0  0  0  0  0
  1  2  1  0
  2  3  1  0
  3  4  2  0
  4  5  1  0
  5  6  1  0
  6  7  2  0
  6  8  1  0
  8  9  1  0
  9 10  1  0
 10 11  2  0
 11 12  1  0
 12 13  2  0
 13 14  1  0
 14 15  2  0
 15 16  1  0
  5 17  2  0
 17  2  1  0
 16  8  1  0
 15 10  1  0
  1 18  1  0
  1 19  1  0
  1 20  1  0
  3 21  1  0
  4 22  1  0
  9 23  1  0
  9 24  1  0
 11 25  1  0
 12 26  1  0
 13 27  1  0
 14 28  1  0
 16 29  1  0
 16 30  1  0
M  CHG  1  14   1
M  END
>  <UniqueID>  (5) 
5

>  <SMILES>  (5) 
Cn1ccc(C(=O)N2Cc3ccc[nH+]c3C2)n1

>  <Energy>  (5) 
74.11641701842977

>  <Genealogy>  (5) 
Cn1ccc(C(=O)N2Cc3ccc[nH+]c3C2)n1 (protonated)
Cn1ccc(C(=O)N2Cc3ccc[nH+]c3C2)n1 (3D coordinates assigned)
Cn1ccc(C(=O)N2Cc3ccc[nH+]c3C2)n1 (nonaromatic ring conformer: 74.11641701842977 kcal/mol)

>  <smiles>  (5) 
Cn1ccc(C(=O)N2Cc3cccnc3C2)n1

>  <score_type>  (5) 
oracle

>  <origin>  (5) 
adg

>  <m_score__min__energy>  (5) 
-5.0899999999999999

>  <m_primary>  (5) 
energy

$$$$
5:0
     RDKit          3D

 40 43  0  0  0  0  0  0  0  0999 V2000
   60.4390   30.5960   46.3830 C   0  0  0  0  0  0  0  0  0  0  0  0
   59.3790   29.8190   45.6570 C   0  0  0  0  0  0  0  0  0  0  0  0
   59.5820   28.4600   45.3580 C   0  0  0  0  0  0  0  0  0  0  0  0
   58.5560   27.7360   44.7210 C   0  0  0  0  0  0  0  0  0  0  0  0
   57.3790   28.3430   44.3980 N   0  0  0  0  0  0  0  0  0  0  0  0
   57.2220   29.6580   44.6850 C   0  0  0  0  0  0  0  0  0  0  0  0
   56.1150   30.3760   44.4390 N   0  0  0  0  0  0  0  0  0  0  0  0
   56.3770   31.6040   44.8720 N   0  0  0  0  0  0  0  0  0  0  0  0
   57.6350   31.6040   45.3700 C   0  0  0  0  0  0  0  0  0  0  0  0
   58.2850   32.8190   45.8790 C   0  0  0  0  0  0  0  0  0  0  0  0
   58.7370   33.7950   44.9820 C   0  0  0  0  0  0  0  0  0  0  0  0
   59.4020   34.9290   45.4560 C   0  0  0  0  0  0  0  0  0  0  0  0
   59.6270   35.0870   46.8260 C   0  0  0  0  0  0  0  0  0  0  0  0
   59.1790   34.1200   47.7380 C   0  0  0  0  0  0  0  0  0  0  0  0
   59.4690   34.2860   49.1370 N   0  0  0  0  0  0  0  0  0  0  0  0
   59.6240   33.2000   50.0680 C   0  0  0  0  0  0  0  0  0  0  0  0
   59.4770   32.0080   49.6850 O   0  0  0  0  0  0  0  0  0  0  0  0
   59.9570   33.4580   51.4850 C   0  0  0  0  0  0  0  0  0  0  0  0
   61.2920   33.3380   51.9120 C   0  0  0  0  0  0  0  0  0  0  0  0
   61.6330   33.5800   53.2460 C   0  0  0  0  0  0  0  0  0  0  0  0
   60.6460   33.9310   54.1690 C   0  0  0  0  0  0  0  0  0  0  0  0
   59.3140   34.0340   53.7610 C   0  0  0  0  0  0  0  0  0  0  0  0
   58.9630   33.7950   52.4280 C   0  0  0  0  0  0  0  0  0  0  0  0
   57.6530   33.8390   52.0770 F   0  0  0  0  0  0  0  0  0  0  0  0
   58.5270   32.9710   47.2520 C   0  0  0  0  0  0  0  0  0  0  0  0
   58.1920   30.3760   45.2690 N   0  0  0  0  0  0  0  0  0  0  0  0
   60.2934   30.4893   47.4681 H   0  0  0  0  0  0  0  0  0  0  0  0
   61.4311   30.2096   46.1064 H   0  0  0  0  0  0  0  0  0  0  0  0
   60.3691   31.6584   46.1064 H   0  0  0  0  0  0  0  0  0  0  0  0
   60.5309   27.9685   45.6186 H   0  0  0  0  0  0  0  0  0  0  0  0
   58.7054   26.6727   44.4822 H   0  0  0  0  0  0  0  0  0  0  0  0
   58.5682   33.6687   43.9024 H   0  0  0  0  0  0  0  0  0  0  0  0
   59.7487   35.6980   44.7499 H   0  0  0  0  0  0  0  0  0  0  0  0
   60.1598   35.9769   47.1923 H   0  0  0  0  0  0  0  0  0  0  0  0
   59.5270   35.2650   49.4950 H   0  0  0  0  0  0  0  0  0  0  0  0
   62.0726   33.0519   51.1917 H   0  0  0  0  0  0  0  0  0  0  0  0
   62.6809   33.4937   53.5691 H   0  0  0  0  0  0  0  0  0  0  0  0
   60.9172   34.1263   55.2170 H   0  0  0  0  0  0  0  0  0  0  0  0
   58.5372   34.3044   54.4914 H   0  0  0  0  0  0  0  0  0  0  0  0
   58.2052   32.1873   47.9536 H   0  0  0  0  0  0  0  0  0  0  0  0
  1  2  1  0
  2  3  2  0
  3  4  1  0
  4  5  2  0
  5  6  1  0
  6  7  2  0
  7  8  1  0
  8  9  2  0
  9 10  1  0
 10 11  2  0
 11 12  1  0
 12 13  2  0
 13 14  1  0
 14 15  1  0
 15 16  1  0
 16 17  2  0
 16 18  1  0
 18 19  2  0
 19 20  1  0
 20 21  2  0
 21 22  1  0
 22 23  2  0
 23 24  1  0
 14 25  2  0
  9 26  1  0
 26  2  1  0
 26  6  1  0
 25 10  1  0
 23 18  1  0
  1 27  1  0
  1 28  1  0
  1 29  1  0
  3 30  1  0
  4 31  1  0
 11 32  1  0
 12 33  1  0
 13 34  1  0
 15 35  1  0
 19 36  1  0
 20 37  1  0
 21 38  1  0
 22 39  1  0
 25 40  1  0
M  END
>  <UniqueID>  (6) 
6

>  <SMILES>  (6) 
Cc1ccnc2nnc(-c3cccc(NC(=O)c4ccccc4F)c3)n12

>  <Energy>  (6) 
103.50452835038361

>  <Genealogy>  (6) 
Cc1ccnc2nnc(-c3cccc(NC(=O)c4ccccc4F)c3)n12 (3D coordinates assigned)
Cc1ccnc2nnc(-c3cccc(NC(=O)c4ccccc4F)c3)n12 (optimized conformer: 103.50452835038361 kcal/mol)

>  <smiles>  (6) 
Cc1ccnc2nnc(-c3cccc(NC(=O)c4ccccc4F)c3)n12

>  <score_type>  (6) 
oracle

>  <origin>  (6) 
adg

>  <m_score__min__energy>  (6) 
-8.5999999999999996

>  <m_primary>  (6) 
energy

$$$$
6:0
     RDKit          3D

 28 30  0  0  0  0  0  0  0  0999 V2000
   57.5300   20.7560   48.4090 N   0  0  0  0  0  0  0  0  0  0  0  0
   56.6570   20.7850   47.2820 C   0  0  0  0  0  0  0  0  0  0  0  0
   56.4220   19.7140   46.6600 O   0  0  0  0  0  0  0  0  0  0  0  0
   56.0350   22.0560   46.8450 C   0  0  0  0  0  0  0  0  0  0  0  0
   54.6700   22.0890   46.4540 C   0  0  0  0  0  0  0  0  0  0  0  0
   54.0640   23.2910   46.0510 C   0  0  0  0  0  0  0  0  0  0  0  0
   54.8390   24.4450   46.0360 C   0  0  0  0  0  0  0  0  0  0  0  0
   54.4210   25.6820   45.7070 N   0  0  0  0  0  0  0  0  0  0  0  0
   55.5210   26.4540   45.8650 C   0  0  0  0  0  0  0  0  0  0  0  0
   55.5250   27.8190   45.6070 O   0  0  0  0  0  0  0  0  0  0  0  0
   56.6260   25.7220   46.2850 C   0  0  0  0  0  0  0  0  0  0  0  0
   57.9900   26.2330   46.5440 C   0  0  0  0  0  0  0  0  0  0  0  0
   59.1130   25.4920   46.1380 C   0  0  0  0  0  0  0  0  0  0  0  0
   60.4030   25.9710   46.3880 C   0  0  0  0  0  0  0  0  0  0  0  0
   60.5830   27.1890   47.0480 C   0  0  0  0  0  0  0  0  0  0  0  0
   59.4720   27.9280   47.4640 C   0  0  0  0  0  0  0  0  0  0  0  0
   58.1810   27.4520   47.2160 C   0  0  0  0  0  0  0  0  0  0  0  0
   56.1640   24.4250   46.3930 C   0  0  0  0  0  0  0  0  0  0  0  0
   56.7910   23.2520   46.8190 C   0  0  0  0  0  0  0  0  0  0  0  0
   57.5190   21.5230   49.1180 H   0  0  0  0  0  0  0  0  0  0  0  0
   54.0793   21.1612   46.4668 H   0  0  0  0  0  0  0  0  0  0  0  0
   53.0048   23.3181   45.7553 H   0  0  0  0  0  0  0  0  0  0  0  0
   58.9767   24.5306   45.6211 H   0  0  0  0  0  0  0  0  0  0  0  0
   61.2775   25.3875   46.0643 H   0  0  0  0  0  0  0  0  0  0  0  0
   61.5983   27.5662   47.2401 H   0  0  0  0  0  0  0  0  0  0  0  0
   59.6135   28.8852   47.9871 H   0  0  0  0  0  0  0  0  0  0  0  0
   57.3098   28.0352   47.5489 H   0  0  0  0  0  0  0  0  0  0  0  0
   57.8470   23.2576   47.1269 H   0  0  0  0  0  0  0  0  0  0  0  0
  1  2  1  0
  2  3  2  0
  2  4  1  0
  4  5  2  0
  5  6  1  0
  6  7  2  0
  7  8  1  0
  8  9  1  0
  9 10  1  0
  9 11  2  0
 11 12  1  0
 12 13  2  0
 13 14  1  0
 14 15  2  0
 15 16  1  0
 16 17  2  0
 11 18  1  0
 18 19  2  0
 19  4  1  0
 18  7  1  0
 17 12  1  0
  1 20  1  0
  5 21  1  0
  6 22  1  0
 13 23  1  0
 14 24  1  0
 15 25  1  0
 16 26  1  0
 17 27  1  0
 19 28  1  0
M  CHG  3   1  -1   8  -1  10  -1
M  END
>  <UniqueID>  (7) 
7

>  <SMILES>  (7) 
[NH-]C(=O)c1ccc2[n-]c([O-])c(-c3ccccc3)c2c1

>  <Energy>  (7) 
68.8405867178966

>  <Genealogy>  (7) 
[NH-]C(=O)c1ccc2[n-]c([O-])c(-c3ccccc3)c2c1 (protonated)
[NH-]C(=O)c1ccc2[n-]c([O-])c(-c3ccccc3)c2c1 (3D coordinates assigned)
[NH-]C(=O)c1ccc2[n-]c([O-])c(-c3ccccc3)c2c1 (optimized conformer: 68.8405867178966 kcal/mol)

>  <smiles>  (7) 
NC(=O)c1ccc2[nH]c(O)c(-c3ccccc3)c2c1

>  <score_type>  (7) 
oracle

>  <origin>  (7) 
adg

>  <m_score__min__energy>  (7) 
-12.039999999999999

>  <m_primary>  (7) 
energy

$$$$
7:0
     RDKit          3D

 58 61  0  0  0  0  0  0  0  0999 V2000
   66.4150   32.6330   50.2790 C   0  0  0  0  0  0  0  0  0  0  0  0
   65.6240   33.0950   49.1870 O   0  0  0  0  0  0  0  0  0  0  0  0
   64.2820   32.7450   48.9780 C   0  0  0  0  0  0  0  0  0  0  0  0
   63.4760   32.5080   50.0950 C   0  0  0  0  0  0  0  0  0  0  0  0
   62.1320   32.1540   49.9400 C   0  0  0  0  0  0  0  0  0  0  0  0
   61.5660   32.0400   48.6610 C   0  0  0  0  0  0  0  0  0  0  0  0
   60.1090   31.6380   48.5500 C   0  0  0  0  0  0  0  0  0  0  0  0
   59.3550   32.4380   47.5520 N   0  0  0  0  0  0  0  0  0  0  0  0
   59.3900   33.8180   47.6240 C   0  0  0  0  0  0  0  0  0  0  0  0
   60.2750   34.5540   48.6060 C   0  0  0  0  0  0  0  0  0  0  0  0
   58.5620   34.5890   46.7990 C   0  0  0  0  0  0  0  0  0  0  0  0
   57.7460   33.9800   45.8580 C   0  0  0  0  0  0  0  0  0  0  0  0
   57.0020   34.6990   45.1350 O   0  0  0  0  0  0  0  0  0  0  0  0
   57.7750   32.5870   45.7090 C   0  0  0  0  0  0  0  0  0  0  0  0
   56.9980   31.9550   44.7200 C   0  0  0  0  0  0  0  0  0  0  0  0
   57.0680   30.5700   44.5140 C   0  0  0  0  0  0  0  0  0  0  0  0
   56.3030   29.9690   43.4540 N   0  0  0  0  0  0  0  0  0  0  0  0
   56.7840   29.8740   42.3050 O   0  0  0  0  0  0  0  0  0  0  0  0
   55.1010   29.3550   43.7180 O   0  0  0  0  0  0  0  0  0  0  0  0
   57.9260   29.8020   45.3270 C   0  0  0  0  0  0  0  0  0  0  0  0
   58.0060   28.3770   45.1800 N   0  0  0  0  0  0  0  0  0  0  0  0
   58.8720   27.7960   44.1480 C   0  0  0  0  0  0  0  0  0  0  0  0
   58.1380   26.6530   43.4410 C   0  0  0  0  0  0  0  0  0  0  0  0
   57.6000   25.5850   44.4210 C   0  0  0  0  0  0  0  0  0  0  0  0
   57.5750   26.0450   45.8960 C   0  0  2  0  0  0  0  0  0  0  0  0
   56.6620   25.1470   46.7370 C   0  0  0  0  0  0  0  0  0  0  0  0
   57.1550   27.5200   46.0170 C   0  0  0  0  0  0  0  0  0  0  0  0
   58.6870   30.4220   46.3240 C   0  0  0  0  0  0  0  0  0  0  0  0
   58.6140   31.8170   46.5560 C   0  0  0  0  0  0  0  0  0  0  0  0
   62.3780   32.2780   47.5350 C   0  0  0  0  0  0  0  0  0  0  0  0
   63.7230   32.6260   47.6920 C   0  0  0  0  0  0  0  0  0  0  0  0
   65.9324   32.9149   51.2264 H   0  0  0  0  0  0  0  0  0  0  0  0
   66.5086   31.5382   50.2267 H   0  0  0  0  0  0  0  0  0  0  0  0
   67.4145   33.0893   50.2267 H   0  0  0  0  0  0  0  0  0  0  0  0
   63.9025   32.6007   51.1047 H   0  0  0  0  0  0  0  0  0  0  0  0
   61.5128   31.9631   50.8289 H   0  0  0  0  0  0  0  0  0  0  0  0
   60.0601   30.5787   48.2577 H   0  0  0  0  0  0  0  0  0  0  0  0
   59.6449   31.8183   49.5309 H   0  0  0  0  0  0  0  0  0  0  0  0
   59.9719   34.3020   49.6330 H   0  0  0  0  0  0  0  0  0  0  0  0
   61.3225   34.2570   48.4495 H   0  0  0  0  0  0  0  0  0  0  0  0
   60.1739   35.6381   48.4495 H   0  0  0  0  0  0  0  0  0  0  0  0
   58.5589   35.6845   46.8981 H   0  0  0  0  0  0  0  0  0  0  0  0
   56.3227   32.5595   44.0966 H   0  0  0  0  0  0  0  0  0  0  0  0
   59.1356   28.5710   43.4132 H   0  0  0  0  0  0  0  0  0  0  0  0
   59.7868   27.4057   44.6179 H   0  0  0  0  0  0  0  0  0  0  0  0
   57.2901   27.0740   42.8808 H   0  0  0  0  0  0  0  0  0  0  0  0
   58.8617   26.1569   42.7775 H   0  0  0  0  0  0  0  0  0  0  0  0
   56.5738   25.3257   44.1216 H   0  0  0  0  0  0  0  0  0  0  0  0
   58.2856   24.7265   44.3657 H   0  0  0  0  0  0  0  0  0  0  0  0
   58.5987   25.9550   46.2885 H   0  0  0  0  0  0  0  0  0  0  0  0
   56.8494   25.3313   47.8051 H   0  0  0  0  0  0  0  0  0  0  0  0
   55.6108   25.3728   46.5048 H   0  0  0  0  0  0  0  0  0  0  0  0
   56.8704   24.0922   46.5048 H   0  0  0  0  0  0  0  0  0  0  0  0
   56.1090   27.6245   45.6931 H   0  0  0  0  0  0  0  0  0  0  0  0
   57.2649   27.8322   47.0660 H   0  0  0  0  0  0  0  0  0  0  0  0
   59.3592   29.8101   46.9435 H   0  0  0  0  0  0  0  0  0  0  0  0
   61.9510   32.1895   46.5251 H   0  0  0  0  0  0  0  0  0  0  0  0
   64.3479   32.8078   46.8052 H   0  0  0  0  0  0  0  0  0  0  0  0
  1  2  1  0
  2  3  1  0
  3  4  2  0
  4  5  1  0
  5  6  2  0
  6  7  1  0
  7  8  1  0
  8  9  1  0
  9 10  1  0
  9 11  2  0
 11 12  1  0
 12 13  2  0
 12 14  1  0
 14 15  2  0
 15 16  1  0
 16 17  1  0
 17 18  2  0
 17 19  1  0
 16 20  2  0
 20 21  1  0
 21 22  1  0
 22 23  1  0
 23 24  1  0
 24 25  1  0
 25 26  1  0
 25 27  1  0
 20 28  1  0
 28 29  2  0
  6 30  1  0
 30 31  2  0
 31  3  1  0
 29  8  1  0
 29 14  1  0
 27 21  1  0
  1 32  1  0
  1 33  1  0
  1 34  1  0
  4 35  1  0
  5 36  1  0
  7 37  1  0
  7 38  1  0
 10 39  1  0
 10 40  1  0
 10 41  1  0
 11 42  1  0
 15 43  1  0
 22 44  1  0
 22 45  1  0
 23 46  1  0
 23 47  1  0
 24 48  1  0
 24 49  1  0
 25 50  1  1
 26 51  1  0
 26 52  1  0
 26 53  1  0
 27 54  1  0
 27 55  1  0
 28 56  1  0
 30 57  1  0
 31 58  1  0
M  CHG  2  17   1  19  -1
M  END
>  <UniqueID>  (8) 
8

>  <SMILES>  (8) 
COc1ccc(Cn2c(C)cc(=O)c3cc([N+](=O)[O-])c(N4CCC[C@H](C)C4)cc32)cc1

>  <Energy>  (8) 
82.64302344239718

>  <Genealogy>  (8) 
COc1ccc(Cn2c(C)cc(=O)c3cc([N+](=O)[O-])c(N4CCC[C@H](C)C4)cc32)cc1 (chirality)
COc1ccc(Cn2c(C)cc(=O)c3cc([N+](=O)[O-])c(N4CCC[C@H](C)C4)cc32)cc1 (3D coordinates assigned)
COc1ccc(Cn2c(C)cc(=O)c3cc([N+](=O)[O-])c(N4CCC[C@H](C)C4)cc32)cc1 (nonaromatic ring conformer: 82.64302344239718 kcal/mol)

>  <smiles>  (8) 
COc1ccc(Cn2c(C)cc(=O)c3cc([N+](=O)[O-])c(N4CCCC(C)C4)cc32)cc1

>  <score_type>  (8) 
oracle

>  <origin>  (8) 
adg

>  <m_score__min__energy>  (8) 
-9.4199999999999999

>  <m_primary>  (8) 
energy

$$$$
8:0
     RDKit          3D

 48 49  0  0  0  0  0  0  0  0999 V2000
   63.7300   33.4660   46.9800 C   0  0  0  0  0  0  0  0  0  0  0  0
   63.3400   32.7040   48.2460 C   0  0  0  0  0  0  0  0  0  0  0  0
   62.0800   31.8360   48.0500 C   0  0  0  0  0  0  0  0  0  0  0  0
   61.0120   32.4880   47.1510 C   0  0  0  0  0  0  0  0  0  0  0  0
   60.5090   33.8510   47.6610 C   0  0  0  0  0  0  0  0  0  0  0  0
   59.1870   34.2080   47.0980 N   0  0  0  0  0  0  0  0  0  0  0  0
   58.3480   33.0030   46.8710 C   0  0  0  0  0  0  0  0  0  0  0  0
   57.2590   33.2570   45.8170 C   0  0  0  0  0  0  0  0  0  0  0  0
   57.8310   33.6380   44.4970 N   0  0  0  0  0  0  0  0  0  0  0  0
   57.7720   32.5480   43.4870 C   0  0  0  0  0  0  0  0  0  0  0  0
   57.5680   31.1590   44.0670 C   0  0  0  0  0  0  0  0  0  0  0  0
   56.2810   30.5960   44.1290 C   0  0  0  0  0  0  0  0  0  0  0  0
   56.0890   29.3180   44.6590 C   0  0  0  0  0  0  0  0  0  0  0  0
   57.1810   28.5830   45.1450 C   0  0  0  0  0  0  0  0  0  0  0  0
   56.9700   27.2250   45.7470 C   0  0  0  0  0  0  0  0  0  0  0  0
   58.4580   29.1620   45.1350 C   0  0  0  0  0  0  0  0  0  0  0  0
   58.6500   30.4400   44.6040 C   0  0  0  0  0  0  0  0  0  0  0  0
   59.1810   34.2520   44.5940 C   0  0  0  0  0  0  0  0  0  0  0  0
   59.3250   35.0630   45.8890 C   0  0  0  0  0  0  0  0  0  0  0  0
   64.2150   34.4136   47.2572 H   0  0  0  0  0  0  0  0  0  0  0  0
   64.4274   32.8572   46.3858 H   0  0  0  0  0  0  0  0  0  0  0  0
   62.8283   33.6756   46.3858 H   0  0  0  0  0  0  0  0  0  0  0  0
   64.1763   32.0510   48.5361 H   0  0  0  0  0  0  0  0  0  0  0  0
   63.1159   33.4461   49.0264 H   0  0  0  0  0  0  0  0  0  0  0  0
   62.3830   30.8822   47.5934 H   0  0  0  0  0  0  0  0  0  0  0  0
   61.6255   31.7007   49.0425 H   0  0  0  0  0  0  0  0  0  0  0  0
   61.4440   32.6317   46.1497 H   0  0  0  0  0  0  0  0  0  0  0  0
   60.1449   31.8112   47.1460 H   0  0  0  0  0  0  0  0  0  0  0  0
   60.4275   33.8105   48.7572 H   0  0  0  0  0  0  0  0  0  0  0  0
   61.2298   34.6175   47.3401 H   0  0  0  0  0  0  0  0  0  0  0  0
   58.9920   32.1803   46.5267 H   0  0  0  0  0  0  0  0  0  0  0  0
   57.8532   32.7469   47.8195 H   0  0  0  0  0  0  0  0  0  0  0  0
   56.6646   32.3397   45.6938 H   0  0  0  0  0  0  0  0  0  0  0  0
   56.6372   34.0932   46.1692 H   0  0  0  0  0  0  0  0  0  0  0  0
   57.2040   34.3900   44.1190 H   0  0  0  0  0  0  0  0  0  0  0  0
   56.9378   32.7597   42.8020 H   0  0  0  0  0  0  0  0  0  0  0  0
   58.7504   32.5354   42.9843 H   0  0  0  0  0  0  0  0  0  0  0  0
   55.4177   31.1671   43.7568 H   0  0  0  0  0  0  0  0  0  0  0  0
   55.0780   28.8861   44.6955 H   0  0  0  0  0  0  0  0  0  0  0  0
   56.9823   27.3043   46.8441 H   0  0  0  0  0  0  0  0  0  0  0  0
   55.9990   26.8254   45.4191 H   0  0  0  0  0  0  0  0  0  0  0  0
   57.7740   26.5496   45.4191 H   0  0  0  0  0  0  0  0  0  0  0  0
   59.3134   28.6070   45.5475 H   0  0  0  0  0  0  0  0  0  0  0  0
   59.6552   30.8868   44.6062 H   0  0  0  0  0  0  0  0  0  0  0  0
   59.9399   33.4558   44.5820 H   0  0  0  0  0  0  0  0  0  0  0  0
   59.3198   34.9299   43.7389 H   0  0  0  0  0  0  0  0  0  0  0  0
   60.3165   35.5393   45.9017 H   0  0  0  0  0  0  0  0  0  0  0  0
   58.5228   35.8154   45.9106 H   0  0  0  0  0  0  0  0  0  0  0  0
  1  2  1  0
  2  3  1  0
  3  4  1  0
  4  5  1  0
  5  6  1  0
  6  7  1  0
  7  8  1  0
  8  9  1  0
  9 10  1  0
 10 11  1  0
 11 12  2  0
 12 13  1  0
 13 14  2  0
 14 15  1  0
 14 16  1  0
 16 17  2  0
  9 18  1  0
 18 19  1  0
 19  6  1  0
 17 11  1  0
  1 20  1  0
  1 21  1  0
  1 22  1  0
  2 23  1  0
  2 24  1  0
  3 25  1  0
  3 26  1  0
  4 27  1  0
  4 28  1  0
  5 29  1  0
  5 30  1  0
  7 31  1  0
  7 32  1  0
  8 33  1  0
  8 34  1  0
  9 35  1  0
 10 36  1  0
 10 37  1  0
 12 38  1  0
 13 39  1  0
 15 40  1  0
 15 41  1  0
 15 42  1  0
 16 43  1  0
 17 44  1  0
 18 45  1  0
 18 46  1  0
 19 47  1  0
 19 48  1  0
M  CHG  1   9   1
M  END
>  <UniqueID>  (9) 
9

>  <SMILES>  (9) 
CCCCCN1CC[NH+](Cc2ccc(C)cc2)CC1

>  <Energy>  (9) 
57.13371576769621

>  <Genealogy>  (9) 
CCCCCN1CC[NH+](Cc2ccc(C)cc2)CC1 (protonated)
CCCCCN1CC[NH+](Cc2ccc(C)cc2)CC1 (3D coordinates assigned)
CCCCCN1CC[NH+](Cc2ccc(C)cc2)CC1 (nonaromatic ring conformer: 57.13371576769621 kcal/mol)

>  <smiles>  (9) 
CCCCCN1CCN(Cc2ccc(C)cc2)CC1

>  <score_type>  (9) 
oracle

>  <origin>  (9) 
adg

>  <m_score__min__energy>  (9) 
-5.4699999999999998

>  <m_primary>  (9) 
energy

$$$$
9:0
     RDKit          3D

 34 36  0  0  0  0  0  0  0  0999 V2000
   59.8088   35.9155   46.1372 H   0  0  0  0  0  0  0  0  0  0  0  0
   59.6570   34.8900   46.5050 C   0  0  0  0  0  0  0  0  0  0  0  0
   58.4420   34.3460   46.3340 C   0  0  0  0  0  0  0  0  0  0  0  0
   57.5736   34.9442   46.6470 H   0  0  0  0  0  0  0  0  0  0  0  0
   58.1730   33.0120   45.7610 C   0  0  0  0  0  0  0  0  0  0  0  0
   58.8340   31.8230   46.0800 C   0  0  0  0  0  0  0  0  0  0  0  0
   59.6174   31.6748   46.8378 H   0  0  0  0  0  0  0  0  0  0  0  0
   58.2910   30.8770   45.2390 C   0  0  0  0  0  0  0  0  0  0  0  0
   58.5660   29.5180   45.1080 C   0  0  0  0  0  0  0  0  0  0  0  0
   59.3178   29.0264   45.7429 H   0  0  0  0  0  0  0  0  0  0  0  0
   57.8490   28.7940   44.1350 C   0  0  0  0  0  0  0  0  0  0  0  0
   58.1490   27.0790   43.9270 Cl  0  0  0  0  0  0  0  0  0  0  0  0
   56.8900   29.4440   43.3250 C   0  0  0  0  0  0  0  0  0  0  0  0
   56.3353   28.8700   42.5682 H   0  0  0  0  0  0  0  0  0  0  0  0
   56.6400   30.8200   43.4800 C   0  0  0  0  0  0  0  0  0  0  0  0
   55.8974   31.3362   42.8538 H   0  0  0  0  0  0  0  0  0  0  0  0
   57.3640   31.5080   44.4530 C   0  0  0  0  0  0  0  0  0  0  0  0
   57.2890   32.8140   44.7550 N   0  0  0  0  0  0  0  0  0  0  0  0
   56.6780   33.5300   44.3010 H   0  0  0  0  0  0  0  0  0  0  0  0
   60.8070   34.2210   47.1480 C   0  0  0  0  0  0  0  0  0  0  0  0
   60.8620   34.0350   48.5400 C   0  0  0  0  0  0  0  0  0  0  0  0
   60.0249   34.3714   49.1694 H   0  0  0  0  0  0  0  0  0  0  0  0
   61.9720   33.4260   49.1300 C   0  0  0  0  0  0  0  0  0  0  0  0
   61.9965   33.2676   50.2183 H   0  0  0  0  0  0  0  0  0  0  0  0
   63.0600   33.0140   48.3360 C   0  0  0  0  0  0  0  0  0  0  0  0
   64.1960   32.3950   48.8790 O   0  0  0  0  0  0  0  0  0  0  0  0
   65.1140   33.0310   49.7610 C   0  0  0  0  0  0  0  0  0  0  0  0
   64.8222   32.8288   50.8021 H   0  0  0  0  0  0  0  0  0  0  0  0
   66.1262   32.6396   49.5813 H   0  0  0  0  0  0  0  0  0  0  0  0
   65.1032   34.1162   49.5813 H   0  0  0  0  0  0  0  0  0  0  0  0
   63.0170   33.2300   46.9540 C   0  0  0  0  0  0  0  0  0  0  0  0
   63.8648   32.9182   46.3263 H   0  0  0  0  0  0  0  0  0  0  0  0
   61.9050   33.8390   46.3650 C   0  0  0  0  0  0  0  0  0  0  0  0
   61.8916   34.0196   45.2800 H   0  0  0  0  0  0  0  0  0  0  0  0
  1  2  1  0
  2  3  2  0
  3  4  1  0
  3  5  1  0
  5  6  2  0
  6  7  1  0
  6  8  1  0
  8  9  2  0
  9 10  1  0
  9 11  1  0
 11 12  1  0
 11 13  2  0
 13 14  1  0
 13 15  1  0
 15 16  1  0
 15 17  2  0
 17 18  1  0
 18 19  1  0
  2 20  1  0
 20 21  2  0
 21 22  1  0
 21 23  1  0
 23 24  1  0
 23 25  2  0
 25 26  1  0
 26 27  1  0
 27 28  1  0
 27 29  1  0
 27 30  1  0
 25 31  1  0
 31 32  1  0
 31 33  2  0
 33 34  1  0
 18  5  1  0
 33 20  1  0
 17  8  1  0
M  END
>  <UniqueID>  (10) 
10

>  <SMILES>  (10) 
COc1ccc(/C=C\c2cc3cc(Cl)ccc3[nH]2)cc1

>  <Energy>  (10) 
76.31377192757378

>  <Genealogy>  (10) 
COc1ccc(/C=C\c2cc3cc(Cl)ccc3[nH]2)cc1 (cis-trans isomerization)
COc1ccc(/C=C\c2cc3cc(Cl)ccc3[nH]2)cc1 (3D coordinates assigned)
COc1ccc(/C=C\c2cc3cc(Cl)ccc3[nH]2)cc1 (optimized conformer: 76.31377192757378 kcal/mol)

>  <smiles>  (10) 
COc1ccc(C=Cc2cc3cc(Cl)ccc3[nH]2)cc1

>  <score_type>  (10) 
oracle

>  <origin>  (10) 
adg

>  <m_score__min__energy>  (10) 
-7.3899999999999997

>  <m_primary>  (10) 
energy

$$$$
10:0
     RDKit          3D

 31 32  0  0  0  0  0  0  0  0999 V2000
   61.1866   28.8584   45.1955 H   0  0  0  0  0  0  0  0  0  0  0  0
   60.1090   28.6480   45.2620 C   0  0  0  0  0  0  0  0  0  0  0  0
   59.1870   29.5740   44.7640 C   0  0  0  0  0  0  0  0  0  0  0  0
   59.5422   30.5032   44.2946 H   0  0  0  0  0  0  0  0  0  0  0  0
   57.8130   29.3220   44.8610 C   0  0  0  0  0  0  0  0  0  0  0  0
   56.6560   30.4970   44.2430 S   0  0  0  0  0  0  0  0  0  0  0  0
   57.0620   30.8880   42.8500 O   0  0  0  0  0  0  0  0  0  0  0  0
   55.2710   29.9100   44.2010 O   0  0  0  0  0  0  0  0  0  0  0  0
   56.6430   31.9140   45.2480 N   0  0  0  0  0  0  0  0  0  0  0  0
   57.6000   32.7880   45.3600 C   0  0  0  0  0  0  0  0  0  0  0  0
   57.9520   33.2070   46.6050 N   0  0  0  0  0  0  0  0  0  0  0  0
   58.9380   34.1230   46.7950 C   0  0  0  0  0  0  0  0  0  0  0  0
   59.2900   34.5650   48.1800 C   0  0  0  0  0  0  0  0  0  0  0  0
   58.7781   33.9222   48.9113 H   0  0  0  0  0  0  0  0  0  0  0  0
   60.3780   34.4894   48.3236 H   0  0  0  0  0  0  0  0  0  0  0  0
   58.9728   35.6084   48.3236 H   0  0  0  0  0  0  0  0  0  0  0  0
   59.6060   34.6540   45.6910 C   0  0  0  0  0  0  0  0  0  0  0  0
   60.4033   35.4005   45.8219 H   0  0  0  0  0  0  0  0  0  0  0  0
   59.2410   34.2180   44.4200 C   0  0  0  0  0  0  0  0  0  0  0  0
   59.7553   34.6192   43.5342 H   0  0  0  0  0  0  0  0  0  0  0  0
   58.2510   33.2980   44.2700 N   0  0  0  0  0  0  0  0  0  0  0  0
   58.0170   33.0000   43.2980 H   0  0  0  0  0  0  0  0  0  0  0  0
   57.3670   28.1330   45.4550 C   0  0  0  0  0  0  0  0  0  0  0  0
   56.2888   27.9284   45.5301 H   0  0  0  0  0  0  0  0  0  0  0  0
   58.2880   27.2070   45.9520 C   0  0  0  0  0  0  0  0  0  0  0  0
   57.9314   26.2819   46.4285 H   0  0  0  0  0  0  0  0  0  0  0  0
   59.6660   27.4520   45.8460 C   0  0  0  0  0  0  0  0  0  0  0  0
   60.6530   26.4780   46.4160 C   0  0  0  0  0  0  0  0  0  0  0  0
   60.6137   26.5167   47.5146 H   0  0  0  0  0  0  0  0  0  0  0  0
   60.4039   25.4620   46.0758 H   0  0  0  0  0  0  0  0  0  0  0  0
   61.6656   26.7406   46.0758 H   0  0  0  0  0  0  0  0  0  0  0  0
  1  2  1  0
  2  3  2  0
  3  4  1  0
  3  5  1  0
  5  6  1  0
  6  7  2  0
  6  8  2  0
  6  9  1  0
  9 10  2  0
 10 11  1  0
 11 12  2  0
 12 13  1  0
 13 14  1  0
 13 15  1  0
 13 16  1  0
 12 17  1  0
 17 18  1  0
 17 19  2  0
 19 20  1  0
 19 21  1  0
 21 22  1  0
  5 23  2  0
 23 24  1  0
 23 25  1  0
 25 26  1  0
 25 27  2  0
 27 28  1  0
 28 29  1  0
 28 30  1  0
 28 31  1  0
 27  2  1  0
 21 10  1  0
M  END
>  <UniqueID>  (11) 
11

>  <SMILES>  (11) 
Cc1ccc(S(=O)(=O)/N=c2/nc(C)cc[nH]2)cc1

>  <Energy>  (11) 
34.47898614366669

>  <Genealogy>  (11) 
Cc1ccc(S(=O)(=O)/N=c2/nc(C)cc[nH]2)cc1 (cis-trans isomerization)
Cc1ccc(S(=O)(=O)/N=c2/nc(C)cc[nH]2)cc1 (3D coordinates assigned)
Cc1ccc(S(=O)(=O)/N=c2/nc(C)cc[nH]2)cc1 (optimized conformer: 34.47898614366669 kcal/mol)

>  <smiles>  (11) 
Cc1ccc(S(=O)(=O)N=c2nc(C)cc[nH]2)cc1

>  <score_type>  (11) 
oracle

>  <origin>  (11) 
adg

>  <m_score__min__energy>  (11) 
-7.1200000000000001

>  <m_primary>  (11) 
energy

$$$$
11:0
     RDKit          3D

 31 32  0  0  0  0  0  0  0  0999 V2000
   54.6740   29.5900   43.3660 O   0  0  0  0  0  0  0  0  0  0  0  0
   55.6560   29.7510   44.1430 C   0  0  0  0  0  0  0  0  0  0  0  0
   55.8340   28.8650   45.2550 N   0  0  0  0  0  0  0  0  0  0  0  0
   56.9290   27.9090   45.3620 C   0  0  0  0  0  0  0  0  0  0  0  0
   56.5490   26.7620   46.3020 C   0  0  0  0  0  0  0  0  0  0  0  0
   55.1940   26.2910   46.0280 N   0  0  0  0  0  0  0  0  0  0  0  0
   54.7940   24.9730   45.6210 C   0  0  0  0  0  0  0  0  0  0  0  0
   53.6660   24.5550   45.9890 O   0  0  0  0  0  0  0  0  0  0  0  0
   55.6400   24.0840   44.7980 C   0  0  0  0  0  0  0  0  0  0  0  0
   56.9100   23.6400   45.1560 C   0  0  0  0  0  0  0  0  0  0  0  0
   57.4700   22.7440   44.2360 C   0  0  0  0  0  0  0  0  0  0  0  0
   56.6420   22.4610   43.1580 C   0  0  0  0  0  0  0  0  0  0  0  0
   55.2150   23.3230   43.3570 S   0  0  0  0  0  0  0  0  0  0  0  0
   56.6210   30.8470   43.9000 C   0  0  0  0  0  0  0  0  0  0  0  0
   57.0230   31.1720   42.5910 C   0  0  0  0  0  0  0  0  0  0  0  0
   57.9360   32.2080   42.3660 C   0  0  0  0  0  0  0  0  0  0  0  0
   58.4580   32.9290   43.4430 C   0  0  0  0  0  0  0  0  0  0  0  0
   58.0680   32.6160   44.7460 C   0  0  0  0  0  0  0  0  0  0  0  0
   57.1550   31.5810   44.9770 C   0  0  0  0  0  0  0  0  0  0  0  0
   57.1523   27.5012   44.3651 H   0  0  0  0  0  0  0  0  0  0  0  0
   57.8125   28.4237   45.7676 H   0  0  0  0  0  0  0  0  0  0  0  0
   57.2550   25.9306   46.1595 H   0  0  0  0  0  0  0  0  0  0  0  0
   56.5910   27.1283   47.3384 H   0  0  0  0  0  0  0  0  0  0  0  0
   57.4245   23.9619   46.0734 H   0  0  0  0  0  0  0  0  0  0  0  0
   58.4717   22.3058   44.3564 H   0  0  0  0  0  0  0  0  0  0  0  0
   56.8795   21.7893   42.3199 H   0  0  0  0  0  0  0  0  0  0  0  0
   56.6165   30.6076   41.7388 H   0  0  0  0  0  0  0  0  0  0  0  0
   58.2435   32.4554   41.3392 H   0  0  0  0  0  0  0  0  0  0  0  0
   59.1760   33.7429   43.2640 H   0  0  0  0  0  0  0  0  0  0  0  0
   58.4793   33.1842   45.5933 H   0  0  0  0  0  0  0  0  0  0  0  0
   56.8523   31.3390   46.0065 H   0  0  0  0  0  0  0  0  0  0  0  0
  1  2  2  0
  2  3  1  0
  3  4  1  0
  4  5  1  0
  5  6  1  0
  6  7  1  0
  7  8  2  0
  7  9  1  0
  9 10  2  0
 10 11  1  0
 11 12  2  0
 12 13  1  0
  2 14  1  0
 14 15  2  0
 15 16  1  0
 16 17  2  0
 17 18  1  0
 18 19  2  0
 13  9  1  0
 19 14  1  0
  4 20  1  0
  4 21  1  0
  5 22  1  0
  5 23  1  0
 10 24  1  0
 11 25  1  0
 12 26  1  0
 15 27  1  0
 16 28  1  0
 17 29  1  0
 18 30  1  0
 19 31  1  0
M  CHG  2   3  -1   6  -1
M  END
>  <UniqueID>  (12) 
12

>  <SMILES>  (12) 
O=C([N-]CC[N-]C(=O)c1cccs1)c1ccccc1

>  <Energy>  (12) 
56.2864657821295

>  <Genealogy>  (12) 
O=C([N-]CC[N-]C(=O)c1cccs1)c1ccccc1 (protonated)
O=C([N-]CC[N-]C(=O)c1cccs1)c1ccccc1 (3D coordinates assigned)
O=C([N-]CC[N-]C(=O)c1cccs1)c1ccccc1 (optimized conformer: 56.2864657821295 kcal/mol)

>  <smiles>  (12) 
O=C(NCCNC(=O)c1cccs1)c1ccccc1

>  <score_type>  (12) 
oracle

>  <origin>  (12) 
adg

>  <m_score__min__energy>  (12) 
-11.289999999999999

>  <m_primary>  (12) 
energy

$$$$
12:0
     RDKit          3D

 30 31  0  0  0  0  0  0  0  0999 V2000
   55.4600   29.7350   43.7490 C   0  0  0  0  0  0  0  0  0  0  0  0
   55.5370   28.8730   44.8790 O   0  0  0  0  0  0  0  0  0  0  0  0
   56.7200   28.2820   45.3480 C   0  0  0  0  0  0  0  0  0  0  0  0
   57.9710   28.9220   45.2410 C   0  0  0  0  0  0  0  0  0  0  0  0
   59.1270   28.2940   45.7110 C   0  0  0  0  0  0  0  0  0  0  0  0
   59.0490   27.0320   46.3000 C   0  0  0  0  0  0  0  0  0  0  0  0
   57.8150   26.3890   46.4130 C   0  0  0  0  0  0  0  0  0  0  0  0
   56.6500   27.0030   45.9240 C   0  0  0  0  0  0  0  0  0  0  0  0
   55.3810   26.3480   46.0320 N   0  0  0  0  0  0  0  0  0  0  0  0
   55.0850   25.0360   45.5370 C   0  0  0  0  0  0  0  0  0  0  0  0
   54.0910   24.4200   46.0010 O   0  0  0  0  0  0  0  0  0  0  0  0
   55.8960   24.3960   44.4400 C   0  0  0  0  0  0  0  0  0  0  0  0
   56.5550   23.1830   44.9210 N   0  0  0  0  0  0  0  0  0  0  0  0
   56.4530   22.6370   46.1490 C   0  0  0  0  0  0  0  0  0  0  0  0
   57.2450   21.5090   46.1850 C   0  0  0  0  0  0  0  0  0  0  0  0
   57.8270   21.3540   44.9800 N   0  0  0  0  0  0  0  0  0  0  0  0
   57.3890   22.3810   44.2280 C   0  0  0  0  0  0  0  0  0  0  0  0
   55.3669   30.7772   44.0885 H   0  0  0  0  0  0  0  0  0  0  0  0
   56.3714   29.6269   43.1426 H   0  0  0  0  0  0  0  0  0  0  0  0
   54.5822   29.4671   43.1426 H   0  0  0  0  0  0  0  0  0  0  0  0
   58.0376   29.9209   44.7852 H   0  0  0  0  0  0  0  0  0  0  0  0
   60.1012   28.7960   45.6163 H   0  0  0  0  0  0  0  0  0  0  0  0
   59.9601   26.5433   46.6756 H   0  0  0  0  0  0  0  0  0  0  0  0
   57.7547   25.3980   46.8866 H   0  0  0  0  0  0  0  0  0  0  0  0
   55.2302   24.1371   43.6036 H   0  0  0  0  0  0  0  0  0  0  0  0
   56.6665   25.1084   44.1100 H   0  0  0  0  0  0  0  0  0  0  0  0
   55.8435   23.0242   46.9788 H   0  0  0  0  0  0  0  0  0  0  0  0
   57.3792   20.8463   47.0527 H   0  0  0  0  0  0  0  0  0  0  0  0
   58.4840   20.5970   44.6900 H   0  0  0  0  0  0  0  0  0  0  0  0
   57.6756   22.5456   43.1788 H   0  0  0  0  0  0  0  0  0  0  0  0
  1  2  1  0
  2  3  1  0
  3  4  2  0
  4  5  1  0
  5  6  2  0
  6  7  1  0
  7  8  2  0
  8  9  1  0
  9 10  1  0
 10 11  2  0
 10 12  1  0
 12 13  1  0
 13 14  1  0
 14 15  2  0
 15 16  1  0
 16 17  2  0
  8  3  1  0
 17 13  1  0
  1 18  1  0
  1 19  1  0
  1 20  1  0
  4 21  1  0
  5 22  1  0
  6 23  1  0
  7 24  1  0
 12 25  1  0
 12 26  1  0
 14 27  1  0
 15 28  1  0
 16 29  1  0
 17 30  1  0
M  CHG  2   9  -1  16   1
M  END
>  <UniqueID>  (13) 
13

>  <SMILES>  (13) 
COc1ccccc1[N-]C(=O)Cn1cc[nH+]c1

>  <Energy>  (13) 
62.19409597502787

>  <Genealogy>  (13) 
COc1ccccc1[N-]C(=O)Cn1cc[nH+]c1 (protonated)
COc1ccccc1[N-]C(=O)Cn1cc[nH+]c1 (3D coordinates assigned)
COc1ccccc1[N-]C(=O)Cn1cc[nH+]c1 (optimized conformer: 62.19409597502787 kcal/mol)

>  <smiles>  (13) 
COc1ccccc1NC(=O)Cn1ccnc1

>  <score_type>  (13) 
oracle

>  <origin>  (13) 
adg

>  <m_score__min__energy>  (13) 
-6.9199999999999999

>  <m_primary>  (13) 
energy

$$$$
13:0
     RDKit          3D

 29 29  0  0  0  0  0  0  0  0999 V2000
   58.5280   28.4250   44.8630 C   0  0  0  0  0  0  0  0  0  0  0  0
   57.2390   28.9010   45.5260 C   0  0  0  0  0  0  0  0  0  0  0  0
   56.8460   30.2240   44.9860 N   0  0  0  0  0  0  0  0  0  0  0  0
   55.7300   30.1020   44.0210 C   0  0  0  0  0  0  0  0  0  0  0  0
   56.2670   29.7880   42.6280 C   0  0  0  0  0  0  0  0  0  0  0  0
   58.0050   30.9090   44.3710 C   0  0  0  0  0  0  0  0  0  0  0  0
   58.3040   32.1860   45.1110 C   0  0  0  0  0  0  0  0  0  0  0  0
   58.4450   33.3900   44.4020 C   0  0  0  0  0  0  0  0  0  0  0  0
   58.7320   34.5780   45.0810 C   0  0  0  0  0  0  0  0  0  0  0  0
   58.8820   34.5730   46.4710 C   0  0  0  0  0  0  0  0  0  0  0  0
   59.1630   35.7270   47.1250 F   0  0  0  0  0  0  0  0  0  0  0  0
   58.7450   33.3770   47.1840 C   0  0  0  0  0  0  0  0  0  0  0  0
   58.8920   33.3700   48.5330 F   0  0  0  0  0  0  0  0  0  0  0  0
   58.4560   32.1870   46.5090 C   0  0  0  0  0  0  0  0  0  0  0  0
   59.2606   28.1545   45.6377 H   0  0  0  0  0  0  0  0  0  0  0  0
   58.3153   27.5461   44.2366 H   0  0  0  0  0  0  0  0  0  0  0  0
   58.9375   29.2312   44.2366 H   0  0  0  0  0  0  0  0  0  0  0  0
   56.4377   28.1742   45.3267 H   0  0  0  0  0  0  0  0  0  0  0  0
   57.4035   28.9895   46.6100 H   0  0  0  0  0  0  0  0  0  0  0  0
   55.0591   29.2917   44.3425 H   0  0  0  0  0  0  0  0  0  0  0  0
   55.1807   31.0544   43.9866 H   0  0  0  0  0  0  0  0  0  0  0  0
   57.2135   29.2345   42.7161 H   0  0  0  0  0  0  0  0  0  0  0  0
   55.5340   29.1762   42.0818 H   0  0  0  0  0  0  0  0  0  0  0  0
   56.4407   30.7269   42.0818 H   0  0  0  0  0  0  0  0  0  0  0  0
   58.8835   30.2485   44.4155 H   0  0  0  0  0  0  0  0  0  0  0  0
   57.7682   31.1470   43.3235 H   0  0  0  0  0  0  0  0  0  0  0  0
   58.3292   33.3984   43.3081 H   0  0  0  0  0  0  0  0  0  0  0  0
   58.8400   35.5183   44.5205 H   0  0  0  0  0  0  0  0  0  0  0  0
   58.3472   31.2490   47.0732 H   0  0  0  0  0  0  0  0  0  0  0  0
  1  2  1  0
  2  3  1  0
  3  4  1  0
  4  5  1  0
  3  6  1  0
  6  7  1  0
  7  8  2  0
  8  9  1  0
  9 10  2  0
 10 11  1  0
 10 12  1  0
 12 13  1  0
 12 14  2  0
 14  7  1  0
  1 15  1  0
  1 16  1  0
  1 17  1  0
  2 18  1  0
  2 19  1  0
  4 20  1  0
  4 21  1  0
  5 22  1  0
  5 23  1  0
  5 24  1  0
  6 25  1  0
  6 26  1  0
  8 27  1  0
  9 28  1  0
 14 29  1  0
M  END
>  <UniqueID>  (14) 
14

>  <SMILES>  (14) 
CCN(CC)Cc1ccc(F)c(F)c1

>  <Energy>  (14) 
24.870884930464815

>  <Genealogy>  (14) 
CCN(CC)Cc1ccc(F)c(F)c1 (3D coordinates assigned)
CCN(CC)Cc1ccc(F)c(F)c1 (optimized conformer: 24.870884930464815 kcal/mol)

>  <smiles>  (14) 
CCN(CC)Cc1ccc(F)c(F)c1

>  <score_type>  (14) 
oracle

>  <origin>  (14) 
adg

>  <m_score__min__energy>  (14) 
-5.2000000000000002

>  <m_primary>  (14) 
energy

$$$$
14:0
     RDKit          3D

 40 42  0  0  0  0  0  0  0  0999 V2000
   59.8060   30.2610   48.7850 C   0  0  0  0  0  0  0  0  0  0  0  0
   58.7270   31.3210   48.9990 C   0  0  0  0  0  0  0  0  0  0  0  0
   58.9630   32.5010   48.1290 N   0  0  0  0  0  0  0  0  0  0  0  0
   59.4280   33.6860   48.6830 C   0  0  0  0  0  0  0  0  0  0  0  0
   59.7420   33.8480   50.1660 C   0  0  0  0  0  0  0  0  0  0  0  0
   60.9980   33.1700   50.5450 N   0  0  0  0  0  0  0  0  0  0  0  0
   62.1850   33.9250   50.1160 C   0  0  0  0  0  0  0  0  0  0  0  0
   62.8020   33.2870   48.9080 C   0  0  0  0  0  0  0  0  0  0  0  0
   63.2680   33.9560   47.7840 C   0  0  0  0  0  0  0  0  0  0  0  0
   63.7200   33.0940   46.7780 C   0  0  0  0  0  0  0  0  0  0  0  0
   63.5970   31.7470   47.1010 C   0  0  0  0  0  0  0  0  0  0  0  0
   62.9210   31.6320   48.6390 S   0  0  0  0  0  0  0  0  0  0  0  0
   59.6560   34.8030   47.8700 C   0  0  0  0  0  0  0  0  0  0  0  0
   59.4200   34.7480   46.5090 C   0  0  0  0  0  0  0  0  0  0  0  0
   59.6490   35.7680   45.8040 O   0  0  0  0  0  0  0  0  0  0  0  0
   58.9250   33.5710   45.9370 C   0  0  0  0  0  0  0  0  0  0  0  0
   58.6610   33.5060   44.5540 C   0  0  0  0  0  0  0  0  0  0  0  0
   58.1430   32.3460   43.9850 C   0  0  0  0  0  0  0  0  0  0  0  0
   57.8150   32.2820   42.2620 Cl  0  0  0  0  0  0  0  0  0  0  0  0
   57.8750   31.2400   44.7850 C   0  0  0  0  0  0  0  0  0  0  0  0
   58.1320   31.2820   46.1560 C   0  0  0  0  0  0  0  0  0  0  0  0
   58.6790   32.4410   46.7700 C   0  0  0  0  0  0  0  0  0  0  0  0
   60.1686   29.9048   49.7605 H   0  0  0  0  0  0  0  0  0  0  0  0
   59.3837   29.4168   48.2202 H   0  0  0  0  0  0  0  0  0  0  0  0
   60.6426   30.6982   48.2202 H   0  0  0  0  0  0  0  0  0  0  0  0
   57.7445   30.8881   48.7599 H   0  0  0  0  0  0  0  0  0  0  0  0
   58.7581   31.6469   50.0491 H   0  0  0  0  0  0  0  0  0  0  0  0
   59.8349   34.9201   50.3939 H   0  0  0  0  0  0  0  0  0  0  0  0
   58.9227   33.3880   50.7380 H   0  0  0  0  0  0  0  0  0  0  0  0
   61.0340   32.2090   50.1310 H   0  0  0  0  0  0  0  0  0  0  0  0
   61.0150   33.0790   51.5880 H   0  0  0  0  0  0  0  0  0  0  0  0
   61.8897   34.9558   49.8704 H   0  0  0  0  0  0  0  0  0  0  0  0
   62.9211   33.9271   50.9335 H   0  0  0  0  0  0  0  0  0  0  0  0
   63.2807   35.0522   47.6933 H   0  0  0  0  0  0  0  0  0  0  0  0
   64.1334   33.4486   45.8223 H   0  0  0  0  0  0  0  0  0  0  0  0
   63.8909   30.9016   46.4615 H   0  0  0  0  0  0  0  0  0  0  0  0
   60.0274   35.7356   48.3198 H   0  0  0  0  0  0  0  0  0  0  0  0
   58.8662   34.3800   43.9184 H   0  0  0  0  0  0  0  0  0  0  0  0
   57.4582   30.3272   44.3344 H   0  0  0  0  0  0  0  0  0  0  0  0
   57.9066   30.4002   46.7738 H   0  0  0  0  0  0  0  0  0  0  0  0
  1  2  1  0
  2  3  1  0
  3  4  1  0
  4  5  1  0
  5  6  1  0
  6  7  1  0
  7  8  1  0
  8  9  2  0
  9 10  1  0
 10 11  2  0
 11 12  1  0
  4 13  2  0
 13 14  1  0
 14 15  2  0
 14 16  1  0
 16 17  2  0
 17 18  1  0
 18 19  1  0
 18 20  2  0
 20 21  1  0
 21 22  2  0
 22  3  1  0
 12  8  1  0
 22 16  1  0
  1 23  1  0
  1 24  1  0
  1 25  1  0
  2 26  1  0
  2 27  1  0
  5 28  1  0
  5 29  1  0
  6 30  1  0
  6 31  1  0
  7 32  1  0
  7 33  1  0
  9 34  1  0
 10 35  1  0
 11 36  1  0
 13 37  1  0
 17 38  1  0
 20 39  1  0
 21 40  1  0
M  CHG  1   6   1
M  END
>  <UniqueID>  (15) 
15

>  <SMILES>  (15) 
CCn1c(C[NH2+]Cc2cccs2)cc(=O)c2cc(Cl)ccc21

>  <Energy>  (15) 
79.374815151252

>  <Genealogy>  (15) 
CCn1c(C[NH2+]Cc2cccs2)cc(=O)c2cc(Cl)ccc21 (protonated)
CCn1c(C[NH2+]Cc2cccs2)cc(=O)c2cc(Cl)ccc21 (3D coordinates assigned)
CCn1c(C[NH2+]Cc2cccs2)cc(=O)c2cc(Cl)ccc21 (optimized conformer: 79.374815151252 kcal/mol)

>  <smiles>  (15) 
CCn1c(CNCc2cccs2)cc(=O)c2cc(Cl)ccc21

>  <score_type>  (15) 
oracle

>  <origin>  (15) 
adg

>  <m_score__min__energy>  (15) 
-5.5099999999999998

>  <m_primary>  (15) 
energy

$$$$
15:0
     RDKit          3D

 23 23  0  0  0  0  0  0  0  0999 V2000
   59.6900   34.9810   46.4120 C   0  0  0  0  0  0  0  0  0  0  0  0
   58.5590   34.1830   47.0590 C   0  0  0  0  0  0  0  0  0  0  0  0
   57.6120   33.5690   46.0240 C   0  0  0  0  0  0  0  0  0  0  0  0
   58.4230   33.4130   44.3890 S   0  0  0  0  0  0  0  0  0  0  0  0
   57.5410   31.9220   43.9050 C   0  0  0  0  0  0  0  0  0  0  0  0
   56.9990   31.1350   44.8730 N   0  0  0  0  0  0  0  0  0  0  0  0
   56.3200   29.9990   44.5650 C   0  0  0  0  0  0  0  0  0  0  0  0
   56.1760   29.6280   43.2290 C   0  0  0  0  0  0  0  0  0  0  0  0
   56.7180   30.4070   42.2570 N   0  0  0  0  0  0  0  0  0  0  0  0
   57.4020   31.5450   42.5560 C   0  0  0  0  0  0  0  0  0  0  0  0
   57.9750   32.3700   41.4430 C   0  0  0  0  0  0  0  0  0  0  0  0
   60.3202   35.4257   47.1963 H   0  0  0  0  0  0  0  0  0  0  0  0
   60.2998   34.3120   45.7870 H   0  0  0  0  0  0  0  0  0  0  0  0
   59.2642   35.7798   45.7870 H   0  0  0  0  0  0  0  0  0  0  0  0
   58.9973   33.3734   47.6610 H   0  0  0  0  0  0  0  0  0  0  0  0
   57.9728   34.8755   47.6809 H   0  0  0  0  0  0  0  0  0  0  0  0
   57.3042   32.5705   46.3679 H   0  0  0  0  0  0  0  0  0  0  0  0
   56.7394   34.2301   45.9168 H   0  0  0  0  0  0  0  0  0  0  0  0
   55.8877   29.3775   45.3630 H   0  0  0  0  0  0  0  0  0  0  0  0
   55.6279   28.7118   42.9640 H   0  0  0  0  0  0  0  0  0  0  0  0
   58.5543   33.2041   41.8656 H   0  0  0  0  0  0  0  0  0  0  0  0
   58.6332   31.7432   40.8234 H   0  0  0  0  0  0  0  0  0  0  0  0
   57.1579   32.7679   40.8234 H   0  0  0  0  0  0  0  0  0  0  0  0
  1  2  1  0
  2  3  1  0
  3  4  1  0
  4  5  1  0
  5  6  2  0
  6  7  1  0
  7  8  2  0
  8  9  1  0
  9 10  2  0
 10 11  1  0
 10  5  1  0
  1 12  1  0
  1 13  1  0
  1 14  1  0
  2 15  1  0
  2 16  1  0
  3 17  1  0
  3 18  1  0
  7 19  1  0
  8 20  1  0
 11 21  1  0
 11 22  1  0
 11 23  1  0
M  END
>  <UniqueID>  (16) 
16

>  <SMILES>  (16) 
CCCSc1nccnc1C

>  <Energy>  (16) 
15.509162682784568

>  <Genealogy>  (16) 
CCCSc1nccnc1C (3D coordinates assigned)
CCCSc1nccnc1C (optimized conformer: 15.509162682784568 kcal/mol)

>  <smiles>  (16) 
CCCSc1nccnc1C

>  <score_type>  (16) 
oracle

>  <origin>  (16) 
adg

>  <m_score__min__energy>  (16) 
-5.0499999999999998

>  <m_primary>  (16) 
energy

$$$$
16:0
     RDKit          3D

 52 55  0  0  0  0  0  0  0  0999 V2000
   58.3560   33.2150   45.2070 C   0  0  0  0  0  0  0  0  0  0  0  0
   58.5130   32.9970   46.7060 C   0  0  0  0  0  0  0  0  0  0  0  0
   59.6870   32.1630   46.9810 N   0  0  0  0  0  0  0  0  0  0  0  0
   59.7300   30.8710   47.4190 C   0  0  0  0  0  0  0  0  0  0  0  0
   58.5200   29.9900   47.6260 C   0  0  0  0  0  0  0  0  0  0  0  0
   58.6140   28.6870   46.9320 N   0  0  0  0  0  0  0  0  0  0  0  0
   58.8740   28.8210   45.4810 C   0  0  0  0  0  0  0  0  0  0  0  0
   59.2670   27.4800   44.8260 C   0  0  0  0  0  0  0  0  0  0  0  0
   58.8570   26.3440   45.6630 N   0  0  0  0  0  0  0  0  0  0  0  0
   58.1660   25.2170   45.0920 C   0  0  0  0  0  0  0  0  0  0  0  0
   57.4080   25.3680   43.9180 C   0  0  0  0  0  0  0  0  0  0  0  0
   56.7270   24.2780   43.3700 C   0  0  0  0  0  0  0  0  0  0  0  0
   56.7850   23.0210   43.9810 C   0  0  0  0  0  0  0  0  0  0  0  0
   56.0840   21.9590   43.3900 O   0  0  0  0  0  0  0  0  0  0  0  0
   56.6740   20.7200   43.0120 C   0  0  0  0  0  0  0  0  0  0  0  0
   57.5360   22.8670   45.1610 C   0  0  0  0  0  0  0  0  0  0  0  0
   58.2170   23.9570   45.7110 C   0  0  0  0  0  0  0  0  0  0  0  0
   59.2380   26.3300   47.0840 C   0  0  0  0  0  0  0  0  0  0  0  0
   59.5470   27.7470   47.5780 C   0  0  0  0  0  0  0  0  0  0  0  0
   60.9910   30.4320   47.6700 N   0  0  0  0  0  0  0  0  0  0  0  0
   61.7530   31.5000   47.3810 C   0  0  0  0  0  0  0  0  0  0  0  0
   63.1370   31.6060   47.4810 C   0  0  0  0  0  0  0  0  0  0  0  0
   63.7260   32.8400   47.1500 C   0  0  0  0  0  0  0  0  0  0  0  0
   62.9240   33.9270   46.7360 C   0  0  0  0  0  0  0  0  0  0  0  0
   61.5270   33.7890   46.6470 C   0  0  0  0  0  0  0  0  0  0  0  0
   60.9760   32.5460   46.9740 C   0  0  0  0  0  0  0  0  0  0  0  0
   57.7216   34.0958   45.0290 H   0  0  0  0  0  0  0  0  0  0  0  0
   59.3453   33.3782   44.7546 H   0  0  0  0  0  0  0  0  0  0  0  0
   57.8877   32.3284   44.7546 H   0  0  0  0  0  0  0  0  0  0  0  0
   58.6356   33.9706   47.2030 H   0  0  0  0  0  0  0  0  0  0  0  0
   57.6161   32.4878   47.0884 H   0  0  0  0  0  0  0  0  0  0  0  0
   58.4056   29.8030   48.7039 H   0  0  0  0  0  0  0  0  0  0  0  0
   57.6558   30.5216   47.2011 H   0  0  0  0  0  0  0  0  0  0  0  0
   57.9637   29.1990   44.9927 H   0  0  0  0  0  0  0  0  0  0  0  0
   59.7179   29.5152   45.3548 H   0  0  0  0  0  0  0  0  0  0  0  0
   58.7743   27.4006   43.8457 H   0  0  0  0  0  0  0  0  0  0  0  0
   60.3607   27.4536   44.7114 H   0  0  0  0  0  0  0  0  0  0  0  0
   57.3506   26.3509   43.4274 H   0  0  0  0  0  0  0  0  0  0  0  0
   56.1396   24.4096   42.4493 H   0  0  0  0  0  0  0  0  0  0  0  0
   56.9444   20.1522   43.9145 H   0  0  0  0  0  0  0  0  0  0  0  0
   55.9559   20.1390   42.4147 H   0  0  0  0  0  0  0  0  0  0  0  0
   57.5777   20.9113   42.4147 H   0  0  0  0  0  0  0  0  0  0  0  0
   57.5875   21.8845   45.6529 H   0  0  0  0  0  0  0  0  0  0  0  0
   58.7976   23.8269   46.6362 H   0  0  0  0  0  0  0  0  0  0  0  0
   58.4090   25.9145   47.6757 H   0  0  0  0  0  0  0  0  0  0  0  0
   60.1397   25.7110   47.2014 H   0  0  0  0  0  0  0  0  0  0  0  0
   59.4224   27.7936   48.6699 H   0  0  0  0  0  0  0  0  0  0  0  0
   60.5835   28.0144   47.3245 H   0  0  0  0  0  0  0  0  0  0  0  0
   63.7501   30.7532   47.8080 H   0  0  0  0  0  0  0  0  0  0  0  0
   64.8176   32.9593   47.2139 H   0  0  0  0  0  0  0  0  0  0  0  0
   63.3953   34.8878   46.4815 H   0  0  0  0  0  0  0  0  0  0  0  0
   60.8906   34.6289   46.3314 H   0  0  0  0  0  0  0  0  0  0  0  0
  1  2  1  0
  2  3  1  0
  3  4  1  0
  4  5  1  0
  5  6  1  0
  6  7  1  0
  7  8  1  0
  8  9  1  0
  9 10  1  0
 10 11  2  0
 11 12  1  0
 12 13  2  0
 13 14  1  0
 14 15  1  0
 13 16  1  0
 16 17  2  0
  9 18  1  0
 18 19  1  0
  4 20  2  0
 20 21  1  0
 21 22  2  0
 22 23  1  0
 23 24  2  0
 24 25  1  0
 25 26  2  0
 26  3  1  0
 19  6  1  0
 26 21  1  0
 17 10  1  0
  1 27  1  0
  1 28  1  0
  1 29  1  0
  2 30  1  0
  2 31  1  0
  5 32  1  0
  5 33  1  0
  7 34  1  0
  7 35  1  0
  8 36  1  0
  8 37  1  0
 11 38  1  0
 12 39  1  0
 15 40  1  0
 15 41  1  0
 15 42  1  0
 16 43  1  0
 17 44  1  0
 18 45  1  0
 18 46  1  0
 19 47  1  0
 19 48  1  0
 22 49  1  0
 23 50  1  0
 24 51  1  0
 25 52  1  0
M  END
>  <UniqueID>  (17) 
17

>  <SMILES>  (17) 
CCn1c(CN2CCN(c3ccc(OC)cc3)CC2)nc2ccccc21

>  <Energy>  (17) 
100.11089209372534

>  <Genealogy>  (17) 
CCn1c(CN2CCN(c3ccc(OC)cc3)CC2)nc2ccccc21 (3D coordinates assigned)
CCn1c(CN2CCN(c3ccc(OC)cc3)CC2)nc2ccccc21 (nonaromatic ring conformer: 100.11089209372534 kcal/mol)

>  <smiles>  (17) 
CCn1c(CN2CCN(c3ccc(OC)cc3)CC2)nc2ccccc21

>  <score_type>  (17) 
oracle

>  <origin>  (17) 
adg

>  <m_score__min__energy>  (17) 
-7.7999999999999998

>  <m_primary>  (17) 
energy

$$$$
17:0
     RDKit          3D

 35 38  0  0  0  0  0  0  0  0999 V2000
   56.6930   30.6330   42.3650 C   0  0  0  0  0  0  0  0  0  0  0  0
   57.4440   31.3560   43.4410 C   0  0  0  0  0  0  0  0  0  0  0  0
   57.7250   32.6730   43.3840 N   0  0  0  0  0  0  0  0  0  0  0  0
   58.4130   32.9430   44.5080 C   0  0  0  0  0  0  0  0  0  0  0  0
   58.9600   34.5500   44.9540 Cl  0  0  0  0  0  0  0  0  0  0  0  0
   58.5350   31.7810   45.2490 C   0  0  0  0  0  0  0  0  0  0  0  0
   59.1750   31.6520   46.5770 C   0  0  0  0  0  0  0  0  0  0  0  0
   58.5530   32.1810   47.7200 C   0  0  0  0  0  0  0  0  0  0  0  0
   59.1660   32.0700   48.9720 C   0  0  0  0  0  0  0  0  0  0  0  0
   60.4020   31.4280   49.0930 C   0  0  0  0  0  0  0  0  0  0  0  0
   61.0260   30.8970   47.9610 C   0  0  0  0  0  0  0  0  0  0  0  0
   60.4160   31.0060   46.7070 C   0  0  0  0  0  0  0  0  0  0  0  0
   57.9120   30.7840   44.5760 N   0  0  0  0  0  0  0  0  0  0  0  0
   57.8420   29.3950   44.9430 C   0  0  0  0  0  0  0  0  0  0  0  0
   59.0160   28.5960   44.9390 C   0  0  0  0  0  0  0  0  0  0  0  0
   58.9560   27.2320   45.2790 C   0  0  0  0  0  0  0  0  0  0  0  0
   57.7120   26.7060   45.6110 C   0  0  0  0  0  0  0  0  0  0  0  0
   57.4040   25.4840   45.9540 O   0  0  0  0  0  0  0  0  0  0  0  0
   56.1000   25.5030   46.1640 C   0  0  0  0  0  0  0  0  0  0  0  0
   55.4470   24.4850   46.5150 O   0  0  0  0  0  0  0  0  0  0  0  0
   55.5200   26.7160   45.9690 N   0  0  0  0  0  0  0  0  0  0  0  0
   56.5810   27.4630   45.6170 C   0  0  0  0  0  0  0  0  0  0  0  0
   56.6000   28.8160   45.2880 C   0  0  0  0  0  0  0  0  0  0  0  0
   55.9726   29.9395   42.8233 H   0  0  0  0  0  0  0  0  0  0  0  0
   56.1546   31.3614   41.7408 H   0  0  0  0  0  0  0  0  0  0  0  0
   57.4004   30.0673   41.7408 H   0  0  0  0  0  0  0  0  0  0  0  0
   57.4620   33.3460   42.6300 H   0  0  0  0  0  0  0  0  0  0  0  0
   57.5793   32.6848   47.6298 H   0  0  0  0  0  0  0  0  0  0  0  0
   58.6749   32.4884   49.8629 H   0  0  0  0  0  0  0  0  0  0  0  0
   60.8829   31.3409   50.0785 H   0  0  0  0  0  0  0  0  0  0  0  0
   61.9987   30.3923   48.0563 H   0  0  0  0  0  0  0  0  0  0  0  0
   60.9098   30.5843   45.8191 H   0  0  0  0  0  0  0  0  0  0  0  0
   59.9815   29.0478   44.6675 H   0  0  0  0  0  0  0  0  0  0  0  0
   59.8596   26.6048   45.2821 H   0  0  0  0  0  0  0  0  0  0  0  0
   55.6775   29.4150   45.2964 H   0  0  0  0  0  0  0  0  0  0  0  0
  1  2  1  0
  2  3  2  0
  3  4  1  0
  4  5  1  0
  4  6  2  0
  6  7  1  0
  7  8  2  0
  8  9  1  0
  9 10  2  0
 10 11  1  0
 11 12  2  0
  6 13  1  0
 13 14  1  0
 14 15  2  0
 15 16  1  0
 16 17  2  0
 17 18  1  0
 18 19  1  0
 19 20  2  0
 19 21  1  0
 21 22  1  0
 22 23  2  0
 13  2  1  0
 23 14  1  0
 12  7  1  0
 22 17  1  0
  1 24  1  0
  1 25  1  0
  1 26  1  0
  3 27  1  0
  8 28  1  0
  9 29  1  0
 10 30  1  0
 11 31  1  0
 12 32  1  0
 15 33  1  0
 16 34  1  0
 23 35  1  0
M  CHG  2   3   1  21  -1
M  END
>  <UniqueID>  (18) 
18

>  <SMILES>  (18) 
Cc1[nH+]c(Cl)c(-c2ccccc2)n1-c1ccc2oc(=O)[n-]c2c1

>  <Energy>  (18) 
118.15726293785943

>  <Genealogy>  (18) 
Cc1[nH+]c(Cl)c(-c2ccccc2)n1-c1ccc2oc(=O)[n-]c2c1 (protonated)
Cc1[nH+]c(Cl)c(-c2ccccc2)n1-c1ccc2oc(=O)[n-]c2c1 (3D coordinates assigned)
Cc1[nH+]c(Cl)c(-c2ccccc2)n1-c1ccc2oc(=O)[n-]c2c1 (optimized conformer: 118.15726293785943 kcal/mol)

>  <smiles>  (18) 
Cc1nc(Cl)c(-c2ccccc2)n1-c1ccc2oc(=O)[nH]c2c1

>  <score_type>  (18) 
oracle

>  <origin>  (18) 
adg

>  <m_score__min__energy>  (18) 
-8.5199999999999996

>  <m_primary>  (18) 
energy

$$$$
18:0
     RDKit          3D

 34 37  0  0  0  0  0  0  0  0999 V2000
   62.1980   31.2850   47.1340 C   0  0  0  0  0  0  0  0  0  0  0  0
   61.1740   30.8940   48.1970 C   0  0  0  0  0  0  0  0  0  0  0  0
   60.0670   30.1310   47.5940 N   0  0  0  0  0  0  0  0  0  0  0  0
   59.1370   30.7210   46.7690 C   0  0  0  0  0  0  0  0  0  0  0  0
   58.1710   29.9660   46.1090 C   0  0  0  0  0  0  0  0  0  0  0  0
   58.0600   28.5870   46.3230 C   0  0  0  0  0  0  0  0  0  0  0  0
   57.0840   27.7940   45.6910 C   0  0  0  0  0  0  0  0  0  0  0  0
   57.0070   26.4260   45.9560 C   0  0  0  0  0  0  0  0  0  0  0  0
   57.8970   25.8330   46.8500 C   0  0  0  0  0  0  0  0  0  0  0  0
   58.8720   26.6040   47.4860 C   0  0  0  0  0  0  0  0  0  0  0  0
   58.9680   27.9880   47.2310 C   0  0  0  0  0  0  0  0  0  0  0  0
   59.9620   28.7800   47.8580 C   0  0  0  0  0  0  0  0  0  0  0  0
   60.7640   28.2320   48.6670 O   0  0  0  0  0  0  0  0  0  0  0  0
   57.3950   30.8620   45.2480 C   0  0  0  0  0  0  0  0  0  0  0  0
   56.4450   30.5550   44.4830 O   0  0  0  0  0  0  0  0  0  0  0  0
   57.9230   32.1980   45.4440 C   0  0  0  0  0  0  0  0  0  0  0  0
   57.4780   33.3960   44.8860 C   0  0  0  0  0  0  0  0  0  0  0  0
   58.0970   34.5860   45.2860 C   0  0  0  0  0  0  0  0  0  0  0  0
   59.1230   34.5620   46.2460 C   0  0  0  0  0  0  0  0  0  0  0  0
   59.5520   33.3470   46.8040 C   0  0  0  0  0  0  0  0  0  0  0  0
   58.9580   32.1490   46.3680 C   0  0  0  0  0  0  0  0  0  0  0  0
   63.1184   31.6364   47.6232 H   0  0  0  0  0  0  0  0  0  0  0  0
   62.4270   30.4111   46.5065 H   0  0  0  0  0  0  0  0  0  0  0  0
   61.7863   32.0892   46.5065 H   0  0  0  0  0  0  0  0  0  0  0  0
   61.6653   30.2749   48.9620 H   0  0  0  0  0  0  0  0  0  0  0  0
   60.7677   31.8093   48.6520 H   0  0  0  0  0  0  0  0  0  0  0  0
   56.3781   28.2550   44.9844 H   0  0  0  0  0  0  0  0  0  0  0  0
   56.2412   25.8135   45.4576 H   0  0  0  0  0  0  0  0  0  0  0  0
   57.8310   24.7543   47.0551 H   0  0  0  0  0  0  0  0  0  0  0  0
   59.5701   26.1288   48.1908 H   0  0  0  0  0  0  0  0  0  0  0  0
   56.6608   33.4056   44.1497 H   0  0  0  0  0  0  0  0  0  0  0  0
   57.7792   35.5434   44.8473 H   0  0  0  0  0  0  0  0  0  0  0  0
   59.5944   35.5038   46.5633 H   0  0  0  0  0  0  0  0  0  0  0  0
   60.3408   33.3324   47.5706 H   0  0  0  0  0  0  0  0  0  0  0  0
  1  2  1  0
  2  3  1  0
  3  4  1  0
  4  5  2  0
  5  6  1  0
  6  7  2  0
  7  8  1  0
  8  9  2  0
  9 10  1  0
 10 11  2  0
 11 12  1  0
 12 13  2  0
  5 14  1  0
 14 15  2  0
 14 16  1  0
 16 17  2  0
 17 18  1  0
 18 19  2  0
 19 20  1  0
 20 21  2  0
 12  3  1  0
 21 16  1  0
 21  4  1  0
 11  6  1  0
  1 22  1  0
  1 23  1  0
  1 24  1  0
  2 25  1  0
  2 26  1  0
  7 27  1  0
  8 28  1  0
  9 29  1  0
 10 30  1  0
 17 31  1  0
 18 32  1  0
 19 33  1  0
 20 34  1  0
M  END
>  <UniqueID>  (19) 
19

>  <SMILES>  (19) 
CCn1c2c(c3ccccc3c1=O)C(=O)c1ccccc1-2

>  <Energy>  (19) 
84.69278765352388

>  <Genealogy>  (19) 
CCn1c2c(c3ccccc3c1=O)C(=O)c1ccccc1-2 (3D coordinates assigned)
CCn1c2c(c3ccccc3c1=O)C(=O)c1ccccc1-2 (nonaromatic ring conformer: 84.69278765352388 kcal/mol)

>  <smiles>  (19) 
CCn1c2c(c3ccccc3c1=O)C(=O)c1ccccc1-2

>  <score_type>  (19) 
oracle

>  <origin>  (19) 
adg

>  <m_score__min__energy>  (19) 
-7.54

>  <m_primary>  (19) 
energy

$$$$
19:0
     RDKit          3D

 33 34  0  0  0  0  0  0  0  0999 V2000
   56.9740   31.2310   43.7420 C   0  0  0  0  0  0  0  0  0  0  0  0
   57.7490   32.0790   44.6980 C   0  0  0  0  0  0  0  0  0  0  0  0
   57.7360   33.4740   44.5800 C   0  0  0  0  0  0  0  0  0  0  0  0
   58.4540   34.2440   45.4950 C   0  0  0  0  0  0  0  0  0  0  0  0
   59.1730   33.6230   46.5160 C   0  0  0  0  0  0  0  0  0  0  0  0
   59.1650   32.2210   46.6120 C   0  0  0  0  0  0  0  0  0  0  0  0
   59.8670   31.5500   47.6730 N   0  0  0  0  0  0  0  0  0  0  0  0
   60.9870   30.8240   47.1270 C   0  0  0  0  0  0  0  0  0  0  0  0
   62.4940   31.4670   47.2440 S   0  0  0  0  0  0  0  0  0  0  0  0
   60.7850   29.7190   46.2300 N   0  0  0  0  0  0  0  0  0  0  0  0
   59.6490   28.8450   46.2800 C   0  0  0  0  0  0  0  0  0  0  0  0
   59.2390   28.3150   47.5100 C   0  0  0  0  0  0  0  0  0  0  0  0
   58.1270   27.4710   47.5800 C   0  0  0  0  0  0  0  0  0  0  0  0
   57.3930   27.1590   46.4210 C   0  0  0  0  0  0  0  0  0  0  0  0
   56.2480   26.2880   46.4880 N   0  0  0  0  0  0  0  0  0  0  0  0
   55.1560   26.6330   45.9890 O   0  0  0  0  0  0  0  0  0  0  0  0
   56.3380   25.0620   47.1050 O   0  0  0  0  0  0  0  0  0  0  0  0
   57.7910   27.7170   45.1940 C   0  0  0  0  0  0  0  0  0  0  0  0
   58.9040   28.5600   45.1260 C   0  0  0  0  0  0  0  0  0  0  0  0
   58.4520   31.4940   45.7070 N   0  0  0  0  0  0  0  0  0  0  0  0
   56.3363   30.5333   44.3046 H   0  0  0  0  0  0  0  0  0  0  0  0
   56.3447   31.8737   43.1089 H   0  0  0  0  0  0  0  0  0  0  0  0
   57.6706   30.6619   43.1089 H   0  0  0  0  0  0  0  0  0  0  0  0
   57.1653   33.9580   43.7738 H   0  0  0  0  0  0  0  0  0  0  0  0
   58.4531   35.3408   45.4113 H   0  0  0  0  0  0  0  0  0  0  0  0
   59.7414   34.2254   47.2399 H   0  0  0  0  0  0  0  0  0  0  0  0
   59.2280   30.9040   48.1900 H   0  0  0  0  0  0  0  0  0  0  0  0
   60.1990   32.2640   48.3620 H   0  0  0  0  0  0  0  0  0  0  0  0
   61.4710   29.5810   45.4540 H   0  0  0  0  0  0  0  0  0  0  0  0
   59.7951   28.5643   48.4258 H   0  0  0  0  0  0  0  0  0  0  0  0
   57.8234   27.0475   48.5487 H   0  0  0  0  0  0  0  0  0  0  0  0
   57.2225   27.4887   44.2804 H   0  0  0  0  0  0  0  0  0  0  0  0
   59.1972   29.0023   44.1625 H   0  0  0  0  0  0  0  0  0  0  0  0
  1  2  1  0
  2  3  2  0
  3  4  1  0
  4  5  2  0
  5  6  1  0
  6  7  1  0
  7  8  1  0
  8  9  2  0
  8 10  1  0
 10 11  1  0
 11 12  2  0
 12 13  1  0
 13 14  2  0
 14 15  1  0
 15 16  2  0
 15 17  1  0
 14 18  1  0
 18 19  2  0
  6 20  2  0
 20  2  1  0
 19 11  1  0
  1 21  1  0
  1 22  1  0
  1 23  1  0
  3 24  1  0
  4 25  1  0
  5 26  1  0
  7 27  1  0
  7 28  1  0
 10 29  1  0
 12 30  1  0
 13 31  1  0
 18 32  1  0
 19 33  1  0
M  CHG  3   7   1  15   1  17  -1
M  END
>  <UniqueID>  (20) 
20

>  <SMILES>  (20) 
Cc1cccc([NH2+]C(=S)Nc2ccc([N+](=O)[O-])cc2)n1

>  <Energy>  (20) 
38.84329297370389

>  <Genealogy>  (20) 
Cc1cccc([NH2+]C(=S)Nc2ccc([N+](=O)[O-])cc2)n1 (protonated)
Cc1cccc([NH2+]C(=S)Nc2ccc([N+](=O)[O-])cc2)n1 (3D coordinates assigned)
Cc1cccc([NH2+]C(=S)Nc2ccc([N+](=O)[O-])cc2)n1 (optimized conformer: 38.84329297370389 kcal/mol)

>  <smiles>  (20) 
Cc1cccc(NC(=S)Nc2ccc([N+](=O)[O-])cc2)n1

>  <score_type>  (20) 
oracle

>  <origin>  (20) 
adg

>  <m_score__min__energy>  (20) 
-5.7199999999999998

>  <m_primary>  (20) 
energy

$$$$
20:0
     RDKit          3D

 30 32  0  0  0  0  0  0  0  0999 V2000
   59.5970   31.4680   46.0850 H   0  0  0  0  0  0  0  0  0  0  0  0
   59.4590   30.5970   45.5280 N   0  0  0  0  0  0  0  0  0  0  0  0
   58.2990   30.0340   45.3900 C   0  0  0  0  0  0  0  0  0  0  0  0
   57.9940   28.7390   45.7190 C   0  0  0  0  0  0  0  0  0  0  0  0
   58.7190   27.6800   46.2510 C   0  0  0  0  0  0  0  0  0  0  0  0
   59.7869   27.7802   46.4949 H   0  0  0  0  0  0  0  0  0  0  0  0
   58.0270   26.4740   46.4640 C   0  0  0  0  0  0  0  0  0  0  0  0
   58.5533   25.6039   46.8834 H   0  0  0  0  0  0  0  0  0  0  0  0
   56.6480   26.3810   46.1370 C   0  0  0  0  0  0  0  0  0  0  0  0
   55.9080   25.1030   46.3710 C   0  0  0  0  0  0  0  0  0  0  0  0
   55.8079   24.9301   47.4527 H   0  0  0  0  0  0  0  0  0  0  0  0
   54.9086   25.1694   45.9162 H   0  0  0  0  0  0  0  0  0  0  0  0
   56.4631   24.2693   45.9162 H   0  0  0  0  0  0  0  0  0  0  0  0
   55.9860   27.4640   45.6210 N   0  0  0  0  0  0  0  0  0  0  0  0
   56.6680   28.6180   45.4200 C   0  0  0  0  0  0  0  0  0  0  0  0
   56.1670   29.7680   44.9330 N   0  0  0  0  0  0  0  0  0  0  0  0
   57.1790   30.6350   44.9070 N   0  0  0  0  0  0  0  0  0  0  0  0
   57.0240   32.0270   44.4880 C   0  0  0  0  0  0  0  0  0  0  0  0
   57.3821   32.1379   43.4538 H   0  0  0  0  0  0  0  0  0  0  0  0
   55.9614   32.3051   44.5475 H   0  0  0  0  0  0  0  0  0  0  0  0
   57.8190   32.9270   45.3880 C   0  0  0  0  0  0  0  0  0  0  0  0
   57.8750   32.6570   46.7220 N   0  0  0  0  0  0  0  0  0  0  0  0
   58.5900   33.4290   47.5820 C   0  0  0  0  0  0  0  0  0  0  0  0
   58.6121   33.1821   48.6537 H   0  0  0  0  0  0  0  0  0  0  0  0
   59.2970   34.5360   47.1060 C   0  0  0  0  0  0  0  0  0  0  0  0
   59.8773   35.1651   47.7970 H   0  0  0  0  0  0  0  0  0  0  0  0
   59.2580   34.8340   45.7430 C   0  0  0  0  0  0  0  0  0  0  0  0
   59.8097   35.7021   45.3532 H   0  0  0  0  0  0  0  0  0  0  0  0
   58.5180   34.0290   44.8750 C   0  0  0  0  0  0  0  0  0  0  0  0
   58.4836   34.2569   43.7994 H   0  0  0  0  0  0  0  0  0  0  0  0
  1  2  1  0
  2  3  2  0
  3  4  1  0
  4  5  2  0
  5  6  1  0
  5  7  1  0
  7  8  1  0
  7  9  2  0
  9 10  1  0
 10 11  1  0
 10 12  1  0
 10 13  1  0
  9 14  1  0
 14 15  2  0
 15 16  1  0
 16 17  1  0
 17 18  1  0
 18 19  1  0
 18 20  1  0
 18 21  1  0
 21 22  2  0
 22 23  1  0
 23 24  1  0
 23 25  2  0
 25 26  1  0
 25 27  1  0
 27 28  1  0
 27 29  2  0
 29 30  1  0
 17  3  1  0
 29 21  1  0
 15  4  1  0
M  CHG  1  16  -1
M  END
>  <UniqueID>  (21) 
21

>  <SMILES>  (21) 
[H]/N=c1/c2ccc(C)nc2[n-]n1Cc1ccccn1

>  <Energy>  (21) 
73.83602027206825

>  <Genealogy>  (21) 
Cc1ccc2c(=N)n(Cc3ccccn3)[n-]c2n1 (protonated)
[H]/N=c1/c2ccc(C)nc2[n-]n1Cc1ccccn1 (cis-trans isomerization)
[H]/N=c1/c2ccc(C)nc2[n-]n1Cc1ccccn1 (3D coordinates assigned)
[H]/N=c1/c2ccc(C)nc2[n-]n1Cc1ccccn1 (optimized conformer: 73.83602027206825 kcal/mol)

>  <smiles>  (21) 
Cc1ccc2c(=N)n(Cc3ccccn3)[nH]c2n1

>  <score_type>  (21) 
oracle

>  <origin>  (21) 
adg

>  <m_score__min__energy>  (21) 
-8.5099999999999998

>  <m_primary>  (21) 
energy

$$$$
21:0
     RDKit          3D

 54 57  0  0  0  0  0  0  0  0999 V2000
   62.6006   34.2270   45.2657 H   0  0  0  0  0  0  0  0  0  0  0  0
   62.3930   33.8420   46.2750 C   0  0  0  0  0  0  0  0  0  0  0  0
   61.0270   33.9750   46.8230 C   0  0  0  0  0  0  0  0  0  0  0  0
   60.7510   34.9290   47.6050 O   0  0  0  0  0  0  0  0  0  0  0  0
   60.0000   33.0240   46.4500 N   0  0  1  0  0  0  0  0  0  0  0  0
   60.1200   32.7230   45.4530 H   0  0  0  0  0  0  0  0  0  0  0  0
   60.0860   31.8660   47.2850 C   0  0  0  0  0  0  0  0  0  0  0  0
   61.1610   30.9660   47.3130 C   0  0  0  0  0  0  0  0  0  0  0  0
   62.0376   31.1195   46.6664 H   0  0  0  0  0  0  0  0  0  0  0  0
   61.0970   29.8640   48.1830 C   0  0  0  0  0  0  0  0  0  0  0  0
   61.9308   29.1476   48.2232 H   0  0  0  0  0  0  0  0  0  0  0  0
   59.9700   29.6750   49.0020 C   0  0  0  0  0  0  0  0  0  0  0  0
   59.9277   28.8150   49.6865 H   0  0  0  0  0  0  0  0  0  0  0  0
   58.8990   30.5800   48.9490 C   0  0  0  0  0  0  0  0  0  0  0  0
   58.0109   30.4381   49.5824 H   0  0  0  0  0  0  0  0  0  0  0  0
   58.9860   31.6650   48.0740 C   0  0  0  0  0  0  0  0  0  0  0  0
   57.9830   32.7160   47.8390 C   0  0  0  0  0  0  0  0  0  0  0  0
   57.8218   33.3190   48.7448 H   0  0  0  0  0  0  0  0  0  0  0  0
   56.9923   32.3195   47.5720 H   0  0  0  0  0  0  0  0  0  0  0  0
   58.6290   33.5650   46.7100 C   0  0  2  0  0  0  0  0  0  0  0  0
   58.7033   34.6188   47.0165 H   0  0  0  0  0  0  0  0  0  0  0  0
   57.7700   33.5290   45.4590 C   0  0  0  0  0  0  0  0  0  0  0  0
   56.7390   34.2490   45.3930 O   0  0  0  0  0  0  0  0  0  0  0  0
   58.1490   32.7620   44.3080 N   0  0  0  0  0  0  0  0  0  0  0  0
   57.8960   31.3630   44.1290 C   0  0  0  0  0  0  0  0  0  0  0  0
   56.8930   30.9160   43.2560 C   0  0  0  0  0  0  0  0  0  0  0  0
   56.2989   31.6447   42.6851 H   0  0  0  0  0  0  0  0  0  0  0  0
   56.6460   29.5500   43.1090 C   0  0  0  0  0  0  0  0  0  0  0  0
   55.8448   29.2056   42.4386 H   0  0  0  0  0  0  0  0  0  0  0  0
   57.4160   28.6190   43.8130 C   0  0  0  0  0  0  0  0  0  0  0  0
   57.2005   27.5449   43.7137 H   0  0  0  0  0  0  0  0  0  0  0  0
   58.4640   29.0470   44.6470 C   0  0  0  0  0  0  0  0  0  0  0  0
   59.2790   28.0530   45.4360 C   0  0  0  0  0  0  0  0  0  0  0  0
   60.6030   28.4470   45.4340 F   0  0  0  0  0  0  0  0  0  0  0  0
   58.8360   27.9750   46.7450 F   0  0  0  0  0  0  0  0  0  0  0  0
   59.1810   26.7950   44.8710 F   0  0  0  0  0  0  0  0  0  0  0  0
   58.6910   30.4280   44.8040 C   0  0  0  0  0  0  0  0  0  0  0  0
   59.5003   30.7757   45.4629 H   0  0  0  0  0  0  0  0  0  0  0  0
   63.3840   33.2700   46.9640 C   0  0  0  0  0  0  0  0  0  0  0  0
   63.8941   32.3859   46.5540 H   0  0  0  0  0  0  0  0  0  0  0  0
   63.8070   33.8240   48.2930 C   0  0  0  0  0  0  0  0  0  0  0  0
   64.8877   33.6653   48.4228 H   0  0  0  0  0  0  0  0  0  0  0  0
   63.5729   34.8985   48.3186 H   0  0  0  0  0  0  0  0  0  0  0  0
   63.0700   33.1420   49.4130 C   0  0  0  0  0  0  0  0  0  0  0  0
   63.4440   31.8520   49.8230 C   0  0  0  0  0  0  0  0  0  0  0  0
   64.2994   31.3521   49.3451 H   0  0  0  0  0  0  0  0  0  0  0  0
   62.7340   31.2000   50.8360 C   0  0  0  0  0  0  0  0  0  0  0  0
   63.0354   30.1922   51.1577 H   0  0  0  0  0  0  0  0  0  0  0  0
   61.6410   31.8290   51.4400 C   0  0  0  0  0  0  0  0  0  0  0  0
   61.0840   31.3167   52.2383 H   0  0  0  0  0  0  0  0  0  0  0  0
   61.2560   33.1080   51.0300 C   0  0  0  0  0  0  0  0  0  0  0  0
   60.3945   33.6008   51.5044 H   0  0  0  0  0  0  0  0  0  0  0  0
   61.9640   33.7620   50.0180 C   0  0  0  0  0  0  0  0  0  0  0  0
   61.6540   34.7664   49.6938 H   0  0  0  0  0  0  0  0  0  0  0  0
  1  2  1  0
  2  3  1  0
  3  4  2  0
  3  5  1  0
  5  6  1  6
  5  7  1  0
  7  8  2  0
  8  9  1  0
  8 10  1  0
 10 11  1  0
 10 12  2  0
 12 13  1  0
 12 14  1  0
 14 15  1  0
 14 16  2  0
 16 17  1  0
 17 18  1  0
 17 19  1  0
 17 20  1  0
 20 21  1  1
 20 22  1  0
 22 23  2  0
 22 24  1  0
 24 25  1  0
 25 26  2  0
 26 27  1  0
 26 28  1  0
 28 29  1  0
 28 30  2  0
 30 31  1  0
 30 32  1  0
 32 33  1  0
 33 34  1  0
 33 35  1  0
 33 36  1  0
 32 37  2  0
 37 38  1  0
  2 39  2  0
 39 40  1  0
 39 41  1  0
 41 42  1  0
 41 43  1  0
 41 44  1  0
 44 45  2  0
 45 46  1  0
 45 47  1  0
 47 48  1  0
 47 49  2  0
 49 50  1  0
 49 51  1  0
 51 52  1  0
 51 53  2  0
 53 54  1  0
 20  5  1  0
 37 25  1  0
 53 44  1  0
 16  7  1  0
M  CHG  2   5   1  24  -1
M  END
>  <UniqueID>  (22) 
22

>  <SMILES>  (22) 
O=C([N-]c1cccc(C(F)(F)F)c1)[C@H]1Cc2ccccc2[N@@H+]1C(=O)/C=C/Cc1ccccc1

>  <Energy>  (22) 
73.87938517381593

>  <Genealogy>  (22) 
O=C([N-]c1cccc(C(F)(F)F)c1)C1Cc2ccccc2[NH+]1C(=O)C=CCc1ccccc1 (protonated)
O=C([N-]c1cccc(C(F)(F)F)c1)[C@H]1Cc2ccccc2[N@@H+]1C(=O)C=CCc1ccccc1 (chirality)
O=C([N-]c1cccc(C(F)(F)F)c1)[C@H]1Cc2ccccc2[N@@H+]1C(=O)/C=C/Cc1ccccc1 (cis-trans isomerization)
O=C([N-]c1cccc(C(F)(F)F)c1)[C@H]1Cc2ccccc2[N@@H+]1C(=O)/C=C/Cc1ccccc1 (3D coordinates assigned)
O=C([N-]c1cccc(C(F)(F)F)c1)[C@H]1Cc2ccccc2[N@@H+]1C(=O)/C=C/Cc1ccccc1 (nonaromatic ring conformer: 73.87938517381593 kcal/mol)

>  <smiles>  (22) 
O=C(Nc1cccc(C(F)(F)F)c1)C1Cc2ccccc2N1C(=O)C=CCc1ccccc1

>  <score_type>  (22) 
oracle

>  <origin>  (22) 
adg

>  <m_score__min__energy>  (22) 
-9.1999999999999993

>  <m_primary>  (22) 
energy

$$$$
22:0
     RDKit          3D

 40 42  0  0  0  0  0  0  0  0999 V2000
   58.8520   22.2970   44.8800 C   0  0  0  0  0  0  0  0  0  0  0  0
   57.7540   22.2250   43.9090 N   0  0  0  0  0  0  0  0  0  0  0  0
   57.6650   21.0940   42.9830 C   0  0  0  0  0  0  0  0  0  0  0  0
   56.6700   23.1740   43.9620 C   0  0  0  0  0  0  0  0  0  0  0  0
   55.5100   22.8120   43.6220 O   0  0  0  0  0  0  0  0  0  0  0  0
   56.8760   24.5670   44.4140 C   0  0  0  0  0  0  0  0  0  0  0  0
   57.5910   25.4790   43.6230 C   0  0  0  0  0  0  0  0  0  0  0  0
   57.7670   26.7980   44.0510 C   0  0  0  0  0  0  0  0  0  0  0  0
   57.2090   27.2340   45.2590 C   0  0  0  0  0  0  0  0  0  0  0  0
   57.4340   28.5900   45.6710 N   0  0  0  0  0  0  0  0  0  0  0  0
   56.7160   29.7510   45.2270 C   0  0  0  0  0  0  0  0  0  0  0  0
   55.5210   29.6440   44.8380 O   0  0  0  0  0  0  0  0  0  0  0  0
   57.3960   31.0670   45.1730 C   0  0  0  0  0  0  0  0  0  0  0  0
   57.5650   31.7350   43.9470 C   0  0  0  0  0  0  0  0  0  0  0  0
   58.1870   32.9430   43.9010 N   0  0  0  0  0  0  0  0  0  0  0  0
   58.6650   33.5480   45.0200 C   0  0  0  0  0  0  0  0  0  0  0  0
   59.3010   34.7920   44.9290 C   0  0  0  0  0  0  0  0  0  0  0  0
   59.7910   35.4110   46.0830 C   0  0  0  0  0  0  0  0  0  0  0  0
   59.6490   34.7920   47.3290 C   0  0  0  0  0  0  0  0  0  0  0  0
   59.0150   33.5480   47.4280 C   0  0  0  0  0  0  0  0  0  0  0  0
   58.5210   32.9190   46.2750 C   0  0  0  0  0  0  0  0  0  0  0  0
   57.8820   31.6750   46.3420 C   0  0  0  0  0  0  0  0  0  0  0  0
   56.4950   26.3200   46.0550 C   0  0  0  0  0  0  0  0  0  0  0  0
   56.3190   25.0010   45.6270 C   0  0  0  0  0  0  0  0  0  0  0  0
   58.4416   22.2701   45.9002 H   0  0  0  0  0  0  0  0  0  0  0  0
   59.5275   21.4412   44.7338 H   0  0  0  0  0  0  0  0  0  0  0  0
   59.4099   23.2337   44.7338 H   0  0  0  0  0  0  0  0  0  0  0  0
   57.5913   20.1571   43.5546 H   0  0  0  0  0  0  0  0  0  0  0  0
   56.7731   21.2082   42.3494 H   0  0  0  0  0  0  0  0  0  0  0  0
   58.5638   21.0672   42.3494 H   0  0  0  0  0  0  0  0  0  0  0  0
   58.0151   25.1544   42.6613 H   0  0  0  0  0  0  0  0  0  0  0  0
   58.3484   27.4989   43.4340 H   0  0  0  0  0  0  0  0  0  0  0  0
   57.1915   31.2771   43.0192 H   0  0  0  0  0  0  0  0  0  0  0  0
   59.4151   35.2818   43.9507 H   0  0  0  0  0  0  0  0  0  0  0  0
   60.2901   36.3886   46.0106 H   0  0  0  0  0  0  0  0  0  0  0  0
   60.0365   35.2839   48.2334 H   0  0  0  0  0  0  0  0  0  0  0  0
   58.9040   33.0636   48.4094 H   0  0  0  0  0  0  0  0  0  0  0  0
   57.7603   31.1725   47.3129 H   0  0  0  0  0  0  0  0  0  0  0  0
   56.0736   26.6445   47.0179 H   0  0  0  0  0  0  0  0  0  0  0  0
   55.7402   24.2986   46.2448 H   0  0  0  0  0  0  0  0  0  0  0  0
  1  2  1  0
  2  3  1  0
  2  4  1  0
  4  5  2  0
  4  6  1  0
  6  7  2  0
  7  8  1  0
  8  9  2  0
  9 10  1  0
 10 11  1  0
 11 12  2  0
 11 13  1  0
 13 14  2  0
 14 15  1  0
 15 16  2  0
 16 17  1  0
 17 18  2  0
 18 19  1  0
 19 20  2  0
 20 21  1  0
 21 22  2  0
  9 23  1  0
 23 24  2  0
 24  6  1  0
 22 13  1  0
 21 16  1  0
  1 25  1  0
  1 26  1  0
  1 27  1  0
  3 28  1  0
  3 29  1  0
  3 30  1  0
  7 31  1  0
  8 32  1  0
 14 33  1  0
 17 34  1  0
 18 35  1  0
 19 36  1  0
 20 37  1  0
 22 38  1  0
 23 39  1  0
 24 40  1  0
M  CHG  1  10  -1
M  END
>  <UniqueID>  (23) 
23

>  <SMILES>  (23) 
CN(C)C(=O)c1ccc([N-]C(=O)c2cnc3ccccc3c2)cc1

>  <Energy>  (23) 
53.3398175271072

>  <Genealogy>  (23) 
CN(C)C(=O)c1ccc([N-]C(=O)c2cnc3ccccc3c2)cc1 (protonated)
CN(C)C(=O)c1ccc([N-]C(=O)c2cnc3ccccc3c2)cc1 (3D coordinates assigned)
CN(C)C(=O)c1ccc([N-]C(=O)c2cnc3ccccc3c2)cc1 (optimized conformer: 53.3398175271072 kcal/mol)

>  <smiles>  (23) 
CN(C)C(=O)c1ccc(NC(=O)c2cnc3ccccc3c2)cc1

>  <score_type>  (23) 
oracle

>  <origin>  (23) 
adg

>  <m_score__min__energy>  (23) 
-9.6600000000000001

>  <m_primary>  (23) 
energy

$$$$
23:0
     RDKit          3D

 47 48  0  0  1  0  0  0  0  0999 V2000
   63.3740   33.8480   46.4050 C   0  0  0  0  0  0  0  0  0  0  0  0
   63.7470   32.9800   47.5940 C   0  0  0  0  0  0  0  0  0  0  0  0
   63.0790   31.5980   47.5020 C   0  0  0  0  0  0  0  0  0  0  0  0
   61.9900   31.6430   48.5580 C   0  0  0  0  0  0  0  0  0  0  0  0
   61.0910   30.5730   48.3380 N   0  0  0  0  0  0  0  0  0  0  0  0
   60.1300   30.4950   47.4940 C   0  0  0  0  0  0  0  0  0  0  0  0
   59.6840   29.3060   46.9910 N   0  0  0  0  0  0  0  0  0  0  0  0
   58.6680   29.2640   46.1110 C   0  0  0  0  0  0  0  0  0  0  0  0
   58.1570   28.0570   45.5580 N   0  0  0  0  0  0  0  0  0  0  0  0
   58.3900   27.8670   44.1220 C   0  0  0  0  0  0  0  0  0  0  0  0
   57.4490   27.0600   46.3390 C   0  0  0  0  0  0  0  0  0  0  0  0
   58.3370   26.1600   47.1310 C   0  0  0  0  0  0  0  0  0  0  0  0
   58.0660   30.4390   45.7080 C   0  0  0  0  0  0  0  0  0  0  0  0
   57.0440   30.7240   44.8560 N   0  0  0  0  0  0  0  0  0  0  0  0
   56.8650   32.0690   44.8360 C   0  0  0  0  0  0  0  0  0  0  0  0
   57.7770   32.6120   45.6750 N   0  0  0  0  0  0  0  0  0  0  0  0
   57.9170   34.0330   45.9390 C   0  0  0  0  0  0  0  0  0  0  0  0
   59.3270   34.5090   45.5810 C   0  0  0  0  0  0  0  0  0  0  0  0
   60.0200   34.9390   46.8440 C   0  0  0  0  0  0  0  0  0  0  0  0
   58.5340   31.6360   46.2300 C   0  0  0  0  0  0  0  0  0  0  0  0
   59.5500   31.6410   47.1080 N   0  0  0  0  0  0  0  0  0  0  0  0
   62.9634   34.8036   46.7631 H   0  0  0  0  0  0  0  0  0  0  0  0
   64.2694   34.0392   45.7953 H   0  0  0  0  0  0  0  0  0  0  0  0
   62.6191   33.3300   45.7953 H   0  0  0  0  0  0  0  0  0  0  0  0
   64.8391   32.8504   47.6156 H   0  0  0  0  0  0  0  0  0  0  0  0
   63.3982   33.4761   48.5117 H   0  0  0  0  0  0  0  0  0  0  0  0
   62.6477   31.4384   46.5027 H   0  0  0  0  0  0  0  0  0  0  0  0
   63.7895   30.7738   47.6627 H   0  0  0  0  0  0  0  0  0  0  0  0
   62.4406   31.5467   49.5569 H   0  0  0  0  0  0  0  0  0  0  0  0
   61.4512   32.6000   48.4959 H   0  0  0  0  0  0  0  0  0  0  0  0
   59.2349   27.1780   43.9756 H   0  0  0  0  0  0  0  0  0  0  0  0
   57.4873   27.4442   43.6569 H   0  0  0  0  0  0  0  0  0  0  0  0
   58.6225   28.8363   43.6569 H   0  0  0  0  0  0  0  0  0  0  0  0
   56.7764   27.5815   47.0359 H   0  0  0  0  0  0  0  0  0  0  0  0
   56.9098   26.4221   45.6232 H   0  0  0  0  0  0  0  0  0  0  0  0
   58.1686   26.3307   48.2045 H   0  0  0  0  0  0  0  0  0  0  0  0
   58.1093   25.1120   46.8862 H   0  0  0  0  0  0  0  0  0  0  0  0
   59.3879   26.3737   46.8862 H   0  0  0  0  0  0  0  0  0  0  0  0
   56.1158   32.6172   44.2459 H   0  0  0  0  0  0  0  0  0  0  0  0
   57.1836   34.5873   45.3349 H   0  0  0  0  0  0  0  0  0  0  0  0
   57.7416   34.2147   47.0096 H   0  0  0  0  0  0  0  0  0  0  0  0
   59.8879   33.6876   45.1112 H   0  0  0  0  0  0  0  0  0  0  0  0
   59.2728   35.3510   44.8752 H   0  0  0  0  0  0  0  0  0  0  0  0
   59.4487   34.5845   47.7146 H   0  0  0  0  0  0  0  0  0  0  0  0
   61.0327   34.5104   46.8707 H   0  0  0  0  0  0  0  0  0  0  0  0
   60.0856   36.0367   46.8707 H   0  0  0  0  0  0  0  0  0  0  0  0
   59.8560   32.5690   47.4600 H   0  0  0  0  0  0  0  0  0  0  0  0
  1  2  1  0
  2  3  1  0
  3  4  1  0
  4  5  1  0
  5  6  2  0
  6  7  1  0
  7  8  2  0
  8  9  1  0
  9 10  1  0
  9 11  1  0
 11 12  1  0
  8 13  1  0
 13 14  1  0
 14 15  2  0
 15 16  1  0
 16 17  1  0
 17 18  1  0
 18 19  1  0
 16 20  1  0
 20 21  1  0
 21  6  1  0
 20 13  2  0
  1 22  1  0
  1 23  1  0
  1 24  1  0
  2 25  1  0
  2 26  1  0
  3 27  1  0
  3 28  1  0
  4 29  1  0
  4 30  1  0
 10 31  1  0
 10 32  1  0
 10 33  1  0
 11 34  1  0
 11 35  1  0
 12 36  1  0
 12 37  1  0
 12 38  1  0
 15 39  1  0
 17 40  1  0
 17 41  1  0
 18 42  1  0
 18 43  1  0
 19 44  1  0
 19 45  1  0
 19 46  1  0
 21 47  1  0
M  END
>  <smiles>  (24) 
CCCCN=c1nc(N(C)CC)c2ncn(CCC)c2[nH]1

>  <score_type>  (24) 
oracle

>  <origin>  (24) 
adg

>  <m_score__min__energy>  (24) 
-5.8399999999999999

>  <m_primary>  (24) 
energy

$$$$
24:0
     RDKit          3D

 39 42  0  0  0  0  0  0  0  0999 V2000
   59.7240   36.1780   45.3090 O   0  0  0  0  0  0  0  0  0  0  0  0
   59.2640   35.0910   45.6260 C   0  0  0  0  0  0  0  0  0  0  0  0
   59.8760   34.3320   46.7750 C   0  0  0  0  0  0  0  0  0  0  0  0
   58.9710   33.1780   47.2280 C   0  0  0  0  0  0  0  0  0  0  0  0
   58.4710   32.3780   46.0450 C   0  0  0  0  0  0  0  0  0  0  0  0
   58.0560   33.0240   44.9260 C   0  0  0  0  0  0  0  0  0  0  0  0
   57.4240   32.2810   43.7550 C   0  0  0  0  0  0  0  0  0  0  0  0
   57.7360   30.7710   43.7340 C   0  0  0  0  0  0  0  0  0  0  0  0
   57.5070   30.1820   45.1250 C   0  0  2  0  0  0  0  0  0  0  0  0
   58.3790   30.9030   46.0920 C   0  0  0  0  0  0  0  0  0  0  0  0
   59.2230   30.0930   46.7330 C   0  0  0  0  0  0  0  0  0  0  0  0
   59.1440   28.6950   46.2210 C   0  0  1  0  0  0  0  0  0  0  0  0
   60.7650   28.2570   45.2490 Br  0  0  0  0  0  0  0  0  0  0  0  0
   58.8850   27.6670   47.2960 C   0  0  0  0  0  0  0  0  0  0  0  0
   58.1740   26.5610   47.0020 C   0  0  0  0  0  0  0  0  0  0  0  0
   57.6040   26.3580   45.6030 C   0  0  1  0  0  0  0  0  0  0  0  0
   56.4080   25.3950   45.6180 C   0  0  0  0  0  0  0  0  0  0  0  0
   56.5450   24.0210   44.2470 Br  0  0  0  0  0  0  0  0  0  0  0  0
   57.2380   27.6940   44.9820 C   0  0  0  0  0  0  0  0  0  0  0  0
   57.9810   28.7740   45.2770 C   0  0  0  0  0  0  0  0  0  0  0  0
   58.0780   34.5360   44.8780 C   0  0  0  0  0  0  0  0  0  0  0  0
   60.8463   33.9226   46.4574 H   0  0  0  0  0  0  0  0  0  0  0  0
   60.0030   35.0250   47.6197 H   0  0  0  0  0  0  0  0  0  0  0  0
   59.5419   32.5146   47.8943 H   0  0  0  0  0  0  0  0  0  0  0  0
   58.1028   33.6020   47.7538 H   0  0  0  0  0  0  0  0  0  0  0  0
   56.3329   32.4088   43.8115 H   0  0  0  0  0  0  0  0  0  0  0  0
   57.8513   32.7090   42.8362 H   0  0  0  0  0  0  0  0  0  0  0  0
   57.0752   30.2705   43.0110 H   0  0  0  0  0  0  0  0  0  0  0  0
   58.7850   30.6183   43.4403 H   0  0  0  0  0  0  0  0  0  0  0  0
   56.4219   30.2571   45.2888 H   0  0  0  0  0  0  0  0  0  0  0  0
   59.8954   30.4170   47.5410 H   0  0  0  0  0  0  0  0  0  0  0  0
   59.2745   27.8201   48.3133 H   0  0  0  0  0  0  0  0  0  0  0  0
   58.0037   25.7992   47.7770 H   0  0  0  0  0  0  0  0  0  0  0  0
   58.3815   25.8933   44.9789 H   0  0  0  0  0  0  0  0  0  0  0  0
   56.3592   24.9077   46.6029 H   0  0  0  0  0  0  0  0  0  0  0  0
   55.5011   25.9832   45.4140 H   0  0  0  0  0  0  0  0  0  0  0  0
   56.3780   27.7766   44.3012 H   0  0  0  0  0  0  0  0  0  0  0  0
   58.1327   34.8604   43.8283 H   0  0  0  0  0  0  0  0  0  0  0  0
   57.1604   34.9118   45.3543 H   0  0  0  0  0  0  0  0  0  0  0  0
  1  2  2  0
  2  3  1  0
  3  4  1  0
  4  5  1  0
  5  6  2  0
  6  7  1  0
  7  8  1  0
  8  9  1  0
  9 10  1  0
 10 11  2  0
 11 12  1  0
 12 13  1  6
 12 14  1  0
 14 15  2  0
 15 16  1  0
 16 17  1  0
 17 18  1  0
 16 19  1  0
 19 20  2  0
  6 21  1  0
 21  2  1  0
 10  5  1  0
 20 12  1  0
 20  9  1  0
  3 22  1  0
  3 23  1  0
  4 24  1  0
  4 25  1  0
  7 26  1  0
  7 27  1  0
  8 28  1  0
  8 29  1  0
  9 30  1  1
 11 31  1  0
 14 32  1  0
 15 33  1  0
 16 34  1  6
 17 35  1  0
 17 36  1  0
 19 37  1  0
 21 38  1  0
 21 39  1  0
M  END
>  <UniqueID>  (25) 
24

>  <SMILES>  (25) 
O=C1CCC2=C(CC[C@@H]3C2=C[C@@]2(Br)C=CC(CBr)C=C32)C1

>  <Energy>  (25) 
55.31314660752673

>  <Genealogy>  (25) 
O=C1CCC2=C(CC[C@@H]3C2=C[C@@]2(Br)C=CC(CBr)C=C32)C1 (chirality)
O=C1CCC2=C(CC[C@@H]3C2=C[C@@]2(Br)C=CC(CBr)C=C32)C1 (3D coordinates assigned)
O=C1CCC2=C(CC[C@@H]3C2=C[C@@]2(Br)C=CC(CBr)C=C32)C1 (nonaromatic ring conformer: 55.31314660752673 kcal/mol)

>  <smiles>  (25) 
O=C1CCC2=C(CCC3C2=CC2(Br)C=CC(CBr)C=C32)C1

>  <score_type>  (25) 
oracle

>  <origin>  (25) 
adg

>  <m_score__min__energy>  (25) 
-9

>  <m_primary>  (25) 
energy

$$$$
25:0
     RDKit          3D

 41 44  0  0  0  0  0  0  0  0999 V2000
   59.6440   35.5140   45.9220 C   0  0  0  0  0  0  0  0  0  0  0  0
   60.2040   34.7960   47.0160 N   0  0  0  0  0  0  0  0  0  0  0  0
   61.1420   33.7930   46.5910 C   0  0  0  0  0  0  0  0  0  0  0  0
   60.6300   32.4020   46.5920 C   0  0  0  0  0  0  0  0  0  0  0  0
   59.2330   32.2480   46.8710 N   0  0  0  0  0  0  0  0  0  0  0  0
   58.6310   30.9870   46.5970 C   0  0  0  0  0  0  0  0  0  0  0  0
   58.8570   29.8670   47.3920 C   0  0  0  0  0  0  0  0  0  0  0  0
   58.2900   28.6490   47.1470 C   0  0  0  0  0  0  0  0  0  0  0  0
   57.4510   28.4900   46.0670 C   0  0  0  0  0  0  0  0  0  0  0  0
   56.8410   27.1960   45.7960 C   0  0  0  0  0  0  0  0  0  0  0  0
   57.4600   26.1110   45.3010 N   0  0  0  0  0  0  0  0  0  0  0  0
   56.5830   25.0890   45.1810 C   0  0  0  0  0  0  0  0  0  0  0  0
   56.7670   23.7970   44.7230 C   0  0  0  0  0  0  0  0  0  0  0  0
   55.6400   22.9860   44.7300 C   0  0  0  0  0  0  0  0  0  0  0  0
   54.4170   23.4560   45.1710 C   0  0  0  0  0  0  0  0  0  0  0  0
   54.2950   24.7410   45.6130 N   0  0  0  0  0  0  0  0  0  0  0  0
   55.3700   25.5650   45.6220 C   0  0  0  0  0  0  0  0  0  0  0  0
   55.5590   26.8610   45.9930 N   0  0  0  0  0  0  0  0  0  0  0  0
   57.1930   29.5690   45.2470 C   0  0  0  0  0  0  0  0  0  0  0  0
   56.1250   29.4180   43.8510 Cl  0  0  0  0  0  0  0  0  0  0  0  0
   57.7810   30.7920   45.5200 C   0  0  0  0  0  0  0  0  0  0  0  0
   58.3820   33.2890   47.4130 C   0  0  0  0  0  0  0  0  0  0  0  0
   59.2780   34.3400   48.0090 C   0  0  0  0  0  0  0  0  0  0  0  0
   59.0095   36.3275   46.3036 H   0  0  0  0  0  0  0  0  0  0  0  0
   60.4531   35.9371   45.3085 H   0  0  0  0  0  0  0  0  0  0  0  0
   59.0366   34.8323   45.3085 H   0  0  0  0  0  0  0  0  0  0  0  0
   61.4588   34.0372   45.5663 H   0  0  0  0  0  0  0  0  0  0  0  0
   61.9616   33.8146   47.3243 H   0  0  0  0  0  0  0  0  0  0  0  0
   60.8246   31.9709   45.5989 H   0  0  0  0  0  0  0  0  0  0  0  0
   61.1548   31.8930   47.4138 H   0  0  0  0  0  0  0  0  0  0  0  0
   59.5250   29.9679   48.2601 H   0  0  0  0  0  0  0  0  0  0  0  0
   58.5029   27.7978   47.8104 H   0  0  0  0  0  0  0  0  0  0  0  0
   57.7454   23.4344   44.3748 H   0  0  0  0  0  0  0  0  0  0  0  0
   55.7220   21.9474   44.3771 H   0  0  0  0  0  0  0  0  0  0  0  0
   53.5399   22.7922   45.1655 H   0  0  0  0  0  0  0  0  0  0  0  0
   54.7740   27.4660   46.3740 H   0  0  0  0  0  0  0  0  0  0  0  0
   57.5652   31.6422   44.8562 H   0  0  0  0  0  0  0  0  0  0  0  0
   57.7690   33.7281   46.6121 H   0  0  0  0  0  0  0  0  0  0  0  0
   57.7053   32.8781   48.1766 H   0  0  0  0  0  0  0  0  0  0  0  0
   58.6685   35.1864   48.3584 H   0  0  0  0  0  0  0  0  0  0  0  0
   59.8314   33.9120   48.8579 H   0  0  0  0  0  0  0  0  0  0  0  0
  1  2  1  0
  2  3  1  0
  3  4  1  0
  4  5  1  0
  5  6  1  0
  6  7  2  0
  7  8  1  0
  8  9  2  0
  9 10  1  0
 10 11  2  0
 11 12  1  0
 12 13  2  0
 13 14  1  0
 14 15  2  0
 15 16  1  0
 16 17  2  0
 17 18  1  0
  9 19  1  0
 19 20  1  0
 19 21  2  0
  5 22  1  0
 22 23  1  0
 23  2  1  0
 21  6  1  0
 18 10  1  0
 17 12  1  0
  1 24  1  0
  1 25  1  0
  1 26  1  0
  3 27  1  0
  3 28  1  0
  4 29  1  0
  4 30  1  0
  7 31  1  0
  8 32  1  0
 13 33  1  0
 14 34  1  0
 15 35  1  0
 18 36  1  0
 21 37  1  0
 22 38  1  0
 22 39  1  0
 23 40  1  0
 23 41  1  0
M  END
>  <smiles>  (26) 
CN1CCN(c2ccc(-c3nc4cccnc4[nH]3)c(Cl)c2)CC1

>  <score_type>  (26) 
oracle

>  <origin>  (26) 
adg

>  <m_score__min__energy>  (26) 
-7.7400000000000002

>  <m_primary>  (26) 
energy

$$$$
26:0
     RDKit          3D

 43 45  0  0  0  0  0  0  0  0999 V2000
   57.5190   24.6190   46.2410 C   0  0  0  0  0  0  0  0  0  0  0  0
   57.3510   25.6660   47.1480 C   0  0  0  0  0  0  0  0  0  0  0  0
   57.3960   26.9930   46.7060 C   0  0  0  0  0  0  0  0  0  0  0  0
   57.6120   27.2830   45.3450 C   0  0  0  0  0  0  0  0  0  0  0  0
   57.6610   28.6900   44.8720 C   0  0  0  0  0  0  0  0  0  0  0  0
   56.5590   29.2600   44.2110 C   0  0  0  0  0  0  0  0  0  0  0  0
   56.6040   30.5860   43.7710 C   0  0  0  0  0  0  0  0  0  0  0  0
   57.7470   31.3700   43.9920 C   0  0  0  0  0  0  0  0  0  0  0  0
   57.7840   32.8050   43.5380 C   0  0  0  0  0  0  0  0  0  0  0  0
   58.0230   33.7440   44.6520 N   0  0  0  0  0  0  0  0  0  0  0  0
   57.1350   33.6920   45.8280 C   0  0  0  0  0  0  0  0  0  0  0  0
   57.7750   32.9610   47.0210 C   0  0  0  0  0  0  0  0  0  0  0  0
   58.6610   33.8590   47.8980 C   0  0  0  0  0  0  0  0  0  0  0  0
   59.9630   34.3520   47.2430 C   0  0  0  0  0  0  0  0  0  0  0  0
   60.2410   33.7560   45.8510 C   0  0  0  0  0  0  0  0  0  0  0  0
   59.3480   34.3810   44.7660 C   0  0  0  0  0  0  0  0  0  0  0  0
   58.8530   30.8000   44.6400 C   0  0  0  0  0  0  0  0  0  0  0  0
   58.8100   29.4740   45.0790 C   0  0  0  0  0  0  0  0  0  0  0  0
   57.7810   26.2170   44.4410 C   0  0  0  0  0  0  0  0  0  0  0  0
   57.7330   24.8940   44.8880 C   0  0  0  0  0  0  0  0  0  0  0  0
   57.4829   23.5769   46.5913 H   0  0  0  0  0  0  0  0  0  0  0  0
   57.1828   25.4478   48.2129 H   0  0  0  0  0  0  0  0  0  0  0  0
   57.2619   27.8141   47.4256 H   0  0  0  0  0  0  0  0  0  0  0  0
   55.6546   28.6581   44.0387 H   0  0  0  0  0  0  0  0  0  0  0  0
   55.7379   31.0179   43.2481 H   0  0  0  0  0  0  0  0  0  0  0  0
   58.5911   32.9208   42.7996 H   0  0  0  0  0  0  0  0  0  0  0  0
   56.8018   33.0439   43.1041 H   0  0  0  0  0  0  0  0  0  0  0  0
   56.8942   34.7210   46.1334 H   0  0  0  0  0  0  0  0  0  0  0  0
   56.2328   33.1326   45.5397 H   0  0  0  0  0  0  0  0  0  0  0  0
   56.9699   32.5502   47.6480 H   0  0  0  0  0  0  0  0  0  0  0  0
   58.4263   32.1786   46.6043 H   0  0  0  0  0  0  0  0  0  0  0  0
   58.0703   34.7420   48.1833 H   0  0  0  0  0  0  0  0  0  0  0  0
   58.9702   33.2361   48.7503 H   0  0  0  0  0  0  0  0  0  0  0  0
   59.9050   35.4459   47.1433 H   0  0  0  0  0  0  0  0  0  0  0  0
   60.7859   34.0233   47.8948 H   0  0  0  0  0  0  0  0  0  0  0  0
   61.2944   33.9373   45.5913 H   0  0  0  0  0  0  0  0  0  0  0  0
   60.0203   32.6792   45.8930 H   0  0  0  0  0  0  0  0  0  0  0  0
   59.2029   35.4448   45.0054 H   0  0  0  0  0  0  0  0  0  0  0  0
   59.8599   34.2346   43.8035 H   0  0  0  0  0  0  0  0  0  0  0  0
   59.7599   31.4007   44.8036 H   0  0  0  0  0  0  0  0  0  0  0  0
   59.6818   29.0400   45.5905 H   0  0  0  0  0  0  0  0  0  0  0  0
   57.9521   26.4272   43.3749 H   0  0  0  0  0  0  0  0  0  0  0  0
   57.8639   24.0678   44.1736 H   0  0  0  0  0  0  0  0  0  0  0  0
  1  2  2  0
  2  3  1  0
  3  4  2  0
  4  5  1  0
  5  6  2  0
  6  7  1  0
  7  8  2  0
  8  9  1  0
  9 10  1  0
 10 11  1  0
 11 12  1  0
 12 13  1  0
 13 14  1  0
 14 15  1  0
 15 16  1  0
  8 17  1  0
 17 18  2  0
  4 19  1  0
 19 20  2  0
 20  1  1  0
 18  5  1  0
 16 10  1  0
  1 21  1  0
  2 22  1  0
  3 23  1  0
  6 24  1  0
  7 25  1  0
  9 26  1  0
  9 27  1  0
 11 28  1  0
 11 29  1  0
 12 30  1  0
 12 31  1  0
 13 32  1  0
 13 33  1  0
 14 34  1  0
 14 35  1  0
 15 36  1  0
 15 37  1  0
 16 38  1  0
 16 39  1  0
 17 40  1  0
 18 41  1  0
 19 42  1  0
 20 43  1  0
M  END
>  <UniqueID>  (27) 
25

>  <SMILES>  (27) 
c1ccc(-c2ccc(CN3CCCCCC3)cc2)cc1

>  <Energy>  (27) 
64.1249690605934

>  <Genealogy>  (27) 
c1ccc(-c2ccc(CN3CCCCCC3)cc2)cc1 (3D coordinates assigned)
c1ccc(-c2ccc(CN3CCCCCC3)cc2)cc1 (nonaromatic ring conformer: 64.1249690605934 kcal/mol)

>  <smiles>  (27) 
c1ccc(-c2ccc(CN3CCCCCC3)cc2)cc1

>  <score_type>  (27) 
oracle

>  <origin>  (27) 
adg

>  <m_score__min__energy>  (27) 
-5.3099999999999996

>  <m_primary>  (27) 
energy

$$$$
27:0
     RDKit          3D

 28 29  0  0  0  0  0  0  0  0999 V2000
   60.1240   29.9030   46.0240 O   0  0  0  0  0  0  0  0  0  0  0  0
   58.9350   29.4820   46.0610 C   0  0  0  0  0  0  0  0  0  0  0  0
   57.8390   30.4160   46.0070 N   0  0  0  0  0  0  0  0  0  0  0  0
   58.0020   31.8320   45.8160 C   0  0  0  0  0  0  0  0  0  0  0  0
   57.3990   32.4500   44.7100 C   0  0  0  0  0  0  0  0  0  0  0  0
   57.5630   33.8210   44.4890 C   0  0  0  0  0  0  0  0  0  0  0  0
   58.3440   34.5830   45.3620 C   0  0  0  0  0  0  0  0  0  0  0  0
   58.9720   33.9730   46.4530 C   0  0  0  0  0  0  0  0  0  0  0  0
   59.9740   34.9250   47.5310 Cl  0  0  0  0  0  0  0  0  0  0  0  0
   58.8080   32.6010   46.6760 C   0  0  0  0  0  0  0  0  0  0  0  0
   58.6960   28.0230   46.1660 C   0  0  0  0  0  0  0  0  0  0  0  0
   59.7890   27.1440   46.2470 C   0  0  0  0  0  0  0  0  0  0  0  0
   59.5860   25.7670   46.3490 C   0  0  0  0  0  0  0  0  0  0  0  0
   58.2910   25.2490   46.3810 C   0  0  0  0  0  0  0  0  0  0  0  0
   57.1790   26.1060   46.3170 C   0  0  0  0  0  0  0  0  0  0  0  0
   55.8450   25.5680   46.3660 N   0  0  0  0  0  0  0  0  0  0  0  0
   55.6410   24.4060   46.7760 O   0  0  0  0  0  0  0  0  0  0  0  0
   54.7690   26.3270   45.9680 O   0  0  0  0  0  0  0  0  0  0  0  0
   57.3920   27.4950   46.2140 C   0  0  0  0  0  0  0  0  0  0  0  0
   56.8670   30.0700   46.1620 H   0  0  0  0  0  0  0  0  0  0  0  0
   56.7936   31.8524   44.0126 H   0  0  0  0  0  0  0  0  0  0  0  0
   57.0765   34.3004   43.6267 H   0  0  0  0  0  0  0  0  0  0  0  0
   58.4650   35.6629   45.1912 H   0  0  0  0  0  0  0  0  0  0  0  0
   59.3118   32.1212   47.5280 H   0  0  0  0  0  0  0  0  0  0  0  0
   60.8134   27.5445   46.2299 H   0  0  0  0  0  0  0  0  0  0  0  0
   60.4497   25.0880   46.4043 H   0  0  0  0  0  0  0  0  0  0  0  0
   58.1392   24.1622   46.4569 H   0  0  0  0  0  0  0  0  0  0  0  0
   56.5286   28.1752   46.1706 H   0  0  0  0  0  0  0  0  0  0  0  0
  1  2  2  0
  2  3  1  0
  3  4  1  0
  4  5  2  0
  5  6  1  0
  6  7  2  0
  7  8  1  0
  8  9  1  0
  8 10  2  0
  2 11  1  0
 11 12  2  0
 12 13  1  0
 13 14  2  0
 14 15  1  0
 15 16  1  0
 16 17  2  0
 16 18  1  0
 15 19  2  0
 10  4  1  0
 19 11  1  0
  3 20  1  0
  5 21  1  0
  6 22  1  0
  7 23  1  0
 10 24  1  0
 12 25  1  0
 13 26  1  0
 14 27  1  0
 19 28  1  0
M  CHG  2  16   1  18  -1
M  END
>  <UniqueID>  (28) 
26

>  <SMILES>  (28) 
O=C(Nc1cccc(Cl)c1)c1cccc([N+](=O)[O-])c1

>  <Energy>  (28) 
37.02491655374742

>  <Genealogy>  (28) 
O=C(Nc1cccc(Cl)c1)c1cccc([N+](=O)[O-])c1 (3D coordinates assigned)
O=C(Nc1cccc(Cl)c1)c1cccc([N+](=O)[O-])c1 (optimized conformer: 37.02491655374742 kcal/mol)

>  <smiles>  (28) 
O=C(Nc1cccc(Cl)c1)c1cccc([N+](=O)[O-])c1

>  <score_type>  (28) 
oracle

>  <origin>  (28) 
adg

>  <m_score__min__energy>  (28) 
-7.46

>  <m_primary>  (28) 
energy

$$$$
28:0
     RDKit          3D

 34 36  0  0  0  0  0  0  0  0999 V2000
   57.6250   25.2370   46.9130 C   0  0  0  0  0  0  0  0  0  0  0  0
   57.5430   25.1960   45.4180 C   0  0  0  0  0  0  0  0  0  0  0  0
   57.2830   24.0730   44.6600 C   0  0  0  0  0  0  0  0  0  0  0  0
   57.4030   24.5040   43.3520 C   0  0  0  0  0  0  0  0  0  0  0  0
   57.7320   25.8110   43.3330 N   0  0  0  0  0  0  0  0  0  0  0  0
   57.8110   26.2260   44.5870 N   0  0  0  0  0  0  0  0  0  0  0  0
   58.2060   27.5820   44.9600 C   0  0  0  0  0  0  0  0  0  0  0  0
   57.0070   28.3470   45.4510 C   0  0  0  0  0  0  0  0  0  0  0  0
   55.9080   27.7470   45.5680 O   0  0  0  0  0  0  0  0  0  0  0  0
   57.0500   29.7610   45.6830 N   0  0  0  0  0  0  0  0  0  0  0  0
   57.3350   30.7720   44.7030 C   0  0  0  0  0  0  0  0  0  0  0  0
   57.1090   30.5210   43.3390 C   0  0  0  0  0  0  0  0  0  0  0  0
   57.4060   31.4890   42.3800 C   0  0  0  0  0  0  0  0  0  0  0  0
   57.9480   32.7150   42.7610 C   0  0  0  0  0  0  0  0  0  0  0  0
   58.2090   32.9800   44.1140 C   0  0  0  0  0  0  0  0  0  0  0  0
   58.7650   34.2100   44.4990 C   0  0  0  0  0  0  0  0  0  0  0  0
   59.0260   34.4730   45.8450 C   0  0  0  0  0  0  0  0  0  0  0  0
   58.7380   33.5140   46.8160 C   0  0  0  0  0  0  0  0  0  0  0  0
   58.1830   32.2840   46.4490 C   0  0  0  0  0  0  0  0  0  0  0  0
   57.9110   32.0000   45.0960 C   0  0  0  0  0  0  0  0  0  0  0  0
   56.7192   24.7841   47.3425 H   0  0  0  0  0  0  0  0  0  0  0  0
   58.5097   24.6752   47.2472 H   0  0  0  0  0  0  0  0  0  0  0  0
   57.7063   26.2818   47.2472 H   0  0  0  0  0  0  0  0  0  0  0  0
   57.0358   23.0621   45.0163 H   0  0  0  0  0  0  0  0  0  0  0  0
   57.2528   23.8756   42.4617 H   0  0  0  0  0  0  0  0  0  0  0  0
   58.9612   27.5355   45.7585 H   0  0  0  0  0  0  0  0  0  0  0  0
   58.6262   28.0920   44.0806 H   0  0  0  0  0  0  0  0  0  0  0  0
   56.6940   29.5520   43.0247 H   0  0  0  0  0  0  0  0  0  0  0  0
   57.2114   31.2837   41.3170 H   0  0  0  0  0  0  0  0  0  0  0  0
   58.1717   33.4766   41.9995 H   0  0  0  0  0  0  0  0  0  0  0  0
   58.9959   34.9694   43.7374 H   0  0  0  0  0  0  0  0  0  0  0  0
   59.4601   35.4395   46.1407 H   0  0  0  0  0  0  0  0  0  0  0  0
   58.9483   33.7261   47.8747 H   0  0  0  0  0  0  0  0  0  0  0  0
   57.9575   31.5338   47.2212 H   0  0  0  0  0  0  0  0  0  0  0  0
  1  2  1  0
  2  3  2  0
  3  4  1  0
  4  5  2  0
  5  6  1  0
  6  7  1  0
  7  8  1  0
  8  9  2  0
  8 10  1  0
 10 11  1  0
 11 12  2  0
 12 13  1  0
 13 14  2  0
 14 15  1  0
 15 16  2  0
 16 17  1  0
 17 18  2  0
 18 19  1  0
 19 20  2  0
  6  2  1  0
 20 11  1  0
 20 15  1  0
  1 21  1  0
  1 22  1  0
  1 23  1  0
  3 24  1  0
  4 25  1  0
  7 26  1  0
  7 27  1  0
 12 28  1  0
 13 29  1  0
 14 30  1  0
 16 31  1  0
 17 32  1  0
 18 33  1  0
 19 34  1  0
M  CHG  1  10  -1
M  END
>  <UniqueID>  (29) 
27

>  <SMILES>  (29) 
Cc1ccnn1CC(=O)[N-]c1cccc2ccccc12

>  <Energy>  (29) 
71.74843343394603

>  <Genealogy>  (29) 
Cc1ccnn1CC(=O)[N-]c1cccc2ccccc12 (protonated)
Cc1ccnn1CC(=O)[N-]c1cccc2ccccc12 (3D coordinates assigned)
Cc1ccnn1CC(=O)[N-]c1cccc2ccccc12 (optimized conformer: 71.74843343394603 kcal/mol)

>  <smiles>  (29) 
Cc1ccnn1CC(=O)Nc1cccc2ccccc12

>  <score_type>  (29) 
oracle

>  <origin>  (29) 
adg

>  <m_score__min__energy>  (29) 
-9.0700000000000003

>  <m_primary>  (29) 
energy

$$$$
29:0
     RDKit          3D

 35 37  0  0  0  0  0  0  0  0999 V2000
   56.2760   31.4710   44.5640 O   0  0  0  0  0  0  0  0  0  0  0  0
   57.5290   31.6230   44.5740 C   0  0  0  0  0  0  0  0  0  0  0  0
   58.3530   30.6990   43.9190 O   0  0  0  0  0  0  0  0  0  0  0  0
   58.7320   29.4450   44.4860 C   0  0  1  0  0  0  0  0  0  0  0  0
   58.7660   29.5360   45.9750 C   0  0  0  0  0  0  0  0  0  0  0  0
   57.8750   28.7480   46.5510 C   0  0  0  0  0  0  0  0  0  0  0  0
   57.0630   27.9960   45.5540 C   0  0  2  0  0  0  0  0  0  0  0  0
   57.1010   26.5340   45.7950 N   0  0  0  0  0  0  0  0  0  0  0  0
   58.3180   25.9060   45.8010 C   0  0  0  0  0  0  0  0  0  0  0  0
   58.4120   24.5340   46.0290 C   0  0  0  0  0  0  0  0  0  0  0  0
   59.6200   23.9190   46.0290 F   0  0  0  0  0  0  0  0  0  0  0  0
   57.2430   23.8150   46.2560 C   0  0  0  0  0  0  0  0  0  0  0  0
   57.2870   22.5740   46.4650 O   0  0  0  0  0  0  0  0  0  0  0  0
   56.0500   24.4570   46.2540 N   0  0  0  0  0  0  0  0  0  0  0  0
   55.9640   25.7950   46.0320 C   0  0  0  0  0  0  0  0  0  0  0  0
   54.8280   26.3400   46.0510 O   0  0  0  0  0  0  0  0  0  0  0  0
   57.6630   28.3830   44.1900 C   0  0  0  0  0  0  0  0  0  0  0  0
   58.1330   32.7730   45.2790 C   0  0  0  0  0  0  0  0  0  0  0  0
   58.1520   32.8250   46.6860 C   0  0  0  0  0  0  0  0  0  0  0  0
   58.7250   33.9170   47.3470 C   0  0  0  0  0  0  0  0  0  0  0  0
   59.2810   34.9670   46.6130 C   0  0  0  0  0  0  0  0  0  0  0  0
   59.2660   34.9270   45.2170 C   0  0  0  0  0  0  0  0  0  0  0  0
   58.6960   33.8380   44.5500 C   0  0  0  0  0  0  0  0  0  0  0  0
   59.7125   29.1861   44.0600 H   0  0  0  0  0  0  0  0  0  0  0  0
   59.4563   30.1869   46.5316 H   0  0  0  0  0  0  0  0  0  0  0  0
   57.7478   28.6579   47.6399 H   0  0  0  0  0  0  0  0  0  0  0  0
   55.9949   28.2519   45.6141 H   0  0  0  0  0  0  0  0  0  0  0  0
   59.2324   26.4913   45.6238 H   0  0  0  0  0  0  0  0  0  0  0  0
   58.1190   27.5048   43.7096 H   0  0  0  0  0  0  0  0  0  0  0  0
   56.8928   28.7657   43.5041 H   0  0  0  0  0  0  0  0  0  0  0  0
   57.7136   32.0018   47.2692 H   0  0  0  0  0  0  0  0  0  0  0  0
   58.7376   33.9485   48.4465 H   0  0  0  0  0  0  0  0  0  0  0  0
   59.7305   35.8251   47.1341 H   0  0  0  0  0  0  0  0  0  0  0  0
   59.7040   35.7549   44.6402 H   0  0  0  0  0  0  0  0  0  0  0  0
   58.6874   33.8133   43.4503 H   0  0  0  0  0  0  0  0  0  0  0  0
  1  2  2  0
  2  3  1  0
  3  4  1  0
  4  5  1  0
  5  6  2  0
  6  7  1  0
  7  8  1  0
  8  9  1  0
  9 10  2  0
 10 11  1  0
 10 12  1  0
 12 13  2  0
 12 14  1  0
 14 15  1  0
 15 16  2  0
  7 17  1  0
  2 18  1  0
 18 19  2  0
 19 20  1  0
 20 21  2  0
 21 22  1  0
 22 23  2  0
 17  4  1  0
 23 18  1  0
 15  8  1  0
  4 24  1  6
  5 25  1  0
  6 26  1  0
  7 27  1  6
  9 28  1  0
 17 29  1  0
 17 30  1  0
 19 31  1  0
 20 32  1  0
 21 33  1  0
 22 34  1  0
 23 35  1  0
M  CHG  1  14  -1
M  END
>  <UniqueID>  (30) 
28

>  <SMILES>  (30) 
O=C(O[C@H]1C=C[C@H](n2cc(F)c(=O)[n-]c2=O)C1)c1ccccc1

>  <Energy>  (30) 
46.21039599882613

>  <Genealogy>  (30) 
O=C(OC1C=CC(n2cc(F)c(=O)[n-]c2=O)C1)c1ccccc1 (protonated)
O=C(O[C@H]1C=C[C@H](n2cc(F)c(=O)[n-]c2=O)C1)c1ccccc1 (chirality)
O=C(O[C@H]1C=C[C@H](n2cc(F)c(=O)[n-]c2=O)C1)c1ccccc1 (3D coordinates assigned)
O=C(O[C@H]1C=C[C@H](n2cc(F)c(=O)[n-]c2=O)C1)c1ccccc1 (nonaromatic ring conformer: 46.21039599882613 kcal/mol)

>  <smiles>  (30) 
O=C(OC1C=CC(n2cc(F)c(=O)[nH]c2=O)C1)c1ccccc1

>  <score_type>  (30) 
oracle

>  <origin>  (30) 
adg

>  <m_score__min__energy>  (30) 
-9.8699999999999992

>  <m_primary>  (30) 
energy

$$$$
30:0
     RDKit          3D

 44 46  0  0  0  0  0  0  0  0999 V2000
   63.1140   33.8970   46.3590 C   0  0  0  0  0  0  0  0  0  0  0  0
   63.5620   32.7180   47.2180 C   0  0  0  0  0  0  0  0  0  0  0  0
   63.9770   33.1830   48.6210 C   0  0  0  0  0  0  0  0  0  0  0  0
   63.1310   32.5490   49.7390 C   0  0  0  0  0  0  0  0  0  0  0  0
   61.7510   33.2020   49.9190 C   0  0  0  0  0  0  0  0  0  0  0  0
   60.8300   32.8240   48.8480 N   0  0  0  0  0  0  0  0  0  0  0  0
   60.1340   33.7360   47.9900 C   0  0  0  0  0  0  0  0  0  0  0  0
   60.4050   34.9640   48.0580 O   0  0  0  0  0  0  0  0  0  0  0  0
   59.1320   33.2780   47.0140 C   0  0  0  0  0  0  0  0  0  0  0  0
   58.2870   34.2080   46.3750 C   0  0  0  0  0  0  0  0  0  0  0  0
   57.3540   33.7840   45.4070 C   0  0  0  0  0  0  0  0  0  0  0  0
   57.2260   32.4230   45.0850 C   0  0  0  0  0  0  0  0  0  0  0  0
   58.0270   31.5040   45.7690 C   0  0  0  0  0  0  0  0  0  0  0  0
   58.9680   31.9230   46.6950 C   0  0  0  0  0  0  0  0  0  0  0  0
   59.6660   30.8790   47.1920 N   0  0  0  0  0  0  0  0  0  0  0  0
   59.1730   29.7940   46.5610 C   0  0  0  0  0  0  0  0  0  0  0  0
   59.6250   28.4850   46.7050 C   0  0  0  0  0  0  0  0  0  0  0  0
   59.0110   27.4850   45.9340 C   0  0  0  0  0  0  0  0  0  0  0  0
   57.9540   27.8030   45.0600 C   0  0  0  0  0  0  0  0  0  0  0  0
   57.4880   29.1310   44.9370 C   0  0  0  0  0  0  0  0  0  0  0  0
   56.3040   29.4050   44.1040 C   0  0  0  0  0  0  0  0  0  0  0  0
   56.4370   29.5720   42.6920 N   0  0  0  0  0  0  0  0  0  0  0  0
   55.1600   29.4310   44.6280 O   0  0  0  0  0  0  0  0  0  0  0  0
   58.1470   30.1210   45.6910 C   0  0  0  0  0  0  0  0  0  0  0  0
   62.7990   34.7260   47.0098 H   0  0  0  0  0  0  0  0  0  0  0  0
   63.9496   34.2265   45.7240 H   0  0  0  0  0  0  0  0  0  0  0  0
   62.2705   33.5884   45.7240 H   0  0  0  0  0  0  0  0  0  0  0  0
   62.7313   32.0026   47.3077 H   0  0  0  0  0  0  0  0  0  0  0  0
   64.4298   32.2441   46.7359 H   0  0  0  0  0  0  0  0  0  0  0  0
   65.0309   32.9124   48.7826 H   0  0  0  0  0  0  0  0  0  0  0  0
   63.8208   34.2709   48.6668 H   0  0  0  0  0  0  0  0  0  0  0  0
   62.9830   31.4853   49.5011 H   0  0  0  0  0  0  0  0  0  0  0  0
   63.6808   32.6974   50.6801 H   0  0  0  0  0  0  0  0  0  0  0  0
   61.3280   32.8816   50.8825 H   0  0  0  0  0  0  0  0  0  0  0  0
   61.8818   34.2938   49.8894 H   0  0  0  0  0  0  0  0  0  0  0  0
   58.3563   35.2748   46.6342 H   0  0  0  0  0  0  0  0  0  0  0  0
   56.7204   34.5260   44.8992 H   0  0  0  0  0  0  0  0  0  0  0  0
   56.5146   32.0892   44.3153 H   0  0  0  0  0  0  0  0  0  0  0  0
   60.4370   30.9020   47.8960 H   0  0  0  0  0  0  0  0  0  0  0  0
   60.4397   28.2413   47.4027 H   0  0  0  0  0  0  0  0  0  0  0  0
   59.3587   26.4444   46.0135 H   0  0  0  0  0  0  0  0  0  0  0  0
   57.4844   27.0062   44.4645 H   0  0  0  0  0  0  0  0  0  0  0  0
   57.3770   29.5600   42.2380 H   0  0  0  0  0  0  0  0  0  0  0  0
   55.5920   29.7310   42.0990 H   0  0  0  0  0  0  0  0  0  0  0  0
  1  2  1  0
  2  3  1  0
  3  4  1  0
  4  5  1  0
  5  6  1  0
  6  7  1  0
  7  8  2  0
  7  9  1  0
  9 10  2  0
 10 11  1  0
 11 12  2  0
 12 13  1  0
 13 14  2  0
 14 15  1  0
 15 16  1  0
 16 17  2  0
 17 18  1  0
 18 19  2  0
 19 20  1  0
 20 21  1  0
 21 22  1  0
 21 23  2  0
 20 24  2  0
 14  9  1  0
 24 16  1  0
 24 13  1  0
  1 25  1  0
  1 26  1  0
  1 27  1  0
  2 28  1  0
  2 29  1  0
  3 30  1  0
  3 31  1  0
  4 32  1  0
  4 33  1  0
  5 34  1  0
  5 35  1  0
 10 36  1  0
 11 37  1  0
 12 38  1  0
 15 39  1  0
 17 40  1  0
 18 41  1  0
 19 42  1  0
 22 43  1  0
 22 44  1  0
M  CHG  1   6  -1
M  END
>  <UniqueID>  (31) 
29

>  <SMILES>  (31) 
CCCCC[N-]C(=O)c1cccc2c1[nH]c1cccc(C(N)=O)c12

>  <Energy>  (31) 
89.26567131333432

>  <Genealogy>  (31) 
CCCCC[N-]C(=O)c1cccc2c1[nH]c1cccc(C(N)=O)c12 (protonated)
CCCCC[N-]C(=O)c1cccc2c1[nH]c1cccc(C(N)=O)c12 (3D coordinates assigned)
CCCCC[N-]C(=O)c1cccc2c1[nH]c1cccc(C(N)=O)c12 (optimized conformer: 89.26567131333432 kcal/mol)

>  <smiles>  (31) 
CCCCCNC(=O)c1cccc2c1[nH]c1cccc(C(N)=O)c12

>  <score_type>  (31) 
oracle

>  <origin>  (31) 
adg

>  <m_score__min__energy>  (31) 
-10.029999999999999

>  <m_primary>  (31) 
energy

$$$$
31:0
     RDKit          3D

 51 54  0  0  0  0  0  0  0  0999 V2000
   55.4300   29.7330   43.7370 C   0  0  0  0  0  0  0  0  0  0  0  0
   56.7440   30.2640   43.1740 C   0  0  0  0  0  0  0  0  0  0  0  0
   57.6180   30.8240   44.2820 C   0  0  0  0  0  0  0  0  0  0  0  0
   58.2330   29.9780   45.2370 C   0  0  0  0  0  0  0  0  0  0  0  0
   58.0020   28.5190   45.2430 C   0  0  0  0  0  0  0  0  0  0  0  0
   58.3310   27.7430   44.1220 C   0  0  0  0  0  0  0  0  0  0  0  0
   58.0890   26.3670   44.1230 C   0  0  0  0  0  0  0  0  0  0  0  0
   57.5110   25.7470   45.2440 C   0  0  0  0  0  0  0  0  0  0  0  0
   57.2500   24.3300   45.2400 N   0  0  0  0  0  0  0  0  0  0  0  0
   56.1120   23.7640   45.9710 C   0  0  0  0  0  0  0  0  0  0  0  0
   55.2250   22.9360   45.0220 C   0  0  0  0  0  0  0  0  0  0  0  0
   55.9720   22.2770   43.9180 N   0  0  0  0  0  0  0  0  0  0  0  0
   55.7680   22.9640   42.6310 C   0  0  0  0  0  0  0  0  0  0  0  0
   57.4080   22.0840   44.2170 C   0  0  0  0  0  0  0  0  0  0  0  0
   58.1210   23.4200   44.4880 C   0  0  0  0  0  0  0  0  0  0  0  0
   57.1580   26.5350   46.3540 C   0  0  0  0  0  0  0  0  0  0  0  0
   57.3980   27.9110   46.3510 C   0  0  0  0  0  0  0  0  0  0  0  0
   59.0770   30.5010   46.1720 N   0  0  0  0  0  0  0  0  0  0  0  0
   59.3540   31.8330   46.2320 C   0  0  0  0  0  0  0  0  0  0  0  0
   60.2230   32.3320   47.2160 C   0  0  0  0  0  0  0  0  0  0  0  0
   60.5110   33.6970   47.2770 C   0  0  0  0  0  0  0  0  0  0  0  0
   59.9380   34.5750   46.3570 C   0  0  0  0  0  0  0  0  0  0  0  0
   59.0710   34.0940   45.3720 C   0  0  0  0  0  0  0  0  0  0  0  0
   58.7710   32.7190   45.3000 C   0  0  0  0  0  0  0  0  0  0  0  0
   57.9070   32.2030   44.3170 C   0  0  0  0  0  0  0  0  0  0  0  0
   57.3950   32.9770   43.4590 O   0  0  0  0  0  0  0  0  0  0  0  0
   55.4691   29.7488   44.8362 H   0  0  0  0  0  0  0  0  0  0  0  0
   54.6001   30.3663   43.3905 H   0  0  0  0  0  0  0  0  0  0  0  0
   55.2731   28.7009   43.3905 H   0  0  0  0  0  0  0  0  0  0  0  0
   57.2789   29.4442   42.6722 H   0  0  0  0  0  0  0  0  0  0  0  0
   56.5213   31.0699   42.4592 H   0  0  0  0  0  0  0  0  0  0  0  0
   58.7813   28.2195   43.2387 H   0  0  0  0  0  0  0  0  0  0  0  0
   58.3525   25.7651   43.2408 H   0  0  0  0  0  0  0  0  0  0  0  0
   56.4851   23.1153   46.7772 H   0  0  0  0  0  0  0  0  0  0  0  0
   55.5144   24.5850   46.3938 H   0  0  0  0  0  0  0  0  0  0  0  0
   54.7205   22.1566   45.6119 H   0  0  0  0  0  0  0  0  0  0  0  0
   54.5180   23.6369   44.5542 H   0  0  0  0  0  0  0  0  0  0  0  0
   55.4593   24.0036   42.8152 H   0  0  0  0  0  0  0  0  0  0  0  0
   56.7072   22.9564   42.0584 H   0  0  0  0  0  0  0  0  0  0  0  0
   54.9852   22.4450   42.0584 H   0  0  0  0  0  0  0  0  0  0  0  0
   57.5034   21.4431   45.1059 H   0  0  0  0  0  0  0  0  0  0  0  0
   57.8796   21.6171   43.3397 H   0  0  0  0  0  0  0  0  0  0  0  0
   59.0341   23.2301   45.0712 H   0  0  0  0  0  0  0  0  0  0  0  0
   58.3733   23.8877   43.5249 H   0  0  0  0  0  0  0  0  0  0  0  0
   56.6895   26.0643   47.2309 H   0  0  0  0  0  0  0  0  0  0  0  0
   57.1117   28.5192   47.2217 H   0  0  0  0  0  0  0  0  0  0  0  0
   59.5210   29.8560   46.8650 H   0  0  0  0  0  0  0  0  0  0  0  0
   60.6793   31.6437   47.9427 H   0  0  0  0  0  0  0  0  0  0  0  0
   61.1910   34.0806   48.0520 H   0  0  0  0  0  0  0  0  0  0  0  0
   60.1692   35.6493   46.4069 H   0  0  0  0  0  0  0  0  0  0  0  0
   58.6210   34.7915   44.6501 H   0  0  0  0  0  0  0  0  0  0  0  0
  1  2  1  0
  2  3  1  0
  3  4  2  0
  4  5  1  0
  5  6  2  0
  6  7  1  0
  7  8  2  0
  8  9  1  0
  9 10  1  0
 10 11  1  0
 11 12  1  0
 12 13  1  0
 12 14  1  0
 14 15  1  0
  8 16  1  0
 16 17  2  0
  4 18  1  0
 18 19  1  0
 19 20  2  0
 20 21  1  0
 21 22  2  0
 22 23  1  0
 23 24  2  0
 24 25  1  0
 25 26  2  0
 25  3  1  0
 17  5  1  0
 24 19  1  0
 15  9  1  0
  1 27  1  0
  1 28  1  0
  1 29  1  0
  2 30  1  0
  2 31  1  0
  6 32  1  0
  7 33  1  0
 10 34  1  0
 10 35  1  0
 11 36  1  0
 11 37  1  0
 13 38  1  0
 13 39  1  0
 13 40  1  0
 14 41  1  0
 14 42  1  0
 15 43  1  0
 15 44  1  0
 16 45  1  0
 17 46  1  0
 18 47  1  0
 20 48  1  0
 21 49  1  0
 22 50  1  0
 23 51  1  0
M  END
>  <UniqueID>  (32) 
30

>  <SMILES>  (32) 
CCc1c(-c2ccc(N3CCN(C)CC3)cc2)[nH]c2ccccc2c1=O

>  <Energy>  (32) 
76.47472270326213

>  <Genealogy>  (32) 
CCc1c(-c2ccc(N3CCN(C)CC3)cc2)[nH]c2ccccc2c1=O (3D coordinates assigned)
CCc1c(-c2ccc(N3CCN(C)CC3)cc2)[nH]c2ccccc2c1=O (nonaromatic ring conformer: 76.47472270326213 kcal/mol)

>  <smiles>  (32) 
CCc1c(-c2ccc(N3CCN(C)CC3)cc2)[nH]c2ccccc2c1=O

>  <score_type>  (32) 
oracle

>  <origin>  (32) 
adg

>  <m_score__min__energy>  (32) 
-8.3200000000000003

>  <m_primary>  (32) 
energy

$$$$
32:0
     RDKit          3D

 29 32  0  0  0  0  0  0  0  0999 V2000
   57.7860   28.1760   43.8650 C   0  0  0  0  0  0  0  0  0  0  0  0
   59.0610   28.1070   44.4720 C   0  0  0  0  0  0  0  0  0  0  0  0
   59.5680   29.2080   45.1890 C   0  0  0  0  0  0  0  0  0  0  0  0
   58.7720   30.3490   45.2690 C   0  0  0  0  0  0  0  0  0  0  0  0
   59.0480   31.5000   45.8980 N   0  0  0  0  0  0  0  0  0  0  0  0
   57.9380   32.2430   45.6490 C   0  0  0  0  0  0  0  0  0  0  0  0
   57.7500   33.6180   46.1980 C   0  0  0  0  0  0  0  0  0  0  0  0
   59.2310   34.6150   45.8390 S   0  0  0  0  0  0  0  0  0  0  0  0
   60.0380   34.1810   47.3810 C   0  0  0  0  0  0  0  0  0  0  0  0
   59.3160   34.1660   48.5390 N   0  0  0  0  0  0  0  0  0  0  0  0
   59.8910   33.8400   49.7350 C   0  0  0  0  0  0  0  0  0  0  0  0
   61.2130   33.5170   49.8000 N   0  0  0  0  0  0  0  0  0  0  0  0
   61.9410   33.5260   48.6590 C   0  0  0  0  0  0  0  0  0  0  0  0
   63.5700   33.1700   48.4920 S   0  0  0  0  0  0  0  0  0  0  0  0
   63.5950   33.4310   46.8170 C   0  0  0  0  0  0  0  0  0  0  0  0
   62.3190   33.8000   46.3860 C   0  0  0  0  0  0  0  0  0  0  0  0
   61.3940   33.8490   47.4360 C   0  0  0  0  0  0  0  0  0  0  0  0
   56.9850   31.6110   44.9140 N   0  0  0  0  0  0  0  0  0  0  0  0
   57.5450   30.4150   44.6830 C   0  0  0  0  0  0  0  0  0  0  0  0
   57.0090   29.3460   43.9690 C   0  0  0  0  0  0  0  0  0  0  0  0
   57.3984   27.3103   43.3079 H   0  0  0  0  0  0  0  0  0  0  0  0
   59.6601   27.1887   44.3838 H   0  0  0  0  0  0  0  0  0  0  0  0
   60.5571   29.1687   45.6688 H   0  0  0  0  0  0  0  0  0  0  0  0
   56.8706   34.0840   45.7295 H   0  0  0  0  0  0  0  0  0  0  0  0
   57.5966   33.5634   47.2859 H   0  0  0  0  0  0  0  0  0  0  0  0
   59.2825   33.8383   50.6513 H   0  0  0  0  0  0  0  0  0  0  0  0
   64.4787   33.3260   46.1704 H   0  0  0  0  0  0  0  0  0  0  0  0
   62.0687   34.0267   45.3391 H   0  0  0  0  0  0  0  0  0  0  0  0
   56.0148   29.4131   43.5032 H   0  0  0  0  0  0  0  0  0  0  0  0
  1  2  2  0
  2  3  1  0
  3  4  2  0
  4  5  1  0
  5  6  1  0
  6  7  1  0
  7  8  1  0
  8  9  1  0
  9 10  2  0
 10 11  1  0
 11 12  2  0
 12 13  1  0
 13 14  1  0
 14 15  1  0
 15 16  2  0
 16 17  1  0
  6 18  2  0
 18 19  1  0
 19 20  2  0
 20  1  1  0
 19  4  1  0
 17  9  1  0
 17 13  2  0
  1 21  1  0
  2 22  1  0
  3 23  1  0
  7 24  1  0
  7 25  1  0
 11 26  1  0
 15 27  1  0
 16 28  1  0
 20 29  1  0
M  CHG  1   5  -1
M  END
>  <UniqueID>  (33) 
31

>  <SMILES>  (33) 
c1ccc2[n-]c(CSc3ncnc4sccc34)nc2c1

>  <Energy>  (33) 
96.98726960275008

>  <Genealogy>  (33) 
c1ccc2[n-]c(CSc3ncnc4sccc34)nc2c1 (protonated)
c1ccc2[n-]c(CSc3ncnc4sccc34)nc2c1 (3D coordinates assigned)
c1ccc2[n-]c(CSc3ncnc4sccc34)nc2c1 (optimized conformer: 96.98726960275008 kcal/mol)

>  <smiles>  (33) 
c1ccc2[nH]c(CSc3ncnc4sccc34)nc2c1

>  <score_type>  (33) 
oracle

>  <origin>  (33) 
adg

>  <m_score__min__energy>  (33) 
-8.4100000000000001

>  <m_primary>  (33) 
energy

$$$$
33:0
     RDKit          3D

 23 24  0  0  0  0  0  0  0  0999 V2000
   55.8779   23.3057   45.6160 H   0  0  0  0  0  0  0  0  0  0  0  0
   55.9450   24.3990   45.7170 C   0  0  0  0  0  0  0  0  0  0  0  0
   54.8840   25.2190   45.8980 N   0  0  0  0  0  0  0  0  0  0  0  0
   55.2140   26.5050   45.9930 N   0  0  0  0  0  0  0  0  0  0  0  0
   56.5450   26.7150   45.8880 C   0  0  0  0  0  0  0  0  0  0  0  0
   57.1150   27.8810   45.9490 N   0  0  0  0  0  0  0  0  0  0  0  0
   56.8110   29.0160   45.1230 C   0  0  0  0  0  0  0  0  0  0  0  0
   55.6190   29.3630   44.9030 O   0  0  0  0  0  0  0  0  0  0  0  0
   57.9310   29.8270   44.5550 C   0  0  0  0  0  0  0  0  0  0  0  0
   58.8903   29.3566   44.8167 H   0  0  0  0  0  0  0  0  0  0  0  0
   57.8239   29.8737   43.4612 H   0  0  0  0  0  0  0  0  0  0  0  0
   57.8920   31.2220   45.1140 C   0  0  0  0  0  0  0  0  0  0  0  0
   58.2370   31.4590   46.4550 C   0  0  0  0  0  0  0  0  0  0  0  0
   58.5636   30.6240   47.0923 H   0  0  0  0  0  0  0  0  0  0  0  0
   58.1670   32.7520   46.9830 C   0  0  0  0  0  0  0  0  0  0  0  0
   58.4457   32.9335   48.0315 H   0  0  0  0  0  0  0  0  0  0  0  0
   57.7430   33.8140   46.1790 C   0  0  0  0  0  0  0  0  0  0  0  0
   57.6904   34.8310   46.5948 H   0  0  0  0  0  0  0  0  0  0  0  0
   57.3860   33.5850   44.8480 C   0  0  0  0  0  0  0  0  0  0  0  0
   57.0510   34.4217   44.2174 H   0  0  0  0  0  0  0  0  0  0  0  0
   57.4540   32.2930   44.3160 C   0  0  0  0  0  0  0  0  0  0  0  0
   57.1638   32.1147   43.2701 H   0  0  0  0  0  0  0  0  0  0  0  0
   57.3840   25.2770   45.6670 S   0  0  0  0  0  0  0  0  0  0  0  0
  1  2  1  0
  2  3  2  0
  3  4  1  0
  4  5  1  0
  5  6  2  0
  6  7  1  0
  7  8  2  0
  7  9  1  0
  9 10  1  0
  9 11  1  0
  9 12  1  0
 12 13  2  0
 13 14  1  0
 13 15  1  0
 15 16  1  0
 15 17  2  0
 17 18  1  0
 17 19  1  0
 19 20  1  0
 19 21  2  0
 21 22  1  0
  5 23  1  0
 23  2  1  0
 21 12  1  0
M  CHG  1   4  -1
M  END
>  <UniqueID>  (34) 
32

>  <SMILES>  (34) 
O=C(Cc1ccccc1)/N=c1\[n-]ncs1

>  <Energy>  (34) 
57.48650817256442

>  <Genealogy>  (34) 
O=C(Cc1ccccc1)N=c1[n-]ncs1 (protonated)
O=C(Cc1ccccc1)/N=c1\[n-]ncs1 (cis-trans isomerization)
O=C(Cc1ccccc1)/N=c1\[n-]ncs1 (3D coordinates assigned)
O=C(Cc1ccccc1)/N=c1\[n-]ncs1 (optimized conformer: 57.48650817256442 kcal/mol)

>  <smiles>  (34) 
O=C(Cc1ccccc1)N=c1[nH]ncs1

>  <score_type>  (34) 
oracle

>  <origin>  (34) 
adg

>  <m_score__min__energy>  (34) 
-8.9000000000000004

>  <m_primary>  (34) 
energy

$$$$
34:0
     RDKit          3D

 27 28  0  0  0  0  0  0  0  0999 V2000
   56.6450   30.2140   43.1590 C   0  0  0  0  0  0  0  0  0  0  0  0
   56.5430   30.6700   44.5050 O   0  0  0  0  0  0  0  0  0  0  0  0
   57.3770   31.6430   45.0770 C   0  0  0  0  0  0  0  0  0  0  0  0
   58.1710   31.3860   46.2070 C   0  0  0  0  0  0  0  0  0  0  0  0
   58.9870   32.3890   46.7400 C   0  0  0  0  0  0  0  0  0  0  0  0
   59.0290   33.6690   46.1550 C   0  0  0  0  0  0  0  0  0  0  0  0
   59.9100   34.7210   46.7350 C   0  0  0  0  0  0  0  0  0  0  0  0
   59.9720   35.8540   46.1810 O   0  0  0  0  0  0  0  0  0  0  0  0
   60.7130   34.5050   47.9900 C   0  0  0  0  0  0  0  0  0  0  0  0
   61.9340   33.7590   47.6960 N   0  0  0  0  0  0  0  0  0  0  0  0
   62.5870   32.8950   48.4930 C   0  0  0  0  0  0  0  0  0  0  0  0
   63.7100   32.4490   47.8980 N   0  0  0  0  0  0  0  0  0  0  0  0
   63.7840   33.0380   46.7110 N   0  0  0  0  0  0  0  0  0  0  0  0
   62.7060   33.8370   46.5980 C   0  0  0  0  0  0  0  0  0  0  0  0
   58.2280   33.9170   45.0230 C   0  0  0  0  0  0  0  0  0  0  0  0
   57.4140   32.9120   44.4930 C   0  0  0  0  0  0  0  0  0  0  0  0
   56.8851   29.1405   43.1527 H   0  0  0  0  0  0  0  0  0  0  0  0
   55.6878   30.3786   42.6426 H   0  0  0  0  0  0  0  0  0  0  0  0
   57.4408   30.7708   42.6426 H   0  0  0  0  0  0  0  0  0  0  0  0
   58.1508   30.3907   46.6750 H   0  0  0  0  0  0  0  0  0  0  0  0
   59.6028   32.1755   47.6261 H   0  0  0  0  0  0  0  0  0  0  0  0
   60.9804   35.4812   48.4208 H   0  0  0  0  0  0  0  0  0  0  0  0
   60.1074   33.9276   48.7040 H   0  0  0  0  0  0  0  0  0  0  0  0
   62.2496   32.5932   49.4955 H   0  0  0  0  0  0  0  0  0  0  0  0
   62.4865   34.4687   45.7246 H   0  0  0  0  0  0  0  0  0  0  0  0
   58.2433   34.9109   44.5518 H   0  0  0  0  0  0  0  0  0  0  0  0
   56.7963   33.1221   43.6074 H   0  0  0  0  0  0  0  0  0  0  0  0
  1  2  1  0
  2  3  1  0
  3  4  2  0
  4  5  1  0
  5  6  2  0
  6  7  1  0
  7  8  2  0
  7  9  1  0
  9 10  1  0
 10 11  1  0
 11 12  2  0
 12 13  1  0
 13 14  2  0
  6 15  1  0
 15 16  2  0
 16  3  1  0
 14 10  1  0
  1 17  1  0
  1 18  1  0
  1 19  1  0
  4 20  1  0
  5 21  1  0
  9 22  1  0
  9 23  1  0
 11 24  1  0
 14 25  1  0
 15 26  1  0
 16 27  1  0
M  END
>  <UniqueID>  (35) 
33

>  <SMILES>  (35) 
COc1ccc(C(=O)Cn2cnnc2)cc1

>  <Energy>  (35) 
61.287187141461494

>  <Genealogy>  (35) 
COc1ccc(C(=O)Cn2cnnc2)cc1 (3D coordinates assigned)
COc1ccc(C(=O)Cn2cnnc2)cc1 (optimized conformer: 61.287187141461494 kcal/mol)

>  <smiles>  (35) 
COc1ccc(C(=O)Cn2cnnc2)cc1

>  <score_type>  (35) 
oracle

>  <origin>  (35) 
adg

>  <m_score__min__energy>  (35) 
-5.6200000000000001

>  <m_primary>  (35) 
energy

$$$$
35:0
     RDKit          3D

 38 40  0  0  0  0  0  0  0  0999 V2000
   55.1440   22.5650   46.0970 C   0  0  0  0  0  0  0  0  0  0  0  0
   56.0180   23.7620   45.8330 C   0  0  0  0  0  0  0  0  0  0  0  0
   55.4470   25.0540   45.8720 C   0  0  0  0  0  0  0  0  0  0  0  0
   56.2670   26.1480   45.6250 C   0  0  0  0  0  0  0  0  0  0  0  0
   55.9230   27.4130   45.6180 O   0  0  0  0  0  0  0  0  0  0  0  0
   57.0000   28.1260   45.3420 C   0  0  0  0  0  0  0  0  0  0  0  0
   56.9840   29.5990   45.2470 C   0  0  0  0  0  0  0  0  0  0  0  0
   55.9600   30.1910   44.8140 O   0  0  0  0  0  0  0  0  0  0  0  0
   58.1530   30.3490   45.6140 N   0  0  0  0  0  0  0  0  0  0  0  0
   58.1700   31.7760   45.7910 C   0  0  0  0  0  0  0  0  0  0  0  0
   57.7970   32.6070   44.7220 C   0  0  0  0  0  0  0  0  0  0  0  0
   57.8270   33.9980   44.8620 C   0  0  0  0  0  0  0  0  0  0  0  0
   58.2430   34.5710   46.0660 C   0  0  0  0  0  0  0  0  0  0  0  0
   58.6370   33.7540   47.1290 C   0  0  0  0  0  0  0  0  0  0  0  0
   58.6090   32.3630   46.9920 C   0  0  0  0  0  0  0  0  0  0  0  0
   58.0990   27.2800   45.1600 C   0  0  0  0  0  0  0  0  0  0  0  0
   59.5100   27.6690   44.8310 C   0  0  0  0  0  0  0  0  0  0  0  0
   57.5980   26.0060   45.3500 C   0  0  0  0  0  0  0  0  0  0  0  0
   58.2060   24.7520   45.3000 C   0  0  0  0  0  0  0  0  0  0  0  0
   57.4100   23.6100   45.5440 C   0  0  0  0  0  0  0  0  0  0  0  0
   58.0490   22.2470   45.4950 C   0  0  0  0  0  0  0  0  0  0  0  0
   55.0384   22.4203   47.1823 H   0  0  0  0  0  0  0  0  0  0  0  0
   54.1521   22.7297   45.6508 H   0  0  0  0  0  0  0  0  0  0  0  0
   55.6029   21.6704   45.6508 H   0  0  0  0  0  0  0  0  0  0  0  0
   54.3781   25.1904   46.0928 H   0  0  0  0  0  0  0  0  0  0  0  0
   59.0650   29.8400   45.6720 H   0  0  0  0  0  0  0  0  0  0  0  0
   57.4791   32.1607   43.7682 H   0  0  0  0  0  0  0  0  0  0  0  0
   57.5228   34.6415   44.0233 H   0  0  0  0  0  0  0  0  0  0  0  0
   58.2605   35.6652   46.1774 H   0  0  0  0  0  0  0  0  0  0  0  0
   58.9697   34.2061   48.0750 H   0  0  0  0  0  0  0  0  0  0  0  0
   58.9318   31.7242   47.8273 H   0  0  0  0  0  0  0  0  0  0  0  0
   60.0741   27.8245   45.7624 H   0  0  0  0  0  0  0  0  0  0  0  0
   59.9839   26.8680   44.2447 H   0  0  0  0  0  0  0  0  0  0  0  0
   59.5065   28.5997   44.2447 H   0  0  0  0  0  0  0  0  0  0  0  0
   59.2785   24.6541   45.0762 H   0  0  0  0  0  0  0  0  0  0  0  0
   58.2189   21.8846   46.5196 H   0  0  0  0  0  0  0  0  0  0  0  0
   57.3842   21.5492   44.9648 H   0  0  0  0  0  0  0  0  0  0  0  0
   59.0106   22.3117   44.9648 H   0  0  0  0  0  0  0  0  0  0  0  0
  1  2  1  0
  2  3  2  0
  3  4  1  0
  4  5  1  0
  5  6  1  0
  6  7  1  0
  7  8  2  0
  7  9  1  0
  9 10  1  0
 10 11  2  0
 11 12  1  0
 12 13  2  0
 13 14  1  0
 14 15  2  0
  6 16  2  0
 16 17  1  0
 16 18  1  0
 18 19  1  0
 19 20  2  0
 20 21  1  0
 20  2  1  0
 18  4  2  0
 15 10  1  0
  1 22  1  0
  1 23  1  0
  1 24  1  0
  3 25  1  0
  9 26  1  0
 11 27  1  0
 12 28  1  0
 13 29  1  0
 14 30  1  0
 15 31  1  0
 17 32  1  0
 17 33  1  0
 17 34  1  0
 19 35  1  0
 21 36  1  0
 21 37  1  0
 21 38  1  0
M  END
>  <UniqueID>  (36) 
34

>  <SMILES>  (36) 
Cc1cc2oc(C(=O)Nc3ccccc3)c(C)c2cc1C

>  <Energy>  (36) 
77.15399248228505

>  <Genealogy>  (36) 
Cc1cc2oc(C(=O)Nc3ccccc3)c(C)c2cc1C (3D coordinates assigned)
Cc1cc2oc(C(=O)Nc3ccccc3)c(C)c2cc1C (optimized conformer: 77.15399248228505 kcal/mol)

>  <smiles>  (36) 
Cc1cc2oc(C(=O)Nc3ccccc3)c(C)c2cc1C

>  <score_type>  (36) 
oracle

>  <origin>  (36) 
adg

>  <m_score__min__energy>  (36) 
-7.5700000000000003

>  <m_primary>  (36) 
energy

$$$$
36:0
     RDKit          3D

 25 27  0  0  0  0  0  0  0  0999 V2000
   64.7060   32.7650   49.3510 C   0  0  0  0  0  0  0  0  0  0  0  0
   63.5110   33.0920   48.5060 C   0  0  0  0  0  0  0  0  0  0  0  0
   63.6780   33.5680   47.1850 C   0  0  0  0  0  0  0  0  0  0  0  0
   62.5610   33.8390   46.3770 C   0  0  0  0  0  0  0  0  0  0  0  0
   61.3020   33.6080   46.9240 C   0  0  0  0  0  0  0  0  0  0  0  0
   60.0430   33.7710   46.3840 C   0  0  0  0  0  0  0  0  0  0  0  0
   59.6420   34.2210   45.1280 C   0  0  0  0  0  0  0  0  0  0  0  0
   58.2620   34.2760   44.8710 C   0  0  0  0  0  0  0  0  0  0  0  0
   57.3360   33.8840   45.8590 C   0  0  0  0  0  0  0  0  0  0  0  0
   57.7990   33.4390   47.1060 C   0  0  0  0  0  0  0  0  0  0  0  0
   59.1400   33.4010   47.3160 N   0  0  0  0  0  0  0  0  0  0  0  0
   59.8350   33.0180   48.4080 C   0  0  0  0  0  0  0  0  0  0  0  0
   61.1600   33.1400   48.1810 N   0  0  0  0  0  0  0  0  0  0  0  0
   62.2100   32.8650   48.9950 C   0  0  0  0  0  0  0  0  0  0  0  0
   64.4345   32.8393   50.4144 H   0  0  0  0  0  0  0  0  0  0  0  0
   65.0429   31.7416   49.1292 H   0  0  0  0  0  0  0  0  0  0  0  0
   65.5171   33.4742   49.1292 H   0  0  0  0  0  0  0  0  0  0  0  0
   64.6909   33.7274   46.7867 H   0  0  0  0  0  0  0  0  0  0  0  0
   62.6769   34.2192   45.3513 H   0  0  0  0  0  0  0  0  0  0  0  0
   60.3773   34.5216   44.3671 H   0  0  0  0  0  0  0  0  0  0  0  0
   57.9018   34.6271   43.8928 H   0  0  0  0  0  0  0  0  0  0  0  0
   56.2563   33.9269   45.6531 H   0  0  0  0  0  0  0  0  0  0  0  0
   57.0950   33.1292   47.8924 H   0  0  0  0  0  0  0  0  0  0  0  0
   59.3869   32.6588   49.3462 H   0  0  0  0  0  0  0  0  0  0  0  0
   62.0492   32.4748   50.0108 H   0  0  0  0  0  0  0  0  0  0  0  0
  1  2  1  0
  2  3  1  0
  3  4  2  0
  4  5  1  0
  5  6  2  0
  6  7  1  0
  7  8  2  0
  8  9  1  0
  9 10  2  0
 10 11  1  0
 11 12  2  0
 12 13  1  0
 13 14  1  0
 14  2  2  0
 13  5  1  0
 11  6  1  0
  1 15  1  0
  1 16  1  0
  1 17  1  0
  3 18  1  0
  4 19  1  0
  7 20  1  0
  8 21  1  0
  9 22  1  0
 10 23  1  0
 12 24  1  0
 14 25  1  0
M  CHG  1  11   1
M  END
>  <UniqueID>  (37) 
35

>  <SMILES>  (37) 
Cc1ccc2c3cccc[n+]3cn2c1

>  <Energy>  (37) 
70.20023549967773

>  <Genealogy>  (37) 
Cc1ccc2c3cccc[n+]3cn2c1 (3D coordinates assigned)
Cc1ccc2c3cccc[n+]3cn2c1 (optimized conformer: 70.20023549967773 kcal/mol)

>  <smiles>  (37) 
Cc1ccc2c3cccc[n+]3cn2c1

>  <score_type>  (37) 
oracle

>  <origin>  (37) 
adg

>  <m_score__min__energy>  (37) 
-4.4400000000000004

>  <m_primary>  (37) 
energy

$$$$
37:0
     RDKit          3D

 37 39  0  0  0  0  0  0  0  0999 V2000
   56.9141   33.5528   43.8583 H   0  0  0  0  0  0  0  0  0  0  0  0
   57.7890   33.5560   44.5250 C   0  0  0  0  0  0  0  0  0  0  0  0
   58.5220   34.9200   45.1820 S   0  0  0  0  0  0  0  0  0  0  0  0
   59.6960   34.0250   45.9930 C   0  0  0  0  0  0  0  0  0  0  0  0
   60.6170   34.4970   46.7810 N   0  0  0  0  0  0  0  0  0  0  0  0
   61.6920   33.7530   47.3770 C   0  0  0  0  0  0  0  0  0  0  0  0
   61.4570   32.9810   48.5310 C   0  0  0  0  0  0  0  0  0  0  0  0
   60.1560   32.9430   49.1450 N   0  0  0  0  0  0  0  0  0  0  0  0
   59.1900   31.9270   48.7240 C   0  0  0  0  0  0  0  0  0  0  0  0
   58.7425   31.4563   49.6118 H   0  0  0  0  0  0  0  0  0  0  0  0
   58.3999   32.3994   48.1219 H   0  0  0  0  0  0  0  0  0  0  0  0
   59.7017   31.1617   48.1219 H   0  0  0  0  0  0  0  0  0  0  0  0
   59.8240   33.8430   50.2500 C   0  0  0  0  0  0  0  0  0  0  0  0
   60.0119   33.3338   51.2068 H   0  0  0  0  0  0  0  0  0  0  0  0
   60.4479   34.7467   50.1869 H   0  0  0  0  0  0  0  0  0  0  0  0
   58.7626   34.1251   50.1869 H   0  0  0  0  0  0  0  0  0  0  0  0
   62.5170   32.2640   49.1040 C   0  0  0  0  0  0  0  0  0  0  0  0
   62.3562   31.6796   50.0220 H   0  0  0  0  0  0  0  0  0  0  0  0
   63.7760   32.2950   48.5050 C   0  0  0  0  0  0  0  0  0  0  0  0
   64.6102   31.7356   48.9535 H   0  0  0  0  0  0  0  0  0  0  0  0
   63.9760   33.0140   47.3690 N   0  0  0  0  0  0  0  0  0  0  0  0
   64.9210   33.0120   46.9230 H   0  0  0  0  0  0  0  0  0  0  0  0
   62.9710   33.7280   46.7940 C   0  0  0  0  0  0  0  0  0  0  0  0
   63.1603   34.2893   45.8671 H   0  0  0  0  0  0  0  0  0  0  0  0
   59.5350   32.7020   45.7940 N   0  0  0  0  0  0  0  0  0  0  0  0
   58.4830   32.4260   44.9720 C   0  0  0  0  0  0  0  0  0  0  0  0
   58.1240   31.0270   44.6200 C   0  0  0  0  0  0  0  0  0  0  0  0
   58.8900   29.9320   45.0720 C   0  0  0  0  0  0  0  0  0  0  0  0
   59.7774   30.1070   45.6980 H   0  0  0  0  0  0  0  0  0  0  0  0
   58.5280   28.6250   44.7290 C   0  0  0  0  0  0  0  0  0  0  0  0
   59.1327   27.7780   45.0851 H   0  0  0  0  0  0  0  0  0  0  0  0
   57.4030   28.3910   43.9370 C   0  0  0  0  0  0  0  0  0  0  0  0
   57.1236   27.3619   43.6671 H   0  0  0  0  0  0  0  0  0  0  0  0
   56.6330   29.4650   43.4880 C   0  0  0  0  0  0  0  0  0  0  0  0
   55.7447   29.2809   42.8659 H   0  0  0  0  0  0  0  0  0  0  0  0
   56.9880   30.7750   43.8270 C   0  0  0  0  0  0  0  0  0  0  0  0
   56.3743   31.6156   43.4710 H   0  0  0  0  0  0  0  0  0  0  0  0
  1  2  1  0
  2  3  1  0
  3  4  1  0
  4  5  2  0
  5  6  1  0
  6  7  2  0
  7  8  1  0
  8  9  1  0
  9 10  1  0
  9 11  1  0
  9 12  1  0
  8 13  1  0
 13 14  1  0
 13 15  1  0
 13 16  1  0
  7 17  1  0
 17 18  1  0
 17 19  2  0
 19 20  1  0
 19 21  1  0
 21 22  1  0
 21 23  2  0
 23 24  1  0
  4 25  1  0
 25 26  1  0
 26 27  1  0
 27 28  2  0
 28 29  1  0
 28 30  1  0
 30 31  1  0
 30 32  2  0
 32 33  1  0
 32 34  1  0
 34 35  1  0
 34 36  2  0
 36 37  1  0
 26  2  2  0
 36 27  1  0
 23  6  1  0
M  CHG  2  21   1  25  -1
M  END
>  <UniqueID>  (38) 
36

>  <SMILES>  (38) 
CN(C)c1cc[nH+]cc1/N=c1/[n-]c(-c2ccccc2)cs1

>  <Energy>  (38) 
82.29700782104453

>  <Genealogy>  (38) 
CN(C)c1cc[nH+]cc1N=c1[n-]c(-c2ccccc2)cs1 (protonated)
CN(C)c1cc[nH+]cc1/N=c1/[n-]c(-c2ccccc2)cs1 (cis-trans isomerization)
CN(C)c1cc[nH+]cc1/N=c1/[n-]c(-c2ccccc2)cs1 (3D coordinates assigned)
CN(C)c1cc[nH+]cc1/N=c1/[n-]c(-c2ccccc2)cs1 (optimized conformer: 82.29700782104453 kcal/mol)

>  <smiles>  (38) 
CN(C)c1ccncc1N=c1[nH]c(-c2ccccc2)cs1

>  <score_type>  (38) 
oracle

>  <origin>  (38) 
adg

>  <m_score__min__energy>  (38) 
-6.9000000000000004

>  <m_primary>  (38) 
energy

$$$$
38:0
     RDKit          3D

 49 51  0  0  0  0  0  0  0  0999 V2000
   56.6670   31.0440   43.9900 C   0  0  0  0  0  0  0  0  0  0  0  0
   56.5170   32.1580   44.8630 O   0  0  0  0  0  0  0  0  0  0  0  0
   57.5680   32.7460   45.5830 C   0  0  0  0  0  0  0  0  0  0  0  0
   57.4350   33.1410   46.9280 C   0  0  0  0  0  0  0  0  0  0  0  0
   58.5110   33.7280   47.6010 C   0  0  0  0  0  0  0  0  0  0  0  0
   59.7350   33.9330   46.9380 C   0  0  0  0  0  0  0  0  0  0  0  0
   60.8430   34.5060   47.5780 O   0  0  0  0  0  0  0  0  0  0  0  0
   62.0410   33.8380   47.8610 C   0  0  0  0  0  0  0  0  0  0  0  0
   63.1280   34.1990   47.3340 O   0  0  0  0  0  0  0  0  0  0  0  0
   62.0240   32.6710   48.7950 C   0  0  0  0  0  0  0  0  0  0  0  0
   61.0820   31.6190   48.2800 C   0  0  0  0  0  0  0  0  0  0  0  0
   61.3290   30.9900   47.0510 C   0  0  0  0  0  0  0  0  0  0  0  0
   60.4330   30.0410   46.5500 C   0  0  0  0  0  0  0  0  0  0  0  0
   59.2780   29.7030   47.2770 C   0  0  0  0  0  0  0  0  0  0  0  0
   58.3450   28.7690   46.8030 O   0  0  0  0  0  0  0  0  0  0  0  0
   58.6230   27.4360   46.4630 C   0  0  0  0  0  0  0  0  0  0  0  0
   59.9020   26.8960   46.6860 C   0  0  0  0  0  0  0  0  0  0  0  0
   60.1740   25.5640   46.3810 C   0  0  0  0  0  0  0  0  0  0  0  0
   59.1780   24.7380   45.8620 C   0  0  0  0  0  0  0  0  0  0  0  0
   59.5060   23.4050   45.5670 O   0  0  0  0  0  0  0  0  0  0  0  0
   58.7200   22.5440   44.7480 C   0  0  0  0  0  0  0  0  0  0  0  0
   57.8890   25.2630   45.6550 C   0  0  0  0  0  0  0  0  0  0  0  0
   57.5980   26.6080   45.9530 C   0  0  0  0  0  0  0  0  0  0  0  0
   56.2660   27.1200   45.7250 N   0  0  0  0  0  0  0  0  0  0  0  0
   56.1030   28.2640   45.2500 O   0  0  0  0  0  0  0  0  0  0  0  0
   55.1530   26.3870   46.0670 O   0  0  0  0  0  0  0  0  0  0  0  0
   59.0180   30.3530   48.4900 C   0  0  0  0  0  0  0  0  0  0  0  0
   59.9120   31.3050   48.9900 C   0  0  0  0  0  0  0  0  0  0  0  0
   59.8700   33.5180   45.6090 C   0  0  0  0  0  0  0  0  0  0  0  0
   58.7930   32.9380   44.9330 C   0  0  0  0  0  0  0  0  0  0  0  0
   56.7905   30.1266   44.5842 H   0  0  0  0  0  0  0  0  0  0  0  0
   55.7731   30.9524   43.3556 H   0  0  0  0  0  0  0  0  0  0  0  0
   57.5533   31.1921   43.3556 H   0  0  0  0  0  0  0  0  0  0  0  0
   56.4801   32.9871   47.4518 H   0  0  0  0  0  0  0  0  0  0  0  0
   58.4001   34.0307   48.6527 H   0  0  0  0  0  0  0  0  0  0  0  0
   63.0370   32.2487   48.8700 H   0  0  0  0  0  0  0  0  0  0  0  0
   61.6869   33.0054   49.7872 H   0  0  0  0  0  0  0  0  0  0  0  0
   62.2328   31.2448   46.4781 H   0  0  0  0  0  0  0  0  0  0  0  0
   60.6325   29.5566   45.5828 H   0  0  0  0  0  0  0  0  0  0  0  0
   60.6958   27.5316   47.1055 H   0  0  0  0  0  0  0  0  0  0  0  0
   61.1832   25.1607   46.5511 H   0  0  0  0  0  0  0  0  0  0  0  0
   58.1158   21.8821   45.3858 H   0  0  0  0  0  0  0  0  0  0  0  0
   58.0554   23.1481   44.1129 H   0  0  0  0  0  0  0  0  0  0  0  0
   59.3820   21.9370   44.1129 H   0  0  0  0  0  0  0  0  0  0  0  0
   57.0970   24.6131   45.2545 H   0  0  0  0  0  0  0  0  0  0  0  0
   58.1042   30.1130   49.0533 H   0  0  0  0  0  0  0  0  0  0  0  0
   59.6978   31.8100   49.9435 H   0  0  0  0  0  0  0  0  0  0  0  0
   60.8318   33.6492   45.0916 H   0  0  0  0  0  0  0  0  0  0  0  0
   58.9086   32.6303   43.8833 H   0  0  0  0  0  0  0  0  0  0  0  0
  1  2  1  0
  2  3  1  0
  3  4  2  0
  4  5  1  0
  5  6  2  0
  6  7  1  0
  7  8  1  0
  8  9  2  0
  8 10  1  0
 10 11  1  0
 11 12  2  0
 12 13  1  0
 13 14  2  0
 14 15  1  0
 15 16  1  0
 16 17  2  0
 17 18  1  0
 18 19  2  0
 19 20  1  0
 20 21  1  0
 19 22  1  0
 22 23  2  0
 23 24  1  0
 24 25  2  0
 24 26  1  0
 14 27  1  0
 27 28  2  0
  6 29  1  0
 29 30  2  0
 30  3  1  0
 28 11  1  0
 23 16  1  0
  1 31  1  0
  1 32  1  0
  1 33  1  0
  4 34  1  0
  5 35  1  0
 10 36  1  0
 10 37  1  0
 12 38  1  0
 13 39  1  0
 17 40  1  0
 18 41  1  0
 21 42  1  0
 21 43  1  0
 21 44  1  0
 22 45  1  0
 27 46  1  0
 28 47  1  0
 29 48  1  0
 30 49  1  0
M  CHG  2  24   1  26  -1
M  END
>  <UniqueID>  (39) 
37

>  <SMILES>  (39) 
COc1ccc(OC(=O)Cc2ccc(Oc3ccc(OC)cc3[N+](=O)[O-])cc2)cc1

>  <Energy>  (39) 
62.30817078008044

>  <Genealogy>  (39) 
COc1ccc(OC(=O)Cc2ccc(Oc3ccc(OC)cc3[N+](=O)[O-])cc2)cc1 (3D coordinates assigned)
COc1ccc(OC(=O)Cc2ccc(Oc3ccc(OC)cc3[N+](=O)[O-])cc2)cc1 (optimized conformer: 62.30817078008044 kcal/mol)

>  <smiles>  (39) 
COc1ccc(OC(=O)Cc2ccc(Oc3ccc(OC)cc3[N+](=O)[O-])cc2)cc1

>  <score_type>  (39) 
oracle

>  <origin>  (39) 
adg

>  <m_score__min__energy>  (39) 
-9.2100000000000009

>  <m_primary>  (39) 
energy

$$$$
39:0
     RDKit          3D

 33 34  0  0  0  0  0  0  0  0999 V2000
   55.1430   29.4870   44.7410 O   0  0  0  0  0  0  0  0  0  0  0  0
   56.3300   29.0780   44.8490 C   0  0  0  0  0  0  0  0  0  0  0  0
   57.3070   29.3810   43.7440 C   0  0  0  0  0  0  0  0  0  0  0  0
   57.1750   31.1150   43.1760 S   0  0  0  0  0  0  0  0  0  0  0  0
   57.6580   31.8370   44.7470 C   0  0  0  0  0  0  0  0  0  0  0  0
   57.0820   33.0410   45.1730 C   0  0  0  0  0  0  0  0  0  0  0  0
   57.4620   33.6060   46.3940 C   0  0  0  0  0  0  0  0  0  0  0  0
   58.4220   32.9720   47.1890 C   0  0  0  0  0  0  0  0  0  0  0  0
   59.0060   31.7760   46.7620 C   0  0  0  0  0  0  0  0  0  0  0  0
   58.6270   31.2100   45.5400 C   0  0  0  0  0  0  0  0  0  0  0  0
   56.6830   28.2830   45.9880 N   0  0  0  0  0  0  0  0  0  0  0  0
   57.5170   27.1170   45.9710 C   0  0  0  0  0  0  0  0  0  0  0  0
   58.9160   27.2330   45.9890 C   0  0  0  0  0  0  0  0  0  0  0  0
   59.7170   26.0900   45.9890 C   0  0  0  0  0  0  0  0  0  0  0  0
   59.1280   24.8240   45.9870 C   0  0  0  0  0  0  0  0  0  0  0  0
   57.7360   24.6980   45.9940 C   0  0  0  0  0  0  0  0  0  0  0  0
   56.9180   25.8460   45.9940 C   0  0  0  0  0  0  0  0  0  0  0  0
   55.5160   25.7670   46.0000 O   0  0  0  0  0  0  0  0  0  0  0  0
   54.7620   24.6260   45.6020 C   0  0  0  0  0  0  0  0  0  0  0  0
   54.6900   23.7200   46.6450 F   0  0  0  0  0  0  0  0  0  0  0  0
   53.4840   25.0250   45.2640 F   0  0  0  0  0  0  0  0  0  0  0  0
   58.3280   29.2041   44.1132 H   0  0  0  0  0  0  0  0  0  0  0  0
   57.0747   28.7241   42.8929 H   0  0  0  0  0  0  0  0  0  0  0  0
   56.3299   33.5423   44.5461 H   0  0  0  0  0  0  0  0  0  0  0  0
   57.0059   34.5492   46.7293 H   0  0  0  0  0  0  0  0  0  0  0  0
   58.7179   33.4150   48.1514 H   0  0  0  0  0  0  0  0  0  0  0  0
   59.7634   31.2799   47.3867 H   0  0  0  0  0  0  0  0  0  0  0  0
   59.0906   30.2716   45.2018 H   0  0  0  0  0  0  0  0  0  0  0  0
   59.3828   28.2289   46.0032 H   0  0  0  0  0  0  0  0  0  0  0  0
   60.8128   26.1866   45.9906 H   0  0  0  0  0  0  0  0  0  0  0  0
   59.7607   23.9242   45.9799 H   0  0  0  0  0  0  0  0  0  0  0  0
   57.2767   23.6985   45.9995 H   0  0  0  0  0  0  0  0  0  0  0  0
   55.2521   24.1502   44.7398 H   0  0  0  0  0  0  0  0  0  0  0  0
  1  2  2  0
  2  3  1  0
  3  4  1  0
  4  5  1  0
  5  6  2  0
  6  7  1  0
  7  8  2  0
  8  9  1  0
  9 10  2  0
  2 11  1  0
 11 12  1  0
 12 13  2  0
 13 14  1  0
 14 15  2  0
 15 16  1  0
 16 17  2  0
 17 18  1  0
 18 19  1  0
 19 20  1  0
 19 21  1  0
 10  5  1  0
 17 12  1  0
  3 22  1  0
  3 23  1  0
  6 24  1  0
  7 25  1  0
  8 26  1  0
  9 27  1  0
 10 28  1  0
 13 29  1  0
 14 30  1  0
 15 31  1  0
 16 32  1  0
 19 33  1  0
M  CHG  1  11  -1
M  END
>  <UniqueID>  (40) 
38

>  <SMILES>  (40) 
O=C(CSc1ccccc1)[N-]c1ccccc1OC(F)F

>  <Energy>  (40) 
33.54273390204974

>  <Genealogy>  (40) 
O=C(CSc1ccccc1)[N-]c1ccccc1OC(F)F (protonated)
O=C(CSc1ccccc1)[N-]c1ccccc1OC(F)F (3D coordinates assigned)
O=C(CSc1ccccc1)[N-]c1ccccc1OC(F)F (optimized conformer: 33.54273390204974 kcal/mol)

>  <smiles>  (40) 
O=C(CSc1ccccc1)Nc1ccccc1OC(F)F

>  <score_type>  (40) 
oracle

>  <origin>  (40) 
adg

>  <m_score__min__energy>  (40) 
-9.5999999999999996

>  <m_primary>  (40) 
energy

$$$$
40:0
     RDKit          3D

 34 37  0  0  0  0  0  0  0  0999 V2000
   56.4760   23.4360   45.2320 C   0  0  0  0  0  0  0  0  0  0  0  0
   56.2460   24.8830   45.5120 C   0  0  0  0  0  0  0  0  0  0  0  0
   57.1610   25.8970   45.3280 C   0  0  0  0  0  0  0  0  0  0  0  0
   56.4550   27.0360   45.6530 C   0  0  0  0  0  0  0  0  0  0  0  0
   56.9710   28.4090   45.6290 C   0  0  0  0  0  0  0  0  0  0  0  0
   57.8640   28.8700   46.5450 N   0  0  0  0  0  0  0  0  0  0  0  0
   58.0530   30.1390   46.1550 C   0  0  0  0  0  0  0  0  0  0  0  0
   58.8850   31.0970   46.7440 C   0  0  0  0  0  0  0  0  0  0  0  0
   58.9020   32.3660   46.1330 C   0  0  0  0  0  0  0  0  0  0  0  0
   58.1260   32.6330   45.0030 C   0  0  0  0  0  0  0  0  0  0  0  0
   57.2970   31.6610   44.4240 C   0  0  0  0  0  0  0  0  0  0  0  0
   57.2940   30.4080   45.0460 C   0  0  0  0  0  0  0  0  0  0  0  0
   56.5950   29.3200   44.6920 N   0  0  0  0  0  0  0  0  0  0  0  0
   58.2930   33.9630   44.5540 N   0  0  0  0  0  0  0  0  0  0  0  0
   59.2250   34.5460   45.4590 C   0  0  0  0  0  0  0  0  0  0  0  0
   59.6130   35.7410   45.3590 O   0  0  0  0  0  0  0  0  0  0  0  0
   59.6870   33.5870   46.5310 C   0  0  0  0  0  0  0  0  0  0  0  0
   61.1980   33.3350   46.4320 C   0  0  0  0  0  0  0  0  0  0  0  0
   59.2810   34.0810   47.9260 C   0  0  0  0  0  0  0  0  0  0  0  0
   55.1930   26.7110   45.9960 N   0  0  0  0  0  0  0  0  0  0  0  0
   55.0630   25.3970   45.9030 N   0  0  0  0  0  0  0  0  0  0  0  0
   56.5631   22.8881   46.1818 H   0  0  0  0  0  0  0  0  0  0  0  0
   55.6302   23.0355   44.6538 H   0  0  0  0  0  0  0  0  0  0  0  0
   57.4043   23.3174   44.6538 H   0  0  0  0  0  0  0  0  0  0  0  0
   58.2077   25.8167   44.9994 H   0  0  0  0  0  0  0  0  0  0  0  0
   59.4915   30.8721   47.6337 H   0  0  0  0  0  0  0  0  0  0  0  0
   56.6857   31.8714   43.5340 H   0  0  0  0  0  0  0  0  0  0  0  0
   57.8330   34.4200   43.7350 H   0  0  0  0  0  0  0  0  0  0  0  0
   61.6249   33.2638   47.4433 H   0  0  0  0  0  0  0  0  0  0  0  0
   61.3782   32.3944   45.8909 H   0  0  0  0  0  0  0  0  0  0  0  0
   61.6737   34.1662   45.8909 H   0  0  0  0  0  0  0  0  0  0  0  0
   59.7826   33.4707   48.6915 H   0  0  0  0  0  0  0  0  0  0  0  0
   59.5786   35.1335   48.0432 H   0  0  0  0  0  0  0  0  0  0  0  0
   58.1908   33.9929   48.0432 H   0  0  0  0  0  0  0  0  0  0  0  0
  1  2  1  0
  2  3  1  0
  3  4  2  0
  4  5  1  0
  5  6  2  0
  6  7  1  0
  7  8  2  0
  8  9  1  0
  9 10  2  0
 10 11  1  0
 11 12  2  0
 12 13  1  0
 10 14  1  0
 14 15  1  0
 15 16  2  0
 15 17  1  0
 17 18  1  0
 17 19  1  0
  4 20  1  0
 20 21  1  0
 21  2  2  0
 13  5  1  0
 12  7  1  0
 17  9  1  0
  1 22  1  0
  1 23  1  0
  1 24  1  0
  3 25  1  0
  8 26  1  0
 11 27  1  0
 14 28  1  0
 18 29  1  0
 18 30  1  0
 18 31  1  0
 19 32  1  0
 19 33  1  0
 19 34  1  0
M  CHG  2  13  -1  20  -1
M  END
>  <UniqueID>  (41) 
39

>  <SMILES>  (41) 
Cc1cc(-c2nc3cc4c(cc3[n-]2)NC(=O)C4(C)C)[n-]n1

>  <Energy>  (41) 
115.30454858167737

>  <Genealogy>  (41) 
Cc1cc(-c2nc3cc4c(cc3[n-]2)NC(=O)C4(C)C)[n-]n1 (protonated)
Cc1cc(-c2nc3cc4c(cc3[n-]2)NC(=O)C4(C)C)[n-]n1 (3D coordinates assigned)
Cc1cc(-c2nc3cc4c(cc3[n-]2)NC(=O)C4(C)C)[n-]n1 (nonaromatic ring conformer: 115.30454858167737 kcal/mol)

>  <smiles>  (41) 
Cc1cc(-c2nc3cc4c(cc3[nH]2)NC(=O)C4(C)C)[nH]n1

>  <score_type>  (41) 
oracle

>  <origin>  (41) 
adg

>  <m_score__min__energy>  (41) 
-12.300000000000001

>  <m_primary>  (41) 
energy

$$$$
41:0
     RDKit          3D

 47 50  0  0  1  0  0  0  0  0999 V2000
   63.7510   33.3810   49.0420 C   0  0  0  0  0  0  0  0  0  0  0  0
   62.8020   33.2040   47.5540 S   0  0  0  0  0  0  0  0  0  0  0  0
   62.7440   31.7380   47.1470 O   0  0  0  0  0  0  0  0  0  0  0  0
   63.4370   33.9520   46.4100 O   0  0  0  0  0  0  0  0  0  0  0  0
   61.1880   33.7570   47.7440 N   0  0  0  0  0  0  0  0  0  0  0  0
   60.2050   33.7170   46.7250 C   0  0  0  0  0  0  0  0  0  0  0  0
   59.8000   34.7810   45.9770 C   0  0  0  0  0  0  0  0  0  0  0  0
   58.8330   34.6810   44.9930 C   0  0  0  0  0  0  0  0  0  0  0  0
   58.2740   33.4390   44.7830 C   0  0  0  0  0  0  0  0  0  0  0  0
   58.6380   32.3220   45.5040 C   0  0  0  0  0  0  0  0  0  0  0  0
   58.0690   31.0050   45.3030 C   0  0  0  0  0  0  0  0  0  0  0  0
   56.8030   30.9320   44.8390 N   0  0  0  0  0  0  0  0  0  0  0  0
   56.2170   29.7310   44.6340 C   0  0  0  0  0  0  0  0  0  0  0  0
   55.0160   29.6610   44.1940 N   0  0  0  0  0  0  0  0  0  0  0  0
   56.8770   28.5870   44.8860 N   0  0  0  0  0  0  0  0  0  0  0  0
   58.1370   28.6000   45.3490 C   0  0  0  0  0  0  0  0  0  0  0  0
   58.7330   29.8270   45.5580 C   0  0  0  0  0  0  0  0  0  0  0  0
   59.9850   29.5740   46.0210 C   0  0  0  0  0  0  0  0  0  0  0  0
   60.1270   28.2170   46.0840 C   0  0  0  0  0  0  0  0  0  0  0  0
   58.9810   27.6050   45.6670 N   0  0  0  0  0  0  0  0  0  0  0  0
   58.8040   26.1870   45.6150 C   0  0  1  0  0  0  0  0  0  0  0  0
   58.1990   25.7110   46.9420 C   0  0  0  0  0  0  0  0  0  0  0  0
   57.7490   24.3170   46.5800 C   0  0  0  0  0  0  0  0  0  0  0  0
   57.1430   24.4950   45.2120 C   0  0  0  0  0  0  0  0  0  0  0  0
   57.3210   23.3250   44.5350 F   0  0  0  0  0  0  0  0  0  0  0  0
   55.7860   24.7390   45.3200 F   0  0  0  0  0  0  0  0  0  0  0  0
   57.8840   25.6760   44.5730 C   0  0  0  0  0  0  0  0  0  0  0  0
   59.6060   32.4830   46.4720 C   0  0  0  0  0  0  0  0  0  0  0  0
   63.0919   33.2581   49.9140 H   0  0  0  0  0  0  0  0  0  0  0  0
   64.5395   32.6144   49.0674 H   0  0  0  0  0  0  0  0  0  0  0  0
   64.2101   34.3803   49.0674 H   0  0  0  0  0  0  0  0  0  0  0  0
   60.8620   34.1630   48.6720 H   0  0  0  0  0  0  0  0  0  0  0  0
   60.2618   35.7618   46.1635 H   0  0  0  0  0  0  0  0  0  0  0  0
   58.5232   35.5561   44.4029 H   0  0  0  0  0  0  0  0  0  0  0  0
   57.5030   33.3344   44.0054 H   0  0  0  0  0  0  0  0  0  0  0  0
   54.3370   28.9640   44.5090 H   0  0  0  0  0  0  0  0  0  0  0  0
   56.3960   27.6820   44.7170 H   0  0  0  0  0  0  0  0  0  0  0  0
   60.7432   30.3227   46.2943 H   0  0  0  0  0  0  0  0  0  0  0  0
   61.0336   27.6935   46.4218 H   0  0  0  0  0  0  0  0  0  0  0  0
   59.8118   25.8069   45.3915 H   0  0  0  0  0  0  0  0  0  0  0  0
   58.9511   25.6955   47.7446 H   0  0  0  0  0  0  0  0  0  0  0  0
   57.3966   26.3569   47.3281 H   0  0  0  0  0  0  0  0  0  0  0  0
   58.6021   23.6234   46.5463 H   0  0  0  0  0  0  0  0  0  0  0  0
   57.0473   23.8871   47.3100 H   0  0  0  0  0  0  0  0  0  0  0  0
   58.4513   25.3408   43.6922 H   0  0  0  0  0  0  0  0  0  0  0  0
   57.1861   26.4549   44.2320 H   0  0  0  0  0  0  0  0  0  0  0  0
   59.9163   31.6096   47.0644 H   0  0  0  0  0  0  0  0  0  0  0  0
  1  2  1  0
  2  3  2  0
  2  4  2  0
  2  5  1  0
  5  6  1  0
  6  7  2  0
  7  8  1  0
  8  9  2  0
  9 10  1  0
 10 11  1  0
 11 12  2  0
 12 13  1  0
 13 14  2  3
 13 15  1  0
 15 16  1  0
 16 17  2  0
 17 18  1  0
 18 19  2  0
 19 20  1  0
 20 21  1  0
 21 22  1  0
 22 23  1  0
 23 24  1  0
 24 25  1  0
 24 26  1  0
 24 27  1  0
 10 28  2  0
 28  6  1  0
 17 11  1  0
 27 21  1  0
 20 16  1  0
  1 29  1  0
  1 30  1  0
  1 31  1  0
  5 32  1  0
  7 33  1  0
  8 34  1  0
  9 35  1  0
 14 36  1  0
 15 37  1  0
 18 38  1  0
 19 39  1  0
 21 40  1  6
 22 41  1  0
 22 42  1  0
 23 43  1  0
 23 44  1  0
 27 45  1  0
 27 46  1  0
 28 47  1  0
M  END
>  <smiles>  (42) 
CS(=O)(=O)Nc1cccc(-c2nc(=N)[nH]c3c2ccn3C2CCC(F)(F)C2)c1

>  <score_type>  (42) 
oracle

>  <origin>  (42) 
adg

>  <m_score__min__energy>  (42) 
-9.6099999999999994

>  <m_primary>  (42) 
energy

$$$$
42:0
     RDKit          3D

 34 35  0  0  0  0  0  0  0  0999 V2000
   57.0830   28.8020   44.6870 C   0  0  0  0  0  0  0  0  0  0  0  0
   58.1750   29.4150   45.3070 C   0  0  0  0  0  0  0  0  0  0  0  0
   58.5030   30.7390   45.0010 C   0  0  0  0  0  0  0  0  0  0  0  0
   57.7320   31.4640   44.0760 C   0  0  0  0  0  0  0  0  0  0  0  0
   58.1040   32.8770   43.7170 C   0  0  0  0  0  0  0  0  0  0  0  0
   57.4170   33.8720   44.6690 C   0  0  0  0  0  0  0  0  0  0  0  0
   58.1730   34.1240   45.9960 C   0  0  0  0  0  0  0  0  0  0  0  0
   59.7070   34.1090   45.8310 C   0  0  0  0  0  0  0  0  0  0  0  0
   60.4150   34.5800   47.1170 C   0  0  0  0  0  0  0  0  0  0  0  0
   59.6450   34.2320   48.4080 C   0  0  0  0  0  0  0  0  0  0  0  0
   58.7760   32.9820   48.2340 C   0  0  0  0  0  0  0  0  0  0  0  0
   57.7140   33.1710   47.1320 C   0  0  0  0  0  0  0  0  0  0  0  0
   56.6430   30.8360   43.4470 C   0  0  0  0  0  0  0  0  0  0  0  0
   56.3180   29.5110   43.7560 C   0  0  0  0  0  0  0  0  0  0  0  0
   56.8251   27.7610   44.9316 H   0  0  0  0  0  0  0  0  0  0  0  0
   58.7776   28.8548   46.0371 H   0  0  0  0  0  0  0  0  0  0  0  0
   59.3678   31.2153   45.4860 H   0  0  0  0  0  0  0  0  0  0  0  0
   59.1948   32.9954   43.7949 H   0  0  0  0  0  0  0  0  0  0  0  0
   57.7736   33.0821   42.6880 H   0  0  0  0  0  0  0  0  0  0  0  0
   57.3153   34.8336   44.1446 H   0  0  0  0  0  0  0  0  0  0  0  0
   56.4503   33.4239   44.9422 H   0  0  0  0  0  0  0  0  0  0  0  0
   57.9000   35.1459   46.2979 H   0  0  0  0  0  0  0  0  0  0  0  0
   60.0320   33.0842   45.5982 H   0  0  0  0  0  0  0  0  0  0  0  0
   59.9746   34.7977   45.0161 H   0  0  0  0  0  0  0  0  0  0  0  0
   61.4053   34.1034   47.1634 H   0  0  0  0  0  0  0  0  0  0  0  0
   60.4810   35.6768   47.0661 H   0  0  0  0  0  0  0  0  0  0  0  0
   60.3688   34.0525   49.2166 H   0  0  0  0  0  0  0  0  0  0  0  0
   58.9834   35.0770   48.6493 H   0  0  0  0  0  0  0  0  0  0  0  0
   59.4223   32.1339   47.9638 H   0  0  0  0  0  0  0  0  0  0  0  0
   58.2534   32.7943   49.1836 H   0  0  0  0  0  0  0  0  0  0  0  0
   57.4870   32.1882   46.6932 H   0  0  0  0  0  0  0  0  0  0  0  0
   56.8313   33.6271   47.6041 H   0  0  0  0  0  0  0  0  0  0  0  0
   56.0438   31.3889   42.7086 H   0  0  0  0  0  0  0  0  0  0  0  0
   55.4603   29.0267   43.2663 H   0  0  0  0  0  0  0  0  0  0  0  0
  1  2  2  0
  2  3  1  0
  3  4  2  0
  4  5  1  0
  5  6  1  0
  6  7  1  0
  7  8  1  0
  8  9  1  0
  9 10  1  0
 10 11  1  0
 11 12  1  0
  4 13  1  0
 13 14  2  0
 14  1  1  0
 12  7  1  0
  1 15  1  0
  2 16  1  0
  3 17  1  0
  5 18  1  0
  5 19  1  0
  6 20  1  0
  6 21  1  0
  7 22  1  0
  8 23  1  0
  8 24  1  0
  9 25  1  0
  9 26  1  0
 10 27  1  0
 10 28  1  0
 11 29  1  0
 11 30  1  0
 12 31  1  0
 12 32  1  0
 13 33  1  0
 14 34  1  0
M  END
>  <UniqueID>  (43) 
40

>  <SMILES>  (43) 
c1ccc(CCC2CCCCC2)cc1

>  <Energy>  (43) 
32.75778977024146

>  <Genealogy>  (43) 
c1ccc(CCC2CCCCC2)cc1 (3D coordinates assigned)
c1ccc(CCC2CCCCC2)cc1 (nonaromatic ring conformer: 32.75778977024146 kcal/mol)

>  <smiles>  (43) 
c1ccc(CCC2CCCCC2)cc1

>  <score_type>  (43) 
oracle

>  <origin>  (43) 
adg

>  <m_score__min__energy>  (43) 
-6.3600000000000003

>  <m_primary>  (43) 
energy

$$$$
43:0
     RDKit          3D

 40 43  0  0  0  0  0  0  0  0999 V2000
   58.1060   30.9570   43.7760 C   0  0  0  0  0  0  0  0  0  0  0  0
   58.1860   30.9530   45.1140 C   0  0  0  0  0  0  0  0  0  0  0  0
   58.4390   32.2060   45.8710 C   0  0  0  0  0  0  0  0  0  0  0  0
   57.9140   33.4460   45.4580 C   0  0  0  0  0  0  0  0  0  0  0  0
   58.1480   34.5970   46.2150 C   0  0  0  0  0  0  0  0  0  0  0  0
   58.9000   34.5240   47.3880 C   0  0  0  0  0  0  0  0  0  0  0  0
   59.4180   33.3000   47.8140 C   0  0  0  0  0  0  0  0  0  0  0  0
   59.1800   32.1310   47.0720 C   0  0  0  0  0  0  0  0  0  0  0  0
   59.8060   30.8180   47.5030 C   0  0  2  0  0  0  0  0  0  0  0  0
   61.2180   30.7020   46.8870 C   0  0  0  0  0  0  0  0  0  0  0  0
   62.1880   31.6790   47.5030 C   0  0  0  0  0  0  0  0  0  0  0  0
   62.5950   32.8200   46.7920 C   0  0  0  0  0  0  0  0  0  0  0  0
   63.5280   33.7000   47.3480 C   0  0  0  0  0  0  0  0  0  0  0  0
   64.0610   33.4460   48.6150 C   0  0  0  0  0  0  0  0  0  0  0  0
   63.6660   32.3100   49.3250 C   0  0  0  0  0  0  0  0  0  0  0  0
   62.7340   31.4260   48.7710 C   0  0  0  0  0  0  0  0  0  0  0  0
   58.9330   29.6420   47.0940 C   0  0  0  0  0  0  0  0  0  0  0  0
   58.9160   28.4780   47.8810 C   0  0  0  0  0  0  0  0  0  0  0  0
   58.1540   27.3750   47.4960 C   0  0  0  0  0  0  0  0  0  0  0  0
   57.3880   27.4250   46.3310 C   0  0  0  0  0  0  0  0  0  0  0  0
   56.6250   26.3590   45.9830 F   0  0  0  0  0  0  0  0  0  0  0  0
   57.3870   28.5760   45.5370 C   0  0  0  0  0  0  0  0  0  0  0  0
   56.5630   28.6180   44.4600 F   0  0  0  0  0  0  0  0  0  0  0  0
   58.1820   29.6870   45.8960 C   0  0  0  0  0  0  0  0  0  0  0  0
   57.9180   30.0188   43.2334 H   0  0  0  0  0  0  0  0  0  0  0  0
   58.2283   31.8985   43.2205 H   0  0  0  0  0  0  0  0  0  0  0  0
   57.3174   33.5086   44.5359 H   0  0  0  0  0  0  0  0  0  0  0  0
   57.7383   35.5631   45.8853 H   0  0  0  0  0  0  0  0  0  0  0  0
   59.0851   35.4334   47.9785 H   0  0  0  0  0  0  0  0  0  0  0  0
   60.0160   33.2503   48.7359 H   0  0  0  0  0  0  0  0  0  0  0  0
   59.8898   30.7984   48.5996 H   0  0  0  0  0  0  0  0  0  0  0  0
   61.5927   29.6805   47.0488 H   0  0  0  0  0  0  0  0  0  0  0  0
   61.1396   30.9333   45.8145 H   0  0  0  0  0  0  0  0  0  0  0  0
   62.1781   33.0217   45.7943 H   0  0  0  0  0  0  0  0  0  0  0  0
   63.8430   34.5929   46.7881 H   0  0  0  0  0  0  0  0  0  0  0  0
   64.7921   34.1413   49.0532 H   0  0  0  0  0  0  0  0  0  0  0  0
   64.0882   32.1102   50.3209 H   0  0  0  0  0  0  0  0  0  0  0  0
   62.4281   30.5299   49.3308 H   0  0  0  0  0  0  0  0  0  0  0  0
   59.5078   28.4364   48.8073 H   0  0  0  0  0  0  0  0  0  0  0  0
   58.1570   26.4638   48.1122 H   0  0  0  0  0  0  0  0  0  0  0  0
  1  2  2  0
  2  3  1  0
  3  4  2  0
  4  5  1  0
  5  6  2  0
  6  7  1  0
  7  8  2  0
  8  9  1  0
  9 10  1  0
 10 11  1  0
 11 12  2  0
 12 13  1  0
 13 14  2  0
 14 15  1  0
 15 16  2  0
  9 17  1  0
 17 18  2  0
 18 19  1  0
 19 20  2  0
 20 21  1  0
 20 22  1  0
 22 23  1  0
 22 24  2  0
 24  2  1  0
  8  3  1  0
 16 11  1  0
 24 17  1  0
  1 25  1  0
  1 26  1  0
  4 27  1  0
  5 28  1  0
  6 29  1  0
  7 30  1  0
  9 31  1  1
 10 32  1  0
 10 33  1  0
 12 34  1  0
 13 35  1  0
 14 36  1  0
 15 37  1  0
 16 38  1  0
 18 39  1  0
 19 40  1  0
M  END
>  <UniqueID>  (44) 
41

>  <SMILES>  (44) 
C=C1c2ccccc2[C@H](Cc2ccccc2)c2ccc(F)c(F)c21

>  <Energy>  (44) 
53.58347502709899

>  <Genealogy>  (44) 
C=C1c2ccccc2[C@H](Cc2ccccc2)c2ccc(F)c(F)c21 (chirality)
C=C1c2ccccc2[C@H](Cc2ccccc2)c2ccc(F)c(F)c21 (3D coordinates assigned)
C=C1c2ccccc2[C@H](Cc2ccccc2)c2ccc(F)c(F)c21 (nonaromatic ring conformer: 53.58347502709899 kcal/mol)

>  <smiles>  (44) 
C=C1c2ccccc2C(Cc2ccccc2)c2ccc(F)c(F)c21

>  <score_type>  (44) 
oracle

>  <origin>  (44) 
adg

>  <m_score__min__energy>  (44) 
-8.0399999999999991

>  <m_primary>  (44) 
energy

$$$$
44:0
     RDKit          3D

 30 31  0  0  0  0  0  0  0  0999 V2000
   58.1800   32.3850   41.4750 C   0  0  0  0  0  0  0  0  0  0  0  0
   57.3810   31.5800   42.5100 C   0  0  0  0  0  0  0  0  0  0  0  0
   57.8210   31.7730   43.9170 N   0  0  1  0  0  0  0  0  0  0  0  0
   57.3110   33.0190   44.5410 C   0  0  0  0  0  0  0  0  0  0  0  0
   58.2870   33.6000   45.5260 C   0  0  0  0  0  0  0  0  0  0  0  0
   59.2590   34.5530   45.2460 C   0  0  0  0  0  0  0  0  0  0  0  0
   60.0490   34.8730   46.3560 C   0  0  0  0  0  0  0  0  0  0  0  0
   59.7080   34.1720   47.5050 C   0  0  0  0  0  0  0  0  0  0  0  0
   58.4220   33.1520   47.1400 S   0  0  0  0  0  0  0  0  0  0  0  0
   57.4980   30.6090   44.7230 C   0  0  0  0  0  0  0  0  0  0  0  0
   56.2950   30.2520   44.8720 O   0  0  0  0  0  0  0  0  0  0  0  0
   58.5550   29.7820   45.3440 C   0  0  0  0  0  0  0  0  0  0  0  0
   58.9870   29.8210   46.6680 C   0  0  0  0  0  0  0  0  0  0  0  0
   60.0170   28.9130   46.9430 C   0  0  0  0  0  0  0  0  0  0  0  0
   60.4030   28.1560   45.8450 C   0  0  0  0  0  0  0  0  0  0  0  0
   59.4630   28.6200   44.5320 S   0  0  0  0  0  0  0  0  0  0  0  0
   58.8633   33.0734   41.9939 H   0  0  0  0  0  0  0  0  0  0  0  0
   58.7620   31.6964   40.8448 H   0  0  0  0  0  0  0  0  0  0  0  0
   57.4871   32.9619   40.8448 H   0  0  0  0  0  0  0  0  0  0  0  0
   56.3250   31.8790   42.4365 H   0  0  0  0  0  0  0  0  0  0  0  0
   57.5458   30.5182   42.2744 H   0  0  0  0  0  0  0  0  0  0  0  0
   58.8640   31.8610   43.9050 H   0  0  0  0  0  0  0  0  0  0  0  0
   57.1220   33.7599   43.7502 H   0  0  0  0  0  0  0  0  0  0  0  0
   56.3879   32.7713   45.0855 H   0  0  0  0  0  0  0  0  0  0  0  0
   59.3936   35.0089   44.2540 H   0  0  0  0  0  0  0  0  0  0  0  0
   60.8640   35.6110   46.3214 H   0  0  0  0  0  0  0  0  0  0  0  0
   60.1957   34.2676   48.4863 H   0  0  0  0  0  0  0  0  0  0  0  0
   58.5610   30.4983   47.4229 H   0  0  0  0  0  0  0  0  0  0  0  0
   60.4775   28.8092   47.9366 H   0  0  0  0  0  0  0  0  0  0  0  0
   61.1883   27.3858   45.8362 H   0  0  0  0  0  0  0  0  0  0  0  0
  1  2  1  0
  2  3  1  0
  3  4  1  0
  4  5  1  0
  5  6  2  0
  6  7  1  0
  7  8  2  0
  8  9  1  0
  3 10  1  0
 10 11  2  0
 10 12  1  0
 12 13  2  0
 13 14  1  0
 14 15  2  0
 15 16  1  0
  9  5  1  0
 16 12  1  0
  1 17  1  0
  1 18  1  0
  1 19  1  0
  2 20  1  0
  2 21  1  0
  3 22  1  6
  4 23  1  0
  4 24  1  0
  6 25  1  0
  7 26  1  0
  8 27  1  0
 13 28  1  0
 14 29  1  0
 15 30  1  0
M  CHG  1   3   1
M  END
>  <UniqueID>  (45) 
42

>  <SMILES>  (45) 
CC[N@@H+](Cc1cccs1)C(=O)c1cccs1

>  <Energy>  (45) 
85.13990230517732

>  <Genealogy>  (45) 
CC[NH+](Cc1cccs1)C(=O)c1cccs1 (protonated)
CC[N@@H+](Cc1cccs1)C(=O)c1cccs1 (chirality)
CC[N@@H+](Cc1cccs1)C(=O)c1cccs1 (3D coordinates assigned)
CC[N@@H+](Cc1cccs1)C(=O)c1cccs1 (optimized conformer: 85.13990230517732 kcal/mol)

>  <smiles>  (45) 
CCN(Cc1cccs1)C(=O)c1cccs1

>  <score_type>  (45) 
oracle

>  <origin>  (45) 
adg

>  <m_score__min__energy>  (45) 
-4.6299999999999999

>  <m_primary>  (45) 
energy

$$$$
45:0
     RDKit          3D

 23 24  0  0  0  0  0  0  0  0999 V2000
   56.0490   30.0270   44.8480 O   0  0  0  0  0  0  0  0  0  0  0  0
   57.2690   30.5540   44.1430 S   0  0  0  0  0  0  0  0  0  0  0  0
   56.8990   30.8810   42.7250 O   0  0  0  0  0  0  0  0  0  0  0  0
   58.4940   29.3310   44.1460 N   0  0  0  0  0  0  0  0  0  0  0  0
   58.3880   28.0940   44.8580 C   0  0  0  0  0  0  0  0  0  0  0  0
   59.5080   27.4270   45.3350 C   0  0  0  0  0  0  0  0  0  0  0  0
   58.9740   26.0350   46.1140 S   0  0  0  0  0  0  0  0  0  0  0  0
   57.3480   26.3330   45.8140 C   0  0  0  0  0  0  0  0  0  0  0  0
   57.1970   27.4840   45.1250 N   0  0  0  0  0  0  0  0  0  0  0  0
   57.8710   32.0180   44.9300 C   0  0  0  0  0  0  0  0  0  0  0  0
   57.7690   33.2520   44.2670 C   0  0  0  0  0  0  0  0  0  0  0  0
   58.2280   34.4230   44.8760 C   0  0  0  0  0  0  0  0  0  0  0  0
   58.7950   34.3730   46.1500 C   0  0  0  0  0  0  0  0  0  0  0  0
   58.9070   33.1510   46.8170 C   0  0  0  0  0  0  0  0  0  0  0  0
   58.4500   31.9720   46.2160 C   0  0  0  0  0  0  0  0  0  0  0  0
   58.6270   30.4620   47.1050 Cl  0  0  0  0  0  0  0  0  0  0  0  0
   60.5537   27.7497   45.2239 H   0  0  0  0  0  0  0  0  0  0  0  0
   56.5218   25.6812   46.1343 H   0  0  0  0  0  0  0  0  0  0  0  0
   56.2640   27.8450   44.8320 H   0  0  0  0  0  0  0  0  0  0  0  0
   57.3248   33.2970   43.2617 H   0  0  0  0  0  0  0  0  0  0  0  0
   58.1422   35.3855   44.3504 H   0  0  0  0  0  0  0  0  0  0  0  0
   59.1537   35.2960   46.6290 H   0  0  0  0  0  0  0  0  0  0  0  0
   59.3568   33.1147   47.8202 H   0  0  0  0  0  0  0  0  0  0  0  0
  1  2  2  0
  2  3  2  0
  2  4  1  0
  4  5  1  0
  5  6  2  0
  6  7  1  0
  7  8  1  0
  8  9  2  0
  2 10  1  0
 10 11  2  0
 11 12  1  0
 12 13  2  0
 13 14  1  0
 14 15  2  0
 15 16  1  0
  9  5  1  0
 15 10  1  0
  6 17  1  0
  8 18  1  0
  9 19  1  0
 11 20  1  0
 12 21  1  0
 13 22  1  0
 14 23  1  0
M  CHG  2   4  -1   9   1
M  END
>  <UniqueID>  (46) 
43

>  <SMILES>  (46) 
O=S(=O)([N-]c1csc[nH+]1)c1ccccc1Cl

>  <Energy>  (46) 
56.03063302242566

>  <Genealogy>  (46) 
O=S(=O)([N-]c1csc[nH+]1)c1ccccc1Cl (protonated)
O=S(=O)([N-]c1csc[nH+]1)c1ccccc1Cl (3D coordinates assigned)
O=S(=O)([N-]c1csc[nH+]1)c1ccccc1Cl (optimized conformer: 56.03063302242566 kcal/mol)

>  <smiles>  (46) 
O=S(=O)(Nc1cscn1)c1ccccc1Cl

>  <score_type>  (46) 
oracle

>  <origin>  (46) 
adg

>  <m_score__min__energy>  (46) 
-6.4500000000000002

>  <m_primary>  (46) 
energy

$$$$
46:0
     RDKit          3D

 40 42  0  0  0  0  0  0  0  0999 V2000
   62.5550   30.9280   49.9260 C   0  0  0  0  0  0  0  0  0  0  0  0
   63.6180   31.6030   49.1620 N   0  0  0  0  0  0  0  0  0  0  0  0
   64.1950   32.7400   49.9090 C   0  0  0  0  0  0  0  0  0  0  0  0
   63.2490   33.9550   49.9680 C   0  0  0  0  0  0  0  0  0  0  0  0
   62.4870   34.2090   48.6480 C   0  0  0  0  0  0  0  0  0  0  0  0
   61.1240   33.8060   48.8070 O   0  0  0  0  0  0  0  0  0  0  0  0
   60.3100   33.2350   47.8150 C   0  0  0  0  0  0  0  0  0  0  0  0
   59.9390   31.8950   47.9600 C   0  0  0  0  0  0  0  0  0  0  0  0
   59.1310   31.2700   47.0070 C   0  0  0  0  0  0  0  0  0  0  0  0
   58.6780   31.9790   45.8790 C   0  0  0  0  0  0  0  0  0  0  0  0
   57.8130   31.3390   44.8550 C   0  0  0  0  0  0  0  0  0  0  0  0
   57.8550   31.7270   43.5020 C   0  0  0  0  0  0  0  0  0  0  0  0
   57.0180   31.0960   42.5790 C   0  0  0  0  0  0  0  0  0  0  0  0
   56.1460   30.0920   43.0010 C   0  0  0  0  0  0  0  0  0  0  0  0
   56.1190   29.7370   44.3490 C   0  0  0  0  0  0  0  0  0  0  0  0
   56.9410   30.3600   45.2340 N   0  0  0  0  0  0  0  0  0  0  0  0
   59.0380   33.3320   45.7420 C   0  0  0  0  0  0  0  0  0  0  0  0
   59.8470   33.9540   46.6980 C   0  0  0  0  0  0  0  0  0  0  0  0
   63.1370   33.4470   47.4830 C   0  0  0  0  0  0  0  0  0  0  0  0
   63.1950   31.9360   47.7770 C   0  0  0  0  0  0  0  0  0  0  0  0
   62.7445   31.0483   51.0028 H   0  0  0  0  0  0  0  0  0  0  0  0
   61.5818   31.3740   49.6729 H   0  0  0  0  0  0  0  0  0  0  0  0
   62.5447   29.8576   49.6729 H   0  0  0  0  0  0  0  0  0  0  0  0
   64.4113   32.4124   50.9365 H   0  0  0  0  0  0  0  0  0  0  0  0
   65.1074   33.0550   49.3815 H   0  0  0  0  0  0  0  0  0  0  0  0
   62.5129   33.7844   50.7674 H   0  0  0  0  0  0  0  0  0  0  0  0
   63.8728   34.8412   50.1566 H   0  0  0  0  0  0  0  0  0  0  0  0
   62.5289   35.2826   48.4119 H   0  0  0  0  0  0  0  0  0  0  0  0
   60.2873   31.3261   48.8346 H   0  0  0  0  0  0  0  0  0  0  0  0
   58.8467   30.2156   47.1394 H   0  0  0  0  0  0  0  0  0  0  0  0
   58.5420   32.5212   43.1744 H   0  0  0  0  0  0  0  0  0  0  0  0
   57.0463   31.3906   41.5195 H   0  0  0  0  0  0  0  0  0  0  0  0
   55.4878   29.5866   42.2790 H   0  0  0  0  0  0  0  0  0  0  0  0
   55.4316   28.9518   44.6966 H   0  0  0  0  0  0  0  0  0  0  0  0
   58.6797   33.9060   44.8747 H   0  0  0  0  0  0  0  0  0  0  0  0
   60.1230   35.0118   46.5759 H   0  0  0  0  0  0  0  0  0  0  0  0
   62.5466   33.6136   46.5700 H   0  0  0  0  0  0  0  0  0  0  0  0
   64.1639   33.8183   47.3504 H   0  0  0  0  0  0  0  0  0  0  0  0
   62.1933   31.5131   47.6107 H   0  0  0  0  0  0  0  0  0  0  0  0
   63.9531   31.5107   47.1030 H   0  0  0  0  0  0  0  0  0  0  0  0
  1  2  1  0
  2  3  1  0
  3  4  1  0
  4  5  1  0
  5  6  1  0
  6  7  1  0
  7  8  2  0
  8  9  1  0
  9 10  2  0
 10 11  1  0
 11 12  2  0
 12 13  1  0
 13 14  2  0
 14 15  1  0
 15 16  2  0
 10 17  1  0
 17 18  2  0
  5 19  1  0
 19 20  1  0
 20  2  1  0
 18  7  1  0
 16 11  1  0
  1 21  1  0
  1 22  1  0
  1 23  1  0
  3 24  1  0
  3 25  1  0
  4 26  1  0
  4 27  1  0
  5 28  1  0
  8 29  1  0
  9 30  1  0
 12 31  1  0
 13 32  1  0
 14 33  1  0
 15 34  1  0
 17 35  1  0
 18 36  1  0
 19 37  1  0
 19 38  1  0
 20 39  1  0
 20 40  1  0
M  END
>  <UniqueID>  (47) 
44

>  <SMILES>  (47) 
CN1CCC(Oc2ccc(-c3ccccn3)cc2)CC1

>  <Energy>  (47) 
55.24093398610855

>  <Genealogy>  (47) 
CN1CCC(Oc2ccc(-c3ccccn3)cc2)CC1 (3D coordinates assigned)
CN1CCC(Oc2ccc(-c3ccccn3)cc2)CC1 (nonaromatic ring conformer: 55.24093398610855 kcal/mol)

>  <smiles>  (47) 
CN1CCC(Oc2ccc(-c3ccccn3)cc2)CC1

>  <score_type>  (47) 
oracle

>  <origin>  (47) 
adg

>  <m_score__min__energy>  (47) 
-7.0300000000000002

>  <m_primary>  (47) 
energy

$$$$
47:0
     RDKit          3D

 23 24  0  0  1  0  0  0  0  0999 V2000
   56.3290   29.6150   42.5690 C   0  0  0  0  0  0  0  0  0  0  0  0
   56.8280   30.8380   43.3490 C   0  0  0  0  0  0  0  0  0  0  0  0
   56.7000   30.4850   44.7480 N   0  0  0  0  0  0  0  0  0  0  0  0
   57.1000   29.3170   45.1500 C   0  0  0  0  0  0  0  0  0  0  0  0
   56.1380   28.4040   45.3630 N   0  0  0  0  0  0  0  0  0  0  0  0
   56.5450   27.1920   45.7800 C   0  0  0  0  0  0  0  0  0  0  0  0
   55.7380   26.2150   46.0270 N   0  0  0  0  0  0  0  0  0  0  0  0
   57.9070   26.9620   45.9600 C   0  0  0  0  0  0  0  0  0  0  0  0
   58.7790   25.4800   46.5000 S   0  0  0  0  0  0  0  0  0  0  0  0
   60.4320   26.2750   46.3780 C   0  0  0  0  0  0  0  0  0  0  0  0
   60.1530   27.5360   45.9550 C   0  0  0  0  0  0  0  0  0  0  0  0
   58.8900   27.8940   45.7420 C   0  0  0  0  0  0  0  0  0  0  0  0
   58.4040   29.1180   45.3160 N   0  0  0  0  0  0  0  0  0  0  0  0
   56.0105   28.8344   43.2756 H   0  0  0  0  0  0  0  0  0  0  0  0
   55.4777   29.9061   41.9361 H   0  0  0  0  0  0  0  0  0  0  0  0
   57.1409   29.2275   41.9361 H   0  0  0  0  0  0  0  0  0  0  0  0
   57.8785   31.0496   43.1007 H   0  0  0  0  0  0  0  0  0  0  0  0
   56.2515   31.7417   43.1023 H   0  0  0  0  0  0  0  0  0  0  0  0
   55.1200   28.5810   45.2270 H   0  0  0  0  0  0  0  0  0  0  0  0
   55.0360   26.3740   46.7660 H   0  0  0  0  0  0  0  0  0  0  0  0
   61.4157   25.8338   46.5961 H   0  0  0  0  0  0  0  0  0  0  0  0
   60.9674   28.2567   45.7897 H   0  0  0  0  0  0  0  0  0  0  0  0
   59.0430   29.9130   45.1140 H   0  0  0  0  0  0  0  0  0  0  0  0
  1  2  1  0
  2  3  1  0
  3  4  2  0
  4  5  1  0
  5  6  1  0
  6  7  2  3
  6  8  1  0
  8  9  1  0
  9 10  1  0
 10 11  2  0
 11 12  1  0
 12 13  1  0
 13  4  1  0
 12  8  2  0
  1 14  1  0
  1 15  1  0
  1 16  1  0
  2 17  1  0
  2 18  1  0
  5 19  1  0
  7 20  1  0
 10 21  1  0
 11 22  1  0
 13 23  1  0
M  END
>  <smiles>  (48) 
CCN=c1[nH]c(=N)c2sccc2[nH]1

>  <score_type>  (48) 
oracle

>  <origin>  (48) 
adg

>  <m_score__min__energy>  (48) 
-5.6200000000000001

>  <m_primary>  (48) 
energy

$$$$
48:0
     RDKit          3D

 33 34  0  0  0  0  0  0  0  0999 V2000
   56.1220   29.7990   43.5710 C   0  0  0  0  0  0  0  0  0  0  0  0
   57.5000   30.2760   43.6460 N   0  0  0  0  0  0  0  0  0  0  0  0
   57.9630   31.2300   44.6310 C   0  0  0  0  0  0  0  0  0  0  0  0
   57.3960   32.5210   44.6860 C   0  0  0  0  0  0  0  0  0  0  0  0
   57.8280   33.4540   45.6260 C   0  0  0  0  0  0  0  0  0  0  0  0
   58.8320   33.1230   46.5290 C   0  0  0  0  0  0  0  0  0  0  0  0
   59.4100   31.8560   46.4990 C   0  0  0  0  0  0  0  0  0  0  0  0
   58.9940   30.8870   45.5570 C   0  0  0  0  0  0  0  0  0  0  0  0
   59.6200   29.4970   45.5120 C   0  0  0  0  0  0  0  0  0  0  0  0
   59.3240   28.5820   46.7120 C   0  0  0  0  0  0  0  0  0  0  0  0
   58.4240   27.4470   46.2990 C   0  0  0  0  0  0  0  0  0  0  0  0
   58.9710   26.2040   45.9400 C   0  0  0  0  0  0  0  0  0  0  0  0
   58.1310   25.1410   45.5890 C   0  0  0  0  0  0  0  0  0  0  0  0
   56.7450   25.3090   45.6050 C   0  0  0  0  0  0  0  0  0  0  0  0
   56.1920   26.5390   45.9750 C   0  0  0  0  0  0  0  0  0  0  0  0
   54.8120   26.7020   45.9970 O   0  0  0  0  0  0  0  0  0  0  0  0
   57.0290   27.6040   46.3260 C   0  0  0  0  0  0  0  0  0  0  0  0
   55.7256   29.6618   44.5879 H   0  0  0  0  0  0  0  0  0  0  0  0
   55.5073   30.5367   43.0343 H   0  0  0  0  0  0  0  0  0  0  0  0
   56.0949   28.8392   43.0343 H   0  0  0  0  0  0  0  0  0  0  0  0
   58.1550   29.8860   42.9350 H   0  0  0  0  0  0  0  0  0  0  0  0
   56.6013   32.7947   43.9763 H   0  0  0  0  0  0  0  0  0  0  0  0
   57.3735   34.4553   45.6539 H   0  0  0  0  0  0  0  0  0  0  0  0
   59.1707   33.8633   47.2688 H   0  0  0  0  0  0  0  0  0  0  0  0
   60.2025   31.6053   47.2195 H   0  0  0  0  0  0  0  0  0  0  0  0
   59.2529   28.9924   44.6061 H   0  0  0  0  0  0  0  0  0  0  0  0
   60.7074   29.6623   45.5279 H   0  0  0  0  0  0  0  0  0  0  0  0
   60.2695   28.1727   47.0974 H   0  0  0  0  0  0  0  0  0  0  0  0
   58.8200   29.1704   47.4929 H   0  0  0  0  0  0  0  0  0  0  0  0
   60.0623   26.0657   45.9347 H   0  0  0  0  0  0  0  0  0  0  0  0
   58.5634   24.1717   45.3001 H   0  0  0  0  0  0  0  0  0  0  0  0
   56.0871   24.4727   45.3262 H   0  0  0  0  0  0  0  0  0  0  0  0
   56.5922   28.5684   46.6244 H   0  0  0  0  0  0  0  0  0  0  0  0
  1  2  1  0
  2  3  1  0
  3  4  2  0
  4  5  1  0
  5  6  2  0
  6  7  1  0
  7  8  2  0
  8  9  1  0
  9 10  1  0
 10 11  1  0
 11 12  2  0
 12 13  1  0
 13 14  2  0
 14 15  1  0
 15 16  1  0
 15 17  2  0
  8  3  1  0
 17 11  1  0
  1 18  1  0
  1 19  1  0
  1 20  1  0
  2 21  1  0
  4 22  1  0
  5 23  1  0
  6 24  1  0
  7 25  1  0
  9 26  1  0
  9 27  1  0
 10 28  1  0
 10 29  1  0
 12 30  1  0
 13 31  1  0
 14 32  1  0
 17 33  1  0
M  CHG  1  16  -1
M  END
>  <UniqueID>  (49) 
45

>  <SMILES>  (49) 
CNc1ccccc1CCc1cccc([O-])c1

>  <Energy>  (49) 
35.63469185261866

>  <Genealogy>  (49) 
CNc1ccccc1CCc1cccc([O-])c1 (protonated)
CNc1ccccc1CCc1cccc([O-])c1 (3D coordinates assigned)
CNc1ccccc1CCc1cccc([O-])c1 (optimized conformer: 35.63469185261866 kcal/mol)

>  <smiles>  (49) 
CNc1ccccc1CCc1cccc(O)c1

>  <score_type>  (49) 
oracle

>  <origin>  (49) 
adg

>  <m_score__min__energy>  (49) 
-10.59

>  <m_primary>  (49) 
energy

$$$$
