0:0
     RDKit          3D

 64 66  0  0  0  0  0  0  0  0999 V2000
   53.0720   24.1080   45.2690 C   0  0  0  0  0  0  0  0  0  0  0  0
   53.9830   23.7100   44.1100 C   0  0  0  0  0  0  0  0  0  0  0  0
   55.3850   24.0880   44.4010 N   0  0  0  0  0  0  0  0  0  0  0  0
   56.2940   23.6390   43.3220 C   0  0  0  0  0  0  0  0  0  0  0  0
   56.6320   22.1620   43.5010 C   0  0  0  0  0  0  0  0  0  0  0  0
   55.8170   23.5660   45.7200 C   0  0  0  0  0  0  0  0  0  0  0  0
   56.3830   24.6950   46.5920 C   0  0  0  0  0  0  0  0  0  0  0  0
   56.4730   25.9520   45.8440 N   0  0  0  0  0  0  0  0  0  0  0  0
   57.4380   26.9780   46.1410 C   0  0  0  0  0  0  0  0  0  0  0  0
   57.3100   28.2380   45.5370 C   0  0  0  0  0  0  0  0  0  0  0  0
   58.2280   29.2550   45.8090 C   0  0  0  0  0  0  0  0  0  0  0  0
   59.3000   29.0370   46.6920 C   0  0  0  0  0  0  0  0  0  0  0  0
   60.2320   30.1020   46.9710 N   0  0  0  0  0  0  0  0  0  0  0  0
   60.0120   31.2360   47.6740 C   0  0  0  0  0  0  0  0  0  0  0  0
   61.1950   31.9440   47.6560 C   0  0  0  0  0  0  0  0  0  0  0  0
   61.4640   33.2680   48.3040 C   0  0  0  0  0  0  0  0  0  0  0  0
   60.6640   34.3290   47.6600 N   0  0  0  0  0  0  0  0  0  0  0  0
   60.7310   34.2030   46.1880 C   0  0  0  0  0  0  0  0  0  0  0  0
   59.6270   35.0270   45.5100 C   0  0  0  0  0  0  0  0  0  0  0  0
   58.2620   34.6100   45.9290 N   0  0  0  0  0  0  0  0  0  0  0  0
   57.5430   33.8820   44.8620 C   0  0  0  0  0  0  0  0  0  0  0  0
   58.0840   32.4600   44.7250 C   0  0  0  0  0  0  0  0  0  0  0  0
   58.2450   33.8370   47.1890 C   0  0  0  0  0  0  0  0  0  0  0  0
   59.2740   34.3830   48.1870 C   0  0  0  0  0  0  0  0  0  0  0  0
   62.0900   31.2260   46.9550 N   0  0  0  0  0  0  0  0  0  0  0  0
   61.4900   30.1180   46.5490 N   0  0  0  0  0  0  0  0  0  0  0  0
   59.4290   27.7740   47.2980 C   0  0  0  0  0  0  0  0  0  0  0  0
   58.5100   26.7560   47.0260 C   0  0  0  0  0  0  0  0  0  0  0  0
   53.5746   23.8884   46.2225 H   0  0  0  0  0  0  0  0  0  0  0  0
   52.8521   25.1842   45.2097 H   0  0  0  0  0  0  0  0  0  0  0  0
   52.1330   23.5381   45.2097 H   0  0  0  0  0  0  0  0  0  0  0  0
   53.9247   22.6218   43.9606 H   0  0  0  0  0  0  0  0  0  0  0  0
   53.6536   24.2349   43.2012 H   0  0  0  0  0  0  0  0  0  0  0  0
   55.8027   23.7843   42.3486 H   0  0  0  0  0  0  0  0  0  0  0  0
   57.2219   24.2282   43.3649 H   0  0  0  0  0  0  0  0  0  0  0  0
   56.6861   21.9257   44.5739 H   0  0  0  0  0  0  0  0  0  0  0  0
   55.8513   21.5474   43.0291 H   0  0  0  0  0  0  0  0  0  0  0  0
   57.6023   21.9481   43.0291 H   0  0  0  0  0  0  0  0  0  0  0  0
   54.9533   23.1144   46.2300 H   0  0  0  0  0  0  0  0  0  0  0  0
   56.6036   22.8135   45.5618 H   0  0  0  0  0  0  0  0  0  0  0  0
   55.7241   24.8414   47.4606 H   0  0  0  0  0  0  0  0  0  0  0  0
   57.3952   24.4100   46.9147 H   0  0  0  0  0  0  0  0  0  0  0  0
   55.8110   26.1180   45.0530 H   0  0  0  0  0  0  0  0  0  0  0  0
   56.4783   28.4268   44.8423 H   0  0  0  0  0  0  0  0  0  0  0  0
   58.1109   30.2369   45.3272 H   0  0  0  0  0  0  0  0  0  0  0  0
   59.0736   31.5349   48.1640 H   0  0  0  0  0  0  0  0  0  0  0  0
   61.1983   33.2104   49.3699 H   0  0  0  0  0  0  0  0  0  0  0  0
   62.5315   33.5091   48.1927 H   0  0  0  0  0  0  0  0  0  0  0  0
   61.7112   34.5622   45.8413 H   0  0  0  0  0  0  0  0  0  0  0  0
   60.5896   33.1451   45.9219 H   0  0  0  0  0  0  0  0  0  0  0  0
   59.7674   36.0863   45.7712 H   0  0  0  0  0  0  0  0  0  0  0  0
   59.7072   34.8622   44.4254 H   0  0  0  0  0  0  0  0  0  0  0  0
   56.4724   33.8394   45.1112 H   0  0  0  0  0  0  0  0  0  0  0  0
   57.6903   34.4115   43.9092 H   0  0  0  0  0  0  0  0  0  0  0  0
   58.2469   32.0317   45.7250 H   0  0  0  0  0  0  0  0  0  0  0  0
   57.3579   31.8428   44.1757 H   0  0  0  0  0  0  0  0  0  0  0  0
   59.0368   32.4815   44.1757 H   0  0  0  0  0  0  0  0  0  0  0  0
   57.2420   33.9012   47.6361 H   0  0  0  0  0  0  0  0  0  0  0  0
   58.5009   32.7918   46.9606 H   0  0  0  0  0  0  0  0  0  0  0  0
   59.0236   35.4297   48.4146 H   0  0  0  0  0  0  0  0  0  0  0  0
   59.2334   33.7521   49.0872 H   0  0  0  0  0  0  0  0  0  0  0  0
   63.0830   31.4750   46.7530 H   0  0  0  0  0  0  0  0  0  0  0  0
   60.2609   27.5855   47.9925 H   0  0  0  0  0  0  0  0  0  0  0  0
   58.6256   25.7737   47.5074 H   0  0  0  0  0  0  0  0  0  0  0  0
  1  2  1  0
  2  3  1  0
  3  4  1  0
  4  5  1  0
  3  6  1  0
  6  7  1  0
  7  8  1  0
  8  9  1  0
  9 10  2  0
 10 11  1  0
 11 12  2  0
 12 13  1  0
 13 14  1  0
 14 15  2  0
 15 16  1  0
 16 17  1  0
 17 18  1  0
 18 19  1  0
 19 20  1  0
 20 21  1  0
 21 22  1  0
 20 23  1  0
 23 24  1  0
 15 25  1  0
 25 26  2  0
 12 27  1  0
 27 28  2  0
 28  9  1  0
 26 13  1  0
 24 17  1  0
  1 29  1  0
  1 30  1  0
  1 31  1  0
  2 32  1  0
  2 33  1  0
  4 34  1  0
  4 35  1  0
  5 36  1  0
  5 37  1  0
  5 38  1  0
  6 39  1  0
  6 40  1  0
  7 41  1  0
  7 42  1  0
  8 43  1  0
 10 44  1  0
 11 45  1  0
 14 46  1  0
 16 47  1  0
 16 48  1  0
 18 49  1  0
 18 50  1  0
 19 51  1  0
 19 52  1  0
 21 53  1  0
 21 54  1  0
 22 55  1  0
 22 56  1  0
 22 57  1  0
 23 58  1  0
 23 59  1  0
 24 60  1  0
 24 61  1  0
 25 62  1  0
 27 63  1  0
 28 64  1  0
M  CHG  1  25   1
M  END
>  <UniqueID>  (1) 
1

>  <SMILES>  (1) 
CCN(CC)CCNc1ccc(-n2cc(CN3CCN(CC)CC3)[nH+]n2)cc1

>  <Energy>  (1) 
108.54915274888138

>  <Genealogy>  (1) 
CCN(CC)CCNc1ccc(-n2cc(CN3CCN(CC)CC3)[nH+]n2)cc1 (protonated)
CCN(CC)CCNc1ccc(-n2cc(CN3CCN(CC)CC3)[nH+]n2)cc1 (3D coordinates assigned)
CCN(CC)CCNc1ccc(-n2cc(CN3CCN(CC)CC3)[nH+]n2)cc1 (nonaromatic ring conformer: 108.54915274888138 kcal/mol)

>  <smiles>  (1) 
CCN(CC)CCNc1ccc(-n2cc(CN3CCN(CC)CC3)nn2)cc1

>  <score_type>  (1) 
oracle

>  <origin>  (1) 
adg

>  <m_score__min__energy>  (1) 
-6.46

>  <m_primary>  (1) 
energy

$$$$
1:0
     RDKit          3D

 41 42  0  0  0  0  0  0  0  0999 V2000
   63.3680   32.6690   47.4540 C   0  0  0  0  0  0  0  0  0  0  0  0
   62.1420   32.8950   48.2840 C   0  0  0  0  0  0  0  0  0  0  0  0
   61.8500   34.0690   48.6310 O   0  0  0  0  0  0  0  0  0  0  0  0
   61.3130   31.8140   48.7310 N   0  0  0  0  0  0  0  0  0  0  0  0
   60.6320   30.8590   47.9050 C   0  0  0  0  0  0  0  0  0  0  0  0
   61.0090   30.6360   46.5690 C   0  0  0  0  0  0  0  0  0  0  0  0
   60.3060   29.7180   45.7820 C   0  0  0  0  0  0  0  0  0  0  0  0
   59.2130   29.0290   46.3180 C   0  0  0  0  0  0  0  0  0  0  0  0
   58.3120   27.8470   45.3140 S   0  0  0  0  0  0  0  0  0  0  0  0
   57.7080   29.1120   44.1470 C   0  0  0  0  0  0  0  0  0  0  0  0
   56.4540   29.7400   44.6800 C   0  0  0  0  0  0  0  0  0  0  0  0
   55.5780   29.0010   45.2020 O   0  0  0  0  0  0  0  0  0  0  0  0
   56.2580   31.1600   44.6930 N   0  0  0  0  0  0  0  0  0  0  0  0
   57.2530   32.1630   44.9520 C   0  0  0  0  0  0  0  0  0  0  0  0
   57.5850   32.5240   46.2710 C   0  0  0  0  0  0  0  0  0  0  0  0
   58.5710   33.4890   46.5200 C   0  0  0  0  0  0  0  0  0  0  0  0
   58.8840   33.9100   47.9260 C   0  0  0  0  0  0  0  0  0  0  0  0
   59.2240   34.1020   45.4430 C   0  0  0  0  0  0  0  0  0  0  0  0
   58.9260   33.7240   44.1330 C   0  0  0  0  0  0  0  0  0  0  0  0
   57.9540   32.7440   43.8770 C   0  0  0  0  0  0  0  0  0  0  0  0
   57.6350   32.3550   42.4590 C   0  0  0  0  0  0  0  0  0  0  0  0
   58.8120   29.2740   47.6360 C   0  0  0  0  0  0  0  0  0  0  0  0
   59.5150   30.1910   48.4230 C   0  0  0  0  0  0  0  0  0  0  0  0
   64.2334   32.5095   48.1141 H   0  0  0  0  0  0  0  0  0  0  0  0
   63.2227   31.7825   46.8192 H   0  0  0  0  0  0  0  0  0  0  0  0
   63.5484   33.5490   46.8192 H   0  0  0  0  0  0  0  0  0  0  0  0
   61.8602   31.1857   46.1410 H   0  0  0  0  0  0  0  0  0  0  0  0
   60.6128   29.5378   44.7411 H   0  0  0  0  0  0  0  0  0  0  0  0
   58.4780   29.8870   44.0182 H   0  0  0  0  0  0  0  0  0  0  0  0
   57.4925   28.6379   43.1781 H   0  0  0  0  0  0  0  0  0  0  0  0
   57.0662   32.0447   47.1143 H   0  0  0  0  0  0  0  0  0  0  0  0
   58.3807   33.2331   48.6321 H   0  0  0  0  0  0  0  0  0  0  0  0
   59.9711   33.8669   48.0883 H   0  0  0  0  0  0  0  0  0  0  0  0
   58.5296   34.9386   48.0883 H   0  0  0  0  0  0  0  0  0  0  0  0
   59.9744   34.8842   45.6304 H   0  0  0  0  0  0  0  0  0  0  0  0
   59.4571   34.1978   43.2943 H   0  0  0  0  0  0  0  0  0  0  0  0
   56.9375   31.5044   42.4602 H   0  0  0  0  0  0  0  0  0  0  0  0
   57.1727   33.2076   41.9401 H   0  0  0  0  0  0  0  0  0  0  0  0
   58.5616   32.0686   41.9401 H   0  0  0  0  0  0  0  0  0  0  0  0
   57.9428   28.7446   48.0533 H   0  0  0  0  0  0  0  0  0  0  0  0
   59.1892   30.3891   49.4548 H   0  0  0  0  0  0  0  0  0  0  0  0
  1  2  1  0
  2  3  2  0
  2  4  1  0
  4  5  1  0
  5  6  2  0
  6  7  1  0
  7  8  2  0
  8  9  1  0
  9 10  1  0
 10 11  1  0
 11 12  2  0
 11 13  1  0
 13 14  1  0
 14 15  2  0
 15 16  1  0
 16 17  1  0
 16 18  2  0
 18 19  1  0
 19 20  2  0
 20 21  1  0
  8 22  1  0
 22 23  2  0
 23  5  1  0
 20 14  1  0
  1 24  1  0
  1 25  1  0
  1 26  1  0
  6 27  1  0
  7 28  1  0
 10 29  1  0
 10 30  1  0
 15 31  1  0
 17 32  1  0
 17 33  1  0
 17 34  1  0
 18 35  1  0
 19 36  1  0
 21 37  1  0
 21 38  1  0
 21 39  1  0
 22 40  1  0
 23 41  1  0
M  CHG  2   4  -1  13  -1
M  END
>  <UniqueID>  (2) 
2

>  <SMILES>  (2) 
CC(=O)[N-]c1ccc(SCC(=O)[N-]c2cc(C)ccc2C)cc1

>  <Energy>  (2) 
42.29270925626576

>  <Genealogy>  (2) 
CC(=O)[N-]c1ccc(SCC(=O)[N-]c2cc(C)ccc2C)cc1 (protonated)
CC(=O)[N-]c1ccc(SCC(=O)[N-]c2cc(C)ccc2C)cc1 (3D coordinates assigned)
CC(=O)[N-]c1ccc(SCC(=O)[N-]c2cc(C)ccc2C)cc1 (optimized conformer: 42.29270925626576 kcal/mol)

>  <smiles>  (2) 
CC(=O)Nc1ccc(SCC(=O)Nc2cc(C)ccc2C)cc1

>  <score_type>  (2) 
oracle

>  <origin>  (2) 
adg

>  <m_score__min__energy>  (2) 
-11.25

>  <m_primary>  (2) 
energy

$$$$
2:0
     RDKit          3D

 53 56  0  0  0  0  0  0  0  0999 V2000
   57.2000   33.4680   47.4150 O   0  0  0  0  0  0  0  0  0  0  0  0
   58.1190   32.7630   46.9130 C   0  0  0  0  0  0  0  0  0  0  0  0
   58.7210   31.6900   47.7250 C   0  0  0  0  0  0  0  0  0  0  0  0
   59.4820   30.6250   47.2560 C   0  0  0  0  0  0  0  0  0  0  0  0
   59.8980   29.7510   48.2720 C   0  0  0  0  0  0  0  0  0  0  0  0
   59.4600   30.1180   49.5400 C   0  0  0  0  0  0  0  0  0  0  0  0
   58.5510   31.5260   49.3950 S   0  0  0  0  0  0  0  0  0  0  0  0
   58.5570   33.0120   45.5640 N   0  0  0  0  0  0  0  0  0  0  0  0
   59.3570   34.2020   45.2530 C   0  0  0  0  0  0  0  0  0  0  0  0
   59.6320   35.0090   46.5400 C   0  0  0  0  0  0  0  0  0  0  0  0
   60.7520   34.4840   47.3500 N   0  0  0  0  0  0  0  0  0  0  0  0
   60.3860   34.2850   48.7770 C   0  0  0  0  0  0  0  0  0  0  0  0
   61.2890   33.2630   49.4900 C   0  0  0  0  0  0  0  0  0  0  0  0
   62.6340   33.2670   48.8980 N   0  0  0  0  0  0  0  0  0  0  0  0
   63.8060   33.4270   49.7220 C   0  0  0  0  0  0  0  0  0  0  0  0
   65.0110   32.7850   49.3800 C   0  0  0  0  0  0  0  0  0  0  0  0
   66.1490   32.9460   50.1790 C   0  0  0  0  0  0  0  0  0  0  0  0
   66.0960   33.7520   51.3190 C   0  0  0  0  0  0  0  0  0  0  0  0
   64.9070   34.4010   51.6620 C   0  0  0  0  0  0  0  0  0  0  0  0
   63.7680   34.2430   50.8670 C   0  0  0  0  0  0  0  0  0  0  0  0
   62.7720   33.1000   47.4430 C   0  0  0  0  0  0  0  0  0  0  0  0
   61.4300   33.3240   46.7400 C   0  0  0  0  0  0  0  0  0  0  0  0
   57.9730   32.2750   44.4780 C   0  0  0  0  0  0  0  0  0  0  0  0
   58.1330   32.7070   43.1510 C   0  0  0  0  0  0  0  0  0  0  0  0
   57.5690   31.9750   42.1020 C   0  0  0  0  0  0  0  0  0  0  0  0
   56.8460   30.8080   42.3720 C   0  0  0  0  0  0  0  0  0  0  0  0
   56.6920   30.3690   43.6900 C   0  0  0  0  0  0  0  0  0  0  0  0
   57.2570   31.0980   44.7420 C   0  0  0  0  0  0  0  0  0  0  0  0
   59.7329   30.4819   46.1946 H   0  0  0  0  0  0  0  0  0  0  0  0
   60.5131   28.8588   48.0832 H   0  0  0  0  0  0  0  0  0  0  0  0
   59.6715   29.5804   50.4761 H   0  0  0  0  0  0  0  0  0  0  0  0
   60.3134   33.8909   44.8075 H   0  0  0  0  0  0  0  0  0  0  0  0
   58.8013   34.8337   44.5444 H   0  0  0  0  0  0  0  0  0  0  0  0
   59.8668   36.0452   46.2552 H   0  0  0  0  0  0  0  0  0  0  0  0
   58.7274   34.9357   47.1615 H   0  0  0  0  0  0  0  0  0  0  0  0
   60.4685   35.2501   49.2984 H   0  0  0  0  0  0  0  0  0  0  0  0
   59.3588   33.8923   48.8026 H   0  0  0  0  0  0  0  0  0  0  0  0
   61.3614   33.5248   50.5559 H   0  0  0  0  0  0  0  0  0  0  0  0
   60.8520   32.2600   49.3760 H   0  0  0  0  0  0  0  0  0  0  0  0
   65.0587   32.1537   48.4805 H   0  0  0  0  0  0  0  0  0  0  0  0
   67.0862   32.4373   49.9090 H   0  0  0  0  0  0  0  0  0  0  0  0
   66.9907   33.8757   51.9468 H   0  0  0  0  0  0  0  0  0  0  0  0
   64.8672   35.0370   52.5586 H   0  0  0  0  0  0  0  0  0  0  0  0
   62.8360   34.7602   51.1387 H   0  0  0  0  0  0  0  0  0  0  0  0
   63.5036   33.8288   47.0642 H   0  0  0  0  0  0  0  0  0  0  0  0
   63.1112   32.0742   47.2365 H   0  0  0  0  0  0  0  0  0  0  0  0
   61.6022   33.5184   45.6711 H   0  0  0  0  0  0  0  0  0  0  0  0
   60.8010   32.4282   46.8489 H   0  0  0  0  0  0  0  0  0  0  0  0
   58.7032   33.6230   42.9368 H   0  0  0  0  0  0  0  0  0  0  0  0
   57.6937   32.3167   41.0639 H   0  0  0  0  0  0  0  0  0  0  0  0
   56.3984   30.2355   41.5463 H   0  0  0  0  0  0  0  0  0  0  0  0
   56.1261   29.4495   43.9003 H   0  0  0  0  0  0  0  0  0  0  0  0
   57.1395   30.7475   45.7780 H   0  0  0  0  0  0  0  0  0  0  0  0
  1  2  2  0
  2  3  1  0
  3  4  2  0
  4  5  1  0
  5  6  2  0
  6  7  1  0
  2  8  1  0
  8  9  1  0
  9 10  1  0
 10 11  1  0
 11 12  1  0
 12 13  1  0
 13 14  1  0
 14 15  1  0
 15 16  2  0
 16 17  1  0
 17 18  2  0
 18 19  1  0
 19 20  2  0
 14 21  1  0
 21 22  1  0
  8 23  1  0
 23 24  2  0
 24 25  1  0
 25 26  2  0
 26 27  1  0
 27 28  2  0
  7  3  1  0
 22 11  1  0
 28 23  1  0
 20 15  1  0
  4 29  1  0
  5 30  1  0
  6 31  1  0
  9 32  1  0
  9 33  1  0
 10 34  1  0
 10 35  1  0
 12 36  1  0
 12 37  1  0
 13 38  1  0
 13 39  1  0
 16 40  1  0
 17 41  1  0
 18 42  1  0
 19 43  1  0
 20 44  1  0
 21 45  1  0
 21 46  1  0
 22 47  1  0
 22 48  1  0
 24 49  1  0
 25 50  1  0
 26 51  1  0
 27 52  1  0
 28 53  1  0
M  END
>  <UniqueID>  (3) 
3

>  <SMILES>  (3) 
O=C(c1cccs1)N(CCN1CCN(c2ccccc2)CC1)c1ccccc1

>  <Energy>  (3) 
103.47498905966114

>  <Genealogy>  (3) 
O=C(c1cccs1)N(CCN1CCN(c2ccccc2)CC1)c1ccccc1 (3D coordinates assigned)
O=C(c1cccs1)N(CCN1CCN(c2ccccc2)CC1)c1ccccc1 (nonaromatic ring conformer: 103.47498905966114 kcal/mol)

>  <smiles>  (3) 
O=C(c1cccs1)N(CCN1CCN(c2ccccc2)CC1)c1ccccc1

>  <score_type>  (3) 
oracle

>  <origin>  (3) 
adg

>  <m_score__min__energy>  (3) 
-8.4100000000000001

>  <m_primary>  (3) 
energy

$$$$
3:0
     RDKit          3D

 51 53  0  0  0  0  0  0  0  0999 V2000
   60.6780   28.7330   44.8820 C   0  0  0  0  0  0  0  0  0  0  0  0
   59.5490   28.0910   45.6270 C   0  0  0  0  0  0  0  0  0  0  0  0
   59.7030   27.5550   46.8580 N   0  0  0  0  0  0  0  0  0  0  0  0
   58.4880   27.0480   47.1540 C   0  0  0  0  0  0  0  0  0  0  0  0
   57.6240   27.2700   46.1040 C   0  0  0  0  0  0  0  0  0  0  0  0
   58.2970   27.9260   45.1420 N   0  0  0  0  0  0  0  0  0  0  0  0
   57.7620   28.3250   43.8360 C   0  0  0  0  0  0  0  0  0  0  0  0
   56.6790   29.4040   43.9780 C   0  0  0  0  0  0  0  0  0  0  0  0
   57.2640   30.8300   43.8580 C   0  0  0  0  0  0  0  0  0  0  0  0
   57.2280   31.6050   45.1170 N   0  0  0  0  0  0  0  0  0  0  0  0
   58.1910   31.1540   46.1500 C   0  0  0  0  0  0  0  0  0  0  0  0
   59.2860   32.1990   46.4080 C   0  0  0  0  0  0  0  0  0  0  0  0
   58.7130   33.4900   46.8580 N   0  0  0  0  0  0  0  0  0  0  0  0
   59.6940   34.5800   46.6720 C   0  0  0  0  0  0  0  0  0  0  0  0
   61.0360   34.1830   47.2300 C   0  0  0  0  0  0  0  0  0  0  0  0
   62.0930   33.8370   46.3750 C   0  0  0  0  0  0  0  0  0  0  0  0
   63.3380   33.4880   46.9030 C   0  0  0  0  0  0  0  0  0  0  0  0
   63.5370   33.4730   48.2870 C   0  0  0  0  0  0  0  0  0  0  0  0
   62.4810   33.7910   49.1600 C   0  0  0  0  0  0  0  0  0  0  0  0
   62.7050   33.8220   50.6510 C   0  0  0  0  0  0  0  0  0  0  0  0
   63.4220   32.7110   51.0590 F   0  0  0  0  0  0  0  0  0  0  0  0
   61.4820   33.8300   51.2950 F   0  0  0  0  0  0  0  0  0  0  0  0
   63.4150   34.9530   51.0170 F   0  0  0  0  0  0  0  0  0  0  0  0
   61.2380   34.1670   48.6210 C   0  0  0  0  0  0  0  0  0  0  0  0
   57.3990   33.8080   46.2350 C   0  0  0  0  0  0  0  0  0  0  0  0
   57.1820   33.0690   44.9090 C   0  0  0  0  0  0  0  0  0  0  0  0
   61.4031   29.1453   45.5992 H   0  0  0  0  0  0  0  0  0  0  0  0
   61.1742   27.9819   44.2498 H   0  0  0  0  0  0  0  0  0  0  0  0
   60.2862   29.5434   44.2498 H   0  0  0  0  0  0  0  0  0  0  0  0
   58.2269   26.5352   48.0915 H   0  0  0  0  0  0  0  0  0  0  0  0
   56.5683   26.9642   46.0602 H   0  0  0  0  0  0  0  0  0  0  0  0
   58.5824   28.7208   43.2193 H   0  0  0  0  0  0  0  0  0  0  0  0
   57.3089   27.4409   43.3637 H   0  0  0  0  0  0  0  0  0  0  0  0
   55.9284   29.2602   43.1869 H   0  0  0  0  0  0  0  0  0  0  0  0
   56.2284   29.3042   44.9765 H   0  0  0  0  0  0  0  0  0  0  0  0
   58.3116   30.7474   43.5329 H   0  0  0  0  0  0  0  0  0  0  0  0
   56.6362   31.3707   43.1345 H   0  0  0  0  0  0  0  0  0  0  0  0
   57.6463   30.9708   47.0880 H   0  0  0  0  0  0  0  0  0  0  0  0
   58.6753   30.2357   45.7864 H   0  0  0  0  0  0  0  0  0  0  0  0
   59.9654   31.8196   47.1855 H   0  0  0  0  0  0  0  0  0  0  0  0
   59.8255   32.3720   45.4651 H   0  0  0  0  0  0  0  0  0  0  0  0
   59.7976   34.7944   45.5981 H   0  0  0  0  0  0  0  0  0  0  0  0
   59.3376   35.4741   47.2046 H   0  0  0  0  0  0  0  0  0  0  0  0
   61.9408   33.8406   45.2856 H   0  0  0  0  0  0  0  0  0  0  0  0
   64.1651   33.2239   46.2276 H   0  0  0  0  0  0  0  0  0  0  0  0
   64.5244   33.2112   48.6951 H   0  0  0  0  0  0  0  0  0  0  0  0
   60.4158   34.4513   49.2942 H   0  0  0  0  0  0  0  0  0  0  0  0
   56.5991   33.5211   46.9334 H   0  0  0  0  0  0  0  0  0  0  0  0
   57.3832   34.8871   46.0220 H   0  0  0  0  0  0  0  0  0  0  0  0
   56.2001   33.3453   44.4973 H   0  0  0  0  0  0  0  0  0  0  0  0
   57.9811   33.3537   44.2087 H   0  0  0  0  0  0  0  0  0  0  0  0
  1  2  1  0
  2  3  2  0
  3  4  1  0
  4  5  2  0
  5  6  1  0
  6  7  1  0
  7  8  1  0
  8  9  1  0
  9 10  1  0
 10 11  1  0
 11 12  1  0
 12 13  1  0
 13 14  1  0
 14 15  1  0
 15 16  2  0
 16 17  1  0
 17 18  2  0
 18 19  1  0
 19 20  1  0
 20 21  1  0
 20 22  1  0
 20 23  1  0
 19 24  2  0
 13 25  1  0
 25 26  1  0
  6  2  1  0
 26 10  1  0
 24 15  1  0
  1 27  1  0
  1 28  1  0
  1 29  1  0
  4 30  1  0
  5 31  1  0
  7 32  1  0
  7 33  1  0
  8 34  1  0
  8 35  1  0
  9 36  1  0
  9 37  1  0
 11 38  1  0
 11 39  1  0
 12 40  1  0
 12 41  1  0
 14 42  1  0
 14 43  1  0
 16 44  1  0
 17 45  1  0
 18 46  1  0
 24 47  1  0
 25 48  1  0
 25 49  1  0
 26 50  1  0
 26 51  1  0
M  END
>  <UniqueID>  (4) 
4

>  <SMILES>  (4) 
Cc1nccn1CCCN1CCN(Cc2cccc(C(F)(F)F)c2)CC1

>  <Energy>  (4) 
91.38559222501551

>  <Genealogy>  (4) 
Cc1nccn1CCCN1CCN(Cc2cccc(C(F)(F)F)c2)CC1 (3D coordinates assigned)
Cc1nccn1CCCN1CCN(Cc2cccc(C(F)(F)F)c2)CC1 (nonaromatic ring conformer: 91.38559222501551 kcal/mol)

>  <smiles>  (4) 
Cc1nccn1CCCN1CCN(Cc2cccc(C(F)(F)F)c2)CC1

>  <score_type>  (4) 
oracle

>  <origin>  (4) 
adg

>  <m_score__min__energy>  (4) 
-7.2000000000000002

>  <m_primary>  (4) 
energy

$$$$
4:0
     RDKit          3D

 47 49  0  0  0  0  0  0  0  0999 V2000
   56.8640   20.7890   43.0410 C   0  0  0  0  0  0  0  0  0  0  0  0
   56.1800   21.9680   43.4520 O   0  0  0  0  0  0  0  0  0  0  0  0
   56.8090   23.1040   43.9850 C   0  0  0  0  0  0  0  0  0  0  0  0
   56.7540   24.3610   43.3580 C   0  0  0  0  0  0  0  0  0  0  0  0
   57.3950   25.4640   43.9310 C   0  0  0  0  0  0  0  0  0  0  0  0
   58.1070   25.3320   45.1380 C   0  0  0  0  0  0  0  0  0  0  0  0
   58.7680   26.4710   45.7340 N   0  0  0  0  0  0  0  0  0  0  0  0
   59.1720   26.4310   47.1470 C   0  0  0  0  0  0  0  0  0  0  0  0
   59.3440   27.8500   47.6950 C   0  0  0  0  0  0  0  0  0  0  0  0
   60.3220   28.6150   46.8910 N   0  0  0  0  0  0  0  0  0  0  0  0
   60.4260   30.0300   47.3100 C   0  0  0  0  0  0  0  0  0  0  0  0
   59.2130   30.5090   48.0780 C   0  0  0  0  0  0  0  0  0  0  0  0
   59.1290   30.2590   49.3100 O   0  0  0  0  0  0  0  0  0  0  0  0
   58.2090   31.3370   47.4750 N   0  0  0  0  0  0  0  0  0  0  0  0
   58.4540   32.4660   46.6250 C   0  0  0  0  0  0  0  0  0  0  0  0
   59.3100   33.5000   47.0370 C   0  0  0  0  0  0  0  0  0  0  0  0
   59.5690   34.5820   46.1930 C   0  0  0  0  0  0  0  0  0  0  0  0
   58.9890   34.6330   44.9240 C   0  0  0  0  0  0  0  0  0  0  0  0
   58.1570   33.5970   44.4920 C   0  0  0  0  0  0  0  0  0  0  0  0
   57.8920   32.5070   45.3350 C   0  0  0  0  0  0  0  0  0  0  0  0
   57.0200   31.4540   44.8760 C   0  0  0  0  0  0  0  0  0  0  0  0
   56.3230   30.6070   44.5090 N   0  0  0  0  0  0  0  0  0  0  0  0
   60.2330   28.4280   45.4210 C   0  0  0  0  0  0  0  0  0  0  0  0
   58.9490   27.7150   44.9730 C   0  0  0  0  0  0  0  0  0  0  0  0
   58.1550   24.0700   45.7590 C   0  0  0  0  0  0  0  0  0  0  0  0
   57.5120   22.9700   45.1860 C   0  0  0  0  0  0  0  0  0  0  0  0
   57.1904   20.2264   43.9281 H   0  0  0  0  0  0  0  0  0  0  0  0
   56.1882   20.1641   42.4387 H   0  0  0  0  0  0  0  0  0  0  0  0
   57.7419   21.0655   42.4387 H   0  0  0  0  0  0  0  0  0  0  0  0
   56.2043   24.4775   42.4124 H   0  0  0  0  0  0  0  0  0  0  0  0
   57.3423   26.4438   43.4338 H   0  0  0  0  0  0  0  0  0  0  0  0
   58.3990   25.9089   47.7300 H   0  0  0  0  0  0  0  0  0  0  0  0
   60.1315   25.8992   47.2281 H   0  0  0  0  0  0  0  0  0  0  0  0
   58.3732   28.3664   47.6668 H   0  0  0  0  0  0  0  0  0  0  0  0
   59.7159   27.7835   48.7281 H   0  0  0  0  0  0  0  0  0  0  0  0
   61.3133   30.1418   47.9505 H   0  0  0  0  0  0  0  0  0  0  0  0
   60.4997   30.6393   46.3972 H   0  0  0  0  0  0  0  0  0  0  0  0
   59.7795   33.4575   48.0308 H   0  0  0  0  0  0  0  0  0  0  0  0
   60.2303   35.3946   46.5282 H   0  0  0  0  0  0  0  0  0  0  0  0
   59.1873   35.4899   44.2635 H   0  0  0  0  0  0  0  0  0  0  0  0
   57.7085   33.6359   43.4883 H   0  0  0  0  0  0  0  0  0  0  0  0
   60.2680   29.4171   44.9410 H   0  0  0  0  0  0  0  0  0  0  0  0
   61.0788   27.7908   45.1232 H   0  0  0  0  0  0  0  0  0  0  0  0
   58.0869   28.3758   45.1464 H   0  0  0  0  0  0  0  0  0  0  0  0
   59.0272   27.4732   43.9028 H   0  0  0  0  0  0  0  0  0  0  0  0
   58.7040   23.9486   46.7045 H   0  0  0  0  0  0  0  0  0  0  0  0
   57.5592   21.9903   45.6839 H   0  0  0  0  0  0  0  0  0  0  0  0
  1  2  1  0
  2  3  1  0
  3  4  2  0
  4  5  1  0
  5  6  2  0
  6  7  1  0
  7  8  1  0
  8  9  1  0
  9 10  1  0
 10 11  1  0
 11 12  1  0
 12 13  2  0
 12 14  1  0
 14 15  1  0
 15 16  2  0
 16 17  1  0
 17 18  2  0
 18 19  1  0
 19 20  2  0
 20 21  1  0
 21 22  3  0
 10 23  1  0
 23 24  1  0
  6 25  1  0
 25 26  2  0
 26  3  1  0
 24  7  1  0
 20 15  1  0
  1 27  1  0
  1 28  1  0
  1 29  1  0
  4 30  1  0
  5 31  1  0
  8 32  1  0
  8 33  1  0
  9 34  1  0
  9 35  1  0
 11 36  1  0
 11 37  1  0
 16 38  1  0
 17 39  1  0
 18 40  1  0
 19 41  1  0
 23 42  1  0
 23 43  1  0
 24 44  1  0
 24 45  1  0
 25 46  1  0
 26 47  1  0
M  CHG  1  14  -1
M  END
>  <UniqueID>  (5) 
5

>  <SMILES>  (5) 
COc1ccc(N2CCN(CC(=O)[N-]c3ccccc3C#N)CC2)cc1

>  <Energy>  (5) 
64.3359299929797

>  <Genealogy>  (5) 
COc1ccc(N2CCN(CC(=O)[N-]c3ccccc3C#N)CC2)cc1 (protonated)
COc1ccc(N2CCN(CC(=O)[N-]c3ccccc3C#N)CC2)cc1 (3D coordinates assigned)
COc1ccc(N2CCN(CC(=O)[N-]c3ccccc3C#N)CC2)cc1 (nonaromatic ring conformer: 64.3359299929797 kcal/mol)

>  <smiles>  (5) 
COc1ccc(N2CCN(CC(=O)Nc3ccccc3C#N)CC2)cc1

>  <score_type>  (5) 
oracle

>  <origin>  (5) 
adg

>  <m_score__min__energy>  (5) 
-9.3399999999999999

>  <m_primary>  (5) 
energy

$$$$
5:0
     RDKit          3D

 35 36  0  0  0  0  0  0  0  0999 V2000
   58.9080   25.6840   45.9820 C   0  0  0  0  0  0  0  0  0  0  0  0
   58.9300   27.1680   45.7620 C   0  0  0  0  0  0  0  0  0  0  0  0
   60.0460   27.9210   46.1480 C   0  0  0  0  0  0  0  0  0  0  0  0
   60.0530   29.3060   45.9780 C   0  0  0  0  0  0  0  0  0  0  0  0
   58.9410   29.9610   45.4190 C   0  0  0  0  0  0  0  0  0  0  0  0
   58.9240   31.3540   45.2560 O   0  0  0  0  0  0  0  0  0  0  0  0
   59.1480   32.3000   46.2700 C   0  0  0  0  0  0  0  0  0  0  0  0
   59.8800   31.9830   47.4260 C   0  0  0  0  0  0  0  0  0  0  0  0
   60.0920   32.9230   48.3860 N   0  0  0  0  0  0  0  0  0  0  0  0
   59.6140   34.1900   48.2570 C   0  0  0  0  0  0  0  0  0  0  0  0
   58.8980   34.5570   47.1170 C   0  0  0  0  0  0  0  0  0  0  0  0
   58.6700   33.6130   46.1070 C   0  0  0  0  0  0  0  0  0  0  0  0
   57.8950   33.9900   44.8770 C   0  0  0  0  0  0  0  0  0  0  0  0
   57.8020   29.2140   45.0650 C   0  0  0  0  0  0  0  0  0  0  0  0
   56.3880   30.0380   44.3980 S   0  0  0  0  0  0  0  0  0  0  0  0
   56.3700   30.0340   42.6160 C   0  0  0  0  0  0  0  0  0  0  0  0
   55.1430   29.3520   44.8860 O   0  0  0  0  0  0  0  0  0  0  0  0
   56.3860   31.4660   44.8670 O   0  0  0  0  0  0  0  0  0  0  0  0
   57.8030   27.8200   45.2400 C   0  0  0  0  0  0  0  0  0  0  0  0
   58.9049   25.4734   47.0616 H   0  0  0  0  0  0  0  0  0  0  0  0
   58.0035   25.2586   45.5228 H   0  0  0  0  0  0  0  0  0  0  0  0
   59.7995   25.2320   45.5228 H   0  0  0  0  0  0  0  0  0  0  0  0
   60.9206   27.4186   46.5870 H   0  0  0  0  0  0  0  0  0  0  0  0
   60.9342   29.8894   46.2832 H   0  0  0  0  0  0  0  0  0  0  0  0
   60.2844   30.9683   47.5558 H   0  0  0  0  0  0  0  0  0  0  0  0
   60.6370   32.6680   49.2400 H   0  0  0  0  0  0  0  0  0  0  0  0
   59.7924   34.9273   49.0536 H   0  0  0  0  0  0  0  0  0  0  0  0
   58.5144   35.5825   47.0117 H   0  0  0  0  0  0  0  0  0  0  0  0
   56.9420   34.4536   45.1718 H   0  0  0  0  0  0  0  0  0  0  0  0
   58.4806   34.7039   44.2791 H   0  0  0  0  0  0  0  0  0  0  0  0
   57.6948   33.0886   44.2791 H   0  0  0  0  0  0  0  0  0  0  0  0
   55.3539   29.8082   42.2601 H   0  0  0  0  0  0  0  0  0  0  0  0
   56.6777   31.0224   42.2440 H   0  0  0  0  0  0  0  0  0  0  0  0
   57.0673   29.2689   42.2440 H   0  0  0  0  0  0  0  0  0  0  0  0
   56.9128   27.2351   44.9654 H   0  0  0  0  0  0  0  0  0  0  0  0
  1  2  1  0
  2  3  2  0
  3  4  1  0
  4  5  2  0
  5  6  1  0
  6  7  1  0
  7  8  2  0
  8  9  1  0
  9 10  2  0
 10 11  1  0
 11 12  2  0
 12 13  1  0
  5 14  1  0
 14 15  1  0
 15 16  1  0
 15 17  2  0
 15 18  2  0
 14 19  2  0
 19  2  1  0
 12  7  1  0
  1 20  1  0
  1 21  1  0
  1 22  1  0
  3 23  1  0
  4 24  1  0
  8 25  1  0
  9 26  1  0
 10 27  1  0
 11 28  1  0
 13 29  1  0
 13 30  1  0
 13 31  1  0
 16 32  1  0
 16 33  1  0
 16 34  1  0
 19 35  1  0
M  CHG  1   9   1
M  END
>  <UniqueID>  (6) 
6

>  <SMILES>  (6) 
Cc1ccc(Oc2c[nH+]ccc2C)c(S(C)(=O)=O)c1

>  <Energy>  (6) 
38.54287951191692

>  <Genealogy>  (6) 
Cc1ccc(Oc2c[nH+]ccc2C)c(S(C)(=O)=O)c1 (protonated)
Cc1ccc(Oc2c[nH+]ccc2C)c(S(C)(=O)=O)c1 (3D coordinates assigned)
Cc1ccc(Oc2c[nH+]ccc2C)c(S(C)(=O)=O)c1 (optimized conformer: 38.54287951191692 kcal/mol)

>  <smiles>  (6) 
Cc1ccc(Oc2cnccc2C)c(S(C)(=O)=O)c1

>  <score_type>  (6) 
oracle

>  <origin>  (6) 
adg

>  <m_score__min__energy>  (6) 
-6.25

>  <m_primary>  (6) 
energy

$$$$
6:0
     RDKit          3D

 56 56  0  0  0  0  0  0  0  0999 V2000
   55.6790   24.0740   44.4820 C   0  0  0  0  0  0  0  0  0  0  0  0
   55.3630   24.5380   45.8990 C   0  0  0  0  0  0  0  0  0  0  0  0
   55.5080   25.9980   45.9820 N   0  0  0  0  0  0  0  0  0  0  0  0
   56.7260   26.4130   46.7040 C   0  0  0  0  0  0  0  0  0  0  0  0
   58.0110   25.7270   46.1930 C   0  0  0  0  0  0  0  0  0  0  0  0
   59.2450   26.6590   46.1860 C   0  0  0  0  0  0  0  0  0  0  0  0
   58.9870   28.0250   46.8490 C   0  0  0  0  0  0  0  0  0  0  0  0
   58.9900   29.1220   45.8630 N   0  0  0  0  0  0  0  0  0  0  0  0
   59.2320   28.6370   44.4910 C   0  0  0  0  0  0  0  0  0  0  0  0
   57.9330   28.1850   43.7910 C   0  0  0  0  0  0  0  0  0  0  0  0
   57.0530   29.3640   43.3340 C   0  0  0  0  0  0  0  0  0  0  0  0
   56.1260   29.9090   44.4360 C   0  0  0  0  0  0  0  0  0  0  0  0
   56.6840   31.1000   45.0950 N   0  0  0  0  0  0  0  0  0  0  0  0
   57.8020   31.7110   44.3570 C   0  0  0  0  0  0  0  0  0  0  0  0
   58.4690   32.8220   45.1390 C   0  0  0  0  0  0  0  0  0  0  0  0
   58.6610   34.0720   44.5280 C   0  0  0  0  0  0  0  0  0  0  0  0
   59.2560   35.1210   45.2290 C   0  0  0  0  0  0  0  0  0  0  0  0
   59.6660   34.9340   46.5490 C   0  0  0  0  0  0  0  0  0  0  0  0
   59.4810   33.6990   47.1730 C   0  0  0  0  0  0  0  0  0  0  0  0
   58.8810   32.6300   46.4770 C   0  0  0  0  0  0  0  0  0  0  0  0
   58.6780   31.3770   47.0820 O   0  0  0  0  0  0  0  0  0  0  0  0
   58.9390   31.0880   48.4510 C   0  0  0  0  0  0  0  0  0  0  0  0
   56.2978   23.1655   44.5231 H   0  0  0  0  0  0  0  0  0  0  0  0
   54.7413   23.8553   43.9501 H   0  0  0  0  0  0  0  0  0  0  0  0
   56.2260   24.8664   43.9501 H   0  0  0  0  0  0  0  0  0  0  0  0
   54.3306   24.2573   46.1548 H   0  0  0  0  0  0  0  0  0  0  0  0
   56.0592   24.0605   46.6042 H   0  0  0  0  0  0  0  0  0  0  0  0
   55.5050   26.3990   45.0180 H   0  0  0  0  0  0  0  0  0  0  0  0
   56.8439   27.5008   46.5907 H   0  0  0  0  0  0  0  0  0  0  0  0
   56.5962   26.1135   47.7545 H   0  0  0  0  0  0  0  0  0  0  0  0
   58.2282   24.8661   46.8423 H   0  0  0  0  0  0  0  0  0  0  0  0
   57.8258   25.4265   45.1512 H   0  0  0  0  0  0  0  0  0  0  0  0
   60.0623   26.1587   46.7261 H   0  0  0  0  0  0  0  0  0  0  0  0
   59.4980   26.8530   45.1332 H   0  0  0  0  0  0  0  0  0  0  0  0
   58.0077   27.9986   47.3492 H   0  0  0  0  0  0  0  0  0  0  0  0
   59.7952   28.2124   47.5713 H   0  0  0  0  0  0  0  0  0  0  0  0
   59.7660   29.7830   46.1010 H   0  0  0  0  0  0  0  0  0  0  0  0
   58.0870   29.6490   45.9030 H   0  0  0  0  0  0  0  0  0  0  0  0
   59.6859   29.4489   43.9039 H   0  0  0  0  0  0  0  0  0  0  0  0
   59.8999   27.7654   44.5555 H   0  0  0  0  0  0  0  0  0  0  0  0
   58.2009   27.5851   42.9087 H   0  0  0  0  0  0  0  0  0  0  0  0
   57.3509   27.6042   44.5216 H   0  0  0  0  0  0  0  0  0  0  0  0
   57.7113   30.1793   42.9996 H   0  0  0  0  0  0  0  0  0  0  0  0
   56.4065   28.9883   42.5272 H   0  0  0  0  0  0  0  0  0  0  0  0
   55.1584   30.1746   43.9852 H   0  0  0  0  0  0  0  0  0  0  0  0
   56.0115   29.1245   45.1985 H   0  0  0  0  0  0  0  0  0  0  0  0
   57.0130   30.8300   46.0510 H   0  0  0  0  0  0  0  0  0  0  0  0
   58.5493   30.9335   44.1400 H   0  0  0  0  0  0  0  0  0  0  0  0
   57.3957   32.1477   43.4327 H   0  0  0  0  0  0  0  0  0  0  0  0
   58.3393   34.2251   43.4873 H   0  0  0  0  0  0  0  0  0  0  0  0
   59.4019   36.0958   44.7407 H   0  0  0  0  0  0  0  0  0  0  0  0
   60.1364   35.7619   47.0998 H   0  0  0  0  0  0  0  0  0  0  0  0
   59.8056   33.5591   48.2147 H   0  0  0  0  0  0  0  0  0  0  0  0
   58.3377   31.7539   49.0874 H   0  0  0  0  0  0  0  0  0  0  0  0
   58.6740   30.0414   48.6618 H   0  0  0  0  0  0  0  0  0  0  0  0
   60.0071   31.2454   48.6618 H   0  0  0  0  0  0  0  0  0  0  0  0
  1  2  1  0
  2  3  1  0
  3  4  1  0
  4  5  1  0
  5  6  1  0
  6  7  1  0
  7  8  1  0
  8  9  1  0
  9 10  1  0
 10 11  1  0
 11 12  1  0
 12 13  1  0
 13 14  1  0
 14 15  1  0
 15 16  2  0
 16 17  1  0
 17 18  2  0
 18 19  1  0
 19 20  2  0
 20 21  1  0
 21 22  1  0
 20 15  1  0
  1 23  1  0
  1 24  1  0
  1 25  1  0
  2 26  1  0
  2 27  1  0
  3 28  1  0
  4 29  1  0
  4 30  1  0
  5 31  1  0
  5 32  1  0
  6 33  1  0
  6 34  1  0
  7 35  1  0
  7 36  1  0
  8 37  1  0
  8 38  1  0
  9 39  1  0
  9 40  1  0
 10 41  1  0
 10 42  1  0
 11 43  1  0
 11 44  1  0
 12 45  1  0
 12 46  1  0
 13 47  1  0
 14 48  1  0
 14 49  1  0
 16 50  1  0
 17 51  1  0
 18 52  1  0
 19 53  1  0
 22 54  1  0
 22 55  1  0
 22 56  1  0
M  CHG  1   8   1
M  END
>  <UniqueID>  (7) 
7

>  <SMILES>  (7) 
CCNCCCC[NH2+]CCCCNCc1ccccc1OC

>  <Energy>  (7) 
47.24564819960148

>  <Genealogy>  (7) 
CCNCCCC[NH2+]CCCCNCc1ccccc1OC (protonated)
CCNCCCC[NH2+]CCCCNCc1ccccc1OC (3D coordinates assigned)
CCNCCCC[NH2+]CCCCNCc1ccccc1OC (optimized conformer: 47.24564819960148 kcal/mol)

>  <smiles>  (7) 
CCNCCCCNCCCCNCc1ccccc1OC

>  <score_type>  (7) 
oracle

>  <origin>  (7) 
adg

>  <m_score__min__energy>  (7) 
-4.04

>  <m_primary>  (7) 
energy

$$$$
7:0
     RDKit          3D

 43 45  0  0  0  0  0  0  0  0999 V2000
   59.3545   34.0754   49.1866 H   0  0  0  0  0  0  0  0  0  0  0  0
   60.0110   33.9240   48.3170 C   0  0  0  0  0  0  0  0  0  0  0  0
   59.4490   33.9450   47.0890 C   0  0  0  0  0  0  0  0  0  0  0  0
   58.3890   32.9590   46.7530 C   0  0  0  0  0  0  0  0  0  0  0  0
   57.7630   32.3760   47.6810 O   0  0  0  0  0  0  0  0  0  0  0  0
   58.0240   32.7210   45.3260 C   0  0  0  0  0  0  0  0  0  0  0  0
   57.3110   31.6530   44.9090 C   0  0  0  0  0  0  0  0  0  0  0  0
   56.2814   31.8353   44.5674 H   0  0  0  0  0  0  0  0  0  0  0  0
   57.8000   30.2610   44.8740 C   0  0  0  0  0  0  0  0  0  0  0  0
   59.1810   30.0180   44.9340 C   0  0  0  0  0  0  0  0  0  0  0  0
   59.8846   30.8624   44.9772 H   0  0  0  0  0  0  0  0  0  0  0  0
   59.6660   28.7060   44.9390 C   0  0  0  0  0  0  0  0  0  0  0  0
   60.7499   28.5208   44.9697 H   0  0  0  0  0  0  0  0  0  0  0  0
   58.7750   27.6310   44.9050 C   0  0  0  0  0  0  0  0  0  0  0  0
   59.1584   26.6000   44.9010 H   0  0  0  0  0  0  0  0  0  0  0  0
   57.3970   27.8630   44.8760 C   0  0  0  0  0  0  0  0  0  0  0  0
   56.6975   27.0143   44.8579 H   0  0  0  0  0  0  0  0  0  0  0  0
   56.9060   29.1730   44.8700 C   0  0  0  0  0  0  0  0  0  0  0  0
   55.5650   29.3790   44.8780 F   0  0  0  0  0  0  0  0  0  0  0  0
   58.5210   33.6890   44.2770 C   0  0  0  0  0  0  0  0  0  0  0  0
   57.7166   33.8636   43.5473 H   0  0  0  0  0  0  0  0  0  0  0  0
   59.4062   33.2430   43.8001 H   0  0  0  0  0  0  0  0  0  0  0  0
   58.9400   35.0320   44.8780 C   0  0  0  0  0  0  0  0  0  0  0  0
   58.0530   35.5302   45.2964 H   0  0  0  0  0  0  0  0  0  0  0  0
   59.3898   35.6445   44.0826 H   0  0  0  0  0  0  0  0  0  0  0  0
   59.9770   34.8420   45.9890 C   0  0  0  0  0  0  0  0  0  0  0  0
   60.2273   35.8240   46.4169 H   0  0  0  0  0  0  0  0  0  0  0  0
   60.8688   34.3678   45.5533 H   0  0  0  0  0  0  0  0  0  0  0  0
   61.4490   33.7110   48.5660 C   0  0  0  0  0  0  0  0  0  0  0  0
   62.0280   34.0870   49.7880 C   0  0  0  0  0  0  0  0  0  0  0  0
   61.4138   34.5747   50.5593 H   0  0  0  0  0  0  0  0  0  0  0  0
   63.3840   33.8430   50.0270 C   0  0  0  0  0  0  0  0  0  0  0  0
   63.8344   34.1542   50.9811 H   0  0  0  0  0  0  0  0  0  0  0  0
   64.1730   33.2060   49.0620 C   0  0  0  0  0  0  0  0  0  0  0  0
   65.5280   32.9860   49.3490 O   0  0  0  0  0  0  0  0  0  0  0  0
   66.0020   32.2040   50.4410 C   0  0  0  0  0  0  0  0  0  0  0  0
   65.7119   32.6827   51.3880 H   0  0  0  0  0  0  0  0  0  0  0  0
   65.5620   31.1971   50.3892 H   0  0  0  0  0  0  0  0  0  0  0  0
   67.0982   32.1283   50.3892 H   0  0  0  0  0  0  0  0  0  0  0  0
   63.5830   32.8060   47.8470 C   0  0  0  0  0  0  0  0  0  0  0  0
   64.1914   32.2997   47.0832 H   0  0  0  0  0  0  0  0  0  0  0  0
   62.2270   33.0500   47.6080 C   0  0  0  0  0  0  0  0  0  0  0  0
   61.7696   32.7212   46.6632 H   0  0  0  0  0  0  0  0  0  0  0  0
  1  2  1  0
  2  3  2  3
  3  4  1  0
  4  5  2  0
  4  6  1  0
  6  7  2  0
  7  8  1  0
  7  9  1  0
  9 10  2  0
 10 11  1  0
 10 12  1  0
 12 13  1  0
 12 14  2  0
 14 15  1  0
 14 16  1  0
 16 17  1  0
 16 18  2  0
 18 19  1  0
  6 20  1  0
 20 21  1  0
 20 22  1  0
 20 23  1  0
 23 24  1  0
 23 25  1  0
 23 26  1  0
 26 27  1  0
 26 28  1  0
  2 29  1  0
 29 30  2  0
 30 31  1  0
 30 32  1  0
 32 33  1  0
 32 34  2  0
 34 35  1  0
 35 36  1  0
 36 37  1  0
 36 38  1  0
 36 39  1  0
 34 40  1  0
 40 41  1  0
 40 42  2  0
 42 43  1  0
 26  3  1  0
 42 29  1  0
 18  9  1  0
M  END
>  <UniqueID>  (8) 
8

>  <SMILES>  (8) 
COc1ccc(C=C2CCC/C(=C/c3ccccc3F)C2=O)cc1

>  <Energy>  (8) 
61.708653794910404

>  <Genealogy>  (8) 
COc1ccc(C=C2CCC/C(=C/c3ccccc3F)C2=O)cc1 (cis-trans isomerization)
COc1ccc(C=C2CCC/C(=C/c3ccccc3F)C2=O)cc1 (3D coordinates assigned)
COc1ccc(C=C2CCC/C(=C/c3ccccc3F)C2=O)cc1 (nonaromatic ring conformer: 61.708653794910404 kcal/mol)

>  <smiles>  (8) 
COc1ccc(C=C2CCCC(=Cc3ccccc3F)C2=O)cc1

>  <score_type>  (8) 
oracle

>  <origin>  (8) 
adg

>  <m_score__min__energy>  (8) 
-8.5800000000000001

>  <m_primary>  (8) 
energy

$$$$
8:0
     RDKit          3D

 47 49  0  0  0  0  0  0  0  0999 V2000
   55.5340   25.2470   45.9400 C   0  0  0  0  0  0  0  0  0  0  0  0
   55.5630   26.6690   46.0070 O   0  0  0  0  0  0  0  0  0  0  0  0
   56.6550   27.4590   45.6190 C   0  0  0  0  0  0  0  0  0  0  0  0
   57.9870   27.0230   45.7550 C   0  0  0  0  0  0  0  0  0  0  0  0
   59.0410   27.8510   45.3590 C   0  0  0  0  0  0  0  0  0  0  0  0
   58.7790   29.1120   44.8190 C   0  0  0  0  0  0  0  0  0  0  0  0
   57.4570   29.5500   44.6580 C   0  0  0  0  0  0  0  0  0  0  0  0
   57.1680   30.8790   44.0880 C   0  0  0  0  0  0  0  0  0  0  0  0
   57.4020   31.0850   42.8680 O   0  0  0  0  0  0  0  0  0  0  0  0
   56.6500   31.9560   44.8820 N   0  0  0  0  0  0  0  0  0  0  0  0
   57.4160   32.7550   45.8390 C   0  0  0  0  0  0  0  0  0  0  0  0
   58.4210   33.6290   45.0800 C   0  0  0  0  0  0  0  0  0  0  0  0
   59.2650   34.4920   46.0470 C   0  0  0  0  0  0  0  0  0  0  0  0
   59.2150   33.9970   47.4430 N   0  0  0  0  0  0  0  0  0  0  0  0
   60.2400   34.6690   48.2660 C   0  0  0  0  0  0  0  0  0  0  0  0
   61.5240   33.8830   48.2470 C   0  0  0  0  0  0  0  0  0  0  0  0
   62.3110   33.8220   47.0850 C   0  0  0  0  0  0  0  0  0  0  0  0
   63.4910   33.0740   47.0730 C   0  0  0  0  0  0  0  0  0  0  0  0
   63.8940   32.3810   48.2190 C   0  0  0  0  0  0  0  0  0  0  0  0
   63.1160   32.4360   49.3780 C   0  0  0  0  0  0  0  0  0  0  0  0
   61.9340   33.1830   49.3940 C   0  0  0  0  0  0  0  0  0  0  0  0
   59.3750   32.5300   47.4760 C   0  0  0  0  0  0  0  0  0  0  0  0
   58.1510   31.8420   46.8450 C   0  0  0  0  0  0  0  0  0  0  0  0
   56.4010   28.7250   45.0770 C   0  0  0  0  0  0  0  0  0  0  0  0
   55.5255   24.8320   46.9587 H   0  0  0  0  0  0  0  0  0  0  0  0
   54.6291   24.9235   45.4048 H   0  0  0  0  0  0  0  0  0  0  0  0
   56.4250   24.8869   45.4048 H   0  0  0  0  0  0  0  0  0  0  0  0
   58.1985   26.0282   46.1740 H   0  0  0  0  0  0  0  0  0  0  0  0
   60.0801   27.5084   45.4730 H   0  0  0  0  0  0  0  0  0  0  0  0
   59.6128   29.7638   44.5190 H   0  0  0  0  0  0  0  0  0  0  0  0
   56.7259   33.3987   46.4042 H   0  0  0  0  0  0  0  0  0  0  0  0
   59.0937   32.9794   44.5008 H   0  0  0  0  0  0  0  0  0  0  0  0
   57.8600   34.3030   44.4160 H   0  0  0  0  0  0  0  0  0  0  0  0
   60.3110   34.4819   45.7067 H   0  0  0  0  0  0  0  0  0  0  0  0
   58.8458   35.5090   46.0386 H   0  0  0  0  0  0  0  0  0  0  0  0
   60.4251   35.6760   47.8639 H   0  0  0  0  0  0  0  0  0  0  0  0
   59.8780   34.7374   49.3025 H   0  0  0  0  0  0  0  0  0  0  0  0
   61.9971   34.3651   46.1814 H   0  0  0  0  0  0  0  0  0  0  0  0
   64.1041   33.0301   46.1607 H   0  0  0  0  0  0  0  0  0  0  0  0
   64.8234   31.7927   48.2078 H   0  0  0  0  0  0  0  0  0  0  0  0
   63.4336   31.8910   50.2792 H   0  0  0  0  0  0  0  0  0  0  0  0
   61.3231   33.2227   50.3079 H   0  0  0  0  0  0  0  0  0  0  0  0
   60.2778   32.2512   46.9128 H   0  0  0  0  0  0  0  0  0  0  0  0
   59.4668   32.2047   48.5228 H   0  0  0  0  0  0  0  0  0  0  0  0
   58.4869   30.9358   46.3196 H   0  0  0  0  0  0  0  0  0  0  0  0
   57.4472   31.6006   47.6552 H   0  0  0  0  0  0  0  0  0  0  0  0
   55.3634   29.0767   44.9785 H   0  0  0  0  0  0  0  0  0  0  0  0
  1  2  1  0
  2  3  1  0
  3  4  2  0
  4  5  1  0
  5  6  2  0
  6  7  1  0
  7  8  1  0
  8  9  2  0
  8 10  1  0
 10 11  1  0
 11 12  1  0
 12 13  1  0
 13 14  1  0
 14 15  1  0
 15 16  1  0
 16 17  2  0
 17 18  1  0
 18 19  2  0
 19 20  1  0
 20 21  2  0
 14 22  1  0
 22 23  1  0
  7 24  2  0
 24  3  1  0
 23 11  1  0
 21 16  1  0
  1 25  1  0
  1 26  1  0
  1 27  1  0
  4 28  1  0
  5 29  1  0
  6 30  1  0
 11 31  1  0
 12 32  1  0
 12 33  1  0
 13 34  1  0
 13 35  1  0
 15 36  1  0
 15 37  1  0
 17 38  1  0
 18 39  1  0
 19 40  1  0
 20 41  1  0
 21 42  1  0
 22 43  1  0
 22 44  1  0
 23 45  1  0
 23 46  1  0
 24 47  1  0
M  CHG  1  10  -1
M  END
>  <UniqueID>  (9) 
9

>  <SMILES>  (9) 
COc1cccc(C(=O)[N-]C2CCN(Cc3ccccc3)CC2)c1

>  <Energy>  (9) 
56.18260974661513

>  <Genealogy>  (9) 
COc1cccc(C(=O)[N-]C2CCN(Cc3ccccc3)CC2)c1 (protonated)
COc1cccc(C(=O)[N-]C2CCN(Cc3ccccc3)CC2)c1 (3D coordinates assigned)
COc1cccc(C(=O)[N-]C2CCN(Cc3ccccc3)CC2)c1 (nonaromatic ring conformer: 56.18260974661513 kcal/mol)

>  <smiles>  (9) 
COc1cccc(C(=O)NC2CCN(Cc3ccccc3)CC2)c1

>  <score_type>  (9) 
oracle

>  <origin>  (9) 
adg

>  <m_score__min__energy>  (9) 
-10.6

>  <m_primary>  (9) 
energy

$$$$
9:0
     RDKit          3D

 47 50  0  0  0  0  0  0  0  0999 V2000
   57.0260   31.5980   51.7240 C   0  0  0  0  0  0  0  0  0  0  0  0
   57.4350   32.8350   52.2290 C   0  0  0  0  0  0  0  0  0  0  0  0
   58.6980   33.3410   51.9090 C   0  0  0  0  0  0  0  0  0  0  0  0
   59.5700   32.6040   51.0890 C   0  0  0  0  0  0  0  0  0  0  0  0
   60.9020   33.1540   50.7490 C   0  0  0  0  0  0  0  0  0  0  0  0
   61.8180   33.2780   51.7500 N   0  0  0  0  0  0  0  0  0  0  0  0
   63.0470   33.8170   51.5490 C   0  0  0  0  0  0  0  0  0  0  0  0
   63.4100   34.2760   50.2850 C   0  0  0  0  0  0  0  0  0  0  0  0
   62.5070   34.1550   49.2300 C   0  0  0  0  0  0  0  0  0  0  0  0
   61.2430   33.5780   49.4380 C   0  0  0  0  0  0  0  0  0  0  0  0
   60.3450   33.3810   48.2760 C   0  0  0  0  0  0  0  0  0  0  0  0
   60.7610   32.6130   47.1750 C   0  0  0  0  0  0  0  0  0  0  0  0
   59.9110   32.4260   46.0820 C   0  0  0  0  0  0  0  0  0  0  0  0
   58.6380   33.0190   46.0630 C   0  0  0  0  0  0  0  0  0  0  0  0
   57.7160   32.8150   44.8800 C   0  0  0  0  0  0  0  0  0  0  0  0
   57.0390   31.4990   44.8600 N   0  0  0  0  0  0  0  0  0  0  0  0
   56.6590   31.0510   43.5100 C   0  0  0  0  0  0  0  0  0  0  0  0
   55.8740   29.7240   43.5970 C   0  0  0  0  0  0  0  0  0  0  0  0
   55.7190   29.2890   44.9370 O   0  0  0  0  0  0  0  0  0  0  0  0
   56.9910   29.1200   45.5370 C   0  0  0  0  0  0  0  0  0  0  0  0
   57.7830   30.4440   45.5710 C   0  0  0  0  0  0  0  0  0  0  0  0
   58.2240   33.7890   47.1630 C   0  0  0  0  0  0  0  0  0  0  0  0
   59.0730   33.9750   48.2550 C   0  0  0  0  0  0  0  0  0  0  0  0
   59.1410   31.3700   50.5660 C   0  0  0  0  0  0  0  0  0  0  0  0
   57.8780   30.8680   50.8900 C   0  0  0  0  0  0  0  0  0  0  0  0
   56.0341   31.1988   51.9825 H   0  0  0  0  0  0  0  0  0  0  0  0
   56.7615   33.4119   52.8798 H   0  0  0  0  0  0  0  0  0  0  0  0
   59.0110   34.3202   52.3005 H   0  0  0  0  0  0  0  0  0  0  0  0
   63.7576   33.8915   52.3854 H   0  0  0  0  0  0  0  0  0  0  0  0
   64.3988   34.7292   50.1211 H   0  0  0  0  0  0  0  0  0  0  0  0
   62.7859   34.5136   48.2282 H   0  0  0  0  0  0  0  0  0  0  0  0
   61.7618   32.1564   47.1737 H   0  0  0  0  0  0  0  0  0  0  0  0
   60.2406   31.8109   45.2317 H   0  0  0  0  0  0  0  0  0  0  0  0
   56.9452   33.5994   44.9037 H   0  0  0  0  0  0  0  0  0  0  0  0
   58.3434   32.8622   43.9777 H   0  0  0  0  0  0  0  0  0  0  0  0
   56.0282   31.8173   43.0357 H   0  0  0  0  0  0  0  0  0  0  0  0
   57.5685   30.8947   42.9114 H   0  0  0  0  0  0  0  0  0  0  0  0
   54.8782   29.8700   43.1530 H   0  0  0  0  0  0  0  0  0  0  0  0
   56.4420   28.9554   43.0524 H   0  0  0  0  0  0  0  0  0  0  0  0
   56.8548   28.7589   46.5671 H   0  0  0  0  0  0  0  0  0  0  0  0
   57.5602   28.3936   44.9383 H   0  0  0  0  0  0  0  0  0  0  0  0
   57.9366   30.7491   46.6166 H   0  0  0  0  0  0  0  0  0  0  0  0
   58.7547   30.2945   45.0775 H   0  0  0  0  0  0  0  0  0  0  0  0
   57.2244   34.2481   47.1635 H   0  0  0  0  0  0  0  0  0  0  0  0
   58.7435   34.5910   49.1047 H   0  0  0  0  0  0  0  0  0  0  0  0
   59.8030   30.7981   49.8991 H   0  0  0  0  0  0  0  0  0  0  0  0
   57.5535   29.8968   50.4882 H   0  0  0  0  0  0  0  0  0  0  0  0
  1  2  2  0
  2  3  1  0
  3  4  2  0
  4  5  1  0
  5  6  2  0
  6  7  1  0
  7  8  2  0
  8  9  1  0
  9 10  2  0
 10 11  1  0
 11 12  2  0
 12 13  1  0
 13 14  2  0
 14 15  1  0
 15 16  1  0
 16 17  1  0
 17 18  1  0
 18 19  1  0
 19 20  1  0
 20 21  1  0
 14 22  1  0
 22 23  2  0
  4 24  1  0
 24 25  2  0
 25  1  1  0
 10  5  1  0
 23 11  1  0
 21 16  1  0
  1 26  1  0
  2 27  1  0
  3 28  1  0
  7 29  1  0
  8 30  1  0
  9 31  1  0
 12 32  1  0
 13 33  1  0
 15 34  1  0
 15 35  1  0
 17 36  1  0
 17 37  1  0
 18 38  1  0
 18 39  1  0
 20 40  1  0
 20 41  1  0
 21 42  1  0
 21 43  1  0
 22 44  1  0
 23 45  1  0
 24 46  1  0
 25 47  1  0
M  END
>  <UniqueID>  (10) 
10

>  <SMILES>  (10) 
c1ccc(-c2ncccc2-c2ccc(CN3CCOCC3)cc2)cc1

>  <Energy>  (10) 
75.00067690614401

>  <Genealogy>  (10) 
c1ccc(-c2ncccc2-c2ccc(CN3CCOCC3)cc2)cc1 (3D coordinates assigned)
c1ccc(-c2ncccc2-c2ccc(CN3CCOCC3)cc2)cc1 (nonaromatic ring conformer: 75.00067690614401 kcal/mol)

>  <smiles>  (10) 
c1ccc(-c2ncccc2-c2ccc(CN3CCOCC3)cc2)cc1

>  <score_type>  (10) 
oracle

>  <origin>  (10) 
adg

>  <m_score__min__energy>  (10) 
-8.3499999999999996

>  <m_primary>  (10) 
energy

$$$$
10:0
     RDKit          3D

 48 50  0  0  0  0  0  0  0  0999 V2000
   59.4580   27.3590   47.0050 C   0  0  0  0  0  0  0  0  0  0  0  0
   58.8300   28.3010   46.0160 C   0  0  0  0  0  0  0  0  0  0  0  0
   58.9610   29.6930   46.0330 C   0  0  0  0  0  0  0  0  0  0  0  0
   59.6700   30.5530   47.0460 C   0  0  0  0  0  0  0  0  0  0  0  0
   58.7560   31.5690   47.5850 N   0  0  0  0  0  0  0  0  0  0  0  0
   59.3790   32.9020   47.6950 C   0  0  0  0  0  0  0  0  0  0  0  0
   58.7440   33.9420   46.7610 C   0  0  0  0  0  0  0  0  0  0  0  0
   57.3940   33.6810   46.6040 F   0  0  0  0  0  0  0  0  0  0  0  0
   58.8900   35.2000   47.3160 F   0  0  0  0  0  0  0  0  0  0  0  0
   59.3590   33.9280   45.5230 F   0  0  0  0  0  0  0  0  0  0  0  0
   58.2370   30.1460   44.9510 C   0  0  0  0  0  0  0  0  0  0  0  0
   58.0230   31.4450   44.4860 C   0  0  0  0  0  0  0  0  0  0  0  0
   57.2270   31.6130   43.3410 C   0  0  0  0  0  0  0  0  0  0  0  0
   56.6660   30.4940   42.6930 C   0  0  0  0  0  0  0  0  0  0  0  0
   56.8930   29.1960   43.1840 C   0  0  0  0  0  0  0  0  0  0  0  0
   57.6890   29.0500   44.3310 C   0  0  0  0  0  0  0  0  0  0  0  0
   58.0170   27.9130   44.9910 N   0  0  0  0  0  0  0  0  0  0  0  0
   57.6190   26.5380   44.6470 C   0  0  0  0  0  0  0  0  0  0  0  0
   56.6380   25.9660   45.6450 C   0  0  0  0  0  0  0  0  0  0  0  0
   55.6770   26.6920   46.0170 O   0  0  0  0  0  0  0  0  0  0  0  0
   56.7940   24.6480   46.2200 N   0  0  0  0  0  0  0  0  0  0  0  0
   56.2750   24.4140   47.5760 C   0  0  0  0  0  0  0  0  0  0  0  0
   56.0840   22.9190   47.8430 C   0  0  0  0  0  0  0  0  0  0  0  0
   57.2480   22.1970   47.5000 O   0  0  0  0  0  0  0  0  0  0  0  0
   57.4370   22.2600   46.1020 C   0  0  0  0  0  0  0  0  0  0  0  0
   57.7560   23.6900   45.6560 C   0  0  0  0  0  0  0  0  0  0  0  0
   59.2327   27.6969   48.0273 H   0  0  0  0  0  0  0  0  0  0  0  0
   59.0531   26.3472   46.8557 H   0  0  0  0  0  0  0  0  0  0  0  0
   60.5477   27.3436   46.8557 H   0  0  0  0  0  0  0  0  0  0  0  0
   60.0332   29.9194   47.8686 H   0  0  0  0  0  0  0  0  0  0  0  0
   60.5155   31.0579   46.5559 H   0  0  0  0  0  0  0  0  0  0  0  0
   57.9040   31.6120   46.9770 H   0  0  0  0  0  0  0  0  0  0  0  0
   59.2745   33.2528   48.7323 H   0  0  0  0  0  0  0  0  0  0  0  0
   60.4336   32.7967   47.4003 H   0  0  0  0  0  0  0  0  0  0  0  0
   58.4646   32.3109   45.0010 H   0  0  0  0  0  0  0  0  0  0  0  0
   57.0404   32.6233   42.9479 H   0  0  0  0  0  0  0  0  0  0  0  0
   56.0456   30.6372   41.7960 H   0  0  0  0  0  0  0  0  0  0  0  0
   56.4585   28.3186   42.6827 H   0  0  0  0  0  0  0  0  0  0  0  0
   57.1511   26.5422   43.6515 H   0  0  0  0  0  0  0  0  0  0  0  0
   58.5218   25.9097   44.6596 H   0  0  0  0  0  0  0  0  0  0  0  0
   56.9873   24.8216   48.3085 H   0  0  0  0  0  0  0  0  0  0  0  0
   55.2987   24.9125   47.6671 H   0  0  0  0  0  0  0  0  0  0  0  0
   55.8671   22.7679   48.9108 H   0  0  0  0  0  0  0  0  0  0  0  0
   55.2481   22.5543   47.2279 H   0  0  0  0  0  0  0  0  0  0  0  0
   58.2719   21.6009   45.8217 H   0  0  0  0  0  0  0  0  0  0  0  0
   56.5089   21.9371   45.6076 H   0  0  0  0  0  0  0  0  0  0  0  0
   58.7680   23.9549   45.9960 H   0  0  0  0  0  0  0  0  0  0  0  0
   57.6920   23.7360   44.5588 H   0  0  0  0  0  0  0  0  0  0  0  0
  1  2  1  0
  2  3  2  0
  3  4  1  0
  4  5  1  0
  5  6  1  0
  6  7  1  0
  7  8  1  0
  7  9  1  0
  7 10  1  0
  3 11  1  0
 11 12  2  0
 12 13  1  0
 13 14  2  0
 14 15  1  0
 15 16  2  0
 16 17  1  0
 17 18  1  0
 18 19  1  0
 19 20  2  0
 19 21  1  0
 21 22  1  0
 22 23  1  0
 23 24  1  0
 24 25  1  0
 25 26  1  0
 17  2  1  0
 26 21  1  0
 16 11  1  0
  1 27  1  0
  1 28  1  0
  1 29  1  0
  4 30  1  0
  4 31  1  0
  5 32  1  0
  6 33  1  0
  6 34  1  0
 12 35  1  0
 13 36  1  0
 14 37  1  0
 15 38  1  0
 18 39  1  0
 18 40  1  0
 22 41  1  0
 22 42  1  0
 23 43  1  0
 23 44  1  0
 25 45  1  0
 25 46  1  0
 26 47  1  0
 26 48  1  0
M  END
>  <UniqueID>  (11) 
11

>  <SMILES>  (11) 
Cc1c(CNCC(F)(F)F)c2ccccc2n1CC(=O)N1CCOCC1

>  <Energy>  (11) 
84.29242586065607

>  <Genealogy>  (11) 
Cc1c(CNCC(F)(F)F)c2ccccc2n1CC(=O)N1CCOCC1 (3D coordinates assigned)
Cc1c(CNCC(F)(F)F)c2ccccc2n1CC(=O)N1CCOCC1 (nonaromatic ring conformer: 84.29242586065607 kcal/mol)

>  <smiles>  (11) 
Cc1c(CNCC(F)(F)F)c2ccccc2n1CC(=O)N1CCOCC1

>  <score_type>  (11) 
oracle

>  <origin>  (11) 
adg

>  <m_score__min__energy>  (11) 
-7.0599999999999996

>  <m_primary>  (11) 
energy

$$$$
11:0
     RDKit          3D

 62 65  0  0  0  0  0  0  0  0999 V2000
   60.3780   33.4880   50.2570 C   0  0  0  0  0  0  0  0  0  0  0  0
   61.8580   33.3320   50.0210 C   0  0  0  0  0  0  0  0  0  0  0  0
   62.7560   34.1060   50.7770 C   0  0  0  0  0  0  0  0  0  0  0  0
   64.1350   33.9870   50.5810 C   0  0  0  0  0  0  0  0  0  0  0  0
   64.6310   33.1040   49.6220 C   0  0  0  0  0  0  0  0  0  0  0  0
   63.7540   32.3380   48.8540 C   0  0  0  0  0  0  0  0  0  0  0  0
   62.3660   32.4420   49.0430 C   0  0  0  0  0  0  0  0  0  0  0  0
   61.4710   31.5990   48.2230 C   0  0  0  0  0  0  0  0  0  0  0  0
   61.1970   30.2680   48.4490 C   0  0  0  0  0  0  0  0  0  0  0  0
   60.4280   29.8850   47.3590 C   0  0  0  0  0  0  0  0  0  0  0  0
   59.9770   28.4870   46.9990 C   0  0  1  0  0  0  0  0  0  0  0  0
   58.4490   28.3660   47.1200 C   0  0  0  0  0  0  0  0  0  0  0  0
   57.7050   29.0280   45.9400 C   0  0  0  0  0  0  0  0  0  0  0  0
   58.3760   28.8680   44.6150 N   0  0  2  0  0  0  0  0  0  0  0  0
   57.3900   28.6810   43.5190 C   0  0  0  0  0  0  0  0  0  0  0  0
   56.2810   29.7510   43.5100 C   0  0  0  0  0  0  0  0  0  0  0  0
   56.7630   30.9040   44.1030 F   0  0  0  0  0  0  0  0  0  0  0  0
   55.8930   30.0550   42.2180 F   0  0  0  0  0  0  0  0  0  0  0  0
   55.1800   29.3150   44.2250 F   0  0  0  0  0  0  0  0  0  0  0  0
   59.3510   27.7530   44.6080 C   0  0  0  0  0  0  0  0  0  0  0  0
   60.4880   27.9990   45.6180 C   0  0  0  0  0  0  0  0  0  0  0  0
   60.2770   30.9340   46.5230 N   0  0  0  0  0  0  0  0  0  0  0  0
   60.8910   31.9750   47.0630 N   0  0  0  0  0  0  0  0  0  0  0  0
   61.0620   33.2500   46.3690 C   0  0  0  0  0  0  0  0  0  0  0  0
   60.2800   34.3540   47.0930 C   0  0  0  0  0  0  0  0  0  0  0  0
   59.1180   34.7880   46.2870 N   0  0  0  0  0  0  0  0  0  0  0  0
   57.8830   34.1350   46.7450 C   0  0  0  0  0  0  0  0  0  0  0  0
   57.7450   32.8260   45.9870 C   0  0  0  0  0  0  0  0  0  0  0  0
   58.5740   33.0080   44.7310 C   0  0  0  0  0  0  0  0  0  0  0  0
   59.2560   34.3620   44.8840 C   0  0  0  0  0  0  0  0  0  0  0  0
   60.1794   33.5089   51.3387 H   0  0  0  0  0  0  0  0  0  0  0  0
   60.0312   34.4277   49.8023 H   0  0  0  0  0  0  0  0  0  0  0  0
   59.8429   32.6413   49.8023 H   0  0  0  0  0  0  0  0  0  0  0  0
   62.3704   34.8107   51.5285 H   0  0  0  0  0  0  0  0  0  0  0  0
   64.8297   34.5904   51.1838 H   0  0  0  0  0  0  0  0  0  0  0  0
   65.7166   33.0114   49.4709 H   0  0  0  0  0  0  0  0  0  0  0  0
   64.1520   31.6480   48.0954 H   0  0  0  0  0  0  0  0  0  0  0  0
   61.5156   29.6489   49.3006 H   0  0  0  0  0  0  0  0  0  0  0  0
   60.4437   27.8102   47.7299 H   0  0  0  0  0  0  0  0  0  0  0  0
   58.1302   28.8514   48.0542 H   0  0  0  0  0  0  0  0  0  0  0  0
   58.1983   27.2950   47.1128 H   0  0  0  0  0  0  0  0  0  0  0  0
   57.6145   30.1037   46.1513 H   0  0  0  0  0  0  0  0  0  0  0  0
   56.7320   28.5212   45.8605 H   0  0  0  0  0  0  0  0  0  0  0  0
   58.9140   29.7390   44.4050 H   0  0  0  0  0  0  0  0  0  0  0  0
   57.9236   28.7227   42.5580 H   0  0  0  0  0  0  0  0  0  0  0  0
   56.9034   27.7077   43.6800 H   0  0  0  0  0  0  0  0  0  0  0  0
   59.7810   27.6590   43.5999 H   0  0  0  0  0  0  0  0  0  0  0  0
   58.8256   26.8298   44.8939 H   0  0  0  0  0  0  0  0  0  0  0  0
   61.1647   28.7617   45.2051 H   0  0  0  0  0  0  0  0  0  0  0  0
   61.0001   27.0386   45.7773 H   0  0  0  0  0  0  0  0  0  0  0  0
   62.1298   33.5134   46.3499 H   0  0  0  0  0  0  0  0  0  0  0  0
   60.6814   33.1542   45.3414 H   0  0  0  0  0  0  0  0  0  0  0  0
   59.9247   33.9695   48.0604 H   0  0  0  0  0  0  0  0  0  0  0  0
   60.9457   35.2163   47.2455 H   0  0  0  0  0  0  0  0  0  0  0  0
   57.9419   33.9379   47.8256 H   0  0  0  0  0  0  0  0  0  0  0  0
   57.0130   34.7819   46.5588 H   0  0  0  0  0  0  0  0  0  0  0  0
   58.1320   31.9894   46.5873 H   0  0  0  0  0  0  0  0  0  0  0  0
   56.6951   32.5912   45.7576 H   0  0  0  0  0  0  0  0  0  0  0  0
   59.3238   32.2076   44.6463 H   0  0  0  0  0  0  0  0  0  0  0  0
   57.9538   32.9644   43.8236 H   0  0  0  0  0  0  0  0  0  0  0  0
   60.3212   34.2744   44.6240 H   0  0  0  0  0  0  0  0  0  0  0  0
   58.7914   35.1005   44.2141 H   0  0  0  0  0  0  0  0  0  0  0  0
  1  2  1  0
  2  3  2  0
  3  4  1  0
  4  5  2  0
  5  6  1  0
  6  7  2  0
  7  8  1  0
  8  9  2  0
  9 10  1  0
 10 11  1  0
 11 12  1  0
 12 13  1  0
 13 14  1  0
 14 15  1  0
 15 16  1  0
 16 17  1  0
 16 18  1  0
 16 19  1  0
 14 20  1  0
 20 21  1  0
 10 22  2  0
 22 23  1  0
 23 24  1  0
 24 25  1  0
 25 26  1  0
 26 27  1  0
 27 28  1  0
 28 29  1  0
 29 30  1  0
  7  2  1  0
 23  8  1  0
 30 26  1  0
 21 11  1  0
  1 31  1  0
  1 32  1  0
  1 33  1  0
  3 34  1  0
  4 35  1  0
  5 36  1  0
  6 37  1  0
  9 38  1  0
 11 39  1  1
 12 40  1  0
 12 41  1  0
 13 42  1  0
 13 43  1  0
 14 44  1  6
 15 45  1  0
 15 46  1  0
 20 47  1  0
 20 48  1  0
 21 49  1  0
 21 50  1  0
 24 51  1  0
 24 52  1  0
 25 53  1  0
 25 54  1  0
 27 55  1  0
 27 56  1  0
 28 57  1  0
 28 58  1  0
 29 59  1  0
 29 60  1  0
 30 61  1  0
 30 62  1  0
M  CHG  1  14   1
M  END
>  <UniqueID>  (12) 
12

>  <SMILES>  (12) 
Cc1ccccc1-c1cc(C2CC[NH+](CC(F)(F)F)CC2)nn1CCN1CCCC1

>  <Energy>  (12) 
107.19036751935668

>  <Genealogy>  (12) 
Cc1ccccc1-c1cc(C2CC[NH+](CC(F)(F)F)CC2)nn1CCN1CCCC1 (protonated)
Cc1ccccc1-c1cc(C2CC[NH+](CC(F)(F)F)CC2)nn1CCN1CCCC1 (3D coordinates assigned)
Cc1ccccc1-c1cc(C2CC[NH+](CC(F)(F)F)CC2)nn1CCN1CCCC1 (nonaromatic ring conformer: 107.19036751935668 kcal/mol)

>  <smiles>  (12) 
Cc1ccccc1-c1cc(C2CCN(CC(F)(F)F)CC2)nn1CCN1CCCC1

>  <score_type>  (12) 
oracle

>  <origin>  (12) 
adg

>  <m_score__min__energy>  (12) 
-7.0999999999999996

>  <m_primary>  (12) 
energy

$$$$
12:0
     RDKit          3D

 52 54  0  0  0  0  0  0  0  0999 V2000
   57.0510   30.8300   43.4660 C   0  0  0  0  0  0  0  0  0  0  0  0
   56.9670   30.8130   44.8870 O   0  0  0  0  0  0  0  0  0  0  0  0
   57.7940   30.0460   45.7200 C   0  0  0  0  0  0  0  0  0  0  0  0
   57.5920   28.6620   45.7630 C   0  0  0  0  0  0  0  0  0  0  0  0
   58.3930   27.8530   46.5730 C   0  0  0  0  0  0  0  0  0  0  0  0
   59.4050   28.4210   47.3490 C   0  0  0  0  0  0  0  0  0  0  0  0
   59.6210   29.8070   47.3230 C   0  0  0  0  0  0  0  0  0  0  0  0
   60.7380   30.4210   48.1310 C   0  0  0  0  0  0  0  0  0  0  0  0
   60.3470   30.6630   49.5320 N   0  0  0  0  0  0  0  0  0  0  0  0
   58.9110   31.0400   49.6680 C   0  0  1  0  0  0  0  0  0  0  0  0
   58.1520   30.0040   50.5030 C   0  0  0  0  0  0  0  0  0  0  0  0
   58.2150   30.3750   51.8660 O   0  0  0  0  0  0  0  0  0  0  0  0
   58.6800   31.7060   51.9230 C   0  0  0  0  0  0  0  0  0  0  0  0
   58.6600   32.2780   50.5190 C   0  0  1  0  0  0  0  0  0  0  0  0
   59.5710   33.5130   50.3300 C   0  0  0  0  0  0  0  0  0  0  0  0
   60.0670   33.6310   48.9080 C   0  0  0  0  0  0  0  0  0  0  0  0
   61.4370   33.5110   48.6290 C   0  0  0  0  0  0  0  0  0  0  0  0
   61.9170   33.6530   47.3170 C   0  0  0  0  0  0  0  0  0  0  0  0
   63.3850   33.4660   47.0190 C   0  0  0  0  0  0  0  0  0  0  0  0
   64.1570   33.8820   48.0900 F   0  0  0  0  0  0  0  0  0  0  0  0
   63.6340   32.1280   46.7760 F   0  0  0  0  0  0  0  0  0  0  0  0
   63.7550   34.2040   45.9080 F   0  0  0  0  0  0  0  0  0  0  0  0
   61.0030   33.8730   46.2730 C   0  0  0  0  0  0  0  0  0  0  0  0
   59.6300   34.0130   46.5380 C   0  0  0  0  0  0  0  0  0  0  0  0
   58.6510   34.2200   45.4090 C   0  0  0  0  0  0  0  0  0  0  0  0
   58.9160   35.4270   44.7900 F   0  0  0  0  0  0  0  0  0  0  0  0
   58.7610   33.2010   44.4790 F   0  0  0  0  0  0  0  0  0  0  0  0
   57.3500   34.2320   45.8840 F   0  0  0  0  0  0  0  0  0  0  0  0
   59.1690   33.8630   47.8550 C   0  0  0  0  0  0  0  0  0  0  0  0
   58.8150   30.6170   46.5060 C   0  0  0  0  0  0  0  0  0  0  0  0
   58.0873   31.0397   43.1624 H   0  0  0  0  0  0  0  0  0  0  0  0
   56.7435   29.8514   43.0688 H   0  0  0  0  0  0  0  0  0  0  0  0
   56.3872   31.6120   43.0688 H   0  0  0  0  0  0  0  0  0  0  0  0
   56.7964   28.2074   45.1544 H   0  0  0  0  0  0  0  0  0  0  0  0
   58.2258   26.7661   46.5993 H   0  0  0  0  0  0  0  0  0  0  0  0
   60.0351   27.7798   47.9829 H   0  0  0  0  0  0  0  0  0  0  0  0
   61.6009   29.7390   48.1172 H   0  0  0  0  0  0  0  0  0  0  0  0
   60.9866   31.3922   47.6782 H   0  0  0  0  0  0  0  0  0  0  0  0
   60.5830   29.8240   50.1130 H   0  0  0  0  0  0  0  0  0  0  0  0
   60.9710   31.4220   49.8710 H   0  0  0  0  0  0  0  0  0  0  0  0
   58.5976   31.1604   48.6205 H   0  0  0  0  0  0  0  0  0  0  0  0
   57.1014   29.9674   50.1790 H   0  0  0  0  0  0  0  0  0  0  0  0
   58.6069   29.0118   50.3667 H   0  0  0  0  0  0  0  0  0  0  0  0
   58.0251   32.3011   52.5764 H   0  0  0  0  0  0  0  0  0  0  0  0
   59.7021   31.7332   52.3287 H   0  0  0  0  0  0  0  0  0  0  0  0
   57.7176   32.7588   50.2180 H   0  0  0  0  0  0  0  0  0  0  0  0
   59.0008   34.4185   50.5846 H   0  0  0  0  0  0  0  0  0  0  0  0
   60.4445   33.3980   50.9887 H   0  0  0  0  0  0  0  0  0  0  0  0
   62.1426   33.3034   49.4469 H   0  0  0  0  0  0  0  0  0  0  0  0
   61.3661   33.9364   45.2366 H   0  0  0  0  0  0  0  0  0  0  0  0
   58.0911   33.9281   48.0643 H   0  0  0  0  0  0  0  0  0  0  0  0
   58.9818   31.7040   46.4795 H   0  0  0  0  0  0  0  0  0  0  0  0
  1  2  1  0
  2  3  1  0
  3  4  2  0
  4  5  1  0
  5  6  2  0
  6  7  1  0
  7  8  1  0
  8  9  1  0
  9 10  1  0
 10 11  1  0
 11 12  1  0
 12 13  1  0
 13 14  1  0
 14 15  1  0
 15 16  1  0
 16 17  2  0
 17 18  1  0
 18 19  1  0
 19 20  1  0
 19 21  1  0
 19 22  1  0
 18 23  2  0
 23 24  1  0
 24 25  1  0
 25 26  1  0
 25 27  1  0
 25 28  1  0
 24 29  2  0
  7 30  2  0
 30  3  1  0
 14 10  1  0
 29 16  1  0
  1 31  1  0
  1 32  1  0
  1 33  1  0
  4 34  1  0
  5 35  1  0
  6 36  1  0
  8 37  1  0
  8 38  1  0
  9 39  1  0
  9 40  1  0
 10 41  1  6
 11 42  1  0
 11 43  1  0
 13 44  1  0
 13 45  1  0
 14 46  1  6
 15 47  1  0
 15 48  1  0
 17 49  1  0
 23 50  1  0
 29 51  1  0
 30 52  1  0
M  CHG  1   9   1
M  END
>  <UniqueID>  (13) 
13

>  <SMILES>  (13) 
COc1cccc(C[NH2+][C@H]2COC[C@H]2Cc2cc(C(F)(F)F)cc(C(F)(F)F)c2)c1

>  <Energy>  (13) 
59.55671316170162

>  <Genealogy>  (13) 
COc1cccc(C[NH2+]C2COCC2Cc2cc(C(F)(F)F)cc(C(F)(F)F)c2)c1 (protonated)
COc1cccc(C[NH2+][C@H]2COC[C@H]2Cc2cc(C(F)(F)F)cc(C(F)(F)F)c2)c1 (chirality)
COc1cccc(C[NH2+][C@H]2COC[C@H]2Cc2cc(C(F)(F)F)cc(C(F)(F)F)c2)c1 (3D coordinates assigned)
COc1cccc(C[NH2+][C@H]2COC[C@H]2Cc2cc(C(F)(F)F)cc(C(F)(F)F)c2)c1 (nonaromatic ring conformer: 59.55671316170162 kcal/mol)

>  <smiles>  (13) 
COc1cccc(CNC2COCC2Cc2cc(C(F)(F)F)cc(C(F)(F)F)c2)c1

>  <score_type>  (13) 
oracle

>  <origin>  (13) 
adg

>  <m_score__min__energy>  (13) 
-5.5800000000000001

>  <m_primary>  (13) 
energy

$$$$
13:0
     RDKit          3D

 38 40  0  0  0  0  0  0  0  0999 V2000
   57.3920   32.3550   40.7380 C   0  0  0  0  0  0  0  0  0  0  0  0
   57.0200   31.6130   42.0170 C   0  0  0  0  0  0  0  0  0  0  0  0
   57.8890   32.0180   43.1190 N   0  0  0  0  0  0  0  0  0  0  0  0
   57.6180   31.6650   44.4870 C   0  0  0  0  0  0  0  0  0  0  0  0
   56.6340   30.9210   44.7550 O   0  0  0  0  0  0  0  0  0  0  0  0
   58.4580   32.1420   45.5560 N   0  0  0  0  0  0  0  0  0  0  0  0
   58.7850   31.2350   46.6680 C   0  0  0  0  0  0  0  0  0  0  0  0
   58.9140   32.0160   47.9770 C   0  0  0  0  0  0  0  0  0  0  0  0
   59.7980   33.1650   47.7660 N   0  0  0  0  0  0  0  0  0  0  0  0
   61.1000   33.2300   48.3880 C   0  0  0  0  0  0  0  0  0  0  0  0
   61.3270   33.8710   49.5620 N   0  0  0  0  0  0  0  0  0  0  0  0
   62.6320   33.7850   49.9270 C   0  0  0  0  0  0  0  0  0  0  0  0
   63.1660   34.3440   51.0890 C   0  0  0  0  0  0  0  0  0  0  0  0
   64.5370   34.1790   51.3490 C   0  0  0  0  0  0  0  0  0  0  0  0
   65.3540   33.4640   50.4510 C   0  0  0  0  0  0  0  0  0  0  0  0
   64.8070   32.9080   49.2830 C   0  0  0  0  0  0  0  0  0  0  0  0
   63.4450   33.0840   49.0500 C   0  0  0  0  0  0  0  0  0  0  0  0
   62.5200   32.5390   47.7610 S   0  0  0  0  0  0  0  0  0  0  0  0
   59.3800   34.1110   46.7270 C   0  0  0  0  0  0  0  0  0  0  0  0
   59.2470   33.3740   45.3920 C   0  0  0  0  0  0  0  0  0  0  0  0
   57.8713   33.3111   40.9950 H   0  0  0  0  0  0  0  0  0  0  0  0
   58.0894   31.7421   40.1481 H   0  0  0  0  0  0  0  0  0  0  0  0
   56.4836   32.5471   40.1481 H   0  0  0  0  0  0  0  0  0  0  0  0
   55.9761   31.8423   42.2771 H   0  0  0  0  0  0  0  0  0  0  0  0
   57.1423   30.5329   41.8481 H   0  0  0  0  0  0  0  0  0  0  0  0
   58.7360   32.5830   42.8860 H   0  0  0  0  0  0  0  0  0  0  0  0
   57.9861   30.4858   46.7708 H   0  0  0  0  0  0  0  0  0  0  0  0
   59.7438   30.7404   46.4532 H   0  0  0  0  0  0  0  0  0  0  0  0
   57.9216   32.3685   48.2947 H   0  0  0  0  0  0  0  0  0  0  0  0
   59.3343   31.3641   48.7570 H   0  0  0  0  0  0  0  0  0  0  0  0
   62.5261   34.9029   51.7877 H   0  0  0  0  0  0  0  0  0  0  0  0
   64.9757   34.6113   52.2604 H   0  0  0  0  0  0  0  0  0  0  0  0
   66.4257   33.3406   50.6658 H   0  0  0  0  0  0  0  0  0  0  0  0
   65.4355   32.3501   48.5733 H   0  0  0  0  0  0  0  0  0  0  0  0
   58.4102   34.5520   47.0009 H   0  0  0  0  0  0  0  0  0  0  0  0
   60.1313   34.9090   46.6329 H   0  0  0  0  0  0  0  0  0  0  0  0
   58.7457   34.0302   44.6653 H   0  0  0  0  0  0  0  0  0  0  0  0
   60.2518   33.1062   45.0334 H   0  0  0  0  0  0  0  0  0  0  0  0
  1  2  1  0
  2  3  1  0
  3  4  1  0
  4  5  2  0
  4  6  1  0
  6  7  1  0
  7  8  1  0
  8  9  1  0
  9 10  1  0
 10 11  2  0
 11 12  1  0
 12 13  2  0
 13 14  1  0
 14 15  2  0
 15 16  1  0
 16 17  2  0
 17 18  1  0
  9 19  1  0
 19 20  1  0
 20  6  1  0
 18 10  1  0
 17 12  1  0
  1 21  1  0
  1 22  1  0
  1 23  1  0
  2 24  1  0
  2 25  1  0
  3 26  1  0
  7 27  1  0
  7 28  1  0
  8 29  1  0
  8 30  1  0
 13 31  1  0
 14 32  1  0
 15 33  1  0
 16 34  1  0
 19 35  1  0
 19 36  1  0
 20 37  1  0
 20 38  1  0
M  END
>  <UniqueID>  (14) 
14

>  <SMILES>  (14) 
CCNC(=O)N1CCN(c2nc3ccccc3s2)CC1

>  <Energy>  (14) 
71.4489463572598

>  <Genealogy>  (14) 
CCNC(=O)N1CCN(c2nc3ccccc3s2)CC1 (3D coordinates assigned)
CCNC(=O)N1CCN(c2nc3ccccc3s2)CC1 (nonaromatic ring conformer: 71.4489463572598 kcal/mol)

>  <smiles>  (14) 
CCNC(=O)N1CCN(c2nc3ccccc3s2)CC1

>  <score_type>  (14) 
oracle

>  <origin>  (14) 
adg

>  <m_score__min__energy>  (14) 
-6.6299999999999999

>  <m_primary>  (14) 
energy

$$$$
14:0
     RDKit          3D

 50 54  0  0  0  0  0  0  0  0999 V2000
   63.5854   33.7729   50.5417 H   0  0  0  0  0  0  0  0  0  0  0  0
   62.6350   33.5870   50.0200 C   0  0  0  0  0  0  0  0  0  0  0  0
   62.3990   34.1780   48.7580 C   0  0  0  0  0  0  0  0  0  0  0  0
   63.1674   34.8202   48.3029 H   0  0  0  0  0  0  0  0  0  0  0  0
   61.1870   33.9500   48.0800 C   0  0  0  0  0  0  0  0  0  0  0  0
   60.9937   34.3969   47.0936 H   0  0  0  0  0  0  0  0  0  0  0  0
   60.2390   33.1370   48.7030 C   0  0  0  0  0  0  0  0  0  0  0  0
   60.4680   32.5650   49.9210 C   0  0  0  0  0  0  0  0  0  0  0  0
   59.4060   31.8350   50.3070 N   0  0  0  0  0  0  0  0  0  0  0  0
   58.5350   31.9890   49.2760 C   0  0  0  0  0  0  0  0  0  0  0  0
   57.5398   31.5212   49.2494 H   0  0  0  0  0  0  0  0  0  0  0  0
   59.0160   32.7780   48.2820 N   0  0  0  0  0  0  0  0  0  0  0  0
   58.3250   33.1610   47.0510 C   0  0  0  0  0  0  0  0  0  0  0  0
   58.8859   33.9679   46.5568 H   0  0  0  0  0  0  0  0  0  0  0  0
   57.3110   33.5045   47.3037 H   0  0  0  0  0  0  0  0  0  0  0  0
   58.2230   31.9880   46.1200 C   0  0  0  0  0  0  0  0  0  0  0  0
   57.0680   31.6030   45.5430 N   0  0  0  0  0  0  0  0  0  0  0  0
   57.3140   30.4720   44.8960 N   0  0  0  0  0  0  0  0  0  0  0  0
   58.6160   30.1870   45.0900 C   0  0  0  0  0  0  0  0  0  0  0  0
   59.3820   28.6740   44.5060 S   0  0  0  0  0  0  0  0  0  0  0  0
   59.7720   28.0850   46.1930 C   0  0  0  0  0  0  0  0  0  0  0  0
   60.7149   28.5470   46.5210 H   0  0  0  0  0  0  0  0  0  0  0  0
   59.8560   26.9888   46.1584 H   0  0  0  0  0  0  0  0  0  0  0  0
   58.6890   28.4370   47.1800 C   0  0  0  0  0  0  0  0  0  0  0  0
   58.9170   29.2860   48.0830 O   0  0  0  0  0  0  0  0  0  0  0  0
   57.3910   27.8220   47.1290 N   0  0  0  0  0  0  0  0  0  0  0  0
   57.0470   26.7910   46.4140 C   0  0  0  0  0  0  0  0  0  0  0  0
   55.7800   26.3210   46.3150 N   0  0  0  0  0  0  0  0  0  0  0  0
   55.7360   25.2170   45.5280 C   0  0  0  0  0  0  0  0  0  0  0  0
   54.5750   24.5050   45.2380 C   0  0  0  0  0  0  0  0  0  0  0  0
   53.6066   24.8190   45.6547 H   0  0  0  0  0  0  0  0  0  0  0  0
   54.6630   23.3790   44.4040 C   0  0  0  0  0  0  0  0  0  0  0  0
   53.7534   22.8083   44.1656 H   0  0  0  0  0  0  0  0  0  0  0  0
   55.9030   22.9690   43.8670 C   0  0  0  0  0  0  0  0  0  0  0  0
   55.9260   21.8390   43.0390 O   0  0  0  0  0  0  0  0  0  0  0  0
   57.0280   20.9440   42.9350 C   0  0  0  0  0  0  0  0  0  0  0  0
   57.3707   20.6657   43.9425 H   0  0  0  0  0  0  0  0  0  0  0  0
   56.7162   20.0402   42.3911 H   0  0  0  0  0  0  0  0  0  0  0  0
   57.8487   21.4345   42.3911 H   0  0  0  0  0  0  0  0  0  0  0  0
   57.0700   23.7030   44.1780 C   0  0  0  0  0  0  0  0  0  0  0  0
   58.0477   23.4033   43.7727 H   0  0  0  0  0  0  0  0  0  0  0  0
   56.9540   24.8140   45.0090 C   0  0  0  0  0  0  0  0  0  0  0  0
   58.1570   25.8550   45.5470 S   0  0  0  0  0  0  0  0  0  0  0  0
   59.2240   31.1270   45.8380 N   0  0  0  0  0  0  0  0  0  0  0  0
   60.5820   31.1030   46.3760 C   0  0  0  0  0  0  0  0  0  0  0  0
   60.5410   31.1037   47.4752 H   0  0  0  0  0  0  0  0  0  0  0  0
   61.0979   30.1956   46.0289 H   0  0  0  0  0  0  0  0  0  0  0  0
   61.1297   31.9916   46.0289 H   0  0  0  0  0  0  0  0  0  0  0  0
   61.6610   32.7620   50.6130 C   0  0  0  0  0  0  0  0  0  0  0  0
   61.8359   32.2885   51.5903 H   0  0  0  0  0  0  0  0  0  0  0  0
  1  2  1  0
  2  3  2  0
  3  4  1  0
  3  5  1  0
  5  6  1  0
  5  7  2  0
  7  8  1  0
  8  9  1  0
  9 10  2  0
 10 11  1  0
 10 12  1  0
 12 13  1  0
 13 14  1  0
 13 15  1  0
 13 16  1  0
 16 17  2  0
 17 18  1  0
 18 19  2  0
 19 20  1  0
 20 21  1  0
 21 22  1  0
 21 23  1  0
 21 24  1  0
 24 25  2  0
 24 26  1  0
 26 27  2  0
 27 28  1  0
 28 29  1  0
 29 30  2  0
 30 31  1  0
 30 32  1  0
 32 33  1  0
 32 34  2  0
 34 35  1  0
 35 36  1  0
 36 37  1  0
 36 38  1  0
 36 39  1  0
 34 40  1  0
 40 41  1  0
 40 42  2  0
 42 43  1  0
 19 44  1  0
 44 45  1  0
 45 46  1  0
 45 47  1  0
 45 48  1  0
  8 49  2  0
 49 50  1  0
 49  2  1  0
 12  7  1  0
 44 16  1  0
 43 27  1  0
 42 29  1  0
M  CHG  1  28  -1
M  END
>  <UniqueID>  (15) 
15

>  <SMILES>  (15) 
COc1ccc2[n-]/c(=N\C(=O)CSc3nnc(Cn4cnc5ccccc54)n3C)sc2c1

>  <Energy>  (15) 
157.2888618609406

>  <Genealogy>  (15) 
COc1ccc2[n-]c(=NC(=O)CSc3nnc(Cn4cnc5ccccc54)n3C)sc2c1 (protonated)
COc1ccc2[n-]/c(=N\C(=O)CSc3nnc(Cn4cnc5ccccc54)n3C)sc2c1 (cis-trans isomerization)
COc1ccc2[n-]/c(=N\C(=O)CSc3nnc(Cn4cnc5ccccc54)n3C)sc2c1 (3D coordinates assigned)
COc1ccc2[n-]/c(=N\C(=O)CSc3nnc(Cn4cnc5ccccc54)n3C)sc2c1 (optimized conformer: 157.2888618609406 kcal/mol)

>  <smiles>  (15) 
COc1ccc2[nH]c(=NC(=O)CSc3nnc(Cn4cnc5ccccc54)n3C)sc2c1

>  <score_type>  (15) 
oracle

>  <origin>  (15) 
adg

>  <m_score__min__energy>  (15) 
-11.82

>  <m_primary>  (15) 
energy

$$$$
15:0
     RDKit          3D

 66 69  0  0  0  0  0  0  0  0999 V2000
   55.6780   30.0970   44.1040 C   0  0  0  0  0  0  0  0  0  0  0  0
   56.7670   29.6960   43.4400 C   0  0  0  0  0  0  0  0  0  0  0  0
   57.6180   28.5570   43.9320 C   0  0  0  0  0  0  0  0  0  0  0  0
   58.5280   29.0190   45.0410 C   0  0  0  0  0  0  0  0  0  0  0  0
   58.9050   28.1350   46.0630 C   0  0  0  0  0  0  0  0  0  0  0  0
   59.7260   28.5680   47.1090 C   0  0  0  0  0  0  0  0  0  0  0  0
   60.1730   29.9010   47.1570 C   0  0  0  0  0  0  0  0  0  0  0  0
   61.0540   30.3730   48.2500 C   0  0  0  0  0  0  0  0  0  0  0  0
   60.9580   30.0780   49.6000 C   0  0  0  0  0  0  0  0  0  0  0  0
   61.9960   30.6900   50.1960 N   0  0  0  0  0  0  0  0  0  0  0  0
   62.3900   30.5740   51.6000 C   0  0  0  0  0  0  0  0  0  0  0  0
   62.7720   31.9350   52.2010 C   0  0  0  0  0  0  0  0  0  0  0  0
   61.6090   32.6450   52.9140 C   0  0  0  0  0  0  0  0  0  0  0  0
   60.2220   32.1290   52.4700 C   0  0  0  0  0  0  0  0  0  0  0  0
   59.6270   32.9190   51.3700 N   0  0  0  0  0  0  0  0  0  0  0  0
   58.4530   32.2690   50.7310 C   0  0  0  0  0  0  0  0  0  0  0  0
   58.5810   32.1330   49.2060 C   0  0  0  0  0  0  0  0  0  0  0  0
   58.9870   33.4120   48.6120 N   0  0  0  0  0  0  0  0  0  0  0  0
   58.6520   33.7060   47.2400 C   0  0  0  0  0  0  0  0  0  0  0  0
   57.3490   33.4610   46.7720 C   0  0  0  0  0  0  0  0  0  0  0  0
   57.0140   33.7100   45.4400 C   0  0  0  0  0  0  0  0  0  0  0  0
   57.9760   34.2040   44.5590 C   0  0  0  0  0  0  0  0  0  0  0  0
   59.2720   34.4550   45.0070 C   0  0  0  0  0  0  0  0  0  0  0  0
   59.6230   34.2150   46.3510 C   0  0  0  0  0  0  0  0  0  0  0  0
   60.9140   34.4790   46.8330 O   0  0  0  0  0  0  0  0  0  0  0  0
   62.0960   33.8160   46.3880 C   0  0  0  0  0  0  0  0  0  0  0  0
   59.9520   34.2640   49.3230 C   0  0  0  0  0  0  0  0  0  0  0  0
   60.6350   33.4790   50.4440 C   0  0  0  0  0  0  0  0  0  0  0  0
   62.6950   31.3100   49.2590 N   0  0  0  0  0  0  0  0  0  0  0  0
   62.1520   31.1390   48.0650 N   0  0  0  0  0  0  0  0  0  0  0  0
   59.7740   30.7900   46.1410 C   0  0  0  0  0  0  0  0  0  0  0  0
   58.9600   30.3530   45.0930 C   0  0  0  0  0  0  0  0  0  0  0  0
   55.0758   30.9331   43.7189 H   0  0  0  0  0  0  0  0  0  0  0  0
   55.3842   29.5908   45.0354 H   0  0  0  0  0  0  0  0  0  0  0  0
   57.0480   30.2121   42.5101 H   0  0  0  0  0  0  0  0  0  0  0  0
   56.9665   27.7548   44.3088 H   0  0  0  0  0  0  0  0  0  0  0  0
   58.2327   28.1862   43.0985 H   0  0  0  0  0  0  0  0  0  0  0  0
   58.5521   27.0934   46.0414 H   0  0  0  0  0  0  0  0  0  0  0  0
   60.0239   27.8624   47.8986 H   0  0  0  0  0  0  0  0  0  0  0  0
   60.1858   29.4648   50.0875 H   0  0  0  0  0  0  0  0  0  0  0  0
   61.5488   30.1559   52.1722 H   0  0  0  0  0  0  0  0  0  0  0  0
   63.2710   29.9176   51.6542 H   0  0  0  0  0  0  0  0  0  0  0  0
   63.5816   31.7781   52.9290 H   0  0  0  0  0  0  0  0  0  0  0  0
   63.0783   32.5808   51.3648 H   0  0  0  0  0  0  0  0  0  0  0  0
   61.7121   32.4847   53.9974 H   0  0  0  0  0  0  0  0  0  0  0  0
   61.6631   33.7113   52.6491 H   0  0  0  0  0  0  0  0  0  0  0  0
   60.3287   31.0873   52.1333 H   0  0  0  0  0  0  0  0  0  0  0  0
   59.5492   32.2187   53.3357 H   0  0  0  0  0  0  0  0  0  0  0  0
   58.3349   31.2636   51.1613 H   0  0  0  0  0  0  0  0  0  0  0  0
   57.5820   32.9118   50.9260 H   0  0  0  0  0  0  0  0  0  0  0  0
   59.3365   31.3684   48.9722 H   0  0  0  0  0  0  0  0  0  0  0  0
   57.6058   31.8394   48.7903 H   0  0  0  0  0  0  0  0  0  0  0  0
   56.5867   33.0696   47.4617 H   0  0  0  0  0  0  0  0  0  0  0  0
   55.9910   33.5166   45.0850 H   0  0  0  0  0  0  0  0  0  0  0  0
   57.7115   34.3959   43.5087 H   0  0  0  0  0  0  0  0  0  0  0  0
   60.0262   34.8432   44.3067 H   0  0  0  0  0  0  0  0  0  0  0  0
   62.6820   33.4873   47.2589 H   0  0  0  0  0  0  0  0  0  0  0  0
   61.8194   32.9414   45.7809 H   0  0  0  0  0  0  0  0  0  0  0  0
   62.6981   34.5080   45.7809 H   0  0  0  0  0  0  0  0  0  0  0  0
   60.7138   34.6185   48.6131 H   0  0  0  0  0  0  0  0  0  0  0  0
   59.4163   35.1185   49.7622 H   0  0  0  0  0  0  0  0  0  0  0  0
   61.2208   32.6574   50.0061 H   0  0  0  0  0  0  0  0  0  0  0  0
   61.2952   34.1578   51.0037 H   0  0  0  0  0  0  0  0  0  0  0  0
   63.5840   31.8330   49.4270 H   0  0  0  0  0  0  0  0  0  0  0  0
   60.1061   31.8382   46.1725 H   0  0  0  0  0  0  0  0  0  0  0  0
   58.6564   31.0579   44.3050 H   0  0  0  0  0  0  0  0  0  0  0  0
  1  2  2  0
  2  3  1  0
  3  4  1  0
  4  5  2  0
  5  6  1  0
  6  7  2  0
  7  8  1  0
  8  9  2  0
  9 10  1  0
 10 11  1  0
 11 12  1  0
 12 13  1  0
 13 14  1  0
 14 15  1  0
 15 16  1  0
 16 17  1  0
 17 18  1  0
 18 19  1  0
 19 20  2  0
 20 21  1  0
 21 22  2  0
 22 23  1  0
 23 24  2  0
 24 25  1  0
 25 26  1  0
 18 27  1  0
 27 28  1  0
 10 29  1  0
 29 30  2  0
  7 31  1  0
 31 32  2  0
 32  4  1  0
 30  8  1  0
 28 15  1  0
 24 19  1  0
  1 33  1  0
  1 34  1  0
  2 35  1  0
  3 36  1  0
  3 37  1  0
  5 38  1  0
  6 39  1  0
  9 40  1  0
 11 41  1  0
 11 42  1  0
 12 43  1  0
 12 44  1  0
 13 45  1  0
 13 46  1  0
 14 47  1  0
 14 48  1  0
 16 49  1  0
 16 50  1  0
 17 51  1  0
 17 52  1  0
 20 53  1  0
 21 54  1  0
 22 55  1  0
 23 56  1  0
 26 57  1  0
 26 58  1  0
 26 59  1  0
 27 60  1  0
 27 61  1  0
 28 62  1  0
 28 63  1  0
 29 64  1  0
 31 65  1  0
 32 66  1  0
M  CHG  1  29   1
M  END
>  <UniqueID>  (16) 
16

>  <SMILES>  (16) 
C=CCc1ccc(-c2cn(CCCCN3CCN(c4ccccc4OC)CC3)[nH+]n2)cc1

>  <Energy>  (16) 
110.50229114240409

>  <Genealogy>  (16) 
C=CCc1ccc(-c2cn(CCCCN3CCN(c4ccccc4OC)CC3)[nH+]n2)cc1 (protonated)
C=CCc1ccc(-c2cn(CCCCN3CCN(c4ccccc4OC)CC3)[nH+]n2)cc1 (3D coordinates assigned)
C=CCc1ccc(-c2cn(CCCCN3CCN(c4ccccc4OC)CC3)[nH+]n2)cc1 (nonaromatic ring conformer: 110.50229114240409 kcal/mol)

>  <smiles>  (16) 
C=CCc1ccc(-c2cn(CCCCN3CCN(c4ccccc4OC)CC3)nn2)cc1

>  <score_type>  (16) 
oracle

>  <origin>  (16) 
adg

>  <m_score__min__energy>  (16) 
-6.9500000000000002

>  <m_primary>  (16) 
energy

$$$$
16:0
     RDKit          3D

 37 38  0  0  0  0  0  0  0  0999 V2000
   59.3530   28.8860   47.9190 C   0  0  0  0  0  0  0  0  0  0  0  0
   59.3030   28.3340   46.4990 C   0  0  0  0  0  0  0  0  0  0  0  0
   58.1640   28.8980   45.7690 N   0  0  0  0  0  0  0  0  0  0  0  0
   56.9970   28.2920   45.4710 C   0  0  0  0  0  0  0  0  0  0  0  0
   56.6520   26.8580   45.7590 C   0  0  0  0  0  0  0  0  0  0  0  0
   55.2690   26.7130   45.9130 O   0  0  0  0  0  0  0  0  0  0  0  0
   56.1690   29.2110   44.8640 C   0  0  0  0  0  0  0  0  0  0  0  0
   56.7910   30.4060   44.8100 N   0  0  0  0  0  0  0  0  0  0  0  0
   57.9990   30.1790   45.3670 C   0  0  0  0  0  0  0  0  0  0  0  0
   59.2020   31.4880   45.6320 S   0  0  0  0  0  0  0  0  0  0  0  0
   57.9840   32.8500   45.7350 C   0  0  0  0  0  0  0  0  0  0  0  0
   58.2270   33.7410   46.9510 C   0  0  0  0  0  0  0  0  0  0  0  0
   59.4890   34.3890   46.8280 O   0  0  0  0  0  0  0  0  0  0  0  0
   60.7120   33.8350   47.2290 C   0  0  0  0  0  0  0  0  0  0  0  0
   61.8180   33.9920   46.3850 C   0  0  0  0  0  0  0  0  0  0  0  0
   63.0560   33.4430   46.7290 C   0  0  0  0  0  0  0  0  0  0  0  0
   63.1990   32.7350   47.9250 C   0  0  0  0  0  0  0  0  0  0  0  0
   62.1040   32.5790   48.7800 C   0  0  0  0  0  0  0  0  0  0  0  0
   60.8630   33.1270   48.4370 C   0  0  0  0  0  0  0  0  0  0  0  0
   59.2779   28.0566   48.6377 H   0  0  0  0  0  0  0  0  0  0  0  0
   60.3031   29.4188   48.0720 H   0  0  0  0  0  0  0  0  0  0  0  0
   58.5141   29.5809   48.0720 H   0  0  0  0  0  0  0  0  0  0  0  0
   60.2342   28.5964   45.9756 H   0  0  0  0  0  0  0  0  0  0  0  0
   59.1895   27.2409   46.5459 H   0  0  0  0  0  0  0  0  0  0  0  0
   56.9922   26.2281   44.9238 H   0  0  0  0  0  0  0  0  0  0  0  0
   57.1500   26.5501   46.6902 H   0  0  0  0  0  0  0  0  0  0  0  0
   55.1230   26.3430   46.8230 H   0  0  0  0  0  0  0  0  0  0  0  0
   55.1584   29.0023   44.4830 H   0  0  0  0  0  0  0  0  0  0  0  0
   58.0582   33.4629   44.8246 H   0  0  0  0  0  0  0  0  0  0  0  0
   56.9828   32.4050   45.8333 H   0  0  0  0  0  0  0  0  0  0  0  0
   57.4318   34.4985   47.0138 H   0  0  0  0  0  0  0  0  0  0  0  0
   58.2223   33.1234   47.8613 H   0  0  0  0  0  0  0  0  0  0  0  0
   61.7115   34.5517   45.4441 H   0  0  0  0  0  0  0  0  0  0  0  0
   63.9185   33.5683   46.0579 H   0  0  0  0  0  0  0  0  0  0  0  0
   64.1731   32.3004   48.1938 H   0  0  0  0  0  0  0  0  0  0  0  0
   62.2181   32.0249   49.7234 H   0  0  0  0  0  0  0  0  0  0  0  0
   60.0035   33.0045   49.1124 H   0  0  0  0  0  0  0  0  0  0  0  0
  1  2  1  0
  2  3  1  0
  3  4  1  0
  4  5  1  0
  5  6  1  0
  4  7  2  0
  7  8  1  0
  8  9  2  0
  9 10  1  0
 10 11  1  0
 11 12  1  0
 12 13  1  0
 13 14  1  0
 14 15  2  0
 15 16  1  0
 16 17  2  0
 17 18  1  0
 18 19  2  0
  9  3  1  0
 19 14  1  0
  1 20  1  0
  1 21  1  0
  1 22  1  0
  2 23  1  0
  2 24  1  0
  5 25  1  0
  5 26  1  0
  6 27  1  0
  7 28  1  0
 11 29  1  0
 11 30  1  0
 12 31  1  0
 12 32  1  0
 15 33  1  0
 16 34  1  0
 17 35  1  0
 18 36  1  0
 19 37  1  0
M  END
>  <UniqueID>  (17) 
17

>  <SMILES>  (17) 
CCn1c(CO)cnc1SCCOc1ccccc1

>  <Energy>  (17) 
54.57603998607852

>  <Genealogy>  (17) 
CCn1c(CO)cnc1SCCOc1ccccc1 (3D coordinates assigned)
CCn1c(CO)cnc1SCCOc1ccccc1 (optimized conformer: 54.57603998607852 kcal/mol)

>  <smiles>  (17) 
CCn1c(CO)cnc1SCCOc1ccccc1

>  <score_type>  (17) 
oracle

>  <origin>  (17) 
adg

>  <m_score__min__energy>  (17) 
-6.5899999999999999

>  <m_primary>  (17) 
energy

$$$$
17:0
     RDKit          3D

 36 38  0  0  0  0  0  0  0  0999 V2000
   54.8340   25.0270   45.6200 C   0  0  0  0  0  0  0  0  0  0  0  0
   55.1810   26.3460   46.0300 O   0  0  0  0  0  0  0  0  0  0  0  0
   56.4600   26.9050   45.8970 C   0  0  0  0  0  0  0  0  0  0  0  0
   57.5520   26.1970   46.4110 C   0  0  0  0  0  0  0  0  0  0  0  0
   58.8460   26.7090   46.2960 C   0  0  0  0  0  0  0  0  0  0  0  0
   59.0600   27.9420   45.6770 C   0  0  0  0  0  0  0  0  0  0  0  0
   57.9730   28.6780   45.1800 C   0  0  0  0  0  0  0  0  0  0  0  0
   58.1600   29.9520   44.5490 N   0  0  0  0  0  0  0  0  0  0  0  0
   57.5000   31.1700   44.9200 C   0  0  0  0  0  0  0  0  0  0  0  0
   56.2470   31.2430   44.8070 O   0  0  0  0  0  0  0  0  0  0  0  0
   58.2340   32.3050   45.4200 N   0  0  0  0  0  0  0  0  0  0  0  0
   57.7490   33.6310   45.0100 C   0  0  0  0  0  0  0  0  0  0  0  0
   58.8920   34.6280   44.8780 C   0  0  0  0  0  0  0  0  0  0  0  0
   59.5530   34.9490   46.5290 S   0  0  0  0  0  0  0  0  0  0  0  0
   60.1120   33.2580   46.7810 C   0  0  0  0  0  0  0  0  0  0  0  0
   61.2610   33.0670   47.4880 N   0  0  0  0  0  0  0  0  0  0  0  0
   61.6830   31.8290   47.8540 C   0  0  0  0  0  0  0  0  0  0  0  0
   60.9260   30.7090   47.5250 C   0  0  0  0  0  0  0  0  0  0  0  0
   59.7590   30.8670   46.7800 C   0  0  0  0  0  0  0  0  0  0  0  0
   59.3510   32.1450   46.3440 C   0  0  0  0  0  0  0  0  0  0  0  0
   56.6800   28.1470   45.2700 C   0  0  0  0  0  0  0  0  0  0  0  0
   54.6687   24.3987   46.5076 H   0  0  0  0  0  0  0  0  0  0  0  0
   53.9141   25.0603   45.0178 H   0  0  0  0  0  0  0  0  0  0  0  0
   55.6512   24.6033   45.0178 H   0  0  0  0  0  0  0  0  0  0  0  0
   57.3899   25.2299   46.9094 H   0  0  0  0  0  0  0  0  0  0  0  0
   59.6988   26.1395   46.6941 H   0  0  0  0  0  0  0  0  0  0  0  0
   60.0818   28.3372   45.5786 H   0  0  0  0  0  0  0  0  0  0  0  0
   57.2398   33.5407   44.0391 H   0  0  0  0  0  0  0  0  0  0  0  0
   57.0579   33.9993   45.7825 H   0  0  0  0  0  0  0  0  0  0  0  0
   59.6805   34.2080   44.2362 H   0  0  0  0  0  0  0  0  0  0  0  0
   58.5309   35.5628   44.4244 H   0  0  0  0  0  0  0  0  0  0  0  0
   61.8250   33.8940   47.7890 H   0  0  0  0  0  0  0  0  0  0  0  0
   62.6242   31.7117   48.4111 H   0  0  0  0  0  0  0  0  0  0  0  0
   61.2458   29.7079   47.8500 H   0  0  0  0  0  0  0  0  0  0  0  0
   59.1497   29.9861   46.5293 H   0  0  0  0  0  0  0  0  0  0  0  0
   55.8304   28.7038   44.8481 H   0  0  0  0  0  0  0  0  0  0  0  0
  1  2  1  0
  2  3  1  0
  3  4  2  0
  4  5  1  0
  5  6  2  0
  6  7  1  0
  7  8  1  0
  8  9  1  0
  9 10  2  0
  9 11  1  0
 11 12  1  0
 12 13  1  0
 13 14  1  0
 14 15  1  0
 15 16  2  0
 16 17  1  0
 17 18  2  0
 18 19  1  0
 19 20  2  0
  7 21  2  0
 21  3  1  0
 20 11  1  0
 20 15  1  0
  1 22  1  0
  1 23  1  0
  1 24  1  0
  4 25  1  0
  5 26  1  0
  6 27  1  0
 12 28  1  0
 12 29  1  0
 13 30  1  0
 13 31  1  0
 16 32  1  0
 17 33  1  0
 18 34  1  0
 19 35  1  0
 21 36  1  0
M  CHG  2   8  -1  16   1
M  END
>  <UniqueID>  (18) 
18

>  <SMILES>  (18) 
COc1cccc([N-]C(=O)N2CCSc3[nH+]cccc32)c1

>  <Energy>  (18) 
52.45979890587018

>  <Genealogy>  (18) 
COc1cccc([N-]C(=O)N2CCSc3[nH+]cccc32)c1 (protonated)
COc1cccc([N-]C(=O)N2CCSc3[nH+]cccc32)c1 (3D coordinates assigned)
COc1cccc([N-]C(=O)N2CCSc3[nH+]cccc32)c1 (nonaromatic ring conformer: 52.45979890587018 kcal/mol)

>  <smiles>  (18) 
COc1cccc(NC(=O)N2CCSc3ncccc32)c1

>  <score_type>  (18) 
oracle

>  <origin>  (18) 
adg

>  <m_score__min__energy>  (18) 
-7.5

>  <m_primary>  (18) 
energy

$$$$
18:0
     RDKit          3D

 55 58  0  0  0  0  0  0  0  0999 V2000
   54.8860   25.1490   45.5630 C   0  0  0  0  0  0  0  0  0  0  0  0
   55.4630   26.3300   46.1110 O   0  0  0  0  0  0  0  0  0  0  0  0
   56.5810   26.9940   45.5810 C   0  0  0  0  0  0  0  0  0  0  0  0
   56.5880   28.3870   45.3670 C   0  0  0  0  0  0  0  0  0  0  0  0
   57.7390   29.0370   44.8830 C   0  0  0  0  0  0  0  0  0  0  0  0
   57.7600   30.5030   44.6490 C   0  0  0  0  0  0  0  0  0  0  0  0
   58.0270   31.0470   43.3790 C   0  0  0  0  0  0  0  0  0  0  0  0
   58.0360   32.4320   43.2120 C   0  0  0  0  0  0  0  0  0  0  0  0
   57.7750   33.2680   44.2970 C   0  0  0  0  0  0  0  0  0  0  0  0
   57.4940   32.7010   45.5460 C   0  0  0  0  0  0  0  0  0  0  0  0
   57.2270   33.5670   46.7470 C   0  0  0  0  0  0  0  0  0  0  0  0
   58.4740   33.8300   47.4960 N   0  0  0  0  0  0  0  0  0  0  0  0
   59.2220   34.9790   46.9180 C   0  0  0  0  0  0  0  0  0  0  0  0
   60.3700   34.5380   46.0000 C   0  0  0  0  0  0  0  0  0  0  0  0
   61.3940   33.6820   46.7650 C   0  0  0  0  0  0  0  0  0  0  0  0
   60.7600   32.9020   47.9290 C   0  0  0  0  0  0  0  0  0  0  0  0
   59.2870   32.5920   47.6430 C   0  0  0  0  0  0  0  0  0  0  0  0
   57.4980   31.3480   45.6870 N   0  0  0  0  0  0  0  0  0  0  0  0
   58.8820   28.2710   44.6000 C   0  0  0  0  0  0  0  0  0  0  0  0
   58.8790   26.8910   44.8020 C   0  0  0  0  0  0  0  0  0  0  0  0
   57.7320   26.2430   45.2750 C   0  0  0  0  0  0  0  0  0  0  0  0
   57.7580   24.8220   45.4670 N   0  0  0  0  0  0  0  0  0  0  0  0
   57.8630   23.9530   44.4800 N   0  0  0  0  0  0  0  0  0  0  0  0
   57.8190   22.7370   45.0600 C   0  0  0  0  0  0  0  0  0  0  0  0
   57.8540   21.4580   44.2950 C   0  0  0  0  0  0  0  0  0  0  0  0
   57.6520   22.8000   46.4000 N   0  0  0  0  0  0  0  0  0  0  0  0
   57.6150   24.1290   46.6180 C   0  0  0  0  0  0  0  0  0  0  0  0
   57.4070   24.7290   47.9740 C   0  0  0  0  0  0  0  0  0  0  0  0
   54.5622   24.4863   46.3791 H   0  0  0  0  0  0  0  0  0  0  0  0
   54.0181   25.4185   44.9433 H   0  0  0  0  0  0  0  0  0  0  0  0
   55.6320   24.6299   44.9433 H   0  0  0  0  0  0  0  0  0  0  0  0
   55.6825   28.9738   45.5809 H   0  0  0  0  0  0  0  0  0  0  0  0
   58.2272   30.3848   42.5238 H   0  0  0  0  0  0  0  0  0  0  0  0
   58.2492   32.8649   42.2235 H   0  0  0  0  0  0  0  0  0  0  0  0
   57.7897   34.3609   44.1731 H   0  0  0  0  0  0  0  0  0  0  0  0
   56.7990   34.5237   46.4131 H   0  0  0  0  0  0  0  0  0  0  0  0
   56.5235   33.0415   47.4095 H   0  0  0  0  0  0  0  0  0  0  0  0
   58.5228   35.5964   46.3350 H   0  0  0  0  0  0  0  0  0  0  0  0
   59.6630   35.5420   47.7538 H   0  0  0  0  0  0  0  0  0  0  0  0
   59.9582   33.9475   45.1683 H   0  0  0  0  0  0  0  0  0  0  0  0
   60.8793   35.4366   45.6216 H   0  0  0  0  0  0  0  0  0  0  0  0
   61.8465   32.9643   46.0649 H   0  0  0  0  0  0  0  0  0  0  0  0
   62.1462   34.3627   47.1903 H   0  0  0  0  0  0  0  0  0  0  0  0
   61.3060   31.9574   48.0690 H   0  0  0  0  0  0  0  0  0  0  0  0
   60.8187   33.5188   48.8379 H   0  0  0  0  0  0  0  0  0  0  0  0
   59.2209   32.0112   46.7111 H   0  0  0  0  0  0  0  0  0  0  0  0
   58.8881   32.0234   48.4960 H   0  0  0  0  0  0  0  0  0  0  0  0
   59.7872   28.7638   44.2157 H   0  0  0  0  0  0  0  0  0  0  0  0
   59.7860   26.3067   44.5877 H   0  0  0  0  0  0  0  0  0  0  0  0
   57.8772   20.6114   44.9970 H   0  0  0  0  0  0  0  0  0  0  0  0
   56.9575   21.3848   43.6618 H   0  0  0  0  0  0  0  0  0  0  0  0
   58.7531   21.4340   43.6618 H   0  0  0  0  0  0  0  0  0  0  0  0
   57.6637   23.9885   48.7459 H   0  0  0  0  0  0  0  0  0  0  0  0
   58.0509   25.6138   48.0861 H   0  0  0  0  0  0  0  0  0  0  0  0
   56.3537   25.0254   48.0861 H   0  0  0  0  0  0  0  0  0  0  0  0
  1  2  1  0
  2  3  1  0
  3  4  2  0
  4  5  1  0
  5  6  1  0
  6  7  2  0
  7  8  1  0
  8  9  2  0
  9 10  1  0
 10 11  1  0
 11 12  1  0
 12 13  1  0
 13 14  1  0
 14 15  1  0
 15 16  1  0
 16 17  1  0
 10 18  2  0
  5 19  2  0
 19 20  1  0
 20 21  2  0
 21 22  1  0
 22 23  1  0
 23 24  2  0
 24 25  1  0
 24 26  1  0
 26 27  2  0
 27 28  1  0
 21  3  1  0
 27 22  1  0
 18  6  1  0
 17 12  1  0
  1 29  1  0
  1 30  1  0
  1 31  1  0
  4 32  1  0
  7 33  1  0
  8 34  1  0
  9 35  1  0
 11 36  1  0
 11 37  1  0
 13 38  1  0
 13 39  1  0
 14 40  1  0
 14 41  1  0
 15 42  1  0
 15 43  1  0
 16 44  1  0
 16 45  1  0
 17 46  1  0
 17 47  1  0
 19 48  1  0
 20 49  1  0
 25 50  1  0
 25 51  1  0
 25 52  1  0
 28 53  1  0
 28 54  1  0
 28 55  1  0
M  END
>  <UniqueID>  (19) 
19

>  <SMILES>  (19) 
COc1cc(-c2cccc(CN3CCCCC3)n2)ccc1-n1nc(C)nc1C

>  <Energy>  (19) 
105.05210084163154

>  <Genealogy>  (19) 
COc1cc(-c2cccc(CN3CCCCC3)n2)ccc1-n1nc(C)nc1C (3D coordinates assigned)
COc1cc(-c2cccc(CN3CCCCC3)n2)ccc1-n1nc(C)nc1C (nonaromatic ring conformer: 105.05210084163154 kcal/mol)

>  <smiles>  (19) 
COc1cc(-c2cccc(CN3CCCCC3)n2)ccc1-n1nc(C)nc1C

>  <score_type>  (19) 
oracle

>  <origin>  (19) 
adg

>  <m_score__min__energy>  (19) 
-8.9700000000000006

>  <m_primary>  (19) 
energy

$$$$
19:0
     RDKit          3D

 40 41  0  0  0  0  0  0  0  0999 V2000
   58.5990   32.9440   52.0410 C   0  0  0  0  0  0  0  0  0  0  0  0
   59.3010   33.5210   50.8940 C   0  0  0  0  0  0  0  0  0  0  0  0
   59.8800   33.9990   49.9520 C   0  0  0  0  0  0  0  0  0  0  0  0
   60.5790   34.5830   48.8010 C   0  0  0  0  0  0  0  0  0  0  0  0
   59.6510   34.8990   47.7640 O   0  0  0  0  0  0  0  0  0  0  0  0
   59.1030   33.9780   46.8570 C   0  0  0  0  0  0  0  0  0  0  0  0
   58.5100   32.8170   47.3700 C   0  0  0  0  0  0  0  0  0  0  0  0
   57.9500   31.8660   46.5130 C   0  0  0  0  0  0  0  0  0  0  0  0
   57.9780   32.0630   45.1260 C   0  0  0  0  0  0  0  0  0  0  0  0
   57.2600   30.8820   44.0330 S   0  0  0  0  0  0  0  0  0  0  0  0
   55.9620   30.4100   44.6270 O   0  0  0  0  0  0  0  0  0  0  0  0
   56.9710   31.5310   42.7070 O   0  0  0  0  0  0  0  0  0  0  0  0
   58.3620   29.5350   43.8310 N   0  0  0  0  0  0  0  0  0  0  0  0
   59.2890   29.4230   44.9790 C   0  0  0  0  0  0  0  0  0  0  0  0
   58.6090   28.8870   46.2530 C   0  0  0  0  0  0  0  0  0  0  0  0
   57.6070   27.7530   45.9760 C   0  0  0  0  0  0  0  0  0  0  0  0
   57.7770   27.1720   44.5740 C   0  0  0  0  0  0  0  0  0  0  0  0
   57.6300   28.2740   43.5100 C   0  0  0  0  0  0  0  0  0  0  0  0
   58.5640   33.2240   44.6060 C   0  0  0  0  0  0  0  0  0  0  0  0
   59.1240   34.1760   45.4620 C   0  0  0  0  0  0  0  0  0  0  0  0
   59.0511   33.3156   52.9724 H   0  0  0  0  0  0  0  0  0  0  0  0
   57.5388   33.2352   52.0064 H   0  0  0  0  0  0  0  0  0  0  0  0
   58.6794   31.8475   52.0064 H   0  0  0  0  0  0  0  0  0  0  0  0
   61.0950   35.5013   49.1180 H   0  0  0  0  0  0  0  0  0  0  0  0
   61.3076   33.8533   48.4180 H   0  0  0  0  0  0  0  0  0  0  0  0
   58.4850   32.6526   48.4574 H   0  0  0  0  0  0  0  0  0  0  0  0
   57.4856   30.9596   46.9286 H   0  0  0  0  0  0  0  0  0  0  0  0
   58.9500   29.7800   42.9990 H   0  0  0  0  0  0  0  0  0  0  0  0
   60.1061   28.7398   44.7041 H   0  0  0  0  0  0  0  0  0  0  0  0
   59.6572   30.4349   45.2040 H   0  0  0  0  0  0  0  0  0  0  0  0
   59.3875   28.5073   46.9311 H   0  0  0  0  0  0  0  0  0  0  0  0
   58.0441   29.7203   46.6963 H   0  0  0  0  0  0  0  0  0  0  0  0
   57.7632   26.9524   46.7140 H   0  0  0  0  0  0  0  0  0  0  0  0
   56.5917   28.1695   46.0513 H   0  0  0  0  0  0  0  0  0  0  0  0
   58.7755   26.7184   44.4892 H   0  0  0  0  0  0  0  0  0  0  0  0
   56.9989   26.4124   44.4080 H   0  0  0  0  0  0  0  0  0  0  0  0
   58.0141   27.8854   42.5553 H   0  0  0  0  0  0  0  0  0  0  0  0
   56.5613   28.5309   43.4660 H   0  0  0  0  0  0  0  0  0  0  0  0
   58.5835   33.3872   43.5184 H   0  0  0  0  0  0  0  0  0  0  0  0
   59.5834   35.0843   45.0449 H   0  0  0  0  0  0  0  0  0  0  0  0
  1  2  1  0
  2  3  3  0
  3  4  1  0
  4  5  1  0
  5  6  1  0
  6  7  2  0
  7  8  1  0
  8  9  2  0
  9 10  1  0
 10 11  2  0
 10 12  2  0
 10 13  1  0
 13 14  1  0
 14 15  1  0
 15 16  1  0
 16 17  1  0
 17 18  1  0
  9 19  1  0
 19 20  2  0
 20  6  1  0
 18 13  1  0
  1 21  1  0
  1 22  1  0
  1 23  1  0
  4 24  1  0
  4 25  1  0
  7 26  1  0
  8 27  1  0
 13 28  1  0
 14 29  1  0
 14 30  1  0
 15 31  1  0
 15 32  1  0
 16 33  1  0
 16 34  1  0
 17 35  1  0
 17 36  1  0
 18 37  1  0
 18 38  1  0
 19 39  1  0
 20 40  1  0
M  CHG  1  13   1
M  END
>  <UniqueID>  (20) 
20

>  <SMILES>  (20) 
CC#CCOc1ccc(S(=O)(=O)[NH+]2CCCCC2)cc1

>  <Energy>  (20) 
40.298319022815285

>  <Genealogy>  (20) 
CC#CCOc1ccc(S(=O)(=O)[NH+]2CCCCC2)cc1 (protonated)
CC#CCOc1ccc(S(=O)(=O)[NH+]2CCCCC2)cc1 (3D coordinates assigned)
CC#CCOc1ccc(S(=O)(=O)[NH+]2CCCCC2)cc1 (nonaromatic ring conformer: 40.298319022815285 kcal/mol)

>  <smiles>  (20) 
CC#CCOc1ccc(S(=O)(=O)N2CCCCC2)cc1

>  <score_type>  (20) 
oracle

>  <origin>  (20) 
adg

>  <m_score__min__energy>  (20) 
-6.04

>  <m_primary>  (20) 
energy

$$$$
20:0
     RDKit          3D

 43 44  0  0  0  0  0  0  0  0999 V2000
   64.4704   32.6669   47.8809 H   0  0  0  0  0  0  0  0  0  0  0  0
   63.4210   32.6900   47.5520 C   0  0  0  0  0  0  0  0  0  0  0  0
   62.9140   33.8310   46.9050 C   0  0  0  0  0  0  0  0  0  0  0  0
   63.5709   34.6954   46.7281 H   0  0  0  0  0  0  0  0  0  0  0  0
   61.5750   33.8750   46.4830 C   0  0  0  0  0  0  0  0  0  0  0  0
   61.1802   34.7701   45.9800 H   0  0  0  0  0  0  0  0  0  0  0  0
   60.7440   32.7630   46.7100 C   0  0  0  0  0  0  0  0  0  0  0  0
   61.2710   31.6470   47.3490 C   0  0  0  0  0  0  0  0  0  0  0  0
   60.0860   30.4820   47.5070 S   0  0  0  0  0  0  0  0  0  0  0  0
   58.9330   31.4220   46.7100 C   0  0  0  0  0  0  0  0  0  0  0  0
   57.7700   30.9170   46.4030 N   0  0  0  0  0  0  0  0  0  0  0  0
   57.3580   30.2580   45.2020 C   0  0  0  0  0  0  0  0  0  0  0  0
   56.2530   30.5510   44.6670 O   0  0  0  0  0  0  0  0  0  0  0  0
   58.3190   29.3590   44.4860 C   0  0  0  0  0  0  0  0  0  0  0  0
   59.2998   29.8539   44.4311 H   0  0  0  0  0  0  0  0  0  0  0  0
   57.9256   29.1625   43.4777 H   0  0  0  0  0  0  0  0  0  0  0  0
   58.4760   28.0160   45.2160 C   0  0  0  0  0  0  0  0  0  0  0  0
   58.1177   27.2118   44.5565 H   0  0  0  0  0  0  0  0  0  0  0  0
   57.8884   28.0691   46.1444 H   0  0  0  0  0  0  0  0  0  0  0  0
   59.9340   27.7240   45.6020 C   0  0  0  0  0  0  0  0  0  0  0  0
   60.1662   26.6821   45.3363 H   0  0  0  0  0  0  0  0  0  0  0  0
   60.0326   27.9004   46.6833 H   0  0  0  0  0  0  0  0  0  0  0  0
   60.9280   28.6420   44.8930 C   0  0  0  0  0  0  0  0  0  0  0  0
   61.5202   29.1889   45.6414 H   0  0  0  0  0  0  0  0  0  0  0  0
   61.5991   28.0393   44.2635 H   0  0  0  0  0  0  0  0  0  0  0  0
   60.3804   29.3589   44.2635 H   0  0  0  0  0  0  0  0  0  0  0  0
   59.4120   32.6710   46.3830 N   0  0  0  0  0  0  0  0  0  0  0  0
   58.5980   33.8780   46.1090 C   0  0  0  0  0  0  0  0  0  0  0  0
   57.9596   34.0831   46.9810 H   0  0  0  0  0  0  0  0  0  0  0  0
   59.2827   34.7170   45.9159 H   0  0  0  0  0  0  0  0  0  0  0  0
   57.7030   33.6920   44.8670 C   0  0  0  0  0  0  0  0  0  0  0  0
   56.8407   33.0688   45.1465 H   0  0  0  0  0  0  0  0  0  0  0  0
   57.3945   34.6929   44.5309 H   0  0  0  0  0  0  0  0  0  0  0  0
   58.4320   33.0210   43.6990 C   0  0  0  0  0  0  0  0  0  0  0  0
   58.9455   33.7874   43.0999 H   0  0  0  0  0  0  0  0  0  0  0  0
   59.1682   32.3048   44.0927 H   0  0  0  0  0  0  0  0  0  0  0  0
   57.5020   32.3360   42.8870 O   0  0  0  0  0  0  0  0  0  0  0  0
   57.9360   32.3660   41.5470 C   0  0  0  0  0  0  0  0  0  0  0  0
   59.0330   32.4418   41.5185 H   0  0  0  0  0  0  0  0  0  0  0  0
   57.6189   31.4438   41.0381 H   0  0  0  0  0  0  0  0  0  0  0  0
   57.4950   33.2358   41.0381 H   0  0  0  0  0  0  0  0  0  0  0  0
   62.5930   31.5820   47.7790 C   0  0  0  0  0  0  0  0  0  0  0  0
   62.9783   30.6840   48.2841 H   0  0  0  0  0  0  0  0  0  0  0  0
  1  2  1  0
  2  3  2  0
  3  4  1  0
  3  5  1  0
  5  6  1  0
  5  7  2  0
  7  8  1  0
  8  9  1  0
  9 10  1  0
 10 11  2  0
 11 12  1  0
 12 13  2  0
 12 14  1  0
 14 15  1  0
 14 16  1  0
 14 17  1  0
 17 18  1  0
 17 19  1  0
 17 20  1  0
 20 21  1  0
 20 22  1  0
 20 23  1  0
 23 24  1  0
 23 25  1  0
 23 26  1  0
 10 27  1  0
 27 28  1  0
 28 29  1  0
 28 30  1  0
 28 31  1  0
 31 32  1  0
 31 33  1  0
 31 34  1  0
 34 35  1  0
 34 36  1  0
 34 37  1  0
 37 38  1  0
 38 39  1  0
 38 40  1  0
 38 41  1  0
  8 42  2  0
 42 43  1  0
 42  2  1  0
 27  7  1  0
M  END
>  <UniqueID>  (21) 
21

>  <SMILES>  (21) 
CCCCC(=O)/N=c1/sc2ccccc2n1CCCOC

>  <Energy>  (21) 
84.55515975494846

>  <Genealogy>  (21) 
CCCCC(=O)/N=c1/sc2ccccc2n1CCCOC (cis-trans isomerization)
CCCCC(=O)/N=c1/sc2ccccc2n1CCCOC (3D coordinates assigned)
CCCCC(=O)/N=c1/sc2ccccc2n1CCCOC (optimized conformer: 84.55515975494846 kcal/mol)

>  <smiles>  (21) 
CCCCC(=O)N=c1sc2ccccc2n1CCCOC

>  <score_type>  (21) 
oracle

>  <origin>  (21) 
adg

>  <m_score__min__energy>  (21) 
-6.9699999999999998

>  <m_primary>  (21) 
energy

$$$$
21:0
     RDKit          3D

 56 58  0  0  0  0  0  0  0  0999 V2000
   58.3900   26.0993   47.6667 H   0  0  0  0  0  0  0  0  0  0  0  0
   58.2190   26.8980   46.9300 C   0  0  0  0  0  0  0  0  0  0  0  0
   59.2000   27.8720   46.7210 C   0  0  0  0  0  0  0  0  0  0  0  0
   60.1401   27.8334   47.2908 H   0  0  0  0  0  0  0  0  0  0  0  0
   58.9910   28.8970   45.7890 C   0  0  0  0  0  0  0  0  0  0  0  0
   60.0270   29.8650   45.5610 N   0  0  0  0  0  0  0  0  0  0  0  0
   60.5210   29.8300   44.6410 H   0  0  0  0  0  0  0  0  0  0  0  0
   60.4340   30.7240   46.4540 C   0  0  0  0  0  0  0  0  0  0  0  0
   59.9780   32.4830   46.4700 S   0  0  0  0  0  0  0  0  0  0  0  0
   61.4710   32.6760   47.4820 C   0  0  1  0  0  0  0  0  0  0  0  0
   62.2788   32.7979   46.7454 H   0  0  0  0  0  0  0  0  0  0  0  0
   61.6420   33.8880   48.3790 C   0  0  0  0  0  0  0  0  0  0  0  0
   60.7022   34.1478   48.8882 H   0  0  0  0  0  0  0  0  0  0  0  0
   61.9295   34.8060   47.8455 H   0  0  0  0  0  0  0  0  0  0  0  0
   62.8720   33.2980   49.5360 S   0  0  0  0  0  0  0  0  0  0  0  0
   64.2330   33.8590   49.2350 O   0  0  0  0  0  0  0  0  0  0  0  0
   62.4770   33.5910   50.9560 O   0  0  0  0  0  0  0  0  0  0  0  0
   62.7900   31.5470   49.1780 C   0  0  0  0  0  0  0  0  0  0  0  0
   62.7443   30.9488   50.1000 H   0  0  0  0  0  0  0  0  0  0  0  0
   63.6653   31.1549   48.6395 H   0  0  0  0  0  0  0  0  0  0  0  0
   61.4900   31.4660   48.3970 C   0  0  2  0  0  0  0  0  0  0  0  0
   60.7047   31.3946   49.1640 H   0  0  0  0  0  0  0  0  0  0  0  0
   61.2940   30.3300   47.5270 N   0  0  0  0  0  0  0  0  0  0  0  0
   61.4710   29.3400   47.8050 H   0  0  0  0  0  0  0  0  0  0  0  0
   57.8120   28.9020   45.0250 C   0  0  0  0  0  0  0  0  0  0  0  0
   57.6596   29.6767   44.2591 H   0  0  0  0  0  0  0  0  0  0  0  0
   56.8320   27.9280   45.2330 C   0  0  0  0  0  0  0  0  0  0  0  0
   55.9109   27.9408   44.6319 H   0  0  0  0  0  0  0  0  0  0  0  0
   57.0180   26.9330   46.2060 C   0  0  0  0  0  0  0  0  0  0  0  0
   55.9870   25.8960   46.4050 C   0  0  0  0  0  0  0  0  0  0  0  0
   56.2380   24.9210   47.1610 O   0  0  0  0  0  0  0  0  0  0  0  0
   54.7160   25.9510   45.7480 N   0  0  0  0  0  0  0  0  0  0  0  0
   53.7970   24.8230   45.6190 C   0  0  0  0  0  0  0  0  0  0  0  0
   52.7839   25.2008   45.4167 H   0  0  0  0  0  0  0  0  0  0  0  0
   53.8022   24.2464   46.5557 H   0  0  0  0  0  0  0  0  0  0  0  0
   54.2370   23.9120   44.4680 C   0  0  0  0  0  0  0  0  0  0  0  0
   54.6833   24.5333   43.6776 H   0  0  0  0  0  0  0  0  0  0  0  0
   53.3466   23.3760   44.1077 H   0  0  0  0  0  0  0  0  0  0  0  0
   55.2680   22.8600   44.9090 C   0  0  0  0  0  0  0  0  0  0  0  0
   54.7584   22.0767   45.4894 H   0  0  0  0  0  0  0  0  0  0  0  0
   56.0351   23.3539   45.5235 H   0  0  0  0  0  0  0  0  0  0  0  0
   55.9260   22.2430   43.7330 N   0  0  0  0  0  0  0  0  0  0  0  0
   56.8640   21.1730   44.1430 C   0  0  0  0  0  0  0  0  0  0  0  0
   57.7408   21.1839   43.4788 H   0  0  0  0  0  0  0  0  0  0  0  0
   56.3533   20.2012   44.0737 H   0  0  0  0  0  0  0  0  0  0  0  0
   57.3190   21.3960   45.5830 C   0  0  0  0  0  0  0  0  0  0  0  0
   56.5498   21.0190   46.2731 H   0  0  0  0  0  0  0  0  0  0  0  0
   58.2628   20.8583   45.7568 H   0  0  0  0  0  0  0  0  0  0  0  0
   57.4723   22.4713   45.7568 H   0  0  0  0  0  0  0  0  0  0  0  0
   56.6060   23.2630   42.9020 C   0  0  0  0  0  0  0  0  0  0  0  0
   57.3132   22.7652   42.2223 H   0  0  0  0  0  0  0  0  0  0  0  0
   55.8514   23.8140   42.3215 H   0  0  0  0  0  0  0  0  0  0  0  0
   57.3660   24.2450   43.7890 C   0  0  0  0  0  0  0  0  0  0  0  0
   57.1797   24.0042   44.8460 H   0  0  0  0  0  0  0  0  0  0  0  0
   58.4434   24.1696   43.5802 H   0  0  0  0  0  0  0  0  0  0  0  0
   57.0228   25.2690   43.5802 H   0  0  0  0  0  0  0  0  0  0  0  0
  1  2  1  0
  2  3  2  0
  3  4  1  0
  3  5  1  0
  5  6  1  0
  6  7  1  0
  6  8  2  0
  8  9  1  0
  9 10  1  0
 10 11  1  6
 10 12  1  0
 12 13  1  0
 12 14  1  0
 12 15  1  0
 15 16  2  0
 15 17  2  0
 15 18  1  0
 18 19  1  0
 18 20  1  0
 18 21  1  0
 21 22  1  1
 21 23  1  0
 23 24  1  0
  5 25  2  0
 25 26  1  0
 25 27  1  0
 27 28  1  0
 27 29  2  0
 29 30  1  0
 30 31  2  0
 30 32  1  0
 32 33  1  0
 33 34  1  0
 33 35  1  0
 33 36  1  0
 36 37  1  0
 36 38  1  0
 36 39  1  0
 39 40  1  0
 39 41  1  0
 39 42  1  0
 42 43  1  0
 43 44  1  0
 43 45  1  0
 43 46  1  0
 46 47  1  0
 46 48  1  0
 46 49  1  0
 42 50  1  0
 50 51  1  0
 50 52  1  0
 50 53  1  0
 53 54  1  0
 53 55  1  0
 53 56  1  0
 29  2  1  0
 23  8  1  0
 21 10  1  0
M  CHG  2   6   1  32  -1
M  END
>  <UniqueID>  (22) 
22

>  <SMILES>  (22) 
CCN(CC)CCC[N-]C(=O)c1ccc(/[NH+]=C2/N[C@H]3CS(=O)(=O)C[C@@H]3S2)cc1

>  <Energy>  (22) 
80.50011326151704

>  <Genealogy>  (22) 
CCN(CC)CCC[N-]C(=O)c1ccc([NH+]=C2NC3CS(=O)(=O)CC3S2)cc1 (protonated)
CCN(CC)CCC[N-]C(=O)c1ccc([NH+]=C2N[C@H]3CS(=O)(=O)C[C@@H]3S2)cc1 (chirality)
CCN(CC)CCC[N-]C(=O)c1ccc(/[NH+]=C2/N[C@H]3CS(=O)(=O)C[C@@H]3S2)cc1 (cis-trans isomerization)
CCN(CC)CCC[N-]C(=O)c1ccc(/[NH+]=C2/N[C@H]3CS(=O)(=O)C[C@@H]3S2)cc1 (3D coordinates assigned)
CCN(CC)CCC[N-]C(=O)c1ccc(/[NH+]=C2/N[C@H]3CS(=O)(=O)C[C@@H]3S2)cc1 (nonaromatic ring conformer: 80.50011326151704 kcal/mol)

>  <smiles>  (22) 
CCN(CC)CCCNC(=O)c1ccc(N=C2NC3CS(=O)(=O)CC3S2)cc1

>  <score_type>  (22) 
oracle

>  <origin>  (22) 
adg

>  <m_score__min__energy>  (22) 
-8.0299999999999994

>  <m_primary>  (22) 
energy

$$$$
22:0
     RDKit          3D

 41 42  0  0  0  0  0  0  0  0999 V2000
   56.8460   30.5570   43.8290 C   0  0  0  0  0  0  0  0  0  0  0  0
   57.0240   31.0640   45.1460 O   0  0  0  0  0  0  0  0  0  0  0  0
   57.7670   32.2170   45.4180 C   0  0  0  0  0  0  0  0  0  0  0  0
   57.3870   33.4320   44.8420 C   0  0  0  0  0  0  0  0  0  0  0  0
   58.1270   34.5830   45.1190 C   0  0  0  0  0  0  0  0  0  0  0  0
   59.2350   34.5100   45.9650 C   0  0  0  0  0  0  0  0  0  0  0  0
   59.5940   33.2750   46.5230 C   0  0  0  0  0  0  0  0  0  0  0  0
   60.7700   33.1670   47.4590 C   0  0  0  0  0  0  0  0  0  0  0  0
   61.6400   32.0110   47.1310 N   0  0  1  0  0  0  0  0  0  0  0  0
   63.0660   32.3730   47.2830 C   0  0  0  0  0  0  0  0  0  0  0  0
   61.2950   30.8650   48.0090 C   0  0  0  0  0  0  0  0  0  0  0  0
   60.4140   29.8550   47.3080 C   0  0  0  0  0  0  0  0  0  0  0  0
   60.6350   29.5290   45.9600 C   0  0  0  0  0  0  0  0  0  0  0  0
   59.8070   28.6070   45.3120 C   0  0  0  0  0  0  0  0  0  0  0  0
   58.7530   28.0020   46.0060 C   0  0  0  0  0  0  0  0  0  0  0  0
   57.6880   26.8230   45.1730 S   0  0  0  0  0  0  0  0  0  0  0  0
   58.1700   27.3790   43.5080 C   0  0  0  0  0  0  0  0  0  0  0  0
   58.5230   28.3280   47.3470 C   0  0  0  0  0  0  0  0  0  0  0  0
   59.3500   29.2490   47.9970 C   0  0  0  0  0  0  0  0  0  0  0  0
   58.8530   32.1690   46.2400 N   0  0  0  0  0  0  0  0  0  0  0  0
   56.4820   29.5203   43.8813 H   0  0  0  0  0  0  0  0  0  0  0  0
   56.1117   31.1768   43.2936 H   0  0  0  0  0  0  0  0  0  0  0  0
   57.8066   30.5818   43.2936 H   0  0  0  0  0  0  0  0  0  0  0  0
   56.5127   33.4812   44.1763 H   0  0  0  0  0  0  0  0  0  0  0  0
   57.8376   35.5453   44.6716 H   0  0  0  0  0  0  0  0  0  0  0  0
   59.8209   35.4130   46.1917 H   0  0  0  0  0  0  0  0  0  0  0  0
   61.3648   34.0897   47.3891 H   0  0  0  0  0  0  0  0  0  0  0  0
   60.3802   33.0195   48.4770 H   0  0  0  0  0  0  0  0  0  0  0  0
   61.4690   31.7340   46.1350 H   0  0  0  0  0  0  0  0  0  0  0  0
   63.3162   32.4365   48.3523 H   0  0  0  0  0  0  0  0  0  0  0  0
   63.6922   31.6053   46.8049 H   0  0  0  0  0  0  0  0  0  0  0  0
   63.2502   33.3464   46.8049 H   0  0  0  0  0  0  0  0  0  0  0  0
   62.2241   30.3671   48.3236 H   0  0  0  0  0  0  0  0  0  0  0  0
   60.7390   31.2566   48.8736 H   0  0  0  0  0  0  0  0  0  0  0  0
   61.4633   30.0011   45.4113 H   0  0  0  0  0  0  0  0  0  0  0  0
   59.9843   28.3570   44.2556 H   0  0  0  0  0  0  0  0  0  0  0  0
   58.8884   28.2077   43.5919 H   0  0  0  0  0  0  0  0  0  0  0  0
   58.6350   26.5443   42.9630 H   0  0  0  0  0  0  0  0  0  0  0  0
   57.2778   27.7209   42.9630 H   0  0  0  0  0  0  0  0  0  0  0  0
   57.6899   27.8588   47.8909 H   0  0  0  0  0  0  0  0  0  0  0  0
   59.1669   29.5002   49.0522 H   0  0  0  0  0  0  0  0  0  0  0  0
  1  2  1  0
  2  3  1  0
  3  4  2  0
  4  5  1  0
  5  6  2  0
  6  7  1  0
  7  8  1  0
  8  9  1  0
  9 10  1  0
  9 11  1  0
 11 12  1  0
 12 13  2  0
 13 14  1  0
 14 15  2  0
 15 16  1  0
 16 17  1  0
 15 18  1  0
 18 19  2  0
  7 20  2  0
 20  3  1  0
 19 12  1  0
  1 21  1  0
  1 22  1  0
  1 23  1  0
  4 24  1  0
  5 25  1  0
  6 26  1  0
  8 27  1  0
  8 28  1  0
  9 29  1  6
 10 30  1  0
 10 31  1  0
 10 32  1  0
 11 33  1  0
 11 34  1  0
 13 35  1  0
 14 36  1  0
 17 37  1  0
 17 38  1  0
 17 39  1  0
 18 40  1  0
 19 41  1  0
M  CHG  1   9   1
M  END
>  <UniqueID>  (23) 
23

>  <SMILES>  (23) 
COc1cccc(C[N@@H+](C)Cc2ccc(SC)cc2)n1

>  <Energy>  (23) 
36.50051487576933

>  <Genealogy>  (23) 
COc1cccc(C[NH+](C)Cc2ccc(SC)cc2)n1 (protonated)
COc1cccc(C[N@@H+](C)Cc2ccc(SC)cc2)n1 (chirality)
COc1cccc(C[N@@H+](C)Cc2ccc(SC)cc2)n1 (3D coordinates assigned)
COc1cccc(C[N@@H+](C)Cc2ccc(SC)cc2)n1 (optimized conformer: 36.50051487576933 kcal/mol)

>  <smiles>  (23) 
COc1cccc(CN(C)Cc2ccc(SC)cc2)n1

>  <score_type>  (23) 
oracle

>  <origin>  (23) 
adg

>  <m_score__min__energy>  (23) 
-5.8899999999999997

>  <m_primary>  (23) 
energy

$$$$
23:0
     RDKit          3D

 55 58  0  0  0  0  0  0  0  0999 V2000
   63.6540   32.7760   47.1120 C   0  0  0  0  0  0  0  0  0  0  0  0
   63.2910   32.8470   48.5380 N   0  0  0  0  0  0  0  0  0  0  0  0
   64.4230   32.3920   49.3600 C   0  0  0  0  0  0  0  0  0  0  0  0
   62.8850   34.2180   48.9140 C   0  0  0  0  0  0  0  0  0  0  0  0
   61.9250   34.1960   50.1100 C   0  0  0  0  0  0  0  0  0  0  0  0
   60.5680   34.0960   49.6720 O   0  0  0  0  0  0  0  0  0  0  0  0
   60.0610   33.1590   48.7560 C   0  0  0  0  0  0  0  0  0  0  0  0
   59.4040   33.6400   47.6190 C   0  0  0  0  0  0  0  0  0  0  0  0
   58.8670   32.7570   46.6780 C   0  0  0  0  0  0  0  0  0  0  0  0
   58.9850   31.3680   46.8550 C   0  0  0  0  0  0  0  0  0  0  0  0
   58.4090   30.4280   45.8590 C   0  0  0  0  0  0  0  0  0  0  0  0
   58.3390   30.7740   44.5000 C   0  0  0  0  0  0  0  0  0  0  0  0
   57.8100   29.9090   43.5950 N   0  0  0  0  0  0  0  0  0  0  0  0
   57.3320   28.6910   43.9640 C   0  0  0  0  0  0  0  0  0  0  0  0
   57.3750   28.2880   45.3080 C   0  0  0  0  0  0  0  0  0  0  0  0
   56.8630   26.9650   45.7350 C   0  0  0  0  0  0  0  0  0  0  0  0
   57.5810   25.7970   45.9180 C   0  0  0  0  0  0  0  0  0  0  0  0
   56.6920   24.8690   46.3060 N   0  0  0  0  0  0  0  0  0  0  0  0
   56.9580   23.4570   46.5520 C   0  0  0  0  0  0  0  0  0  0  0  0
   56.7460   22.6690   45.2900 C   0  0  0  0  0  0  0  0  0  0  0  0
   56.5650   23.3270   44.0650 C   0  0  0  0  0  0  0  0  0  0  0  0
   56.3310   22.5780   42.9100 C   0  0  0  0  0  0  0  0  0  0  0  0
   56.2680   21.2210   42.9770 N   0  0  0  0  0  0  0  0  0  0  0  0
   56.4260   20.5580   44.1540 C   0  0  0  0  0  0  0  0  0  0  0  0
   56.6620   21.2700   45.3330 C   0  0  0  0  0  0  0  0  0  0  0  0
   55.4910   25.4220   46.3430 N   0  0  0  0  0  0  0  0  0  0  0  0
   55.5670   26.7020   46.0070 N   0  0  0  0  0  0  0  0  0  0  0  0
   57.9200   29.1720   46.2520 C   0  0  0  0  0  0  0  0  0  0  0  0
   59.6590   30.8840   47.9890 C   0  0  0  0  0  0  0  0  0  0  0  0
   60.1970   31.7680   48.9280 C   0  0  0  0  0  0  0  0  0  0  0  0
   64.7295   32.5656   47.0175 H   0  0  0  0  0  0  0  0  0  0  0  0
   63.0793   31.9732   46.6269 H   0  0  0  0  0  0  0  0  0  0  0  0
   63.4241   33.7361   46.6269 H   0  0  0  0  0  0  0  0  0  0  0  0
   64.1675   32.4947   50.4250 H   0  0  0  0  0  0  0  0  0  0  0  0
   64.6390   31.3372   49.1348 H   0  0  0  0  0  0  0  0  0  0  0  0
   65.3089   33.0039   49.1348 H   0  0  0  0  0  0  0  0  0  0  0  0
   63.7804   34.7981   49.1816 H   0  0  0  0  0  0  0  0  0  0  0  0
   62.3699   34.6791   48.0584 H   0  0  0  0  0  0  0  0  0  0  0  0
   62.1627   33.3312   50.7469 H   0  0  0  0  0  0  0  0  0  0  0  0
   62.0444   35.1326   50.6743 H   0  0  0  0  0  0  0  0  0  0  0  0
   59.3088   34.7248   47.4636 H   0  0  0  0  0  0  0  0  0  0  0  0
   58.3481   33.1523   45.7923 H   0  0  0  0  0  0  0  0  0  0  0  0
   58.7150   31.7521   44.1654 H   0  0  0  0  0  0  0  0  0  0  0  0
   57.7650   30.1890   42.5900 H   0  0  0  0  0  0  0  0  0  0  0  0
   56.9089   28.0170   43.2046 H   0  0  0  0  0  0  0  0  0  0  0  0
   58.6626   25.6568   45.7745 H   0  0  0  0  0  0  0  0  0  0  0  0
   57.9984   23.3350   46.8877 H   0  0  0  0  0  0  0  0  0  0  0  0
   56.2711   23.0890   47.3284 H   0  0  0  0  0  0  0  0  0  0  0  0
   56.6070   24.4250   44.0143 H   0  0  0  0  0  0  0  0  0  0  0  0
   56.1973   23.0866   41.9438 H   0  0  0  0  0  0  0  0  0  0  0  0
   56.3679   19.4598   44.1779 H   0  0  0  0  0  0  0  0  0  0  0  0
   56.7810   20.7369   46.2878 H   0  0  0  0  0  0  0  0  0  0  0  0
   57.9645   28.8777   47.3110 H   0  0  0  0  0  0  0  0  0  0  0  0
   59.7641   29.7993   48.1389 H   0  0  0  0  0  0  0  0  0  0  0  0
   60.7298   31.3751   49.8065 H   0  0  0  0  0  0  0  0  0  0  0  0
  1  2  1  0
  2  3  1  0
  2  4  1  0
  4  5  1  0
  5  6  1  0
  6  7  1  0
  7  8  2  0
  8  9  1  0
  9 10  2  0
 10 11  1  0
 11 12  2  0
 12 13  1  0
 13 14  2  0
 14 15  1  0
 15 16  1  0
 16 17  2  0
 17 18  1  0
 18 19  1  0
 19 20  1  0
 20 21  2  0
 21 22  1  0
 22 23  2  0
 23 24  1  0
 24 25  2  0
 18 26  1  0
 26 27  2  0
 15 28  2  0
 10 29  1  0
 29 30  2  0
 30  7  1  0
 28 11  1  0
 27 16  1  0
 25 20  1  0
  1 31  1  0
  1 32  1  0
  1 33  1  0
  3 34  1  0
  3 35  1  0
  3 36  1  0
  4 37  1  0
  4 38  1  0
  5 39  1  0
  5 40  1  0
  8 41  1  0
  9 42  1  0
 12 43  1  0
 13 44  1  0
 14 45  1  0
 17 46  1  0
 19 47  1  0
 19 48  1  0
 21 49  1  0
 22 50  1  0
 24 51  1  0
 25 52  1  0
 28 53  1  0
 29 54  1  0
 30 55  1  0
M  CHG  1  13   1
M  END
>  <UniqueID>  (24) 
24

>  <SMILES>  (24) 
CN(C)CCOc1ccc(-c2c[nH+]cc(-c3cn(Cc4ccncc4)nn3)c2)cc1

>  <Energy>  (24) 
99.61932984159063

>  <Genealogy>  (24) 
CN(C)CCOc1ccc(-c2c[nH+]cc(-c3cn(Cc4ccncc4)nn3)c2)cc1 (protonated)
CN(C)CCOc1ccc(-c2c[nH+]cc(-c3cn(Cc4ccncc4)nn3)c2)cc1 (3D coordinates assigned)
CN(C)CCOc1ccc(-c2c[nH+]cc(-c3cn(Cc4ccncc4)nn3)c2)cc1 (optimized conformer: 99.61932984159063 kcal/mol)

>  <smiles>  (24) 
CN(C)CCOc1ccc(-c2cncc(-c3cn(Cc4ccncc4)nn3)c2)cc1

>  <score_type>  (24) 
oracle

>  <origin>  (24) 
adg

>  <m_score__min__energy>  (24) 
-7.2400000000000002

>  <m_primary>  (24) 
energy

$$$$
24:0
     RDKit          3D

 38 39  0  0  0  0  0  0  0  0999 V2000
   56.8010   30.1660   43.2770 C   0  0  0  0  0  0  0  0  0  0  0  0
   56.5610   30.8610   44.4970 O   0  0  0  0  0  0  0  0  0  0  0  0
   57.5670   31.3970   45.3150 C   0  0  0  0  0  0  0  0  0  0  0  0
   57.7640   32.7750   45.3070 C   0  0  0  0  0  0  0  0  0  0  0  0
   58.7540   33.3580   46.0990 C   0  0  0  0  0  0  0  0  0  0  0  0
   59.6120   32.5770   46.9220 C   0  0  0  0  0  0  0  0  0  0  0  0
   60.6160   33.2510   47.7900 N   0  0  0  0  0  0  0  0  0  0  0  0
   59.8190   34.1590   48.6860 C   0  0  0  0  0  0  0  0  0  0  0  0
   59.6590   33.7070   50.1580 C   0  0  0  0  0  0  0  0  0  0  0  0
   58.5190   32.3400   50.3110 Cl  0  0  0  0  0  0  0  0  0  0  0  0
   61.3860   32.2840   48.6450 C   0  0  0  0  0  0  0  0  0  0  0  0
   62.3940   31.4540   47.8300 C   0  0  0  0  0  0  0  0  0  0  0  0
   63.4210   32.3490   47.1120 C   0  0  0  0  0  0  0  0  0  0  0  0
   63.0620   33.8380   47.1840 C   0  0  0  0  0  0  0  0  0  0  0  0
   61.5590   34.0540   46.9100 C   0  0  0  0  0  0  0  0  0  0  0  0
   59.3650   31.1750   46.9390 C   0  0  0  0  0  0  0  0  0  0  0  0
   58.3720   30.6000   46.1410 C   0  0  0  0  0  0  0  0  0  0  0  0
   57.1527   29.1475   43.4983 H   0  0  0  0  0  0  0  0  0  0  0  0
   55.8689   30.1137   42.6953 H   0  0  0  0  0  0  0  0  0  0  0  0
   57.5668   30.7001   42.6953 H   0  0  0  0  0  0  0  0  0  0  0  0
   57.1325   33.4112   44.6695 H   0  0  0  0  0  0  0  0  0  0  0  0
   58.8742   34.4513   46.0866 H   0  0  0  0  0  0  0  0  0  0  0  0
   60.3120   35.1424   48.6897 H   0  0  0  0  0  0  0  0  0  0  0  0
   58.8012   34.1609   48.2689 H   0  0  0  0  0  0  0  0  0  0  0  0
   60.6412   33.3967   50.5441 H   0  0  0  0  0  0  0  0  0  0  0  0
   59.2576   34.5536   50.7343 H   0  0  0  0  0  0  0  0  0  0  0  0
   61.9336   32.8500   49.4130 H   0  0  0  0  0  0  0  0  0  0  0  0
   60.6644   31.5869   49.0959 H   0  0  0  0  0  0  0  0  0  0  0  0
   62.9278   30.7738   48.5099 H   0  0  0  0  0  0  0  0  0  0  0  0
   61.8367   30.8914   47.0665 H   0  0  0  0  0  0  0  0  0  0  0  0
   64.4050   32.2013   47.5809 H   0  0  0  0  0  0  0  0  0  0  0  0
   63.4283   32.0602   46.0506 H   0  0  0  0  0  0  0  0  0  0  0  0
   63.3039   34.2190   48.1871 H   0  0  0  0  0  0  0  0  0  0  0  0
   63.6405   34.3772   46.4193 H   0  0  0  0  0  0  0  0  0  0  0  0
   61.3365   35.1210   47.0586 H   0  0  0  0  0  0  0  0  0  0  0  0
   61.3846   33.7062   45.8811 H   0  0  0  0  0  0  0  0  0  0  0  0
   59.9688   30.5302   47.5945 H   0  0  0  0  0  0  0  0  0  0  0  0
   58.2205   29.5107   46.1613 H   0  0  0  0  0  0  0  0  0  0  0  0
  1  2  1  0
  2  3  1  0
  3  4  2  0
  4  5  1  0
  5  6  2  0
  6  7  1  0
  7  8  1  0
  8  9  1  0
  9 10  1  0
  7 11  1  0
 11 12  1  0
 12 13  1  0
 13 14  1  0
 14 15  1  0
  6 16  1  0
 16 17  2  0
 17  3  1  0
 15  7  1  0
  1 18  1  0
  1 19  1  0
  1 20  1  0
  4 21  1  0
  5 22  1  0
  8 23  1  0
  8 24  1  0
  9 25  1  0
  9 26  1  0
 11 27  1  0
 11 28  1  0
 12 29  1  0
 12 30  1  0
 13 31  1  0
 13 32  1  0
 14 33  1  0
 14 34  1  0
 15 35  1  0
 15 36  1  0
 16 37  1  0
 17 38  1  0
M  CHG  1   7   1
M  END
>  <UniqueID>  (25) 
25

>  <SMILES>  (25) 
COc1ccc([N+]2(CCCl)CCCCC2)cc1

>  <Energy>  (25) 
68.9350389907494

>  <Genealogy>  (25) 
COc1ccc([N+]2(CCCl)CCCCC2)cc1 (3D coordinates assigned)
COc1ccc([N+]2(CCCl)CCCCC2)cc1 (nonaromatic ring conformer: 68.9350389907494 kcal/mol)

>  <smiles>  (25) 
COc1ccc([N+]2(CCCl)CCCCC2)cc1

>  <score_type>  (25) 
oracle

>  <origin>  (25) 
adg

>  <m_score__min__energy>  (25) 
-4.46

>  <m_primary>  (25) 
energy

$$$$
25:0
     RDKit          3D

 56 60  0  0  0  0  0  0  0  0999 V2000
   57.3870   28.5890   45.8300 C   0  0  0  0  0  0  0  0  0  0  0  0
   56.5850   29.6500   45.3220 O   0  0  0  0  0  0  0  0  0  0  0  0
   57.0450   30.6430   44.4420 C   0  0  0  0  0  0  0  0  0  0  0  0
   56.8810   30.5410   43.0470 C   0  0  0  0  0  0  0  0  0  0  0  0
   57.3530   31.5510   42.2060 C   0  0  0  0  0  0  0  0  0  0  0  0
   57.9790   32.6760   42.7450 C   0  0  0  0  0  0  0  0  0  0  0  0
   58.1450   32.7880   44.1270 C   0  0  0  0  0  0  0  0  0  0  0  0
   57.7020   31.7640   44.9790 C   0  0  0  0  0  0  0  0  0  0  0  0
   57.8450   31.8740   46.4000 N   0  0  0  0  0  0  0  0  0  0  0  0
   59.0290   32.2510   47.1170 C   0  0  0  0  0  0  0  0  0  0  0  0
   59.9540   31.4010   47.2210 O   0  0  0  0  0  0  0  0  0  0  0  0
   59.2500   33.6750   47.6120 C   0  0  2  0  0  0  0  0  0  0  0  0
   60.1890   34.3540   46.6060 C   0  0  0  0  0  0  0  0  0  0  0  0
   59.6410   35.1300   45.4480 C   0  0  0  0  0  0  0  0  0  0  0  0
   61.4840   34.2080   46.7070 N   0  0  0  0  0  0  0  0  0  0  0  0
   62.0270   33.5530   47.8540 C   0  0  0  0  0  0  0  0  0  0  0  0
   63.3070   33.2010   48.0320 N   0  0  0  0  0  0  0  0  0  0  0  0
   63.3030   32.7050   49.2970 C   0  0  0  0  0  0  0  0  0  0  0  0
   64.4970   32.1750   50.0040 C   0  0  0  0  0  0  0  0  0  0  0  0
   65.7610   32.7750   49.8300 C   0  0  0  0  0  0  0  0  0  0  0  0
   66.8830   32.2770   50.4970 C   0  0  0  0  0  0  0  0  0  0  0  0
   66.7630   31.1770   51.3480 C   0  0  0  0  0  0  0  0  0  0  0  0
   65.5190   30.5720   51.5330 C   0  0  0  0  0  0  0  0  0  0  0  0
   64.3900   31.0630   50.8700 C   0  0  0  0  0  0  0  0  0  0  0  0
   63.2000   30.4410   51.0700 F   0  0  0  0  0  0  0  0  0  0  0  0
   62.0700   32.7740   49.8580 N   0  0  0  0  0  0  0  0  0  0  0  0
   61.2840   33.2910   48.9300 N   0  0  0  0  0  0  0  0  0  0  0  0
   59.8940   33.7490   49.0420 C   0  0  2  0  0  0  0  0  0  0  0  0
   59.1470   33.0890   50.2040 C   0  0  0  0  0  0  0  0  0  0  0  0
   58.8870   33.7360   51.4330 C   0  0  0  0  0  0  0  0  0  0  0  0
   58.2280   33.0660   52.4680 C   0  0  0  0  0  0  0  0  0  0  0  0
   57.8430   31.7340   52.3110 C   0  0  0  0  0  0  0  0  0  0  0  0
   57.2080   31.0890   53.3200 F   0  0  0  0  0  0  0  0  0  0  0  0
   58.1320   31.0630   51.1220 C   0  0  0  0  0  0  0  0  0  0  0  0
   57.7870   29.7590   50.9750 F   0  0  0  0  0  0  0  0  0  0  0  0
   58.7920   31.7300   50.0850 C   0  0  0  0  0  0  0  0  0  0  0  0
   57.3704   28.6110   46.9297 H   0  0  0  0  0  0  0  0  0  0  0  0
   56.9886   27.6266   45.4764 H   0  0  0  0  0  0  0  0  0  0  0  0
   58.4216   28.7097   45.4764 H   0  0  0  0  0  0  0  0  0  0  0  0
   56.3787   29.6615   42.6178 H   0  0  0  0  0  0  0  0  0  0  0  0
   57.2312   31.4597   41.1166 H   0  0  0  0  0  0  0  0  0  0  0  0
   58.3417   33.4745   42.0811 H   0  0  0  0  0  0  0  0  0  0  0  0
   58.6251   33.6827   44.5500 H   0  0  0  0  0  0  0  0  0  0  0  0
   58.2715   34.1714   47.6897 H   0  0  0  0  0  0  0  0  0  0  0  0
   59.0443   35.9749   45.8223 H   0  0  0  0  0  0  0  0  0  0  0  0
   60.4718   35.5106   44.8356 H   0  0  0  0  0  0  0  0  0  0  0  0
   59.0045   34.4744   44.8356 H   0  0  0  0  0  0  0  0  0  0  0  0
   64.0920   33.2990   47.3520 H   0  0  0  0  0  0  0  0  0  0  0  0
   65.8647   33.6434   49.1628 H   0  0  0  0  0  0  0  0  0  0  0  0
   67.8639   32.7531   50.3512 H   0  0  0  0  0  0  0  0  0  0  0  0
   67.6481   30.7874   51.8723 H   0  0  0  0  0  0  0  0  0  0  0  0
   65.4262   29.7049   52.2035 H   0  0  0  0  0  0  0  0  0  0  0  0
   59.8287   34.8040   49.3465 H   0  0  0  0  0  0  0  0  0  0  0  0
   59.2067   34.7786   51.5770 H   0  0  0  0  0  0  0  0  0  0  0  0
   58.0121   33.5911   53.4102 H   0  0  0  0  0  0  0  0  0  0  0  0
   59.0381   31.1853   49.1615 H   0  0  0  0  0  0  0  0  0  0  0  0
  1  2  1  0
  2  3  1  0
  3  4  2  0
  4  5  1  0
  5  6  2  0
  6  7  1  0
  7  8  2  0
  8  9  1  0
  9 10  1  0
 10 11  2  0
 10 12  1  0
 12 13  1  0
 13 14  1  0
 13 15  2  0
 15 16  1  0
 16 17  2  0
 17 18  1  0
 18 19  1  0
 19 20  2  0
 20 21  1  0
 21 22  2  0
 22 23  1  0
 23 24  2  0
 24 25  1  0
 18 26  2  0
 26 27  1  0
 27 28  1  0
 28 29  1  0
 29 30  2  0
 30 31  1  0
 31 32  2  0
 32 33  1  0
 32 34  1  0
 34 35  1  0
 34 36  2  0
  8  3  1  0
 28 12  1  0
 36 29  1  0
 27 16  1  0
 24 19  1  0
  1 37  1  0
  1 38  1  0
  1 39  1  0
  4 40  1  0
  5 41  1  0
  6 42  1  0
  7 43  1  0
 12 44  1  1
 14 45  1  0
 14 46  1  0
 14 47  1  0
 17 48  1  0
 20 49  1  0
 21 50  1  0
 22 51  1  0
 23 52  1  0
 28 53  1  1
 30 54  1  0
 31 55  1  0
 36 56  1  0
M  CHG  2   9  -1  17   1
M  END
>  <UniqueID>  (26) 
26

>  <SMILES>  (26) 
COc1ccccc1[N-]C(=O)[C@@H]1C(C)=Nc2[nH+]c(-c3ccccc3F)nn2[C@@H]1c1ccc(F)c(F)c1

>  <Energy>  (26) 
117.31309474904988

>  <Genealogy>  (26) 
COc1ccccc1[N-]C(=O)C1C(C)=Nc2[nH+]c(-c3ccccc3F)nn2C1c1ccc(F)c(F)c1 (protonated)
COc1ccccc1[N-]C(=O)[C@@H]1C(C)=Nc2[nH+]c(-c3ccccc3F)nn2[C@@H]1c1ccc(F)c(F)c1 (chirality)
COc1ccccc1[N-]C(=O)[C@@H]1C(C)=Nc2[nH+]c(-c3ccccc3F)nn2[C@@H]1c1ccc(F)c(F)c1 (3D coordinates assigned)
COc1ccccc1[N-]C(=O)[C@@H]1C(C)=Nc2[nH+]c(-c3ccccc3F)nn2[C@@H]1c1ccc(F)c(F)c1 (nonaromatic ring conformer: 117.31309474904988 kcal/mol)

>  <smiles>  (26) 
COc1ccccc1NC(=O)C1C(C)=Nc2nc(-c3ccccc3F)nn2C1c1ccc(F)c(F)c1

>  <score_type>  (26) 
oracle

>  <origin>  (26) 
adg

>  <m_score__min__energy>  (26) 
-9.7799999999999994

>  <m_primary>  (26) 
energy

$$$$
26:0
     RDKit          3D

 44 44  0  0  0  0  0  0  0  0999 V2000
   62.8530   33.8550   46.3560 C   0  0  0  0  0  0  0  0  0  0  0  0
   62.9030   33.4080   47.7900 C   0  0  0  0  0  0  0  0  0  0  0  0
   64.1560   33.1660   48.3770 C   0  0  0  0  0  0  0  0  0  0  0  0
   64.2510   32.8020   49.7220 C   0  0  0  0  0  0  0  0  0  0  0  0
   63.0980   32.6680   50.4920 C   0  0  0  0  0  0  0  0  0  0  0  0
   61.8420   32.8870   49.9200 C   0  0  0  0  0  0  0  0  0  0  0  0
   60.4040   32.7000   50.9150 Cl  0  0  0  0  0  0  0  0  0  0  0  0
   61.7300   33.2310   48.5630 C   0  0  0  0  0  0  0  0  0  0  0  0
   60.4460   33.4150   48.0280 O   0  0  0  0  0  0  0  0  0  0  0  0
   59.6470   34.5840   48.2250 C   0  0  0  0  0  0  0  0  0  0  0  0
   59.4190   35.3400   46.9130 C   0  0  0  0  0  0  0  0  0  0  0  0
   59.7010   34.5110   45.8010 O   0  0  0  0  0  0  0  0  0  0  0  0
   58.6520   34.5710   44.8550 C   0  0  0  0  0  0  0  0  0  0  0  0
   57.9930   33.1990   44.7350 C   0  0  0  0  0  0  0  0  0  0  0  0
   58.3210   32.3760   45.8970 N   0  0  0  0  0  0  0  0  0  0  0  0
   57.9190   31.0030   46.0050 C   0  0  0  0  0  0  0  0  0  0  0  0
   57.0480   30.5350   45.2250 O   0  0  0  0  0  0  0  0  0  0  0  0
   58.5440   30.1030   47.0400 C   0  0  0  0  0  0  0  0  0  0  0  0
   59.8680   30.5720   47.5070 N   0  0  0  0  0  0  0  0  0  0  0  0
   60.3090   29.8840   48.7320 C   0  0  0  0  0  0  0  0  0  0  0  0
   60.8950   30.4850   46.4570 C   0  0  0  0  0  0  0  0  0  0  0  0
   62.7308   34.9475   46.3165 H   0  0  0  0  0  0  0  0  0  0  0  0
   63.7884   33.5722   45.8509 H   0  0  0  0  0  0  0  0  0  0  0  0
   62.0032   33.3725   45.8509 H   0  0  0  0  0  0  0  0  0  0  0  0
   65.0697   33.2640   47.7725 H   0  0  0  0  0  0  0  0  0  0  0  0
   65.2375   32.6209   50.1738 H   0  0  0  0  0  0  0  0  0  0  0  0
   63.1764   32.3890   51.5532 H   0  0  0  0  0  0  0  0  0  0  0  0
   58.6725   34.2846   48.6382 H   0  0  0  0  0  0  0  0  0  0  0  0
   60.1799   35.2516   48.9181 H   0  0  0  0  0  0  0  0  0  0  0  0
   58.3699   35.6669   46.8625 H   0  0  0  0  0  0  0  0  0  0  0  0
   60.0922   36.2095   46.8849 H   0  0  0  0  0  0  0  0  0  0  0  0
   57.9049   35.3088   45.1828 H   0  0  0  0  0  0  0  0  0  0  0  0
   59.0580   34.8686   43.8769 H   0  0  0  0  0  0  0  0  0  0  0  0
   56.9018   33.3244   44.6754 H   0  0  0  0  0  0  0  0  0  0  0  0
   58.3650   32.7013   43.8273 H   0  0  0  0  0  0  0  0  0  0  0  0
   59.0130   32.7520   46.5840 H   0  0  0  0  0  0  0  0  0  0  0  0
   57.8687   30.0472   47.9065 H   0  0  0  0  0  0  0  0  0  0  0  0
   58.6964   29.1219   46.5665 H   0  0  0  0  0  0  0  0  0  0  0  0
   59.9532   30.4390   49.6126 H   0  0  0  0  0  0  0  0  0  0  0  0
   59.8954   28.8648   48.7493 H   0  0  0  0  0  0  0  0  0  0  0  0
   61.4077   29.8342   48.7493 H   0  0  0  0  0  0  0  0  0  0  0  0
   61.8884   30.4008   46.9218 H   0  0  0  0  0  0  0  0  0  0  0  0
   60.7064   29.5996   45.8321 H   0  0  0  0  0  0  0  0  0  0  0  0
   60.8580   31.3895   45.8321 H   0  0  0  0  0  0  0  0  0  0  0  0
  1  2  1  0
  2  3  2  0
  3  4  1  0
  4  5  2  0
  5  6  1  0
  6  7  1  0
  6  8  2  0
  8  9  1  0
  9 10  1  0
 10 11  1  0
 11 12  1  0
 12 13  1  0
 13 14  1  0
 14 15  1  0
 15 16  1  0
 16 17  2  0
 16 18  1  0
 18 19  1  0
 19 20  1  0
 19 21  1  0
  8  2  1  0
  1 22  1  0
  1 23  1  0
  1 24  1  0
  3 25  1  0
  4 26  1  0
  5 27  1  0
 10 28  1  0
 10 29  1  0
 11 30  1  0
 11 31  1  0
 13 32  1  0
 13 33  1  0
 14 34  1  0
 14 35  1  0
 15 36  1  0
 18 37  1  0
 18 38  1  0
 20 39  1  0
 20 40  1  0
 20 41  1  0
 21 42  1  0
 21 43  1  0
 21 44  1  0
M  END
>  <UniqueID>  (27) 
27

>  <SMILES>  (27) 
Cc1cccc(Cl)c1OCCOCCNC(=O)CN(C)C

>  <Energy>  (27) 
40.50604855351531

>  <Genealogy>  (27) 
Cc1cccc(Cl)c1OCCOCCNC(=O)CN(C)C (3D coordinates assigned)
Cc1cccc(Cl)c1OCCOCCNC(=O)CN(C)C (optimized conformer: 40.50604855351531 kcal/mol)

>  <smiles>  (27) 
Cc1cccc(Cl)c1OCCOCCNC(=O)CN(C)C

>  <score_type>  (27) 
oracle

>  <origin>  (27) 
adg

>  <m_score__min__energy>  (27) 
-5.3899999999999997

>  <m_primary>  (27) 
energy

$$$$
27:0
     RDKit          3D

 44 46  0  0  0  0  0  0  0  0999 V2000
   57.7830   32.2890   42.5520 C   0  0  0  0  0  0  0  0  0  0  0  0
   58.0660   32.0250   43.9990 C   0  0  0  0  0  0  0  0  0  0  0  0
   58.8390   32.8850   44.7180 N   0  0  0  0  0  0  0  0  0  0  0  0
   58.9460   32.5210   46.0150 C   0  0  0  0  0  0  0  0  0  0  0  0
   59.7560   33.2430   46.9590 N   0  0  0  0  0  0  0  0  0  0  0  0
   59.3780   34.3720   47.6100 C   0  0  0  0  0  0  0  0  0  0  0  0
   60.3360   34.8690   48.4320 N   0  0  0  0  0  0  0  0  0  0  0  0
   61.3480   33.9960   48.2810 C   0  0  0  0  0  0  0  0  0  0  0  0
   62.5830   34.0240   48.9230 C   0  0  0  0  0  0  0  0  0  0  0  0
   63.5060   32.9930   48.6520 C   0  0  0  0  0  0  0  0  0  0  0  0
   64.7860   33.0110   49.3120 N   0  0  0  0  0  0  0  0  0  0  0  0
   65.2830   31.9530   50.1920 C   0  0  0  0  0  0  0  0  0  0  0  0
   66.7540   32.1940   50.5490 C   0  0  0  0  0  0  0  0  0  0  0  0
   67.0680   33.6380   50.5120 N   0  0  0  0  0  0  0  0  0  0  0  0
   66.4970   34.3320   51.6800 C   0  0  0  0  0  0  0  0  0  0  0  0
   68.5260   33.8420   50.4900 C   0  0  0  0  0  0  0  0  0  0  0  0
   63.1390   31.9530   47.7520 C   0  0  0  0  0  0  0  0  0  0  0  0
   61.8820   31.9540   47.1210 C   0  0  0  0  0  0  0  0  0  0  0  0
   61.0100   33.0100   47.3980 C   0  0  0  0  0  0  0  0  0  0  0  0
   58.1070   31.0960   46.3170 S   0  0  0  0  0  0  0  0  0  0  0  0
   57.5740   30.9310   44.7280 C   0  0  0  0  0  0  0  0  0  0  0  0
   56.7140   29.8270   44.2650 C   0  0  0  0  0  0  0  0  0  0  0  0
   57.0950   28.9840   43.1780 N   0  0  0  0  0  0  0  0  0  0  0  0
   55.6340   29.5950   44.8710 O   0  0  0  0  0  0  0  0  0  0  0  0
   56.9811   33.0370   42.4658 H   0  0  0  0  0  0  0  0  0  0  0  0
   58.6927   32.6687   42.0638 H   0  0  0  0  0  0  0  0  0  0  0  0
   57.4674   31.3552   42.0638 H   0  0  0  0  0  0  0  0  0  0  0  0
   58.3902   34.8391   47.4834 H   0  0  0  0  0  0  0  0  0  0  0  0
   62.8332   34.8323   49.6259 H   0  0  0  0  0  0  0  0  0  0  0  0
   65.4090   33.8380   49.1630 H   0  0  0  0  0  0  0  0  0  0  0  0
   64.6846   31.9398   51.1149 H   0  0  0  0  0  0  0  0  0  0  0  0
   65.1985   30.9887   49.6695 H   0  0  0  0  0  0  0  0  0  0  0  0
   66.9487   31.8074   51.5603 H   0  0  0  0  0  0  0  0  0  0  0  0
   67.3871   31.6743   49.8148 H   0  0  0  0  0  0  0  0  0  0  0  0
   66.8772   33.8699   52.6030 H   0  0  0  0  0  0  0  0  0  0  0  0
   66.7874   35.3927   51.6544 H   0  0  0  0  0  0  0  0  0  0  0  0
   65.4003   34.2514   51.6544 H   0  0  0  0  0  0  0  0  0  0  0  0
   68.9044   33.8949   51.5215 H   0  0  0  0  0  0  0  0  0  0  0  0
   69.0059   33.0022   49.9660 H   0  0  0  0  0  0  0  0  0  0  0  0
   68.7570   34.7812   49.9660 H   0  0  0  0  0  0  0  0  0  0  0  0
   63.8482   31.1374   47.5472 H   0  0  0  0  0  0  0  0  0  0  0  0
   61.5941   31.1478   46.4303 H   0  0  0  0  0  0  0  0  0  0  0  0
   58.0660   28.9920   42.7980 H   0  0  0  0  0  0  0  0  0  0  0  0
   56.4340   28.2550   42.8270 H   0  0  0  0  0  0  0  0  0  0  0  0
  1  2  1  0
  2  3  1  0
  3  4  2  0
  4  5  1  0
  5  6  1  0
  6  7  2  0
  7  8  1  0
  8  9  2  0
  9 10  1  0
 10 11  1  0
 11 12  1  0
 12 13  1  0
 13 14  1  0
 14 15  1  0
 14 16  1  0
 10 17  2  0
 17 18  1  0
 18 19  2  0
  4 20  1  0
 20 21  1  0
 21 22  1  0
 22 23  1  0
 22 24  2  0
 21  2  2  0
 19  5  1  0
 19  8  1  0
  1 25  1  0
  1 26  1  0
  1 27  1  0
  6 28  1  0
  9 29  1  0
 11 30  1  0
 12 31  1  0
 12 32  1  0
 13 33  1  0
 13 34  1  0
 15 35  1  0
 15 36  1  0
 15 37  1  0
 16 38  1  0
 16 39  1  0
 16 40  1  0
 17 41  1  0
 18 42  1  0
 23 43  1  0
 23 44  1  0
M  END
>  <UniqueID>  (28) 
28

>  <SMILES>  (28) 
Cc1nc(-n2cnc3cc(NCCN(C)C)ccc32)sc1C(N)=O

>  <Energy>  (28) 
115.7523925548088

>  <Genealogy>  (28) 
Cc1nc(-n2cnc3cc(NCCN(C)C)ccc32)sc1C(N)=O (3D coordinates assigned)
Cc1nc(-n2cnc3cc(NCCN(C)C)ccc32)sc1C(N)=O (optimized conformer: 115.7523925548088 kcal/mol)

>  <smiles>  (28) 
Cc1nc(-n2cnc3cc(NCCN(C)C)ccc32)sc1C(N)=O

>  <score_type>  (28) 
oracle

>  <origin>  (28) 
adg

>  <m_score__min__energy>  (28) 
-7.8300000000000001

>  <m_primary>  (28) 
energy

$$$$
28:0
     RDKit          3D

 42 43  0  0  0  0  0  0  0  0999 V2000
   58.5340   32.5570   48.5140 C   0  0  0  0  0  0  0  0  0  0  0  0
   59.6980   33.5120   48.2620 C   0  0  0  0  0  0  0  0  0  0  0  0
   60.4780   33.0690   47.0830 N   0  0  0  0  0  0  0  0  0  0  0  0
   60.2960   33.9980   45.9430 C   0  0  0  0  0  0  0  0  0  0  0  0
   58.8910   34.5920   45.9630 C   0  0  0  0  0  0  0  0  0  0  0  0
   61.9110   32.9140   47.4210 C   0  0  0  0  0  0  0  0  0  0  0  0
   62.1460   31.5710   48.1330 C   0  0  0  0  0  0  0  0  0  0  0  0
   61.0940   30.5050   47.7660 C   0  0  0  0  0  0  0  0  0  0  0  0
   60.8720   30.3670   46.3150 N   0  0  0  0  0  0  0  0  0  0  0  0
   59.7310   29.5250   46.0180 C   0  0  0  0  0  0  0  0  0  0  0  0
   59.8070   28.1420   46.2620 C   0  0  0  0  0  0  0  0  0  0  0  0
   58.7150   27.3080   46.0090 C   0  0  0  0  0  0  0  0  0  0  0  0
   58.8470   25.4350   46.3590 Br  0  0  0  0  0  0  0  0  0  0  0  0
   57.5260   27.8410   45.5070 C   0  0  0  0  0  0  0  0  0  0  0  0
   57.4250   29.2160   45.2460 C   0  0  0  0  0  0  0  0  0  0  0  0
   56.2480   29.7960   44.7370 C   0  0  0  0  0  0  0  0  0  0  0  0
   55.2300   29.0930   44.4970 O   0  0  0  0  0  0  0  0  0  0  0  0
   56.2040   31.1320   44.4980 N   0  0  0  0  0  0  0  0  0  0  0  0
   57.2770   31.9260   44.7390 C   0  0  0  0  0  0  0  0  0  0  0  0
   58.4230   31.3920   45.2320 N   0  0  0  0  0  0  0  0  0  0  0  0
   58.5300   30.0620   45.4970 C   0  0  0  0  0  0  0  0  0  0  0  0
   58.3868   32.4362   49.5974 H   0  0  0  0  0  0  0  0  0  0  0  0
   57.6186   32.9677   48.0631 H   0  0  0  0  0  0  0  0  0  0  0  0
   58.7579   31.5790   48.0631 H   0  0  0  0  0  0  0  0  0  0  0  0
   59.3052   34.5230   48.0787 H   0  0  0  0  0  0  0  0  0  0  0  0
   60.3544   33.5181   49.1446 H   0  0  0  0  0  0  0  0  0  0  0  0
   61.0344   34.8102   46.0153 H   0  0  0  0  0  0  0  0  0  0  0  0
   60.4366   33.4433   45.0035 H   0  0  0  0  0  0  0  0  0  0  0  0
   58.5658   34.7295   47.0048 H   0  0  0  0  0  0  0  0  0  0  0  0
   58.8968   35.5647   45.4493 H   0  0  0  0  0  0  0  0  0  0  0  0
   58.1973   33.9102   45.4493 H   0  0  0  0  0  0  0  0  0  0  0  0
   62.5077   32.9450   46.4974 H   0  0  0  0  0  0  0  0  0  0  0  0
   62.2127   33.7330   48.0904 H   0  0  0  0  0  0  0  0  0  0  0  0
   63.1404   31.1941   47.8520 H   0  0  0  0  0  0  0  0  0  0  0  0
   62.0679   31.7530   49.2150 H   0  0  0  0  0  0  0  0  0  0  0  0
   61.4307   29.5346   48.1597 H   0  0  0  0  0  0  0  0  0  0  0  0
   60.1402   30.8288   48.2080 H   0  0  0  0  0  0  0  0  0  0  0  0
   61.7230   29.9220   45.8980 H   0  0  0  0  0  0  0  0  0  0  0  0
   60.7910   31.3070   45.8680 H   0  0  0  0  0  0  0  0  0  0  0  0
   60.7387   27.7111   46.6573 H   0  0  0  0  0  0  0  0  0  0  0  0
   56.6666   27.1815   45.3157 H   0  0  0  0  0  0  0  0  0  0  0  0
   57.2181   33.0052   44.5344 H   0  0  0  0  0  0  0  0  0  0  0  0
  1  2  1  0
  2  3  1  0
  3  4  1  0
  4  5  1  0
  3  6  1  0
  6  7  1  0
  7  8  1  0
  8  9  1  0
  9 10  1  0
 10 11  2  0
 11 12  1  0
 12 13  1  0
 12 14  2  0
 14 15  1  0
 15 16  1  0
 16 17  2  0
 16 18  1  0
 18 19  1  0
 19 20  2  0
 20 21  1  0
 21 10  1  0
 21 15  2  0
  1 22  1  0
  1 23  1  0
  1 24  1  0
  2 25  1  0
  2 26  1  0
  4 27  1  0
  4 28  1  0
  5 29  1  0
  5 30  1  0
  5 31  1  0
  6 32  1  0
  6 33  1  0
  7 34  1  0
  7 35  1  0
  8 36  1  0
  8 37  1  0
  9 38  1  0
  9 39  1  0
 11 40  1  0
 14 41  1  0
 19 42  1  0
M  CHG  2   9   1  18  -1
M  END
>  <UniqueID>  (29) 
29

>  <SMILES>  (29) 
CCN(CC)CCC[NH2+]c1cc(Br)cc2c(=O)[n-]cnc12

>  <Energy>  (29) 
43.997475061323584

>  <Genealogy>  (29) 
CCN(CC)CCC[NH2+]c1cc(Br)cc2c(=O)[n-]cnc12 (protonated)
CCN(CC)CCC[NH2+]c1cc(Br)cc2c(=O)[n-]cnc12 (3D coordinates assigned)
CCN(CC)CCC[NH2+]c1cc(Br)cc2c(=O)[n-]cnc12 (optimized conformer: 43.997475061323584 kcal/mol)

>  <smiles>  (29) 
CCN(CC)CCCNc1cc(Br)cc2c(=O)[nH]cnc12

>  <score_type>  (29) 
oracle

>  <origin>  (29) 
adg

>  <m_score__min__energy>  (29) 
-7.2199999999999998

>  <m_primary>  (29) 
energy

$$$$
29:0
     RDKit          3D

 47 50  0  0  0  0  0  0  0  0999 V2000
   58.4069   35.2765   46.8590 H   0  0  0  0  0  0  0  0  0  0  0  0
   58.9490   34.3810   46.5210 C   0  0  0  0  0  0  0  0  0  0  0  0
   58.2250   33.0960   46.4750 C   0  0  0  0  0  0  0  0  0  0  0  0
   57.0790   33.0720   45.9520 O   0  0  0  0  0  0  0  0  0  0  0  0
   58.7710   31.9000   47.0610 N   0  0  0  0  0  0  0  0  0  0  0  0
   59.4120   32.0020   47.8790 H   0  0  0  0  0  0  0  0  0  0  0  0
   58.3560   30.5730   46.6930 C   0  0  0  0  0  0  0  0  0  0  0  0
   57.6360   30.3320   45.5110 C   0  0  0  0  0  0  0  0  0  0  0  0
   57.3653   31.1728   44.8554 H   0  0  0  0  0  0  0  0  0  0  0  0
   57.2610   29.0310   45.1620 C   0  0  0  0  0  0  0  0  0  0  0  0
   56.6936   28.8558   44.2360 H   0  0  0  0  0  0  0  0  0  0  0  0
   57.6040   27.9460   45.9860 C   0  0  0  0  0  0  0  0  0  0  0  0
   57.2260   26.5590   45.6290 C   0  0  0  0  0  0  0  0  0  0  0  0
   58.1440   25.6090   45.2970 N   0  0  0  0  0  0  0  0  0  0  0  0
   57.3910   24.5130   45.0820 C   0  0  0  0  0  0  0  0  0  0  0  0
   57.8240   23.2360   44.7330 C   0  0  0  0  0  0  0  0  0  0  0  0
   58.8906   23.0214   44.5708 H   0  0  0  0  0  0  0  0  0  0  0  0
   56.8490   22.2290   44.5950 C   0  0  0  0  0  0  0  0  0  0  0  0
   57.1526   21.2094   44.3151 H   0  0  0  0  0  0  0  0  0  0  0  0
   55.4810   22.5200   44.8140 C   0  0  0  0  0  0  0  0  0  0  0  0
   54.7289   21.7245   44.7061 H   0  0  0  0  0  0  0  0  0  0  0  0
   55.0770   23.8210   45.1690 C   0  0  0  0  0  0  0  0  0  0  0  0
   54.0188   24.0624   45.3477 H   0  0  0  0  0  0  0  0  0  0  0  0
   56.0710   24.7910   45.2850 C   0  0  0  0  0  0  0  0  0  0  0  0
   55.9560   26.0780   45.6220 N   0  0  0  0  0  0  0  0  0  0  0  0
   54.8100   26.7130   46.0450 O   0  0  0  0  0  0  0  0  0  0  0  0
   58.3560   28.1860   47.1480 C   0  0  0  0  0  0  0  0  0  0  0  0
   58.6536   27.3431   47.7891 H   0  0  0  0  0  0  0  0  0  0  0  0
   58.7290   29.4870   47.4960 C   0  0  0  0  0  0  0  0  0  0  0  0
   59.3201   29.6599   48.4075 H   0  0  0  0  0  0  0  0  0  0  0  0
   60.2370   34.5080   46.1700 C   0  0  0  0  0  0  0  0  0  0  0  0
   60.4805   35.0466   45.2423 H   0  0  0  0  0  0  0  0  0  0  0  0
   61.3440   33.9530   46.9800 C   0  0  0  0  0  0  0  0  0  0  0  0
   62.6080   33.8360   46.3770 C   0  0  0  0  0  0  0  0  0  0  0  0
   62.7467   34.1572   45.3341 H   0  0  0  0  0  0  0  0  0  0  0  0
   63.6880   33.3160   47.0900 C   0  0  0  0  0  0  0  0  0  0  0  0
   64.6704   33.2188   46.6047 H   0  0  0  0  0  0  0  0  0  0  0  0
   63.5250   32.9190   48.4170 C   0  0  0  0  0  0  0  0  0  0  0  0
   64.3758   32.4982   48.9729 H   0  0  0  0  0  0  0  0  0  0  0  0
   62.2830   33.0550   49.0410 C   0  0  0  0  0  0  0  0  0  0  0  0
   62.1621   32.7445   50.0893 H   0  0  0  0  0  0  0  0  0  0  0  0
   61.1830   33.5870   48.3380 C   0  0  0  0  0  0  0  0  0  0  0  0
   59.9410   33.7890   48.9640 O   0  0  0  0  0  0  0  0  0  0  0  0
   59.6640   33.4960   50.3290 C   0  0  0  0  0  0  0  0  0  0  0  0
   60.2759   34.1433   50.9744 H   0  0  0  0  0  0  0  0  0  0  0  0
   58.5983   33.6762   50.5337 H   0  0  0  0  0  0  0  0  0  0  0  0
   59.9037   32.4421   50.5337 H   0  0  0  0  0  0  0  0  0  0  0  0
  1  2  1  0
  2  3  1  0
  3  4  2  0
  3  5  1  0
  5  6  1  0
  5  7  1  0
  7  8  2  0
  8  9  1  0
  8 10  1  0
 10 11  1  0
 10 12  2  0
 12 13  1  0
 13 14  2  0
 14 15  1  0
 15 16  2  0
 16 17  1  0
 16 18  1  0
 18 19  1  0
 18 20  2  0
 20 21  1  0
 20 22  1  0
 22 23  1  0
 22 24  2  0
 24 25  1  0
 25 26  1  0
 12 27  1  0
 27 28  1  0
 27 29  2  0
 29 30  1  0
  2 31  2  0
 31 32  1  0
 31 33  1  0
 33 34  2  0
 34 35  1  0
 34 36  1  0
 36 37  1  0
 36 38  2  0
 38 39  1  0
 38 40  1  0
 40 41  1  0
 40 42  2  0
 42 43  1  0
 43 44  1  0
 44 45  1  0
 44 46  1  0
 44 47  1  0
 29  7  1  0
 42 33  1  0
 25 13  1  0
 24 15  1  0
M  CHG  1  26  -1
M  END
>  <UniqueID>  (30) 
30

>  <SMILES>  (30) 
COc1ccccc1/C=C/C(=O)Nc1ccc(-c2nc3ccccc3n2[O-])cc1

>  <Energy>  (30) 
102.24890771711604

>  <Genealogy>  (30) 
COc1ccccc1C=CC(=O)Nc1ccc(-c2nc3ccccc3n2[O-])cc1 (protonated)
COc1ccccc1/C=C/C(=O)Nc1ccc(-c2nc3ccccc3n2[O-])cc1 (cis-trans isomerization)
COc1ccccc1/C=C/C(=O)Nc1ccc(-c2nc3ccccc3n2[O-])cc1 (3D coordinates assigned)
COc1ccccc1/C=C/C(=O)Nc1ccc(-c2nc3ccccc3n2[O-])cc1 (optimized conformer: 102.24890771711604 kcal/mol)

>  <smiles>  (30) 
COc1ccccc1C=CC(=O)Nc1ccc(-c2nc3ccccc3n2O)cc1

>  <score_type>  (30) 
oracle

>  <origin>  (30) 
adg

>  <m_score__min__energy>  (30) 
-12.279999999999999

>  <m_primary>  (30) 
energy

$$$$
30:0
     RDKit          3D

 45 46  0  0  0  0  0  0  0  0999 V2000
   60.4570   31.9240   47.1840 C   0  0  0  0  0  0  0  0  0  0  0  0
   59.1870   31.1940   47.6370 C   0  0  0  0  0  0  0  0  0  0  0  0
   58.9660   29.9210   46.9060 N   0  0  0  0  0  0  0  0  0  0  0  0
   60.1220   29.6500   46.0140 C   0  0  0  0  0  0  0  0  0  0  0  0
   60.2370   28.1630   45.5970 C   0  0  0  0  0  0  0  0  0  0  0  0
   58.9530   27.4430   45.7000 N   0  0  0  0  0  0  0  0  0  0  0  0
   58.0010   27.8050   44.6240 C   0  0  0  0  0  0  0  0  0  0  0  0
   56.6900   28.2440   45.2180 C   0  0  0  0  0  0  0  0  0  0  0  0
   55.8950   27.3730   45.6610 O   0  0  0  0  0  0  0  0  0  0  0  0
   56.2840   29.6190   45.2290 N   0  0  0  0  0  0  0  0  0  0  0  0
   56.8690   30.6680   44.4440 C   0  0  0  0  0  0  0  0  0  0  0  0
   57.4060   31.8060   45.0670 C   0  0  0  0  0  0  0  0  0  0  0  0
   57.9830   32.8310   44.3080 C   0  0  0  0  0  0  0  0  0  0  0  0
   58.6140   34.0090   44.9900 C   0  0  0  0  0  0  0  0  0  0  0  0
   58.0260   32.7150   42.9120 C   0  0  0  0  0  0  0  0  0  0  0  0
   57.4570   31.6050   42.2810 C   0  0  0  0  0  0  0  0  0  0  0  0
   56.8590   30.5840   43.0380 C   0  0  0  0  0  0  0  0  0  0  0  0
   56.2730   29.3830   42.3480 C   0  0  0  0  0  0  0  0  0  0  0  0
   58.3850   27.5040   47.0690 C   0  0  0  0  0  0  0  0  0  0  0  0
   58.7580   28.7920   47.8350 C   0  0  0  0  0  0  0  0  0  0  0  0
   61.0263   32.2513   48.0665 H   0  0  0  0  0  0  0  0  0  0  0  0
   61.0755   31.2435   46.5803 H   0  0  0  0  0  0  0  0  0  0  0  0
   60.1803   32.8009   46.5803 H   0  0  0  0  0  0  0  0  0  0  0  0
   59.2725   30.9727   48.7111 H   0  0  0  0  0  0  0  0  0  0  0  0
   58.3317   31.8521   47.4240 H   0  0  0  0  0  0  0  0  0  0  0  0
   58.1090   30.0300   46.3130 H   0  0  0  0  0  0  0  0  0  0  0  0
   60.0127   30.2602   45.1053 H   0  0  0  0  0  0  0  0  0  0  0  0
   61.0336   29.9030   46.5752 H   0  0  0  0  0  0  0  0  0  0  0  0
   60.5847   28.1155   44.5545 H   0  0  0  0  0  0  0  0  0  0  0  0
   60.9463   27.6785   46.2842 H   0  0  0  0  0  0  0  0  0  0  0  0
   58.4228   28.6267   44.0266 H   0  0  0  0  0  0  0  0  0  0  0  0
   57.8298   26.9263   43.9848 H   0  0  0  0  0  0  0  0  0  0  0  0
   57.3729   31.8930   46.1631 H   0  0  0  0  0  0  0  0  0  0  0  0
   58.5456   33.8813   46.0804 H   0  0  0  0  0  0  0  0  0  0  0  0
   59.6712   34.0806   44.6948 H   0  0  0  0  0  0  0  0  0  0  0  0
   58.0878   34.9288   44.6948 H   0  0  0  0  0  0  0  0  0  0  0  0
   58.5089   33.4997   42.3111 H   0  0  0  0  0  0  0  0  0  0  0  0
   57.4777   31.5305   41.1837 H   0  0  0  0  0  0  0  0  0  0  0  0
   55.9215   28.6626   43.1013 H   0  0  0  0  0  0  0  0  0  0  0  0
   55.4273   29.6979   41.7190 H   0  0  0  0  0  0  0  0  0  0  0  0
   57.0416   28.9102   41.7190 H   0  0  0  0  0  0  0  0  0  0  0  0
   57.2890   27.4489   46.9938 H   0  0  0  0  0  0  0  0  0  0  0  0
   58.8080   26.6591   47.6323 H   0  0  0  0  0  0  0  0  0  0  0  0
   57.9445   29.0445   48.5310 H   0  0  0  0  0  0  0  0  0  0  0  0
   59.6945   28.6136   48.3837 H   0  0  0  0  0  0  0  0  0  0  0  0
  1  2  1  0
  2  3  1  0
  3  4  1  0
  4  5  1  0
  5  6  1  0
  6  7  1  0
  7  8  1  0
  8  9  2  0
  8 10  1  0
 10 11  1  0
 11 12  2  0
 12 13  1  0
 13 14  1  0
 13 15  2  0
 15 16  1  0
 16 17  2  0
 17 18  1  0
  6 19  1  0
 19 20  1  0
 20  3  1  0
 17 11  1  0
  1 21  1  0
  1 22  1  0
  1 23  1  0
  2 24  1  0
  2 25  1  0
  3 26  1  0
  4 27  1  0
  4 28  1  0
  5 29  1  0
  5 30  1  0
  7 31  1  0
  7 32  1  0
 12 33  1  0
 14 34  1  0
 14 35  1  0
 14 36  1  0
 15 37  1  0
 16 38  1  0
 18 39  1  0
 18 40  1  0
 18 41  1  0
 19 42  1  0
 19 43  1  0
 20 44  1  0
 20 45  1  0
M  CHG  2   3   1  10  -1
M  END
>  <UniqueID>  (31) 
31

>  <SMILES>  (31) 
CC[NH+]1CCN(CC(=O)[N-]c2cc(C)ccc2C)CC1

>  <Energy>  (31) 
59.949585091501326

>  <Genealogy>  (31) 
CC[NH+]1CCN(CC(=O)[N-]c2cc(C)ccc2C)CC1 (protonated)
CC[NH+]1CCN(CC(=O)[N-]c2cc(C)ccc2C)CC1 (3D coordinates assigned)
CC[NH+]1CCN(CC(=O)[N-]c2cc(C)ccc2C)CC1 (nonaromatic ring conformer: 59.949585091501326 kcal/mol)

>  <smiles>  (31) 
CCN1CCN(CC(=O)Nc2cc(C)ccc2C)CC1

>  <score_type>  (31) 
oracle

>  <origin>  (31) 
adg

>  <m_score__min__energy>  (31) 
-6.7599999999999998

>  <m_primary>  (31) 
energy

$$$$
31:0
     RDKit          3D

 41 44  0  0  0  0  0  0  0  0999 V2000
   55.5820   29.7230   43.3930 C   0  0  0  0  0  0  0  0  0  0  0  0
   56.0930   29.3460   44.6670 O   0  0  0  0  0  0  0  0  0  0  0  0
   57.3980   29.6120   45.1150 C   0  0  0  0  0  0  0  0  0  0  0  0
   57.7590   30.8610   45.6580 C   0  0  0  0  0  0  0  0  0  0  0  0
   59.0770   31.1080   46.0840 C   0  0  0  0  0  0  0  0  0  0  0  0
   59.4510   32.4270   46.6540 C   0  0  0  0  0  0  0  0  0  0  0  0
   59.8960   32.5400   47.9840 C   0  0  0  0  0  0  0  0  0  0  0  0
   60.2350   33.7530   48.4950 N   0  0  0  0  0  0  0  0  0  0  0  0
   60.1630   34.8890   47.7520 C   0  0  0  0  0  0  0  0  0  0  0  0
   59.7280   34.8290   46.4280 C   0  0  0  0  0  0  0  0  0  0  0  0
   59.6560   35.9580   45.6800 F   0  0  0  0  0  0  0  0  0  0  0  0
   59.3710   33.5960   45.8780 C   0  0  0  0  0  0  0  0  0  0  0  0
   60.0350   30.0890   45.9600 C   0  0  0  0  0  0  0  0  0  0  0  0
   59.6850   28.8480   45.4250 C   0  0  0  0  0  0  0  0  0  0  0  0
   58.3700   28.5980   45.0120 C   0  0  0  0  0  0  0  0  0  0  0  0
   58.0260   27.2750   44.4430 C   0  0  0  0  0  0  0  0  0  0  0  0
   58.0840   27.1080   43.0520 C   0  0  0  0  0  0  0  0  0  0  0  0
   57.7460   25.9220   42.4800 N   0  0  0  0  0  0  0  0  0  0  0  0
   57.3470   24.8580   43.2250 C   0  0  0  0  0  0  0  0  0  0  0  0
   57.2830   24.9560   44.6200 C   0  0  0  0  0  0  0  0  0  0  0  0
   56.8850   23.8560   45.3930 C   0  0  0  0  0  0  0  0  0  0  0  0
   56.8410   23.9560   46.7850 C   0  0  0  0  0  0  0  0  0  0  0  0
   57.2010   25.1490   47.4140 C   0  0  0  0  0  0  0  0  0  0  0  0
   57.5990   26.2530   46.6560 C   0  0  0  0  0  0  0  0  0  0  0  0
   57.6340   26.1780   45.2480 C   0  0  0  0  0  0  0  0  0  0  0  0
   54.7035   30.3712   43.5275 H   0  0  0  0  0  0  0  0  0  0  0  0
   56.3570   30.2673   42.8335 H   0  0  0  0  0  0  0  0  0  0  0  0
   55.2906   28.8219   42.8335 H   0  0  0  0  0  0  0  0  0  0  0  0
   57.0010   31.6528   45.7500 H   0  0  0  0  0  0  0  0  0  0  0  0
   59.9700   31.6413   48.6140 H   0  0  0  0  0  0  0  0  0  0  0  0
   60.4476   35.8550   48.1945 H   0  0  0  0  0  0  0  0  0  0  0  0
   59.0264   33.5396   44.8349 H   0  0  0  0  0  0  0  0  0  0  0  0
   61.0695   30.2700   46.2870 H   0  0  0  0  0  0  0  0  0  0  0  0
   60.4472   28.0609   45.3271 H   0  0  0  0  0  0  0  0  0  0  0  0
   58.4066   27.9460   42.4166 H   0  0  0  0  0  0  0  0  0  0  0  0
   57.7920   25.8270   41.4410 H   0  0  0  0  0  0  0  0  0  0  0  0
   57.0729   23.9149   42.7295 H   0  0  0  0  0  0  0  0  0  0  0  0
   56.6068   22.9120   44.9016 H   0  0  0  0  0  0  0  0  0  0  0  0
   56.5219   23.0927   47.3873 H   0  0  0  0  0  0  0  0  0  0  0  0
   57.1712   25.2202   48.5113 H   0  0  0  0  0  0  0  0  0  0  0  0
   57.8870   27.1870   47.1607 H   0  0  0  0  0  0  0  0  0  0  0  0
  1  2  1  0
  2  3  1  0
  3  4  2  0
  4  5  1  0
  5  6  1  0
  6  7  2  0
  7  8  1  0
  8  9  2  0
  9 10  1  0
 10 11  1  0
 10 12  2  0
  5 13  2  0
 13 14  1  0
 14 15  2  0
 15 16  1  0
 16 17  2  0
 17 18  1  0
 18 19  2  0
 19 20  1  0
 20 21  2  0
 21 22  1  0
 22 23  2  0
 23 24  1  0
 24 25  2  0
 15  3  1  0
 25 16  1  0
 12  6  1  0
 25 20  1  0
  1 26  1  0
  1 27  1  0
  1 28  1  0
  4 29  1  0
  7 30  1  0
  9 31  1  0
 12 32  1  0
 13 33  1  0
 14 34  1  0
 17 35  1  0
 18 36  1  0
 19 37  1  0
 21 38  1  0
 22 39  1  0
 23 40  1  0
 24 41  1  0
M  CHG  1  18   1
M  END
>  <UniqueID>  (32) 
32

>  <SMILES>  (32) 
COc1cc(-c2cncc(F)c2)ccc1-c1c[nH+]cc2ccccc12

>  <Energy>  (32) 
63.32081416132431

>  <Genealogy>  (32) 
COc1cc(-c2cncc(F)c2)ccc1-c1c[nH+]cc2ccccc12 (protonated)
COc1cc(-c2cncc(F)c2)ccc1-c1c[nH+]cc2ccccc12 (3D coordinates assigned)
COc1cc(-c2cncc(F)c2)ccc1-c1c[nH+]cc2ccccc12 (optimized conformer: 63.32081416132431 kcal/mol)

>  <smiles>  (32) 
COc1cc(-c2cncc(F)c2)ccc1-c1cncc2ccccc12

>  <score_type>  (32) 
oracle

>  <origin>  (32) 
adg

>  <m_score__min__energy>  (32) 
-6.4199999999999999

>  <m_primary>  (32) 
energy

$$$$
32:0
     RDKit          3D

 48 50  0  0  1  0  0  0  0  0999 V2000
   59.3890   30.5230   45.9600 C   0  0  0  0  0  0  0  0  0  0  0  0
   58.1890   31.3400   46.3780 C   0  0  0  0  0  0  0  0  0  0  0  0
   57.2840   31.5900   45.2520 N   0  0  0  0  0  0  0  0  0  0  0  0
   57.5260   30.5300   44.2490 C   0  0  0  0  0  0  0  0  0  0  0  0
   56.2080   30.0450   43.6930 C   0  0  0  0  0  0  0  0  0  0  0  0
   57.6970   32.8150   44.5370 C   0  0  0  0  0  0  0  0  0  0  0  0
   57.8500   33.9540   45.5610 C   0  0  0  0  0  0  0  0  0  0  0  0
   59.2090   34.5380   45.2510 C   0  0  0  0  0  0  0  0  0  0  0  0
   60.0230   34.9660   46.2950 N   0  0  0  0  0  0  0  0  0  0  0  0
   60.4180   34.2810   47.2860 C   0  0  0  0  0  0  0  0  0  0  0  0
   59.5970   34.0560   48.3510 C   0  0  0  0  0  0  0  0  0  0  0  0
   60.0810   33.2890   49.3890 C   0  0  0  0  0  0  0  0  0  0  0  0
   59.1590   32.9830   50.4870 C   0  0  0  0  0  0  0  0  0  0  0  0
   59.2670   33.8440   51.5880 C   0  0  0  0  0  0  0  0  0  0  0  0
   58.4660   33.7000   52.7090 C   0  0  0  0  0  0  0  0  0  0  0  0
   57.5550   32.6660   52.6850 C   0  0  0  0  0  0  0  0  0  0  0  0
   57.4500   31.8080   51.5850 C   0  0  0  0  0  0  0  0  0  0  0  0
   58.2530   31.9630   50.4840 C   0  0  0  0  0  0  0  0  0  0  0  0
   61.3390   32.7790   49.3500 N   0  0  0  0  0  0  0  0  0  0  0  0
   62.1230   33.0320   48.2620 C   0  0  0  0  0  0  0  0  0  0  0  0
   63.3720   32.6530   47.9960 N   0  0  0  0  0  0  0  0  0  0  0  0
   63.6880   33.1750   46.7830 C   0  0  0  0  0  0  0  0  0  0  0  0
   62.6560   33.8600   46.3160 N   0  0  0  0  0  0  0  0  0  0  0  0
   61.6710   33.7820   47.2240 N   0  0  0  0  0  0  0  0  0  0  0  0
   59.9175   30.1632   46.8551 H   0  0  0  0  0  0  0  0  0  0  0  0
   59.0562   29.6630   45.3602 H   0  0  0  0  0  0  0  0  0  0  0  0
   60.0671   31.1479   45.3602 H   0  0  0  0  0  0  0  0  0  0  0  0
   57.6417   30.7946   47.1609 H   0  0  0  0  0  0  0  0  0  0  0  0
   58.5482   32.3105   46.7511 H   0  0  0  0  0  0  0  0  0  0  0  0
   58.1414   30.9337   43.4315 H   0  0  0  0  0  0  0  0  0  0  0  0
   58.0514   29.6897   44.7264 H   0  0  0  0  0  0  0  0  0  0  0  0
   55.5298   29.7954   44.5223 H   0  0  0  0  0  0  0  0  0  0  0  0
   55.7570   30.8361   43.0759 H   0  0  0  0  0  0  0  0  0  0  0  0
   56.3774   29.1503   43.0759 H   0  0  0  0  0  0  0  0  0  0  0  0
   58.6574   32.6417   44.0294 H   0  0  0  0  0  0  0  0  0  0  0  0
   56.9401   33.0846   43.7857 H   0  0  0  0  0  0  0  0  0  0  0  0
   57.0601   34.7081   45.4291 H   0  0  0  0  0  0  0  0  0  0  0  0
   57.7641   33.6054   46.6008 H   0  0  0  0  0  0  0  0  0  0  0  0
   59.7708   33.7682   44.7016 H   0  0  0  0  0  0  0  0  0  0  0  0
   58.9749   35.4654   44.7078 H   0  0  0  0  0  0  0  0  0  0  0  0
   58.5798   34.4736   48.3810 H   0  0  0  0  0  0  0  0  0  0  0  0
   60.0082   34.6563   51.5610 H   0  0  0  0  0  0  0  0  0  0  0  0
   58.5525   34.3754   53.5729 H   0  0  0  0  0  0  0  0  0  0  0  0
   56.8949   32.5117   53.5513 H   0  0  0  0  0  0  0  0  0  0  0  0
   56.7100   30.9943   51.6035 H   0  0  0  0  0  0  0  0  0  0  0  0
   58.1689   31.2840   49.6227 H   0  0  0  0  0  0  0  0  0  0  0  0
   61.7150   32.1890   50.1420 H   0  0  0  0  0  0  0  0  0  0  0  0
   64.6519   33.0483   46.2683 H   0  0  0  0  0  0  0  0  0  0  0  0
  1  2  1  0
  2  3  1  0
  3  4  1  0
  4  5  1  0
  3  6  1  0
  6  7  1  0
  7  8  1  0
  8  9  1  0
  9 10  2  0
 10 11  1  0
 11 12  2  0
 12 13  1  0
 13 14  2  0
 14 15  1  0
 15 16  2  0
 16 17  1  0
 17 18  2  0
 12 19  1  0
 19 20  1  0
 20 21  2  0
 21 22  1  0
 22 23  2  0
 23 24  1  0
 24 10  1  0
 18 13  1  0
 24 20  1  0
  1 25  1  0
  1 26  1  0
  1 27  1  0
  2 28  1  0
  2 29  1  0
  4 30  1  0
  4 31  1  0
  5 32  1  0
  5 33  1  0
  5 34  1  0
  6 35  1  0
  6 36  1  0
  7 37  1  0
  7 38  1  0
  8 39  1  0
  8 40  1  0
 11 41  1  0
 14 42  1  0
 15 43  1  0
 16 44  1  0
 17 45  1  0
 18 46  1  0
 19 47  1  0
 22 48  1  0
M  END
>  <smiles>  (33) 
CCN(CC)CCCN=c1cc(-c2ccccc2)[nH]c2ncnn12

>  <score_type>  (33) 
oracle

>  <origin>  (33) 
adg

>  <m_score__min__energy>  (33) 
-7.0199999999999996

>  <m_primary>  (33) 
energy

$$$$
33:0
     RDKit          3D

 53 56  0  0  0  0  0  0  0  0999 V2000
   60.8920   31.4670   51.2420 C   0  0  0  0  0  0  0  0  0  0  0  0
   61.4790   30.9730   50.0430 O   0  0  0  0  0  0  0  0  0  0  0  0
   60.7580   30.6520   48.8830 C   0  0  0  0  0  0  0  0  0  0  0  0
   61.3700   30.5400   47.6190 C   0  0  0  0  0  0  0  0  0  0  0  0
   60.6040   30.2410   46.4880 C   0  0  0  0  0  0  0  0  0  0  0  0
   59.2180   30.0540   46.6020 C   0  0  0  0  0  0  0  0  0  0  0  0
   58.4000   29.7580   45.4060 C   0  0  0  0  0  0  0  0  0  0  0  0
   58.4420   28.4560   44.8770 C   0  0  0  0  0  0  0  0  0  0  0  0
   57.7530   28.1420   43.7050 C   0  0  0  0  0  0  0  0  0  0  0  0
   57.0180   29.1220   43.0440 C   0  0  0  0  0  0  0  0  0  0  0  0
   56.9530   30.4180   43.5600 C   0  0  0  0  0  0  0  0  0  0  0  0
   57.6220   30.7510   44.7510 C   0  0  0  0  0  0  0  0  0  0  0  0
   57.4460   32.1250   45.2860 C   0  0  0  0  0  0  0  0  0  0  0  0
   56.2960   32.6440   45.2410 O   0  0  0  0  0  0  0  0  0  0  0  0
   58.5150   32.7930   46.0030 N   0  0  0  0  0  0  0  0  0  0  0  0
   57.9940   33.3750   47.2570 C   0  0  0  0  0  0  0  0  0  0  0  0
   59.1620   33.8490   48.1460 C   0  0  0  0  0  0  0  0  0  0  0  0
   60.3030   34.2510   47.3140 N   0  0  0  0  0  0  0  0  0  0  0  0
   61.6460   33.8980   47.7010 C   0  0  0  0  0  0  0  0  0  0  0  0
   62.5760   33.4560   46.7420 C   0  0  0  0  0  0  0  0  0  0  0  0
   63.8670   33.0850   47.1290 C   0  0  0  0  0  0  0  0  0  0  0  0
   64.2400   33.1490   48.4740 C   0  0  0  0  0  0  0  0  0  0  0  0
   63.3220   33.5820   49.4350 C   0  0  0  0  0  0  0  0  0  0  0  0
   62.0290   33.9500   49.0520 C   0  0  0  0  0  0  0  0  0  0  0  0
   60.0160   34.8180   45.9920 C   0  0  0  0  0  0  0  0  0  0  0  0
   59.1750   33.8260   45.1600 C   0  0  0  0  0  0  0  0  0  0  0  0
   58.6140   30.1380   47.8650 C   0  0  0  0  0  0  0  0  0  0  0  0
   59.3790   30.4400   48.9950 C   0  0  0  0  0  0  0  0  0  0  0  0
   61.4092   31.0318   52.1098 H   0  0  0  0  0  0  0  0  0  0  0  0
   60.9849   32.5627   51.2714 H   0  0  0  0  0  0  0  0  0  0  0  0
   59.8283   31.1883   51.2714 H   0  0  0  0  0  0  0  0  0  0  0  0
   62.4555   30.6885   47.5213 H   0  0  0  0  0  0  0  0  0  0  0  0
   61.0898   30.1520   45.5051 H   0  0  0  0  0  0  0  0  0  0  0  0
   59.0237   27.6773   45.3921 H   0  0  0  0  0  0  0  0  0  0  0  0
   57.7907   27.1188   43.3029 H   0  0  0  0  0  0  0  0  0  0  0  0
   56.4870   28.8750   42.1128 H   0  0  0  0  0  0  0  0  0  0  0  0
   56.3722   31.1866   43.0290 H   0  0  0  0  0  0  0  0  0  0  0  0
   59.2370   32.0840   46.2660 H   0  0  0  0  0  0  0  0  0  0  0  0
   57.3467   34.2320   47.0191 H   0  0  0  0  0  0  0  0  0  0  0  0
   57.4176   32.6096   47.7973 H   0  0  0  0  0  0  0  0  0  0  0  0
   58.8332   34.7071   48.7506 H   0  0  0  0  0  0  0  0  0  0  0  0
   59.4709   33.0225   48.8029 H   0  0  0  0  0  0  0  0  0  0  0  0
   62.2857   33.4021   45.6824 H   0  0  0  0  0  0  0  0  0  0  0  0
   64.5899   32.7424   46.3740 H   0  0  0  0  0  0  0  0  0  0  0  0
   65.2568   32.8584   48.7768 H   0  0  0  0  0  0  0  0  0  0  0  0
   63.6173   33.6332   50.4934 H   0  0  0  0  0  0  0  0  0  0  0  0
   61.3071   34.2822   49.8126 H   0  0  0  0  0  0  0  0  0  0  0  0
   59.4564   35.7573   46.1128 H   0  0  0  0  0  0  0  0  0  0  0  0
   60.9646   35.0117   45.4699 H   0  0  0  0  0  0  0  0  0  0  0  0
   58.3996   34.3880   44.6188 H   0  0  0  0  0  0  0  0  0  0  0  0
   59.8558   33.3083   44.4682 H   0  0  0  0  0  0  0  0  0  0  0  0
   57.5324   29.9653   47.9668 H   0  0  0  0  0  0  0  0  0  0  0  0
   58.8938   30.5116   49.9796 H   0  0  0  0  0  0  0  0  0  0  0  0
  1  2  1  0
  2  3  1  0
  3  4  2  0
  4  5  1  0
  5  6  2  0
  6  7  1  0
  7  8  2  0
  8  9  1  0
  9 10  2  0
 10 11  1  0
 11 12  2  0
 12 13  1  0
 13 14  2  0
 13 15  1  0
 15 16  1  0
 16 17  1  0
 17 18  1  0
 18 19  1  0
 19 20  2  0
 20 21  1  0
 21 22  2  0
 22 23  1  0
 23 24  2  0
 18 25  1  0
 25 26  1  0
  6 27  1  0
 27 28  2  0
 28  3  1  0
 12  7  1  0
 26 15  1  0
 24 19  1  0
  1 29  1  0
  1 30  1  0
  1 31  1  0
  4 32  1  0
  5 33  1  0
  8 34  1  0
  9 35  1  0
 10 36  1  0
 11 37  1  0
 15 38  1  0
 16 39  1  0
 16 40  1  0
 17 41  1  0
 17 42  1  0
 20 43  1  0
 21 44  1  0
 22 45  1  0
 23 46  1  0
 24 47  1  0
 25 48  1  0
 25 49  1  0
 26 50  1  0
 26 51  1  0
 27 52  1  0
 28 53  1  0
M  CHG  1  15   1
M  END
>  <UniqueID>  (34) 
33

>  <SMILES>  (34) 
COc1ccc(-c2ccccc2C(=O)[NH+]2CCN(c3ccccc3)CC2)cc1

>  <Energy>  (34) 
78.19354892389138

>  <Genealogy>  (34) 
COc1ccc(-c2ccccc2C(=O)[NH+]2CCN(c3ccccc3)CC2)cc1 (protonated)
COc1ccc(-c2ccccc2C(=O)[NH+]2CCN(c3ccccc3)CC2)cc1 (3D coordinates assigned)
COc1ccc(-c2ccccc2C(=O)[NH+]2CCN(c3ccccc3)CC2)cc1 (nonaromatic ring conformer: 78.19354892389138 kcal/mol)

>  <smiles>  (34) 
COc1ccc(-c2ccccc2C(=O)N2CCN(c3ccccc3)CC2)cc1

>  <score_type>  (34) 
oracle

>  <origin>  (34) 
adg

>  <m_score__min__energy>  (34) 
-6.8600000000000003

>  <m_primary>  (34) 
energy

$$$$
34:0
     RDKit          3D

 62 66  0  0  0  0  0  0  0  0999 V2000
   69.3910   34.8170   49.7080 C   0  0  0  0  0  0  0  0  0  0  0  0
   68.6150   34.9050   51.0300 C   0  0  0  0  0  0  0  0  0  0  0  0
   67.4030   34.0570   51.0910 N   0  0  0  0  0  0  0  0  0  0  0  0
   67.6060   32.7040   50.5360 C   0  0  0  0  0  0  0  0  0  0  0  0
   66.3580   31.8160   50.7480 C   0  0  0  0  0  0  0  0  0  0  0  0
   65.1570   32.6090   51.0800 N   0  0  0  0  0  0  0  0  0  0  0  0
   64.6660   33.4170   49.9350 C   0  0  0  0  0  0  0  0  0  0  0  0
   63.8130   32.5490   49.0050 C   0  0  0  0  0  0  0  0  0  0  0  0
   62.3150   32.6730   49.3060 C   0  0  0  0  0  0  0  0  0  0  0  0
   61.5830   31.5540   48.7190 N   0  0  0  0  0  0  0  0  0  0  0  0
   61.0510   31.6000   47.3830 C   0  0  0  0  0  0  0  0  0  0  0  0
   61.1270   32.6700   46.7200 O   0  0  0  0  0  0  0  0  0  0  0  0
   60.4020   30.4140   46.7720 C   0  0  0  0  0  0  0  0  0  0  0  0
   59.6670   30.5580   45.5690 C   0  0  0  0  0  0  0  0  0  0  0  0
   59.0450   29.4550   44.9640 C   0  0  0  0  0  0  0  0  0  0  0  0
   59.1650   28.1980   45.5650 C   0  0  0  0  0  0  0  0  0  0  0  0
   59.8950   28.0550   46.7430 C   0  0  0  0  0  0  0  0  0  0  0  0
   60.5210   29.1350   47.3570 C   0  0  0  0  0  0  0  0  0  0  0  0
   59.8890   26.4440   47.2560 S   0  0  0  0  0  0  0  0  0  0  0  0
   58.9420   25.9280   45.9620 C   0  0  0  0  0  0  0  0  0  0  0  0
   58.5190   24.6620   45.7270 N   0  0  0  0  0  0  0  0  0  0  0  0
   57.7540   24.3840   44.6270 C   0  0  0  0  0  0  0  0  0  0  0  0
   57.2980   22.9900   44.3990 C   0  0  0  0  0  0  0  0  0  0  0  0
   57.5100   22.0090   45.3840 C   0  0  0  0  0  0  0  0  0  0  0  0
   57.0890   20.6950   45.1730 C   0  0  0  0  0  0  0  0  0  0  0  0
   56.4640   20.3630   43.9710 C   0  0  0  0  0  0  0  0  0  0  0  0
   56.2750   21.3140   43.0170 N   0  0  0  0  0  0  0  0  0  0  0  0
   56.6730   22.6010   43.1990 C   0  0  0  0  0  0  0  0  0  0  0  0
   57.3990   25.4350   43.7430 C   0  0  0  0  0  0  0  0  0  0  0  0
   57.8390   26.7450   43.9920 C   0  0  0  0  0  0  0  0  0  0  0  0
   58.6230   26.9820   45.1220 C   0  0  0  0  0  0  0  0  0  0  0  0
   65.3570   33.4070   52.3150 C   0  0  0  0  0  0  0  0  0  0  0  0
   66.7740   34.0080   52.4210 C   0  0  0  0  0  0  0  0  0  0  0  0
   70.4635   34.6954   49.9198 H   0  0  0  0  0  0  0  0  0  0  0  0
   69.0315   33.9539   49.1286 H   0  0  0  0  0  0  0  0  0  0  0  0
   69.2339   35.7387   49.1286 H   0  0  0  0  0  0  0  0  0  0  0  0
   69.2887   34.5997   51.8442 H   0  0  0  0  0  0  0  0  0  0  0  0
   68.2719   35.9461   51.1213 H   0  0  0  0  0  0  0  0  0  0  0  0
   67.8085   32.7857   49.4579 H   0  0  0  0  0  0  0  0  0  0  0  0
   68.4554   32.2389   51.0577 H   0  0  0  0  0  0  0  0  0  0  0  0
   66.1647   31.2508   49.8243 H   0  0  0  0  0  0  0  0  0  0  0  0
   66.5625   31.1438   51.5943 H   0  0  0  0  0  0  0  0  0  0  0  0
   64.0574   34.2516   50.3132 H   0  0  0  0  0  0  0  0  0  0  0  0
   65.5280   33.8064   49.3735 H   0  0  0  0  0  0  0  0  0  0  0  0
   63.9922   32.8620   47.9658 H   0  0  0  0  0  0  0  0  0  0  0  0
   64.1027   31.4998   49.1639 H   0  0  0  0  0  0  0  0  0  0  0  0
   62.1632   32.6737   50.3955 H   0  0  0  0  0  0  0  0  0  0  0  0
   61.9404   33.6115   48.8713 H   0  0  0  0  0  0  0  0  0  0  0  0
   61.4380   30.7070   49.3110 H   0  0  0  0  0  0  0  0  0  0  0  0
   59.5826   31.5503   45.1019 H   0  0  0  0  0  0  0  0  0  0  0  0
   58.4726   29.5772   44.0326 H   0  0  0  0  0  0  0  0  0  0  0  0
   61.0988   28.9946   48.2825 H   0  0  0  0  0  0  0  0  0  0  0  0
   58.0103   22.2786   46.3258 H   0  0  0  0  0  0  0  0  0  0  0  0
   57.2484   19.9293   45.9465 H   0  0  0  0  0  0  0  0  0  0  0  0
   56.1239   19.3319   43.7945 H   0  0  0  0  0  0  0  0  0  0  0  0
   56.5058   23.3427   42.4041 H   0  0  0  0  0  0  0  0  0  0  0  0
   56.7776   25.2233   42.8604 H   0  0  0  0  0  0  0  0  0  0  0  0
   57.5716   27.5666   43.3112 H   0  0  0  0  0  0  0  0  0  0  0  0
   64.6260   34.2289   52.3236 H   0  0  0  0  0  0  0  0  0  0  0  0
   65.2221   32.7289   53.1706 H   0  0  0  0  0  0  0  0  0  0  0  0
   66.7074   35.0270   52.8298 H   0  0  0  0  0  0  0  0  0  0  0  0
   67.3839   33.3777   53.0849 H   0  0  0  0  0  0  0  0  0  0  0  0
  1  2  1  0
  2  3  1  0
  3  4  1  0
  4  5  1  0
  5  6  1  0
  6  7  1  0
  7  8  1  0
  8  9  1  0
  9 10  1  0
 10 11  1  0
 11 12  2  0
 11 13  1  0
 13 14  2  0
 14 15  1  0
 15 16  2  0
 16 17  1  0
 17 18  2  0
 17 19  1  0
 19 20  1  0
 20 21  2  0
 21 22  1  0
 22 23  1  0
 23 24  2  0
 24 25  1  0
 25 26  2  0
 26 27  1  0
 27 28  2  0
 22 29  2  0
 29 30  1  0
 30 31  2  0
  6 32  1  0
 32 33  1  0
 33  3  1  0
 18 13  1  0
 31 20  1  0
 31 16  1  0
 28 23  1  0
  1 34  1  0
  1 35  1  0
  1 36  1  0
  2 37  1  0
  2 38  1  0
  4 39  1  0
  4 40  1  0
  5 41  1  0
  5 42  1  0
  7 43  1  0
  7 44  1  0
  8 45  1  0
  8 46  1  0
  9 47  1  0
  9 48  1  0
 10 49  1  0
 14 50  1  0
 15 51  1  0
 18 52  1  0
 24 53  1  0
 25 54  1  0
 26 55  1  0
 28 56  1  0
 29 57  1  0
 30 58  1  0
 32 59  1  0
 32 60  1  0
 33 61  1  0
 33 62  1  0
M  END
>  <UniqueID>  (35) 
34

>  <SMILES>  (35) 
CCN1CCN(CCCNC(=O)c2ccc3c(c2)sc2nc(-c4cccnc4)ccc23)CC1

>  <Energy>  (35) 
120.62996026647079

>  <Genealogy>  (35) 
CCN1CCN(CCCNC(=O)c2ccc3c(c2)sc2nc(-c4cccnc4)ccc23)CC1 (3D coordinates assigned)
CCN1CCN(CCCNC(=O)c2ccc3c(c2)sc2nc(-c4cccnc4)ccc23)CC1 (nonaromatic ring conformer: 120.62996026647079 kcal/mol)

>  <smiles>  (35) 
CCN1CCN(CCCNC(=O)c2ccc3c(c2)sc2nc(-c4cccnc4)ccc23)CC1

>  <score_type>  (35) 
oracle

>  <origin>  (35) 
adg

>  <m_score__min__energy>  (35) 
-8.9299999999999997

>  <m_primary>  (35) 
energy

$$$$
35:0
     RDKit          3D

 40 41  0  0  0  0  0  0  0  0999 V2000
   56.5750   30.0830   42.6490 C   0  0  0  0  0  0  0  0  0  0  0  0
   56.0300   30.2320   44.0680 C   0  0  0  0  0  0  0  0  0  0  0  0
   57.0180   30.9060   44.9360 N   0  0  0  0  0  0  0  0  0  0  0  0
   57.8090   30.0170   45.8180 C   0  0  0  0  0  0  0  0  0  0  0  0
   59.3290   30.1610   45.6710 C   0  0  0  0  0  0  0  0  0  0  0  0
   57.7680   32.0160   44.3050 C   0  0  0  0  0  0  0  0  0  0  0  0
   57.7720   33.2950   45.1200 C   0  0  0  0  0  0  0  0  0  0  0  0
   56.8830   34.1600   44.8930 O   0  0  0  0  0  0  0  0  0  0  0  0
   58.7480   33.5440   46.1560 N   0  0  0  0  0  0  0  0  0  0  0  0
   58.4420   33.2040   47.5600 C   0  0  0  0  0  0  0  0  0  0  0  0
   59.3580   33.9300   48.5520 C   0  0  0  0  0  0  0  0  0  0  0  0
   60.7900   33.7930   48.1310 C   0  0  0  0  0  0  0  0  0  0  0  0
   61.8100   33.5950   49.0740 C   0  0  0  0  0  0  0  0  0  0  0  0
   63.1410   33.5110   48.6580 C   0  0  0  0  0  0  0  0  0  0  0  0
   63.4610   33.6420   47.3040 C   0  0  0  0  0  0  0  0  0  0  0  0
   62.4510   33.8560   46.3620 C   0  0  0  0  0  0  0  0  0  0  0  0
   61.1100   33.9240   46.7700 C   0  0  0  0  0  0  0  0  0  0  0  0
   60.0140   34.2020   45.7750 C   0  0  0  0  0  0  0  0  0  0  0  0
   57.6353   29.7931   42.6920 H   0  0  0  0  0  0  0  0  0  0  0  0
   56.0043   29.3079   42.1165 H   0  0  0  0  0  0  0  0  0  0  0  0
   56.4780   31.0406   42.1165 H   0  0  0  0  0  0  0  0  0  0  0  0
   55.1066   30.8291   44.0399 H   0  0  0  0  0  0  0  0  0  0  0  0
   55.8236   29.2314   44.4757 H   0  0  0  0  0  0  0  0  0  0  0  0
   57.5421   30.2425   46.8610 H   0  0  0  0  0  0  0  0  0  0  0  0
   57.5632   28.9861   45.5234 H   0  0  0  0  0  0  0  0  0  0  0  0
   59.7913   30.2048   46.6682 H   0  0  0  0  0  0  0  0  0  0  0  0
   59.7276   29.2966   45.1197 H   0  0  0  0  0  0  0  0  0  0  0  0
   59.5582   31.0849   45.1197 H   0  0  0  0  0  0  0  0  0  0  0  0
   58.8097   31.6930   44.1618 H   0  0  0  0  0  0  0  0  0  0  0  0
   57.2627   32.2439   43.3549 H   0  0  0  0  0  0  0  0  0  0  0  0
   57.3997   33.4844   47.7719 H   0  0  0  0  0  0  0  0  0  0  0  0
   58.6031   32.1231   47.6853 H   0  0  0  0  0  0  0  0  0  0  0  0
   59.0886   34.9961   48.5819 H   0  0  0  0  0  0  0  0  0  0  0  0
   59.2330   33.4826   49.5491 H   0  0  0  0  0  0  0  0  0  0  0  0
   61.5614   33.5058   50.1418 H   0  0  0  0  0  0  0  0  0  0  0  0
   63.9380   33.3416   49.3970 H   0  0  0  0  0  0  0  0  0  0  0  0
   64.5098   33.5766   46.9790 H   0  0  0  0  0  0  0  0  0  0  0  0
   62.7077   33.9714   45.2986 H   0  0  0  0  0  0  0  0  0  0  0  0
   59.8487   35.2882   45.7214 H   0  0  0  0  0  0  0  0  0  0  0  0
   60.3277   33.8014   44.7997 H   0  0  0  0  0  0  0  0  0  0  0  0
  1  2  1  0
  2  3  1  0
  3  4  1  0
  4  5  1  0
  3  6  1  0
  6  7  1  0
  7  8  2  0
  7  9  1  0
  9 10  1  0
 10 11  1  0
 11 12  1  0
 12 13  2  0
 13 14  1  0
 14 15  2  0
 15 16  1  0
 16 17  2  0
 17 18  1  0
 18  9  1  0
 17 12  1  0
  1 19  1  0
  1 20  1  0
  1 21  1  0
  2 22  1  0
  2 23  1  0
  4 24  1  0
  4 25  1  0
  5 26  1  0
  5 27  1  0
  5 28  1  0
  6 29  1  0
  6 30  1  0
 10 31  1  0
 10 32  1  0
 11 33  1  0
 11 34  1  0
 13 35  1  0
 14 36  1  0
 15 37  1  0
 16 38  1  0
 18 39  1  0
 18 40  1  0
M  END
>  <UniqueID>  (36) 
35

>  <SMILES>  (36) 
CCN(CC)CC(=O)N1CCc2ccccc2C1

>  <Energy>  (36) 
47.53593377579775

>  <Genealogy>  (36) 
CCN(CC)CC(=O)N1CCc2ccccc2C1 (3D coordinates assigned)
CCN(CC)CC(=O)N1CCc2ccccc2C1 (nonaromatic ring conformer: 47.53593377579775 kcal/mol)

>  <smiles>  (36) 
CCN(CC)CC(=O)N1CCc2ccccc2C1

>  <score_type>  (36) 
oracle

>  <origin>  (36) 
adg

>  <m_score__min__energy>  (36) 
-6.7999999999999998

>  <m_primary>  (36) 
energy

$$$$
36:0
     RDKit          3D

 63 67  0  0  0  0  0  0  0  0999 V2000
   51.9680   24.0790   44.0640 C   0  0  0  0  0  0  0  0  0  0  0  0
   53.0400   23.3370   44.6390 O   0  0  0  0  0  0  0  0  0  0  0  0
   53.1390   22.9980   45.9970 C   0  0  0  0  0  0  0  0  0  0  0  0
   52.1020   22.3210   46.6700 C   0  0  0  0  0  0  0  0  0  0  0  0
   52.2500   21.9460   48.0060 C   0  0  0  0  0  0  0  0  0  0  0  0
   53.4340   22.2360   48.6930 C   0  0  0  0  0  0  0  0  0  0  0  0
   53.6440   21.7290   50.3690 S   0  0  0  0  0  0  0  0  0  0  0  0
   53.6410   22.9510   51.2470 O   0  0  0  0  0  0  0  0  0  0  0  0
   52.5040   20.8390   50.7820 O   0  0  0  0  0  0  0  0  0  0  0  0
   55.1630   20.8810   50.5470 N   0  0  0  0  0  0  0  0  0  0  0  0
   56.2540   21.8500   50.7840 C   0  0  0  0  0  0  0  0  0  0  0  0
   57.6220   21.2240   50.4550 C   0  0  0  0  0  0  0  0  0  0  0  0
   57.7500   20.7380   49.1230 O   0  0  0  0  0  0  0  0  0  0  0  0
   56.5090   20.5650   48.4550 C   0  0  0  0  0  0  0  0  0  0  0  0
   55.4180   19.9970   49.3800 C   0  0  0  0  0  0  0  0  0  0  0  0
   54.4690   22.9020   48.0310 C   0  0  0  0  0  0  0  0  0  0  0  0
   54.3210   23.3140   46.7010 C   0  0  0  0  0  0  0  0  0  0  0  0
   55.4150   23.9940   46.0720 N   0  0  0  0  0  0  0  0  0  0  0  0
   55.5610   25.4170   45.9900 C   0  0  0  0  0  0  0  0  0  0  0  0
   54.5490   26.1660   45.9540 O   0  0  0  0  0  0  0  0  0  0  0  0
   56.9310   26.0240   46.0300 C   0  0  0  0  0  0  0  0  0  0  0  0
   56.8780   27.5550   45.9610 C   0  0  0  0  0  0  0  0  0  0  0  0
   58.2280   28.1700   45.5660 C   0  0  0  0  0  0  0  0  0  0  0  0
   58.2210   29.6070   45.8200 N   0  0  0  0  0  0  0  0  0  0  0  0
   57.3580   30.5800   45.2060 C   0  0  0  0  0  0  0  0  0  0  0  0
   56.3070   30.3020   44.5700 O   0  0  0  0  0  0  0  0  0  0  0  0
   57.9150   31.9180   45.4030 C   0  0  0  0  0  0  0  0  0  0  0  0
   57.5260   33.2010   45.0150 C   0  0  0  0  0  0  0  0  0  0  0  0
   58.3760   34.2790   45.3650 C   0  0  0  0  0  0  0  0  0  0  0  0
   59.5840   34.0520   46.0780 C   0  0  0  0  0  0  0  0  0  0  0  0
   59.9440   32.7390   46.4410 C   0  0  0  0  0  0  0  0  0  0  0  0
   61.1200   32.3730   47.1250 C   0  0  0  0  0  0  0  0  0  0  0  0
   61.3740   31.0030   47.4050 C   0  0  0  0  0  0  0  0  0  0  0  0
   60.4610   29.9990   47.0040 C   0  0  0  0  0  0  0  0  0  0  0  0
   59.2990   30.3990   46.3360 C   0  0  0  0  0  0  0  0  0  0  0  0
   59.0770   31.7220   46.0840 C   0  0  0  0  0  0  0  0  0  0  0  0
   51.3480   24.5081   44.8649 H   0  0  0  0  0  0  0  0  0  0  0  0
   52.3754   24.8893   43.4416 H   0  0  0  0  0  0  0  0  0  0  0  0
   51.3530   23.4123   43.4416 H   0  0  0  0  0  0  0  0  0  0  0  0
   51.1684   22.0863   46.1378 H   0  0  0  0  0  0  0  0  0  0  0  0
   51.4325   21.4203   48.5211 H   0  0  0  0  0  0  0  0  0  0  0  0
   55.0720   20.2790   51.4000 H   0  0  0  0  0  0  0  0  0  0  0  0
   56.0980   22.7320   50.1455 H   0  0  0  0  0  0  0  0  0  0  0  0
   56.2445   22.1392   51.8453 H   0  0  0  0  0  0  0  0  0  0  0  0
   58.3962   21.9886   50.6164 H   0  0  0  0  0  0  0  0  0  0  0  0
   57.7306   20.3511   51.1155 H   0  0  0  0  0  0  0  0  0  0  0  0
   56.1748   21.5407   48.0726 H   0  0  0  0  0  0  0  0  0  0  0  0
   56.6653   19.8439   47.6392 H   0  0  0  0  0  0  0  0  0  0  0  0
   54.4861   19.8891   48.8057 H   0  0  0  0  0  0  0  0  0  0  0  0
   55.7660   19.0249   49.7593 H   0  0  0  0  0  0  0  0  0  0  0  0
   55.4112   23.1050   48.5611 H   0  0  0  0  0  0  0  0  0  0  0  0
   57.4249   25.7267   46.9669 H   0  0  0  0  0  0  0  0  0  0  0  0
   57.4911   25.6616   45.1554 H   0  0  0  0  0  0  0  0  0  0  0  0
   56.1242   27.8492   45.2158 H   0  0  0  0  0  0  0  0  0  0  0  0
   56.6203   27.9272   46.9635 H   0  0  0  0  0  0  0  0  0  0  0  0
   59.0280   27.7005   46.1572 H   0  0  0  0  0  0  0  0  0  0  0  0
   58.4016   27.9960   44.4938 H   0  0  0  0  0  0  0  0  0  0  0  0
   56.5928   33.3692   44.4574 H   0  0  0  0  0  0  0  0  0  0  0  0
   58.0973   35.3046   45.0813 H   0  0  0  0  0  0  0  0  0  0  0  0
   60.2351   34.8974   46.3453 H   0  0  0  0  0  0  0  0  0  0  0  0
   61.8382   33.1440   47.4409 H   0  0  0  0  0  0  0  0  0  0  0  0
   62.2922   30.7194   47.9403 H   0  0  0  0  0  0  0  0  0  0  0  0
   60.6589   28.9370   47.2112 H   0  0  0  0  0  0  0  0  0  0  0  0
  1  2  1  0
  2  3  1  0
  3  4  2  0
  4  5  1  0
  5  6  2  0
  6  7  1  0
  7  8  2  0
  7  9  2  0
  7 10  1  0
 10 11  1  0
 11 12  1  0
 12 13  1  0
 13 14  1  0
 14 15  1  0
  6 16  1  0
 16 17  2  0
 17 18  1  0
 18 19  1  0
 19 20  2  0
 19 21  1  0
 21 22  1  0
 22 23  1  0
 23 24  1  0
 24 25  1  0
 25 26  2  0
 25 27  1  0
 27 28  1  0
 28 29  2  0
 29 30  1  0
 30 31  2  0
 31 32  1  0
 32 33  2  0
 33 34  1  0
 34 35  2  0
 35 36  1  0
 17  3  1  0
 35 24  1  0
 15 10  1  0
 36 27  2  0
 36 31  1  0
  1 37  1  0
  1 38  1  0
  1 39  1  0
  4 40  1  0
  5 41  1  0
 10 42  1  0
 11 43  1  0
 11 44  1  0
 12 45  1  0
 12 46  1  0
 14 47  1  0
 14 48  1  0
 15 49  1  0
 15 50  1  0
 16 51  1  0
 21 52  1  0
 21 53  1  0
 22 54  1  0
 22 55  1  0
 23 56  1  0
 23 57  1  0
 28 58  1  0
 29 59  1  0
 30 60  1  0
 32 61  1  0
 33 62  1  0
 34 63  1  0
M  CHG  2  10   1  18  -1
M  END
>  <UniqueID>  (37) 
36

>  <SMILES>  (37) 
COc1ccc(S(=O)(=O)[NH+]2CCOCC2)cc1[N-]C(=O)CCCN1C(=O)c2cccc3cccc1c23

>  <Energy>  (37) 
121.4872273152826

>  <Genealogy>  (37) 
COc1ccc(S(=O)(=O)[NH+]2CCOCC2)cc1[N-]C(=O)CCCN1C(=O)c2cccc3cccc1c23 (protonated)
COc1ccc(S(=O)(=O)[NH+]2CCOCC2)cc1[N-]C(=O)CCCN1C(=O)c2cccc3cccc1c23 (3D coordinates assigned)
COc1ccc(S(=O)(=O)[NH+]2CCOCC2)cc1[N-]C(=O)CCCN1C(=O)c2cccc3cccc1c23 (nonaromatic ring conformer: 121.4872273152826 kcal/mol)

>  <smiles>  (37) 
COc1ccc(S(=O)(=O)N2CCOCC2)cc1NC(=O)CCCN1C(=O)c2cccc3cccc1c23

>  <score_type>  (37) 
oracle

>  <origin>  (37) 
adg

>  <m_score__min__energy>  (37) 
-9.5199999999999996

>  <m_primary>  (37) 
energy

$$$$
37:0
     RDKit          3D

 55 59  0  0  0  0  0  0  0  0999 V2000
   61.0280   30.4560   51.2530 C   0  0  0  0  0  0  0  0  0  0  0  0
   61.8620   30.6340   50.1130 O   0  0  0  0  0  0  0  0  0  0  0  0
   63.1100   31.2780   50.1320 C   0  0  0  0  0  0  0  0  0  0  0  0
   64.1830   30.8050   50.9150 C   0  0  0  0  0  0  0  0  0  0  0  0
   65.4020   31.4860   50.9280 C   0  0  0  0  0  0  0  0  0  0  0  0
   65.5650   32.6430   50.1650 C   0  0  0  0  0  0  0  0  0  0  0  0
   64.5120   33.1200   49.3830 C   0  0  0  0  0  0  0  0  0  0  0  0
   63.2830   32.4400   49.3560 C   0  0  0  0  0  0  0  0  0  0  0  0
   62.2050   32.9320   48.5420 N   0  0  0  0  0  0  0  0  0  0  0  0
   62.1830   32.6550   47.1060 C   0  0  0  0  0  0  0  0  0  0  0  0
   61.5770   33.8400   46.3490 C   0  0  0  0  0  0  0  0  0  0  0  0
   60.3290   34.3420   46.9600 N   0  0  0  0  0  0  0  0  0  0  0  0
   59.0570   33.8690   46.3730 C   0  0  0  0  0  0  0  0  0  0  0  0
   58.4290   32.6780   47.1140 C   0  0  0  0  0  0  0  0  0  0  0  0
   58.2330   31.5410   46.1880 N   0  0  0  0  0  0  0  0  0  0  0  0
   57.3420   31.6850   45.1420 C   0  0  0  0  0  0  0  0  0  0  0  0
   56.7210   32.7670   44.9510 O   0  0  0  0  0  0  0  0  0  0  0  0
   57.1300   30.6150   44.2840 C   0  0  0  0  0  0  0  0  0  0  0  0
   56.2930   30.5760   43.2280 N   0  0  0  0  0  0  0  0  0  0  0  0
   56.4320   29.3600   42.7170 N   0  0  0  0  0  0  0  0  0  0  0  0
   57.3360   28.6800   43.4530 C   0  0  0  0  0  0  0  0  0  0  0  0
   57.7870   29.4640   44.4500 N   0  0  0  0  0  0  0  0  0  0  0  0
   58.6990   29.2700   45.4370 C   0  0  0  0  0  0  0  0  0  0  0  0
   59.3940   28.0560   45.5730 C   0  0  0  0  0  0  0  0  0  0  0  0
   60.3420   27.9030   46.5830 C   0  0  0  0  0  0  0  0  0  0  0  0
   60.6110   28.9550   47.4560 C   0  0  0  0  0  0  0  0  0  0  0  0
   59.9280   30.1670   47.3370 C   0  0  0  0  0  0  0  0  0  0  0  0
   58.9450   30.3510   46.3330 C   0  0  0  0  0  0  0  0  0  0  0  0
   60.3610   34.5490   48.4220 C   0  0  0  0  0  0  0  0  0  0  0  0
   60.9550   33.3520   49.1730 C   0  0  0  0  0  0  0  0  0  0  0  0
   61.6254   30.5835   52.1678 H   0  0  0  0  0  0  0  0  0  0  0  0
   60.2197   31.2018   51.2360 H   0  0  0  0  0  0  0  0  0  0  0  0
   60.5946   29.4451   51.2360 H   0  0  0  0  0  0  0  0  0  0  0  0
   64.0591   29.8942   51.5192 H   0  0  0  0  0  0  0  0  0  0  0  0
   66.2348   31.1100   51.5404 H   0  0  0  0  0  0  0  0  0  0  0  0
   66.5249   33.1799   50.1799 H   0  0  0  0  0  0  0  0  0  0  0  0
   64.6451   34.0333   48.7846 H   0  0  0  0  0  0  0  0  0  0  0  0
   63.2108   32.4852   46.7527 H   0  0  0  0  0  0  0  0  0  0  0  0
   61.5705   31.7600   46.9221 H   0  0  0  0  0  0  0  0  0  0  0  0
   62.3124   34.6579   46.3329 H   0  0  0  0  0  0  0  0  0  0  0  0
   61.3281   33.4893   45.3365 H   0  0  0  0  0  0  0  0  0  0  0  0
   58.3390   34.7022   46.3871 H   0  0  0  0  0  0  0  0  0  0  0  0
   59.2867   33.5236   45.3542 H   0  0  0  0  0  0  0  0  0  0  0  0
   59.0951   32.3682   47.9327 H   0  0  0  0  0  0  0  0  0  0  0  0
   57.4520   32.9830   47.5171 H   0  0  0  0  0  0  0  0  0  0  0  0
   55.9190   29.0050   41.8810 H   0  0  0  0  0  0  0  0  0  0  0  0
   57.6553   27.6440   43.2668 H   0  0  0  0  0  0  0  0  0  0  0  0
   59.1894   27.2255   44.8813 H   0  0  0  0  0  0  0  0  0  0  0  0
   60.8792   26.9492   46.6912 H   0  0  0  0  0  0  0  0  0  0  0  0
   61.3672   28.8298   48.2450 H   0  0  0  0  0  0  0  0  0  0  0  0
   60.1558   30.9893   48.0313 H   0  0  0  0  0  0  0  0  0  0  0  0
   60.9704   35.4388   48.6388 H   0  0  0  0  0  0  0  0  0  0  0  0
   59.3231   34.6756   48.7638 H   0  0  0  0  0  0  0  0  0  0  0  0
   61.1528   33.6390   50.2163 H   0  0  0  0  0  0  0  0  0  0  0  0
   60.2390   32.5175   49.1433 H   0  0  0  0  0  0  0  0  0  0  0  0
  1  2  1  0
  2  3  1  0
  3  4  2  0
  4  5  1  0
  5  6  2  0
  6  7  1  0
  7  8  2  0
  8  9  1  0
  9 10  1  0
 10 11  1  0
 11 12  1  0
 12 13  1  0
 13 14  1  0
 14 15  1  0
 15 16  1  0
 16 17  2  0
 16 18  1  0
 18 19  2  0
 19 20  1  0
 20 21  2  0
 21 22  1  0
 22 23  1  0
 23 24  2  0
 24 25  1  0
 25 26  2  0
 26 27  1  0
 27 28  2  0
 12 29  1  0
 29 30  1  0
  8  3  1  0
 30  9  1  0
 28 15  1  0
 22 18  1  0
 28 23  1  0
  1 31  1  0
  1 32  1  0
  1 33  1  0
  4 34  1  0
  5 35  1  0
  6 36  1  0
  7 37  1  0
 10 38  1  0
 10 39  1  0
 11 40  1  0
 11 41  1  0
 13 42  1  0
 13 43  1  0
 14 44  1  0
 14 45  1  0
 20 46  1  0
 21 47  1  0
 24 48  1  0
 25 49  1  0
 26 50  1  0
 27 51  1  0
 29 52  1  0
 29 53  1  0
 30 54  1  0
 30 55  1  0
M  CHG  1  20   1
M  END
>  <UniqueID>  (38) 
37

>  <SMILES>  (38) 
COc1ccccc1N1CCN(CCn2c(=O)c3n[nH+]cn3c3ccccc32)CC1

>  <Energy>  (38) 
125.09758024052472

>  <Genealogy>  (38) 
COc1ccccc1N1CCN(CCn2c(=O)c3n[nH+]cn3c3ccccc32)CC1 (protonated)
COc1ccccc1N1CCN(CCn2c(=O)c3n[nH+]cn3c3ccccc32)CC1 (3D coordinates assigned)
COc1ccccc1N1CCN(CCn2c(=O)c3n[nH+]cn3c3ccccc32)CC1 (nonaromatic ring conformer: 125.09758024052472 kcal/mol)

>  <smiles>  (38) 
COc1ccccc1N1CCN(CCn2c(=O)c3nncn3c3ccccc32)CC1

>  <score_type>  (38) 
oracle

>  <origin>  (38) 
adg

>  <m_score__min__energy>  (38) 
-6.9800000000000004

>  <m_primary>  (38) 
energy

$$$$
38:0
     RDKit          3D

 44 46  0  0  0  0  0  0  0  0999 V2000
   55.2910   24.8370   45.5790 C   0  0  0  0  0  0  0  0  0  0  0  0
   56.7190   25.1970   45.1860 C   0  0  0  0  0  0  0  0  0  0  0  0
   57.3040   26.0750   46.1470 O   0  0  0  0  0  0  0  0  0  0  0  0
   58.0070   27.2560   45.8550 C   0  0  0  0  0  0  0  0  0  0  0  0
   59.4040   27.1900   45.7990 C   0  0  0  0  0  0  0  0  0  0  0  0
   60.1570   28.3290   45.5080 C   0  0  0  0  0  0  0  0  0  0  0  0
   59.5210   29.5480   45.2710 C   0  0  0  0  0  0  0  0  0  0  0  0
   58.1200   29.6430   45.3340 C   0  0  0  0  0  0  0  0  0  0  0  0
   57.4340   30.9320   45.0740 C   0  0  0  0  0  0  0  0  0  0  0  0
   56.2750   30.9180   44.5760 O   0  0  0  0  0  0  0  0  0  0  0  0
   58.0670   32.2370   45.3800 C   0  0  0  0  0  0  0  0  0  0  0  0
   57.8020   33.3560   44.5800 C   0  0  0  0  0  0  0  0  0  0  0  0
   58.3980   34.5810   44.8720 C   0  0  0  0  0  0  0  0  0  0  0  0
   59.2540   34.6880   45.9700 C   0  0  0  0  0  0  0  0  0  0  0  0
   59.7990   35.7990   46.2180 O   0  0  0  0  0  0  0  0  0  0  0  0
   59.4990   33.5970   46.7630 N   0  0  0  0  0  0  0  0  0  0  0  0
   60.3640   33.7050   47.9100 C   0  0  0  0  0  0  0  0  0  0  0  0
   59.8010   33.7060   49.1960 C   0  0  0  0  0  0  0  0  0  0  0  0
   60.6180   33.7830   50.3260 C   0  0  0  0  0  0  0  0  0  0  0  0
   62.0040   33.8560   50.1820 C   0  0  0  0  0  0  0  0  0  0  0  0
   62.5780   33.8600   48.9090 C   0  0  0  0  0  0  0  0  0  0  0  0
   61.7680   33.8010   47.7620 C   0  0  0  0  0  0  0  0  0  0  0  0
   62.4150   33.7980   46.4040 C   0  0  0  0  0  0  0  0  0  0  0  0
   58.9120   32.3920   46.4910 C   0  0  0  0  0  0  0  0  0  0  0  0
   57.3680   28.4880   45.6110 C   0  0  0  0  0  0  0  0  0  0  0  0
   55.2068   24.8158   46.6756 H   0  0  0  0  0  0  0  0  0  0  0  0
   54.5983   25.5886   45.1725 H   0  0  0  0  0  0  0  0  0  0  0  0
   55.0374   23.8468   45.1725 H   0  0  0  0  0  0  0  0  0  0  0  0
   57.3191   24.2771   45.1259 H   0  0  0  0  0  0  0  0  0  0  0  0
   56.6983   25.7057   44.2109 H   0  0  0  0  0  0  0  0  0  0  0  0
   59.9128   26.2328   45.9858 H   0  0  0  0  0  0  0  0  0  0  0  0
   61.2543   28.2652   45.4655 H   0  0  0  0  0  0  0  0  0  0  0  0
   60.1194   30.4399   45.0335 H   0  0  0  0  0  0  0  0  0  0  0  0
   57.1222   33.2674   43.7198 H   0  0  0  0  0  0  0  0  0  0  0  0
   58.1954   35.4590   44.2411 H   0  0  0  0  0  0  0  0  0  0  0  0
   58.7091   33.6457   49.3144 H   0  0  0  0  0  0  0  0  0  0  0  0
   60.1687   33.7861   51.3301 H   0  0  0  0  0  0  0  0  0  0  0  0
   62.6461   33.9105   51.0735 H   0  0  0  0  0  0  0  0  0  0  0  0
   63.6718   33.9097   48.8032 H   0  0  0  0  0  0  0  0  0  0  0  0
   63.5090   33.7929   46.5191 H   0  0  0  0  0  0  0  0  0  0  0  0
   62.1004   32.9013   45.8499 H   0  0  0  0  0  0  0  0  0  0  0  0
   62.1087   34.6976   45.8499 H   0  0  0  0  0  0  0  0  0  0  0  0
   59.1042   31.5332   47.1509 H   0  0  0  0  0  0  0  0  0  0  0  0
   56.2699   28.5465   45.6375 H   0  0  0  0  0  0  0  0  0  0  0  0
  1  2  1  0
  2  3  1  0
  3  4  1  0
  4  5  2  0
  5  6  1  0
  6  7  2  0
  7  8  1  0
  8  9  1  0
  9 10  2  0
  9 11  1  0
 11 12  1  0
 12 13  2  0
 13 14  1  0
 14 15  2  0
 14 16  1  0
 16 17  1  0
 17 18  2  0
 18 19  1  0
 19 20  2  0
 20 21  1  0
 21 22  2  0
 22 23  1  0
 16 24  1  0
  8 25  2  0
 25  4  1  0
 24 11  2  0
 22 17  1  0
  1 26  1  0
  1 27  1  0
  1 28  1  0
  2 29  1  0
  2 30  1  0
  5 31  1  0
  6 32  1  0
  7 33  1  0
 12 34  1  0
 13 35  1  0
 18 36  1  0
 19 37  1  0
 20 38  1  0
 21 39  1  0
 23 40  1  0
 23 41  1  0
 23 42  1  0
 24 43  1  0
 25 44  1  0
M  END
>  <UniqueID>  (39) 
38

>  <SMILES>  (39) 
CCOc1cccc(C(=O)c2ccc(=O)n(-c3ccccc3C)c2)c1

>  <Energy>  (39) 
58.71530456602265

>  <Genealogy>  (39) 
CCOc1cccc(C(=O)c2ccc(=O)n(-c3ccccc3C)c2)c1 (3D coordinates assigned)
CCOc1cccc(C(=O)c2ccc(=O)n(-c3ccccc3C)c2)c1 (optimized conformer: 58.71530456602265 kcal/mol)

>  <smiles>  (39) 
CCOc1cccc(C(=O)c2ccc(=O)n(-c3ccccc3C)c2)c1

>  <score_type>  (39) 
oracle

>  <origin>  (39) 
adg

>  <m_score__min__energy>  (39) 
-8.5500000000000007

>  <m_primary>  (39) 
energy

$$$$
39:0
     RDKit          3D

 53 55  0  0  0  0  0  0  0  0999 V2000
   59.0890   34.9810   44.8820 C   0  0  0  0  0  0  0  0  0  0  0  0
   58.0480   34.3230   45.5960 O   0  0  0  0  0  0  0  0  0  0  0  0
   57.9990   32.9450   45.8560 C   0  0  0  0  0  0  0  0  0  0  0  0
   57.3600   32.0570   44.9690 C   0  0  0  0  0  0  0  0  0  0  0  0
   57.3720   30.6780   45.2030 C   0  0  0  0  0  0  0  0  0  0  0  0
   56.7340   29.7370   44.2130 C   0  0  0  0  0  0  0  0  0  0  0  0
   57.7580   29.1430   43.3360 N   0  0  0  0  0  0  0  0  0  0  0  0
   57.9080   27.6960   43.5660 C   0  0  0  0  0  0  0  0  0  0  0  0
   58.5160   27.4020   44.9180 C   0  0  0  0  0  0  0  0  0  0  0  0
   57.7510   26.7680   45.9130 C   0  0  0  0  0  0  0  0  0  0  0  0
   58.3030   26.5180   47.1750 C   0  0  0  0  0  0  0  0  0  0  0  0
   59.6180   26.9030   47.4550 C   0  0  0  0  0  0  0  0  0  0  0  0
   60.1510   26.6630   48.6780 F   0  0  0  0  0  0  0  0  0  0  0  0
   60.3840   27.5390   46.4720 C   0  0  0  0  0  0  0  0  0  0  0  0
   59.8360   27.7900   45.2080 C   0  0  0  0  0  0  0  0  0  0  0  0
   58.0500   30.1730   46.3170 C   0  0  0  0  0  0  0  0  0  0  0  0
   58.6800   31.0430   47.2240 C   0  0  0  0  0  0  0  0  0  0  0  0
   59.3560   30.5690   48.3590 O   0  0  0  0  0  0  0  0  0  0  0  0
   60.7710   30.4620   48.4730 C   0  0  0  0  0  0  0  0  0  0  0  0
   58.6350   32.4310   47.0090 C   0  0  0  0  0  0  0  0  0  0  0  0
   59.2600   33.2510   47.9650 O   0  0  0  0  0  0  0  0  0  0  0  0
   60.1730   34.3140   47.6840 C   0  0  0  0  0  0  0  0  0  0  0  0
   61.5880   33.8840   47.9590 C   0  0  0  0  0  0  0  0  0  0  0  0
   62.4130   33.4800   46.8970 C   0  0  0  0  0  0  0  0  0  0  0  0
   63.7210   33.0550   47.1440 C   0  0  0  0  0  0  0  0  0  0  0  0
   64.2130   33.0250   48.4540 C   0  0  0  0  0  0  0  0  0  0  0  0
   63.3960   33.4170   49.5170 C   0  0  0  0  0  0  0  0  0  0  0  0
   62.0880   33.8470   49.2720 C   0  0  0  0  0  0  0  0  0  0  0  0
   59.7968   35.4284   45.5953 H   0  0  0  0  0  0  0  0  0  0  0  0
   59.6172   34.2523   44.2495 H   0  0  0  0  0  0  0  0  0  0  0  0
   58.6574   35.7707   44.2495 H   0  0  0  0  0  0  0  0  0  0  0  0
   56.8451   32.4528   44.0812 H   0  0  0  0  0  0  0  0  0  0  0  0
   56.2142   28.9353   44.7580 H   0  0  0  0  0  0  0  0  0  0  0  0
   56.0183   30.2998   43.5957 H   0  0  0  0  0  0  0  0  0  0  0  0
   58.6790   29.6010   43.5350 H   0  0  0  0  0  0  0  0  0  0  0  0
   57.5150   29.3210   42.3310 H   0  0  0  0  0  0  0  0  0  0  0  0
   56.9168   27.2222   43.5108 H   0  0  0  0  0  0  0  0  0  0  0  0
   58.5816   27.2954   42.7941 H   0  0  0  0  0  0  0  0  0  0  0  0
   56.7148   26.4673   45.6989 H   0  0  0  0  0  0  0  0  0  0  0  0
   57.7012   26.0177   47.9480 H   0  0  0  0  0  0  0  0  0  0  0  0
   61.4181   27.8423   46.6924 H   0  0  0  0  0  0  0  0  0  0  0  0
   60.4407   28.2928   44.4388 H   0  0  0  0  0  0  0  0  0  0  0  0
   58.0907   29.0866   46.4849 H   0  0  0  0  0  0  0  0  0  0  0  0
   61.0526   30.4407   49.5361 H   0  0  0  0  0  0  0  0  0  0  0  0
   61.1091   29.5357   47.9855 H   0  0  0  0  0  0  0  0  0  0  0  0
   61.2446   31.3269   47.9855 H   0  0  0  0  0  0  0  0  0  0  0  0
   60.0811   34.5990   46.6255 H   0  0  0  0  0  0  0  0  0  0  0  0
   59.9306   35.1698   48.3312 H   0  0  0  0  0  0  0  0  0  0  0  0
   62.0281   33.4982   45.8667 H   0  0  0  0  0  0  0  0  0  0  0  0
   64.3647   32.7437   46.3081 H   0  0  0  0  0  0  0  0  0  0  0  0
   65.2437   32.6925   48.6465 H   0  0  0  0  0  0  0  0  0  0  0  0
   63.7814   33.3875   50.5468 H   0  0  0  0  0  0  0  0  0  0  0  0
   61.4476   34.1577   50.1107 H   0  0  0  0  0  0  0  0  0  0  0  0
  1  2  1  0
  2  3  1  0
  3  4  2  0
  4  5  1  0
  5  6  1  0
  6  7  1  0
  7  8  1  0
  8  9  1  0
  9 10  2  0
 10 11  1  0
 11 12  2  0
 12 13  1  0
 12 14  1  0
 14 15  2  0
  5 16  2  0
 16 17  1  0
 17 18  1  0
 18 19  1  0
 17 20  2  0
 20 21  1  0
 21 22  1  0
 22 23  1  0
 23 24  2  0
 24 25  1  0
 25 26  2  0
 26 27  1  0
 27 28  2  0
 20  3  1  0
 28 23  1  0
 15  9  1  0
  1 29  1  0
  1 30  1  0
  1 31  1  0
  4 32  1  0
  6 33  1  0
  6 34  1  0
  7 35  1  0
  7 36  1  0
  8 37  1  0
  8 38  1  0
 10 39  1  0
 11 40  1  0
 14 41  1  0
 15 42  1  0
 16 43  1  0
 19 44  1  0
 19 45  1  0
 19 46  1  0
 22 47  1  0
 22 48  1  0
 24 49  1  0
 25 50  1  0
 26 51  1  0
 27 52  1  0
 28 53  1  0
M  CHG  1   7   1
M  END
>  <UniqueID>  (40) 
39

>  <SMILES>  (40) 
COc1cc(C[NH2+]Cc2ccc(F)cc2)cc(OC)c1OCc1ccccc1

>  <Energy>  (40) 
56.3140048920152

>  <Genealogy>  (40) 
COc1cc(C[NH2+]Cc2ccc(F)cc2)cc(OC)c1OCc1ccccc1 (protonated)
COc1cc(C[NH2+]Cc2ccc(F)cc2)cc(OC)c1OCc1ccccc1 (3D coordinates assigned)
COc1cc(C[NH2+]Cc2ccc(F)cc2)cc(OC)c1OCc1ccccc1 (optimized conformer: 56.3140048920152 kcal/mol)

>  <smiles>  (40) 
COc1cc(CNCc2ccc(F)cc2)cc(OC)c1OCc1ccccc1

>  <score_type>  (40) 
oracle

>  <origin>  (40) 
adg

>  <m_score__min__energy>  (40) 
-5.3600000000000003

>  <m_primary>  (40) 
energy

$$$$
40:0
     RDKit          3D

 60 65  0  0  0  0  0  0  0  0999 V2000
   56.6450   23.5230   42.9940 C   0  0  0  0  0  0  0  0  0  0  0  0
   57.0470   24.7230   43.7990 C   0  0  0  0  0  0  0  0  0  0  0  0
   56.6520   24.8350   45.1400 C   0  0  0  0  0  0  0  0  0  0  0  0
   56.9940   25.9700   45.8820 C   0  0  0  0  0  0  0  0  0  0  0  0
   57.7130   27.0160   45.2880 C   0  0  0  0  0  0  0  0  0  0  0  0
   58.1080   28.1920   46.0930 C   0  0  0  0  0  0  0  0  0  0  0  0
   58.5680   27.9610   47.3470 N   0  0  0  0  0  0  0  0  0  0  0  0
   59.0300   28.9450   48.1540 C   0  0  0  0  0  0  0  0  0  0  0  0
   59.4620   28.6210   49.3980 N   0  0  0  0  0  0  0  0  0  0  0  0
   59.9960   29.5510   50.2280 C   0  0  0  0  0  0  0  0  0  0  0  0
   60.4280   29.1850   51.5560 N   0  0  0  0  0  0  0  0  0  0  0  0
   59.5460   29.4280   52.7050 C   0  0  0  0  0  0  0  0  0  0  0  0
   59.9040   28.4910   53.8630 C   0  0  0  0  0  0  0  0  0  0  0  0
   61.2870   28.5450   54.1450 O   0  0  0  0  0  0  0  0  0  0  0  0
   62.0120   28.0270   53.0490 C   0  0  0  0  0  0  0  0  0  0  0  0
   61.8510   28.9220   51.8170 C   0  0  0  0  0  0  0  0  0  0  0  0
   60.1790   30.8150   49.7700 N   0  0  0  0  0  0  0  0  0  0  0  0
   59.7770   31.2080   48.5330 C   0  0  0  0  0  0  0  0  0  0  0  0
   60.2630   32.4750   48.0530 N   0  0  0  0  0  0  0  0  0  0  0  0
   59.5600   33.7130   48.4270 C   0  0  0  0  0  0  0  0  0  0  0  0
   59.3780   34.6690   47.2200 C   0  0  0  0  0  0  0  0  0  0  0  0
   60.0570   34.2660   46.0430 O   0  0  0  0  0  0  0  0  0  0  0  0
   61.3710   33.8570   46.3540 C   0  0  0  0  0  0  0  0  0  0  0  0
   61.3100   32.4900   47.0260 C   0  0  0  0  0  0  0  0  0  0  0  0
   59.0830   30.2820   47.7000 C   0  0  0  0  0  0  0  0  0  0  0  0
   58.4370   30.5910   46.4660 C   0  0  0  0  0  0  0  0  0  0  0  0
   58.1210   31.9140   46.0800 C   0  0  0  0  0  0  0  0  0  0  0  0
   57.5090   32.1830   44.8570 C   0  0  0  0  0  0  0  0  0  0  0  0
   57.1450   31.1410   44.0120 C   0  0  0  0  0  0  0  0  0  0  0  0
   57.3570   29.8210   44.4030 C   0  0  0  0  0  0  0  0  0  0  0  0
   57.9860   29.5240   45.6320 C   0  0  0  0  0  0  0  0  0  0  0  0
   58.1130   26.9000   43.9460 C   0  0  0  0  0  0  0  0  0  0  0  0
   57.7690   25.7680   43.2020 C   0  0  0  0  0  0  0  0  0  0  0  0
   56.3699   22.7019   43.6723 H   0  0  0  0  0  0  0  0  0  0  0  0
   55.7835   23.7788   42.3597 H   0  0  0  0  0  0  0  0  0  0  0  0
   57.4868   23.2082   42.3597 H   0  0  0  0  0  0  0  0  0  0  0  0
   56.0713   24.0275   45.6097 H   0  0  0  0  0  0  0  0  0  0  0  0
   56.6967   26.0422   46.9386 H   0  0  0  0  0  0  0  0  0  0  0  0
   59.6600   30.4712   53.0348 H   0  0  0  0  0  0  0  0  0  0  0  0
   58.5058   29.2380   52.4018 H   0  0  0  0  0  0  0  0  0  0  0  0
   59.3416   28.7938   54.7585 H   0  0  0  0  0  0  0  0  0  0  0  0
   59.6434   27.4616   53.5760 H   0  0  0  0  0  0  0  0  0  0  0  0
   63.0775   27.9700   53.3163 H   0  0  0  0  0  0  0  0  0  0  0  0
   61.6224   27.0264   52.8105 H   0  0  0  0  0  0  0  0  0  0  0  0
   62.3696   29.8761   51.9921 H   0  0  0  0  0  0  0  0  0  0  0  0
   62.2846   28.4100   50.9453 H   0  0  0  0  0  0  0  0  0  0  0  0
   58.5683   33.4513   48.8246 H   0  0  0  0  0  0  0  0  0  0  0  0
   60.1686   34.2329   49.1815 H   0  0  0  0  0  0  0  0  0  0  0  0
   58.3039   34.7336   46.9919 H   0  0  0  0  0  0  0  0  0  0  0  0
   59.8136   35.6343   47.5173 H   0  0  0  0  0  0  0  0  0  0  0  0
   61.9662   33.7899   45.4313 H   0  0  0  0  0  0  0  0  0  0  0  0
   61.8411   34.5867   47.0297 H   0  0  0  0  0  0  0  0  0  0  0  0
   61.0875   31.7231   46.2694 H   0  0  0  0  0  0  0  0  0  0  0  0
   62.2801   32.2804   47.5003 H   0  0  0  0  0  0  0  0  0  0  0  0
   58.3626   32.7463   46.7574 H   0  0  0  0  0  0  0  0  0  0  0  0
   57.3133   33.2237   44.5594 H   0  0  0  0  0  0  0  0  0  0  0  0
   56.6896   31.3588   43.0347 H   0  0  0  0  0  0  0  0  0  0  0  0
   57.0307   29.0005   43.7470 H   0  0  0  0  0  0  0  0  0  0  0  0
   58.7000   27.7044   43.4786 H   0  0  0  0  0  0  0  0  0  0  0  0
   58.0651   25.6959   42.1451 H   0  0  0  0  0  0  0  0  0  0  0  0
  1  2  1  0
  2  3  2  0
  3  4  1  0
  4  5  2  0
  5  6  1  0
  6  7  2  0
  7  8  1  0
  8  9  2  0
  9 10  1  0
 10 11  1  0
 11 12  1  0
 12 13  1  0
 13 14  1  0
 14 15  1  0
 15 16  1  0
 10 17  2  0
 17 18  1  0
 18 19  1  0
 19 20  1  0
 20 21  1  0
 21 22  1  0
 22 23  1  0
 23 24  1  0
 18 25  2  0
 25 26  1  0
 26 27  2  0
 27 28  1  0
 28 29  2  0
 29 30  1  0
 30 31  2  0
  5 32  1  0
 32 33  2  0
 33  2  1  0
 31  6  1  0
 25  8  1  0
 31 26  1  0
 16 11  1  0
 24 19  1  0
  1 34  1  0
  1 35  1  0
  1 36  1  0
  3 37  1  0
  4 38  1  0
 12 39  1  0
 12 40  1  0
 13 41  1  0
 13 42  1  0
 15 43  1  0
 15 44  1  0
 16 45  1  0
 16 46  1  0
 20 47  1  0
 20 48  1  0
 21 49  1  0
 21 50  1  0
 23 51  1  0
 23 52  1  0
 24 53  1  0
 24 54  1  0
 27 55  1  0
 28 56  1  0
 29 57  1  0
 30 58  1  0
 32 59  1  0
 33 60  1  0
M  END
>  <UniqueID>  (41) 
40

>  <SMILES>  (41) 
Cc1ccc(-c2nc3nc(N4CCOCC4)nc(N4CCOCC4)c3c3ccccc23)cc1

>  <Energy>  (41) 
105.76558079649355

>  <Genealogy>  (41) 
Cc1ccc(-c2nc3nc(N4CCOCC4)nc(N4CCOCC4)c3c3ccccc23)cc1 (3D coordinates assigned)
Cc1ccc(-c2nc3nc(N4CCOCC4)nc(N4CCOCC4)c3c3ccccc23)cc1 (nonaromatic ring conformer: 105.76558079649355 kcal/mol)

>  <smiles>  (41) 
Cc1ccc(-c2nc3nc(N4CCOCC4)nc(N4CCOCC4)c3c3ccccc23)cc1

>  <score_type>  (41) 
oracle

>  <origin>  (41) 
adg

>  <m_score__min__energy>  (41) 
-7.9500000000000002

>  <m_primary>  (41) 
energy

$$$$
41:0
     RDKit          3D

 45 47  0  0  0  0  0  0  0  0999 V2000
   56.2760   20.2870   44.0130 C   0  0  0  0  0  0  0  0  0  0  0  0
   55.8990   21.5460   43.4670 O   0  0  0  0  0  0  0  0  0  0  0  0
   56.1630   22.7840   44.0730 C   0  0  0  0  0  0  0  0  0  0  0  0
   55.1540   23.5640   44.6700 C   0  0  0  0  0  0  0  0  0  0  0  0
   55.4690   24.7940   45.2540 C   0  0  0  0  0  0  0  0  0  0  0  0
   56.7910   25.2620   45.2590 C   0  0  0  0  0  0  0  0  0  0  0  0
   57.1280   26.6010   45.8530 C   0  0  0  0  0  0  0  0  0  0  0  0
   58.7460   27.1900   45.2410 S   0  0  0  0  0  0  0  0  0  0  0  0
   58.0640   28.5920   44.3470 C   0  0  0  0  0  0  0  0  0  0  0  0
   57.1170   28.4890   43.4010 N   0  0  0  0  0  0  0  0  0  0  0  0
   56.8150   29.7090   42.9860 N   0  0  0  0  0  0  0  0  0  0  0  0
   57.6000   30.5520   43.6940 C   0  0  0  0  0  0  0  0  0  0  0  0
   57.5730   32.0500   43.5560 C   0  0  0  0  0  0  0  0  0  0  0  0
   57.1520   32.6950   44.8020 N   0  0  0  0  0  0  0  0  0  0  0  0
   58.0250   33.4520   45.6650 C   0  0  0  0  0  0  0  0  0  0  0  0
   58.8090   34.5210   45.1830 C   0  0  0  0  0  0  0  0  0  0  0  0
   59.6380   35.2400   46.0530 C   0  0  0  0  0  0  0  0  0  0  0  0
   59.6960   34.9000   47.4080 C   0  0  0  0  0  0  0  0  0  0  0  0
   58.9240   33.8430   47.8950 C   0  0  0  0  0  0  0  0  0  0  0  0
   58.0940   33.1220   47.0290 C   0  0  0  0  0  0  0  0  0  0  0  0
   58.4080   29.8790   44.5430 N   0  0  0  0  0  0  0  0  0  0  0  0
   59.3190   30.4280   45.5440 C   0  0  0  0  0  0  0  0  0  0  0  0
   57.7950   24.4830   44.6630 C   0  0  0  0  0  0  0  0  0  0  0  0
   57.4810   23.2540   44.0790 C   0  0  0  0  0  0  0  0  0  0  0  0
   56.2590   20.3438   45.1114 H   0  0  0  0  0  0  0  0  0  0  0  0
   55.5698   19.5144   43.6748 H   0  0  0  0  0  0  0  0  0  0  0  0
   57.2906   20.0297   43.6748 H   0  0  0  0  0  0  0  0  0  0  0  0
   54.1146   23.2041   44.6767 H   0  0  0  0  0  0  0  0  0  0  0  0
   54.6739   25.3997   45.7133 H   0  0  0  0  0  0  0  0  0  0  0  0
   56.3501   27.3265   45.5728 H   0  0  0  0  0  0  0  0  0  0  0  0
   57.1791   26.4999   46.9471 H   0  0  0  0  0  0  0  0  0  0  0  0
   56.6710   27.6130   43.0520 H   0  0  0  0  0  0  0  0  0  0  0  0
   58.5811   32.4032   43.2932 H   0  0  0  0  0  0  0  0  0  0  0  0
   56.8498   32.3118   42.7696 H   0  0  0  0  0  0  0  0  0  0  0  0
   56.1560   32.5620   45.0920 H   0  0  0  0  0  0  0  0  0  0  0  0
   58.7690   34.7914   44.1175 H   0  0  0  0  0  0  0  0  0  0  0  0
   60.2446   36.0737   45.6697 H   0  0  0  0  0  0  0  0  0  0  0  0
   60.3491   35.4645   48.0898 H   0  0  0  0  0  0  0  0  0  0  0  0
   58.9684   33.5766   48.9613 H   0  0  0  0  0  0  0  0  0  0  0  0
   57.4903   32.2896   47.4197 H   0  0  0  0  0  0  0  0  0  0  0  0
   58.9389   30.1990   46.5505 H   0  0  0  0  0  0  0  0  0  0  0  0
   60.3157   29.9800   45.4177 H   0  0  0  0  0  0  0  0  0  0  0  0
   59.3885   31.5185   45.4177 H   0  0  0  0  0  0  0  0  0  0  0  0
   58.8346   24.8425   44.6559 H   0  0  0  0  0  0  0  0  0  0  0  0
   58.2771   22.6498   43.6195 H   0  0  0  0  0  0  0  0  0  0  0  0
  1  2  1  0
  2  3  1  0
  3  4  2  0
  4  5  1  0
  5  6  2  0
  6  7  1  0
  7  8  1  0
  8  9  1  0
  9 10  2  0
 10 11  1  0
 11 12  2  0
 12 13  1  0
 13 14  1  0
 14 15  1  0
 15 16  2  0
 16 17  1  0
 17 18  2  0
 18 19  1  0
 19 20  2  0
 12 21  1  0
 21 22  1  0
  6 23  1  0
 23 24  2  0
 24  3  1  0
 21  9  1  0
 20 15  1  0
  1 25  1  0
  1 26  1  0
  1 27  1  0
  4 28  1  0
  5 29  1  0
  7 30  1  0
  7 31  1  0
 10 32  1  0
 13 33  1  0
 13 34  1  0
 14 35  1  0
 16 36  1  0
 17 37  1  0
 18 38  1  0
 19 39  1  0
 20 40  1  0
 22 41  1  0
 22 42  1  0
 22 43  1  0
 23 44  1  0
 24 45  1  0
M  CHG  1  10   1
M  END
>  <UniqueID>  (42) 
41

>  <SMILES>  (42) 
COc1ccc(CSc2[nH+]nc(CNc3ccccc3)n2C)cc1

>  <Energy>  (42) 
75.5978547773107

>  <Genealogy>  (42) 
COc1ccc(CSc2[nH+]nc(CNc3ccccc3)n2C)cc1 (protonated)
COc1ccc(CSc2[nH+]nc(CNc3ccccc3)n2C)cc1 (3D coordinates assigned)
COc1ccc(CSc2[nH+]nc(CNc3ccccc3)n2C)cc1 (optimized conformer: 75.5978547773107 kcal/mol)

>  <smiles>  (42) 
COc1ccc(CSc2nnc(CNc3ccccc3)n2C)cc1

>  <score_type>  (42) 
oracle

>  <origin>  (42) 
adg

>  <m_score__min__energy>  (42) 
-6.7999999999999998

>  <m_primary>  (42) 
energy

$$$$
42:0
     RDKit          3D

 38 40  0  0  0  0  0  0  0  0999 V2000
   62.9590   32.9180   47.1270 C   0  0  0  0  0  0  0  0  0  0  0  0
   62.7260   31.4670   47.5350 C   0  0  0  0  0  0  0  0  0  0  0  0
   61.3350   31.0330   47.1800 C   0  0  0  0  0  0  0  0  0  0  0  0
   61.0280   30.3860   46.0390 N   0  0  0  0  0  0  0  0  0  0  0  0
   59.7100   30.1170   46.1730 C   0  0  0  0  0  0  0  0  0  0  0  0
   58.9130   29.3870   45.1690 C   0  0  0  0  0  0  0  0  0  0  0  0
   57.7960   29.9960   44.5780 C   0  0  0  0  0  0  0  0  0  0  0  0
   57.0440   29.2890   43.6350 C   0  0  0  0  0  0  0  0  0  0  0  0
   57.3930   28.0200   43.2930 N   0  0  0  0  0  0  0  0  0  0  0  0
   58.4700   27.4050   43.8520 C   0  0  0  0  0  0  0  0  0  0  0  0
   59.2480   28.0760   44.8000 C   0  0  0  0  0  0  0  0  0  0  0  0
   59.2170   30.5550   47.3120 O   0  0  0  0  0  0  0  0  0  0  0  0
   60.1990   31.1230   47.9640 C   0  0  0  0  0  0  0  0  0  0  0  0
   60.0640   31.6880   49.3440 C   0  0  0  0  0  0  0  0  0  0  0  0
   58.5540   32.7090   49.4890 S   0  0  0  0  0  0  0  0  0  0  0  0
   58.6860   33.4330   47.8480 C   0  0  0  0  0  0  0  0  0  0  0  0
   57.7340   33.1210   46.8690 C   0  0  0  0  0  0  0  0  0  0  0  0
   57.8140   33.7060   45.6010 C   0  0  0  0  0  0  0  0  0  0  0  0
   58.8490   34.6000   45.3070 C   0  0  0  0  0  0  0  0  0  0  0  0
   59.8090   34.9020   46.2770 C   0  0  0  0  0  0  0  0  0  0  0  0
   59.7340   34.3160   47.5440 C   0  0  0  0  0  0  0  0  0  0  0  0
   60.6720   34.6180   48.4770 F   0  0  0  0  0  0  0  0  0  0  0  0
   63.0590   33.5408   48.0282 H   0  0  0  0  0  0  0  0  0  0  0  0
   63.8798   32.9875   46.5293 H   0  0  0  0  0  0  0  0  0  0  0  0
   62.1062   33.2723   46.5293 H   0  0  0  0  0  0  0  0  0  0  0  0
   63.4493   30.8243   47.0118 H   0  0  0  0  0  0  0  0  0  0  0  0
   62.8562   31.3807   48.6239 H   0  0  0  0  0  0  0  0  0  0  0  0
   57.5138   31.0226   44.8546 H   0  0  0  0  0  0  0  0  0  0  0  0
   56.1669   29.7609   43.1681 H   0  0  0  0  0  0  0  0  0  0  0  0
   56.8200   27.5050   42.5870 H   0  0  0  0  0  0  0  0  0  0  0  0
   58.7293   26.3774   43.5574 H   0  0  0  0  0  0  0  0  0  0  0  0
   60.1179   27.5787   45.2539 H   0  0  0  0  0  0  0  0  0  0  0  0
   60.0101   30.8612   50.0676 H   0  0  0  0  0  0  0  0  0  0  0  0
   60.9380   32.3236   49.5496 H   0  0  0  0  0  0  0  0  0  0  0  0
   56.9222   32.4148   47.0977 H   0  0  0  0  0  0  0  0  0  0  0  0
   57.0630   33.4630   44.8349 H   0  0  0  0  0  0  0  0  0  0  0  0
   58.9074   35.0655   44.3121 H   0  0  0  0  0  0  0  0  0  0  0  0
   60.6248   35.6018   46.0431 H   0  0  0  0  0  0  0  0  0  0  0  0
  1  2  1  0
  2  3  1  0
  3  4  1  0
  4  5  2  0
  5  6  1  0
  6  7  2  0
  7  8  1  0
  8  9  2  0
  9 10  1  0
 10 11  2  0
  5 12  1  0
 12 13  1  0
 13 14  1  0
 14 15  1  0
 15 16  1  0
 16 17  2  0
 17 18  1  0
 18 19  2  0
 19 20  1  0
 20 21  2  0
 21 22  1  0
 13  3  2  0
 21 16  1  0
 11  6  1  0
  1 23  1  0
  1 24  1  0
  1 25  1  0
  2 26  1  0
  2 27  1  0
  7 28  1  0
  8 29  1  0
  9 30  1  0
 10 31  1  0
 11 32  1  0
 14 33  1  0
 14 34  1  0
 17 35  1  0
 18 36  1  0
 19 37  1  0
 20 38  1  0
M  CHG  1   9   1
M  END
>  <UniqueID>  (43) 
42

>  <SMILES>  (43) 
CCc1nc(-c2cc[nH+]cc2)oc1CSc1ccccc1F

>  <Energy>  (43) 
59.92953561159315

>  <Genealogy>  (43) 
CCc1nc(-c2cc[nH+]cc2)oc1CSc1ccccc1F (protonated)
CCc1nc(-c2cc[nH+]cc2)oc1CSc1ccccc1F (3D coordinates assigned)
CCc1nc(-c2cc[nH+]cc2)oc1CSc1ccccc1F (optimized conformer: 59.92953561159315 kcal/mol)

>  <smiles>  (43) 
CCc1nc(-c2ccncc2)oc1CSc1ccccc1F

>  <score_type>  (43) 
oracle

>  <origin>  (43) 
adg

>  <m_score__min__energy>  (43) 
-5.71

>  <m_primary>  (43) 
energy

$$$$
43:0
     RDKit          3D

 38 40  0  0  0  0  0  0  0  0999 V2000
   55.6720   29.7310   43.7080 C   0  0  0  0  0  0  0  0  0  0  0  0
   56.2590   30.7150   44.5310 O   0  0  0  0  0  0  0  0  0  0  0  0
   57.1230   31.5400   43.7720 C   0  0  0  0  0  0  0  0  0  0  0  0
   58.1140   32.2630   44.6880 C   0  0  0  0  0  0  0  0  0  0  0  0
   58.0870   31.6950   46.0350 N   0  0  0  0  0  0  0  0  0  0  0  0
   59.2530   31.0900   46.6080 C   0  0  0  0  0  0  0  0  0  0  0  0
   59.6200   29.7350   46.6220 C   0  0  0  0  0  0  0  0  0  0  0  0
   58.9880   28.6220   45.8860 C   0  0  0  0  0  0  0  0  0  0  0  0
   59.0520   28.5930   44.4840 C   0  0  0  0  0  0  0  0  0  0  0  0
   58.4520   27.5520   43.7710 C   0  0  0  0  0  0  0  0  0  0  0  0
   57.7700   26.5390   44.4510 C   0  0  0  0  0  0  0  0  0  0  0  0
   57.6800   26.5720   45.8460 C   0  0  0  0  0  0  0  0  0  0  0  0
   58.2840   27.6090   46.5650 C   0  0  0  0  0  0  0  0  0  0  0  0
   58.1470   27.6420   47.9140 F   0  0  0  0  0  0  0  0  0  0  0  0
   60.7420   29.5890   47.3810 N   0  0  0  0  0  0  0  0  0  0  0  0
   61.0150   30.8420   47.7800 C   0  0  0  0  0  0  0  0  0  0  0  0
   62.2250   31.4930   48.7400 S   0  0  0  0  0  0  0  0  0  0  0  0
   61.5440   33.0610   48.5700 C   0  0  0  0  0  0  0  0  0  0  0  0
   62.1360   34.3080   49.1350 C   0  0  0  0  0  0  0  0  0  0  0  0
   60.4050   33.0080   47.7500 C   0  0  0  0  0  0  0  0  0  0  0  0
   60.1620   31.7450   47.3410 N   0  0  0  0  0  0  0  0  0  0  0  0
   55.2095   28.9557   44.3364 H   0  0  0  0  0  0  0  0  0  0  0  0
   54.9031   30.1952   43.0729 H   0  0  0  0  0  0  0  0  0  0  0  0
   56.4457   29.2749   43.0729 H   0  0  0  0  0  0  0  0  0  0  0  0
   57.6796   30.9187   43.0549 H   0  0  0  0  0  0  0  0  0  0  0  0
   56.5210   32.2891   43.2367 H   0  0  0  0  0  0  0  0  0  0  0  0
   59.1280   32.1609   44.2740 H   0  0  0  0  0  0  0  0  0  0  0  0
   57.8292   33.3238   44.7474 H   0  0  0  0  0  0  0  0  0  0  0  0
   57.1650   31.3500   46.3860 H   0  0  0  0  0  0  0  0  0  0  0  0
   59.5774   29.3943   43.9438 H   0  0  0  0  0  0  0  0  0  0  0  0
   58.5164   27.5296   42.6731 H   0  0  0  0  0  0  0  0  0  0  0  0
   57.3042   25.7161   43.8889 H   0  0  0  0  0  0  0  0  0  0  0  0
   57.1329   25.7806   46.3794 H   0  0  0  0  0  0  0  0  0  0  0  0
   61.2820   28.7190   47.5830 H   0  0  0  0  0  0  0  0  0  0  0  0
   62.1131   34.2597   50.2337 H   0  0  0  0  0  0  0  0  0  0  0  0
   63.1771   34.4068   48.7940 H   0  0  0  0  0  0  0  0  0  0  0  0
   61.5544   35.1772   48.7940 H   0  0  0  0  0  0  0  0  0  0  0  0
   59.7924   33.8800   47.4774 H   0  0  0  0  0  0  0  0  0  0  0  0
  1  2  1  0
  2  3  1  0
  3  4  1  0
  4  5  1  0
  5  6  1  0
  6  7  2  0
  7  8  1  0
  8  9  2  0
  9 10  1  0
 10 11  2  0
 11 12  1  0
 12 13  2  0
 13 14  1  0
  7 15  1  0
 15 16  2  0
 16 17  1  0
 17 18  1  0
 18 19  1  0
 18 20  2  0
 20 21  1  0
 21  6  1  0
 13  8  1  0
 21 16  1  0
  1 22  1  0
  1 23  1  0
  1 24  1  0
  3 25  1  0
  3 26  1  0
  4 27  1  0
  4 28  1  0
  5 29  1  0
  9 30  1  0
 10 31  1  0
 11 32  1  0
 12 33  1  0
 15 34  1  0
 19 35  1  0
 19 36  1  0
 19 37  1  0
 20 38  1  0
M  CHG  1  15   1
M  END
>  <UniqueID>  (44) 
43

>  <SMILES>  (44) 
COCCNc1c(-c2ccccc2F)[nH+]c2sc(C)cn12

>  <Energy>  (44) 
125.57783391378284

>  <Genealogy>  (44) 
COCCNc1c(-c2ccccc2F)[nH+]c2sc(C)cn12 (protonated)
COCCNc1c(-c2ccccc2F)[nH+]c2sc(C)cn12 (3D coordinates assigned)
COCCNc1c(-c2ccccc2F)[nH+]c2sc(C)cn12 (optimized conformer: 125.57783391378284 kcal/mol)

>  <smiles>  (44) 
COCCNc1c(-c2ccccc2F)nc2sc(C)cn12

>  <score_type>  (44) 
oracle

>  <origin>  (44) 
adg

>  <m_score__min__energy>  (44) 
-4.3399999999999999

>  <m_primary>  (44) 
energy

$$$$
44:0
     RDKit          3D

 58 61  0  0  0  0  0  0  0  0999 V2000
   55.9020   30.1120   44.1260 C   0  0  0  0  0  0  0  0  0  0  0  0
   57.0010   30.6280   43.1970 C   0  0  0  0  0  0  0  0  0  0  0  0
   58.0050   31.5540   43.9060 C   0  0  0  0  0  0  0  0  0  0  0  0
   57.4120   32.9130   44.2920 C   0  0  0  0  0  0  0  0  0  0  0  0
   58.4080   33.7280   44.9030 O   0  0  0  0  0  0  0  0  0  0  0  0
   58.7620   33.6680   46.2590 C   0  0  0  0  0  0  0  0  0  0  0  0
   58.1920   32.7370   47.1470 C   0  0  0  0  0  0  0  0  0  0  0  0
   58.5820   32.7140   48.4900 C   0  0  0  0  0  0  0  0  0  0  0  0
   59.5530   33.6110   48.9620 C   0  0  0  0  0  0  0  0  0  0  0  0
   59.9450   33.6050   50.3460 N   0  0  0  0  0  0  0  0  0  0  0  0
   59.1130   33.4850   51.3950 C   0  0  0  0  0  0  0  0  0  0  0  0
   59.8690   33.4690   52.5430 C   0  0  0  0  0  0  0  0  0  0  0  0
   61.1740   33.5910   52.2270 N   0  0  0  0  0  0  0  0  0  0  0  0
   61.1890   33.6880   50.8790 C   0  0  0  0  0  0  0  0  0  0  0  0
   62.4590   33.8490   50.0790 C   0  0  0  0  0  0  0  0  0  0  0  0
   63.1180   32.5090   49.7140 C   0  0  0  0  0  0  0  0  0  0  0  0
   62.2130   31.6220   48.8920 C   0  0  0  0  0  0  0  0  0  0  0  0
   62.1190   31.8020   47.5040 C   0  0  0  0  0  0  0  0  0  0  0  0
   61.2800   30.9850   46.7400 C   0  0  0  0  0  0  0  0  0  0  0  0
   60.5220   29.9690   47.3500 C   0  0  0  0  0  0  0  0  0  0  0  0
   59.6280   29.1030   46.5390 C   0  0  0  0  0  0  0  0  0  0  0  0
   58.5210   28.4640   47.1300 C   0  0  0  0  0  0  0  0  0  0  0  0
   57.6820   27.6480   46.3650 C   0  0  0  0  0  0  0  0  0  0  0  0
   57.9380   27.4620   45.0040 C   0  0  0  0  0  0  0  0  0  0  0  0
   59.0330   28.0890   44.4060 C   0  0  0  0  0  0  0  0  0  0  0  0
   59.8750   28.9050   45.1680 C   0  0  0  0  0  0  0  0  0  0  0  0
   60.6270   29.7860   48.7400 C   0  0  0  0  0  0  0  0  0  0  0  0
   61.4660   30.6030   49.5040 C   0  0  0  0  0  0  0  0  0  0  0  0
   60.1060   34.5490   48.0790 C   0  0  0  0  0  0  0  0  0  0  0  0
   59.7170   34.5710   46.7360 C   0  0  0  0  0  0  0  0  0  0  0  0
   56.2089   30.2561   45.1725 H   0  0  0  0  0  0  0  0  0  0  0  0
   54.9715   30.6673   43.9370 H   0  0  0  0  0  0  0  0  0  0  0  0
   55.7349   29.0413   43.9370 H   0  0  0  0  0  0  0  0  0  0  0  0
   57.5481   29.7654   42.7889 H   0  0  0  0  0  0  0  0  0  0  0  0
   56.5127   31.2172   42.4068 H   0  0  0  0  0  0  0  0  0  0  0  0
   58.3547   31.0536   44.8211 H   0  0  0  0  0  0  0  0  0  0  0  0
   58.8247   31.7467   43.1982 H   0  0  0  0  0  0  0  0  0  0  0  0
   57.0355   33.4151   43.3886 H   0  0  0  0  0  0  0  0  0  0  0  0
   56.5890   32.7564   45.0049 H   0  0  0  0  0  0  0  0  0  0  0  0
   57.4368   32.0246   46.7835 H   0  0  0  0  0  0  0  0  0  0  0  0
   58.1254   31.9891   49.1800 H   0  0  0  0  0  0  0  0  0  0  0  0
   58.0166   33.4122   51.3436 H   0  0  0  0  0  0  0  0  0  0  0  0
   59.4702   33.3716   53.5635 H   0  0  0  0  0  0  0  0  0  0  0  0
   62.2209   34.3864   49.1492 H   0  0  0  0  0  0  0  0  0  0  0  0
   63.1723   34.4044   50.7057 H   0  0  0  0  0  0  0  0  0  0  0  0
   64.0321   32.7116   49.1366 H   0  0  0  0  0  0  0  0  0  0  0  0
   63.3402   31.9802   50.6526 H   0  0  0  0  0  0  0  0  0  0  0  0
   62.7088   32.5905   47.0137 H   0  0  0  0  0  0  0  0  0  0  0  0
   61.2121   31.1380   45.6528 H   0  0  0  0  0  0  0  0  0  0  0  0
   58.3149   28.6078   48.2009 H   0  0  0  0  0  0  0  0  0  0  0  0
   56.8198   27.1521   46.8349 H   0  0  0  0  0  0  0  0  0  0  0  0
   57.2762   26.8210   44.4030 H   0  0  0  0  0  0  0  0  0  0  0  0
   59.2334   27.9409   43.3346 H   0  0  0  0  0  0  0  0  0  0  0  0
   60.7368   29.3957   44.6921 H   0  0  0  0  0  0  0  0  0  0  0  0
   60.0439   28.9929   49.2309 H   0  0  0  0  0  0  0  0  0  0  0  0
   61.5411   30.4465   50.5902 H   0  0  0  0  0  0  0  0  0  0  0  0
   60.8502   35.2718   48.4447 H   0  0  0  0  0  0  0  0  0  0  0  0
   60.1657   35.3042   46.0497 H   0  0  0  0  0  0  0  0  0  0  0  0
  1  2  1  0
  2  3  1  0
  3  4  1  0
  4  5  1  0
  5  6  1  0
  6  7  2  0
  7  8  1  0
  8  9  2  0
  9 10  1  0
 10 11  1  0
 11 12  2  0
 12 13  1  0
 13 14  2  0
 14 15  1  0
 15 16  1  0
 16 17  1  0
 17 18  2  0
 18 19  1  0
 19 20  2  0
 20 21  1  0
 21 22  2  0
 22 23  1  0
 23 24  2  0
 24 25  1  0
 25 26  2  0
 20 27  1  0
 27 28  2  0
  9 29  1  0
 29 30  2  0
 30  6  1  0
 14 10  1  0
 28 17  1  0
 26 21  1  0
  1 31  1  0
  1 32  1  0
  1 33  1  0
  2 34  1  0
  2 35  1  0
  3 36  1  0
  3 37  1  0
  4 38  1  0
  4 39  1  0
  7 40  1  0
  8 41  1  0
 11 42  1  0
 12 43  1  0
 15 44  1  0
 15 45  1  0
 16 46  1  0
 16 47  1  0
 18 48  1  0
 19 49  1  0
 22 50  1  0
 23 51  1  0
 24 52  1  0
 25 53  1  0
 26 54  1  0
 27 55  1  0
 28 56  1  0
 29 57  1  0
 30 58  1  0
M  END
>  <UniqueID>  (45) 
44

>  <SMILES>  (45) 
CCCCOc1ccc(-n2ccnc2CCc2ccc(-c3ccccc3)cc2)cc1

>  <Energy>  (45) 
94.76591168596845

>  <Genealogy>  (45) 
CCCCOc1ccc(-n2ccnc2CCc2ccc(-c3ccccc3)cc2)cc1 (3D coordinates assigned)
CCCCOc1ccc(-n2ccnc2CCc2ccc(-c3ccccc3)cc2)cc1 (optimized conformer: 94.76591168596845 kcal/mol)

>  <smiles>  (45) 
CCCCOc1ccc(-n2ccnc2CCc2ccc(-c3ccccc3)cc2)cc1

>  <score_type>  (45) 
oracle

>  <origin>  (45) 
adg

>  <m_score__min__energy>  (45) 
-8.3399999999999999

>  <m_primary>  (45) 
energy

$$$$
45:0
     RDKit          3D

 66 71  0  0  0  0  0  0  0  0999 V2000
   57.7530   31.5380   50.9420 C   0  0  0  0  0  0  0  0  0  0  0  0
   57.5000   31.9860   52.3230 N   0  0  0  0  0  0  0  0  0  0  0  0
   58.3680   31.2940   53.2950 C   0  0  0  0  0  0  0  0  0  0  0  0
   59.8510   31.7120   53.1660 C   0  0  0  0  0  0  0  0  0  0  0  0
   60.0140   33.0360   52.5180 N   0  0  0  0  0  0  0  0  0  0  0  0
   61.3470   33.6170   52.7900 C   0  0  0  0  0  0  0  0  0  0  0  0
   62.4260   32.9690   51.9110 C   0  0  0  0  0  0  0  0  0  0  0  0
   62.0490   33.0440   50.4610 C   0  0  0  0  0  0  0  0  0  0  0  0
   62.9330   32.8440   49.5840 O   0  0  0  0  0  0  0  0  0  0  0  0
   60.6930   33.3370   50.0840 N   0  0  0  0  0  0  0  0  0  0  0  0
   60.2430   33.4110   48.7210 C   0  0  0  0  0  0  0  0  0  0  0  0
   60.4260   34.5730   47.9540 C   0  0  0  0  0  0  0  0  0  0  0  0
   59.9450   34.6370   46.6440 C   0  0  0  0  0  0  0  0  0  0  0  0
   59.2780   33.5410   46.0780 C   0  0  0  0  0  0  0  0  0  0  0  0
   59.1350   32.3490   46.8280 C   0  0  0  0  0  0  0  0  0  0  0  0
   59.5600   32.3200   48.1670 C   0  0  0  0  0  0  0  0  0  0  0  0
   58.4130   31.2270   46.1830 C   0  0  0  0  0  0  0  0  0  0  0  0
   57.6440   31.4300   45.0670 C   0  0  0  0  0  0  0  0  0  0  0  0
   57.0310   30.2110   44.8230 C   0  0  0  0  0  0  0  0  0  0  0  0
   56.0480   29.8920   43.7760 C   0  0  0  0  0  0  0  0  0  0  0  0
   54.7780   29.3580   44.1400 N   0  0  0  0  0  0  0  0  0  0  0  0
   56.3140   30.0960   42.5620 O   0  0  0  0  0  0  0  0  0  0  0  0
   57.4710   29.3110   45.7290 N   0  0  0  0  0  0  0  0  0  0  0  0
   58.3160   29.9260   46.5480 N   0  0  0  0  0  0  0  0  0  0  0  0
   59.0770   29.2180   47.5360 C   0  0  0  0  0  0  0  0  0  0  0  0
   59.9750   28.1970   47.1360 C   0  0  0  0  0  0  0  0  0  0  0  0
   60.7350   27.5010   48.0930 C   0  0  0  0  0  0  0  0  0  0  0  0
   60.5840   27.8600   49.4300 C   0  0  0  0  0  0  0  0  0  0  0  0
   59.7410   28.8510   49.8180 C   0  0  0  0  0  0  0  0  0  0  0  0
   58.9740   29.5660   48.9030 C   0  0  0  0  0  0  0  0  0  0  0  0
   59.7920   28.9900   51.1900 O   0  0  0  0  0  0  0  0  0  0  0  0
   60.7210   28.0210   51.6980 C   0  0  0  0  0  0  0  0  0  0  0  0
   61.2100   27.3290   50.5420 O   0  0  0  0  0  0  0  0  0  0  0  0
   57.5040   32.7700   44.4060 C   0  0  0  0  0  0  0  0  0  0  0  0
   58.7770   33.6150   44.6430 C   0  0  0  0  0  0  0  0  0  0  0  0
   58.9510   33.9580   52.9540 C   0  0  0  0  0  0  0  0  0  0  0  0
   57.5790   33.4610   52.4570 C   0  0  0  0  0  0  0  0  0  0  0  0
   58.2938   30.5803   50.9605 H   0  0  0  0  0  0  0  0  0  0  0  0
   56.7949   31.4080   50.4174 H   0  0  0  0  0  0  0  0  0  0  0  0
   58.3591   32.2913   50.4174 H   0  0  0  0  0  0  0  0  0  0  0  0
   58.0210   31.5334   54.3110 H   0  0  0  0  0  0  0  0  0  0  0  0
   58.3055   30.2150   53.0904 H   0  0  0  0  0  0  0  0  0  0  0  0
   60.2942   31.7547   54.1719 H   0  0  0  0  0  0  0  0  0  0  0  0
   60.3545   30.9662   52.5333 H   0  0  0  0  0  0  0  0  0  0  0  0
   61.3166   34.6969   52.5829 H   0  0  0  0  0  0  0  0  0  0  0  0
   61.5991   33.4307   53.8444 H   0  0  0  0  0  0  0  0  0  0  0  0
   63.3794   33.4960   52.0633 H   0  0  0  0  0  0  0  0  0  0  0  0
   62.5232   31.9108   52.1953 H   0  0  0  0  0  0  0  0  0  0  0  0
   59.9680   33.3460   50.8360 H   0  0  0  0  0  0  0  0  0  0  0  0
   60.9508   35.4373   48.3870 H   0  0  0  0  0  0  0  0  0  0  0  0
   60.0904   35.5531   46.0526 H   0  0  0  0  0  0  0  0  0  0  0  0
   59.3549   31.4337   48.7854 H   0  0  0  0  0  0  0  0  0  0  0  0
   54.4670   29.3420   45.1360 H   0  0  0  0  0  0  0  0  0  0  0  0
   60.0782   27.9473   46.0697 H   0  0  0  0  0  0  0  0  0  0  0  0
   61.4264   26.6990   47.7951 H   0  0  0  0  0  0  0  0  0  0  0  0
   58.3080   30.3770   49.2328 H   0  0  0  0  0  0  0  0  0  0  0  0
   61.5466   28.5186   52.2279 H   0  0  0  0  0  0  0  0  0  0  0  0
   60.2492   27.3367   52.4185 H   0  0  0  0  0  0  0  0  0  0  0  0
   57.3570   32.6289   43.3250 H   0  0  0  0  0  0  0  0  0  0  0  0
   56.6382   33.2949   44.8361 H   0  0  0  0  0  0  0  0  0  0  0  0
   59.5706   33.2492   43.9748 H   0  0  0  0  0  0  0  0  0  0  0  0
   58.5198   34.6644   44.4368 H   0  0  0  0  0  0  0  0  0  0  0  0
   58.9427   34.0095   54.0528 H   0  0  0  0  0  0  0  0  0  0  0  0
   59.1457   34.9554   52.5330 H   0  0  0  0  0  0  0  0  0  0  0  0
   56.8098   33.7878   53.1722 H   0  0  0  0  0  0  0  0  0  0  0  0
   57.4229   33.8869   51.4549 H   0  0  0  0  0  0  0  0  0  0  0  0
  1  2  1  0
  2  3  1  0
  3  4  1  0
  4  5  1  0
  5  6  1  0
  6  7  1  0
  7  8  1  0
  8  9  2  0
  8 10  1  0
 10 11  1  0
 11 12  2  0
 12 13  1  0
 13 14  2  0
 14 15  1  0
 15 16  2  0
 15 17  1  0
 17 18  2  0
 18 19  1  0
 19 20  1  0
 20 21  1  0
 20 22  2  0
 19 23  2  0
 23 24  1  0
 24 25  1  0
 25 26  2  0
 26 27  1  0
 27 28  2  0
 28 29  1  0
 29 30  2  0
 29 31  1  0
 31 32  1  0
 32 33  1  0
 18 34  1  0
 34 35  1  0
  5 36  1  0
 36 37  1  0
 37  2  1  0
 16 11  1  0
 24 17  1  0
 30 25  1  0
 35 14  1  0
 33 28  1  0
  1 38  1  0
  1 39  1  0
  1 40  1  0
  3 41  1  0
  3 42  1  0
  4 43  1  0
  4 44  1  0
  6 45  1  0
  6 46  1  0
  7 47  1  0
  7 48  1  0
 10 49  1  0
 12 50  1  0
 13 51  1  0
 16 52  1  0
 21 53  1  0
 26 54  1  0
 27 55  1  0
 30 56  1  0
 32 57  1  0
 32 58  1  0
 34 59  1  0
 34 60  1  0
 35 61  1  0
 35 62  1  0
 36 63  1  0
 36 64  1  0
 37 65  1  0
 37 66  1  0
M  CHG  1  21  -1
M  END
>  <UniqueID>  (46) 
45

>  <SMILES>  (46) 
CN1CCN(CCC(=O)Nc2ccc3c(c2)-c2c(c(C([NH-])=O)nn2-c2ccc4c(c2)OCO4)CC3)CC1

>  <Energy>  (46) 
155.69576717551075

>  <Genealogy>  (46) 
CN1CCN(CCC(=O)Nc2ccc3c(c2)-c2c(c(C([NH-])=O)nn2-c2ccc4c(c2)OCO4)CC3)CC1 (protonated)
CN1CCN(CCC(=O)Nc2ccc3c(c2)-c2c(c(C([NH-])=O)nn2-c2ccc4c(c2)OCO4)CC3)CC1 (3D coordinates assigned)
CN1CCN(CCC(=O)Nc2ccc3c(c2)-c2c(c(C([NH-])=O)nn2-c2ccc4c(c2)OCO4)CC3)CC1 (nonaromatic ring conformer: 155.69576717551075 kcal/mol)

>  <smiles>  (46) 
CN1CCN(CCC(=O)Nc2ccc3c(c2)-c2c(c(C(N)=O)nn2-c2ccc4c(c2)OCO4)CC3)CC1

>  <score_type>  (46) 
oracle

>  <origin>  (46) 
adg

>  <m_score__min__energy>  (46) 
-11.82

>  <m_primary>  (46) 
energy

$$$$
46:0
     RDKit          3D

 33 35  0  0  0  0  0  0  0  0999 V2000
   60.7510   30.3100   46.7890 C   0  0  0  0  0  0  0  0  0  0  0  0
   59.7800   31.1790   48.0600 S   0  0  0  0  0  0  0  0  0  0  0  0
   59.4750   32.6140   47.0170 C   0  0  0  0  0  0  0  0  0  0  0  0
   58.2110   32.7670   46.4310 C   0  0  0  0  0  0  0  0  0  0  0  0
   57.9230   33.8940   45.6590 C   0  0  0  0  0  0  0  0  0  0  0  0
   58.8950   34.8790   45.4700 C   0  0  0  0  0  0  0  0  0  0  0  0
   60.1600   34.7340   46.0460 C   0  0  0  0  0  0  0  0  0  0  0  0
   60.4650   33.5960   46.8080 C   0  0  0  0  0  0  0  0  0  0  0  0
   61.7710   33.4690   47.3880 N   0  0  0  0  0  0  0  0  0  0  0  0
   62.9180   33.1520   46.7400 C   0  0  0  0  0  0  0  0  0  0  0  0
   63.9780   33.0710   47.5790 N   0  0  0  0  0  0  0  0  0  0  0  0
   63.4670   33.3340   48.7960 C   0  0  0  0  0  0  0  0  0  0  0  0
   64.1220   33.3500   50.0330 C   0  0  0  0  0  0  0  0  0  0  0  0
   65.5930   33.0780   50.1410 C   0  0  0  0  0  0  0  0  0  0  0  0
   63.3350   33.6100   51.1780 C   0  0  0  0  0  0  0  0  0  0  0  0
   61.9460   33.8390   51.0590 C   0  0  0  0  0  0  0  0  0  0  0  0
   61.3220   33.8150   49.7980 C   0  0  0  0  0  0  0  0  0  0  0  0
   62.1250   33.5700   48.6840 C   0  0  0  0  0  0  0  0  0  0  0  0
   61.4862   29.6520   47.2754 H   0  0  0  0  0  0  0  0  0  0  0  0
   60.0778   29.7071   46.1618 H   0  0  0  0  0  0  0  0  0  0  0  0
   61.2758   31.0457   46.1618 H   0  0  0  0  0  0  0  0  0  0  0  0
   57.4418   31.9949   46.5802 H   0  0  0  0  0  0  0  0  0  0  0  0
   56.9300   34.0063   45.1993 H   0  0  0  0  0  0  0  0  0  0  0  0
   58.6646   35.7698   44.8672 H   0  0  0  0  0  0  0  0  0  0  0  0
   60.9202   35.5158   45.9013 H   0  0  0  0  0  0  0  0  0  0  0  0
   62.9810   32.9799   45.6554 H   0  0  0  0  0  0  0  0  0  0  0  0
   64.9650   32.8380   47.3300 H   0  0  0  0  0  0  0  0  0  0  0  0
   65.8792   33.0251   51.2018 H   0  0  0  0  0  0  0  0  0  0  0  0
   65.8260   32.1215   49.6502 H   0  0  0  0  0  0  0  0  0  0  0  0
   66.1526   33.8879   49.6502 H   0  0  0  0  0  0  0  0  0  0  0  0
   63.8083   33.6343   52.1707 H   0  0  0  0  0  0  0  0  0  0  0  0
   61.3471   34.0378   51.9600 H   0  0  0  0  0  0  0  0  0  0  0  0
   60.2399   33.9834   49.6944 H   0  0  0  0  0  0  0  0  0  0  0  0
  1  2  1  0
  2  3  1  0
  3  4  2  0
  4  5  1  0
  5  6  2  0
  6  7  1  0
  7  8  2  0
  8  9  1  0
  9 10  1  0
 10 11  2  0
 11 12  1  0
 12 13  2  0
 13 14  1  0
 13 15  1  0
 15 16  2  0
 16 17  1  0
 17 18  2  0
  8  3  1  0
 18  9  1  0
 18 12  1  0
  1 19  1  0
  1 20  1  0
  1 21  1  0
  4 22  1  0
  5 23  1  0
  6 24  1  0
  7 25  1  0
 10 26  1  0
 11 27  1  0
 14 28  1  0
 14 29  1  0
 14 30  1  0
 15 31  1  0
 16 32  1  0
 17 33  1  0
M  CHG  1  11   1
M  END
>  <UniqueID>  (47) 
46

>  <SMILES>  (47) 
CSc1ccccc1-n1c[nH+]c2c(C)cccc21

>  <Energy>  (47) 
75.68514212520877

>  <Genealogy>  (47) 
CSc1ccccc1-n1c[nH+]c2c(C)cccc21 (protonated)
CSc1ccccc1-n1c[nH+]c2c(C)cccc21 (3D coordinates assigned)
CSc1ccccc1-n1c[nH+]c2c(C)cccc21 (optimized conformer: 75.68514212520877 kcal/mol)

>  <smiles>  (47) 
CSc1ccccc1-n1cnc2c(C)cccc21

>  <score_type>  (47) 
oracle

>  <origin>  (47) 
adg

>  <m_score__min__energy>  (47) 
-5.2999999999999998

>  <m_primary>  (47) 
energy

$$$$
47:0
     RDKit          3D

 37 39  0  0  0  0  0  0  0  0999 V2000
   58.6420   22.9610   44.9610 C   0  0  0  0  0  0  0  0  0  0  0  0
   59.1050   23.8340   45.9850 O   0  0  0  0  0  0  0  0  0  0  0  0
   59.0900   25.2340   45.9010 C   0  0  0  0  0  0  0  0  0  0  0  0
   59.9740   25.9560   46.7100 C   0  0  0  0  0  0  0  0  0  0  0  0
   60.0010   27.3540   46.6660 C   0  0  0  0  0  0  0  0  0  0  0  0
   59.1390   28.0470   45.8060 C   0  0  0  0  0  0  0  0  0  0  0  0
   59.1510   29.4430   45.7460 C   0  0  0  0  0  0  0  0  0  0  0  0
   58.2890   30.1220   44.8730 C   0  0  0  0  0  0  0  0  0  0  0  0
   58.3320   31.6310   44.8000 C   0  0  0  0  0  0  0  0  0  0  0  0
   58.1300   32.2210   46.1250 N   0  0  0  0  0  0  0  0  0  0  0  0
   59.1510   32.9030   46.8780 C   0  0  0  0  0  0  0  0  0  0  0  0
   58.8410   33.9330   47.7860 C   0  0  0  0  0  0  0  0  0  0  0  0
   59.8570   34.5700   48.5040 C   0  0  0  0  0  0  0  0  0  0  0  0
   61.1890   34.1960   48.3180 C   0  0  0  0  0  0  0  0  0  0  0  0
   61.5100   33.1840   47.4090 C   0  0  0  0  0  0  0  0  0  0  0  0
   63.1840   32.7160   47.1710 Cl  0  0  0  0  0  0  0  0  0  0  0  0
   60.4960   32.5440   46.6890 C   0  0  0  0  0  0  0  0  0  0  0  0
   57.4010   29.3690   44.0770 C   0  0  0  0  0  0  0  0  0  0  0  0
   56.2640   30.1510   42.9810 Cl  0  0  0  0  0  0  0  0  0  0  0  0
   57.4010   28.0080   44.1510 N   0  0  0  0  0  0  0  0  0  0  0  0
   58.2410   27.3320   44.9850 C   0  0  0  0  0  0  0  0  0  0  0  0
   58.2210   25.9300   45.0360 C   0  0  0  0  0  0  0  0  0  0  0  0
   58.1730   22.0768   45.4173 H   0  0  0  0  0  0  0  0  0  0  0  0
   57.9041   23.4865   44.3371 H   0  0  0  0  0  0  0  0  0  0  0  0
   59.4910   22.6449   44.3371 H   0  0  0  0  0  0  0  0  0  0  0  0
   60.6545   25.4192   47.3873 H   0  0  0  0  0  0  0  0  0  0  0  0
   60.7002   27.9101   47.3077 H   0  0  0  0  0  0  0  0  0  0  0  0
   59.8403   30.0123   46.3870 H   0  0  0  0  0  0  0  0  0  0  0  0
   59.3115   31.9456   44.4105 H   0  0  0  0  0  0  0  0  0  0  0  0
   57.5270   31.9752   44.1340 H   0  0  0  0  0  0  0  0  0  0  0  0
   57.1580   32.2080   46.5100 H   0  0  0  0  0  0  0  0  0  0  0  0
   57.7942   34.2380   47.9312 H   0  0  0  0  0  0  0  0  0  0  0  0
   59.6062   35.3685   49.2178 H   0  0  0  0  0  0  0  0  0  0  0  0
   61.9858   34.6977   48.8867 H   0  0  0  0  0  0  0  0  0  0  0  0
   60.7537   31.7533   45.9690 H   0  0  0  0  0  0  0  0  0  0  0  0
   56.7330   27.4760   43.5480 H   0  0  0  0  0  0  0  0  0  0  0  0
   57.5226   25.3700   44.3968 H   0  0  0  0  0  0  0  0  0  0  0  0
  1  2  1  0
  2  3  1  0
  3  4  2  0
  4  5  1  0
  5  6  2  0
  6  7  1  0
  7  8  2  0
  8  9  1  0
  9 10  1  0
 10 11  1  0
 11 12  2  0
 12 13  1  0
 13 14  2  0
 14 15  1  0
 15 16  1  0
 15 17  2  0
  8 18  1  0
 18 19  1  0
 18 20  2  0
 20 21  1  0
 21 22  2  0
 22  3  1  0
 21  6  1  0
 17 11  1  0
  1 23  1  0
  1 24  1  0
  1 25  1  0
  4 26  1  0
  5 27  1  0
  7 28  1  0
  9 29  1  0
  9 30  1  0
 10 31  1  0
 12 32  1  0
 13 33  1  0
 14 34  1  0
 17 35  1  0
 20 36  1  0
 22 37  1  0
M  CHG  1  20   1
M  END
>  <UniqueID>  (48) 
47

>  <SMILES>  (48) 
COc1ccc2cc(CNc3cccc(Cl)c3)c(Cl)[nH+]c2c1

>  <Energy>  (48) 
42.32627010601889

>  <Genealogy>  (48) 
COc1ccc2cc(CNc3cccc(Cl)c3)c(Cl)[nH+]c2c1 (protonated)
COc1ccc2cc(CNc3cccc(Cl)c3)c(Cl)[nH+]c2c1 (3D coordinates assigned)
COc1ccc2cc(CNc3cccc(Cl)c3)c(Cl)[nH+]c2c1 (optimized conformer: 42.32627010601889 kcal/mol)

>  <smiles>  (48) 
COc1ccc2cc(CNc3cccc(Cl)c3)c(Cl)nc2c1

>  <score_type>  (48) 
oracle

>  <origin>  (48) 
adg

>  <m_score__min__energy>  (48) 
-6.4000000000000004

>  <m_primary>  (48) 
energy

$$$$
48:0
     RDKit          3D

 46 49  0  0  0  0  0  0  0  0999 V2000
   61.3320   32.8270   51.5090 C   0  0  0  0  0  0  0  0  0  0  0  0
   60.9850   32.9470   50.0600 C   0  0  0  0  0  0  0  0  0  0  0  0
   61.9760   33.2990   49.1170 C   0  0  0  0  0  0  0  0  0  0  0  0
   61.6130   33.4400   47.7660 C   0  0  0  0  0  0  0  0  0  0  0  0
   62.6220   33.8340   46.7270 C   0  0  0  0  0  0  0  0  0  0  0  0
   60.3100   33.2360   47.4410 N   0  0  0  0  0  0  0  0  0  0  0  0
   59.6690   33.3060   46.2660 C   0  0  0  0  0  0  0  0  0  0  0  0
   58.3340   33.0290   46.5190 C   0  0  0  0  0  0  0  0  0  0  0  0
   57.2410   32.9850   45.5000 C   0  0  0  0  0  0  0  0  0  0  0  0
   57.8820   32.3040   43.9310 S   0  0  0  0  0  0  0  0  0  0  0  0
   58.2620   30.6770   44.5930 C   0  0  0  0  0  0  0  0  0  0  0  0
   57.4360   29.6330   44.6120 C   0  0  0  0  0  0  0  0  0  0  0  0
   56.0220   29.5710   44.2030 C   0  0  0  0  0  0  0  0  0  0  0  0
   55.1380   29.3110   45.0610 O   0  0  0  0  0  0  0  0  0  0  0  0
   55.6440   29.7980   42.8870 O   0  0  0  0  0  0  0  0  0  0  0  0
   58.1200   28.5650   45.2110 N   0  0  0  0  0  0  0  0  0  0  0  0
   57.9610   27.8320   46.4850 C   0  0  0  0  0  0  0  0  0  0  0  0
   57.0200   27.2150   47.0480 O   0  0  0  0  0  0  0  0  0  0  0  0
   59.3630   28.2160   46.8650 C   0  0  2  0  0  0  0  0  0  0  0  0
   59.3900   29.0920   48.1370 C   0  0  1  0  0  0  0  0  0  0  0  0
   60.8050   29.5850   48.4540 C   0  0  0  0  0  0  0  0  0  0  0  0
   58.4910   30.1670   48.0410 O   0  0  0  0  0  0  0  0  0  0  0  0
   59.4940   28.8070   45.5350 C   0  0  2  0  0  0  0  0  0  0  0  0
   59.6010   30.3300   45.2290 C   0  0  0  0  0  0  0  0  0  0  0  0
   58.1410   32.7780   47.8380 N   0  0  0  0  0  0  0  0  0  0  0  0
   59.3770   32.9190   48.3510 C   0  0  0  0  0  0  0  0  0  0  0  0
   59.6920   32.7720   49.6610 N   0  0  0  0  0  0  0  0  0  0  0  0
   60.4670   33.1261   52.1192 H   0  0  0  0  0  0  0  0  0  0  0  0
   61.5986   31.7845   51.7371 H   0  0  0  0  0  0  0  0  0  0  0  0
   62.1857   33.4821   51.7371 H   0  0  0  0  0  0  0  0  0  0  0  0
   63.0166   33.4605   49.4350 H   0  0  0  0  0  0  0  0  0  0  0  0
   63.5372   34.1914   47.2216 H   0  0  0  0  0  0  0  0  0  0  0  0
   62.8608   32.9631   46.0990 H   0  0  0  0  0  0  0  0  0  0  0  0
   62.2074   34.6363   46.0990 H   0  0  0  0  0  0  0  0  0  0  0  0
   60.1162   33.5386   45.2883 H   0  0  0  0  0  0  0  0  0  0  0  0
   56.4244   32.3466   45.8682 H   0  0  0  0  0  0  0  0  0  0  0  0
   56.8661   34.0045   45.3263 H   0  0  0  0  0  0  0  0  0  0  0  0
   60.1568   27.5280   47.1914 H   0  0  0  0  0  0  0  0  0  0  0  0
   59.0645   28.4565   48.9738 H   0  0  0  0  0  0  0  0  0  0  0  0
   60.9411   29.6324   49.5445 H   0  0  0  0  0  0  0  0  0  0  0  0
   61.5406   28.8902   48.0226 H   0  0  0  0  0  0  0  0  0  0  0  0
   60.9496   30.5865   48.0226 H   0  0  0  0  0  0  0  0  0  0  0  0
   58.8260   30.8800   48.6410 H   0  0  0  0  0  0  0  0  0  0  0  0
   60.4178   28.4256   45.0756 H   0  0  0  0  0  0  0  0  0  0  0  0
   59.7539   30.9043   46.1546 H   0  0  0  0  0  0  0  0  0  0  0  0
   60.4530   30.5701   44.5759 H   0  0  0  0  0  0  0  0  0  0  0  0
  1  2  1  0
  2  3  1  0
  3  4  2  0
  4  5  1  0
  4  6  1  0
  6  7  1  0
  7  8  2  0
  8  9  1  0
  9 10  1  0
 10 11  1  0
 11 12  2  0
 12 13  1  0
 13 14  2  0
 13 15  1  0
 12 16  1  0
 16 17  1  0
 17 18  2  0
 17 19  1  0
 19 20  1  0
 20 21  1  0
 20 22  1  0
 19 23  1  0
 23 24  1  0
  8 25  1  0
 25 26  2  0
 26 27  1  0
 27  2  2  0
 26  6  1  0
 24 11  1  0
 23 16  1  0
  1 28  1  0
  1 29  1  0
  1 30  1  0
  3 31  1  0
  5 32  1  0
  5 33  1  0
  5 34  1  0
  7 35  1  0
  9 36  1  0
  9 37  1  0
 19 38  1  1
 20 39  1  1
 21 40  1  0
 21 41  1  0
 21 42  1  0
 22 43  1  0
 23 44  1  6
 24 45  1  0
 24 46  1  0
M  CHG  1  15  -1
M  END
>  <UniqueID>  (49) 
48

>  <SMILES>  (49) 
Cc1cc(C)n2cc(CSC3=C(C(=O)[O-])N4C(=O)[C@H]([C@@H](C)O)C4C3)nc2n1

>  <Energy>  (49) 
153.55811470308788

>  <Genealogy>  (49) 
Cc1cc(C)n2cc(CSC3=C(C(=O)[O-])N4C(=O)C(C(C)O)C4C3)nc2n1 (protonated)
Cc1cc(C)n2cc(CSC3=C(C(=O)[O-])N4C(=O)[C@H]([C@@H](C)O)C4C3)nc2n1 (chirality)
Cc1cc(C)n2cc(CSC3=C(C(=O)[O-])N4C(=O)[C@H]([C@@H](C)O)C4C3)nc2n1 (3D coordinates assigned)
Cc1cc(C)n2cc(CSC3=C(C(=O)[O-])N4C(=O)[C@H]([C@@H](C)O)C4C3)nc2n1 (nonaromatic ring conformer: 153.55811470308788 kcal/mol)

>  <smiles>  (49) 
Cc1cc(C)n2cc(CSC3=C(C(=O)O)N4C(=O)C(C(C)O)C4C3)nc2n1

>  <score_type>  (49) 
oracle

>  <origin>  (49) 
adg

>  <m_score__min__energy>  (49) 
-11.43

>  <m_primary>  (49) 
energy

$$$$
