0:0
     RDKit          3D

 59 61  0  0  0  0  0  0  0  0999 V2000
   60.7560   28.7020   49.4140 C   0  0  0  0  0  0  0  0  0  0  0  0
   61.4460   29.5160   50.5110 C   0  0  0  0  0  0  0  0  0  0  0  0
   61.0560   30.9470   50.5480 N   0  0  0  0  0  0  0  0  0  0  0  0
   59.8750   31.2490   51.3930 C   0  0  0  0  0  0  0  0  0  0  0  0
   59.0660   32.4870   50.9430 C   0  0  0  0  0  0  0  0  0  0  0  0
   58.5190   32.2980   49.5170 C   0  0  0  0  0  0  0  0  0  0  0  0
   59.3720   31.4180   48.6970 N   0  0  0  0  0  0  0  0  0  0  0  0
   58.8410   31.2270   47.3370 C   0  0  0  0  0  0  0  0  0  0  0  0
   58.8510   32.5330   46.5800 C   0  0  0  0  0  0  0  0  0  0  0  0
   59.8350   33.4930   46.8710 C   0  0  0  0  0  0  0  0  0  0  0  0
   59.8900   34.6890   46.1540 C   0  0  0  0  0  0  0  0  0  0  0  0
   58.9700   34.9360   45.1340 C   0  0  0  0  0  0  0  0  0  0  0  0
   57.9970   33.9830   44.8220 C   0  0  0  0  0  0  0  0  0  0  0  0
   57.9330   32.7690   45.5330 C   0  0  0  0  0  0  0  0  0  0  0  0
   56.9820   31.7780   45.2300 O   0  0  0  0  0  0  0  0  0  0  0  0
   57.0620   30.8550   44.1440 C   0  0  0  0  0  0  0  0  0  0  0  0
   57.7020   29.5650   44.5880 C   0  0  0  0  0  0  0  0  0  0  0  0
   59.0980   29.4170   44.5020 C   0  0  0  0  0  0  0  0  0  0  0  0
   59.7100   28.2290   44.9100 C   0  0  0  0  0  0  0  0  0  0  0  0
   58.9370   27.1830   45.4200 C   0  0  0  0  0  0  0  0  0  0  0  0
   57.5510   27.3250   45.5250 C   0  0  0  0  0  0  0  0  0  0  0  0
   56.9310   28.5110   45.1170 C   0  0  0  0  0  0  0  0  0  0  0  0
   55.5840   28.6270   45.2380 F   0  0  0  0  0  0  0  0  0  0  0  0
   62.1760   31.9060   50.6650 C   0  0  0  0  0  0  0  0  0  0  0  0
   62.5820   32.4220   49.3180 C   0  0  0  0  0  0  0  0  0  0  0  0
   63.0070   31.6490   48.2460 C   0  0  0  0  0  0  0  0  0  0  0  0
   63.3480   32.4100   47.1230 C   0  0  0  0  0  0  0  0  0  0  0  0
   63.1940   33.7790   47.3080 C   0  0  0  0  0  0  0  0  0  0  0  0
   62.6360   34.0420   48.8720 S   0  0  0  0  0  0  0  0  0  0  0  0
   60.1100   27.9399   49.8743 H   0  0  0  0  0  0  0  0  0  0  0  0
   60.1459   29.3713   48.7896 H   0  0  0  0  0  0  0  0  0  0  0  0
   61.5161   28.2098   48.7896 H   0  0  0  0  0  0  0  0  0  0  0  0
   61.1956   29.0657   51.4829 H   0  0  0  0  0  0  0  0  0  0  0  0
   62.5236   29.4894   50.2916 H   0  0  0  0  0  0  0  0  0  0  0  0
   59.2063   30.3758   51.3739 H   0  0  0  0  0  0  0  0  0  0  0  0
   60.2588   31.4742   52.3990 H   0  0  0  0  0  0  0  0  0  0  0  0
   58.2239   32.6376   51.6346 H   0  0  0  0  0  0  0  0  0  0  0  0
   59.7314   33.3629   50.9506 H   0  0  0  0  0  0  0  0  0  0  0  0
   57.5139   31.8557   49.5805 H   0  0  0  0  0  0  0  0  0  0  0  0
   58.4963   33.2861   49.0341 H   0  0  0  0  0  0  0  0  0  0  0  0
   60.3430   31.8070   48.6480 H   0  0  0  0  0  0  0  0  0  0  0  0
   59.4190   30.4890   49.1780 H   0  0  0  0  0  0  0  0  0  0  0  0
   59.4647   30.4943   46.8040 H   0  0  0  0  0  0  0  0  0  0  0  0
   57.8054   30.8626   47.4062 H   0  0  0  0  0  0  0  0  0  0  0  0
   60.5669   33.3005   47.6693 H   0  0  0  0  0  0  0  0  0  0  0  0
   60.6594   35.4379   46.3931 H   0  0  0  0  0  0  0  0  0  0  0  0
   59.0110   35.8824   44.5748 H   0  0  0  0  0  0  0  0  0  0  0  0
   57.2760   34.1823   44.0155 H   0  0  0  0  0  0  0  0  0  0  0  0
   56.0481   30.6459   43.7723 H   0  0  0  0  0  0  0  0  0  0  0  0
   57.6765   31.2989   43.3469 H   0  0  0  0  0  0  0  0  0  0  0  0
   59.7119   30.2418   44.1110 H   0  0  0  0  0  0  0  0  0  0  0  0
   60.8013   28.1172   44.8296 H   0  0  0  0  0  0  0  0  0  0  0  0
   59.4196   26.2474   45.7390 H   0  0  0  0  0  0  0  0  0  0  0  0
   56.9450   26.5012   45.9300 H   0  0  0  0  0  0  0  0  0  0  0  0
   61.8618   32.7514   51.2947 H   0  0  0  0  0  0  0  0  0  0  0  0
   63.0354   31.3888   51.1165 H   0  0  0  0  0  0  0  0  0  0  0  0
   63.0692   30.5512   48.2766 H   0  0  0  0  0  0  0  0  0  0  0  0
   63.7046   31.9666   46.1816 H   0  0  0  0  0  0  0  0  0  0  0  0
   63.4017   34.5574   46.5590 H   0  0  0  0  0  0  0  0  0  0  0  0
  1  2  1  0
  2  3  1  0
  3  4  1  0
  4  5  1  0
  5  6  1  0
  6  7  1  0
  7  8  1  0
  8  9  1  0
  9 10  2  0
 10 11  1  0
 11 12  2  0
 12 13  1  0
 13 14  2  0
 14 15  1  0
 15 16  1  0
 16 17  1  0
 17 18  2  0
 18 19  1  0
 19 20  2  0
 20 21  1  0
 21 22  2  0
 22 23  1  0
  3 24  1  0
 24 25  1  0
 25 26  2  0
 26 27  1  0
 27 28  2  0
 28 29  1  0
 14  9  1  0
 22 17  1  0
 29 25  1  0
  1 30  1  0
  1 31  1  0
  1 32  1  0
  2 33  1  0
  2 34  1  0
  4 35  1  0
  4 36  1  0
  5 37  1  0
  5 38  1  0
  6 39  1  0
  6 40  1  0
  7 41  1  0
  7 42  1  0
  8 43  1  0
  8 44  1  0
 10 45  1  0
 11 46  1  0
 12 47  1  0
 13 48  1  0
 16 49  1  0
 16 50  1  0
 18 51  1  0
 19 52  1  0
 20 53  1  0
 21 54  1  0
 24 55  1  0
 24 56  1  0
 26 57  1  0
 27 58  1  0
 28 59  1  0
M  CHG  1   7   1
M  END
>  <UniqueID>  (1) 
1

>  <SMILES>  (1) 
CCN(CCC[NH2+]Cc1ccccc1OCc1ccccc1F)Cc1cccs1

>  <Energy>  (1) 
90.20905454111536

>  <Genealogy>  (1) 
CCN(CCC[NH2+]Cc1ccccc1OCc1ccccc1F)Cc1cccs1 (protonated)
CCN(CCC[NH2+]Cc1ccccc1OCc1ccccc1F)Cc1cccs1 (3D coordinates assigned)
CCN(CCC[NH2+]Cc1ccccc1OCc1ccccc1F)Cc1cccs1 (optimized conformer: 90.20905454111536 kcal/mol)

>  <smiles>  (1) 
CCN(CCCNCc1ccccc1OCc1ccccc1F)Cc1cccs1

>  <score_type>  (1) 
oracle

>  <origin>  (1) 
adg

>  <m_score__min__energy>  (1) 
-5.8399999999999999

>  <m_primary>  (1) 
energy

$$$$
1:0
     RDKit          3D

 41 43  0  0  0  0  0  0  0  0999 V2000
   56.2770   30.5900   44.8680 O   0  0  0  0  0  0  0  0  0  0  0  0
   57.2730   30.5750   43.7440 S   0  0  0  0  0  0  0  0  0  0  0  0
   56.6150   29.9840   42.5300 O   0  0  0  0  0  0  0  0  0  0  0  0
   57.7660   32.2540   43.3630 C   0  0  0  0  0  0  0  0  0  0  0  0
   58.1480   33.0190   44.6030 C   0  0  0  0  0  0  0  0  0  0  0  0
   57.4190   32.8540   45.7930 C   0  0  0  0  0  0  0  0  0  0  0  0
   57.7720   33.5700   46.9410 C   0  0  0  0  0  0  0  0  0  0  0  0
   58.8590   34.4470   46.9150 C   0  0  0  0  0  0  0  0  0  0  0  0
   59.6010   34.6030   45.7410 C   0  0  0  0  0  0  0  0  0  0  0  0
   59.2520   33.8890   44.5900 C   0  0  0  0  0  0  0  0  0  0  0  0
   58.6640   29.5550   44.2270 C   0  0  0  0  0  0  0  0  0  0  0  0
   59.0410   29.7720   45.6680 C   0  0  0  0  0  0  0  0  0  0  0  0
   58.4280   29.0220   46.6830 C   0  0  0  0  0  0  0  0  0  0  0  0
   58.7740   29.2270   48.0200 C   0  0  0  0  0  0  0  0  0  0  0  0
   59.7430   30.1740   48.3570 C   0  0  0  0  0  0  0  0  0  0  0  0
   60.3860   30.9220   47.3560 C   0  0  0  0  0  0  0  0  0  0  0  0
   61.4200   31.9260   47.7110 C   0  0  0  0  0  0  0  0  0  0  0  0
   62.7120   31.8510   47.1550 C   0  0  0  0  0  0  0  0  0  0  0  0
   63.6840   32.7980   47.4910 C   0  0  0  0  0  0  0  0  0  0  0  0
   63.3790   33.8290   48.3840 C   0  0  0  0  0  0  0  0  0  0  0  0
   62.1020   33.9150   48.9410 C   0  0  0  0  0  0  0  0  0  0  0  0
   61.1260   32.9710   48.6090 C   0  0  0  0  0  0  0  0  0  0  0  0
   60.0330   30.7070   46.0110 C   0  0  0  0  0  0  0  0  0  0  0  0
   58.6292   32.2259   42.6817 H   0  0  0  0  0  0  0  0  0  0  0  0
   56.9107   32.7642   42.8960 H   0  0  0  0  0  0  0  0  0  0  0  0
   56.5671   32.1587   45.8215 H   0  0  0  0  0  0  0  0  0  0  0  0
   57.1922   33.4423   47.8670 H   0  0  0  0  0  0  0  0  0  0  0  0
   59.1306   35.0142   47.8175 H   0  0  0  0  0  0  0  0  0  0  0  0
   60.4610   35.2885   45.7221 H   0  0  0  0  0  0  0  0  0  0  0  0
   59.8440   34.0088   43.6707 H   0  0  0  0  0  0  0  0  0  0  0  0
   58.3971   28.4975   44.0839 H   0  0  0  0  0  0  0  0  0  0  0  0
   59.5256   29.8327   43.6021 H   0  0  0  0  0  0  0  0  0  0  0  0
   57.6702   28.2679   46.4238 H   0  0  0  0  0  0  0  0  0  0  0  0
   58.2818   28.6408   48.8100 H   0  0  0  0  0  0  0  0  0  0  0  0
   60.0049   30.3357   49.4131 H   0  0  0  0  0  0  0  0  0  0  0  0
   62.9579   31.0418   46.4516 H   0  0  0  0  0  0  0  0  0  0  0  0
   64.6904   32.7316   47.0519 H   0  0  0  0  0  0  0  0  0  0  0  0
   64.1453   34.5727   48.6479 H   0  0  0  0  0  0  0  0  0  0  0  0
   61.8631   34.7276   49.6429 H   0  0  0  0  0  0  0  0  0  0  0  0
   60.1218   33.0445   49.0518 H   0  0  0  0  0  0  0  0  0  0  0  0
   60.5394   31.2774   45.2184 H   0  0  0  0  0  0  0  0  0  0  0  0
  1  2  2  0
  2  3  2  0
  2  4  1  0
  4  5  1  0
  5  6  2  0
  6  7  1  0
  7  8  2  0
  8  9  1  0
  9 10  2  0
  2 11  1  0
 11 12  1  0
 12 13  2  0
 13 14  1  0
 14 15  2  0
 15 16  1  0
 16 17  1  0
 17 18  2  0
 18 19  1  0
 19 20  2  0
 20 21  1  0
 21 22  2  0
 16 23  2  0
 10  5  1  0
 23 12  1  0
 22 17  1  0
  4 24  1  0
  4 25  1  0
  6 26  1  0
  7 27  1  0
  8 28  1  0
  9 29  1  0
 10 30  1  0
 11 31  1  0
 11 32  1  0
 13 33  1  0
 14 34  1  0
 15 35  1  0
 18 36  1  0
 19 37  1  0
 20 38  1  0
 21 39  1  0
 22 40  1  0
 23 41  1  0
M  END
>  <UniqueID>  (2) 
2

>  <SMILES>  (2) 
O=S(=O)(Cc1ccccc1)Cc1cccc(-c2ccccc2)c1

>  <Energy>  (2) 
39.78548393262153

>  <Genealogy>  (2) 
O=S(=O)(Cc1ccccc1)Cc1cccc(-c2ccccc2)c1 (3D coordinates assigned)
O=S(=O)(Cc1ccccc1)Cc1cccc(-c2ccccc2)c1 (optimized conformer: 39.78548393262153 kcal/mol)

>  <smiles>  (2) 
O=S(=O)(Cc1ccccc1)Cc1cccc(-c2ccccc2)c1

>  <score_type>  (2) 
oracle

>  <origin>  (2) 
adg

>  <m_score__min__energy>  (2) 
-8.7899999999999991

>  <m_primary>  (2) 
energy

$$$$
2:0
     RDKit          3D

 44 44  0  0  0  0  0  0  0  0999 V2000
   63.0140   33.8540   46.6310 C   0  0  0  0  0  0  0  0  0  0  0  0
   62.0840   32.8120   47.2510 C   0  0  0  0  0  0  0  0  0  0  0  0
   60.6210   32.9170   46.7670 C   0  0  0  0  0  0  0  0  0  0  0  0
   59.7410   31.6270   46.7610 C   0  0  0  0  0  0  0  0  0  0  0  0
   58.4860   31.6790   45.8500 C   0  0  0  0  0  0  0  0  0  0  0  0
   58.3060   32.9510   45.0140 C   0  0  0  0  0  0  0  0  0  0  0  0
   58.1340   32.6110   43.5360 C   0  0  0  0  0  0  0  0  0  0  0  0
   60.4760   30.3010   46.7050 C   0  0  0  0  0  0  0  0  0  0  0  0
   60.9570   29.8270   47.7710 O   0  0  0  0  0  0  0  0  0  0  0  0
   60.6070   29.5510   45.4890 N   0  0  0  0  0  0  0  0  0  0  0  0
   60.4390   28.1020   45.4670 C   0  0  0  0  0  0  0  0  0  0  0  0
   58.9880   27.7680   45.6730 C   0  0  0  0  0  0  0  0  0  0  0  0
   58.6190   26.5310   46.2200 C   0  0  0  0  0  0  0  0  0  0  0  0
   57.2700   26.1880   46.3340 C   0  0  0  0  0  0  0  0  0  0  0  0
   56.2800   27.0670   45.8860 C   0  0  0  0  0  0  0  0  0  0  0  0
   54.9420   26.7090   45.9990 O   0  0  0  0  0  0  0  0  0  0  0  0
   56.6310   28.2990   45.3180 C   0  0  0  0  0  0  0  0  0  0  0  0
   55.6070   29.1420   44.8580 O   0  0  0  0  0  0  0  0  0  0  0  0
   55.7470   30.0640   43.7830 C   0  0  0  0  0  0  0  0  0  0  0  0
   57.9930   28.6470   45.2160 C   0  0  0  0  0  0  0  0  0  0  0  0
   63.5173   34.4180   47.4301 H   0  0  0  0  0  0  0  0  0  0  0  0
   63.7671   33.3490   46.0083 H   0  0  0  0  0  0  0  0  0  0  0  0
   62.4270   34.5451   46.0083 H   0  0  0  0  0  0  0  0  0  0  0  0
   62.4634   31.8119   46.9945 H   0  0  0  0  0  0  0  0  0  0  0  0
   62.0768   32.9935   48.3359 H   0  0  0  0  0  0  0  0  0  0  0  0
   60.1172   33.6501   47.4142 H   0  0  0  0  0  0  0  0  0  0  0  0
   60.7089   33.1865   45.7041 H   0  0  0  0  0  0  0  0  0  0  0  0
   59.3453   31.6509   47.7871 H   0  0  0  0  0  0  0  0  0  0  0  0
   58.5398   30.8269   45.1564 H   0  0  0  0  0  0  0  0  0  0  0  0
   57.6254   31.6537   46.5346 H   0  0  0  0  0  0  0  0  0  0  0  0
   57.4140   33.4901   45.3658 H   0  0  0  0  0  0  0  0  0  0  0  0
   59.2031   33.5771   45.1287 H   0  0  0  0  0  0  0  0  0  0  0  0
   57.6393   31.6332   43.4398 H   0  0  0  0  0  0  0  0  0  0  0  0
   57.5179   33.3828   43.0515 H   0  0  0  0  0  0  0  0  0  0  0  0
   59.1208   32.5719   43.0515 H   0  0  0  0  0  0  0  0  0  0  0  0
   60.6080   30.0430   44.5720 H   0  0  0  0  0  0  0  0  0  0  0  0
   60.7727   27.7079   44.4957 H   0  0  0  0  0  0  0  0  0  0  0  0
   61.0395   27.6488   46.2695 H   0  0  0  0  0  0  0  0  0  0  0  0
   59.3942   25.8286   46.5603 H   0  0  0  0  0  0  0  0  0  0  0  0
   56.9856   25.2226   46.7780 H   0  0  0  0  0  0  0  0  0  0  0  0
   55.9007   31.0761   44.1856 H   0  0  0  0  0  0  0  0  0  0  0  0
   56.6122   29.7795   43.1662 H   0  0  0  0  0  0  0  0  0  0  0  0
   54.8363   30.0491   43.1662 H   0  0  0  0  0  0  0  0  0  0  0  0
   58.2784   29.6137   44.7754 H   0  0  0  0  0  0  0  0  0  0  0  0
  1  2  1  0
  2  3  1  0
  3  4  1  0
  4  5  1  0
  5  6  1  0
  6  7  1  0
  4  8  1  0
  8  9  2  0
  8 10  1  0
 10 11  1  0
 11 12  1  0
 12 13  2  0
 13 14  1  0
 14 15  2  0
 15 16  1  0
 15 17  1  0
 17 18  1  0
 18 19  1  0
 17 20  2  0
 20 12  1  0
  1 21  1  0
  1 22  1  0
  1 23  1  0
  2 24  1  0
  2 25  1  0
  3 26  1  0
  3 27  1  0
  4 28  1  0
  5 29  1  0
  5 30  1  0
  6 31  1  0
  6 32  1  0
  7 33  1  0
  7 34  1  0
  7 35  1  0
 10 36  1  0
 11 37  1  0
 11 38  1  0
 13 39  1  0
 14 40  1  0
 19 41  1  0
 19 42  1  0
 19 43  1  0
 20 44  1  0
M  CHG  1  16  -1
M  END
>  <UniqueID>  (3) 
3

>  <SMILES>  (3) 
CCCC(CCC)C(=O)NCc1ccc([O-])c(OC)c1

>  <Energy>  (3) 
40.53178956400217

>  <Genealogy>  (3) 
CCCC(CCC)C(=O)NCc1ccc([O-])c(OC)c1 (protonated)
CCCC(CCC)C(=O)NCc1ccc([O-])c(OC)c1 (3D coordinates assigned)
CCCC(CCC)C(=O)NCc1ccc([O-])c(OC)c1 (optimized conformer: 40.53178956400217 kcal/mol)

>  <smiles>  (3) 
CCCC(CCC)C(=O)NCc1ccc(O)c(OC)c1

>  <score_type>  (3) 
oracle

>  <origin>  (3) 
adg

>  <m_score__min__energy>  (3) 
-10.6

>  <m_primary>  (3) 
energy

$$$$
3:0
     RDKit          3D

 52 54  0  0  0  0  0  0  0  0999 V2000
   62.2120   33.7880   46.8930 C   0  0  0  0  0  0  0  0  0  0  0  0
   60.7440   34.0430   47.2110 C   0  0  0  0  0  0  0  0  0  0  0  0
   59.8920   33.1170   46.4640 N   0  0  0  0  0  0  0  0  0  0  0  0
   59.0930   33.4430   45.4190 C   0  0  0  0  0  0  0  0  0  0  0  0
   58.3800   32.3290   44.9910 C   0  0  0  0  0  0  0  0  0  0  0  0
   57.3910   32.2840   43.8690 C   0  0  0  0  0  0  0  0  0  0  0  0
   58.7620   31.2940   45.8240 C   0  0  0  0  0  0  0  0  0  0  0  0
   58.3850   29.9580   45.9070 C   0  0  0  0  0  0  0  0  0  0  0  0
   57.2800   29.0980   44.9920 S   0  0  0  0  0  0  0  0  0  0  0  0
   57.4720   27.6350   45.8210 C   0  0  0  0  0  0  0  0  0  0  0  0
   56.6670   26.4380   45.4990 C   0  0  0  0  0  0  0  0  0  0  0  0
   57.1450   25.4950   44.8180 O   0  0  0  0  0  0  0  0  0  0  0  0
   55.3240   26.3500   45.9870 N   0  0  0  0  0  0  0  0  0  0  0  0
   54.4040   25.2770   45.6260 C   0  0  0  0  0  0  0  0  0  0  0  0
   54.9500   23.9080   46.0480 C   0  0  0  0  0  0  0  0  0  0  0  0
   55.5020   23.9670   47.4240 N   0  0  0  0  0  0  0  0  0  0  0  0
   56.9630   23.7720   47.4220 C   0  0  0  0  0  0  0  0  0  0  0  0
   54.8720   22.9530   48.2850 C   0  0  0  0  0  0  0  0  0  0  0  0
   58.4290   27.8110   46.8490 C   0  0  0  0  0  0  0  0  0  0  0  0
   58.8200   26.7670   47.8720 C   0  0  0  0  0  0  0  0  0  0  0  0
   60.2090   26.5050   47.8190 O   0  0  0  0  0  0  0  0  0  0  0  0
   60.6240   26.3230   46.4820 C   0  0  0  0  0  0  0  0  0  0  0  0
   58.9270   29.1320   46.8900 C   0  0  0  0  0  0  0  0  0  0  0  0
   59.8600   29.6590   47.8170 C   0  0  0  0  0  0  0  0  0  0  0  0
   60.2450   31.0150   47.7260 C   0  0  0  0  0  0  0  0  0  0  0  0
   59.6780   31.8070   46.7150 C   0  0  0  0  0  0  0  0  0  0  0  0
   62.7786   33.6896   47.8307 H   0  0  0  0  0  0  0  0  0  0  0  0
   62.3050   32.8603   46.3093 H   0  0  0  0  0  0  0  0  0  0  0  0
   62.6124   34.6300   46.3093 H   0  0  0  0  0  0  0  0  0  0  0  0
   60.5765   33.9004   48.2888 H   0  0  0  0  0  0  0  0  0  0  0  0
   60.4901   35.0736   46.9221 H   0  0  0  0  0  0  0  0  0  0  0  0
   59.0192   34.4459   44.9731 H   0  0  0  0  0  0  0  0  0  0  0  0
   56.3718   32.2376   44.2802 H   0  0  0  0  0  0  0  0  0  0  0  0
   57.4962   33.1879   43.2510 H   0  0  0  0  0  0  0  0  0  0  0  0
   57.5779   31.3934   43.2510 H   0  0  0  0  0  0  0  0  0  0  0  0
   53.4399   25.4481   46.1273 H   0  0  0  0  0  0  0  0  0  0  0  0
   54.2807   25.2791   44.5329 H   0  0  0  0  0  0  0  0  0  0  0  0
   54.1359   23.1689   46.0165 H   0  0  0  0  0  0  0  0  0  0  0  0
   55.7542   23.6184   45.3556 H   0  0  0  0  0  0  0  0  0  0  0  0
   57.3278   23.7233   48.4586 H   0  0  0  0  0  0  0  0  0  0  0  0
   57.2069   22.8333   46.9030 H   0  0  0  0  0  0  0  0  0  0  0  0
   57.4446   24.6138   46.9030 H   0  0  0  0  0  0  0  0  0  0  0  0
   55.0352   23.2157   49.3406 H   0  0  0  0  0  0  0  0  0  0  0  0
   53.7921   22.9167   48.0789 H   0  0  0  0  0  0  0  0  0  0  0  0
   55.3179   21.9688   48.0789 H   0  0  0  0  0  0  0  0  0  0  0  0
   58.5602   27.1320   48.8767 H   0  0  0  0  0  0  0  0  0  0  0  0
   58.2776   25.8362   47.6498 H   0  0  0  0  0  0  0  0  0  0  0  0
   61.6313   25.8812   46.4676 H   0  0  0  0  0  0  0  0  0  0  0  0
   59.9213   25.6504   45.9683 H   0  0  0  0  0  0  0  0  0  0  0  0
   60.6428   27.2955   45.9683 H   0  0  0  0  0  0  0  0  0  0  0  0
   60.2822   29.0158   48.6031 H   0  0  0  0  0  0  0  0  0  0  0  0
   60.9732   31.4411   48.4319 H   0  0  0  0  0  0  0  0  0  0  0  0
  1  2  1  0
  2  3  1  0
  3  4  1  0
  4  5  2  0
  5  6  1  0
  5  7  1  0
  7  8  2  0
  8  9  1  0
  9 10  1  0
 10 11  1  0
 11 12  2  0
 11 13  1  0
 13 14  1  0
 14 15  1  0
 15 16  1  0
 16 17  1  0
 16 18  1  0
 10 19  2  0
 19 20  1  0
 20 21  1  0
 21 22  1  0
 19 23  1  0
 23 24  2  0
 24 25  1  0
 25 26  2  0
 26  3  1  0
 26  7  1  0
 23  8  1  0
  1 27  1  0
  1 28  1  0
  1 29  1  0
  2 30  1  0
  2 31  1  0
  4 32  1  0
  6 33  1  0
  6 34  1  0
  6 35  1  0
 14 36  1  0
 14 37  1  0
 15 38  1  0
 15 39  1  0
 17 40  1  0
 17 41  1  0
 17 42  1  0
 18 43  1  0
 18 44  1  0
 18 45  1  0
 20 46  1  0
 20 47  1  0
 22 48  1  0
 22 49  1  0
 22 50  1  0
 24 51  1  0
 25 52  1  0
M  CHG  1  13  -1
M  END
>  <UniqueID>  (4) 
4

>  <SMILES>  (4) 
CCn1cc(C)c2c3sc(C(=O)[N-]CCN(C)C)c(COC)c3ccc21

>  <Energy>  (4) 
115.67255852146609

>  <Genealogy>  (4) 
CCn1cc(C)c2c3sc(C(=O)[N-]CCN(C)C)c(COC)c3ccc21 (protonated)
CCn1cc(C)c2c3sc(C(=O)[N-]CCN(C)C)c(COC)c3ccc21 (3D coordinates assigned)
CCn1cc(C)c2c3sc(C(=O)[N-]CCN(C)C)c(COC)c3ccc21 (optimized conformer: 115.67255852146609 kcal/mol)

>  <smiles>  (4) 
CCn1cc(C)c2c3sc(C(=O)NCCN(C)C)c(COC)c3ccc21

>  <score_type>  (4) 
oracle

>  <origin>  (4) 
adg

>  <m_score__min__energy>  (4) 
-9.0899999999999999

>  <m_primary>  (4) 
energy

$$$$
4:0
     RDKit          3D

 40 41  0  0  0  0  0  0  0  0999 V2000
   55.8540   30.0600   43.8580 C   0  0  0  0  0  0  0  0  0  0  0  0
   55.5870   29.2210   45.0210 N   0  0  0  0  0  0  0  0  0  0  0  0
   56.8880   28.0910   45.2420 S   0  0  0  0  0  0  0  0  0  0  0  0
   56.3840   26.8680   45.9550 O   0  0  0  0  0  0  0  0  0  0  0  0
   57.4140   27.6750   43.8980 O   0  0  0  0  0  0  0  0  0  0  0  0
   58.1940   28.8360   46.1630 C   0  0  0  0  0  0  0  0  0  0  0  0
   58.9180   29.8990   45.6080 C   0  0  0  0  0  0  0  0  0  0  0  0
   59.9420   30.5100   46.3390 C   0  0  0  0  0  0  0  0  0  0  0  0
   60.2560   30.0590   47.6310 C   0  0  0  0  0  0  0  0  0  0  0  0
   61.3290   30.7450   48.4330 C   0  0  0  0  0  0  0  0  0  0  0  0
   62.4640   31.2160   47.5210 C   0  0  0  0  0  0  0  0  0  0  0  0
   63.3720   32.0910   48.2650 N   0  0  0  0  0  0  0  0  0  0  0  0
   62.7840   33.7260   48.2130 S   0  0  0  0  0  0  0  0  0  0  0  0
   62.6790   34.2750   49.6100 O   0  0  0  0  0  0  0  0  0  0  0  0
   63.7490   34.5770   47.4370 O   0  0  0  0  0  0  0  0  0  0  0  0
   61.2100   33.7780   47.4220 C   0  0  0  0  0  0  0  0  0  0  0  0
   61.1360   33.8310   46.0230 C   0  0  0  0  0  0  0  0  0  0  0  0
   59.8930   33.8500   45.3840 C   0  0  0  0  0  0  0  0  0  0  0  0
   58.7160   33.8090   46.1400 C   0  0  0  0  0  0  0  0  0  0  0  0
   57.0180   33.8310   45.2670 Br  0  0  0  0  0  0  0  0  0  0  0  0
   58.7850   33.7490   47.5360 C   0  0  0  0  0  0  0  0  0  0  0  0
   60.0280   33.7320   48.1760 C   0  0  0  0  0  0  0  0  0  0  0  0
   59.5160   29.0070   48.1910 C   0  0  0  0  0  0  0  0  0  0  0  0
   58.4920   28.3970   47.4600 C   0  0  0  0  0  0  0  0  0  0  0  0
   56.1719   31.0588   44.1916 H   0  0  0  0  0  0  0  0  0  0  0  0
   56.6516   29.6046   43.2527 H   0  0  0  0  0  0  0  0  0  0  0  0
   54.9399   30.1493   43.2527 H   0  0  0  0  0  0  0  0  0  0  0  0
   58.6805   30.2542   44.5944 H   0  0  0  0  0  0  0  0  0  0  0  0
   60.5038   31.3475   45.8997 H   0  0  0  0  0  0  0  0  0  0  0  0
   60.8950   31.6143   48.9487 H   0  0  0  0  0  0  0  0  0  0  0  0
   61.7350   30.0320   49.1657 H   0  0  0  0  0  0  0  0  0  0  0  0
   63.0210   30.3424   47.1513 H   0  0  0  0  0  0  0  0  0  0  0  0
   62.0391   31.7729   46.6729 H   0  0  0  0  0  0  0  0  0  0  0  0
   63.3580   31.8000   49.2690 H   0  0  0  0  0  0  0  0  0  0  0  0
   62.0595   33.8577   45.4260 H   0  0  0  0  0  0  0  0  0  0  0  0
   59.8399   33.8972   44.2863 H   0  0  0  0  0  0  0  0  0  0  0  0
   57.8603   33.7152   48.1308 H   0  0  0  0  0  0  0  0  0  0  0  0
   60.0792   33.6824   49.2737 H   0  0  0  0  0  0  0  0  0  0  0  0
   59.7424   28.6603   49.2101 H   0  0  0  0  0  0  0  0  0  0  0  0
   57.9186   27.5701   47.9043 H   0  0  0  0  0  0  0  0  0  0  0  0
  1  2  1  0
  2  3  1  0
  3  4  2  0
  3  5  2  0
  3  6  1  0
  6  7  2  0
  7  8  1  0
  8  9  2  0
  9 10  1  0
 10 11  1  0
 11 12  1  0
 12 13  1  0
 13 14  2  0
 13 15  2  0
 13 16  1  0
 16 17  2  0
 17 18  1  0
 18 19  2  0
 19 20  1  0
 19 21  1  0
 21 22  2  0
  9 23  1  0
 23 24  2  0
 24  6  1  0
 22 16  1  0
  1 25  1  0
  1 26  1  0
  1 27  1  0
  7 28  1  0
  8 29  1  0
 10 30  1  0
 10 31  1  0
 11 32  1  0
 11 33  1  0
 12 34  1  0
 17 35  1  0
 18 36  1  0
 21 37  1  0
 22 38  1  0
 23 39  1  0
 24 40  1  0
M  CHG  1   2  -1
M  END
>  <UniqueID>  (5) 
5

>  <SMILES>  (5) 
C[N-]S(=O)(=O)c1ccc(CCNS(=O)(=O)c2ccc(Br)cc2)cc1

>  <Energy>  (5) 
32.59083877771755

>  <Genealogy>  (5) 
C[N-]S(=O)(=O)c1ccc(CCNS(=O)(=O)c2ccc(Br)cc2)cc1 (protonated)
C[N-]S(=O)(=O)c1ccc(CCNS(=O)(=O)c2ccc(Br)cc2)cc1 (3D coordinates assigned)
C[N-]S(=O)(=O)c1ccc(CCNS(=O)(=O)c2ccc(Br)cc2)cc1 (optimized conformer: 32.59083877771755 kcal/mol)

>  <smiles>  (5) 
CNS(=O)(=O)c1ccc(CCNS(=O)(=O)c2ccc(Br)cc2)cc1

>  <score_type>  (5) 
oracle

>  <origin>  (5) 
adg

>  <m_score__min__energy>  (5) 
-11.08

>  <m_primary>  (5) 
energy

$$$$
5:0
     RDKit          3D

 36 38  0  0  0  0  0  0  0  0999 V2000
   59.7290   33.8430   49.9610 C   0  0  0  0  0  0  0  0  0  0  0  0
   60.4140   34.5440   48.8090 C   0  0  0  0  0  0  0  0  0  0  0  0
   59.5380   34.8560   47.7550 O   0  0  0  0  0  0  0  0  0  0  0  0
   59.0330   33.8680   46.9430 C   0  0  0  0  0  0  0  0  0  0  0  0
   58.0430   34.2290   46.0420 C   0  0  0  0  0  0  0  0  0  0  0  0
   57.4800   33.3020   45.1910 C   0  0  0  0  0  0  0  0  0  0  0  0
   57.8720   31.9610   45.1900 C   0  0  0  0  0  0  0  0  0  0  0  0
   57.1450   30.8570   44.0770 S   0  0  0  0  0  0  0  0  0  0  0  0
   55.7430   30.4940   44.4970 O   0  0  0  0  0  0  0  0  0  0  0  0
   57.0650   31.5430   42.7210 O   0  0  0  0  0  0  0  0  0  0  0  0
   58.1280   29.4750   43.8760 N   0  0  0  0  0  0  0  0  0  0  0  0
   58.1910   28.3480   44.7000 C   0  0  0  0  0  0  0  0  0  0  0  0
   59.3030   27.7380   45.1900 C   0  0  0  0  0  0  0  0  0  0  0  0
   59.2440   26.6480   46.0010 N   0  0  0  0  0  0  0  0  0  0  0  0
   58.0900   26.0980   46.3730 C   0  0  0  0  0  0  0  0  0  0  0  0
   57.7440   25.0500   47.1430 N   0  0  0  0  0  0  0  0  0  0  0  0
   56.4000   24.9930   47.1420 C   0  0  0  0  0  0  0  0  0  0  0  0
   55.9000   25.9790   46.3920 N   0  0  0  0  0  0  0  0  0  0  0  0
   56.9220   26.6750   45.9070 C   0  0  0  0  0  0  0  0  0  0  0  0
   56.9610   27.7830   45.0820 C   0  0  0  0  0  0  0  0  0  0  0  0
   58.8580   31.6300   46.0960 C   0  0  0  0  0  0  0  0  0  0  0  0
   59.4260   32.5530   46.9510 C   0  0  0  0  0  0  0  0  0  0  0  0
   60.1150   34.2380   50.9123 H   0  0  0  0  0  0  0  0  0  0  0  0
   58.6445   34.0183   49.9043 H   0  0  0  0  0  0  0  0  0  0  0  0
   59.9293   32.7629   49.9043 H   0  0  0  0  0  0  0  0  0  0  0  0
   60.8594   35.4779   49.1823 H   0  0  0  0  0  0  0  0  0  0  0  0
   61.1743   33.8558   48.4112 H   0  0  0  0  0  0  0  0  0  0  0  0
   57.7007   35.2737   46.0055 H   0  0  0  0  0  0  0  0  0  0  0  0
   56.6973   33.6285   44.4905 H   0  0  0  0  0  0  0  0  0  0  0  0
   58.7670   29.4710   43.0250 H   0  0  0  0  0  0  0  0  0  0  0  0
   60.2896   28.1423   44.9196 H   0  0  0  0  0  0  0  0  0  0  0  0
   58.4120   24.4160   47.6360 H   0  0  0  0  0  0  0  0  0  0  0  0
   55.8004   24.2440   47.6800 H   0  0  0  0  0  0  0  0  0  0  0  0
   56.0216   28.2270   44.7209 H   0  0  0  0  0  0  0  0  0  0  0  0
   59.2061   30.5874   46.1390 H   0  0  0  0  0  0  0  0  0  0  0  0
   60.2088   32.2283   47.6523 H   0  0  0  0  0  0  0  0  0  0  0  0
  1  2  1  0
  2  3  1  0
  3  4  1  0
  4  5  2  0
  5  6  1  0
  6  7  2  0
  7  8  1  0
  8  9  2  0
  8 10  2  0
  8 11  1  0
 11 12  1  0
 12 13  2  0
 13 14  1  0
 14 15  2  0
 15 16  1  0
 16 17  1  0
 17 18  2  0
 18 19  1  0
 19 20  2  0
  7 21  1  0
 21 22  2  0
 22  4  1  0
 20 12  1  0
 19 15  1  0
  1 23  1  0
  1 24  1  0
  1 25  1  0
  2 26  1  0
  2 27  1  0
  5 28  1  0
  6 29  1  0
 11 30  1  0
 13 31  1  0
 16 32  1  0
 17 33  1  0
 20 34  1  0
 21 35  1  0
 22 36  1  0
M  END
>  <smiles>  (6) 
CCOc1ccc(S(=O)(=O)Nc2cnc3[nH]cnc3c2)cc1

>  <score_type>  (6) 
oracle

>  <origin>  (6) 
adg

>  <m_score__min__energy>  (6) 
-7.4500000000000002

>  <m_primary>  (6) 
energy

$$$$
6:0
     RDKit          3D

 58 61  0  0  0  0  0  0  0  0999 V2000
   58.4960   31.7060   49.7340 C   0  0  0  0  0  0  0  0  0  0  0  0
   58.8280   30.6000   48.8990 O   0  0  0  0  0  0  0  0  0  0  0  0
   59.4840   29.4300   49.3150 C   0  0  0  0  0  0  0  0  0  0  0  0
   59.8180   29.2650   50.6780 C   0  0  0  0  0  0  0  0  0  0  0  0
   60.4620   28.1170   51.1280 C   0  0  0  0  0  0  0  0  0  0  0  0
   60.7930   27.1140   50.2310 C   0  0  0  0  0  0  0  0  0  0  0  0
   60.4790   27.2470   48.8800 C   0  0  0  0  0  0  0  0  0  0  0  0
   59.8130   28.3960   48.3740 C   0  0  0  0  0  0  0  0  0  0  0  0
   59.4810   28.4760   46.9410 N   0  0  0  0  0  0  0  0  0  0  0  0
   58.4340   27.5680   46.4050 C   0  0  0  0  0  0  0  0  0  0  0  0
   58.0500   27.7490   44.9200 C   0  0  0  0  0  0  0  0  0  0  0  0
   58.3820   29.0700   44.3640 N   0  0  0  0  0  0  0  0  0  0  0  0
   57.5120   30.1390   44.8350 C   0  0  0  0  0  0  0  0  0  0  0  0
   56.2970   30.0700   44.6940 O   0  0  0  0  0  0  0  0  0  0  0  0
   58.0980   31.3520   45.5130 C   0  0  0  0  0  0  0  0  0  0  0  0
   58.1980   32.5370   44.5470 C   0  0  0  0  0  0  0  0  0  0  0  0
   58.3620   34.0780   45.4340 S   0  0  0  0  0  0  0  0  0  0  0  0
   57.0310   34.4730   46.0080 O   0  0  0  0  0  0  0  0  0  0  0  0
   58.8220   35.1630   44.4970 O   0  0  0  0  0  0  0  0  0  0  0  0
   59.5180   33.8630   46.7440 C   0  0  0  0  0  0  0  0  0  0  0  0
   59.3360   34.5130   47.9740 C   0  0  0  0  0  0  0  0  0  0  0  0
   60.2800   34.3690   48.9940 C   0  0  0  0  0  0  0  0  0  0  0  0
   61.4190   33.5740   48.7930 C   0  0  0  0  0  0  0  0  0  0  0  0
   62.3740   33.4240   49.8100 C   0  0  0  0  0  0  0  0  0  0  0  0
   63.5070   32.6310   49.5960 C   0  0  0  0  0  0  0  0  0  0  0  0
   64.6970   32.4430   50.8710 Cl  0  0  0  0  0  0  0  0  0  0  0  0
   63.6900   31.9830   48.3710 C   0  0  0  0  0  0  0  0  0  0  0  0
   62.7460   32.1280   47.3490 C   0  0  0  0  0  0  0  0  0  0  0  0
   61.6080   32.9230   47.5510 C   0  0  0  0  0  0  0  0  0  0  0  0
   60.6550   33.0750   46.5340 C   0  0  0  0  0  0  0  0  0  0  0  0
   59.8020   29.3570   44.5980 C   0  0  0  0  0  0  0  0  0  0  0  0
   60.1190   29.4970   46.0850 C   0  0  0  0  0  0  0  0  0  0  0  0
   58.5853   31.4085   50.7892 H   0  0  0  0  0  0  0  0  0  0  0  0
   59.1834   32.5398   49.5287 H   0  0  0  0  0  0  0  0  0  0  0  0
   57.4630   32.0234   49.5287 H   0  0  0  0  0  0  0  0  0  0  0  0
   59.5642   30.0586   51.3962 H   0  0  0  0  0  0  0  0  0  0  0  0
   60.7081   28.0056   52.1943 H   0  0  0  0  0  0  0  0  0  0  0  0
   61.3061   26.2085   50.5872 H   0  0  0  0  0  0  0  0  0  0  0  0
   60.7544   26.4398   48.1854 H   0  0  0  0  0  0  0  0  0  0  0  0
   58.7913   26.5356   46.5330 H   0  0  0  0  0  0  0  0  0  0  0  0
   57.5228   27.8134   46.9702 H   0  0  0  0  0  0  0  0  0  0  0  0
   58.5796   26.9850   44.3319 H   0  0  0  0  0  0  0  0  0  0  0  0
   56.9559   27.6503   44.8640 H   0  0  0  0  0  0  0  0  0  0  0  0
   58.2540   29.0000   43.3270 H   0  0  0  0  0  0  0  0  0  0  0  0
   57.4557   31.6339   46.3604 H   0  0  0  0  0  0  0  0  0  0  0  0
   59.1114   31.1002   45.8590 H   0  0  0  0  0  0  0  0  0  0  0  0
   59.0769   32.3997   43.8999 H   0  0  0  0  0  0  0  0  0  0  0  0
   57.2775   32.5763   43.9460 H   0  0  0  0  0  0  0  0  0  0  0  0
   58.4460   35.1389   48.1361 H   0  0  0  0  0  0  0  0  0  0  0  0
   60.1301   34.8798   49.9566 H   0  0  0  0  0  0  0  0  0  0  0  0
   62.2320   33.9301   50.7763 H   0  0  0  0  0  0  0  0  0  0  0  0
   64.5798   31.3566   48.2101 H   0  0  0  0  0  0  0  0  0  0  0  0
   62.8962   31.6181   46.3859 H   0  0  0  0  0  0  0  0  0  0  0  0
   60.8018   32.5725   45.5666 H   0  0  0  0  0  0  0  0  0  0  0  0
   60.4037   28.5353   44.1823 H   0  0  0  0  0  0  0  0  0  0  0  0
   60.0411   30.3123   44.1079 H   0  0  0  0  0  0  0  0  0  0  0  0
   61.2089   29.4222   46.2135 H   0  0  0  0  0  0  0  0  0  0  0  0
   59.7171   30.4704   46.4026 H   0  0  0  0  0  0  0  0  0  0  0  0
  1  2  1  0
  2  3  1  0
  3  4  2  0
  4  5  1  0
  5  6  2  0
  6  7  1  0
  7  8  2  0
  8  9  1  0
  9 10  1  0
 10 11  1  0
 11 12  1  0
 12 13  1  0
 13 14  2  0
 13 15  1  0
 15 16  1  0
 16 17  1  0
 17 18  2  0
 17 19  2  0
 17 20  1  0
 20 21  2  0
 21 22  1  0
 22 23  2  0
 23 24  1  0
 24 25  2  0
 25 26  1  0
 25 27  1  0
 27 28  2  0
 28 29  1  0
 29 30  2  0
 12 31  1  0
 31 32  1  0
  8  3  1  0
 32  9  1  0
 30 20  1  0
 29 23  1  0
  1 33  1  0
  1 34  1  0
  1 35  1  0
  4 36  1  0
  5 37  1  0
  6 38  1  0
  7 39  1  0
 10 40  1  0
 10 41  1  0
 11 42  1  0
 11 43  1  0
 12 44  1  0
 15 45  1  0
 15 46  1  0
 16 47  1  0
 16 48  1  0
 21 49  1  0
 22 50  1  0
 24 51  1  0
 27 52  1  0
 28 53  1  0
 30 54  1  0
 31 55  1  0
 31 56  1  0
 32 57  1  0
 32 58  1  0
M  CHG  1  12   1
M  END
>  <UniqueID>  (7) 
6

>  <SMILES>  (7) 
COc1ccccc1N1CC[NH+](C(=O)CCS(=O)(=O)c2ccc3cc(Cl)ccc3c2)CC1

>  <Energy>  (7) 
75.87258262740976

>  <Genealogy>  (7) 
COc1ccccc1N1CC[NH+](C(=O)CCS(=O)(=O)c2ccc3cc(Cl)ccc3c2)CC1 (protonated)
COc1ccccc1N1CC[NH+](C(=O)CCS(=O)(=O)c2ccc3cc(Cl)ccc3c2)CC1 (3D coordinates assigned)
COc1ccccc1N1CC[NH+](C(=O)CCS(=O)(=O)c2ccc3cc(Cl)ccc3c2)CC1 (nonaromatic ring conformer: 75.87258262740976 kcal/mol)

>  <smiles>  (7) 
COc1ccccc1N1CCN(C(=O)CCS(=O)(=O)c2ccc3cc(Cl)ccc3c2)CC1

>  <score_type>  (7) 
oracle

>  <origin>  (7) 
adg

>  <m_score__min__energy>  (7) 
-7.75

>  <m_primary>  (7) 
energy

$$$$
7:0
     RDKit          3D

 66 70  0  0  1  0  0  0  0  0999 V2000
   56.7070   34.5850   44.9130 C   0  0  0  0  0  0  0  0  0  0  0  0
   57.5520   34.1380   46.0610 C   0  0  0  0  0  0  0  0  0  0  0  0
   58.7540   33.4510   45.7420 N   0  0  0  0  0  0  0  0  0  0  0  0
   59.9610   34.2060   45.7510 C   0  0  0  0  0  0  0  0  0  0  0  0
   61.0380   33.7670   46.6380 C   0  0  0  0  0  0  0  0  0  0  0  0
   62.3840   33.8240   46.3570 C   0  0  0  0  0  0  0  0  0  0  0  0
   63.3600   33.3820   47.2420 C   0  0  0  0  0  0  0  0  0  0  0  0
   62.9610   32.8580   48.4630 C   0  0  0  0  0  0  0  0  0  0  0  0
   63.9390   32.3690   49.4480 C   0  0  0  0  0  0  0  0  0  0  0  0
   63.8210   31.3460   50.3500 C   0  0  0  0  0  0  0  0  0  0  0  0
   64.9850   31.3020   51.0150 N   0  0  0  0  0  0  0  0  0  0  0  0
   65.8200   32.2300   50.5850 N   0  0  0  0  0  0  0  0  0  0  0  0
   65.2000   32.9220   49.5990 C   0  0  0  0  0  0  0  0  0  0  0  0
   61.6220   32.7930   48.7620 C   0  0  0  0  0  0  0  0  0  0  0  0
   60.6620   33.2340   47.8770 C   0  0  0  0  0  0  0  0  0  0  0  0
   58.6340   32.8110   44.4670 C   0  0  0  0  0  0  0  0  0  0  0  0
   58.1330   31.4160   44.5260 C   0  0  0  0  0  0  0  0  0  0  0  0
   57.2140   30.9370   43.5840 C   0  0  0  0  0  0  0  0  0  0  0  0
   56.9840   29.6340   43.9670 C   0  0  0  0  0  0  0  0  0  0  0  0
   57.7240   29.3270   45.0900 C   0  0  0  0  0  0  0  0  0  0  0  0
   57.7000   28.0270   45.7530 C   0  0  0  0  0  0  0  0  0  0  0  0
   58.7380   27.5660   46.5380 C   0  0  0  0  0  0  0  0  0  0  0  0
   58.6610   26.3110   47.1550 C   0  0  0  0  0  0  0  0  0  0  0  0
   57.5940   25.5110   47.0160 N   0  0  0  0  0  0  0  0  0  0  0  0
   56.5810   25.9550   46.2530 C   0  0  0  0  0  0  0  0  0  0  0  0
   55.5170   25.2550   46.0640 N   0  0  0  0  0  0  0  0  0  0  0  0
   55.4430   24.1780   45.1130 C   0  0  0  0  0  0  0  0  0  0  0  0
   55.8930   22.9000   45.8330 C   0  0  0  0  0  0  0  0  0  0  0  0
   56.3620   21.9160   44.8100 C   0  0  0  0  0  0  0  0  0  0  0  0
   55.8360   22.2480   43.5680 O   0  0  0  0  0  0  0  0  0  0  0  0
   56.6520   23.3010   43.0950 C   0  0  0  0  0  0  0  0  0  0  0  0
   56.4800   24.4570   44.0390 C   0  0  0  0  0  0  0  0  0  0  0  0
   56.6090   27.1940   45.6190 C   0  0  0  0  0  0  0  0  0  0  0  0
   58.4110   30.4330   45.4040 N   0  0  0  0  0  0  0  0  0  0  0  0
   55.7951   35.0674   45.2949 H   0  0  0  0  0  0  0  0  0  0  0  0
   57.2718   35.3023   44.2994 H   0  0  0  0  0  0  0  0  0  0  0  0
   56.4319   33.7145   44.2994 H   0  0  0  0  0  0  0  0  0  0  0  0
   57.8236   35.0316   46.6422 H   0  0  0  0  0  0  0  0  0  0  0  0
   56.9366   33.4050   46.6033 H   0  0  0  0  0  0  0  0  0  0  0  0
   60.3586   34.1997   44.7254 H   0  0  0  0  0  0  0  0  0  0  0  0
   59.6665   35.1909   46.1424 H   0  0  0  0  0  0  0  0  0  0  0  0
   62.7015   34.2379   45.3886 H   0  0  0  0  0  0  0  0  0  0  0  0
   64.4264   33.4463   46.9799 H   0  0  0  0  0  0  0  0  0  0  0  0
   62.9487   30.6927   50.4991 H   0  0  0  0  0  0  0  0  0  0  0  0
   66.7980   32.4510   50.9010 H   0  0  0  0  0  0  0  0  0  0  0  0
   65.6185   33.7632   49.0270 H   0  0  0  0  0  0  0  0  0  0  0  0
   61.3082   32.3788   49.7315 H   0  0  0  0  0  0  0  0  0  0  0  0
   59.5972   33.1671   48.1448 H   0  0  0  0  0  0  0  0  0  0  0  0
   57.9393   33.4002   43.8504 H   0  0  0  0  0  0  0  0  0  0  0  0
   59.6481   32.7626   44.0435 H   0  0  0  0  0  0  0  0  0  0  0  0
   56.7757   31.4780   42.7324 H   0  0  0  0  0  0  0  0  0  0  0  0
   56.3068   28.9375   43.4509 H   0  0  0  0  0  0  0  0  0  0  0  0
   59.6330   28.1896   46.6800 H   0  0  0  0  0  0  0  0  0  0  0  0
   59.5039   25.9703   47.7742 H   0  0  0  0  0  0  0  0  0  0  0  0
   57.4940   24.5840   47.4510 H   0  0  0  0  0  0  0  0  0  0  0  0
   54.4299   24.0800   44.6958 H   0  0  0  0  0  0  0  0  0  0  0  0
   56.7148   23.1347   46.5255 H   0  0  0  0  0  0  0  0  0  0  0  0
   55.0547   22.4762   46.4054 H   0  0  0  0  0  0  0  0  0  0  0  0
   57.4607   21.9362   44.7594 H   0  0  0  0  0  0  0  0  0  0  0  0
   56.0246   20.9076   45.0917 H   0  0  0  0  0  0  0  0  0  0  0  0
   57.7048   22.9827   43.0773 H   0  0  0  0  0  0  0  0  0  0  0  0
   56.3653   23.5870   42.0722 H   0  0  0  0  0  0  0  0  0  0  0  0
   57.4452   24.6630   44.5248 H   0  0  0  0  0  0  0  0  0  0  0  0
   56.1317   25.3200   43.4526 H   0  0  0  0  0  0  0  0  0  0  0  0
   55.7530   27.5116   45.0055 H   0  0  0  0  0  0  0  0  0  0  0  0
   59.0620   30.5120   46.2080 H   0  0  0  0  0  0  0  0  0  0  0  0
  1  2  1  0
  2  3  1  0
  3  4  1  0
  4  5  1  0
  5  6  2  0
  6  7  1  0
  7  8  2  0
  8  9  1  0
  9 10  1  0
 10 11  2  0
 11 12  1  0
 12 13  1  0
  8 14  1  0
 14 15  2  0
  3 16  1  0
 16 17  1  0
 17 18  2  0
 18 19  1  0
 19 20  2  0
 20 21  1  0
 21 22  1  0
 22 23  2  0
 23 24  1  0
 24 25  1  0
 25 26  2  0
 26 27  1  0
 27 28  1  0
 28 29  1  0
 29 30  1  0
 30 31  1  0
 31 32  1  0
 25 33  1  0
 20 34  1  0
 15  5  1  0
 34 17  1  0
 13  9  2  0
 33 21  2  0
 32 27  1  0
  1 35  1  0
  1 36  1  0
  1 37  1  0
  2 38  1  0
  2 39  1  0
  4 40  1  0
  4 41  1  0
  6 42  1  0
  7 43  1  0
 10 44  1  0
 12 45  1  0
 13 46  1  0
 14 47  1  0
 15 48  1  0
 16 49  1  0
 16 50  1  0
 18 51  1  0
 19 52  1  0
 22 53  1  0
 23 54  1  0
 24 55  1  0
 27 56  1  0
 28 57  1  0
 28 58  1  0
 29 59  1  0
 29 60  1  0
 31 61  1  0
 31 62  1  0
 32 63  1  0
 32 64  1  0
 33 65  1  0
 34 66  1  0
M  END
>  <smiles>  (8) 
CCN(Cc1ccc(-c2cn[nH]c2)cc1)Cc1ccc(-c2cc[nH]c(=NC3CCOCC3)c2)[nH]1

>  <score_type>  (8) 
oracle

>  <origin>  (8) 
adg

>  <m_score__min__energy>  (8) 
-10.02

>  <m_primary>  (8) 
energy

$$$$
8:0
     RDKit          3D

 30 31  0  0  0  0  0  0  0  0999 V2000
   55.1490   27.4730   45.2510 H   0  0  0  0  0  0  0  0  0  0  0  0
   55.5610   26.7220   45.8480 N   0  0  0  0  0  0  0  0  0  0  0  0
   56.8410   26.6270   46.0180 C   0  0  0  0  0  0  0  0  0  0  0  0
   57.5730   25.9100   47.3490 S   0  0  0  0  0  0  0  0  0  0  0  0
   59.1300   26.2340   46.7930 C   0  0  0  0  0  0  0  0  0  0  0  0
   60.0657   25.9659   47.3055 H   0  0  0  0  0  0  0  0  0  0  0  0
   59.0300   26.8990   45.5740 C   0  0  0  0  0  0  0  0  0  0  0  0
   59.9114   27.2292   45.0047 H   0  0  0  0  0  0  0  0  0  0  0  0
   57.7550   27.1090   45.1410 N   0  0  0  0  0  0  0  0  0  0  0  0
   57.4300   27.8470   43.9170 C   0  0  0  0  0  0  0  0  0  0  0  0
   58.3222   27.9020   43.2760 H   0  0  0  0  0  0  0  0  0  0  0  0
   56.6214   27.3264   43.3831 H   0  0  0  0  0  0  0  0  0  0  0  0
   56.9810   29.2330   44.2640 C   0  0  0  0  0  0  0  0  0  0  0  0
   55.9570   29.3960   44.9810 O   0  0  0  0  0  0  0  0  0  0  0  0
   57.7420   30.3630   43.8210 N   0  0  0  0  0  0  0  0  0  0  0  0
   58.5350   30.2010   43.1570 H   0  0  0  0  0  0  0  0  0  0  0  0
   57.4810   31.7080   44.3280 C   0  0  0  0  0  0  0  0  0  0  0  0
   57.8024   32.4458   43.5781 H   0  0  0  0  0  0  0  0  0  0  0  0
   56.4035   31.8103   44.5245 H   0  0  0  0  0  0  0  0  0  0  0  0
   58.2350   31.9460   45.6130 C   0  0  0  0  0  0  0  0  0  0  0  0
   58.4280   30.8830   46.5130 C   0  0  0  0  0  0  0  0  0  0  0  0
   58.0422   29.8824   46.2680 H   0  0  0  0  0  0  0  0  0  0  0  0
   59.1070   31.0900   47.7170 C   0  0  0  0  0  0  0  0  0  0  0  0
   59.2580   30.2521   48.4135 H   0  0  0  0  0  0  0  0  0  0  0  0
   59.5940   32.3590   48.0370 C   0  0  0  0  0  0  0  0  0  0  0  0
   60.1314   32.5191   48.9833 H   0  0  0  0  0  0  0  0  0  0  0  0
   59.3990   33.4250   47.1560 C   0  0  0  0  0  0  0  0  0  0  0  0
   59.7814   34.4238   47.4132 H   0  0  0  0  0  0  0  0  0  0  0  0
   58.7200   33.2300   45.9480 C   0  0  0  0  0  0  0  0  0  0  0  0
   58.4820   34.6140   44.8850 Cl  0  0  0  0  0  0  0  0  0  0  0  0
  1  2  1  0
  2  3  2  0
  3  4  1  0
  4  5  1  0
  5  6  1  0
  5  7  2  0
  7  8  1  0
  7  9  1  0
  9 10  1  0
 10 11  1  0
 10 12  1  0
 10 13  1  0
 13 14  2  0
 13 15  1  0
 15 16  1  0
 15 17  1  0
 17 18  1  0
 17 19  1  0
 17 20  1  0
 20 21  2  0
 21 22  1  0
 21 23  1  0
 23 24  1  0
 23 25  2  0
 25 26  1  0
 25 27  1  0
 27 28  1  0
 27 29  2  0
 29 30  1  0
  9  3  1  0
 29 20  1  0
M  END
>  <UniqueID>  (9) 
7

>  <SMILES>  (9) 
[H]/N=c1\sccn1CC(=O)NCc1ccccc1Cl

>  <Energy>  (9) 
56.90259426960536

>  <Genealogy>  (9) 
[H]/N=c1\sccn1CC(=O)NCc1ccccc1Cl (cis-trans isomerization)
[H]/N=c1\sccn1CC(=O)NCc1ccccc1Cl (3D coordinates assigned)
[H]/N=c1\sccn1CC(=O)NCc1ccccc1Cl (optimized conformer: 56.90259426960536 kcal/mol)

>  <smiles>  (9) 
N=c1sccn1CC(=O)NCc1ccccc1Cl

>  <score_type>  (9) 
oracle

>  <origin>  (9) 
adg

>  <m_score__min__energy>  (9) 
-7.0199999999999996

>  <m_primary>  (9) 
energy

$$$$
9:0
     RDKit          3D

 56 57  0  0  0  0  0  0  0  0999 V2000
   61.7350   30.9140   49.5360 C   0  0  0  0  0  0  0  0  0  0  0  0
   63.0870   31.5950   49.8140 C   0  0  0  0  0  0  0  0  0  0  0  0
   63.1370   33.0680   49.5740 N   0  0  0  0  0  0  0  0  0  0  0  0
   64.0000   33.7880   50.5480 C   0  0  0  0  0  0  0  0  0  0  0  0
   65.4740   33.3700   50.5360 C   0  0  0  0  0  0  0  0  0  0  0  0
   63.4030   33.4780   48.1700 C   0  0  0  0  0  0  0  0  0  0  0  0
   62.1710   33.3100   47.2680 C   0  0  0  0  0  0  0  0  0  0  0  0
   61.0320   33.7790   47.9570 O   0  0  0  0  0  0  0  0  0  0  0  0
   60.1800   34.5020   47.0870 C   0  0  0  0  0  0  0  0  0  0  0  0
   59.8030   33.6280   45.8790 C   0  0  2  0  0  0  0  0  0  0  0  0
   58.8760   34.3930   44.8900 C   0  0  0  0  0  0  0  0  0  0  0  0
   57.6080   33.6180   44.5220 C   0  0  0  0  0  0  0  0  0  0  0  0
   57.9390   32.1740   44.1380 C   0  0  0  0  0  0  0  0  0  0  0  0
   58.7410   31.5020   45.1760 N   0  0  0  0  0  0  0  0  0  0  0  0
   58.9560   30.0730   45.1180 C   0  0  0  0  0  0  0  0  0  0  0  0
   60.1400   29.3750   46.0270 S   0  0  0  0  0  0  0  0  0  0  0  0
   58.2450   29.2830   44.1470 N   0  0  0  0  0  0  0  0  0  0  0  0
   57.9130   27.8930   44.3150 C   0  0  0  0  0  0  0  0  0  0  0  0
   58.0750   26.9690   43.2660 C   0  0  0  0  0  0  0  0  0  0  0  0
   57.7670   25.6200   43.4600 C   0  0  0  0  0  0  0  0  0  0  0  0
   57.3120   25.1780   44.7040 C   0  0  0  0  0  0  0  0  0  0  0  0
   57.1720   26.0840   45.7580 C   0  0  0  0  0  0  0  0  0  0  0  0
   57.4810   27.4340   45.5680 C   0  0  0  0  0  0  0  0  0  0  0  0
   59.2210   32.2720   46.3350 C   0  0  0  0  0  0  0  0  0  0  0  0
   61.2456   30.6675   50.4898 H   0  0  0  0  0  0  0  0  0  0  0  0
   61.0925   31.5960   48.9598 H   0  0  0  0  0  0  0  0  0  0  0  0
   61.9006   29.9918   48.9598 H   0  0  0  0  0  0  0  0  0  0  0  0
   63.3437   31.4165   50.8686 H   0  0  0  0  0  0  0  0  0  0  0  0
   63.7958   31.1526   49.0985 H   0  0  0  0  0  0  0  0  0  0  0  0
   62.1720   33.4180   49.7950 H   0  0  0  0  0  0  0  0  0  0  0  0
   63.9479   34.8631   50.3212 H   0  0  0  0  0  0  0  0  0  0  0  0
   63.6156   33.5346   51.5470 H   0  0  0  0  0  0  0  0  0  0  0  0
   65.8346   33.2678   51.5702 H   0  0  0  0  0  0  0  0  0  0  0  0
   65.5778   32.4070   50.0146 H   0  0  0  0  0  0  0  0  0  0  0  0
   66.0679   34.1351   50.0146 H   0  0  0  0  0  0  0  0  0  0  0  0
   63.7052   34.5356   48.1620 H   0  0  0  0  0  0  0  0  0  0  0  0
   64.1986   32.8287   47.7758 H   0  0  0  0  0  0  0  0  0  0  0  0
   62.3083   33.8904   46.3437 H   0  0  0  0  0  0  0  0  0  0  0  0
   62.0398   32.2486   47.0106 H   0  0  0  0  0  0  0  0  0  0  0  0
   59.2666   34.7908   47.6276 H   0  0  0  0  0  0  0  0  0  0  0  0
   60.7030   35.4028   46.7335 H   0  0  0  0  0  0  0  0  0  0  0  0
   60.7205   33.3986   45.3172 H   0  0  0  0  0  0  0  0  0  0  0  0
   58.5802   35.3450   45.3549 H   0  0  0  0  0  0  0  0  0  0  0  0
   59.4458   34.5432   43.9611 H   0  0  0  0  0  0  0  0  0  0  0  0
   56.9262   33.6133   45.3852 H   0  0  0  0  0  0  0  0  0  0  0  0
   57.1348   34.1100   43.6594 H   0  0  0  0  0  0  0  0  0  0  0  0
   56.9999   31.6185   43.9983 H   0  0  0  0  0  0  0  0  0  0  0  0
   58.5285   32.1935   43.2095 H   0  0  0  0  0  0  0  0  0  0  0  0
   57.9970   29.7390   43.2400 H   0  0  0  0  0  0  0  0  0  0  0  0
   58.4460   27.3105   42.2884 H   0  0  0  0  0  0  0  0  0  0  0  0
   57.8831   24.9054   42.6319 H   0  0  0  0  0  0  0  0  0  0  0  0
   57.0639   24.1169   44.8539 H   0  0  0  0  0  0  0  0  0  0  0  0
   56.8180   25.7345   46.7391 H   0  0  0  0  0  0  0  0  0  0  0  0
   57.3848   28.1403   46.4058 H   0  0  0  0  0  0  0  0  0  0  0  0
   58.3819   32.4511   47.0234 H   0  0  0  0  0  0  0  0  0  0  0  0
   60.0107   31.6978   46.8417 H   0  0  0  0  0  0  0  0  0  0  0  0
  1  2  1  0
  2  3  1  0
  3  4  1  0
  4  5  1  0
  3  6  1  0
  6  7  1  0
  7  8  1  0
  8  9  1  0
  9 10  1  0
 10 11  1  0
 11 12  1  0
 12 13  1  0
 13 14  1  0
 14 15  1  0
 15 16  2  0
 15 17  1  0
 17 18  1  0
 18 19  2  0
 19 20  1  0
 20 21  2  0
 21 22  1  0
 22 23  2  0
 14 24  1  0
 24 10  1  0
 23 18  1  0
  1 25  1  0
  1 26  1  0
  1 27  1  0
  2 28  1  0
  2 29  1  0
  3 30  1  0
  4 31  1  0
  4 32  1  0
  5 33  1  0
  5 34  1  0
  5 35  1  0
  6 36  1  0
  6 37  1  0
  7 38  1  0
  7 39  1  0
  9 40  1  0
  9 41  1  0
 10 42  1  6
 11 43  1  0
 11 44  1  0
 12 45  1  0
 12 46  1  0
 13 47  1  0
 13 48  1  0
 17 49  1  0
 19 50  1  0
 20 51  1  0
 21 52  1  0
 22 53  1  0
 23 54  1  0
 24 55  1  0
 24 56  1  0
M  CHG  1   3   1
M  END
>  <UniqueID>  (10) 
8

>  <SMILES>  (10) 
CC[NH+](CC)CCOC[C@@H]1CCCN(C(=S)Nc2ccccc2)C1

>  <Energy>  (10) 
69.86026508757931

>  <Genealogy>  (10) 
CC[NH+](CC)CCOCC1CCCN(C(=S)Nc2ccccc2)C1 (protonated)
CC[NH+](CC)CCOC[C@@H]1CCCN(C(=S)Nc2ccccc2)C1 (chirality)
CC[NH+](CC)CCOC[C@@H]1CCCN(C(=S)Nc2ccccc2)C1 (3D coordinates assigned)
CC[NH+](CC)CCOC[C@@H]1CCCN(C(=S)Nc2ccccc2)C1 (nonaromatic ring conformer: 69.86026508757931 kcal/mol)

>  <smiles>  (10) 
CCN(CC)CCOCC1CCCN(C(=S)Nc2ccccc2)C1

>  <score_type>  (10) 
oracle

>  <origin>  (10) 
adg

>  <m_score__min__energy>  (10) 
-5.8799999999999999

>  <m_primary>  (10) 
energy

$$$$
10:0
     RDKit          3D

 51 54  0  0  0  0  0  0  0  0999 V2000
   57.4030   31.5990   42.3340 C   0  0  0  0  0  0  0  0  0  0  0  0
   56.6550   30.5120   43.0970 C   0  0  0  0  0  0  0  0  0  0  0  0
   56.5260   30.8610   44.4760 O   0  0  0  0  0  0  0  0  0  0  0  0
   57.4040   31.6810   45.2080 C   0  0  0  0  0  0  0  0  0  0  0  0
   57.0310   32.9660   45.6440 C   0  0  0  0  0  0  0  0  0  0  0  0
   57.9090   33.7470   46.3930 C   0  0  0  0  0  0  0  0  0  0  0  0
   59.1810   33.2630   46.7280 C   0  0  0  0  0  0  0  0  0  0  0  0
   60.0900   34.0260   47.4850 C   0  0  0  0  0  0  0  0  0  0  0  0
   59.7720   35.1790   47.8920 O   0  0  0  0  0  0  0  0  0  0  0  0
   61.3560   33.4940   47.7810 C   0  0  0  0  0  0  0  0  0  0  0  0
   62.3130   34.2050   48.5290 C   0  0  0  0  0  0  0  0  0  0  0  0
   63.5600   33.6330   48.7960 C   0  0  0  0  0  0  0  0  0  0  0  0
   63.8630   32.3550   48.3210 C   0  0  0  0  0  0  0  0  0  0  0  0
   62.9200   31.6400   47.5780 C   0  0  0  0  0  0  0  0  0  0  0  0
   61.6690   32.2020   47.3060 C   0  0  0  0  0  0  0  0  0  0  0  0
   60.7820   31.5120   46.5960 O   0  0  0  0  0  0  0  0  0  0  0  0
   59.5740   31.9770   46.2900 C   0  0  0  0  0  0  0  0  0  0  0  0
   58.6950   31.1920   45.5120 C   0  0  0  0  0  0  0  0  0  0  0  0
   59.1230   29.8150   45.0390 C   0  0  0  0  0  0  0  0  0  0  0  0
   59.2300   28.8160   46.1240 N   0  0  0  0  0  0  0  0  0  0  0  0
   58.9230   29.2740   47.4900 C   0  0  0  0  0  0  0  0  0  0  0  0
   59.3530   28.2230   48.5390 C   0  0  0  0  0  0  0  0  0  0  0  0
   60.3290   27.1910   47.9520 C   0  0  0  0  0  0  0  0  0  0  0  0
   59.7460   26.4780   46.7130 C   0  0  0  0  0  0  0  0  0  0  0  0
   58.8740   27.4100   45.8300 C   0  0  1  0  0  0  0  0  0  0  0  0
   57.3740   27.1100   46.0490 C   0  0  0  0  0  0  0  0  0  0  0  0
   57.8772   32.2882   43.0483 H   0  0  0  0  0  0  0  0  0  0  0  0
   58.1757   31.1375   41.7016 H   0  0  0  0  0  0  0  0  0  0  0  0
   56.6959   32.1558   41.7016 H   0  0  0  0  0  0  0  0  0  0  0  0
   55.6529   30.3888   42.6604 H   0  0  0  0  0  0  0  0  0  0  0  0
   57.2223   29.5726   43.0214 H   0  0  0  0  0  0  0  0  0  0  0  0
   56.0351   33.3584   45.3907 H   0  0  0  0  0  0  0  0  0  0  0  0
   57.6017   34.7501   46.7236 H   0  0  0  0  0  0  0  0  0  0  0  0
   62.0792   35.2123   48.9040 H   0  0  0  0  0  0  0  0  0  0  0  0
   64.3051   34.1911   49.3820 H   0  0  0  0  0  0  0  0  0  0  0  0
   64.8466   31.9102   48.5324 H   0  0  0  0  0  0  0  0  0  0  0  0
   63.1623   30.6334   47.2065 H   0  0  0  0  0  0  0  0  0  0  0  0
   58.3843   29.4547   44.3079 H   0  0  0  0  0  0  0  0  0  0  0  0
   60.1278   29.9242   44.6048 H   0  0  0  0  0  0  0  0  0  0  0  0
   59.4599   30.2145   47.6828 H   0  0  0  0  0  0  0  0  0  0  0  0
   57.8365   29.4253   47.5719 H   0  0  0  0  0  0  0  0  0  0  0  0
   59.8431   28.7384   49.3781 H   0  0  0  0  0  0  0  0  0  0  0  0
   58.4521   27.6875   48.8732 H   0  0  0  0  0  0  0  0  0  0  0  0
   61.2566   27.7058   47.6610 H   0  0  0  0  0  0  0  0  0  0  0  0
   60.5195   26.4292   48.7223 H   0  0  0  0  0  0  0  0  0  0  0  0
   60.5789   26.0968   46.1039 H   0  0  0  0  0  0  0  0  0  0  0  0
   59.0970   25.6672   47.0756 H   0  0  0  0  0  0  0  0  0  0  0  0
   59.0714   27.2277   44.7633 H   0  0  0  0  0  0  0  0  0  0  0  0
   57.1622   27.0676   47.1276 H   0  0  0  0  0  0  0  0  0  0  0  0
   56.7699   27.9051   45.5877 H   0  0  0  0  0  0  0  0  0  0  0  0
   57.1222   26.1437   45.5877 H   0  0  0  0  0  0  0  0  0  0  0  0
  1  2  1  0
  2  3  1  0
  3  4  1  0
  4  5  2  0
  5  6  1  0
  6  7  2  0
  7  8  1  0
  8  9  2  0
  8 10  1  0
 10 11  2  0
 11 12  1  0
 12 13  2  0
 13 14  1  0
 14 15  2  0
 15 16  1  0
 16 17  1  0
 17 18  2  0
 18 19  1  0
 19 20  1  0
 20 21  1  0
 21 22  1  0
 22 23  1  0
 23 24  1  0
 24 25  1  0
 25 26  1  0
 18  4  1  0
 25 20  1  0
 17  7  1  0
 15 10  1  0
  1 27  1  0
  1 28  1  0
  1 29  1  0
  2 30  1  0
  2 31  1  0
  5 32  1  0
  6 33  1  0
 11 34  1  0
 12 35  1  0
 13 36  1  0
 14 37  1  0
 19 38  1  0
 19 39  1  0
 21 40  1  0
 21 41  1  0
 22 42  1  0
 22 43  1  0
 23 44  1  0
 23 45  1  0
 24 46  1  0
 24 47  1  0
 25 48  1  6
 26 49  1  0
 26 50  1  0
 26 51  1  0
M  END
>  <UniqueID>  (11) 
9

>  <SMILES>  (11) 
CCOc1ccc2c(=O)c3ccccc3oc2c1CN1CCCC[C@H]1C

>  <Energy>  (11) 
74.32747849029676

>  <Genealogy>  (11) 
CCOc1ccc2c(=O)c3ccccc3oc2c1CN1CCCC[C@H]1C (chirality)
CCOc1ccc2c(=O)c3ccccc3oc2c1CN1CCCC[C@H]1C (3D coordinates assigned)
CCOc1ccc2c(=O)c3ccccc3oc2c1CN1CCCC[C@H]1C (nonaromatic ring conformer: 74.32747849029676 kcal/mol)

>  <smiles>  (11) 
CCOc1ccc2c(=O)c3ccccc3oc2c1CN1CCCCC1C

>  <score_type>  (11) 
oracle

>  <origin>  (11) 
adg

>  <m_score__min__energy>  (11) 
-8.4499999999999993

>  <m_primary>  (11) 
energy

$$$$
11:0
     RDKit          3D

 35 37  0  0  0  0  0  0  0  0999 V2000
   62.4780   31.3160   47.2790 C   0  0  0  0  0  0  0  0  0  0  0  0
   61.6380   32.3950   47.8210 N   0  0  0  0  0  0  0  0  0  0  0  0
   62.1590   33.2010   48.7980 C   0  0  0  0  0  0  0  0  0  0  0  0
   61.3990   34.2220   49.3680 C   0  0  0  0  0  0  0  0  0  0  0  0
   60.0940   34.4270   48.9360 C   0  0  0  0  0  0  0  0  0  0  0  0
   59.5650   33.6240   47.9230 C   0  0  0  0  0  0  0  0  0  0  0  0
   60.3570   32.6100   47.3560 C   0  0  0  0  0  0  0  0  0  0  0  0
   59.7050   31.7420   46.2970 C   0  0  0  0  0  0  0  0  0  0  0  0
   58.9100   32.5990   45.2810 C   0  0  1  0  0  0  0  0  0  0  0  0
   58.0450   31.7090   44.4070 C   0  0  0  0  0  0  0  0  0  0  0  0
   57.8340   32.0220   43.0500 C   0  0  0  0  0  0  0  0  0  0  0  0
   57.0260   31.2050   42.2540 C   0  0  0  0  0  0  0  0  0  0  0  0
   56.4190   30.0720   42.8010 C   0  0  0  0  0  0  0  0  0  0  0  0
   56.6170   29.7560   44.1460 C   0  0  0  0  0  0  0  0  0  0  0  0
   57.4250   30.5700   44.9480 C   0  0  0  0  0  0  0  0  0  0  0  0
   58.0800   33.7570   45.9230 C   0  0  0  0  0  0  0  0  0  0  0  0
   58.1460   33.7960   47.4560 C   0  0  0  0  0  0  0  0  0  0  0  0
   62.9221   30.7455   48.1080 H   0  0  0  0  0  0  0  0  0  0  0  0
   61.8613   30.6461   46.6618 H   0  0  0  0  0  0  0  0  0  0  0  0
   63.2787   31.7495   46.6618 H   0  0  0  0  0  0  0  0  0  0  0  0
   63.1927   33.0406   49.1383 H   0  0  0  0  0  0  0  0  0  0  0  0
   61.8292   34.8604   50.1537 H   0  0  0  0  0  0  0  0  0  0  0  0
   59.4801   35.2187   49.3902 H   0  0  0  0  0  0  0  0  0  0  0  0
   60.4859   31.1827   45.7610 H   0  0  0  0  0  0  0  0  0  0  0  0
   59.0058   31.0532   46.7936 H   0  0  0  0  0  0  0  0  0  0  0  0
   59.6587   33.1069   44.6553 H   0  0  0  0  0  0  0  0  0  0  0  0
   58.3076   32.9141   42.6143 H   0  0  0  0  0  0  0  0  0  0  0  0
   56.8678   31.4548   41.1945 H   0  0  0  0  0  0  0  0  0  0  0  0
   55.7854   29.4293   42.1721 H   0  0  0  0  0  0  0  0  0  0  0  0
   56.1368   28.8650   44.5767 H   0  0  0  0  0  0  0  0  0  0  0  0
   57.5756   30.3167   46.0078 H   0  0  0  0  0  0  0  0  0  0  0  0
   58.4626   34.7129   45.5358 H   0  0  0  0  0  0  0  0  0  0  0  0
   57.0279   33.5820   45.6538 H   0  0  0  0  0  0  0  0  0  0  0  0
   57.7622   34.7638   47.8110 H   0  0  0  0  0  0  0  0  0  0  0  0
   57.5347   32.9760   47.8609 H   0  0  0  0  0  0  0  0  0  0  0  0
  1  2  1  0
  2  3  2  0
  3  4  1  0
  4  5  2  0
  5  6  1  0
  6  7  2  0
  7  8  1  0
  8  9  1  0
  9 10  1  0
 10 11  2  0
 11 12  1  0
 12 13  2  0
 13 14  1  0
 14 15  2  0
  9 16  1  0
 16 17  1  0
  7  2  1  0
 15 10  1  0
 17  6  1  0
  1 18  1  0
  1 19  1  0
  1 20  1  0
  3 21  1  0
  4 22  1  0
  5 23  1  0
  8 24  1  0
  8 25  1  0
  9 26  1  6
 11 27  1  0
 12 28  1  0
 13 29  1  0
 14 30  1  0
 15 31  1  0
 16 32  1  0
 16 33  1  0
 17 34  1  0
 17 35  1  0
M  CHG  1   2   1
M  END
>  <UniqueID>  (12) 
10

>  <SMILES>  (12) 
C[n+]1cccc2c1C[C@@H](c1ccccc1)CC2

>  <Energy>  (12) 
46.36341838830209

>  <Genealogy>  (12) 
C[n+]1cccc2c1C[C@@H](c1ccccc1)CC2 (chirality)
C[n+]1cccc2c1C[C@@H](c1ccccc1)CC2 (3D coordinates assigned)
C[n+]1cccc2c1C[C@@H](c1ccccc1)CC2 (nonaromatic ring conformer: 46.36341838830209 kcal/mol)

>  <smiles>  (12) 
C[n+]1cccc2c1CC(c1ccccc1)CC2

>  <score_type>  (12) 
oracle

>  <origin>  (12) 
adg

>  <m_score__min__energy>  (12) 
-5.5199999999999996

>  <m_primary>  (12) 
energy

$$$$
12:0
     RDKit          3D

 54 57  0  0  0  0  0  0  0  0999 V2000
   61.9090   31.1840   47.1190 C   0  0  0  0  0  0  0  0  0  0  0  0
   63.1010   32.0400   47.5520 C   0  0  0  0  0  0  0  0  0  0  0  0
   62.8670   33.5450   47.3570 C   0  0  0  0  0  0  0  0  0  0  0  0
   61.9480   34.2140   48.4020 C   0  0  0  0  0  0  0  0  0  0  0  0
   60.5510   33.7860   48.2470 N   0  0  0  0  0  0  0  0  0  0  0  0
   59.7470   33.1140   49.1290 C   0  0  0  0  0  0  0  0  0  0  0  0
   60.0540   32.8320   50.5890 C   0  0  0  0  0  0  0  0  0  0  0  0
   60.1290   31.3910   50.9730 N   0  0  0  0  0  0  0  0  0  0  0  0
   61.3240   30.7130   50.3940 C   0  0  0  0  0  0  0  0  0  0  0  0
   61.0830   29.2390   50.0440 C   0  0  0  0  0  0  0  0  0  0  0  0
   59.9150   29.1300   49.1660 N   0  0  0  0  0  0  0  0  0  0  0  0
   59.9190   28.2220   48.0430 C   0  0  0  0  0  0  0  0  0  0  0  0
   60.8120   27.3350   47.9520 O   0  0  0  0  0  0  0  0  0  0  0  0
   58.9030   28.3570   46.9370 C   0  0  0  0  0  0  0  0  0  0  0  0
   58.9270   29.6790   46.1820 C   0  0  0  0  0  0  0  0  0  0  0  0
   59.4950   28.4230   45.5400 C   0  0  0  0  0  0  0  0  0  0  0  0
   58.7240   29.9380   49.4620 C   0  0  0  0  0  0  0  0  0  0  0  0
   58.8510   30.6450   50.8230 C   0  0  0  0  0  0  0  0  0  0  0  0
   58.5120   32.8560   48.6240 N   0  0  0  0  0  0  0  0  0  0  0  0
   58.5560   33.3800   47.3910 C   0  0  0  0  0  0  0  0  0  0  0  0
   57.5280   33.4190   46.4540 C   0  0  0  0  0  0  0  0  0  0  0  0
   57.7680   34.0960   45.2460 C   0  0  0  0  0  0  0  0  0  0  0  0
   59.0120   34.7220   45.0150 C   0  0  0  0  0  0  0  0  0  0  0  0
   60.0290   34.6660   45.9850 C   0  0  0  0  0  0  0  0  0  0  0  0
   59.7690   33.9580   47.1630 C   0  0  0  0  0  0  0  0  0  0  0  0
   61.3850   30.8077   48.0099 H   0  0  0  0  0  0  0  0  0  0  0  0
   61.2187   31.7940   46.5179 H   0  0  0  0  0  0  0  0  0  0  0  0
   62.2664   30.3349   46.5179 H   0  0  0  0  0  0  0  0  0  0  0  0
   63.2978   31.8519   48.6178 H   0  0  0  0  0  0  0  0  0  0  0  0
   63.9543   31.7569   46.9182 H   0  0  0  0  0  0  0  0  0  0  0  0
   63.8447   34.0478   47.3936 H   0  0  0  0  0  0  0  0  0  0  0  0
   62.3521   33.6486   46.3905 H   0  0  0  0  0  0  0  0  0  0  0  0
   62.2952   33.9411   49.4095 H   0  0  0  0  0  0  0  0  0  0  0  0
   61.9927   35.3029   48.2525 H   0  0  0  0  0  0  0  0  0  0  0  0
   61.0237   33.2946   50.8250 H   0  0  0  0  0  0  0  0  0  0  0  0
   59.2085   33.2478   51.1567 H   0  0  0  0  0  0  0  0  0  0  0  0
   60.3030   31.4050   52.0090 H   0  0  0  0  0  0  0  0  0  0  0  0
   61.6156   31.2453   49.4766 H   0  0  0  0  0  0  0  0  0  0  0  0
   62.1127   30.7383   51.1604 H   0  0  0  0  0  0  0  0  0  0  0  0
   61.9674   28.8350   49.5296 H   0  0  0  0  0  0  0  0  0  0  0  0
   60.9026   28.6679   50.9666 H   0  0  0  0  0  0  0  0  0  0  0  0
   58.1212   27.7615   47.4312 H   0  0  0  0  0  0  0  0  0  0  0  0
   57.9899   30.1144   45.8047 H   0  0  0  0  0  0  0  0  0  0  0  0
   59.3111   30.6883   46.3913 H   0  0  0  0  0  0  0  0  0  0  0  0
   58.9691   27.9505   44.6973 H   0  0  0  0  0  0  0  0  0  0  0  0
   60.4612   28.1483   45.0917 H   0  0  0  0  0  0  0  0  0  0  0  0
   58.6008   30.6962   48.6746 H   0  0  0  0  0  0  0  0  0  0  0  0
   57.8515   29.2692   49.4987 H   0  0  0  0  0  0  0  0  0  0  0  0
   58.0167   31.3540   50.9290 H   0  0  0  0  0  0  0  0  0  0  0  0
   58.8304   29.8676   51.6010 H   0  0  0  0  0  0  0  0  0  0  0  0
   56.5598   32.9360   46.6522 H   0  0  0  0  0  0  0  0  0  0  0  0
   56.9827   34.1383   44.4769 H   0  0  0  0  0  0  0  0  0  0  0  0
   59.1872   35.2572   44.0701 H   0  0  0  0  0  0  0  0  0  0  0  0
   60.9970   35.1626   45.8226 H   0  0  0  0  0  0  0  0  0  0  0  0
  1  2  1  0
  2  3  1  0
  3  4  1  0
  4  5  1  0
  5  6  1  0
  6  7  1  0
  7  8  1  0
  8  9  1  0
  9 10  1  0
 10 11  1  0
 11 12  1  0
 12 13  2  0
 12 14  1  0
 14 15  1  0
 15 16  1  0
 11 17  1  0
 17 18  1  0
  6 19  2  0
 19 20  1  0
 20 21  2  0
 21 22  1  0
 22 23  2  0
 23 24  1  0
 24 25  2  0
 25  5  1  0
 18  8  1  0
 25 20  1  0
 16 14  1  0
  1 26  1  0
  1 27  1  0
  1 28  1  0
  2 29  1  0
  2 30  1  0
  3 31  1  0
  3 32  1  0
  4 33  1  0
  4 34  1  0
  7 35  1  0
  7 36  1  0
  8 37  1  0
  9 38  1  0
  9 39  1  0
 10 40  1  0
 10 41  1  0
 14 42  1  0
 15 43  1  0
 15 44  1  0
 16 45  1  0
 16 46  1  0
 17 47  1  0
 17 48  1  0
 18 49  1  0
 18 50  1  0
 21 51  1  0
 22 52  1  0
 23 53  1  0
 24 54  1  0
M  CHG  1   8   1
M  END
>  <UniqueID>  (13) 
11

>  <SMILES>  (13) 
CCCCn1c(C[NH+]2CCN(C(=O)C3CC3)CC2)nc2ccccc21

>  <Energy>  (13) 
366.1390774120273

>  <Genealogy>  (13) 
CCCCn1c(C[NH+]2CCN(C(=O)C3CC3)CC2)nc2ccccc21 (protonated)
CCCCn1c(C[NH+]2CCN(C(=O)C3CC3)CC2)nc2ccccc21 (3D coordinates assigned)
CCCCn1c(C[NH+]2CCN(C(=O)C3CC3)CC2)nc2ccccc21 (nonaromatic ring conformer: 366.1390774120273 kcal/mol)

>  <smiles>  (13) 
CCCCn1c(CN2CCN(C(=O)C3CC3)CC2)nc2ccccc21

>  <score_type>  (13) 
oracle

>  <origin>  (13) 
adg

>  <m_score__min__energy>  (13) 
-5.7599999999999998

>  <m_primary>  (13) 
energy

$$$$
13:0
     RDKit          3D

 36 38  0  0  1  0  0  0  0  0999 V2000
   60.7590   26.7440   48.8900 C   0  0  0  0  0  0  0  0  0  0  0  0
   60.0380   26.6350   47.7040 O   0  0  0  0  0  0  0  0  0  0  0  0
   59.2730   27.6280   47.1230 C   0  0  0  0  0  0  0  0  0  0  0  0
   58.4220   27.2280   46.0920 C   0  0  0  0  0  0  0  0  0  0  0  0
   57.6360   28.1670   45.4750 C   0  0  0  0  0  0  0  0  0  0  0  0
   57.6580   29.4960   45.8410 C   0  0  0  0  0  0  0  0  0  0  0  0
   56.8460   30.4200   45.1910 O   0  0  0  0  0  0  0  0  0  0  0  0
   56.7550   30.4960   43.7840 C   0  0  0  0  0  0  0  0  0  0  0  0
   58.5170   29.8980   46.8800 C   0  0  0  0  0  0  0  0  0  0  0  0
   58.5330   31.2000   47.3040 N   0  0  0  0  0  0  0  0  0  0  0  0
   59.0950   32.2310   46.8660 C   0  0  0  0  0  0  0  0  0  0  0  0
   60.4170   32.4590   47.1870 C   0  0  0  0  0  0  0  0  0  0  0  0
   61.0680   33.5810   46.7240 C   0  0  0  0  0  0  0  0  0  0  0  0
   62.4890   33.8220   47.0710 C   0  0  0  0  0  0  0  0  0  0  0  0
   60.3630   34.4260   45.9570 N   0  0  0  0  0  0  0  0  0  0  0  0
   59.0830   34.1690   45.6690 C   0  0  0  0  0  0  0  0  0  0  0  0
   58.2160   34.8840   44.9270 N   0  0  0  0  0  0  0  0  0  0  0  0
   57.0460   34.2150   44.9300 C   0  0  0  0  0  0  0  0  0  0  0  0
   57.1850   33.0730   45.6820 N   0  0  0  0  0  0  0  0  0  0  0  0
   58.4070   33.0800   46.1040 N   0  0  0  0  0  0  0  0  0  0  0  0
   59.3290   28.9460   47.5210 C   0  0  0  0  0  0  0  0  0  0  0  0
   60.0753   26.6406   49.7455 H   0  0  0  0  0  0  0  0  0  0  0  0
   61.5199   25.9507   48.9308 H   0  0  0  0  0  0  0  0  0  0  0  0
   61.2514   27.7268   48.9308 H   0  0  0  0  0  0  0  0  0  0  0  0
   58.3823   26.1743   45.7787 H   0  0  0  0  0  0  0  0  0  0  0  0
   56.9665   27.8497   44.6620 H   0  0  0  0  0  0  0  0  0  0  0  0
   55.9382   31.1782   43.5057 H   0  0  0  0  0  0  0  0  0  0  0  0
   57.7037   30.8739   43.3751 H   0  0  0  0  0  0  0  0  0  0  0  0
   56.5522   29.4952   43.3751 H   0  0  0  0  0  0  0  0  0  0  0  0
   60.9564   31.7379   47.8187 H   0  0  0  0  0  0  0  0  0  0  0  0
   62.6011   33.8410   48.1651 H   0  0  0  0  0  0  0  0  0  0  0  0
   63.1103   33.0164   46.6527 H   0  0  0  0  0  0  0  0  0  0  0  0
   62.8100   34.7874   46.6527 H   0  0  0  0  0  0  0  0  0  0  0  0
   56.1278   34.5319   44.4138 H   0  0  0  0  0  0  0  0  0  0  0  0
   56.3620   32.4560   45.7740 H   0  0  0  0  0  0  0  0  0  0  0  0
   60.0040   29.2510   48.3342 H   0  0  0  0  0  0  0  0  0  0  0  0
  1  2  1  0
  2  3  1  0
  3  4  2  0
  4  5  1  0
  5  6  2  0
  6  7  1  0
  7  8  1  0
  6  9  1  0
  9 10  1  0
 10 11  2  0
 11 12  1  0
 12 13  2  0
 13 14  1  0
 13 15  1  0
 15 16  2  0
 16 17  1  0
 17 18  2  0
 18 19  1  0
 19 20  1  0
  9 21  2  0
 21  3  1  0
 20 11  1  0
 20 16  1  0
  1 22  1  0
  1 23  1  0
  1 24  1  0
  4 25  1  0
  5 26  1  0
  8 27  1  0
  8 28  1  0
  8 29  1  0
 12 30  1  0
 14 31  1  0
 14 32  1  0
 14 33  1  0
 18 34  1  0
 19 35  1  0
 21 36  1  0
M  END
>  <smiles>  (14) 
COc1ccc(OC)c(N=c2cc(C)nc3nc[nH]n23)c1

>  <score_type>  (14) 
oracle

>  <origin>  (14) 
adg

>  <m_score__min__energy>  (14) 
-6.5499999999999998

>  <m_primary>  (14) 
energy

$$$$
14:0
     RDKit          3D

 56 59  0  0  0  0  0  0  0  0999 V2000
   56.6780   20.9670   42.9880 C   0  0  0  0  0  0  0  0  0  0  0  0
   55.9730   22.1650   43.3000 O   0  0  0  0  0  0  0  0  0  0  0  0
   56.4850   23.1990   44.0980 C   0  0  0  0  0  0  0  0  0  0  0  0
   56.4770   23.1410   45.5050 C   0  0  0  0  0  0  0  0  0  0  0  0
   56.9970   24.1980   46.2560 C   0  0  0  0  0  0  0  0  0  0  0  0
   57.5360   25.3260   45.6170 C   0  0  0  0  0  0  0  0  0  0  0  0
   58.0810   26.4660   46.4360 C   0  0  0  0  0  0  0  0  0  0  0  0
   59.4060   26.1040   46.9890 N   0  0  0  0  0  0  0  0  0  0  0  0
   60.5030   26.3730   46.0370 C   0  0  0  0  0  0  0  0  0  0  0  0
   60.7390   27.8840   45.8190 C   0  0  0  0  0  0  0  0  0  0  0  0
   60.1620   28.6910   46.9120 N   0  0  0  0  0  0  0  0  0  0  0  0
   60.5210   30.1270   46.8510 C   0  0  0  0  0  0  0  0  0  0  0  0
   59.4550   31.0120   46.2100 C   0  0  0  0  0  0  0  0  0  0  0  0
   58.3440   30.3710   45.6300 C   0  0  0  0  0  0  0  0  0  0  0  0
   57.3110   31.1030   45.0250 C   0  0  0  0  0  0  0  0  0  0  0  0
   56.1850   30.4870   44.4550 O   0  0  0  0  0  0  0  0  0  0  0  0
   56.2050   29.7380   43.2440 C   0  0  0  0  0  0  0  0  0  0  0  0
   57.3920   32.4930   44.9820 C   0  0  0  0  0  0  0  0  0  0  0  0
   58.4900   33.1650   45.5310 C   0  0  0  0  0  0  0  0  0  0  0  0
   58.5490   34.5660   45.4640 C   0  0  0  0  0  0  0  0  0  0  0  0
   59.6360   35.2530   46.0000 C   0  0  0  0  0  0  0  0  0  0  0  0
   60.6730   34.5500   46.6090 C   0  0  0  0  0  0  0  0  0  0  0  0
   60.6330   33.1560   46.6860 C   0  0  0  0  0  0  0  0  0  0  0  0
   59.5410   32.4330   46.1520 C   0  0  0  0  0  0  0  0  0  0  0  0
   60.4040   28.0720   48.2240 C   0  0  0  0  0  0  0  0  0  0  0  0
   59.6630   26.7220   48.3130 C   0  0  0  0  0  0  0  0  0  0  0  0
   57.5410   25.3840   44.2160 C   0  0  0  0  0  0  0  0  0  0  0  0
   57.0190   24.3270   43.4640 C   0  0  0  0  0  0  0  0  0  0  0  0
   56.9746   20.4629   43.9196 H   0  0  0  0  0  0  0  0  0  0  0  0
   56.0278   20.3010   42.4017 H   0  0  0  0  0  0  0  0  0  0  0  0
   57.5759   21.2121   42.4017 H   0  0  0  0  0  0  0  0  0  0  0  0
   56.0597   22.2600   46.0147 H   0  0  0  0  0  0  0  0  0  0  0  0
   56.9841   24.1462   47.3547 H   0  0  0  0  0  0  0  0  0  0  0  0
   58.1833   27.3564   45.7983 H   0  0  0  0  0  0  0  0  0  0  0  0
   57.3895   26.6782   47.2647 H   0  0  0  0  0  0  0  0  0  0  0  0
   61.4279   25.9242   46.4284 H   0  0  0  0  0  0  0  0  0  0  0  0
   60.2200   25.9354   45.0683 H   0  0  0  0  0  0  0  0  0  0  0  0
   61.8217   28.0721   45.7705 H   0  0  0  0  0  0  0  0  0  0  0  0
   60.2452   28.1758   44.8804 H   0  0  0  0  0  0  0  0  0  0  0  0
   60.6936   30.4833   47.8773 H   0  0  0  0  0  0  0  0  0  0  0  0
   61.4170   30.2021   46.2173 H   0  0  0  0  0  0  0  0  0  0  0  0
   58.2844   29.2728   45.6515 H   0  0  0  0  0  0  0  0  0  0  0  0
   56.2337   28.6635   43.4779 H   0  0  0  0  0  0  0  0  0  0  0  0
   55.3006   29.9620   42.6594 H   0  0  0  0  0  0  0  0  0  0  0  0
   57.0962   30.0099   42.6594 H   0  0  0  0  0  0  0  0  0  0  0  0
   56.5826   33.0698   44.5105 H   0  0  0  0  0  0  0  0  0  0  0  0
   57.7316   35.1250   44.9851 H   0  0  0  0  0  0  0  0  0  0  0  0
   59.6754   36.3508   45.9423 H   0  0  0  0  0  0  0  0  0  0  0  0
   61.5289   35.0963   47.0320 H   0  0  0  0  0  0  0  0  0  0  0  0
   61.4604   32.6142   47.1675 H   0  0  0  0  0  0  0  0  0  0  0  0
   61.4833   27.9048   48.3548 H   0  0  0  0  0  0  0  0  0  0  0  0
   60.0327   28.7414   49.0140 H   0  0  0  0  0  0  0  0  0  0  0  0
   60.2730   26.0278   48.9096 H   0  0  0  0  0  0  0  0  0  0  0  0
   58.6846   26.9179   48.7760 H   0  0  0  0  0  0  0  0  0  0  0  0
   57.9575   26.2652   43.7061 H   0  0  0  0  0  0  0  0  0  0  0  0
   57.0281   24.3823   42.3654 H   0  0  0  0  0  0  0  0  0  0  0  0
  1  2  1  0
  2  3  1  0
  3  4  2  0
  4  5  1  0
  5  6  2  0
  6  7  1  0
  7  8  1  0
  8  9  1  0
  9 10  1  0
 10 11  1  0
 11 12  1  0
 12 13  1  0
 13 14  2  0
 14 15  1  0
 15 16  1  0
 16 17  1  0
 15 18  2  0
 18 19  1  0
 19 20  2  0
 20 21  1  0
 21 22  2  0
 22 23  1  0
 23 24  2  0
 11 25  1  0
 25 26  1  0
  6 27  1  0
 27 28  2  0
 28  3  1  0
 26  8  1  0
 24 13  1  0
 24 19  1  0
  1 29  1  0
  1 30  1  0
  1 31  1  0
  4 32  1  0
  5 33  1  0
  7 34  1  0
  7 35  1  0
  9 36  1  0
  9 37  1  0
 10 38  1  0
 10 39  1  0
 12 40  1  0
 12 41  1  0
 14 42  1  0
 17 43  1  0
 17 44  1  0
 17 45  1  0
 18 46  1  0
 20 47  1  0
 21 48  1  0
 22 49  1  0
 23 50  1  0
 25 51  1  0
 25 52  1  0
 26 53  1  0
 26 54  1  0
 27 55  1  0
 28 56  1  0
M  END
>  <UniqueID>  (15) 
12

>  <SMILES>  (15) 
COc1ccc(CN2CCN(Cc3cc(OC)cc4ccccc34)CC2)cc1

>  <Energy>  (15) 
78.45246707582947

>  <Genealogy>  (15) 
COc1ccc(CN2CCN(Cc3cc(OC)cc4ccccc34)CC2)cc1 (3D coordinates assigned)
COc1ccc(CN2CCN(Cc3cc(OC)cc4ccccc34)CC2)cc1 (nonaromatic ring conformer: 78.45246707582947 kcal/mol)

>  <smiles>  (15) 
COc1ccc(CN2CCN(Cc3cc(OC)cc4ccccc34)CC2)cc1

>  <score_type>  (15) 
oracle

>  <origin>  (15) 
adg

>  <m_score__min__energy>  (15) 
-8.6600000000000001

>  <m_primary>  (15) 
energy

$$$$
15:0
     RDKit          3D

 46 48  0  0  0  0  0  0  0  0999 V2000
   64.7070   30.9590   51.2030 C   0  0  0  0  0  0  0  0  0  0  0  0
   65.7270   31.9740   50.6870 C   0  0  0  0  0  0  0  0  0  0  0  0
   65.1640   33.4010   50.6500 C   0  0  0  0  0  0  0  0  0  0  0  0
   63.7240   33.4270   50.2150 C   0  0  0  0  0  0  0  0  0  0  0  0
   62.7340   33.5910   51.1390 N   0  0  0  0  0  0  0  0  0  0  0  0
   61.4350   33.6500   50.8020 N   0  0  0  0  0  0  0  0  0  0  0  0
   60.4460   33.8210   51.8660 C   0  0  0  0  0  0  0  0  0  0  0  0
   61.0390   33.5530   49.4890 C   0  0  0  0  0  0  0  0  0  0  0  0
   59.8190   33.5980   49.1850 O   0  0  0  0  0  0  0  0  0  0  0  0
   62.0310   33.3960   48.5130 C   0  0  0  0  0  0  0  0  0  0  0  0
   63.3410   33.3330   48.8810 C   0  0  0  0  0  0  0  0  0  0  0  0
   64.1150   33.1870   47.7940 N   0  0  0  0  0  0  0  0  0  0  0  0
   63.2430   33.1640   46.7610 C   0  0  0  0  0  0  0  0  0  0  0  0
   61.9500   33.2870   47.1620 N   0  0  0  0  0  0  0  0  0  0  0  0
   60.7960   33.3450   46.2450 C   0  0  0  0  0  0  0  0  0  0  0  0
   59.8210   32.1540   46.4850 C   0  0  0  0  0  0  0  0  0  0  0  0
   58.7230   31.9590   45.4200 C   0  0  0  0  0  0  0  0  0  0  0  0
   57.4230   32.7350   45.6910 C   0  0  0  0  0  0  0  0  0  0  0  0
   57.5960   34.2110   46.0750 C   0  0  0  0  0  0  0  0  0  0  0  0
   58.8360   34.8940   45.4670 C   0  0  0  0  0  0  0  0  0  0  0  0
   60.1590   34.7570   46.2630 C   0  0  0  0  0  0  0  0  0  0  0  0
   64.7105   30.9625   52.3030 H   0  0  0  0  0  0  0  0  0  0  0  0
   63.7048   31.2287   50.8387 H   0  0  0  0  0  0  0  0  0  0  0  0
   64.9718   29.9554   50.8387 H   0  0  0  0  0  0  0  0  0  0  0  0
   66.6065   31.9581   51.3475 H   0  0  0  0  0  0  0  0  0  0  0  0
   65.9913   31.6906   49.6575 H   0  0  0  0  0  0  0  0  0  0  0  0
   65.2391   33.8387   51.6564 H   0  0  0  0  0  0  0  0  0  0  0  0
   65.7501   33.9790   49.9203 H   0  0  0  0  0  0  0  0  0  0  0  0
   60.9415   33.7353   52.8444 H   0  0  0  0  0  0  0  0  0  0  0  0
   59.9794   34.8131   51.7769 H   0  0  0  0  0  0  0  0  0  0  0  0
   59.6734   33.0431   51.7769 H   0  0  0  0  0  0  0  0  0  0  0  0
   65.1550   33.1140   47.7420 H   0  0  0  0  0  0  0  0  0  0  0  0
   63.5471   33.0572   45.7093 H   0  0  0  0  0  0  0  0  0  0  0  0
   61.1318   33.2032   45.2072 H   0  0  0  0  0  0  0  0  0  0  0  0
   60.4189   31.2316   46.5258 H   0  0  0  0  0  0  0  0  0  0  0  0
   59.2911   32.3862   47.4206 H   0  0  0  0  0  0  0  0  0  0  0  0
   59.1235   32.2887   44.4500 H   0  0  0  0  0  0  0  0  0  0  0  0
   58.4582   30.8915   45.4372 H   0  0  0  0  0  0  0  0  0  0  0  0
   56.8081   32.6928   44.7799 H   0  0  0  0  0  0  0  0  0  0  0  0
   56.9613   32.2505   46.5640 H   0  0  0  0  0  0  0  0  0  0  0  0
   56.7036   34.7592   45.7388 H   0  0  0  0  0  0  0  0  0  0  0  0
   57.7328   34.2338   47.1662 H   0  0  0  0  0  0  0  0  0  0  0  0
   59.0000   34.4622   44.4687 H   0  0  0  0  0  0  0  0  0  0  0  0
   58.6058   35.9697   45.4663 H   0  0  0  0  0  0  0  0  0  0  0  0
   60.8866   35.4641   45.8381 H   0  0  0  0  0  0  0  0  0  0  0  0
   59.9064   34.9647   47.3133 H   0  0  0  0  0  0  0  0  0  0  0  0
  1  2  1  0
  2  3  1  0
  3  4  1  0
  4  5  2  0
  5  6  1  0
  6  7  1  0
  6  8  1  0
  8  9  2  0
  8 10  1  0
 10 11  2  0
 11 12  1  0
 12 13  2  0
 13 14  1  0
 14 15  1  0
 15 16  1  0
 16 17  1  0
 17 18  1  0
 18 19  1  0
 19 20  1  0
 20 21  1  0
 11  4  1  0
 21 15  1  0
 14 10  1  0
  1 22  1  0
  1 23  1  0
  1 24  1  0
  2 25  1  0
  2 26  1  0
  3 27  1  0
  3 28  1  0
  7 29  1  0
  7 30  1  0
  7 31  1  0
 12 32  1  0
 13 33  1  0
 15 34  1  0
 16 35  1  0
 16 36  1  0
 17 37  1  0
 17 38  1  0
 18 39  1  0
 18 40  1  0
 19 41  1  0
 19 42  1  0
 20 43  1  0
 20 44  1  0
 21 45  1  0
 21 46  1  0
M  CHG  1  12   1
M  END
>  <UniqueID>  (16) 
13

>  <SMILES>  (16) 
CCCc1nn(C)c(=O)c2c1[nH+]cn2C1CCCCCC1

>  <Energy>  (16) 
93.53004818556161

>  <Genealogy>  (16) 
CCCc1nn(C)c(=O)c2c1[nH+]cn2C1CCCCCC1 (protonated)
CCCc1nn(C)c(=O)c2c1[nH+]cn2C1CCCCCC1 (3D coordinates assigned)
CCCc1nn(C)c(=O)c2c1[nH+]cn2C1CCCCCC1 (nonaromatic ring conformer: 93.53004818556161 kcal/mol)

>  <smiles>  (16) 
CCCc1nn(C)c(=O)c2c1ncn2C1CCCCCC1

>  <score_type>  (16) 
oracle

>  <origin>  (16) 
adg

>  <m_score__min__energy>  (16) 
-3.7200000000000002

>  <m_primary>  (16) 
energy

$$$$
16:0
     RDKit          3D

 48 52  0  0  0  0  0  0  0  0999 V2000
   64.1300   33.1110   46.7370 C   0  0  0  0  0  0  0  0  0  0  0  0
   63.5770   33.9900   47.7090 O   0  0  0  0  0  0  0  0  0  0  0  0
   62.4510   33.6300   48.4590 C   0  0  0  0  0  0  0  0  0  0  0  0
   62.5840   33.3830   49.8310 C   0  0  0  0  0  0  0  0  0  0  0  0
   63.8820   33.5160   50.5030 C   0  0  0  0  0  0  0  0  0  0  0  0
   64.0360   34.4230   51.5640 C   0  0  0  0  0  0  0  0  0  0  0  0
   65.2800   34.5630   52.1900 C   0  0  0  0  0  0  0  0  0  0  0  0
   66.3730   33.8040   51.7530 C   0  0  0  0  0  0  0  0  0  0  0  0
   66.2230   32.9010   50.6930 C   0  0  0  0  0  0  0  0  0  0  0  0
   64.9800   32.7580   50.0680 C   0  0  0  0  0  0  0  0  0  0  0  0
   61.5050   33.0080   50.5600 N   0  0  0  0  0  0  0  0  0  0  0  0
   60.2660   32.8620   50.0230 C   0  0  0  0  0  0  0  0  0  0  0  0
   59.1960   32.4210   50.9350 C   0  0  0  0  0  0  0  0  0  0  0  0
   58.6860   31.1190   50.8580 C   0  0  0  0  0  0  0  0  0  0  0  0
   57.6900   30.7120   51.7480 C   0  0  0  0  0  0  0  0  0  0  0  0
   57.2240   31.6100   52.7130 C   0  0  0  0  0  0  0  0  0  0  0  0
   57.7410   32.8670   52.7840 N   0  0  0  0  0  0  0  0  0  0  0  0
   58.7130   33.2850   51.9280 C   0  0  0  0  0  0  0  0  0  0  0  0
   60.0570   33.1360   48.6400 C   0  0  0  0  0  0  0  0  0  0  0  0
   58.7870   33.0630   48.0030 C   0  0  0  0  0  0  0  0  0  0  0  0
   57.7650   32.7150   48.6560 O   0  0  0  0  0  0  0  0  0  0  0  0
   58.6580   33.3740   46.6720 N   0  0  0  0  0  0  0  0  0  0  0  0
   57.3530   33.2420   46.0000 C   0  0  0  0  0  0  0  0  0  0  0  0
   57.1110   34.2670   44.8970 C   0  0  0  0  0  0  0  0  0  0  0  0
   57.4260   32.8280   44.5330 C   0  0  0  0  0  0  0  0  0  0  0  0
   59.7500   33.7010   45.9220 C   0  0  0  0  0  0  0  0  0  0  0  0
   61.0080   33.8030   46.5010 C   0  0  0  0  0  0  0  0  0  0  0  0
   61.1800   33.5240   47.8620 C   0  0  0  0  0  0  0  0  0  0  0  0
   64.6499   32.2846   47.2436 H   0  0  0  0  0  0  0  0  0  0  0  0
   63.3236   32.7061   46.1079 H   0  0  0  0  0  0  0  0  0  0  0  0
   64.8441   33.6626   46.1079 H   0  0  0  0  0  0  0  0  0  0  0  0
   63.1790   35.0234   51.9031 H   0  0  0  0  0  0  0  0  0  0  0  0
   65.3992   35.2690   53.0251 H   0  0  0  0  0  0  0  0  0  0  0  0
   67.3511   33.9174   52.2433 H   0  0  0  0  0  0  0  0  0  0  0  0
   67.0822   32.3046   50.3523 H   0  0  0  0  0  0  0  0  0  0  0  0
   64.8629   32.0502   49.2341 H   0  0  0  0  0  0  0  0  0  0  0  0
   59.0684   30.4199   50.0997 H   0  0  0  0  0  0  0  0  0  0  0  0
   57.2759   29.6945   51.6904 H   0  0  0  0  0  0  0  0  0  0  0  0
   56.4375   31.2998   53.4167 H   0  0  0  0  0  0  0  0  0  0  0  0
   57.3860   33.5250   53.5140 H   0  0  0  0  0  0  0  0  0  0  0  0
   59.1206   34.3030   52.0154 H   0  0  0  0  0  0  0  0  0  0  0  0
   56.7972   32.8901   46.8816 H   0  0  0  0  0  0  0  0  0  0  0  0
   56.0999   34.6670   44.7309 H   0  0  0  0  0  0  0  0  0  0  0  0
   57.5415   35.2456   44.6382 H   0  0  0  0  0  0  0  0  0  0  0  0
   56.6430   32.1857   44.1036 H   0  0  0  0  0  0  0  0  0  0  0  0
   58.1789   32.3332   43.9019 H   0  0  0  0  0  0  0  0  0  0  0  0
   59.6322   33.8863   44.8441 H   0  0  0  0  0  0  0  0  0  0  0  0
   61.8712   34.1037   45.8890 H   0  0  0  0  0  0  0  0  0  0  0  0
  1  2  1  0
  2  3  1  0
  3  4  2  0
  4  5  1  0
  5  6  2  0
  6  7  1  0
  7  8  2  0
  8  9  1  0
  9 10  2  0
  4 11  1  0
 11 12  2  0
 12 13  1  0
 13 14  2  0
 14 15  1  0
 15 16  2  0
 16 17  1  0
 17 18  2  0
 12 19  1  0
 19 20  1  0
 20 21  2  0
 20 22  1  0
 22 23  1  0
 23 24  1  0
 24 25  1  0
 22 26  1  0
 26 27  2  0
 27 28  1  0
 28  3  1  0
 10  5  1  0
 18 13  1  0
 28 19  2  0
 25 23  1  0
  1 29  1  0
  1 30  1  0
  1 31  1  0
  6 32  1  0
  7 33  1  0
  8 34  1  0
  9 35  1  0
 10 36  1  0
 14 37  1  0
 15 38  1  0
 16 39  1  0
 17 40  1  0
 18 41  1  0
 23 42  1  0
 24 43  1  0
 24 44  1  0
 25 45  1  0
 25 46  1  0
 26 47  1  0
 27 48  1  0
M  CHG  1  17   1
M  END
>  <UniqueID>  (17) 
14

>  <SMILES>  (17) 
COc1c(-c2ccccc2)nc(-c2ccc[nH+]c2)c2c(=O)n(C3CC3)ccc12

>  <Energy>  (17) 
351.61468520292374

>  <Genealogy>  (17) 
COc1c(-c2ccccc2)nc(-c2ccc[nH+]c2)c2c(=O)n(C3CC3)ccc12 (protonated)
COc1c(-c2ccccc2)nc(-c2ccc[nH+]c2)c2c(=O)n(C3CC3)ccc12 (3D coordinates assigned)
COc1c(-c2ccccc2)nc(-c2ccc[nH+]c2)c2c(=O)n(C3CC3)ccc12 (nonaromatic ring conformer: 351.61468520292374 kcal/mol)

>  <smiles>  (17) 
COc1c(-c2ccccc2)nc(-c2cccnc2)c2c(=O)n(C3CC3)ccc12

>  <score_type>  (17) 
oracle

>  <origin>  (17) 
adg

>  <m_score__min__energy>  (17) 
-6.1699999999999999

>  <m_primary>  (17) 
energy

$$$$
17:0
     RDKit          3D

 57 60  0  0  0  0  0  0  0  0999 V2000
   57.7120   27.2150   45.9310 C   0  0  0  0  0  0  0  0  0  0  0  0
   56.9010   28.3750   45.7760 O   0  0  0  0  0  0  0  0  0  0  0  0
   57.0840   29.3520   44.7850 C   0  0  0  0  0  0  0  0  0  0  0  0
   56.2910   29.3830   43.6200 C   0  0  0  0  0  0  0  0  0  0  0  0
   56.4720   30.3860   42.6660 C   0  0  0  0  0  0  0  0  0  0  0  0
   57.4430   31.3680   42.8590 C   0  0  0  0  0  0  0  0  0  0  0  0
   58.2390   31.3480   44.0050 C   0  0  0  0  0  0  0  0  0  0  0  0
   58.0760   30.3400   44.9720 C   0  0  0  0  0  0  0  0  0  0  0  0
   58.9170   30.3320   46.1430 N   0  0  0  0  0  0  0  0  0  0  0  0
   60.2360   29.6910   46.1160 C   0  0  0  0  0  0  0  0  0  0  0  0
   61.2230   30.5130   46.9540 C   0  0  0  0  0  0  0  0  0  0  0  0
   60.7490   30.7830   48.3420 N   0  0  0  0  0  0  0  0  0  0  0  0
   61.5870   30.1300   49.3780 C   0  0  0  0  0  0  0  0  0  0  0  0
   62.1290   31.1630   50.3760 C   0  0  0  0  0  0  0  0  0  0  0  0
   63.3100   31.9700   49.8190 C   0  0  0  0  0  0  0  0  0  0  0  0
   62.9550   33.4490   49.6030 C   0  0  0  0  0  0  0  0  0  0  0  0
   62.0790   33.6310   48.4310 N   0  0  0  0  0  0  0  0  0  0  0  0
   62.6500   33.6870   47.1900 C   0  0  0  0  0  0  0  0  0  0  0  0
   61.8870   33.8660   46.0830 N   0  0  0  0  0  0  0  0  0  0  0  0
   60.5410   33.9980   46.1690 C   0  0  0  0  0  0  0  0  0  0  0  0
   59.7780   34.1830   45.0100 C   0  0  0  0  0  0  0  0  0  0  0  0
   58.3900   34.3210   45.1000 C   0  0  0  0  0  0  0  0  0  0  0  0
   57.7600   34.2740   46.3470 C   0  0  0  0  0  0  0  0  0  0  0  0
   58.5140   34.0880   47.5100 C   0  0  0  0  0  0  0  0  0  0  0  0
   59.9130   33.9480   47.4300 C   0  0  0  0  0  0  0  0  0  0  0  0
   60.7190   33.7610   48.5680 C   0  0  0  0  0  0  0  0  0  0  0  0
   60.1860   33.7180   49.7120 O   0  0  0  0  0  0  0  0  0  0  0  0
   59.3110   30.5090   48.5660 C   0  0  0  0  0  0  0  0  0  0  0  0
   58.4560   30.9690   47.3810 C   0  0  0  0  0  0  0  0  0  0  0  0
   57.8562   27.0088   47.0018 H   0  0  0  0  0  0  0  0  0  0  0  0
   57.2171   26.3554   45.4555 H   0  0  0  0  0  0  0  0  0  0  0  0
   58.6893   27.3846   45.4555 H   0  0  0  0  0  0  0  0  0  0  0  0
   55.5237   28.6110   43.4614 H   0  0  0  0  0  0  0  0  0  0  0  0
   55.8476   30.4017   41.7605 H   0  0  0  0  0  0  0  0  0  0  0  0
   57.5816   32.1590   42.1073 H   0  0  0  0  0  0  0  0  0  0  0  0
   59.0007   32.1276   44.1533 H   0  0  0  0  0  0  0  0  0  0  0  0
   60.1586   28.6758   46.5325 H   0  0  0  0  0  0  0  0  0  0  0  0
   60.5949   29.6358   45.0777 H   0  0  0  0  0  0  0  0  0  0  0  0
   62.1729   29.9614   47.0123 H   0  0  0  0  0  0  0  0  0  0  0  0
   61.3343   31.4876   46.4563 H   0  0  0  0  0  0  0  0  0  0  0  0
   60.9788   29.3907   49.9197 H   0  0  0  0  0  0  0  0  0  0  0  0
   62.4382   29.6393   48.8833 H   0  0  0  0  0  0  0  0  0  0  0  0
   61.3184   31.8602   50.6343 H   0  0  0  0  0  0  0  0  0  0  0  0
   62.4918   30.6123   51.2564 H   0  0  0  0  0  0  0  0  0  0  0  0
   64.1476   31.9073   50.5292 H   0  0  0  0  0  0  0  0  0  0  0  0
   63.5790   31.5422   48.8419 H   0  0  0  0  0  0  0  0  0  0  0  0
   62.4377   33.8263   50.4974 H   0  0  0  0  0  0  0  0  0  0  0  0
   63.8877   34.0044   49.4252 H   0  0  0  0  0  0  0  0  0  0  0  0
   63.7406   33.5857   47.0882 H   0  0  0  0  0  0  0  0  0  0  0  0
   60.2713   34.2198   44.0275 H   0  0  0  0  0  0  0  0  0  0  0  0
   57.7924   34.4668   44.1881 H   0  0  0  0  0  0  0  0  0  0  0  0
   56.6675   34.3837   46.4137 H   0  0  0  0  0  0  0  0  0  0  0  0
   58.0135   34.0510   48.4888 H   0  0  0  0  0  0  0  0  0  0  0  0
   59.1719   29.4270   48.7074 H   0  0  0  0  0  0  0  0  0  0  0  0
   58.9901   31.0672   49.4579 H   0  0  0  0  0  0  0  0  0  0  0  0
   57.4066   30.6932   47.5620 H   0  0  0  0  0  0  0  0  0  0  0  0
   58.5463   32.0603   47.2769 H   0  0  0  0  0  0  0  0  0  0  0  0
  1  2  1  0
  2  3  1  0
  3  4  2  0
  4  5  1  0
  5  6  2  0
  6  7  1  0
  7  8  2  0
  8  9  1  0
  9 10  1  0
 10 11  1  0
 11 12  1  0
 12 13  1  0
 13 14  1  0
 14 15  1  0
 15 16  1  0
 16 17  1  0
 17 18  1  0
 18 19  2  0
 19 20  1  0
 20 21  2  0
 21 22  1  0
 22 23  2  0
 23 24  1  0
 24 25  2  0
 25 26  1  0
 26 27  2  0
 12 28  1  0
 28 29  1  0
  8  3  1  0
 29  9  1  0
 26 17  1  0
 25 20  1  0
  1 30  1  0
  1 31  1  0
  1 32  1  0
  4 33  1  0
  5 34  1  0
  6 35  1  0
  7 36  1  0
 10 37  1  0
 10 38  1  0
 11 39  1  0
 11 40  1  0
 13 41  1  0
 13 42  1  0
 14 43  1  0
 14 44  1  0
 15 45  1  0
 15 46  1  0
 16 47  1  0
 16 48  1  0
 18 49  1  0
 21 50  1  0
 22 51  1  0
 23 52  1  0
 24 53  1  0
 28 54  1  0
 28 55  1  0
 29 56  1  0
 29 57  1  0
M  END
>  <UniqueID>  (18) 
15

>  <SMILES>  (18) 
COc1ccccc1N1CCN(CCCCn2cnc3ccccc3c2=O)CC1

>  <Energy>  (18) 
74.71245797417033

>  <Genealogy>  (18) 
COc1ccccc1N1CCN(CCCCn2cnc3ccccc3c2=O)CC1 (3D coordinates assigned)
COc1ccccc1N1CCN(CCCCn2cnc3ccccc3c2=O)CC1 (nonaromatic ring conformer: 74.71245797417033 kcal/mol)

>  <smiles>  (18) 
COc1ccccc1N1CCN(CCCCn2cnc3ccccc3c2=O)CC1

>  <score_type>  (18) 
oracle

>  <origin>  (18) 
adg

>  <m_score__min__energy>  (18) 
-8.4900000000000002

>  <m_primary>  (18) 
energy

$$$$
18:0
     RDKit          3D

 52 55  0  0  0  0  0  0  0  0999 V2000
   58.3190   30.3050   45.0140 C   0  0  0  0  0  0  0  0  0  0  0  0
   57.1130   31.1440   44.9210 N   0  0  0  0  0  0  0  0  0  0  0  0
   56.0520   30.4580   44.1670 C   0  0  0  0  0  0  0  0  0  0  0  0
   57.4020   32.5000   44.3970 C   0  0  0  0  0  0  0  0  0  0  0  0
   58.2420   33.3500   45.3290 C   0  0  0  0  0  0  0  0  0  0  0  0
   58.8300   34.5410   44.8710 C   0  0  0  0  0  0  0  0  0  0  0  0
   59.5960   35.3280   45.7360 C   0  0  0  0  0  0  0  0  0  0  0  0
   59.7800   34.9350   47.0630 C   0  0  0  0  0  0  0  0  0  0  0  0
   59.1960   33.7520   47.5340 C   0  0  0  0  0  0  0  0  0  0  0  0
   59.3870   33.3510   48.9320 C   0  0  0  0  0  0  0  0  0  0  0  0
   59.2880   34.2120   49.9730 N   0  0  0  0  0  0  0  0  0  0  0  0
   59.4550   33.4200   51.0540 C   0  0  0  0  0  0  0  0  0  0  0  0
   59.4350   33.8470   52.3800 C   0  0  0  0  0  0  0  0  0  0  0  0
   59.6070   32.8780   53.3810 C   0  0  0  0  0  0  0  0  0  0  0  0
   59.7830   31.5240   53.0380 C   0  0  0  0  0  0  0  0  0  0  0  0
   59.7880   31.1480   51.6870 C   0  0  0  0  0  0  0  0  0  0  0  0
   59.6340   32.1200   50.7470 N   0  0  0  0  0  0  0  0  0  0  0  0
   59.5950   32.0610   49.4040 C   0  0  0  0  0  0  0  0  0  0  0  0
   59.7240   30.8590   48.6160 N   0  0  0  0  0  0  0  0  0  0  0  0
   61.1260   30.4240   48.5060 C   0  0  0  0  0  0  0  0  0  0  0  0
   62.0720   31.5880   48.3290 C   0  0  0  0  0  0  0  0  0  0  0  0
   62.0940   32.3070   47.1210 C   0  0  0  0  0  0  0  0  0  0  0  0
   62.9370   33.4120   46.9760 C   0  0  0  0  0  0  0  0  0  0  0  0
   63.7620   33.8070   48.0330 C   0  0  0  0  0  0  0  0  0  0  0  0
   63.7450   33.0970   49.2370 C   0  0  0  0  0  0  0  0  0  0  0  0
   62.9020   31.9920   49.3870 C   0  0  0  0  0  0  0  0  0  0  0  0
   58.4440   32.9530   46.6610 C   0  0  0  0  0  0  0  0  0  0  0  0
   58.5656   30.1334   46.0722 H   0  0  0  0  0  0  0  0  0  0  0  0
   58.1334   29.3400   44.5197 H   0  0  0  0  0  0  0  0  0  0  0  0
   59.1592   30.8146   44.5197 H   0  0  0  0  0  0  0  0  0  0  0  0
   55.3413   29.9985   44.8697 H   0  0  0  0  0  0  0  0  0  0  0  0
   55.5231   31.1856   43.5338 H   0  0  0  0  0  0  0  0  0  0  0  0
   56.4984   29.6771   43.5338 H   0  0  0  0  0  0  0  0  0  0  0  0
   57.9401   32.3958   43.4433 H   0  0  0  0  0  0  0  0  0  0  0  0
   56.4350   33.0114   44.2813 H   0  0  0  0  0  0  0  0  0  0  0  0
   58.6869   34.8557   43.8267 H   0  0  0  0  0  0  0  0  0  0  0  0
   60.0546   36.2586   45.3704 H   0  0  0  0  0  0  0  0  0  0  0  0
   60.3850   35.5558   47.7403 H   0  0  0  0  0  0  0  0  0  0  0  0
   59.2894   34.9073   52.6339 H   0  0  0  0  0  0  0  0  0  0  0  0
   59.6042   33.1783   54.4392 H   0  0  0  0  0  0  0  0  0  0  0  0
   59.9157   30.7662   53.8243 H   0  0  0  0  0  0  0  0  0  0  0  0
   59.9131   30.0950   51.3947 H   0  0  0  0  0  0  0  0  0  0  0  0
   59.3590   31.0470   47.6530 H   0  0  0  0  0  0  0  0  0  0  0  0
   59.1390   30.0940   49.0240 H   0  0  0  0  0  0  0  0  0  0  0  0
   61.4010   29.8800   49.4216 H   0  0  0  0  0  0  0  0  0  0  0  0
   61.2115   29.7811   47.6176 H   0  0  0  0  0  0  0  0  0  0  0  0
   61.4457   31.9988   46.2875 H   0  0  0  0  0  0  0  0  0  0  0  0
   62.9514   33.9716   46.0291 H   0  0  0  0  0  0  0  0  0  0  0  0
   64.4250   34.6771   47.9173 H   0  0  0  0  0  0  0  0  0  0  0  0
   64.3958   33.4082   50.0675 H   0  0  0  0  0  0  0  0  0  0  0  0
   62.8889   31.4373   50.3368 H   0  0  0  0  0  0  0  0  0  0  0  0
   58.0094   32.0091   47.0217 H   0  0  0  0  0  0  0  0  0  0  0  0
  1  2  1  0
  2  3  1  0
  2  4  1  0
  4  5  1  0
  5  6  2  0
  6  7  1  0
  7  8  2  0
  8  9  1  0
  9 10  1  0
 10 11  1  0
 11 12  2  0
 12 13  1  0
 13 14  2  0
 14 15  1  0
 15 16  2  0
 16 17  1  0
 17 18  1  0
 18 19  1  0
 19 20  1  0
 20 21  1  0
 21 22  2  0
 22 23  1  0
 23 24  2  0
 24 25  1  0
 25 26  2  0
  9 27  2  0
 27  5  1  0
 18 10  2  0
 26 21  1  0
 17 12  1  0
  1 28  1  0
  1 29  1  0
  1 30  1  0
  3 31  1  0
  3 32  1  0
  3 33  1  0
  4 34  1  0
  4 35  1  0
  6 36  1  0
  7 37  1  0
  8 38  1  0
 13 39  1  0
 14 40  1  0
 15 41  1  0
 16 42  1  0
 19 43  1  0
 19 44  1  0
 20 45  1  0
 20 46  1  0
 22 47  1  0
 23 48  1  0
 24 49  1  0
 25 50  1  0
 26 51  1  0
 27 52  1  0
M  CHG  1  19   1
M  END
>  <UniqueID>  (19) 
16

>  <SMILES>  (19) 
CN(C)Cc1cccc(-c2nc3ccccn3c2[NH2+]Cc2ccccc2)c1

>  <Energy>  (19) 
98.65869929000404

>  <Genealogy>  (19) 
CN(C)Cc1cccc(-c2nc3ccccn3c2[NH2+]Cc2ccccc2)c1 (protonated)
CN(C)Cc1cccc(-c2nc3ccccn3c2[NH2+]Cc2ccccc2)c1 (3D coordinates assigned)
CN(C)Cc1cccc(-c2nc3ccccn3c2[NH2+]Cc2ccccc2)c1 (optimized conformer: 98.65869929000404 kcal/mol)

>  <smiles>  (19) 
CN(C)Cc1cccc(-c2nc3ccccn3c2NCc2ccccc2)c1

>  <score_type>  (19) 
oracle

>  <origin>  (19) 
adg

>  <m_score__min__energy>  (19) 
-6.7000000000000002

>  <m_primary>  (19) 
energy

$$$$
19:0
     RDKit          3D

 39 40  0  0  0  0  0  0  0  0999 V2000
   56.2880   30.0570   43.2850 C   0  0  0  0  0  0  0  0  0  0  0  0
   57.2210   30.0170   44.4950 C   0  0  0  0  0  0  0  0  0  0  0  0
   57.1980   31.2940   45.2410 N   0  0  0  0  0  0  0  0  0  0  0  0
   57.4070   32.4570   44.3410 C   0  0  0  0  0  0  0  0  0  0  0  0
   57.9690   33.6650   45.0990 C   0  0  0  0  0  0  0  0  0  0  0  0
   59.3100   33.3730   45.6660 N   0  0  0  0  0  0  0  0  0  0  0  0
   59.6300   34.2820   46.7880 C   0  0  0  0  0  0  0  0  0  0  0  0
   60.9940   33.9810   47.3540 C   0  0  0  0  0  0  0  0  0  0  0  0
   61.1830   33.8690   48.7400 C   0  0  0  0  0  0  0  0  0  0  0  0
   62.4570   33.6140   49.2580 C   0  0  0  0  0  0  0  0  0  0  0  0
   63.5570   33.4720   48.4060 C   0  0  0  0  0  0  0  0  0  0  0  0
   64.8130   33.2170   48.9750 O   0  0  0  0  0  0  0  0  0  0  0  0
   65.0330   32.3620   50.0920 C   0  0  0  0  0  0  0  0  0  0  0  0
   63.3690   33.5900   47.0150 C   0  0  0  0  0  0  0  0  0  0  0  0
   62.0950   33.8450   46.4960 C   0  0  0  0  0  0  0  0  0  0  0  0
   59.4810   31.9490   46.0540 C   0  0  0  0  0  0  0  0  0  0  0  0
   58.1430   31.2700   46.3880 C   0  0  0  0  0  0  0  0  0  0  0  0
   55.2439   30.1018   43.6284 H   0  0  0  0  0  0  0  0  0  0  0  0
   56.5128   30.9463   42.6779 H   0  0  0  0  0  0  0  0  0  0  0  0
   56.4358   29.1517   42.6779 H   0  0  0  0  0  0  0  0  0  0  0  0
   56.9017   29.2057   45.1657 H   0  0  0  0  0  0  0  0  0  0  0  0
   58.2462   29.8470   44.1343 H   0  0  0  0  0  0  0  0  0  0  0  0
   58.1149   32.1722   43.5486 H   0  0  0  0  0  0  0  0  0  0  0  0
   56.4333   32.7412   43.9153 H   0  0  0  0  0  0  0  0  0  0  0  0
   58.0508   34.5157   44.4064 H   0  0  0  0  0  0  0  0  0  0  0  0
   57.2864   33.9012   45.9286 H   0  0  0  0  0  0  0  0  0  0  0  0
   59.6118   35.3206   46.4261 H   0  0  0  0  0  0  0  0  0  0  0  0
   58.8815   34.1374   47.5810 H   0  0  0  0  0  0  0  0  0  0  0  0
   60.3267   33.9821   49.4211 H   0  0  0  0  0  0  0  0  0  0  0  0
   62.5950   33.5243   50.3456 H   0  0  0  0  0  0  0  0  0  0  0  0
   64.8869   32.9298   51.0227 H   0  0  0  0  0  0  0  0  0  0  0  0
   64.3212   31.5240   50.0581 H   0  0  0  0  0  0  0  0  0  0  0  0
   66.0608   31.9716   50.0581 H   0  0  0  0  0  0  0  0  0  0  0  0
   64.2265   33.4813   46.3347 H   0  0  0  0  0  0  0  0  0  0  0  0
   61.9561   33.9393   45.4089 H   0  0  0  0  0  0  0  0  0  0  0  0
   59.9528   31.4094   45.2196 H   0  0  0  0  0  0  0  0  0  0  0  0
   60.1077   31.9196   46.9575 H   0  0  0  0  0  0  0  0  0  0  0  0
   58.3367   30.2233   46.6652 H   0  0  0  0  0  0  0  0  0  0  0  0
   57.6808   31.8256   47.2173 H   0  0  0  0  0  0  0  0  0  0  0  0
  1  2  1  0
  2  3  1  0
  3  4  1  0
  4  5  1  0
  5  6  1  0
  6  7  1  0
  7  8  1  0
  8  9  2  0
  9 10  1  0
 10 11  2  0
 11 12  1  0
 12 13  1  0
 11 14  1  0
 14 15  2  0
  6 16  1  0
 16 17  1  0
 17  3  1  0
 15  8  1  0
  1 18  1  0
  1 19  1  0
  1 20  1  0
  2 21  1  0
  2 22  1  0
  4 23  1  0
  4 24  1  0
  5 25  1  0
  5 26  1  0
  7 27  1  0
  7 28  1  0
  9 29  1  0
 10 30  1  0
 13 31  1  0
 13 32  1  0
 13 33  1  0
 14 34  1  0
 15 35  1  0
 16 36  1  0
 16 37  1  0
 17 38  1  0
 17 39  1  0
M  END
>  <UniqueID>  (20) 
17

>  <SMILES>  (20) 
CCN1CCN(Cc2ccc(OC)cc2)CC1

>  <Energy>  (20) 
48.656960418355695

>  <Genealogy>  (20) 
CCN1CCN(Cc2ccc(OC)cc2)CC1 (3D coordinates assigned)
CCN1CCN(Cc2ccc(OC)cc2)CC1 (nonaromatic ring conformer: 48.656960418355695 kcal/mol)

>  <smiles>  (20) 
CCN1CCN(Cc2ccc(OC)cc2)CC1

>  <score_type>  (20) 
oracle

>  <origin>  (20) 
adg

>  <m_score__min__energy>  (20) 
-6.2300000000000004

>  <m_primary>  (20) 
energy

$$$$
20:0
     RDKit          3D

 35 37  0  0  0  0  0  0  0  0999 V2000
   66.3900   32.5630   50.4930 C   0  0  0  0  0  0  0  0  0  0  0  0
   65.0900   31.7970   50.2760 C   0  0  0  0  0  0  0  0  0  0  0  0
   64.1610   32.5920   49.4740 N   0  0  0  0  0  0  0  0  0  0  0  0
   64.3800   32.9490   48.2140 N   0  0  0  0  0  0  0  0  0  0  0  0
   63.3070   33.6340   47.7530 C   0  0  0  0  0  0  0  0  0  0  0  0
   63.2030   34.1910   46.3700 C   0  0  0  0  0  0  0  0  0  0  0  0
   62.3590   33.6780   48.7650 C   0  0  0  0  0  0  0  0  0  0  0  0
   61.0740   34.2220   48.8750 C   0  0  0  0  0  0  0  0  0  0  0  0
   60.4430   34.8680   47.8110 O   0  0  0  0  0  0  0  0  0  0  0  0
   59.4790   34.2640   46.9900 C   0  0  0  0  0  0  0  0  0  0  0  0
   59.2650   34.7910   45.7100 C   0  0  0  0  0  0  0  0  0  0  0  0
   58.3200   34.2160   44.8560 C   0  0  0  0  0  0  0  0  0  0  0  0
   57.5750   33.1120   45.2790 C   0  0  0  0  0  0  0  0  0  0  0  0
   57.7740   32.5830   46.5560 C   0  0  0  0  0  0  0  0  0  0  0  0
   58.7190   33.1550   47.4130 C   0  0  0  0  0  0  0  0  0  0  0  0
   60.4320   34.1070   50.0750 N   0  0  0  0  0  0  0  0  0  0  0  0
   60.9920   33.4600   51.1460 C   0  0  0  0  0  0  0  0  0  0  0  0
   62.2710   32.8880   51.0450 C   0  0  0  0  0  0  0  0  0  0  0  0
   62.9330   33.0260   49.8250 C   0  0  0  0  0  0  0  0  0  0  0  0
   66.5755   32.6723   51.5717 H   0  0  0  0  0  0  0  0  0  0  0  0
   67.2222   32.0109   50.0319 H   0  0  0  0  0  0  0  0  0  0  0  0
   66.3103   33.5585   50.0319 H   0  0  0  0  0  0  0  0  0  0  0  0
   65.3072   30.8545   49.7520 H   0  0  0  0  0  0  0  0  0  0  0  0
   64.6305   31.5873   51.2532 H   0  0  0  0  0  0  0  0  0  0  0  0
   65.2470   32.7270   47.6750 H   0  0  0  0  0  0  0  0  0  0  0  0
   63.0013   35.2710   46.4239 H   0  0  0  0  0  0  0  0  0  0  0  0
   64.1484   34.0208   45.8341 H   0  0  0  0  0  0  0  0  0  0  0  0
   62.3827   33.6911   45.8341 H   0  0  0  0  0  0  0  0  0  0  0  0
   59.8448   35.6636   45.3746 H   0  0  0  0  0  0  0  0  0  0  0  0
   58.1625   34.6327   43.8502 H   0  0  0  0  0  0  0  0  0  0  0  0
   56.8317   32.6596   44.6060 H   0  0  0  0  0  0  0  0  0  0  0  0
   57.1861   31.7146   46.8882 H   0  0  0  0  0  0  0  0  0  0  0  0
   58.8697   32.7385   48.4199 H   0  0  0  0  0  0  0  0  0  0  0  0
   60.4354   33.3882   52.0920 H   0  0  0  0  0  0  0  0  0  0  0  0
   62.7302   32.3549   51.8905 H   0  0  0  0  0  0  0  0  0  0  0  0
  1  2  1  0
  2  3  1  0
  3  4  1  0
  4  5  2  0
  5  6  1  0
  5  7  1  0
  7  8  2  0
  8  9  1  0
  9 10  1  0
 10 11  2  0
 11 12  1  0
 12 13  2  0
 13 14  1  0
 14 15  2  0
  8 16  1  0
 16 17  2  0
 17 18  1  0
 18 19  2  0
 19  3  1  0
 19  7  1  0
 15 10  1  0
  1 20  1  0
  1 21  1  0
  1 22  1  0
  2 23  1  0
  2 24  1  0
  4 25  1  0
  6 26  1  0
  6 27  1  0
  6 28  1  0
 11 29  1  0
 12 30  1  0
 13 31  1  0
 14 32  1  0
 15 33  1  0
 17 34  1  0
 18 35  1  0
M  CHG  1   4   1
M  END
>  <UniqueID>  (21) 
18

>  <SMILES>  (21) 
CCn1[nH+]c(C)c2c(Oc3ccccc3)nccc21

>  <Energy>  (21) 
81.98021341369245

>  <Genealogy>  (21) 
CCn1[nH+]c(C)c2c(Oc3ccccc3)nccc21 (protonated)
CCn1[nH+]c(C)c2c(Oc3ccccc3)nccc21 (3D coordinates assigned)
CCn1[nH+]c(C)c2c(Oc3ccccc3)nccc21 (optimized conformer: 81.98021341369245 kcal/mol)

>  <smiles>  (21) 
CCn1nc(C)c2c(Oc3ccccc3)nccc21

>  <score_type>  (21) 
oracle

>  <origin>  (21) 
adg

>  <m_score__min__energy>  (21) 
-5.4500000000000002

>  <m_primary>  (21) 
energy

$$$$
21:0
     RDKit          3D

 34 37  0  0  0  0  0  0  0  0999 V2000
   52.7470   22.5820   45.6060 O   0  0  0  0  0  0  0  0  0  0  0  0
   53.7510   22.5800   46.3680 C   0  0  0  0  0  0  0  0  0  0  0  0
   55.0970   22.2510   45.8530 C   0  0  0  0  0  0  0  0  0  0  0  0
   55.3410   20.8910   45.6170 C   0  0  0  0  0  0  0  0  0  0  0  0
   56.6190   20.4530   45.2920 C   0  0  0  0  0  0  0  0  0  0  0  0
   57.6400   21.3380   45.2070 N   0  0  0  0  0  0  0  0  0  0  0  0
   57.4450   22.6730   45.3810 C   0  0  0  0  0  0  0  0  0  0  0  0
   58.7630   23.7270   45.2410 S   0  0  0  0  0  0  0  0  0  0  0  0
   58.2300   25.2950   45.4380 C   0  0  0  0  0  0  0  0  0  0  0  0
   58.9500   26.4630   45.3980 C   0  0  0  0  0  0  0  0  0  0  0  0
   57.9750   27.4390   45.5700 C   0  0  0  0  0  0  0  0  0  0  0  0
   58.2030   28.8980   45.6730 C   0  0  0  0  0  0  0  0  0  0  0  0
   59.2800   29.3480   46.4590 C   0  0  0  0  0  0  0  0  0  0  0  0
   59.6040   30.7030   46.5150 C   0  0  0  0  0  0  0  0  0  0  0  0
   58.8580   31.6300   45.7880 C   0  0  0  0  0  0  0  0  0  0  0  0
   57.7710   31.2070   45.0220 C   0  0  0  0  0  0  0  0  0  0  0  0
   57.4160   29.8480   44.9710 C   0  0  0  0  0  0  0  0  0  0  0  0
   56.2260   29.4700   44.2580 N   0  0  0  0  0  0  0  0  0  0  0  0
   55.1420   29.3470   44.8670 O   0  0  0  0  0  0  0  0  0  0  0  0
   56.2180   29.4730   42.8820 O   0  0  0  0  0  0  0  0  0  0  0  0
   56.7620   26.8600   45.7200 N   0  0  0  0  0  0  0  0  0  0  0  0
   56.9310   25.5490   45.6320 N   0  0  0  0  0  0  0  0  0  0  0  0
   55.9180   24.6300   45.7160 C   0  0  0  0  0  0  0  0  0  0  0  0
   54.7400   25.0720   45.8000 O   0  0  0  0  0  0  0  0  0  0  0  0
   56.1490   23.2050   45.6680 C   0  0  0  0  0  0  0  0  0  0  0  0
   53.6237   22.8268   47.4324 H   0  0  0  0  0  0  0  0  0  0  0  0
   54.5164   20.1666   45.6895 H   0  0  0  0  0  0  0  0  0  0  0  0
   56.8016   19.3848   45.1034 H   0  0  0  0  0  0  0  0  0  0  0  0
   58.5960   20.9760   44.9870 H   0  0  0  0  0  0  0  0  0  0  0  0
   60.0337   26.5946   45.2629 H   0  0  0  0  0  0  0  0  0  0  0  0
   59.8729   28.6227   47.0356 H   0  0  0  0  0  0  0  0  0  0  0  0
   60.4488   31.0410   47.1332 H   0  0  0  0  0  0  0  0  0  0  0  0
   59.1268   32.6962   45.8184 H   0  0  0  0  0  0  0  0  0  0  0  0
   57.1862   31.9444   44.4525 H   0  0  0  0  0  0  0  0  0  0  0  0
  1  2  2  0
  2  3  1  0
  3  4  2  0
  4  5  1  0
  5  6  2  0
  6  7  1  0
  7  8  1  0
  8  9  1  0
  9 10  2  0
 10 11  1  0
 11 12  1  0
 12 13  2  0
 13 14  1  0
 14 15  2  0
 15 16  1  0
 16 17  2  0
 17 18  1  0
 18 19  2  0
 18 20  1  0
 11 21  2  0
 21 22  1  0
 22 23  1  0
 23 24  2  0
 23 25  1  0
 25  3  1  0
 25  7  2  0
 22  9  1  0
 17 12  1  0
  2 26  1  0
  4 27  1  0
  5 28  1  0
  6 29  1  0
 10 30  1  0
 13 31  1  0
 14 32  1  0
 15 33  1  0
 16 34  1  0
M  CHG  3   6   1  18   1  20  -1
M  END
>  <UniqueID>  (22) 
19

>  <SMILES>  (22) 
O=Cc1cc[nH+]c2sc3cc(-c4ccccc4[N+](=O)[O-])nn3c(=O)c12

>  <Energy>  (22) 
101.84234949766967

>  <Genealogy>  (22) 
O=Cc1cc[nH+]c2sc3cc(-c4ccccc4[N+](=O)[O-])nn3c(=O)c12 (protonated)
O=Cc1cc[nH+]c2sc3cc(-c4ccccc4[N+](=O)[O-])nn3c(=O)c12 (3D coordinates assigned)
O=Cc1cc[nH+]c2sc3cc(-c4ccccc4[N+](=O)[O-])nn3c(=O)c12 (optimized conformer: 101.84234949766967 kcal/mol)

>  <smiles>  (22) 
O=Cc1ccnc2sc3cc(-c4ccccc4[N+](=O)[O-])nn3c(=O)c12

>  <score_type>  (22) 
oracle

>  <origin>  (22) 
adg

>  <m_score__min__energy>  (22) 
-7.3399999999999999

>  <m_primary>  (22) 
energy

$$$$
22:0
     RDKit          3D

 51 53  0  0  0  0  0  0  0  0999 V2000
   65.2690   32.0790   50.1120 C   0  0  0  0  0  0  0  0  0  0  0  0
   64.9130   33.2780   49.4230 O   0  0  0  0  0  0  0  0  0  0  0  0
   63.6720   33.4990   48.7980 C   0  0  0  0  0  0  0  0  0  0  0  0
   63.4650   33.2640   47.4250 C   0  0  0  0  0  0  0  0  0  0  0  0
   62.2080   33.4860   46.8510 C   0  0  0  0  0  0  0  0  0  0  0  0
   61.1390   33.9410   47.6370 C   0  0  0  0  0  0  0  0  0  0  0  0
   59.7930   34.2150   47.0080 C   0  0  0  0  0  0  0  0  0  0  0  0
   59.6790   33.5940   45.6060 C   0  0  0  0  0  0  0  0  0  0  0  0
   58.2630   33.6590   45.0950 C   0  0  0  0  0  0  0  0  0  0  0  0
   57.5200   34.6050   45.4790 O   0  0  0  0  0  0  0  0  0  0  0  0
   57.6930   32.5770   44.2580 C   0  0  0  0  0  0  0  0  0  0  0  0
   57.8020   32.6140   42.8610 C   0  0  0  0  0  0  0  0  0  0  0  0
   57.2750   31.5760   42.0860 C   0  0  0  0  0  0  0  0  0  0  0  0
   56.6280   30.5010   42.6970 C   0  0  0  0  0  0  0  0  0  0  0  0
   56.4930   30.4570   44.0910 C   0  0  0  0  0  0  0  0  0  0  0  0
   55.8710   29.3440   44.7490 N   0  0  0  0  0  0  0  0  0  0  0  0
   56.5650   28.2520   45.3470 C   0  0  0  0  0  0  0  0  0  0  0  0
   55.9240   27.2170   45.6630 O   0  0  0  0  0  0  0  0  0  0  0  0
   57.9500   28.3190   45.5320 O   0  0  0  0  0  0  0  0  0  0  0  0
   58.5900   29.3070   46.3400 C   0  0  0  0  0  0  0  0  0  0  0  0
   59.0720   28.7280   47.6710 C   0  0  0  0  0  0  0  0  0  0  0  0
   60.4360   29.3530   47.9550 C   0  0  0  0  0  0  0  0  0  0  0  0
   60.7850   30.2290   46.7570 C   0  0  0  0  0  0  0  0  0  0  0  0
   59.8370   29.8190   45.6420 C   0  0  0  0  0  0  0  0  0  0  0  0
   57.0340   31.4920   44.8650 C   0  0  0  0  0  0  0  0  0  0  0  0
   61.3490   34.1940   49.0020 C   0  0  0  0  0  0  0  0  0  0  0  0
   62.6060   33.9710   49.5750 C   0  0  0  0  0  0  0  0  0  0  0  0
   65.2180   32.2508   51.1973 H   0  0  0  0  0  0  0  0  0  0  0  0
   64.5706   31.2756   49.8347 H   0  0  0  0  0  0  0  0  0  0  0  0
   66.2926   31.7869   49.8347 H   0  0  0  0  0  0  0  0  0  0  0  0
   64.2958   32.9040   46.8003 H   0  0  0  0  0  0  0  0  0  0  0  0
   62.0574   33.3025   45.7769 H   0  0  0  0  0  0  0  0  0  0  0  0
   59.0072   33.7905   47.6501 H   0  0  0  0  0  0  0  0  0  0  0  0
   59.6781   35.3045   46.9090 H   0  0  0  0  0  0  0  0  0  0  0  0
   60.3353   34.1440   44.9155 H   0  0  0  0  0  0  0  0  0  0  0  0
   59.9791   32.5375   45.6674 H   0  0  0  0  0  0  0  0  0  0  0  0
   58.3038   33.4624   42.3726 H   0  0  0  0  0  0  0  0  0  0  0  0
   57.3708   31.6070   40.9906 H   0  0  0  0  0  0  0  0  0  0  0  0
   56.2222   29.6846   42.0815 H   0  0  0  0  0  0  0  0  0  0  0  0
   57.8460   30.0996   46.5080 H   0  0  0  0  0  0  0  0  0  0  0  0
   58.3641   28.9828   48.4735 H   0  0  0  0  0  0  0  0  0  0  0  0
   59.1424   27.6313   47.6223 H   0  0  0  0  0  0  0  0  0  0  0  0
   60.3884   29.9641   48.8684 H   0  0  0  0  0  0  0  0  0  0  0  0
   61.1991   28.5756   48.1075 H   0  0  0  0  0  0  0  0  0  0  0  0
   60.6434   31.2909   47.0068 H   0  0  0  0  0  0  0  0  0  0  0  0
   61.8356   30.0995   46.4580 H   0  0  0  0  0  0  0  0  0  0  0  0
   59.5945   30.6831   45.0060 H   0  0  0  0  0  0  0  0  0  0  0  0
   60.2819   29.0551   44.9874 H   0  0  0  0  0  0  0  0  0  0  0  0
   56.9425   31.4560   45.9606 H   0  0  0  0  0  0  0  0  0  0  0  0
   60.5223   34.5689   49.6233 H   0  0  0  0  0  0  0  0  0  0  0  0
   62.7587   34.1683   50.6463 H   0  0  0  0  0  0  0  0  0  0  0  0
  1  2  1  0
  2  3  1  0
  3  4  2  0
  4  5  1  0
  5  6  2  0
  6  7  1  0
  7  8  1  0
  8  9  1  0
  9 10  2  0
  9 11  1  0
 11 12  2  0
 12 13  1  0
 13 14  2  0
 14 15  1  0
 15 16  1  0
 16 17  1  0
 17 18  2  0
 17 19  1  0
 19 20  1  0
 20 21  1  0
 21 22  1  0
 22 23  1  0
 23 24  1  0
 15 25  2  0
  6 26  1  0
 26 27  2  0
 27  3  1  0
 25 11  1  0
 24 20  1  0
  1 28  1  0
  1 29  1  0
  1 30  1  0
  4 31  1  0
  5 32  1  0
  7 33  1  0
  7 34  1  0
  8 35  1  0
  8 36  1  0
 12 37  1  0
 13 38  1  0
 14 39  1  0
 20 40  1  0
 21 41  1  0
 21 42  1  0
 22 43  1  0
 22 44  1  0
 23 45  1  0
 23 46  1  0
 24 47  1  0
 24 48  1  0
 25 49  1  0
 26 50  1  0
 27 51  1  0
M  CHG  1  16  -1
M  END
>  <UniqueID>  (23) 
20

>  <SMILES>  (23) 
COc1ccc(CCC(=O)c2cccc([N-]C(=O)OC3CCCC3)c2)cc1

>  <Energy>  (23) 
51.177542455913084

>  <Genealogy>  (23) 
COc1ccc(CCC(=O)c2cccc([N-]C(=O)OC3CCCC3)c2)cc1 (protonated)
COc1ccc(CCC(=O)c2cccc([N-]C(=O)OC3CCCC3)c2)cc1 (3D coordinates assigned)
COc1ccc(CCC(=O)c2cccc([N-]C(=O)OC3CCCC3)c2)cc1 (nonaromatic ring conformer: 51.177542455913084 kcal/mol)

>  <smiles>  (23) 
COc1ccc(CCC(=O)c2cccc(NC(=O)OC3CCCC3)c2)cc1

>  <score_type>  (23) 
oracle

>  <origin>  (23) 
adg

>  <m_score__min__energy>  (23) 
-10.98

>  <m_primary>  (23) 
energy

$$$$
23:0
     RDKit          3D

 44 47  0  0  0  0  0  0  0  0999 V2000
   57.4150   30.5490   45.1570 O   0  0  0  0  0  0  0  0  0  0  0  0
   58.1100   30.1480   46.1310 C   0  0  0  0  0  0  0  0  0  0  0  0
   57.6950   28.8730   46.8230 C   0  0  0  0  0  0  0  0  0  0  0  0
   58.6110   27.6310   46.5930 C   0  0  0  0  0  0  0  0  0  0  0  0
   57.9030   26.3870   47.2320 C   0  0  0  0  0  0  0  0  0  0  0  0
   58.2670   25.0690   46.5370 C   0  0  0  0  0  0  0  0  0  0  0  0
   57.9030   25.1230   45.1130 N   0  0  0  0  0  0  0  0  0  0  0  0
   57.5980   23.9080   44.3930 C   0  0  0  0  0  0  0  0  0  0  0  0
   56.5300   23.8670   43.4760 C   0  0  0  0  0  0  0  0  0  0  0  0
   56.2370   22.6890   42.7820 C   0  0  0  0  0  0  0  0  0  0  0  0
   57.0020   21.5410   42.9940 C   0  0  0  0  0  0  0  0  0  0  0  0
   58.0640   21.5680   43.9020 C   0  0  0  0  0  0  0  0  0  0  0  0
   58.3620   22.7420   44.5990 C   0  0  0  0  0  0  0  0  0  0  0  0
   57.8290   26.4280   44.4380 C   0  0  0  0  0  0  0  0  0  0  0  0
   58.8380   27.4010   45.0570 C   0  0  0  0  0  0  0  0  0  0  0  0
   59.9710   27.8490   47.3180 C   0  0  0  0  0  0  0  0  0  0  0  0
   60.7720   28.8520   46.6950 O   0  0  0  0  0  0  0  0  0  0  0  0
   60.5790   30.2410   46.7410 C   0  0  0  0  0  0  0  0  0  0  0  0
   61.6930   31.0180   47.0890 C   0  0  0  0  0  0  0  0  0  0  0  0
   61.6010   32.4080   47.1670 C   0  0  0  0  0  0  0  0  0  0  0  0
   60.3890   33.0410   46.9010 C   0  0  0  0  0  0  0  0  0  0  0  0
   59.2680   32.2860   46.5560 C   0  0  0  0  0  0  0  0  0  0  0  0
   59.3460   30.8840   46.4580 C   0  0  0  0  0  0  0  0  0  0  0  0
   57.6667   29.0727   47.9044 H   0  0  0  0  0  0  0  0  0  0  0  0
   56.7224   28.6049   46.3846 H   0  0  0  0  0  0  0  0  0  0  0  0
   58.1993   26.3195   48.2892 H   0  0  0  0  0  0  0  0  0  0  0  0
   56.8184   26.5308   47.1184 H   0  0  0  0  0  0  0  0  0  0  0  0
   59.3498   24.8981   46.6281 H   0  0  0  0  0  0  0  0  0  0  0  0
   57.7133   24.2481   47.0161 H   0  0  0  0  0  0  0  0  0  0  0  0
   55.9222   24.7677   43.3045 H   0  0  0  0  0  0  0  0  0  0  0  0
   55.4013   22.6670   42.0670 H   0  0  0  0  0  0  0  0  0  0  0  0
   56.7692   20.6156   42.4468 H   0  0  0  0  0  0  0  0  0  0  0  0
   58.6668   20.6630   44.0685 H   0  0  0  0  0  0  0  0  0  0  0  0
   59.1985   22.7560   45.3132 H   0  0  0  0  0  0  0  0  0  0  0  0
   58.0574   26.2982   43.3698 H   0  0  0  0  0  0  0  0  0  0  0  0
   56.8151   26.8374   44.5578 H   0  0  0  0  0  0  0  0  0  0  0  0
   59.8501   26.9961   44.9097 H   0  0  0  0  0  0  0  0  0  0  0  0
   58.7054   28.3720   44.5574 H   0  0  0  0  0  0  0  0  0  0  0  0
   59.7717   28.1524   48.3564 H   0  0  0  0  0  0  0  0  0  0  0  0
   60.5283   26.9018   47.2711 H   0  0  0  0  0  0  0  0  0  0  0  0
   62.6526   30.5250   47.3035 H   0  0  0  0  0  0  0  0  0  0  0  0
   62.4850   33.0037   47.4384 H   0  0  0  0  0  0  0  0  0  0  0  0
   60.3159   34.1368   46.9630 H   0  0  0  0  0  0  0  0  0  0  0  0
   58.3117   32.7923   46.3582 H   0  0  0  0  0  0  0  0  0  0  0  0
  1  2  2  0
  2  3  1  0
  3  4  1  0
  4  5  1  0
  5  6  1  0
  6  7  1  0
  7  8  1  0
  8  9  2  0
  9 10  1  0
 10 11  2  0
 11 12  1  0
 12 13  2  0
  7 14  1  0
 14 15  1  0
  4 16  1  0
 16 17  1  0
 17 18  1  0
 18 19  2  0
 19 20  1  0
 20 21  2  0
 21 22  1  0
 22 23  2  0
 23  2  1  0
 15  4  1  0
 23 18  1  0
 13  8  1  0
  3 24  1  0
  3 25  1  0
  5 26  1  0
  5 27  1  0
  6 28  1  0
  6 29  1  0
  9 30  1  0
 10 31  1  0
 11 32  1  0
 12 33  1  0
 13 34  1  0
 14 35  1  0
 14 36  1  0
 15 37  1  0
 15 38  1  0
 16 39  1  0
 16 40  1  0
 19 41  1  0
 20 42  1  0
 21 43  1  0
 22 44  1  0
M  END
>  <UniqueID>  (24) 
21

>  <SMILES>  (24) 
O=C1CC2(CCN(c3ccccc3)CC2)COc2ccccc21

>  <Energy>  (24) 
70.20601680197214

>  <Genealogy>  (24) 
O=C1CC2(CCN(c3ccccc3)CC2)COc2ccccc21 (3D coordinates assigned)
O=C1CC2(CCN(c3ccccc3)CC2)COc2ccccc21 (nonaromatic ring conformer: 70.20601680197214 kcal/mol)

>  <smiles>  (24) 
O=C1CC2(CCN(c3ccccc3)CC2)COc2ccccc21

>  <score_type>  (24) 
oracle

>  <origin>  (24) 
adg

>  <m_score__min__energy>  (24) 
-6.0099999999999998

>  <m_primary>  (24) 
energy

$$$$
24:0
     RDKit          3D

 45 47  0  0  0  0  0  0  0  0999 V2000
   56.8820   30.4430   43.7910 C   0  0  0  0  0  0  0  0  0  0  0  0
   57.0100   31.0610   45.0680 O   0  0  0  0  0  0  0  0  0  0  0  0
   57.7580   32.2210   45.3160 C   0  0  0  0  0  0  0  0  0  0  0  0
   57.3810   33.4050   44.6710 C   0  0  0  0  0  0  0  0  0  0  0  0
   58.1000   34.5840   44.8800 C   0  0  0  0  0  0  0  0  0  0  0  0
   59.1980   34.5930   45.7410 C   0  0  0  0  0  0  0  0  0  0  0  0
   59.5790   33.4230   46.4140 C   0  0  0  0  0  0  0  0  0  0  0  0
   60.7440   33.4190   47.3250 C   0  0  0  0  0  0  0  0  0  0  0  0
   62.0580   33.2470   46.8970 C   0  0  0  0  0  0  0  0  0  0  0  0
   62.8150   33.2450   48.0470 C   0  0  0  0  0  0  0  0  0  0  0  0
   64.1900   33.0930   48.2160 C   0  0  0  0  0  0  0  0  0  0  0  0
   64.6950   33.1000   49.5280 C   0  0  0  0  0  0  0  0  0  0  0  0
   63.8230   33.2480   50.6280 C   0  0  0  0  0  0  0  0  0  0  0  0
   62.4380   33.3960   50.4260 C   0  0  0  0  0  0  0  0  0  0  0  0
   61.9620   33.3990   49.1100 C   0  0  0  0  0  0  0  0  0  0  0  0
   60.6850   33.5080   48.6840 N   0  0  0  0  0  0  0  0  0  0  0  0
   59.4870   33.6120   49.5270 C   0  0  0  0  0  0  0  0  0  0  0  0
   58.7350   32.2770   49.5660 C   0  0  0  0  0  0  0  0  0  0  0  0
   57.6750   32.3170   50.5850 N   0  0  0  0  0  0  0  0  0  0  0  0
   57.9370   31.4090   51.7170 C   0  0  0  0  0  0  0  0  0  0  0  0
   56.6490   30.9580   52.4160 C   0  0  0  0  0  0  0  0  0  0  0  0
   55.6340   30.8050   51.4640 O   0  0  0  0  0  0  0  0  0  0  0  0
   58.8660   32.2340   46.1860 C   0  0  0  0  0  0  0  0  0  0  0  0
   56.6605   29.3735   43.9218 H   0  0  0  0  0  0  0  0  0  0  0  0
   56.0639   30.9213   43.2325 H   0  0  0  0  0  0  0  0  0  0  0  0
   57.8228   30.5570   43.2325 H   0  0  0  0  0  0  0  0  0  0  0  0
   56.5130   33.4067   43.9953 H   0  0  0  0  0  0  0  0  0  0  0  0
   57.7998   35.5081   44.3644 H   0  0  0  0  0  0  0  0  0  0  0  0
   59.7673   35.5219   45.8926 H   0  0  0  0  0  0  0  0  0  0  0  0
   62.4145   33.1365   45.8623 H   0  0  0  0  0  0  0  0  0  0  0  0
   64.8585   32.9715   47.3509 H   0  0  0  0  0  0  0  0  0  0  0  0
   65.7761   32.9895   49.6983 H   0  0  0  0  0  0  0  0  0  0  0  0
   64.2288   33.2477   51.6504 H   0  0  0  0  0  0  0  0  0  0  0  0
   61.7501   33.5060   51.2773 H   0  0  0  0  0  0  0  0  0  0  0  0
   59.7872   33.8874   50.5488 H   0  0  0  0  0  0  0  0  0  0  0  0
   58.8226   34.3802   49.1045 H   0  0  0  0  0  0  0  0  0  0  0  0
   58.2843   32.0857   48.5810 H   0  0  0  0  0  0  0  0  0  0  0  0
   59.4438   31.4747   49.8187 H   0  0  0  0  0  0  0  0  0  0  0  0
   56.7610   32.0660   50.1380 H   0  0  0  0  0  0  0  0  0  0  0  0
   58.4649   30.5200   51.3416 H   0  0  0  0  0  0  0  0  0  0  0  0
   58.5432   31.9575   52.4530 H   0  0  0  0  0  0  0  0  0  0  0  0
   56.8237   29.9982   52.9241 H   0  0  0  0  0  0  0  0  0  0  0  0
   56.3481   31.7137   53.1566 H   0  0  0  0  0  0  0  0  0  0  0  0
   55.6450   31.6300   50.9130 H   0  0  0  0  0  0  0  0  0  0  0  0
   59.1751   31.3066   46.6904 H   0  0  0  0  0  0  0  0  0  0  0  0
  1  2  1  0
  2  3  1  0
  3  4  2  0
  4  5  1  0
  5  6  2  0
  6  7  1  0
  7  8  1  0
  8  9  2  0
  9 10  1  0
 10 11  2  0
 11 12  1  0
 12 13  2  0
 13 14  1  0
 14 15  2  0
 15 16  1  0
 16 17  1  0
 17 18  1  0
 18 19  1  0
 19 20  1  0
 20 21  1  0
 21 22  1  0
  7 23  2  0
 23  3  1  0
 16  8  1  0
 15 10  1  0
  1 24  1  0
  1 25  1  0
  1 26  1  0
  4 27  1  0
  5 28  1  0
  6 29  1  0
  9 30  1  0
 11 31  1  0
 12 32  1  0
 13 33  1  0
 14 34  1  0
 17 35  1  0
 17 36  1  0
 18 37  1  0
 18 38  1  0
 19 39  1  0
 20 40  1  0
 20 41  1  0
 21 42  1  0
 21 43  1  0
 22 44  1  0
 23 45  1  0
M  END
>  <UniqueID>  (25) 
22

>  <SMILES>  (25) 
COc1cccc(-c2cc3ccccc3n2CCNCCO)c1

>  <Energy>  (25) 
81.44220258920264

>  <Genealogy>  (25) 
COc1cccc(-c2cc3ccccc3n2CCNCCO)c1 (3D coordinates assigned)
COc1cccc(-c2cc3ccccc3n2CCNCCO)c1 (optimized conformer: 81.44220258920264 kcal/mol)

>  <smiles>  (25) 
COc1cccc(-c2cc3ccccc3n2CCNCCO)c1

>  <score_type>  (25) 
oracle

>  <origin>  (25) 
adg

>  <m_score__min__energy>  (25) 
-7.3600000000000003

>  <m_primary>  (25) 
energy

$$$$
25:0
     RDKit          3D

 44 46  0  0  0  0  0  0  0  0999 V2000
   57.8578   20.3447   42.7112 H   0  0  0  0  0  0  0  0  0  0  0  0
   57.3130   21.1610   43.2080 C   0  0  0  0  0  0  0  0  0  0  0  0
   56.2110   21.7020   42.6260 N   0  0  0  0  0  0  0  0  0  0  0  0
   55.5300   22.6890   43.2120 N   0  0  0  0  0  0  0  0  0  0  0  0
   55.9030   23.1950   44.4200 C   0  0  0  0  0  0  0  0  0  0  0  0
   55.2450   24.1700   44.9770 N   0  0  0  0  0  0  0  0  0  0  0  0
   55.8270   25.3500   45.5510 C   0  0  0  0  0  0  0  0  0  0  0  0
   55.1450   26.0230   46.3690 O   0  0  0  0  0  0  0  0  0  0  0  0
   57.1430   25.8020   45.1780 N   0  0  0  0  0  0  0  0  0  0  0  0
   57.9920   26.4410   46.1920 C   0  0  0  0  0  0  0  0  0  0  0  0
   58.2413   25.7005   46.9663 H   0  0  0  0  0  0  0  0  0  0  0  0
   57.4359   27.2877   46.6208 H   0  0  0  0  0  0  0  0  0  0  0  0
   59.2930   26.9820   45.5840 C   0  0  0  0  0  0  0  0  0  0  0  0
   59.9621   26.1357   45.3693 H   0  0  0  0  0  0  0  0  0  0  0  0
   59.7424   27.6743   46.3111 H   0  0  0  0  0  0  0  0  0  0  0  0
   59.0460   27.7650   44.2750 C   0  0  0  0  0  0  0  0  0  0  0  0
   60.0153   27.8626   43.7642 H   0  0  0  0  0  0  0  0  0  0  0  0
   58.5440   29.1820   44.5750 C   0  0  0  0  0  0  0  0  0  0  0  0
   57.2780   29.5920   44.1040 C   0  0  0  0  0  0  0  0  0  0  0  0
   56.6711   28.8940   43.5086 H   0  0  0  0  0  0  0  0  0  0  0  0
   56.7830   30.8660   44.3800 C   0  0  0  0  0  0  0  0  0  0  0  0
   55.7944   31.1633   44.0001 H   0  0  0  0  0  0  0  0  0  0  0  0
   57.5370   31.7670   45.1370 C   0  0  0  0  0  0  0  0  0  0  0  0
   56.9860   33.1240   45.4610 C   0  0  0  0  0  0  0  0  0  0  0  0
   56.9356   33.2482   46.5528 H   0  0  0  0  0  0  0  0  0  0  0  0
   57.6413   33.8974   45.0339 H   0  0  0  0  0  0  0  0  0  0  0  0
   55.9770   33.2216   45.0339 H   0  0  0  0  0  0  0  0  0  0  0  0
   58.7740   31.3660   45.6530 C   0  0  0  0  0  0  0  0  0  0  0  0
   59.3558   32.0656   46.2711 H   0  0  0  0  0  0  0  0  0  0  0  0
   59.2850   30.0810   45.3930 C   0  0  0  0  0  0  0  0  0  0  0  0
   60.6170   29.7060   45.9920 C   0  0  0  0  0  0  0  0  0  0  0  0
   60.5443   29.7265   47.0894 H   0  0  0  0  0  0  0  0  0  0  0  0
   60.8958   28.6945   45.6618 H   0  0  0  0  0  0  0  0  0  0  0  0
   61.3826   30.4235   45.6618 H   0  0  0  0  0  0  0  0  0  0  0  0
   58.1420   26.9960   43.2620 C   0  0  0  0  0  0  0  0  0  0  0  0
   58.7268   26.8034   42.3504 H   0  0  0  0  0  0  0  0  0  0  0  0
   57.2630   27.6285   43.0689 H   0  0  0  0  0  0  0  0  0  0  0  0
   57.6230   25.6550   43.7980 C   0  0  0  0  0  0  0  0  0  0  0  0
   58.4380   24.9166   43.7753 H   0  0  0  0  0  0  0  0  0  0  0  0
   56.7880   25.3190   43.1656 H   0  0  0  0  0  0  0  0  0  0  0  0
   57.0380   22.6800   45.0510 C   0  0  0  0  0  0  0  0  0  0  0  0
   57.3677   23.0841   46.0195 H   0  0  0  0  0  0  0  0  0  0  0  0
   57.7480   21.6480   44.4390 C   0  0  0  0  0  0  0  0  0  0  0  0
   58.6405   21.2234   44.9219 H   0  0  0  0  0  0  0  0  0  0  0  0
  1  2  1  0
  2  3  2  0
  3  4  1  0
  4  5  1  0
  5  6  2  0
  6  7  1  0
  7  8  2  0
  7  9  1  0
  9 10  1  0
 10 11  1  0
 10 12  1  0
 10 13  1  0
 13 14  1  0
 13 15  1  0
 13 16  1  0
 16 17  1  0
 16 18  1  0
 18 19  2  0
 19 20  1  0
 19 21  1  0
 21 22  1  0
 21 23  2  0
 23 24  1  0
 24 25  1  0
 24 26  1  0
 24 27  1  0
 23 28  1  0
 28 29  1  0
 28 30  2  0
 30 31  1  0
 31 32  1  0
 31 33  1  0
 31 34  1  0
 16 35  1  0
 35 36  1  0
 35 37  1  0
 35 38  1  0
 38 39  1  0
 38 40  1  0
  5 41  1  0
 41 42  1  0
 41 43  2  0
 43 44  1  0
 43  2  1  0
 38  9  1  0
 30 18  1  0
M  CHG  1   4  -1
M  END
>  <UniqueID>  (26) 
23

>  <SMILES>  (26) 
Cc1ccc(C2CCN(C(=O)/N=c3/cccn[n-]3)CC2)c(C)c1

>  <Energy>  (26) 
58.811129667164

>  <Genealogy>  (26) 
Cc1ccc(C2CCN(C(=O)N=c3cccn[n-]3)CC2)c(C)c1 (protonated)
Cc1ccc(C2CCN(C(=O)/N=c3/cccn[n-]3)CC2)c(C)c1 (cis-trans isomerization)
Cc1ccc(C2CCN(C(=O)/N=c3/cccn[n-]3)CC2)c(C)c1 (3D coordinates assigned)
Cc1ccc(C2CCN(C(=O)/N=c3/cccn[n-]3)CC2)c(C)c1 (nonaromatic ring conformer: 58.811129667164 kcal/mol)

>  <smiles>  (26) 
Cc1ccc(C2CCN(C(=O)N=c3cccn[nH]3)CC2)c(C)c1

>  <score_type>  (26) 
oracle

>  <origin>  (26) 
adg

>  <m_score__min__energy>  (26) 
-10.44

>  <m_primary>  (26) 
energy

$$$$
26:0
     RDKit          3D

 40 41  0  0  0  0  0  0  0  0999 V2000
   60.8492   26.8526   46.1463 H   0  0  0  0  0  0  0  0  0  0  0  0
   59.9980   27.4490   45.7860 C   0  0  0  0  0  0  0  0  0  0  0  0
   58.6950   27.0960   46.1470 C   0  0  0  0  0  0  0  0  0  0  0  0
   58.5214   26.2237   46.7942 H   0  0  0  0  0  0  0  0  0  0  0  0
   57.6110   27.8510   45.6860 C   0  0  0  0  0  0  0  0  0  0  0  0
   56.5860   27.5685   45.9682 H   0  0  0  0  0  0  0  0  0  0  0  0
   57.8280   28.9670   44.8650 C   0  0  0  0  0  0  0  0  0  0  0  0
   56.4520   29.9020   44.2870 S   0  0  0  0  0  0  0  0  0  0  0  0
   55.1620   29.3740   44.8490 O   0  0  0  0  0  0  0  0  0  0  0  0
   56.3960   29.8100   42.7900 O   0  0  0  0  0  0  0  0  0  0  0  0
   56.6390   31.5680   44.7420 N   0  0  0  0  0  0  0  0  0  0  0  0
   57.6560   32.0930   45.3640 C   0  0  0  0  0  0  0  0  0  0  0  0
   58.2070   33.2770   44.8610 C   0  0  0  0  0  0  0  0  0  0  0  0
   57.7900   33.7364   43.9527 H   0  0  0  0  0  0  0  0  0  0  0  0
   59.2850   33.8730   45.5130 C   0  0  0  0  0  0  0  0  0  0  0  0
   59.7138   34.8086   45.1246 H   0  0  0  0  0  0  0  0  0  0  0  0
   59.8220   33.2810   46.6620 C   0  0  0  0  0  0  0  0  0  0  0  0
   60.9260   33.8920   47.3600 N   0  0  0  0  0  0  0  0  0  0  0  0
   62.2770   33.8390   46.7810 C   0  0  0  0  0  0  0  0  0  0  0  0
   62.7675   34.8141   46.9175 H   0  0  0  0  0  0  0  0  0  0  0  0
   62.1951   33.6012   45.7101 H   0  0  0  0  0  0  0  0  0  0  0  0
   63.1110   32.7580   47.4630 C   0  0  0  0  0  0  0  0  0  0  0  0
   63.0283   32.8652   48.5546 H   0  0  0  0  0  0  0  0  0  0  0  0
   62.7418   31.7662   47.1630 H   0  0  0  0  0  0  0  0  0  0  0  0
   64.1640   32.8634   47.1630 H   0  0  0  0  0  0  0  0  0  0  0  0
   60.6880   34.5870   48.6340 C   0  0  0  0  0  0  0  0  0  0  0  0
   61.5549   35.2230   48.8664 H   0  0  0  0  0  0  0  0  0  0  0  0
   59.7803   35.2011   48.5390 H   0  0  0  0  0  0  0  0  0  0  0  0
   60.4860   33.5810   49.7650 C   0  0  0  0  0  0  0  0  0  0  0  0
   60.5887   34.0925   50.7334 H   0  0  0  0  0  0  0  0  0  0  0  0
   59.4813   33.1397   49.6881 H   0  0  0  0  0  0  0  0  0  0  0  0
   61.2425   32.7861   49.6881 H   0  0  0  0  0  0  0  0  0  0  0  0
   59.2560   32.0880   47.1320 C   0  0  0  0  0  0  0  0  0  0  0  0
   59.6718   31.6020   48.0269 H   0  0  0  0  0  0  0  0  0  0  0  0
   58.1950   31.5260   46.4890 N   0  0  0  0  0  0  0  0  0  0  0  0
   57.8090   30.6470   46.8940 H   0  0  0  0  0  0  0  0  0  0  0  0
   59.1380   29.3200   44.5080 C   0  0  0  0  0  0  0  0  0  0  0  0
   59.3151   30.1956   43.8662 H   0  0  0  0  0  0  0  0  0  0  0  0
   60.2200   28.5600   44.9670 C   0  0  0  0  0  0  0  0  0  0  0  0
   61.2459   28.8371   44.6831 H   0  0  0  0  0  0  0  0  0  0  0  0
  1  2  1  0
  2  3  2  0
  3  4  1  0
  3  5  1  0
  5  6  1  0
  5  7  2  0
  7  8  1  0
  8  9  2  0
  8 10  2  0
  8 11  1  0
 11 12  2  0
 12 13  1  0
 13 14  1  0
 13 15  2  0
 15 16  1  0
 15 17  1  0
 17 18  1  0
 18 19  1  0
 19 20  1  0
 19 21  1  0
 19 22  1  0
 22 23  1  0
 22 24  1  0
 22 25  1  0
 18 26  1  0
 26 27  1  0
 26 28  1  0
 26 29  1  0
 29 30  1  0
 29 31  1  0
 29 32  1  0
 17 33  2  0
 33 34  1  0
 33 35  1  0
 35 36  1  0
  7 37  1  0
 37 38  1  0
 37 39  2  0
 39 40  1  0
 39  2  1  0
 35 12  1  0
M  END
>  <UniqueID>  (27) 
24

>  <SMILES>  (27) 
CCN(CC)c1cc/c(=N/S(=O)(=O)c2ccccc2)[nH]c1

>  <Energy>  (27) 
42.692426604977506

>  <Genealogy>  (27) 
CCN(CC)c1cc/c(=N/S(=O)(=O)c2ccccc2)[nH]c1 (cis-trans isomerization)
CCN(CC)c1cc/c(=N/S(=O)(=O)c2ccccc2)[nH]c1 (3D coordinates assigned)
CCN(CC)c1cc/c(=N/S(=O)(=O)c2ccccc2)[nH]c1 (optimized conformer: 42.692426604977506 kcal/mol)

>  <smiles>  (27) 
CCN(CC)c1ccc(=NS(=O)(=O)c2ccccc2)[nH]c1

>  <score_type>  (27) 
oracle

>  <origin>  (27) 
adg

>  <m_score__min__energy>  (27) 
-7.9500000000000002

>  <m_primary>  (27) 
energy

$$$$
27:0
     RDKit          3D

 58 61  0  0  0  0  0  0  0  0999 V2000
   55.1660   29.1980   44.6060 O   0  0  0  0  0  0  0  0  0  0  0  0
   55.5400   30.4650   44.1350 C   0  0  0  0  0  0  0  0  0  0  0  0
   57.0110   30.7930   44.5150 C   0  0  1  0  0  0  0  0  0  0  0  0
   57.6260   29.6440   45.3870 C   0  0  0  0  0  0  0  0  0  0  0  0
   58.7690   30.0520   46.2940 C   0  0  0  0  0  0  0  0  0  0  0  0
   58.5320   30.3790   47.6410 C   0  0  0  0  0  0  0  0  0  0  0  0
   59.5930   30.7430   48.4760 C   0  0  0  0  0  0  0  0  0  0  0  0
   60.8990   30.7710   47.9800 C   0  0  0  0  0  0  0  0  0  0  0  0
   61.1470   30.4270   46.6490 C   0  0  0  0  0  0  0  0  0  0  0  0
   60.0900   30.0630   45.8100 C   0  0  0  0  0  0  0  0  0  0  0  0
   57.8680   30.9140   43.2090 C   0  0  0  0  0  0  0  0  0  0  0  0
   57.9150   32.3480   42.6780 C   0  0  0  0  0  0  0  0  0  0  0  0
   58.5110   33.3150   43.7260 C   0  0  0  0  0  0  0  0  0  0  0  0
   58.3250   32.8540   45.1290 N   0  0  1  0  0  0  0  0  0  0  0  0
   58.4140   33.9860   46.0830 C   0  0  0  0  0  0  0  0  0  0  0  0
   59.6460   33.8910   46.9520 C   0  0  0  0  0  0  0  0  0  0  0  0
   60.9130   33.7590   46.3650 C   0  0  0  0  0  0  0  0  0  0  0  0
   62.0600   33.7000   47.1610 C   0  0  0  0  0  0  0  0  0  0  0  0
   61.9600   33.7760   48.5620 C   0  0  0  0  0  0  0  0  0  0  0  0
   63.1780   33.7150   49.4100 C   0  0  0  0  0  0  0  0  0  0  0  0
   63.1930   34.3120   50.6850 C   0  0  0  0  0  0  0  0  0  0  0  0
   64.3410   34.2530   51.4810 C   0  0  0  0  0  0  0  0  0  0  0  0
   65.4860   33.6030   51.0140 C   0  0  0  0  0  0  0  0  0  0  0  0
   65.4840   33.0070   49.7500 C   0  0  0  0  0  0  0  0  0  0  0  0
   64.3380   33.0630   48.9510 C   0  0  0  0  0  0  0  0  0  0  0  0
   60.6880   33.9130   49.1470 C   0  0  0  0  0  0  0  0  0  0  0  0
   59.5430   33.9720   48.3480 C   0  0  0  0  0  0  0  0  0  0  0  0
   57.0260   32.1590   45.2830 C   0  0  0  0  0  0  0  0  0  0  0  0
   55.7370   28.5440   44.1230 H   0  0  0  0  0  0  0  0  0  0  0  0
   55.4391   30.4851   43.0398 H   0  0  0  0  0  0  0  0  0  0  0  0
   54.8842   31.2169   44.5982 H   0  0  0  0  0  0  0  0  0  0  0  0
   56.8245   29.2311   46.0172 H   0  0  0  0  0  0  0  0  0  0  0  0
   58.0495   28.9197   44.6757 H   0  0  0  0  0  0  0  0  0  0  0  0
   57.5072   30.3483   48.0397 H   0  0  0  0  0  0  0  0  0  0  0  0
   59.3990   31.0079   49.5258 H   0  0  0  0  0  0  0  0  0  0  0  0
   61.7312   31.0637   48.6371 H   0  0  0  0  0  0  0  0  0  0  0  0
   62.1760   30.4426   46.2605 H   0  0  0  0  0  0  0  0  0  0  0  0
   60.2921   29.7836   44.7655 H   0  0  0  0  0  0  0  0  0  0  0  0
   58.8942   30.5834   43.4271 H   0  0  0  0  0  0  0  0  0  0  0  0
   57.3991   30.2843   42.4385 H   0  0  0  0  0  0  0  0  0  0  0  0
   58.5373   32.3743   41.7713 H   0  0  0  0  0  0  0  0  0  0  0  0
   56.8872   32.6693   42.4537 H   0  0  0  0  0  0  0  0  0  0  0  0
   59.5890   33.4174   43.5327 H   0  0  0  0  0  0  0  0  0  0  0  0
   57.9778   34.2718   43.6252 H   0  0  0  0  0  0  0  0  0  0  0  0
   59.0900   32.1790   45.3670 H   0  0  0  0  0  0  0  0  0  0  0  0
   58.4500   34.9278   45.5158 H   0  0  0  0  0  0  0  0  0  0  0  0
   57.5304   33.9524   46.7373 H   0  0  0  0  0  0  0  0  0  0  0  0
   61.0044   33.7015   45.2703 H   0  0  0  0  0  0  0  0  0  0  0  0
   63.0478   33.5934   46.6888 H   0  0  0  0  0  0  0  0  0  0  0  0
   62.2958   34.8282   51.0573 H   0  0  0  0  0  0  0  0  0  0  0  0
   64.3426   34.7194   52.4772 H   0  0  0  0  0  0  0  0  0  0  0  0
   66.3888   33.5603   51.6410 H   0  0  0  0  0  0  0  0  0  0  0  0
   66.3849   32.4933   49.3833 H   0  0  0  0  0  0  0  0  0  0  0  0
   64.3429   32.5939   47.9560 H   0  0  0  0  0  0  0  0  0  0  0  0
   60.5940   33.9741   50.2413 H   0  0  0  0  0  0  0  0  0  0  0  0
   58.5544   34.0827   48.8174 H   0  0  0  0  0  0  0  0  0  0  0  0
   56.8461   31.9703   46.3516 H   0  0  0  0  0  0  0  0  0  0  0  0
   56.2389   32.8010   44.8608 H   0  0  0  0  0  0  0  0  0  0  0  0
  1  2  1  0
  3  2  1  6
  3  4  1  0
  4  5  1  0
  5  6  2  0
  6  7  1  0
  7  8  2  0
  8  9  1  0
  9 10  2  0
  3 11  1  0
 11 12  1  0
 12 13  1  0
 13 14  1  0
 14 15  1  0
 15 16  1  0
 16 17  2  0
 17 18  1  0
 18 19  2  0
 19 20  1  0
 20 21  2  0
 21 22  1  0
 22 23  2  0
 23 24  1  0
 24 25  2  0
 19 26  1  0
 26 27  2  0
 14 28  1  0
 28  3  1  0
 10  5  1  0
 27 16  1  0
 25 20  1  0
  1 29  1  0
  2 30  1  0
  2 31  1  0
  4 32  1  0
  4 33  1  0
  6 34  1  0
  7 35  1  0
  8 36  1  0
  9 37  1  0
 10 38  1  0
 11 39  1  0
 11 40  1  0
 12 41  1  0
 12 42  1  0
 13 43  1  0
 13 44  1  0
 14 45  1  1
 15 46  1  0
 15 47  1  0
 17 48  1  0
 18 49  1  0
 21 50  1  0
 22 51  1  0
 23 52  1  0
 24 53  1  0
 25 54  1  0
 26 55  1  0
 27 56  1  0
 28 57  1  0
 28 58  1  0
M  CHG  1  14   1
M  END
>  <UniqueID>  (28) 
25

>  <SMILES>  (28) 
OC[C@@]1(Cc2ccccc2)CCC[N@@H+](Cc2ccc(-c3ccccc3)cc2)C1

>  <Energy>  (28) 
76.01600054354294

>  <Genealogy>  (28) 
OCC1(Cc2ccccc2)CCC[NH+](Cc2ccc(-c3ccccc3)cc2)C1 (protonated)
OC[C@@]1(Cc2ccccc2)CCC[N@@H+](Cc2ccc(-c3ccccc3)cc2)C1 (chirality)
OC[C@@]1(Cc2ccccc2)CCC[N@@H+](Cc2ccc(-c3ccccc3)cc2)C1 (3D coordinates assigned)
OC[C@@]1(Cc2ccccc2)CCC[N@@H+](Cc2ccc(-c3ccccc3)cc2)C1 (nonaromatic ring conformer: 76.01600054354294 kcal/mol)

>  <smiles>  (28) 
OCC1(Cc2ccccc2)CCCN(Cc2ccc(-c3ccccc3)cc2)C1

>  <score_type>  (28) 
oracle

>  <origin>  (28) 
adg

>  <m_score__min__energy>  (28) 
-7.7999999999999998

>  <m_primary>  (28) 
energy

$$$$
28:0
     RDKit          3D

 37 37  0  0  0  0  0  0  0  0999 V2000
   58.5270   29.5220   47.1240 C   0  0  0  0  0  0  0  0  0  0  0  0
   58.5060   29.8710   45.6290 C   0  0  0  0  0  0  0  0  0  0  0  0
   57.4180   30.8020   45.2500 N   0  0  0  0  0  0  0  0  0  0  0  0
   56.3520   30.1360   44.4670 C   0  0  0  0  0  0  0  0  0  0  0  0
   56.6380   30.2150   42.9710 C   0  0  0  0  0  0  0  0  0  0  0  0
   57.9170   32.0520   44.6250 C   0  0  0  0  0  0  0  0  0  0  0  0
   57.0130   33.2280   45.0070 C   0  0  0  0  0  0  0  0  0  0  0  0
   57.1640   33.5750   46.4220 N   0  0  0  0  0  0  0  0  0  0  0  0
   58.4090   33.5010   47.1490 C   0  0  0  0  0  0  0  0  0  0  0  0
   58.5270   32.6770   48.2860 C   0  0  0  0  0  0  0  0  0  0  0  0
   59.7320   32.5960   48.9860 C   0  0  0  0  0  0  0  0  0  0  0  0
   60.8380   33.3300   48.5600 C   0  0  0  0  0  0  0  0  0  0  0  0
   60.7430   34.1500   47.4360 C   0  0  0  0  0  0  0  0  0  0  0  0
   59.5340   34.2510   46.7260 C   0  0  0  0  0  0  0  0  0  0  0  0
   59.4600   35.1640   45.5310 C   0  0  0  0  0  0  0  0  0  0  0  0
   58.4714   30.4467   47.7172 H   0  0  0  0  0  0  0  0  0  0  0  0
   57.6658   28.8807   47.3630 H   0  0  0  0  0  0  0  0  0  0  0  0
   59.4589   28.9886   47.3630 H   0  0  0  0  0  0  0  0  0  0  0  0
   59.4679   30.3361   45.3674 H   0  0  0  0  0  0  0  0  0  0  0  0
   58.3311   28.9326   45.0823 H   0  0  0  0  0  0  0  0  0  0  0  0
   56.2936   29.0791   44.7662 H   0  0  0  0  0  0  0  0  0  0  0  0
   55.3994   30.6481   44.6679 H   0  0  0  0  0  0  0  0  0  0  0  0
   57.6873   30.5048   42.8131 H   0  0  0  0  0  0  0  0  0  0  0  0
   56.4556   29.2328   42.5105 H   0  0  0  0  0  0  0  0  0  0  0  0
   55.9773   30.9643   42.5105 H   0  0  0  0  0  0  0  0  0  0  0  0
   58.9405   32.2508   44.9757 H   0  0  0  0  0  0  0  0  0  0  0  0
   57.9126   31.9346   43.5313 H   0  0  0  0  0  0  0  0  0  0  0  0
   57.2809   34.1006   44.3931 H   0  0  0  0  0  0  0  0  0  0  0  0
   55.9676   32.9352   44.8300 H   0  0  0  0  0  0  0  0  0  0  0  0
   56.2930   33.8490   46.9300 H   0  0  0  0  0  0  0  0  0  0  0  0
   57.6601   32.0912   48.6257 H   0  0  0  0  0  0  0  0  0  0  0  0
   59.8089   31.9523   49.8747 H   0  0  0  0  0  0  0  0  0  0  0  0
   61.7874   33.2622   49.1115 H   0  0  0  0  0  0  0  0  0  0  0  0
   61.6211   34.7223   47.1024 H   0  0  0  0  0  0  0  0  0  0  0  0
   59.3755   36.2067   45.8709 H   0  0  0  0  0  0  0  0  0  0  0  0
   60.3704   35.0487   44.9245 H   0  0  0  0  0  0  0  0  0  0  0  0
   58.5800   34.9036   44.9245 H   0  0  0  0  0  0  0  0  0  0  0  0
  1  2  1  0
  2  3  1  0
  3  4  1  0
  4  5  1  0
  3  6  1  0
  6  7  1  0
  7  8  1  0
  8  9  1  0
  9 10  2  0
 10 11  1  0
 11 12  2  0
 12 13  1  0
 13 14  2  0
 14 15  1  0
 14  9  1  0
  1 16  1  0
  1 17  1  0
  1 18  1  0
  2 19  1  0
  2 20  1  0
  4 21  1  0
  4 22  1  0
  5 23  1  0
  5 24  1  0
  5 25  1  0
  6 26  1  0
  6 27  1  0
  7 28  1  0
  7 29  1  0
  8 30  1  0
 10 31  1  0
 11 32  1  0
 12 33  1  0
 13 34  1  0
 15 35  1  0
 15 36  1  0
 15 37  1  0
M  END
>  <UniqueID>  (29) 
26

>  <SMILES>  (29) 
CCN(CC)CCNc1ccccc1C

>  <Energy>  (29) 
34.117568981156296

>  <Genealogy>  (29) 
CCN(CC)CCNc1ccccc1C (3D coordinates assigned)
CCN(CC)CCNc1ccccc1C (optimized conformer: 34.117568981156296 kcal/mol)

>  <smiles>  (29) 
CCN(CC)CCNc1ccccc1C

>  <score_type>  (29) 
oracle

>  <origin>  (29) 
adg

>  <m_score__min__energy>  (29) 
-5.5099999999999998

>  <m_primary>  (29) 
energy

$$$$
29:0
     RDKit          3D

 75 81  0  0  0  0  0  0  0  0999 V2000
   58.1090   27.5220   43.2490 C   0  0  0  0  0  0  0  0  0  0  0  0
   57.9590   28.9620   43.7520 C   0  0  0  0  0  0  0  0  0  0  0  0
   56.5580   29.5240   43.4960 C   0  0  0  0  0  0  0  0  0  0  0  0
   58.4490   29.1060   45.1810 C   0  0  0  0  0  0  0  0  0  0  0  0
   59.4520   29.9800   45.4590 N   0  0  0  0  0  0  0  0  0  0  0  0
   59.6940   29.7810   46.7620 C   0  0  0  0  0  0  0  0  0  0  0  0
   60.6550   30.4160   47.5390 C   0  0  0  0  0  0  0  0  0  0  0  0
   60.7910   30.0150   48.8850 C   0  0  0  0  0  0  0  0  0  0  0  0
   59.9420   29.0030   49.4160 C   0  0  0  0  0  0  0  0  0  0  0  0
   58.9740   28.3890   48.5900 C   0  0  0  0  0  0  0  0  0  0  0  0
   58.8760   28.8130   47.2600 C   0  0  0  0  0  0  0  0  0  0  0  0
   58.0680   28.3670   46.2740 N   0  0  0  0  0  0  0  0  0  0  0  0
   57.0230   27.3360   46.4070 C   0  0  0  0  0  0  0  0  0  0  0  0
   57.5200   25.9770   45.9870 C   0  0  0  0  0  0  0  0  0  0  0  0
   56.6730   25.0870   45.3050 C   0  0  0  0  0  0  0  0  0  0  0  0
   57.1420   23.8350   44.8970 C   0  0  0  0  0  0  0  0  0  0  0  0
   58.4620   23.4600   45.1680 C   0  0  0  0  0  0  0  0  0  0  0  0
   59.3180   24.3460   45.8250 C   0  0  0  0  0  0  0  0  0  0  0  0
   58.8590   25.6060   46.2180 C   0  0  0  0  0  0  0  0  0  0  0  0
   60.1450   28.4800   50.8210 C   0  0  0  0  0  0  0  0  0  0  0  0
   60.9180   29.4000   51.6830 N   0  0  0  0  0  0  0  0  0  0  0  0
   60.0910   30.4650   52.2880 C   0  0  0  0  0  0  0  0  0  0  0  0
   58.8220   29.8600   52.8890 C   0  0  0  0  0  0  0  0  0  0  0  0
   57.3460   30.8350   52.4290 S   0  0  0  0  0  0  0  0  0  0  0  0
   58.2520   32.0610   51.4930 C   0  0  0  0  0  0  0  0  0  0  0  0
   58.6200   33.2640   51.9740 N   0  0  0  0  0  0  0  0  0  0  0  0
   59.2540   33.8750   50.9850 N   0  0  0  0  0  0  0  0  0  0  0  0
   59.2410   33.0220   49.9410 C   0  0  0  0  0  0  0  0  0  0  0  0
   59.8130   33.3220   48.6200 C   0  0  0  0  0  0  0  0  0  0  0  0
   61.1590   33.5310   48.3370 C   0  0  0  0  0  0  0  0  0  0  0  0
   61.3190   33.8410   47.0290 N   0  0  0  0  0  0  0  0  0  0  0  0
   62.5750   34.2020   46.3780 C   0  0  0  0  0  0  0  0  0  0  0  0
   60.0850   33.8560   46.4850 C   0  0  0  0  0  0  0  0  0  0  0  0
   59.7280   34.1810   45.1720 C   0  0  0  0  0  0  0  0  0  0  0  0
   58.3630   34.1570   44.8350 C   0  0  0  0  0  0  0  0  0  0  0  0
   57.3920   33.8140   45.8020 C   0  0  0  0  0  0  0  0  0  0  0  0
   57.7750   33.4990   47.1180 C   0  0  0  0  0  0  0  0  0  0  0  0
   59.1370   33.5320   47.4270 C   0  0  0  0  0  0  0  0  0  0  0  0
   58.6280   31.9050   50.2480 O   0  0  0  0  0  0  0  0  0  0  0  0
   62.1290   29.9050   51.0080 C   0  0  0  0  0  0  0  0  0  0  0  0
   61.7860   30.7240   49.7600 C   0  0  0  0  0  0  0  0  0  0  0  0
   58.1801   26.8390   44.1083 H   0  0  0  0  0  0  0  0  0  0  0  0
   57.2339   27.2537   42.6388 H   0  0  0  0  0  0  0  0  0  0  0  0
   59.0206   27.4398   42.6388 H   0  0  0  0  0  0  0  0  0  0  0  0
   58.6225   29.6031   43.1530 H   0  0  0  0  0  0  0  0  0  0  0  0
   56.0615   29.7231   44.4572 H   0  0  0  0  0  0  0  0  0  0  0  0
   56.6373   30.4599   42.9234 H   0  0  0  0  0  0  0  0  0  0  0  0
   55.9686   28.7927   42.9234 H   0  0  0  0  0  0  0  0  0  0  0  0
   61.2911   31.2081   47.1172 H   0  0  0  0  0  0  0  0  0  0  0  0
   58.3156   27.5995   48.9815 H   0  0  0  0  0  0  0  0  0  0  0  0
   56.7018   27.2883   47.4580 H   0  0  0  0  0  0  0  0  0  0  0  0
   56.1855   27.6117   45.7493 H   0  0  0  0  0  0  0  0  0  0  0  0
   55.6339   25.3775   45.0908 H   0  0  0  0  0  0  0  0  0  0  0  0
   56.4728   23.1445   44.3627 H   0  0  0  0  0  0  0  0  0  0  0  0
   58.8255   22.4674   44.8636 H   0  0  0  0  0  0  0  0  0  0  0  0
   60.3570   24.0513   46.0339 H   0  0  0  0  0  0  0  0  0  0  0  0
   59.5459   26.3107   46.7095 H   0  0  0  0  0  0  0  0  0  0  0  0
   59.1581   28.3190   51.2793 H   0  0  0  0  0  0  0  0  0  0  0  0
   60.7226   27.5473   50.7406 H   0  0  0  0  0  0  0  0  0  0  0  0
   60.6658   30.9677   53.0798 H   0  0  0  0  0  0  0  0  0  0  0  0
   59.8127   31.1927   51.5115 H   0  0  0  0  0  0  0  0  0  0  0  0
   58.7034   28.8316   52.5171 H   0  0  0  0  0  0  0  0  0  0  0  0
   58.9172   29.8664   53.9849 H   0  0  0  0  0  0  0  0  0  0  0  0
   61.9754   33.4553   49.0703 H   0  0  0  0  0  0  0  0  0  0  0  0
   63.3349   34.4204   47.1428 H   0  0  0  0  0  0  0  0  0  0  0  0
   62.9163   33.3656   45.7504 H   0  0  0  0  0  0  0  0  0  0  0  0
   62.4201   35.0920   45.7504 H   0  0  0  0  0  0  0  0  0  0  0  0
   60.4915   34.4471   44.4262 H   0  0  0  0  0  0  0  0  0  0  0  0
   58.0490   34.4072   43.8109 H   0  0  0  0  0  0  0  0  0  0  0  0
   56.3280   33.7931   45.5235 H   0  0  0  0  0  0  0  0  0  0  0  0
   57.0263   33.2351   47.8795 H   0  0  0  0  0  0  0  0  0  0  0  0
   62.6878   30.5421   51.7093 H   0  0  0  0  0  0  0  0  0  0  0  0
   62.7309   29.0395   50.6938 H   0  0  0  0  0  0  0  0  0  0  0  0
   61.3612   31.6892   50.0729 H   0  0  0  0  0  0  0  0  0  0  0  0
   62.7098   30.8686   49.1806 H   0  0  0  0  0  0  0  0  0  0  0  0
  1  2  1  0
  2  3  1  0
  2  4  1  0
  4  5  2  0
  5  6  1  0
  6  7  2  0
  7  8  1  0
  8  9  2  0
  9 10  1  0
 10 11  2  0
 11 12  1  0
 12 13  1  0
 13 14  1  0
 14 15  2  0
 15 16  1  0
 16 17  2  0
 17 18  1  0
 18 19  2  0
  9 20  1  0
 20 21  1  0
 21 22  1  0
 22 23  1  0
 23 24  1  0
 24 25  1  0
 25 26  2  0
 26 27  1  0
 27 28  2  0
 28 29  1  0
 29 30  2  0
 30 31  1  0
 31 32  1  0
 31 33  1  0
 33 34  2  0
 34 35  1  0
 35 36  2  0
 36 37  1  0
 37 38  2  0
 28 39  1  0
 21 40  1  0
 40 41  1  0
 12  4  1  0
 19 14  1  0
 39 25  1  0
 11  6  1  0
 38 29  1  0
 41  8  1  0
 38 33  1  0
  1 42  1  0
  1 43  1  0
  1 44  1  0
  2 45  1  0
  3 46  1  0
  3 47  1  0
  3 48  1  0
  7 49  1  0
 10 50  1  0
 13 51  1  0
 13 52  1  0
 15 53  1  0
 16 54  1  0
 17 55  1  0
 18 56  1  0
 19 57  1  0
 20 58  1  0
 20 59  1  0
 22 60  1  0
 22 61  1  0
 23 62  1  0
 23 63  1  0
 30 64  1  0
 32 65  1  0
 32 66  1  0
 32 67  1  0
 34 68  1  0
 35 69  1  0
 36 70  1  0
 37 71  1  0
 40 72  1  0
 40 73  1  0
 41 74  1  0
 41 75  1  0
M  END
>  <UniqueID>  (30) 
27

>  <SMILES>  (30) 
CC(C)c1nc2cc3c(cc2n1Cc1ccccc1)CN(CCSc1nnc(-c2cn(C)c4ccccc24)o1)CC3

>  <Energy>  (30) 
190.50298369253613

>  <Genealogy>  (30) 
CC(C)c1nc2cc3c(cc2n1Cc1ccccc1)CN(CCSc1nnc(-c2cn(C)c4ccccc24)o1)CC3 (3D coordinates assigned)
CC(C)c1nc2cc3c(cc2n1Cc1ccccc1)CN(CCSc1nnc(-c2cn(C)c4ccccc24)o1)CC3 (nonaromatic ring conformer: 190.50298369253613 kcal/mol)

>  <smiles>  (30) 
CC(C)c1nc2cc3c(cc2n1Cc1ccccc1)CN(CCSc1nnc(-c2cn(C)c4ccccc24)o1)CC3

>  <score_type>  (30) 
oracle

>  <origin>  (30) 
adg

>  <m_score__min__energy>  (30) 
-11.08

>  <m_primary>  (30) 
energy

$$$$
30:0
     RDKit          3D

 32 33  0  0  0  0  0  0  0  0999 V2000
   59.8450   27.3060   46.5440 C   0  0  0  0  0  0  0  0  0  0  0  0
   59.2270   26.0840   45.9200 C   0  0  0  0  0  0  0  0  0  0  0  0
   59.9250   24.8640   45.9970 C   0  0  0  0  0  0  0  0  0  0  0  0
   59.3730   23.6900   45.4740 C   0  0  0  0  0  0  0  0  0  0  0  0
   60.0610   22.4820   45.5580 O   0  0  0  0  0  0  0  0  0  0  0  0
   58.1180   23.7260   44.8650 C   0  0  0  0  0  0  0  0  0  0  0  0
   57.4200   24.9300   44.7640 C   0  0  0  0  0  0  0  0  0  0  0  0
   57.9690   26.1220   45.2650 C   0  0  0  0  0  0  0  0  0  0  0  0
   57.1900   27.3710   45.0790 C   0  0  0  0  0  0  0  0  0  0  0  0
   56.0580   27.4670   45.6270 O   0  0  0  0  0  0  0  0  0  0  0  0
   57.6780   28.5130   44.2290 C   0  0  0  0  0  0  0  0  0  0  0  0
   56.3680   29.7650   44.0000 S   0  0  0  0  0  0  0  0  0  0  0  0
   57.3430   31.0900   44.7140 C   0  0  0  0  0  0  0  0  0  0  0  0
   57.4020   32.3370   44.0820 C   0  0  0  0  0  0  0  0  0  0  0  0
   58.1620   33.3700   44.6390 C   0  0  0  0  0  0  0  0  0  0  0  0
   58.8630   33.1600   45.8310 C   0  0  0  0  0  0  0  0  0  0  0  0
   59.9020   34.5710   46.5910 Br  0  0  0  0  0  0  0  0  0  0  0  0
   58.8030   31.9140   46.4670 C   0  0  0  0  0  0  0  0  0  0  0  0
   58.0420   30.8810   45.9100 C   0  0  0  0  0  0  0  0  0  0  0  0
   59.8015   27.2200   47.6398 H   0  0  0  0  0  0  0  0  0  0  0  0
   60.8941   27.3903   46.2242 H   0  0  0  0  0  0  0  0  0  0  0  0
   59.2911   28.2010   46.2242 H   0  0  0  0  0  0  0  0  0  0  0  0
   60.9158   24.8336   46.4739 H   0  0  0  0  0  0  0  0  0  0  0  0
   60.7630   22.2240   44.8740 H   0  0  0  0  0  0  0  0  0  0  0  0
   57.6773   22.8018   44.4630 H   0  0  0  0  0  0  0  0  0  0  0  0
   56.4290   24.9459   44.2868 H   0  0  0  0  0  0  0  0  0  0  0  0
   58.5428   28.9830   44.7201 H   0  0  0  0  0  0  0  0  0  0  0  0
   57.9624   28.1188   43.2422 H   0  0  0  0  0  0  0  0  0  0  0  0
   56.8497   32.5049   43.1456 H   0  0  0  0  0  0  0  0  0  0  0  0
   58.2087   34.3488   44.1393 H   0  0  0  0  0  0  0  0  0  0  0  0
   59.3541   31.7476   47.4043 H   0  0  0  0  0  0  0  0  0  0  0  0
   57.9923   29.9033   46.4117 H   0  0  0  0  0  0  0  0  0  0  0  0
  1  2  1  0
  2  3  2  0
  3  4  1  0
  4  5  1  0
  4  6  2  0
  6  7  1  0
  7  8  2  0
  8  9  1  0
  9 10  2  0
  9 11  1  0
 11 12  1  0
 12 13  1  0
 13 14  2  0
 14 15  1  0
 15 16  2  0
 16 17  1  0
 16 18  1  0
 18 19  2  0
  8  2  1  0
 19 13  1  0
  1 20  1  0
  1 21  1  0
  1 22  1  0
  3 23  1  0
  5 24  1  0
  6 25  1  0
  7 26  1  0
 11 27  1  0
 11 28  1  0
 14 29  1  0
 15 30  1  0
 18 31  1  0
 19 32  1  0
M  END
>  <UniqueID>  (31) 
28

>  <SMILES>  (31) 
Cc1cc(O)ccc1C(=O)CSc1ccc(Br)cc1

>  <Energy>  (31) 
34.10603751989142

>  <Genealogy>  (31) 
Cc1cc(O)ccc1C(=O)CSc1ccc(Br)cc1 (3D coordinates assigned)
Cc1cc(O)ccc1C(=O)CSc1ccc(Br)cc1 (optimized conformer: 34.10603751989142 kcal/mol)

>  <smiles>  (31) 
Cc1cc(O)ccc1C(=O)CSc1ccc(Br)cc1

>  <score_type>  (31) 
oracle

>  <origin>  (31) 
adg

>  <m_score__min__energy>  (31) 
-8.1099999999999994

>  <m_primary>  (31) 
energy

$$$$
31:0
     RDKit          3D

 48 50  0  0  0  0  0  0  0  0999 V2000
   60.1070   27.3100   47.6190 C   0  0  0  0  0  0  0  0  0  0  0  0
   58.8410   27.8780   47.8770 O   0  0  0  0  0  0  0  0  0  0  0  0
   58.9840   29.2040   48.3490 C   0  0  0  0  0  0  0  0  0  0  0  0
   59.9980   29.9370   47.4770 C   0  0  0  0  0  0  0  0  0  0  0  0
   59.3300   30.6810   46.4050 N   0  0  0  0  0  0  0  0  0  0  0  0
   58.9500   30.2400   45.1740 C   0  0  0  0  0  0  0  0  0  0  0  0
   59.1290   28.5450   44.5990 S   0  0  0  0  0  0  0  0  0  0  0  0
   57.4650   28.4340   43.8450 C   0  0  0  0  0  0  0  0  0  0  0  0
   56.3940   28.6000   44.8840 C   0  0  0  0  0  0  0  0  0  0  0  0
   55.9300   29.7510   45.1000 O   0  0  0  0  0  0  0  0  0  0  0  0
   55.8600   27.4950   45.6230 N   0  0  0  0  0  0  0  0  0  0  0  0
   56.6440   26.4910   46.3300 C   0  0  0  0  0  0  0  0  0  0  0  0
   56.7340   25.2490   45.4890 C   0  0  0  0  0  0  0  0  0  0  0  0
   55.5720   24.6430   44.9840 C   0  0  0  0  0  0  0  0  0  0  0  0
   55.6580   23.4690   44.2270 C   0  0  0  0  0  0  0  0  0  0  0  0
   56.9080   22.8880   43.9640 C   0  0  0  0  0  0  0  0  0  0  0  0
   56.9900   21.6130   43.1760 C   0  0  0  0  0  0  0  0  0  0  0  0
   58.0670   23.4800   44.4890 C   0  0  0  0  0  0  0  0  0  0  0  0
   57.9810   24.6550   45.2440 C   0  0  0  0  0  0  0  0  0  0  0  0
   58.4360   31.2170   44.3820 N   0  0  0  0  0  0  0  0  0  0  0  0
   58.4840   32.3020   45.1750 C   0  0  0  0  0  0  0  0  0  0  0  0
   58.0590   33.5920   44.8700 C   0  0  0  0  0  0  0  0  0  0  0  0
   58.1980   34.5800   45.8620 C   0  0  0  0  0  0  0  0  0  0  0  0
   58.7570   34.2570   47.1190 C   0  0  0  0  0  0  0  0  0  0  0  0
   59.1820   32.9460   47.3940 C   0  0  0  0  0  0  0  0  0  0  0  0
   59.0200   31.9880   46.3890 C   0  0  0  0  0  0  0  0  0  0  0  0
   60.6089   27.0848   48.5716 H   0  0  0  0  0  0  0  0  0  0  0  0
   59.9818   26.3818   47.0422 H   0  0  0  0  0  0  0  0  0  0  0  0
   60.7171   28.0207   47.0422 H   0  0  0  0  0  0  0  0  0  0  0  0
   58.0137   29.7197   48.2985 H   0  0  0  0  0  0  0  0  0  0  0  0
   59.3330   29.1907   49.3921 H   0  0  0  0  0  0  0  0  0  0  0  0
   60.5676   30.6405   48.1020 H   0  0  0  0  0  0  0  0  0  0  0  0
   60.6696   29.1943   47.0216 H   0  0  0  0  0  0  0  0  0  0  0  0
   57.3588   29.2256   43.0886 H   0  0  0  0  0  0  0  0  0  0  0  0
   57.3545   27.4425   43.3816 H   0  0  0  0  0  0  0  0  0  0  0  0
   57.6551   26.8806   46.5194 H   0  0  0  0  0  0  0  0  0  0  0  0
   56.1597   26.2529   47.2885 H   0  0  0  0  0  0  0  0  0  0  0  0
   54.5888   25.0936   45.1846 H   0  0  0  0  0  0  0  0  0  0  0  0
   54.7426   23.0001   43.8368 H   0  0  0  0  0  0  0  0  0  0  0  0
   57.0450   20.7583   43.8662 H   0  0  0  0  0  0  0  0  0  0  0  0
   56.0963   21.5156   42.5422 H   0  0  0  0  0  0  0  0  0  0  0  0
   57.8889   21.6309   42.5422 H   0  0  0  0  0  0  0  0  0  0  0  0
   59.0483   23.0179   44.3060 H   0  0  0  0  0  0  0  0  0  0  0  0
   58.8953   25.1149   45.6472 H   0  0  0  0  0  0  0  0  0  0  0  0
   57.6288   33.8310   43.8862 H   0  0  0  0  0  0  0  0  0  0  0  0
   57.8696   35.6098   45.6579 H   0  0  0  0  0  0  0  0  0  0  0  0
   58.8602   35.0372   47.8876 H   0  0  0  0  0  0  0  0  0  0  0  0
   59.6262   32.6831   48.3654 H   0  0  0  0  0  0  0  0  0  0  0  0
  1  2  1  0
  2  3  1  0
  3  4  1  0
  4  5  1  0
  5  6  1  0
  6  7  1  0
  7  8  1  0
  8  9  1  0
  9 10  2  0
  9 11  1  0
 11 12  1  0
 12 13  1  0
 13 14  2  0
 14 15  1  0
 15 16  2  0
 16 17  1  0
 16 18  1  0
 18 19  2  0
  6 20  2  0
 20 21  1  0
 21 22  2  0
 22 23  1  0
 23 24  2  0
 24 25  1  0
 25 26  2  0
 26  5  1  0
 19 13  1  0
 26 21  1  0
  1 27  1  0
  1 28  1  0
  1 29  1  0
  3 30  1  0
  3 31  1  0
  4 32  1  0
  4 33  1  0
  8 34  1  0
  8 35  1  0
 12 36  1  0
 12 37  1  0
 14 38  1  0
 15 39  1  0
 17 40  1  0
 17 41  1  0
 17 42  1  0
 18 43  1  0
 19 44  1  0
 22 45  1  0
 23 46  1  0
 24 47  1  0
 25 48  1  0
M  CHG  1  11  -1
M  END
>  <UniqueID>  (32) 
29

>  <SMILES>  (32) 
COCCn1c(SCC(=O)[N-]Cc2ccc(C)cc2)nc2ccccc21

>  <Energy>  (32) 
76.93742584167464

>  <Genealogy>  (32) 
COCCn1c(SCC(=O)[N-]Cc2ccc(C)cc2)nc2ccccc21 (protonated)
COCCn1c(SCC(=O)[N-]Cc2ccc(C)cc2)nc2ccccc21 (3D coordinates assigned)
COCCn1c(SCC(=O)[N-]Cc2ccc(C)cc2)nc2ccccc21 (optimized conformer: 76.93742584167464 kcal/mol)

>  <smiles>  (32) 
COCCn1c(SCC(=O)NCc2ccc(C)cc2)nc2ccccc21

>  <score_type>  (32) 
oracle

>  <origin>  (32) 
adg

>  <m_score__min__energy>  (32) 
-9.8499999999999996

>  <m_primary>  (32) 
energy

$$$$
32:0
     RDKit          3D

 44 47  0  0  0  0  0  0  0  0999 V2000
   63.2410   31.9300   49.4000 C   0  0  0  0  0  0  0  0  0  0  0  0
   63.5840   33.2460   49.0760 C   0  0  0  0  0  0  0  0  0  0  0  0
   62.9900   33.8750   47.9770 C   0  0  0  0  0  0  0  0  0  0  0  0
   62.0460   33.1880   47.1940 C   0  0  0  0  0  0  0  0  0  0  0  0
   61.4230   33.8620   45.9990 C   0  0  0  0  0  0  0  0  0  0  0  0
   60.2240   34.6440   46.3850 N   0  0  0  0  0  0  0  0  0  0  0  0
   59.2390   34.7860   45.2870 C   0  0  0  0  0  0  0  0  0  0  0  0
   58.6110   33.4370   44.9020 C   0  0  0  0  0  0  0  0  0  0  0  0
   58.4220   32.5960   46.0880 N   0  0  0  0  0  0  0  0  0  0  0  0
   58.1380   31.1950   45.9200 C   0  0  0  0  0  0  0  0  0  0  0  0
   59.0230   30.2110   46.3790 C   0  0  0  0  0  0  0  0  0  0  0  0
   58.7200   28.8670   46.1760 C   0  0  0  0  0  0  0  0  0  0  0  0
   57.5390   28.5220   45.5050 C   0  0  0  0  0  0  0  0  0  0  0  0
   57.1570   27.1160   45.2550 C   0  0  0  0  0  0  0  0  0  0  0  0
   57.7680   26.2120   44.3880 C   0  0  0  0  0  0  0  0  0  0  0  0
   57.1620   24.9490   44.3830 C   0  0  0  0  0  0  0  0  0  0  0  0
   56.0750   24.8460   45.2400 C   0  0  0  0  0  0  0  0  0  0  0  0
   55.8700   26.3290   46.0030 S   0  0  0  0  0  0  0  0  0  0  0  0
   56.7240   29.5190   45.0630 N   0  0  0  0  0  0  0  0  0  0  0  0
   57.0140   30.8060   45.2600 N   0  0  0  0  0  0  0  0  0  0  0  0
   58.3580   33.2460   47.4000 C   0  0  0  0  0  0  0  0  0  0  0  0
   59.6040   34.1260   47.6340 C   0  0  0  0  0  0  0  0  0  0  0  0
   61.7090   31.8640   47.5240 C   0  0  0  0  0  0  0  0  0  0  0  0
   62.3060   31.2400   48.6250 C   0  0  0  0  0  0  0  0  0  0  0  0
   63.7078   31.4376   50.2658 H   0  0  0  0  0  0  0  0  0  0  0  0
   64.3219   33.7874   49.6861 H   0  0  0  0  0  0  0  0  0  0  0  0
   63.2623   34.9104   47.7246 H   0  0  0  0  0  0  0  0  0  0  0  0
   62.1612   34.5391   45.5444 H   0  0  0  0  0  0  0  0  0  0  0  0
   61.1149   33.0849   45.2840 H   0  0  0  0  0  0  0  0  0  0  0  0
   58.4410   35.4700   45.6115 H   0  0  0  0  0  0  0  0  0  0  0  0
   59.7657   35.1806   44.4056 H   0  0  0  0  0  0  0  0  0  0  0  0
   57.6352   33.6155   44.4267 H   0  0  0  0  0  0  0  0  0  0  0  0
   59.2860   32.9188   44.2049 H   0  0  0  0  0  0  0  0  0  0  0  0
   59.9506   30.4978   46.8960 H   0  0  0  0  0  0  0  0  0  0  0  0
   59.4014   28.0834   46.5390 H   0  0  0  0  0  0  0  0  0  0  0  0
   58.6407   26.4654   43.7682 H   0  0  0  0  0  0  0  0  0  0  0  0
   57.5150   24.1158   43.7576 H   0  0  0  0  0  0  0  0  0  0  0  0
   55.4558   23.9498   45.3930 H   0  0  0  0  0  0  0  0  0  0  0  0
   57.4572   33.8755   47.4476 H   0  0  0  0  0  0  0  0  0  0  0  0
   58.3223   32.4693   48.1782 H   0  0  0  0  0  0  0  0  0  0  0  0
   59.3090   34.9845   48.2552 H   0  0  0  0  0  0  0  0  0  0  0  0
   60.3563   33.4882   48.1211 H   0  0  0  0  0  0  0  0  0  0  0  0
   60.9741   31.3169   46.9152 H   0  0  0  0  0  0  0  0  0  0  0  0
   62.0385   30.2041   48.8807 H   0  0  0  0  0  0  0  0  0  0  0  0
  1  2  2  0
  2  3  1  0
  3  4  2  0
  4  5  1  0
  5  6  1  0
  6  7  1  0
  7  8  1  0
  8  9  1  0
  9 10  1  0
 10 11  2  0
 11 12  1  0
 12 13  2  0
 13 14  1  0
 14 15  2  0
 15 16  1  0
 16 17  2  0
 17 18  1  0
 13 19  1  0
 19 20  2  0
  9 21  1  0
 21 22  1  0
  4 23  1  0
 23 24  2  0
 24  1  1  0
 22  6  1  0
 20 10  1  0
 18 14  1  0
  1 25  1  0
  2 26  1  0
  3 27  1  0
  5 28  1  0
  5 29  1  0
  7 30  1  0
  7 31  1  0
  8 32  1  0
  8 33  1  0
 11 34  1  0
 12 35  1  0
 15 36  1  0
 16 37  1  0
 17 38  1  0
 21 39  1  0
 21 40  1  0
 22 41  1  0
 22 42  1  0
 23 43  1  0
 24 44  1  0
M  END
>  <UniqueID>  (33) 
30

>  <SMILES>  (33) 
c1ccc(CN2CCN(c3ccc(-c4cccs4)nn3)CC2)cc1

>  <Energy>  (33) 
87.20279290638058

>  <Genealogy>  (33) 
c1ccc(CN2CCN(c3ccc(-c4cccs4)nn3)CC2)cc1 (3D coordinates assigned)
c1ccc(CN2CCN(c3ccc(-c4cccs4)nn3)CC2)cc1 (nonaromatic ring conformer: 87.20279290638058 kcal/mol)

>  <smiles>  (33) 
c1ccc(CN2CCN(c3ccc(-c4cccs4)nn3)CC2)cc1

>  <score_type>  (33) 
oracle

>  <origin>  (33) 
adg

>  <m_score__min__energy>  (33) 
-8.3399999999999999

>  <m_primary>  (33) 
energy

$$$$
33:0
     RDKit          3D

 47 49  0  0  0  0  0  0  0  0999 V2000
   61.9980   33.5170   47.7630 C   0  0  0  0  0  0  0  0  0  0  0  0
   60.7520   34.1860   47.9130 O   0  0  0  0  0  0  0  0  0  0  0  0
   59.7460   34.1450   46.9430 C   0  0  0  0  0  0  0  0  0  0  0  0
   59.8240   34.9400   45.8380 N   0  0  0  0  0  0  0  0  0  0  0  0
   58.8720   34.9280   44.8700 C   0  0  0  0  0  0  0  0  0  0  0  0
   57.7710   34.0810   44.9850 C   0  0  0  0  0  0  0  0  0  0  0  0
   57.6600   33.2530   46.1030 C   0  0  0  0  0  0  0  0  0  0  0  0
   58.6450   33.2800   47.1010 C   0  0  0  0  0  0  0  0  0  0  0  0
   58.5230   32.3590   48.2910 C   0  0  0  0  0  0  0  0  0  0  0  0
   59.5060   31.2620   48.2000 N   0  0  0  0  0  0  0  0  0  0  0  0
   59.1350   30.0960   49.0190 C   0  0  0  0  0  0  0  0  0  0  0  0
   59.4940   28.8590   48.2170 C   0  0  0  0  0  0  0  0  0  0  0  0
   59.2960   29.2900   46.7630 C   0  0  1  0  0  0  0  0  0  0  0  0
   60.2260   28.4900   45.7840 C   0  0  0  0  0  0  0  0  0  0  0  0
   59.4550   27.5140   44.8900 C   0  0  0  0  0  0  0  0  0  0  0  0
   58.4000   28.2710   44.0740 C   0  0  0  0  0  0  0  0  0  0  0  0
   57.6240   29.2010   44.9110 N   0  0  0  0  0  0  0  0  0  0  0  0
   56.6640   30.0740   44.2730 C   0  0  0  0  0  0  0  0  0  0  0  0
   57.0390   30.9790   43.1380 C   0  0  0  0  0  0  0  0  0  0  0  0
   55.4660   30.0820   44.6710 O   0  0  0  0  0  0  0  0  0  0  0  0
   57.7920   29.1440   46.3730 C   0  0  0  0  0  0  0  0  0  0  0  0
   59.6820   30.7830   46.8160 C   0  0  0  0  0  0  0  0  0  0  0  0
   62.4156   33.2928   48.7556 H   0  0  0  0  0  0  0  0  0  0  0  0
   61.8462   32.5791   47.2087 H   0  0  0  0  0  0  0  0  0  0  0  0
   62.6959   34.1617   47.2087 H   0  0  0  0  0  0  0  0  0  0  0  0
   58.9696   35.5870   43.9947 H   0  0  0  0  0  0  0  0  0  0  0  0
   56.9977   34.0653   44.2028 H   0  0  0  0  0  0  0  0  0  0  0  0
   56.7976   32.5774   46.2017 H   0  0  0  0  0  0  0  0  0  0  0  0
   58.7047   32.9321   49.2122 H   0  0  0  0  0  0  0  0  0  0  0  0
   57.5108   31.9287   48.3049 H   0  0  0  0  0  0  0  0  0  0  0  0
   59.6932   30.1070   49.9668 H   0  0  0  0  0  0  0  0  0  0  0  0
   58.0617   30.1104   49.2595 H   0  0  0  0  0  0  0  0  0  0  0  0
   60.5382   28.5646   48.3988 H   0  0  0  0  0  0  0  0  0  0  0  0
   58.8807   27.9867   48.4871 H   0  0  0  0  0  0  0  0  0  0  0  0
   60.7589   29.2071   45.1422 H   0  0  0  0  0  0  0  0  0  0  0  0
   60.9182   27.8963   46.3991 H   0  0  0  0  0  0  0  0  0  0  0  0
   60.1567   27.0156   44.2050 H   0  0  0  0  0  0  0  0  0  0  0  0
   58.9541   26.7651   45.5211 H   0  0  0  0  0  0  0  0  0  0  0  0
   58.9056   28.8425   43.2817 H   0  0  0  0  0  0  0  0  0  0  0  0
   57.7042   27.5335   43.6475 H   0  0  0  0  0  0  0  0  0  0  0  0
   57.4312   31.9256   43.5381 H   0  0  0  0  0  0  0  0  0  0  0  0
   57.8102   30.4939   42.5216 H   0  0  0  0  0  0  0  0  0  0  0  0
   56.1507   31.1815   42.5216 H   0  0  0  0  0  0  0  0  0  0  0  0
   57.2186   29.9616   46.8342 H   0  0  0  0  0  0  0  0  0  0  0  0
   57.4269   28.1707   46.7326 H   0  0  0  0  0  0  0  0  0  0  0  0
   60.7317   30.9061   46.5112 H   0  0  0  0  0  0  0  0  0  0  0  0
   59.0440   31.3622   46.1322 H   0  0  0  0  0  0  0  0  0  0  0  0
  1  2  1  0
  2  3  1  0
  3  4  2  0
  4  5  1  0
  5  6  2  0
  6  7  1  0
  7  8  2  0
  8  9  1  0
  9 10  1  0
 10 11  1  0
 11 12  1  0
 13 12  1  1
 13 14  1  0
 14 15  1  0
 15 16  1  0
 16 17  1  0
 17 18  1  0
 18 19  1  0
 18 20  2  0
 17 21  1  0
 13 22  1  0
  8  3  1  0
 22 10  1  0
 21 13  1  0
  1 23  1  0
  1 24  1  0
  1 25  1  0
  5 26  1  0
  6 27  1  0
  7 28  1  0
  9 29  1  0
  9 30  1  0
 11 31  1  0
 11 32  1  0
 12 33  1  0
 12 34  1  0
 14 35  1  0
 14 36  1  0
 15 37  1  0
 15 38  1  0
 16 39  1  0
 16 40  1  0
 19 41  1  0
 19 42  1  0
 19 43  1  0
 21 44  1  0
 21 45  1  0
 22 46  1  0
 22 47  1  0
M  END
>  <UniqueID>  (34) 
31

>  <SMILES>  (34) 
COc1ncccc1CN1CC[C@]2(CCCN(C(C)=O)C2)C1

>  <Energy>  (34) 
54.17808810165529

>  <Genealogy>  (34) 
COc1ncccc1CN1CC[C@]2(CCCN(C(C)=O)C2)C1 (chirality)
COc1ncccc1CN1CC[C@]2(CCCN(C(C)=O)C2)C1 (3D coordinates assigned)
COc1ncccc1CN1CC[C@]2(CCCN(C(C)=O)C2)C1 (nonaromatic ring conformer: 54.17808810165529 kcal/mol)

>  <smiles>  (34) 
COc1ncccc1CN1CCC2(CCCN(C(C)=O)C2)C1

>  <score_type>  (34) 
oracle

>  <origin>  (34) 
adg

>  <m_score__min__energy>  (34) 
-7.4500000000000002

>  <m_primary>  (34) 
energy

$$$$
34:0
     RDKit          3D

 33 35  0  0  0  0  0  0  0  0999 V2000
   58.1710   27.1140   42.9830 C   0  0  0  0  0  0  0  0  0  0  0  0
   58.4480   28.1110   44.0630 C   0  0  0  0  0  0  0  0  0  0  0  0
   58.3530   29.4440   43.8960 N   0  0  0  0  0  0  0  0  0  0  0  0
   58.5550   30.0360   45.0640 N   0  0  0  0  0  0  0  0  0  0  0  0
   58.4960   31.4600   45.2600 C   0  0  0  0  0  0  0  0  0  0  0  0
   59.4810   32.1060   46.0250 C   0  0  0  0  0  0  0  0  0  0  0  0
   59.4210   33.4880   46.2310 C   0  0  0  0  0  0  0  0  0  0  0  0
   58.3730   34.2330   45.6830 C   0  0  0  0  0  0  0  0  0  0  0  0
   57.3810   33.5960   44.9340 C   0  0  0  0  0  0  0  0  0  0  0  0
   57.4380   32.2150   44.7240 C   0  0  0  0  0  0  0  0  0  0  0  0
   58.7650   29.0870   46.0050 C   0  0  0  0  0  0  0  0  0  0  0  0
   58.9130   29.3800   47.7340 Cl  0  0  0  0  0  0  0  0  0  0  0  0
   58.7070   27.8420   45.3980 C   0  0  0  0  0  0  0  0  0  0  0  0
   58.7460   26.5020   46.0730 C   0  0  0  0  0  0  0  0  0  0  0  0
   57.4360   25.8610   45.9950 N   0  0  0  0  0  0  0  0  0  0  0  0
   57.1840   24.5420   45.9450 C   0  0  0  0  0  0  0  0  0  0  0  0
   55.8180   24.3740   45.9380 C   0  0  0  0  0  0  0  0  0  0  0  0
   55.2130   25.5790   45.9900 N   0  0  0  0  0  0  0  0  0  0  0  0
   56.2320   26.4640   46.0270 C   0  0  0  0  0  0  0  0  0  0  0  0
   57.9026   26.1481   43.4357 H   0  0  0  0  0  0  0  0  0  0  0  0
   57.3380   27.4708   42.3595 H   0  0  0  0  0  0  0  0  0  0  0  0
   59.0687   26.9899   42.3595 H   0  0  0  0  0  0  0  0  0  0  0  0
   58.1430   29.9400   43.0010 H   0  0  0  0  0  0  0  0  0  0  0  0
   60.3034   31.5222   46.4641 H   0  0  0  0  0  0  0  0  0  0  0  0
   60.1995   33.9892   46.8250 H   0  0  0  0  0  0  0  0  0  0  0  0
   58.3295   35.3206   45.8416 H   0  0  0  0  0  0  0  0  0  0  0  0
   56.5532   34.1822   44.5085 H   0  0  0  0  0  0  0  0  0  0  0  0
   56.6520   31.7172   44.1371 H   0  0  0  0  0  0  0  0  0  0  0  0
   59.4924   25.8656   45.5750 H   0  0  0  0  0  0  0  0  0  0  0  0
   59.0164   26.6398   47.1303 H   0  0  0  0  0  0  0  0  0  0  0  0
   57.9357   23.7394   45.9150 H   0  0  0  0  0  0  0  0  0  0  0  0
   55.2987   23.4052   45.8964 H   0  0  0  0  0  0  0  0  0  0  0  0
   56.0945   27.5542   46.0776 H   0  0  0  0  0  0  0  0  0  0  0  0
  1  2  1  0
  2  3  2  0
  3  4  1  0
  4  5  1  0
  5  6  2  0
  6  7  1  0
  7  8  2  0
  8  9  1  0
  9 10  2  0
  4 11  1  0
 11 12  1  0
 11 13  2  0
 13 14  1  0
 14 15  1  0
 15 16  1  0
 16 17  2  0
 17 18  1  0
 18 19  2  0
 13  2  1  0
 19 15  1  0
 10  5  1  0
  1 20  1  0
  1 21  1  0
  1 22  1  0
  3 23  1  0
  6 24  1  0
  7 25  1  0
  8 26  1  0
  9 27  1  0
 10 28  1  0
 14 29  1  0
 14 30  1  0
 16 31  1  0
 17 32  1  0
 19 33  1  0
M  CHG  1   3   1
M  END
>  <UniqueID>  (35) 
32

>  <SMILES>  (35) 
Cc1[nH+]n(-c2ccccc2)c(Cl)c1Cn1ccnc1

>  <Energy>  (35) 
97.33462197693405

>  <Genealogy>  (35) 
Cc1[nH+]n(-c2ccccc2)c(Cl)c1Cn1ccnc1 (protonated)
Cc1[nH+]n(-c2ccccc2)c(Cl)c1Cn1ccnc1 (3D coordinates assigned)
Cc1[nH+]n(-c2ccccc2)c(Cl)c1Cn1ccnc1 (optimized conformer: 97.33462197693405 kcal/mol)

>  <smiles>  (35) 
Cc1nn(-c2ccccc2)c(Cl)c1Cn1ccnc1

>  <score_type>  (35) 
oracle

>  <origin>  (35) 
adg

>  <m_score__min__energy>  (35) 
-5.5999999999999996

>  <m_primary>  (35) 
energy

$$$$
35:0
     RDKit          3D

 22 23  0  0  0  0  0  0  0  0999 V2000
   56.4840   26.9450   44.6560 H   0  0  0  0  0  0  0  0  0  0  0  0
   56.8090   27.5950   45.4050 N   0  0  0  0  0  0  0  0  0  0  0  0
   56.8190   28.8830   45.2550 C   0  0  0  0  0  0  0  0  0  0  0  0
   55.7440   29.5790   44.8470 N   0  0  0  0  0  0  0  0  0  0  0  0
   56.1070   30.8540   44.8330 N   0  0  0  0  0  0  0  0  0  0  0  0
   57.3950   30.9110   45.2330 C   0  0  0  0  0  0  0  0  0  0  0  0
   58.1340   32.1800   45.3980 C   0  0  0  0  0  0  0  0  0  0  0  0
   58.4560   32.6310   46.6900 C   0  0  0  0  0  0  0  0  0  0  0  0
   58.1751   32.0265   47.5650 H   0  0  0  0  0  0  0  0  0  0  0  0
   59.1300   33.8410   46.8710 C   0  0  0  0  0  0  0  0  0  0  0  0
   59.3823   34.1822   47.8858 H   0  0  0  0  0  0  0  0  0  0  0  0
   59.4840   34.6180   45.7670 C   0  0  0  0  0  0  0  0  0  0  0  0
   60.0155   35.5701   45.9119 H   0  0  0  0  0  0  0  0  0  0  0  0
   59.1630   34.1860   44.4780 C   0  0  0  0  0  0  0  0  0  0  0  0
   59.4434   34.8002   43.6096 H   0  0  0  0  0  0  0  0  0  0  0  0
   58.4860   32.9750   44.2850 C   0  0  0  0  0  0  0  0  0  0  0  0
   58.1420   32.4650   42.6340 Cl  0  0  0  0  0  0  0  0  0  0  0  0
   57.8820   29.6780   45.4970 N   0  0  0  0  0  0  0  0  0  0  0  0
   59.2230   29.2940   45.9400 C   0  0  0  0  0  0  0  0  0  0  0  0
   59.2572   29.2842   47.0394 H   0  0  0  0  0  0  0  0  0  0  0  0
   59.4626   28.2911   45.5568 H   0  0  0  0  0  0  0  0  0  0  0  0
   59.9571   30.0180   45.5568 H   0  0  0  0  0  0  0  0  0  0  0  0
  1  2  1  0
  2  3  2  0
  3  4  1  0
  4  5  1  0
  5  6  2  0
  6  7  1  0
  7  8  2  0
  8  9  1  0
  8 10  1  0
 10 11  1  0
 10 12  2  0
 12 13  1  0
 12 14  1  0
 14 15  1  0
 14 16  2  0
 16 17  1  0
  6 18  1  0
 18 19  1  0
 19 20  1  0
 19 21  1  0
 19 22  1  0
 18  3  1  0
 16  7  1  0
M  CHG  1   4  -1
M  END
>  <UniqueID>  (36) 
33

>  <SMILES>  (36) 
[H]/N=c1/[n-]nc(-c2ccccc2Cl)n1C

>  <Energy>  (36) 
65.0687348166596

>  <Genealogy>  (36) 
Cn1c(-c2ccccc2Cl)n[n-]c1=N (protonated)
[H]/N=c1/[n-]nc(-c2ccccc2Cl)n1C (cis-trans isomerization)
[H]/N=c1/[n-]nc(-c2ccccc2Cl)n1C (3D coordinates assigned)
[H]/N=c1/[n-]nc(-c2ccccc2Cl)n1C (optimized conformer: 65.0687348166596 kcal/mol)

>  <smiles>  (36) 
Cn1c(-c2ccccc2Cl)n[nH]c1=N

>  <score_type>  (36) 
oracle

>  <origin>  (36) 
adg

>  <m_score__min__energy>  (36) 
-8.1899999999999995

>  <m_primary>  (36) 
energy

$$$$
36:0
     RDKit          3D

 39 40  0  0  0  0  0  0  0  0999 V2000
   59.0524   29.0937   46.4585 H   0  0  0  0  0  0  0  0  0  0  0  0
   58.3700   29.5860   45.7500 C   0  0  0  0  0  0  0  0  0  0  0  0
   58.5590   30.8910   45.4200 N   0  0  0  0  0  0  0  0  0  0  0  0
   57.7440   31.5490   44.5510 C   0  0  0  0  0  0  0  0  0  0  0  0
   58.0000   32.8000   44.2830 N   0  0  0  0  0  0  0  0  0  0  0  0
   57.3640   33.9800   44.8700 C   0  0  0  0  0  0  0  0  0  0  0  0
   56.2713   33.8712   44.8051 H   0  0  0  0  0  0  0  0  0  0  0  0
   57.6923   34.8715   44.3155 H   0  0  0  0  0  0  0  0  0  0  0  0
   57.7680   34.1380   46.3420 C   0  0  0  0  0  0  0  0  0  0  0  0
   56.8760   34.0225   46.9752 H   0  0  0  0  0  0  0  0  0  0  0  0
   58.2098   35.1357   46.4812 H   0  0  0  0  0  0  0  0  0  0  0  0
   58.7660   33.1220   46.7230 N   0  0  0  0  0  0  0  0  0  0  0  0
   58.2850   32.2540   47.0610 H   0  0  0  0  0  0  0  0  0  0  0  0
   59.3340   32.8720   45.8780 H   0  0  0  0  0  0  0  0  0  0  0  0
   59.6840   33.6210   47.7600 C   0  0  0  0  0  0  0  0  0  0  0  0
   59.6543   32.9367   48.6208 H   0  0  0  0  0  0  0  0  0  0  0  0
   59.3585   34.6319   48.0465 H   0  0  0  0  0  0  0  0  0  0  0  0
   61.1030   33.7110   47.2570 C   0  0  0  0  0  0  0  0  0  0  0  0
   61.3140   33.8330   46.0180 O   0  0  0  0  0  0  0  0  0  0  0  0
   62.2140   33.6160   48.1640 N   0  0  0  0  0  0  0  0  0  0  0  0
   62.3160   34.5390   49.2990 C   0  0  0  0  0  0  0  0  0  0  0  0
   62.7953   35.4729   48.9701 H   0  0  0  0  0  0  0  0  0  0  0  0
   61.3093   34.7591   49.6840 H   0  0  0  0  0  0  0  0  0  0  0  0
   63.1570   33.8960   50.4070 C   0  0  0  0  0  0  0  0  0  0  0  0
   63.3351   34.6370   51.2002 H   0  0  0  0  0  0  0  0  0  0  0  0
   62.6091   33.0300   50.8068 H   0  0  0  0  0  0  0  0  0  0  0  0
   64.4020   33.4500   49.9010 O   0  0  0  0  0  0  0  0  0  0  0  0
   64.1940   32.4120   48.9600 C   0  0  0  0  0  0  0  0  0  0  0  0
   65.1690   32.0167   48.6390 H   0  0  0  0  0  0  0  0  0  0  0  0
   63.5958   31.6214   49.4366 H   0  0  0  0  0  0  0  0  0  0  0  0
   63.4340   32.9270   47.7340 C   0  0  0  0  0  0  0  0  0  0  0  0
   64.0723   33.6275   47.1755 H   0  0  0  0  0  0  0  0  0  0  0  0
   63.1652   32.0780   47.0883 H   0  0  0  0  0  0  0  0  0  0  0  0
   56.6570   30.8550   43.9740 C   0  0  0  0  0  0  0  0  0  0  0  0
   55.9795   31.3678   43.2754 H   0  0  0  0  0  0  0  0  0  0  0  0
   56.4500   29.5130   44.2980 C   0  0  0  0  0  0  0  0  0  0  0  0
   55.6094   28.9624   43.8505 H   0  0  0  0  0  0  0  0  0  0  0  0
   57.3100   28.8700   45.1900 C   0  0  0  0  0  0  0  0  0  0  0  0
   57.0390   27.0340   45.6400 Br  0  0  0  0  0  0  0  0  0  0  0  0
  1  2  1  0
  2  3  1  0
  3  4  1  0
  4  5  2  0
  5  6  1  0
  6  7  1  0
  6  8  1  0
  6  9  1  0
  9 10  1  0
  9 11  1  0
  9 12  1  0
 12 13  1  0
 12 14  1  0
 12 15  1  0
 15 16  1  0
 15 17  1  0
 15 18  1  0
 18 19  2  0
 18 20  1  0
 20 21  1  0
 21 22  1  0
 21 23  1  0
 21 24  1  0
 24 25  1  0
 24 26  1  0
 24 27  1  0
 27 28  1  0
 28 29  1  0
 28 30  1  0
 28 31  1  0
 31 32  1  0
 31 33  1  0
  4 34  1  0
 34 35  1  0
 34 36  2  0
 36 37  1  0
 36 38  1  0
 38 39  1  0
 38  2  2  0
 31 20  1  0
M  CHG  2   3  -1  12   1
M  END
>  <UniqueID>  (37) 
34

>  <SMILES>  (37) 
O=C(C[NH2+]CC/N=c1\ccc(Br)c[n-]1)N1CCOCC1

>  <Energy>  (37) 
41.64601927759073

>  <Genealogy>  (37) 
O=C(C[NH2+]CCN=c1ccc(Br)c[n-]1)N1CCOCC1 (protonated)
O=C(C[NH2+]CC/N=c1\ccc(Br)c[n-]1)N1CCOCC1 (cis-trans isomerization)
O=C(C[NH2+]CC/N=c1\ccc(Br)c[n-]1)N1CCOCC1 (3D coordinates assigned)
O=C(C[NH2+]CC/N=c1\ccc(Br)c[n-]1)N1CCOCC1 (nonaromatic ring conformer: 41.64601927759073 kcal/mol)

>  <smiles>  (37) 
O=C(CNCCN=c1ccc(Br)c[nH]1)N1CCOCC1

>  <score_type>  (37) 
oracle

>  <origin>  (37) 
adg

>  <m_score__min__energy>  (37) 
-5.8799999999999999

>  <m_primary>  (37) 
energy

$$$$
37:0
     RDKit          3D

 40 42  0  0  0  0  0  0  0  0999 V2000
   56.9930   28.6810   42.8370 O   0  0  0  0  0  0  0  0  0  0  0  0
   56.9470   29.3090   43.9280 C   0  0  0  0  0  0  0  0  0  0  0  0
   56.9340   30.8090   43.9130 C   0  0  0  0  0  0  0  0  0  0  0  0
   56.9840   31.3240   45.2430 O   0  0  0  0  0  0  0  0  0  0  0  0
   57.9000   32.2810   45.7170 C   0  0  0  0  0  0  0  0  0  0  0  0
   57.6720   33.6650   45.5700 C   0  0  0  0  0  0  0  0  0  0  0  0
   58.5840   34.5910   46.0810 C   0  0  0  0  0  0  0  0  0  0  0  0
   59.7300   34.1530   46.7410 C   0  0  0  0  0  0  0  0  0  0  0  0
   59.9740   32.7870   46.8890 C   0  0  0  0  0  0  0  0  0  0  0  0
   59.0710   31.8400   46.3720 C   0  0  0  0  0  0  0  0  0  0  0  0
   59.3540   30.3950   46.5430 C   0  0  0  0  0  0  0  0  0  0  0  0
   58.9100   29.7170   47.6920 C   0  0  0  0  0  0  0  0  0  0  0  0
   59.1790   28.3540   47.8550 C   0  0  0  0  0  0  0  0  0  0  0  0
   59.8960   27.6600   46.8790 C   0  0  0  0  0  0  0  0  0  0  0  0
   60.3490   28.3260   45.7380 C   0  0  0  0  0  0  0  0  0  0  0  0
   60.0830   29.6880   45.5690 C   0  0  0  0  0  0  0  0  0  0  0  0
   56.8730   28.6070   45.1790 N   0  0  0  0  0  0  0  0  0  0  0  0
   56.9940   27.1800   45.3100 C   0  0  0  0  0  0  0  0  0  0  0  0
   56.2980   26.4730   46.3090 C   0  0  0  0  0  0  0  0  0  0  0  0
   56.4160   25.0830   46.3990 C   0  0  0  0  0  0  0  0  0  0  0  0
   57.2150   24.3850   45.4890 C   0  0  0  0  0  0  0  0  0  0  0  0
   57.3730   22.4850   45.6140 Br  0  0  0  0  0  0  0  0  0  0  0  0
   57.8920   25.0780   44.4810 C   0  0  0  0  0  0  0  0  0  0  0  0
   57.7750   26.4680   44.3870 C   0  0  0  0  0  0  0  0  0  0  0  0
   57.8070   31.1727   43.3512 H   0  0  0  0  0  0  0  0  0  0  0  0
   56.0046   31.1513   43.4344 H   0  0  0  0  0  0  0  0  0  0  0  0
   56.7695   34.0176   45.0492 H   0  0  0  0  0  0  0  0  0  0  0  0
   58.3971   35.6685   45.9621 H   0  0  0  0  0  0  0  0  0  0  0  0
   60.4439   34.8853   47.1462 H   0  0  0  0  0  0  0  0  0  0  0  0
   60.8793   32.4480   47.4139 H   0  0  0  0  0  0  0  0  0  0  0  0
   58.3487   30.2608   48.4661 H   0  0  0  0  0  0  0  0  0  0  0  0
   58.8249   27.8282   48.7539 H   0  0  0  0  0  0  0  0  0  0  0  0
   60.1044   26.5877   47.0086 H   0  0  0  0  0  0  0  0  0  0  0  0
   60.9160   27.7780   44.9711 H   0  0  0  0  0  0  0  0  0  0  0  0
   60.4452   30.2093   44.6706 H   0  0  0  0  0  0  0  0  0  0  0  0
   56.6110   29.1550   46.0300 H   0  0  0  0  0  0  0  0  0  0  0  0
   55.6593   27.0162   47.0210 H   0  0  0  0  0  0  0  0  0  0  0  0
   55.8785   24.5369   47.1883 H   0  0  0  0  0  0  0  0  0  0  0  0
   58.5172   24.5292   43.7613 H   0  0  0  0  0  0  0  0  0  0  0  0
   58.2988   27.0072   43.5839 H   0  0  0  0  0  0  0  0  0  0  0  0
  1  2  2  0
  2  3  1  0
  3  4  1  0
  4  5  1  0
  5  6  2  0
  6  7  1  0
  7  8  2  0
  8  9  1  0
  9 10  2  0
 10 11  1  0
 11 12  2  0
 12 13  1  0
 13 14  2  0
 14 15  1  0
 15 16  2  0
  2 17  1  0
 17 18  1  0
 18 19  2  0
 19 20  1  0
 20 21  2  0
 21 22  1  0
 21 23  1  0
 23 24  2  0
 10  5  1  0
 16 11  1  0
 24 18  1  0
  3 25  1  0
  3 26  1  0
  6 27  1  0
  7 28  1  0
  8 29  1  0
  9 30  1  0
 12 31  1  0
 13 32  1  0
 14 33  1  0
 15 34  1  0
 16 35  1  0
 17 36  1  0
 19 37  1  0
 20 38  1  0
 23 39  1  0
 24 40  1  0
M  END
>  <UniqueID>  (38) 
35

>  <SMILES>  (38) 
O=C(COc1ccccc1-c1ccccc1)Nc1ccc(Br)cc1

>  <Energy>  (38) 
51.28520880499237

>  <Genealogy>  (38) 
O=C(COc1ccccc1-c1ccccc1)Nc1ccc(Br)cc1 (3D coordinates assigned)
O=C(COc1ccccc1-c1ccccc1)Nc1ccc(Br)cc1 (optimized conformer: 51.28520880499237 kcal/mol)

>  <smiles>  (38) 
O=C(COc1ccccc1-c1ccccc1)Nc1ccc(Br)cc1

>  <score_type>  (38) 
oracle

>  <origin>  (38) 
adg

>  <m_score__min__energy>  (38) 
-8.1400000000000006

>  <m_primary>  (38) 
energy

$$$$
38:0
     RDKit          3D

 36 39  0  0  0  0  0  0  0  0999 V2000
   55.5280   29.8810   44.9060 N   0  0  0  0  0  0  0  0  0  0  0  0
   56.5160   30.7590   44.2820 C   0  0  0  0  0  0  0  0  0  0  0  0
   57.6050   31.1220   45.2540 C   0  0  0  0  0  0  0  0  0  0  0  0
   58.2770   32.3470   45.1510 C   0  0  0  0  0  0  0  0  0  0  0  0
   59.2580   32.6720   46.0880 C   0  0  0  0  0  0  0  0  0  0  0  0
   59.5560   31.7820   47.1300 C   0  0  0  0  0  0  0  0  0  0  0  0
   60.5910   32.1100   48.1310 C   0  0  0  0  0  0  0  0  0  0  0  0
   60.4980   32.1080   49.5350 C   0  0  0  0  0  0  0  0  0  0  0  0
   59.3730   31.6090   50.3560 C   0  0  0  0  0  0  0  0  0  0  0  0
   58.4450   32.5160   50.8910 C   0  0  0  0  0  0  0  0  0  0  0  0
   57.3830   32.0600   51.6780 C   0  0  0  0  0  0  0  0  0  0  0  0
   57.2470   30.6950   51.9480 C   0  0  0  0  0  0  0  0  0  0  0  0
   56.2170   30.2540   52.7130 F   0  0  0  0  0  0  0  0  0  0  0  0
   58.1780   29.7870   51.4370 C   0  0  0  0  0  0  0  0  0  0  0  0
   59.2410   30.2390   50.6500 C   0  0  0  0  0  0  0  0  0  0  0  0
   61.6350   32.6210   50.0860 N   0  0  0  0  0  0  0  0  0  0  0  0
   62.3760   32.8960   48.9970 C   0  0  0  0  0  0  0  0  0  0  0  0
   63.8720   33.6250   48.8120 S   0  0  0  0  0  0  0  0  0  0  0  0
   63.7350   33.5590   47.1040 C   0  0  0  0  0  0  0  0  0  0  0  0
   62.5090   32.9750   46.7550 C   0  0  0  0  0  0  0  0  0  0  0  0
   61.7990   32.6140   47.8480 N   0  0  0  0  0  0  0  0  0  0  0  0
   58.8580   30.5690   47.1990 C   0  0  0  0  0  0  0  0  0  0  0  0
   57.9040   30.2740   46.2750 N   0  0  0  0  0  0  0  0  0  0  0  0
   55.8020   29.7220   45.9040 H   0  0  0  0  0  0  0  0  0  0  0  0
   54.6000   30.3630   44.9050 H   0  0  0  0  0  0  0  0  0  0  0  0
   56.9616   30.2429   43.4189 H   0  0  0  0  0  0  0  0  0  0  0  0
   56.0112   31.6820   43.9607 H   0  0  0  0  0  0  0  0  0  0  0  0
   58.0331   33.0467   44.3380 H   0  0  0  0  0  0  0  0  0  0  0  0
   59.7982   33.6270   46.0095 H   0  0  0  0  0  0  0  0  0  0  0  0
   58.5538   33.5920   50.6900 H   0  0  0  0  0  0  0  0  0  0  0  0
   56.6538   32.7759   52.0851 H   0  0  0  0  0  0  0  0  0  0  0  0
   58.0741   28.7138   51.6546 H   0  0  0  0  0  0  0  0  0  0  0  0
   59.9772   29.5213   50.2590 H   0  0  0  0  0  0  0  0  0  0  0  0
   64.4921   33.9192   46.3920 H   0  0  0  0  0  0  0  0  0  0  0  0
   62.1668   32.8285   45.7199 H   0  0  0  0  0  0  0  0  0  0  0  0
   59.0822   29.8527   48.0031 H   0  0  0  0  0  0  0  0  0  0  0  0
  1  2  1  0
  2  3  1  0
  3  4  2  0
  4  5  1  0
  5  6  2  0
  6  7  1  0
  7  8  2  0
  8  9  1  0
  9 10  2  0
 10 11  1  0
 11 12  2  0
 12 13  1  0
 12 14  1  0
 14 15  2  0
  8 16  1  0
 16 17  2  0
 17 18  1  0
 18 19  1  0
 19 20  2  0
 20 21  1  0
  6 22  1  0
 22 23  2  0
 23  3  1  0
 21  7  1  0
 15  9  1  0
 21 17  1  0
  1 24  1  0
  1 25  1  0
  2 26  1  0
  2 27  1  0
  4 28  1  0
  5 29  1  0
 10 30  1  0
 11 31  1  0
 14 32  1  0
 15 33  1  0
 19 34  1  0
 20 35  1  0
 22 36  1  0
M  END
>  <UniqueID>  (39) 
36

>  <SMILES>  (39) 
NCc1ccc(-c2c(-c3ccc(F)cc3)nc3sccn23)cn1

>  <Energy>  (39) 
125.92294097713523

>  <Genealogy>  (39) 
NCc1ccc(-c2c(-c3ccc(F)cc3)nc3sccn23)cn1 (3D coordinates assigned)
NCc1ccc(-c2c(-c3ccc(F)cc3)nc3sccn23)cn1 (optimized conformer: 125.92294097713523 kcal/mol)

>  <smiles>  (39) 
NCc1ccc(-c2c(-c3ccc(F)cc3)nc3sccn23)cn1

>  <score_type>  (39) 
oracle

>  <origin>  (39) 
adg

>  <m_score__min__energy>  (39) 
-7.0300000000000002

>  <m_primary>  (39) 
energy

$$$$
39:0
     RDKit          3D

 24 25  0  0  0  0  0  0  0  0999 V2000
   57.7930   32.1930   42.1100 N   0  0  0  0  0  0  0  0  0  0  0  0
   58.1160   32.6010   43.1440 C   0  0  0  0  0  0  0  0  0  0  0  0
   58.5170   33.1090   44.4340 C   0  0  0  0  0  0  0  0  0  0  0  0
   58.9630   34.4360   44.5190 C   0  0  0  0  0  0  0  0  0  0  0  0
   59.2950   34.9920   45.7570 C   0  0  0  0  0  0  0  0  0  0  0  0
   59.1750   34.2310   46.9190 C   0  0  0  0  0  0  0  0  0  0  0  0
   58.7320   32.9080   46.8500 C   0  0  0  0  0  0  0  0  0  0  0  0
   58.4130   32.3260   45.6100 C   0  0  0  0  0  0  0  0  0  0  0  0
   57.9570   30.9170   45.5840 C   0  0  0  0  0  0  0  0  0  0  0  0
   56.7450   30.6170   45.0480 N   0  0  0  0  0  0  0  0  0  0  0  0
   56.2780   29.3440   45.0120 C   0  0  0  0  0  0  0  0  0  0  0  0
   55.1480   29.1230   44.5000 O   0  0  0  0  0  0  0  0  0  0  0  0
   57.0530   28.2950   45.5450 C   0  0  0  0  0  0  0  0  0  0  0  0
   56.6040   26.9220   45.5300 N   0  0  0  0  0  0  0  0  0  0  0  0
   57.3570   26.0170   45.1150 O   0  0  0  0  0  0  0  0  0  0  0  0
   55.3450   26.5800   45.9650 O   0  0  0  0  0  0  0  0  0  0  0  0
   58.2940   28.6320   46.1080 C   0  0  0  0  0  0  0  0  0  0  0  0
   58.7180   29.9230   46.1240 N   0  0  0  0  0  0  0  0  0  0  0  0
   59.0519   35.0425   43.6057 H   0  0  0  0  0  0  0  0  0  0  0  0
   59.6514   36.0311   45.8150 H   0  0  0  0  0  0  0  0  0  0  0  0
   59.4300   34.6738   47.8931 H   0  0  0  0  0  0  0  0  0  0  0  0
   58.6319   32.3170   47.7723 H   0  0  0  0  0  0  0  0  0  0  0  0
   58.9287   27.8443   46.5400 H   0  0  0  0  0  0  0  0  0  0  0  0
   59.6300   30.1440   46.5810 H   0  0  0  0  0  0  0  0  0  0  0  0
  1  2  3  0
  2  3  1  0
  3  4  2  0
  4  5  1  0
  5  6  2  0
  6  7  1  0
  7  8  2  0
  8  9  1  0
  9 10  2  0
 10 11  1  0
 11 12  2  0
 11 13  1  0
 13 14  1  0
 14 15  2  0
 14 16  1  0
 13 17  2  0
 17 18  1  0
  8  3  1  0
 18  9  1  0
  4 19  1  0
  5 20  1  0
  6 21  1  0
  7 22  1  0
 17 23  1  0
 18 24  1  0
M  CHG  2  14   1  16  -1
M  END
>  <UniqueID>  (40) 
37

>  <SMILES>  (40) 
N#Cc1ccccc1-c1nc(=O)c([N+](=O)[O-])c[nH]1

>  <Energy>  (40) 
34.212070270306114

>  <Genealogy>  (40) 
N#Cc1ccccc1-c1nc(=O)c([N+](=O)[O-])c[nH]1 (3D coordinates assigned)
N#Cc1ccccc1-c1nc(=O)c([N+](=O)[O-])c[nH]1 (optimized conformer: 34.212070270306114 kcal/mol)

>  <smiles>  (40) 
N#Cc1ccccc1-c1nc(=O)c([N+](=O)[O-])c[nH]1

>  <score_type>  (40) 
oracle

>  <origin>  (40) 
adg

>  <m_score__min__energy>  (40) 
-7.1299999999999999

>  <m_primary>  (40) 
energy

$$$$
40:0
     RDKit          3D

 37 37  0  0  0  0  0  0  0  0999 V2000
   56.3518   31.4340   42.2661 H   0  0  0  0  0  0  0  0  0  0  0  0
   57.0140   31.2240   43.1190 C   0  0  0  0  0  0  0  0  0  0  0  0
   56.7120   30.0280   43.9310 C   0  0  0  0  0  0  0  0  0  0  0  0
   55.7790   30.0940   44.7740 O   0  0  0  0  0  0  0  0  0  0  0  0
   57.4340   28.7190   43.7340 C   0  0  0  0  0  0  0  0  0  0  0  0
   57.8240   28.6737   42.7065 H   0  0  0  0  0  0  0  0  0  0  0  0
   56.7259   27.8963   43.9123 H   0  0  0  0  0  0  0  0  0  0  0  0
   58.6070   28.5840   44.7260 C   0  0  0  0  0  0  0  0  0  0  0  0
   59.3044   29.4167   44.5522 H   0  0  0  0  0  0  0  0  0  0  0  0
   59.0662   27.6012   44.5434 H   0  0  0  0  0  0  0  0  0  0  0  0
   58.1980   28.6080   46.1530 N   0  0  0  0  0  0  0  0  0  0  0  0
   58.8630   29.6960   46.9040 C   0  0  0  0  0  0  0  0  0  0  0  0
   59.2191   29.3055   47.8687 H   0  0  0  0  0  0  0  0  0  0  0  0
   58.1408   30.5091   47.0690 H   0  0  0  0  0  0  0  0  0  0  0  0
   60.0490   30.2400   46.1130 C   0  0  0  0  0  0  0  0  0  0  0  0
   60.8227   30.5949   46.8098 H   0  0  0  0  0  0  0  0  0  0  0  0
   60.4641   29.4423   45.4795 H   0  0  0  0  0  0  0  0  0  0  0  0
   59.7152   31.0750   45.4795 H   0  0  0  0  0  0  0  0  0  0  0  0
   58.3340   27.3050   46.8490 C   0  0  0  0  0  0  0  0  0  0  0  0
   58.1821   27.4608   47.9273 H   0  0  0  0  0  0  0  0  0  0  0  0
   57.5799   26.6189   46.4360 H   0  0  0  0  0  0  0  0  0  0  0  0
   59.7110   26.6800   46.6300 C   0  0  0  0  0  0  0  0  0  0  0  0
   60.1768   26.4686   47.6038 H   0  0  0  0  0  0  0  0  0  0  0  0
   59.6026   25.7429   46.0643 H   0  0  0  0  0  0  0  0  0  0  0  0
   60.3450   27.3786   46.0643 H   0  0  0  0  0  0  0  0  0  0  0  0
   58.0290   32.0770   43.3340 C   0  0  0  0  0  0  0  0  0  0  0  0
   58.7892   32.1678   42.5441 H   0  0  0  0  0  0  0  0  0  0  0  0
   58.2070   32.9040   44.5470 C   0  0  0  0  0  0  0  0  0  0  0  0
   57.4170   32.7200   45.6940 C   0  0  0  0  0  0  0  0  0  0  0  0
   56.6526   31.9292   45.7120 H   0  0  0  0  0  0  0  0  0  0  0  0
   57.5940   33.5160   46.7820 N   0  0  0  0  0  0  0  0  0  0  0  0
   58.5200   34.5110   46.7960 C   0  0  0  0  0  0  0  0  0  0  0  0
   58.6484   35.1293   47.6967 H   0  0  0  0  0  0  0  0  0  0  0  0
   59.3080   34.7490   45.6690 C   0  0  0  0  0  0  0  0  0  0  0  0
   60.0514   35.5598   45.6720 H   0  0  0  0  0  0  0  0  0  0  0  0
   59.1430   33.9470   44.5370 C   0  0  0  0  0  0  0  0  0  0  0  0
   59.7480   34.1343   43.6376 H   0  0  0  0  0  0  0  0  0  0  0  0
  1  2  1  0
  2  3  1  0
  3  4  2  0
  3  5  1  0
  5  6  1  0
  5  7  1  0
  5  8  1  0
  8  9  1  0
  8 10  1  0
  8 11  1  0
 11 12  1  0
 12 13  1  0
 12 14  1  0
 12 15  1  0
 15 16  1  0
 15 17  1  0
 15 18  1  0
 11 19  1  0
 19 20  1  0
 19 21  1  0
 19 22  1  0
 22 23  1  0
 22 24  1  0
 22 25  1  0
  2 26  2  0
 26 27  1  0
 26 28  1  0
 28 29  2  0
 29 30  1  0
 29 31  1  0
 31 32  2  0
 32 33  1  0
 32 34  1  0
 34 35  1  0
 34 36  2  0
 36 37  1  0
 36 28  1  0
M  END
>  <UniqueID>  (41) 
38

>  <SMILES>  (41) 
CCN(CC)CCC(=O)/C=C\c1cccnc1

>  <Energy>  (41) 
43.924355872846846

>  <Genealogy>  (41) 
CCN(CC)CCC(=O)/C=C\c1cccnc1 (cis-trans isomerization)
CCN(CC)CCC(=O)/C=C\c1cccnc1 (3D coordinates assigned)
CCN(CC)CCC(=O)/C=C\c1cccnc1 (optimized conformer: 43.924355872846846 kcal/mol)

>  <smiles>  (41) 
CCN(CC)CCC(=O)C=Cc1cccnc1

>  <score_type>  (41) 
oracle

>  <origin>  (41) 
adg

>  <m_score__min__energy>  (41) 
-6.2800000000000002

>  <m_primary>  (41) 
energy

$$$$
41:0
     RDKit          3D

 53 55  0  0  0  0  0  0  0  0999 V2000
   56.3580   28.9990   45.2430 C   0  0  0  0  0  0  0  0  0  0  0  0
   55.6230   30.0200   44.6110 O   0  0  0  0  0  0  0  0  0  0  0  0
   56.2680   30.3910   43.4110 C   0  0  0  0  0  0  0  0  0  0  0  0
   57.4900   31.2460   43.7400 C   0  0  0  0  0  0  0  0  0  0  0  0
   57.5240   31.5720   45.1300 O   0  0  0  0  0  0  0  0  0  0  0  0
   58.3130   32.5740   45.7190 C   0  0  0  0  0  0  0  0  0  0  0  0
   58.0930   33.9440   45.4770 C   0  0  0  0  0  0  0  0  0  0  0  0
   58.8850   34.9080   46.1060 C   0  0  0  0  0  0  0  0  0  0  0  0
   59.8990   34.5210   46.9820 C   0  0  0  0  0  0  0  0  0  0  0  0
   60.1270   33.1670   47.2300 C   0  0  0  0  0  0  0  0  0  0  0  0
   59.3430   32.1890   46.6000 C   0  0  0  0  0  0  0  0  0  0  0  0
   59.6090   30.8010   46.8490 N   0  0  0  0  0  0  0  0  0  0  0  0
   60.5450   30.0690   45.9910 C   0  0  0  0  0  0  0  0  0  0  0  0
   59.9080   28.7560   45.5300 C   0  0  0  0  0  0  0  0  0  0  0  0
   59.3050   28.0220   46.6560 N   0  0  0  0  0  0  0  0  0  0  0  0
   59.0250   26.6180   46.5130 C   0  0  0  0  0  0  0  0  0  0  0  0
   59.3380   25.8250   47.4390 O   0  0  0  0  0  0  0  0  0  0  0  0
   58.3590   26.0910   45.3040 C   0  0  0  0  0  0  0  0  0  0  0  0
   58.0990   26.7850   44.1340 C   0  0  0  0  0  0  0  0  0  0  0  0
   57.3930   25.9900   43.3090 N   0  0  0  0  0  0  0  0  0  0  0  0
   57.1870   24.8260   43.9050 N   0  0  0  0  0  0  0  0  0  0  0  0
   56.4280   23.7280   43.3130 C   0  0  0  0  0  0  0  0  0  0  0  0
   57.7680   24.8460   45.1240 C   0  0  0  0  0  0  0  0  0  0  0  0
   57.7040   23.7340   46.1300 C   0  0  0  0  0  0  0  0  0  0  0  0
   59.2650   28.6250   47.9950 C   0  0  0  0  0  0  0  0  0  0  0  0
   58.8640   30.1020   47.9070 C   0  0  0  0  0  0  0  0  0  0  0  0
   56.2774   29.1109   46.3343 H   0  0  0  0  0  0  0  0  0  0  0  0
   55.9565   28.0194   44.9442 H   0  0  0  0  0  0  0  0  0  0  0  0
   57.4143   29.0689   44.9442 H   0  0  0  0  0  0  0  0  0  0  0  0
   56.5862   29.4876   42.8700 H   0  0  0  0  0  0  0  0  0  0  0  0
   55.5735   30.9665   42.7813 H   0  0  0  0  0  0  0  0  0  0  0  0
   58.4011   30.6879   43.4785 H   0  0  0  0  0  0  0  0  0  0  0  0
   57.4322   32.1796   43.1611 H   0  0  0  0  0  0  0  0  0  0  0  0
   57.2935   34.2566   44.7892 H   0  0  0  0  0  0  0  0  0  0  0  0
   58.7082   35.9758   45.9097 H   0  0  0  0  0  0  0  0  0  0  0  0
   60.5188   35.2830   47.4772 H   0  0  0  0  0  0  0  0  0  0  0  0
   60.9258   32.8648   47.9232 H   0  0  0  0  0  0  0  0  0  0  0  0
   60.7918   30.6833   45.1125 H   0  0  0  0  0  0  0  0  0  0  0  0
   61.4611   29.8484   46.5585 H   0  0  0  0  0  0  0  0  0  0  0  0
   59.1259   28.9792   44.7894 H   0  0  0  0  0  0  0  0  0  0  0  0
   60.6960   28.1264   45.0910 H   0  0  0  0  0  0  0  0  0  0  0  0
   58.4168   27.8151   43.9153 H   0  0  0  0  0  0  0  0  0  0  0  0
   57.0390   26.2510   42.3620 H   0  0  0  0  0  0  0  0  0  0  0  0
   55.9983   23.1064   44.1124 H   0  0  0  0  0  0  0  0  0  0  0  0
   55.6181   24.1359   42.6903 H   0  0  0  0  0  0  0  0  0  0  0  0
   57.0958   23.1145   42.6903 H   0  0  0  0  0  0  0  0  0  0  0  0
   57.7283   24.1563   47.1454 H   0  0  0  0  0  0  0  0  0  0  0  0
   56.7717   23.1670   45.9909 H   0  0  0  0  0  0  0  0  0  0  0  0
   58.5651   23.0637   45.9909 H   0  0  0  0  0  0  0  0  0  0  0  0
   58.5309   28.0868   48.6126 H   0  0  0  0  0  0  0  0  0  0  0  0
   60.2654   28.5543   48.4470 H   0  0  0  0  0  0  0  0  0  0  0  0
   57.7877   30.1678   47.6894 H   0  0  0  0  0  0  0  0  0  0  0  0
   59.0992   30.5812   48.8688 H   0  0  0  0  0  0  0  0  0  0  0  0
  1  2  1  0
  2  3  1  0
  3  4  1  0
  4  5  1  0
  5  6  1  0
  6  7  2  0
  7  8  1  0
  8  9  2  0
  9 10  1  0
 10 11  2  0
 11 12  1  0
 12 13  1  0
 13 14  1  0
 14 15  1  0
 15 16  1  0
 16 17  2  0
 16 18  1  0
 18 19  1  0
 19 20  2  0
 20 21  1  0
 21 22  1  0
 21 23  1  0
 23 24  1  0
 15 25  1  0
 25 26  1  0
 11  6  1  0
 26 12  1  0
 23 18  2  0
  1 27  1  0
  1 28  1  0
  1 29  1  0
  3 30  1  0
  3 31  1  0
  4 32  1  0
  4 33  1  0
  7 34  1  0
  8 35  1  0
  9 36  1  0
 10 37  1  0
 13 38  1  0
 13 39  1  0
 14 40  1  0
 14 41  1  0
 19 42  1  0
 20 43  1  0
 22 44  1  0
 22 45  1  0
 22 46  1  0
 24 47  1  0
 24 48  1  0
 24 49  1  0
 25 50  1  0
 25 51  1  0
 26 52  1  0
 26 53  1  0
M  CHG  1  20   1
M  END
>  <UniqueID>  (42) 
39

>  <SMILES>  (42) 
COCCOc1ccccc1N1CCN(C(=O)c2c[nH+]n(C)c2C)CC1

>  <Energy>  (42) 
90.89950422807621

>  <Genealogy>  (42) 
COCCOc1ccccc1N1CCN(C(=O)c2c[nH+]n(C)c2C)CC1 (protonated)
COCCOc1ccccc1N1CCN(C(=O)c2c[nH+]n(C)c2C)CC1 (3D coordinates assigned)
COCCOc1ccccc1N1CCN(C(=O)c2c[nH+]n(C)c2C)CC1 (nonaromatic ring conformer: 90.89950422807621 kcal/mol)

>  <smiles>  (42) 
COCCOc1ccccc1N1CCN(C(=O)c2cnn(C)c2C)CC1

>  <score_type>  (42) 
oracle

>  <origin>  (42) 
adg

>  <m_score__min__energy>  (42) 
-6.7400000000000002

>  <m_primary>  (42) 
energy

$$$$
42:0
     RDKit          3D

 37 39  0  0  0  0  0  0  0  0999 V2000
   56.5840   30.3050   43.3970 C   0  0  0  0  0  0  0  0  0  0  0  0
   56.4080   31.1890   44.4980 O   0  0  0  0  0  0  0  0  0  0  0  0
   57.4580   31.7240   45.2600 C   0  0  0  0  0  0  0  0  0  0  0  0
   57.4920   33.0740   45.6570 C   0  0  0  0  0  0  0  0  0  0  0  0
   58.5610   33.5600   46.4150 C   0  0  0  0  0  0  0  0  0  0  0  0
   59.6190   32.7110   46.7770 C   0  0  0  0  0  0  0  0  0  0  0  0
   60.7420   33.2330   47.5880 C   0  0  0  0  0  0  0  0  0  0  0  0
   61.9490   33.6960   47.1010 C   0  0  0  0  0  0  0  0  0  0  0  0
   62.6630   34.1700   48.1410 N   0  0  0  0  0  0  0  0  0  0  0  0
   61.9180   33.9960   49.2220 N   0  0  0  0  0  0  0  0  0  0  0  0
   60.7580   33.4300   48.9260 N   0  0  0  0  0  0  0  0  0  0  0  0
   59.7880   33.0270   49.9080 C   0  0  0  0  0  0  0  0  0  0  0  0
   59.0870   31.8230   49.7490 C   0  0  0  0  0  0  0  0  0  0  0  0
   58.1370   31.4280   50.6950 C   0  0  0  0  0  0  0  0  0  0  0  0
   57.8660   32.2310   51.8080 C   0  0  0  0  0  0  0  0  0  0  0  0
   56.9060   31.7880   52.7310 O   0  0  0  0  0  0  0  0  0  0  0  0
   55.8510   30.8830   52.4220 C   0  0  0  0  0  0  0  0  0  0  0  0
   58.5560   33.4470   51.9620 C   0  0  0  0  0  0  0  0  0  0  0  0
   59.5050   33.8440   51.0150 C   0  0  0  0  0  0  0  0  0  0  0  0
   59.5730   31.3600   46.3970 C   0  0  0  0  0  0  0  0  0  0  0  0
   58.5040   30.8750   45.6390 C   0  0  0  0  0  0  0  0  0  0  0  0
   56.7860   29.2902   43.7702 H   0  0  0  0  0  0  0  0  0  0  0  0
   55.6701   30.2953   42.7848 H   0  0  0  0  0  0  0  0  0  0  0  0
   57.4319   30.6461   42.7848 H   0  0  0  0  0  0  0  0  0  0  0  0
   56.6732   33.7499   45.3693 H   0  0  0  0  0  0  0  0  0  0  0  0
   58.5735   34.6139   46.7298 H   0  0  0  0  0  0  0  0  0  0  0  0
   62.2707   33.6805   46.0492 H   0  0  0  0  0  0  0  0  0  0  0  0
   62.2290   34.2460   50.1870 H   0  0  0  0  0  0  0  0  0  0  0  0
   59.2859   31.1857   48.8747 H   0  0  0  0  0  0  0  0  0  0  0  0
   57.5981   30.4781   50.5633 H   0  0  0  0  0  0  0  0  0  0  0  0
   55.4085   30.5034   53.3548 H   0  0  0  0  0  0  0  0  0  0  0  0
   55.0800   31.4049   51.8362 H   0  0  0  0  0  0  0  0  0  0  0  0
   56.2495   30.0415   51.8362 H   0  0  0  0  0  0  0  0  0  0  0  0
   58.3481   34.0884   52.8312 H   0  0  0  0  0  0  0  0  0  0  0  0
   60.0328   34.8013   51.1375 H   0  0  0  0  0  0  0  0  0  0  0  0
   60.3832   30.6795   46.6978 H   0  0  0  0  0  0  0  0  0  0  0  0
   58.4845   29.8172   45.3377 H   0  0  0  0  0  0  0  0  0  0  0  0
  1  2  1  0
  2  3  1  0
  3  4  2  0
  4  5  1  0
  5  6  2  0
  6  7  1  0
  7  8  2  0
  8  9  1  0
  9 10  2  0
 10 11  1  0
 11 12  1  0
 12 13  2  0
 13 14  1  0
 14 15  2  0
 15 16  1  0
 16 17  1  0
 15 18  1  0
 18 19  2  0
  6 20  1  0
 20 21  2  0
 21  3  1  0
 11  7  1  0
 19 12  1  0
  1 22  1  0
  1 23  1  0
  1 24  1  0
  4 25  1  0
  5 26  1  0
  8 27  1  0
 10 28  1  0
 13 29  1  0
 14 30  1  0
 17 31  1  0
 17 32  1  0
 17 33  1  0
 18 34  1  0
 19 35  1  0
 20 36  1  0
 21 37  1  0
M  CHG  1  10   1
M  END
>  <UniqueID>  (43) 
40

>  <SMILES>  (43) 
COc1ccc(-c2cn[nH+]n2-c2ccc(OC)cc2)cc1

>  <Energy>  (43) 
82.24888147912237

>  <Genealogy>  (43) 
COc1ccc(-c2cn[nH+]n2-c2ccc(OC)cc2)cc1 (protonated)
COc1ccc(-c2cn[nH+]n2-c2ccc(OC)cc2)cc1 (3D coordinates assigned)
COc1ccc(-c2cn[nH+]n2-c2ccc(OC)cc2)cc1 (optimized conformer: 82.24888147912237 kcal/mol)

>  <smiles>  (43) 
COc1ccc(-c2cnnn2-c2ccc(OC)cc2)cc1

>  <score_type>  (43) 
oracle

>  <origin>  (43) 
adg

>  <m_score__min__energy>  (43) 
-5.9000000000000004

>  <m_primary>  (43) 
energy

$$$$
43:0
     RDKit          3D

 66 69  0  0  0  0  0  0  0  0999 V2000
   61.0010   29.0940   51.6150 C   0  0  0  0  0  0  0  0  0  0  0  0
   60.9800   29.8680   50.3010 C   0  0  0  0  0  0  0  0  0  0  0  0
   59.6340   30.4040   50.0290 N   0  0  0  0  0  0  0  0  0  0  0  0
   58.8230   29.8070   48.9510 C   0  0  0  0  0  0  0  0  0  0  0  0
   59.3890   28.4550   48.4880 C   0  0  0  0  0  0  0  0  0  0  0  0
   58.4980   27.7830   47.4240 C   0  0  0  0  0  0  0  0  0  0  0  0
   59.1430   27.7120   46.0860 N   0  0  1  0  0  0  0  0  0  0  0  0
   60.0170   26.5230   45.9970 C   0  0  0  0  0  0  0  0  0  0  0  0
   58.0790   27.6590   45.0520 C   0  0  0  0  0  0  0  0  0  0  0  0
   56.6440   27.7600   45.6190 C   0  0  0  0  0  0  0  0  0  0  0  0
   55.9620   28.9920   45.2160 N   0  0  0  0  0  0  0  0  0  0  0  0
   56.5010   30.0890   44.4580 C   0  0  0  0  0  0  0  0  0  0  0  0
   56.0940   30.2630   43.2790 O   0  0  0  0  0  0  0  0  0  0  0  0
   57.4470   31.0660   45.0330 C   0  0  0  0  0  0  0  0  0  0  0  0
   57.0300   32.3910   45.2240 C   0  0  0  0  0  0  0  0  0  0  0  0
   57.8400   33.2930   45.9140 C   0  0  0  0  0  0  0  0  0  0  0  0
   59.0820   32.8860   46.4310 C   0  0  0  0  0  0  0  0  0  0  0  0
   59.5280   31.5670   46.2040 C   0  0  0  0  0  0  0  0  0  0  0  0
   58.7180   30.6760   45.4780 C   0  0  0  0  0  0  0  0  0  0  0  0
   60.8220   31.1180   46.7690 C   0  0  0  0  0  0  0  0  0  0  0  0
   61.2360   29.9460   46.5440 O   0  0  0  0  0  0  0  0  0  0  0  0
   61.6250   32.0360   47.6100 C   0  0  0  0  0  0  0  0  0  0  0  0
   62.8260   31.6000   48.2000 C   0  0  0  0  0  0  0  0  0  0  0  0
   63.5800   32.4700   48.9910 C   0  0  0  0  0  0  0  0  0  0  0  0
   63.1480   33.7800   49.2000 C   0  0  0  0  0  0  0  0  0  0  0  0
   61.9560   34.2250   48.6230 C   0  0  0  0  0  0  0  0  0  0  0  0
   61.1840   33.3590   47.8270 C   0  0  0  0  0  0  0  0  0  0  0  0
   59.9140   33.8230   47.2230 C   0  0  0  0  0  0  0  0  0  0  0  0
   59.5340   35.0150   47.3890 O   0  0  0  0  0  0  0  0  0  0  0  0
   59.1250   31.5080   50.8170 C   0  0  0  0  0  0  0  0  0  0  0  0
   59.8370   32.7190   50.9070 C   0  0  0  0  0  0  0  0  0  0  0  0
   59.3580   33.7650   51.7020 C   0  0  0  0  0  0  0  0  0  0  0  0
   58.1600   33.6210   52.4060 C   0  0  0  0  0  0  0  0  0  0  0  0
   57.4370   32.4300   52.3160 C   0  0  0  0  0  0  0  0  0  0  0  0
   57.9130   31.3780   51.5260 C   0  0  0  0  0  0  0  0  0  0  0  0
   60.9818   29.8011   52.4574 H   0  0  0  0  0  0  0  0  0  0  0  0
   60.1204   28.4370   51.6677 H   0  0  0  0  0  0  0  0  0  0  0  0
   61.9160   28.4857   51.6677 H   0  0  0  0  0  0  0  0  0  0  0  0
   61.6944   30.7022   50.3627 H   0  0  0  0  0  0  0  0  0  0  0  0
   61.2580   29.1843   49.4853 H   0  0  0  0  0  0  0  0  0  0  0  0
   57.7978   29.6556   49.3198 H   0  0  0  0  0  0  0  0  0  0  0  0
   58.8388   30.4946   48.0925 H   0  0  0  0  0  0  0  0  0  0  0  0
   60.3894   28.6177   48.0606 H   0  0  0  0  0  0  0  0  0  0  0  0
   59.4302   27.7893   49.3627 H   0  0  0  0  0  0  0  0  0  0  0  0
   58.2664   26.7602   47.7561 H   0  0  0  0  0  0  0  0  0  0  0  0
   57.5909   28.3965   47.3196 H   0  0  0  0  0  0  0  0  0  0  0  0
   59.7190   28.5730   45.9290 H   0  0  0  0  0  0  0  0  0  0  0  0
   60.2707   26.1778   47.0101 H   0  0  0  0  0  0  0  0  0  0  0  0
   59.4916   25.7213   45.4573 H   0  0  0  0  0  0  0  0  0  0  0  0
   60.9390   26.7852   45.4573 H   0  0  0  0  0  0  0  0  0  0  0  0
   58.2342   28.4942   44.3532 H   0  0  0  0  0  0  0  0  0  0  0  0
   58.1593   26.6767   44.5635 H   0  0  0  0  0  0  0  0  0  0  0  0
   56.0611   26.9005   45.2564 H   0  0  0  0  0  0  0  0  0  0  0  0
   56.7202   27.7663   46.7163 H   0  0  0  0  0  0  0  0  0  0  0  0
   56.0585   32.7211   44.8274 H   0  0  0  0  0  0  0  0  0  0  0  0
   57.5041   34.3310   46.0546 H   0  0  0  0  0  0  0  0  0  0  0  0
   59.0852   29.6629   45.2570 H   0  0  0  0  0  0  0  0  0  0  0  0
   63.1727   30.5688   48.0374 H   0  0  0  0  0  0  0  0  0  0  0  0
   64.5168   32.1214   49.4503 H   0  0  0  0  0  0  0  0  0  0  0  0
   63.7468   34.4635   49.8200 H   0  0  0  0  0  0  0  0  0  0  0  0
   61.6191   35.2584   48.7920 H   0  0  0  0  0  0  0  0  0  0  0  0
   60.7764   32.8433   50.3483 H   0  0  0  0  0  0  0  0  0  0  0  0
   59.9263   34.7041   51.7732 H   0  0  0  0  0  0  0  0  0  0  0  0
   57.7865   34.4456   53.0309 H   0  0  0  0  0  0  0  0  0  0  0  0
   56.4916   32.3186   52.8671 H   0  0  0  0  0  0  0  0  0  0  0  0
   57.3378   30.4429   51.4574 H   0  0  0  0  0  0  0  0  0  0  0  0
  1  2  1  0
  2  3  1  0
  3  4  1  0
  4  5  1  0
  5  6  1  0
  6  7  1  0
  7  8  1  0
  7  9  1  0
  9 10  1  0
 10 11  1  0
 11 12  1  0
 12 13  2  0
 12 14  1  0
 14 15  2  0
 15 16  1  0
 16 17  2  0
 17 18  1  0
 18 19  2  0
 18 20  1  0
 20 21  2  0
 20 22  1  0
 22 23  2  0
 23 24  1  0
 24 25  2  0
 25 26  1  0
 26 27  2  0
 27 28  1  0
 28 29  2  0
  3 30  1  0
 30 31  2  0
 31 32  1  0
 32 33  2  0
 33 34  1  0
 34 35  2  0
 19 14  1  0
 27 22  1  0
 35 30  1  0
 28 17  1  0
  1 36  1  0
  1 37  1  0
  1 38  1  0
  2 39  1  0
  2 40  1  0
  4 41  1  0
  4 42  1  0
  5 43  1  0
  5 44  1  0
  6 45  1  0
  6 46  1  0
  7 47  1  6
  8 48  1  0
  8 49  1  0
  8 50  1  0
  9 51  1  0
  9 52  1  0
 10 53  1  0
 10 54  1  0
 15 55  1  0
 16 56  1  0
 19 57  1  0
 23 58  1  0
 24 59  1  0
 25 60  1  0
 26 61  1  0
 31 62  1  0
 32 63  1  0
 33 64  1  0
 34 65  1  0
 35 66  1  0
M  CHG  2   7   1  11  -1
M  END
>  <UniqueID>  (44) 
41

>  <SMILES>  (44) 
CCN(CCC[N@@H+](C)CC[N-]C(=O)c1ccc2c(c1)C(=O)c1ccccc1C2=O)c1ccccc1

>  <Energy>  (44) 
79.98114827658556

>  <Genealogy>  (44) 
CCN(CCC[NH+](C)CC[N-]C(=O)c1ccc2c(c1)C(=O)c1ccccc1C2=O)c1ccccc1 (protonated)
CCN(CCC[N@@H+](C)CC[N-]C(=O)c1ccc2c(c1)C(=O)c1ccccc1C2=O)c1ccccc1 (chirality)
CCN(CCC[N@@H+](C)CC[N-]C(=O)c1ccc2c(c1)C(=O)c1ccccc1C2=O)c1ccccc1 (3D coordinates assigned)
CCN(CCC[N@@H+](C)CC[N-]C(=O)c1ccc2c(c1)C(=O)c1ccccc1C2=O)c1ccccc1 (nonaromatic ring conformer: 79.98114827658556 kcal/mol)

>  <smiles>  (44) 
CCN(CCCN(C)CCNC(=O)c1ccc2c(c1)C(=O)c1ccccc1C2=O)c1ccccc1

>  <score_type>  (44) 
oracle

>  <origin>  (44) 
adg

>  <m_score__min__energy>  (44) 
-8.5099999999999998

>  <m_primary>  (44) 
energy

$$$$
44:0
     RDKit          3D

 18 18  0  0  0  0  0  0  0  0999 V2000
   57.7430   33.2330   46.4550 C   0  0  0  0  0  0  0  0  0  0  0  0
   57.6640   32.5770   45.1190 C   0  0  0  0  0  0  0  0  0  0  0  0
   58.1310   33.0880   43.9240 C   0  0  0  0  0  0  0  0  0  0  0  0
   57.7780   32.2050   42.9730 N   0  0  0  0  0  0  0  0  0  0  0  0
   58.0130   32.3360   41.5380 C   0  0  0  0  0  0  0  0  0  0  0  0
   57.1090   31.2230   43.5660 N   0  0  0  0  0  0  0  0  0  0  0  0
   56.5280   30.0730   42.8810 C   0  0  0  0  0  0  0  0  0  0  0  0
   57.0170   31.4190   44.8720 N   0  0  0  0  0  0  0  0  0  0  0  0
   57.6513   32.4714   47.2434 H   0  0  0  0  0  0  0  0  0  0  0  0
   58.7097   33.7485   46.5538 H   0  0  0  0  0  0  0  0  0  0  0  0
   56.9263   33.9632   46.5538 H   0  0  0  0  0  0  0  0  0  0  0  0
   58.6816   34.0291   43.7790 H   0  0  0  0  0  0  0  0  0  0  0  0
   58.9624   32.8652   41.3687 H   0  0  0  0  0  0  0  0  0  0  0  0
   58.0641   31.3362   41.0821 H   0  0  0  0  0  0  0  0  0  0  0  0
   57.1895   32.9052   41.0821 H   0  0  0  0  0  0  0  0  0  0  0  0
   56.1625   29.3495   43.6246 H   0  0  0  0  0  0  0  0  0  0  0  0
   55.6901   30.4063   42.2510 H   0  0  0  0  0  0  0  0  0  0  0  0
   57.2934   29.5963   42.2510 H   0  0  0  0  0  0  0  0  0  0  0  0
  1  2  1  0
  2  3  1  0
  3  4  2  0
  4  5  1  0
  4  6  1  0
  6  7  1  0
  6  8  1  0
  8  2  2  0
  1  9  1  0
  1 10  1  0
  1 11  1  0
  3 12  1  0
  5 13  1  0
  5 14  1  0
  5 15  1  0
  7 16  1  0
  7 17  1  0
  7 18  1  0
M  CHG  1   4   1
M  END
>  <UniqueID>  (45) 
42

>  <SMILES>  (45) 
Cc1c[n+](C)n(C)n1

>  <Energy>  (45) 
48.18214493393517

>  <Genealogy>  (45) 
Cc1c[n+](C)n(C)n1 (3D coordinates assigned)
Cc1c[n+](C)n(C)n1 (optimized conformer: 48.18214493393517 kcal/mol)

>  <smiles>  (45) 
Cc1c[n+](C)n(C)n1

>  <score_type>  (45) 
oracle

>  <origin>  (45) 
adg

>  <m_score__min__energy>  (45) 
-2.9500000000000002

>  <m_primary>  (45) 
energy

$$$$
45:0
     RDKit          3D

 58 61  0  0  0  0  0  0  0  0999 V2000
   58.1800   30.2970   51.4750 C   0  0  0  0  0  0  0  0  0  0  0  0
   59.2970   29.5520   52.2010 C   0  0  0  0  0  0  0  0  0  0  0  0
   60.1460   28.7340   51.2240 C   0  0  0  0  0  0  0  0  0  0  0  0
   60.5300   29.5610   50.0650 N   0  0  0  0  0  0  0  0  0  0  0  0
   61.5330   30.4930   50.1660 C   0  0  0  0  0  0  0  0  0  0  0  0
   62.1590   30.6260   51.2550 O   0  0  0  0  0  0  0  0  0  0  0  0
   61.8690   31.3070   49.0590 C   0  0  0  0  0  0  0  0  0  0  0  0
   62.8880   32.2740   49.1530 C   0  0  0  0  0  0  0  0  0  0  0  0
   63.2000   33.0810   48.0610 C   0  0  0  0  0  0  0  0  0  0  0  0
   62.5010   32.9350   46.8660 C   0  0  0  0  0  0  0  0  0  0  0  0
   61.4880   31.9800   46.7490 C   0  0  0  0  0  0  0  0  0  0  0  0
   61.1560   31.1450   47.8390 C   0  0  0  0  0  0  0  0  0  0  0  0
   60.1650   30.1950   47.8020 N   0  0  0  0  0  0  0  0  0  0  0  0
   59.2870   29.7260   46.8670 C   0  0  0  0  0  0  0  0  0  0  0  0
   59.2090   30.0760   45.4060 C   0  0  0  0  0  0  0  0  0  0  0  0
   58.0950   29.2980   44.6830 C   0  0  0  0  0  0  0  0  0  0  0  0
   56.7500   29.9440   44.8360 C   0  0  0  0  0  0  0  0  0  0  0  0
   55.7060   29.2360   44.8630 O   0  0  0  0  0  0  0  0  0  0  0  0
   56.6520   31.3710   44.8770 N   0  0  0  0  0  0  0  0  0  0  0  0
   57.5260   32.2640   44.1200 C   0  0  0  0  0  0  0  0  0  0  0  0
   57.4070   33.6990   44.6410 C   0  0  0  0  0  0  0  0  0  0  0  0
   58.1260   33.8430   45.9580 C   0  0  0  0  0  0  0  0  0  0  0  0
   59.1320   34.8080   46.1200 C   0  0  0  0  0  0  0  0  0  0  0  0
   59.8170   34.9200   47.3350 C   0  0  0  0  0  0  0  0  0  0  0  0
   59.5080   34.0590   48.4060 C   0  0  0  0  0  0  0  0  0  0  0  0
   60.1660   34.1280   49.6420 O   0  0  0  0  0  0  0  0  0  0  0  0
   59.6980   33.5140   50.8380 C   0  0  0  0  0  0  0  0  0  0  0  0
   58.5080   33.0950   48.2400 C   0  0  0  0  0  0  0  0  0  0  0  0
   57.8240   32.9820   47.0250 C   0  0  0  0  0  0  0  0  0  0  0  0
   58.5000   28.7610   47.3870 N   0  0  0  0  0  0  0  0  0  0  0  0
   58.8510   28.5880   48.6500 N   0  0  0  0  0  0  0  0  0  0  0  0
   59.8570   29.4500   48.8820 C   0  0  0  0  0  0  0  0  0  0  0  0
   57.5013   30.7497   52.2129 H   0  0  0  0  0  0  0  0  0  0  0  0
   58.6152   31.0863   50.8445 H   0  0  0  0  0  0  0  0  0  0  0  0
   57.6185   29.5919   50.8445 H   0  0  0  0  0  0  0  0  0  0  0  0
   59.9419   30.2823   52.7117 H   0  0  0  0  0  0  0  0  0  0  0  0
   58.8404   28.8623   52.9261 H   0  0  0  0  0  0  0  0  0  0  0  0
   61.0539   28.3839   51.7370 H   0  0  0  0  0  0  0  0  0  0  0  0
   59.5578   27.8740   50.8714 H   0  0  0  0  0  0  0  0  0  0  0  0
   63.4420   32.3932   50.0958 H   0  0  0  0  0  0  0  0  0  0  0  0
   63.9984   33.8332   48.1431 H   0  0  0  0  0  0  0  0  0  0  0  0
   62.7481   33.5765   46.0073 H   0  0  0  0  0  0  0  0  0  0  0  0
   60.9436   31.8773   45.7987 H   0  0  0  0  0  0  0  0  0  0  0  0
   59.0092   31.1534   45.3095 H   0  0  0  0  0  0  0  0  0  0  0  0
   60.1683   29.8048   44.9410 H   0  0  0  0  0  0  0  0  0  0  0  0
   58.3405   29.2440   43.6121 H   0  0  0  0  0  0  0  0  0  0  0  0
   58.0383   28.2973   45.1362 H   0  0  0  0  0  0  0  0  0  0  0  0
   58.5675   31.9259   44.2249 H   0  0  0  0  0  0  0  0  0  0  0  0
   57.2256   32.2434   43.0620 H   0  0  0  0  0  0  0  0  0  0  0  0
   57.8519   34.3884   43.9083 H   0  0  0  0  0  0  0  0  0  0  0  0
   56.3433   33.9374   44.7881 H   0  0  0  0  0  0  0  0  0  0  0  0
   59.3836   35.4805   45.2867 H   0  0  0  0  0  0  0  0  0  0  0  0
   60.5999   35.6835   47.4542 H   0  0  0  0  0  0  0  0  0  0  0  0
   60.1057   34.0488   51.7085 H   0  0  0  0  0  0  0  0  0  0  0  0
   58.5991   33.5538   50.8648 H   0  0  0  0  0  0  0  0  0  0  0  0
   60.0277   32.4649   50.8648 H   0  0  0  0  0  0  0  0  0  0  0  0
   58.2574   32.4202   49.0718 H   0  0  0  0  0  0  0  0  0  0  0  0
   57.0453   32.2144   46.9050 H   0  0  0  0  0  0  0  0  0  0  0  0
  1  2  1  0
  2  3  1  0
  3  4  1  0
  4  5  1  0
  5  6  2  0
  5  7  1  0
  7  8  2  0
  8  9  1  0
  9 10  2  0
 10 11  1  0
 11 12  2  0
 12 13  1  0
 13 14  1  0
 14 15  1  0
 15 16  1  0
 16 17  1  0
 17 18  2  0
 17 19  1  0
 19 20  1  0
 20 21  1  0
 21 22  1  0
 22 23  2  0
 23 24  1  0
 24 25  2  0
 25 26  1  0
 26 27  1  0
 25 28  1  0
 28 29  2  0
 14 30  2  0
 30 31  1  0
 31 32  2  0
 32  4  1  0
 12  7  1  0
 32 13  1  0
 29 22  1  0
  1 33  1  0
  1 34  1  0
  1 35  1  0
  2 36  1  0
  2 37  1  0
  3 38  1  0
  3 39  1  0
  8 40  1  0
  9 41  1  0
 10 42  1  0
 11 43  1  0
 15 44  1  0
 15 45  1  0
 16 46  1  0
 16 47  1  0
 20 48  1  0
 20 49  1  0
 21 50  1  0
 21 51  1  0
 23 52  1  0
 24 53  1  0
 27 54  1  0
 27 55  1  0
 27 56  1  0
 28 57  1  0
 29 58  1  0
M  CHG  1  19  -1
M  END
>  <UniqueID>  (46) 
43

>  <SMILES>  (46) 
CCCn1c(=O)c2ccccc2n2c(CCC(=O)[N-]CCc3ccc(OC)cc3)nnc12

>  <Energy>  (46) 
104.22850680483737

>  <Genealogy>  (46) 
CCCn1c(=O)c2ccccc2n2c(CCC(=O)[N-]CCc3ccc(OC)cc3)nnc12 (protonated)
CCCn1c(=O)c2ccccc2n2c(CCC(=O)[N-]CCc3ccc(OC)cc3)nnc12 (3D coordinates assigned)
CCCn1c(=O)c2ccccc2n2c(CCC(=O)[N-]CCc3ccc(OC)cc3)nnc12 (optimized conformer: 104.22850680483737 kcal/mol)

>  <smiles>  (46) 
CCCn1c(=O)c2ccccc2n2c(CCC(=O)NCCc3ccc(OC)cc3)nnc12

>  <score_type>  (46) 
oracle

>  <origin>  (46) 
adg

>  <m_score__min__energy>  (46) 
-11.52

>  <m_primary>  (46) 
energy

$$$$
46:0
     RDKit          3D

 51 54  0  0  0  0  0  0  0  0999 V2000
   57.0790   32.3340   40.4580 C   0  0  0  0  0  0  0  0  0  0  0  0
   57.3960   31.9810   41.8760 C   0  0  0  0  0  0  0  0  0  0  0  0
   56.8130   30.8590   42.4750 C   0  0  0  0  0  0  0  0  0  0  0  0
   57.1020   30.5650   43.8070 C   0  0  0  0  0  0  0  0  0  0  0  0
   57.9750   31.3830   44.5420 C   0  0  0  0  0  0  0  0  0  0  0  0
   58.2950   31.0460   45.9940 C   0  0  2  0  0  0  0  0  0  0  0  0
   58.8970   32.2310   46.7440 C   0  0  0  0  0  0  0  0  0  0  0  0
   58.2820   33.5000   46.7480 C   0  0  0  0  0  0  0  0  0  0  0  0
   58.8910   34.5620   47.4170 C   0  0  0  0  0  0  0  0  0  0  0  0
   60.1140   34.3730   48.0550 C   0  0  0  0  0  0  0  0  0  0  0  0
   60.7210   33.1180   48.0050 C   0  0  0  0  0  0  0  0  0  0  0  0
   60.1170   32.0900   47.3490 N   0  0  0  0  0  0  0  0  0  0  0  0
   59.1210   29.8130   46.1330 N   0  0  0  0  0  0  0  0  0  0  0  0
   59.6780   29.1980   44.9090 C   0  0  0  0  0  0  0  0  0  0  0  0
   58.7840   28.0890   44.3380 C   0  0  0  0  0  0  0  0  0  0  0  0
   58.3750   27.1690   45.4000 N   0  0  0  0  0  0  0  0  0  0  0  0
   58.1970   25.7710   45.1030 C   0  0  0  0  0  0  0  0  0  0  0  0
   58.8280   24.7980   45.8940 C   0  0  0  0  0  0  0  0  0  0  0  0
   58.6590   23.4380   45.6110 C   0  0  0  0  0  0  0  0  0  0  0  0
   57.8600   23.0410   44.5360 C   0  0  0  0  0  0  0  0  0  0  0  0
   57.2260   24.0020   43.7430 C   0  0  0  0  0  0  0  0  0  0  0  0
   57.3920   25.3620   44.0240 C   0  0  0  0  0  0  0  0  0  0  0  0
   57.7840   27.7500   46.6070 C   0  0  0  0  0  0  0  0  0  0  0  0
   58.6970   28.8430   47.1650 C   0  0  0  0  0  0  0  0  0  0  0  0
   58.5120   32.5190   43.9050 C   0  0  0  0  0  0  0  0  0  0  0  0
   58.2140   32.7850   42.6070 N   0  0  0  0  0  0  0  0  0  0  0  0
   56.3441   33.1523   40.4394 H   0  0  0  0  0  0  0  0  0  0  0  0
   57.9981   32.6548   39.9457 H   0  0  0  0  0  0  0  0  0  0  0  0
   56.6616   31.4546   39.9457 H   0  0  0  0  0  0  0  0  0  0  0  0
   56.1323   30.2141   41.8999 H   0  0  0  0  0  0  0  0  0  0  0  0
   56.6433   29.6869   44.2849 H   0  0  0  0  0  0  0  0  0  0  0  0
   57.3306   30.8236   46.4741 H   0  0  0  0  0  0  0  0  0  0  0  0
   57.3259   33.6519   46.2257 H   0  0  0  0  0  0  0  0  0  0  0  0
   58.4050   35.5485   47.4404 H   0  0  0  0  0  0  0  0  0  0  0  0
   60.5958   35.2033   48.5920 H   0  0  0  0  0  0  0  0  0  0  0  0
   61.6915   32.9587   48.4977 H   0  0  0  0  0  0  0  0  0  0  0  0
   60.6160   31.1730   47.3130 H   0  0  0  0  0  0  0  0  0  0  0  0
   59.7968   29.9810   44.1456 H   0  0  0  0  0  0  0  0  0  0  0  0
   60.6410   28.7397   45.1786 H   0  0  0  0  0  0  0  0  0  0  0  0
   57.8893   28.5412   43.8852 H   0  0  0  0  0  0  0  0  0  0  0  0
   59.3492   27.5296   43.5780 H   0  0  0  0  0  0  0  0  0  0  0  0
   59.4587   25.1063   46.7409 H   0  0  0  0  0  0  0  0  0  0  0  0
   59.1557   22.6809   46.2355 H   0  0  0  0  0  0  0  0  0  0  0  0
   57.7297   21.9717   44.3134 H   0  0  0  0  0  0  0  0  0  0  0  0
   56.5962   23.6883   42.8975 H   0  0  0  0  0  0  0  0  0  0  0  0
   56.8908   26.1154   43.3985 H   0  0  0  0  0  0  0  0  0  0  0  0
   56.8046   28.1853   46.3593 H   0  0  0  0  0  0  0  0  0  0  0  0
   57.6622   26.9612   47.3640 H   0  0  0  0  0  0  0  0  0  0  0  0
   58.1562   29.3839   47.9555 H   0  0  0  0  0  0  0  0  0  0  0  0
   59.6023   28.3538   47.5536 H   0  0  0  0  0  0  0  0  0  0  0  0
   59.1770   33.1949   44.4626 H   0  0  0  0  0  0  0  0  0  0  0  0
  1  2  1  0
  2  3  2  0
  3  4  1  0
  4  5  2  0
  5  6  1  0
  6  7  1  0
  7  8  2  0
  8  9  1  0
  9 10  2  0
 10 11  1  0
 11 12  2  0
  6 13  1  0
 13 14  1  0
 14 15  1  0
 15 16  1  0
 16 17  1  0
 17 18  2  0
 18 19  1  0
 19 20  2  0
 20 21  1  0
 21 22  2  0
 16 23  1  0
 23 24  1  0
  5 25  1  0
 25 26  2  0
 26  2  1  0
 12  7  1  0
 24 13  1  0
 22 17  1  0
  1 27  1  0
  1 28  1  0
  1 29  1  0
  3 30  1  0
  4 31  1  0
  6 32  1  1
  8 33  1  0
  9 34  1  0
 10 35  1  0
 11 36  1  0
 12 37  1  0
 14 38  1  0
 14 39  1  0
 15 40  1  0
 15 41  1  0
 18 42  1  0
 19 43  1  0
 20 44  1  0
 21 45  1  0
 22 46  1  0
 23 47  1  0
 23 48  1  0
 24 49  1  0
 24 50  1  0
 25 51  1  0
M  CHG  1  12   1
M  END
>  <UniqueID>  (47) 
44

>  <SMILES>  (47) 
Cc1ccc([C@H](c2cccc[nH+]2)N2CCN(c3ccccc3)CC2)cn1

>  <Energy>  (47) 
72.35332065519897

>  <Genealogy>  (47) 
Cc1ccc(C(c2cccc[nH+]2)N2CCN(c3ccccc3)CC2)cn1 (protonated)
Cc1ccc([C@H](c2cccc[nH+]2)N2CCN(c3ccccc3)CC2)cn1 (chirality)
Cc1ccc([C@H](c2cccc[nH+]2)N2CCN(c3ccccc3)CC2)cn1 (3D coordinates assigned)
Cc1ccc([C@H](c2cccc[nH+]2)N2CCN(c3ccccc3)CC2)cn1 (nonaromatic ring conformer: 72.35332065519897 kcal/mol)

>  <smiles>  (47) 
Cc1ccc(C(c2ccccn2)N2CCN(c3ccccc3)CC2)cn1

>  <score_type>  (47) 
oracle

>  <origin>  (47) 
adg

>  <m_score__min__energy>  (47) 
-6.5300000000000002

>  <m_primary>  (47) 
energy

$$$$
47:0
     RDKit          3D

 53 55  0  0  0  0  0  0  0  0999 V2000
   63.1140   31.8370   47.4960 C   0  0  0  0  0  0  0  0  0  0  0  0
   62.7470   33.3150   47.3790 C   0  0  0  0  0  0  0  0  0  0  0  0
   61.4020   33.6450   48.0510 C   0  0  0  0  0  0  0  0  0  0  0  0
   60.2630   33.5710   47.1100 N   0  0  0  0  0  0  0  0  0  0  0  0
   60.3680   34.5920   46.0400 C   0  0  0  0  0  0  0  0  0  0  0  0
   59.0120   34.9270   45.3900 C   0  0  0  0  0  0  0  0  0  0  0  0
   58.0440   33.8230   45.5140 N   0  0  0  0  0  0  0  0  0  0  0  0
   58.1430   32.7540   44.4900 C   0  0  0  0  0  0  0  0  0  0  0  0
   57.3040   31.5210   44.7550 C   0  0  0  0  0  0  0  0  0  0  0  0
   56.0510   31.6200   44.8350 O   0  0  0  0  0  0  0  0  0  0  0  0
   57.8950   30.1650   44.7010 C   0  0  0  0  0  0  0  0  0  0  0  0
   57.5870   29.1570   43.7780 C   0  0  0  0  0  0  0  0  0  0  0  0
   56.6350   29.2880   42.6200 C   0  0  0  0  0  0  0  0  0  0  0  0
   58.2630   28.0160   44.0750 N   0  0  0  0  0  0  0  0  0  0  0  0
   58.1290   26.7110   43.4150 C   0  0  0  0  0  0  0  0  0  0  0  0
   57.5880   25.6750   44.3920 C   0  0  0  0  0  0  0  0  0  0  0  0
   58.9860   28.2870   45.1820 C   0  0  0  0  0  0  0  0  0  0  0  0
   59.8040   27.4100   45.9070 C   0  0  0  0  0  0  0  0  0  0  0  0
   60.4320   27.8940   47.0650 C   0  0  0  0  0  0  0  0  0  0  0  0
   60.2260   29.2240   47.4840 C   0  0  0  0  0  0  0  0  0  0  0  0
   59.3930   30.0810   46.7470 C   0  0  0  0  0  0  0  0  0  0  0  0
   58.7930   29.5860   45.5880 C   0  0  0  0  0  0  0  0  0  0  0  0
   57.7990   33.3910   46.9060 C   0  0  0  0  0  0  0  0  0  0  0  0
   58.9880   33.6900   47.8420 C   0  0  0  0  0  0  0  0  0  0  0  0
   63.1830   31.5593   48.5581 H   0  0  0  0  0  0  0  0  0  0  0  0
   62.3400   31.2272   47.0071 H   0  0  0  0  0  0  0  0  0  0  0  0
   64.0833   31.6601   47.0071 H   0  0  0  0  0  0  0  0  0  0  0  0
   63.5363   33.9131   47.8577 H   0  0  0  0  0  0  0  0  0  0  0  0
   62.6521   33.5514   46.3089 H   0  0  0  0  0  0  0  0  0  0  0  0
   61.2312   32.9286   48.8680 H   0  0  0  0  0  0  0  0  0  0  0  0
   61.4601   34.6784   48.4233 H   0  0  0  0  0  0  0  0  0  0  0  0
   60.7852   35.5126   46.4741 H   0  0  0  0  0  0  0  0  0  0  0  0
   61.0157   34.1777   45.2533 H   0  0  0  0  0  0  0  0  0  0  0  0
   58.5956   35.8192   45.8804 H   0  0  0  0  0  0  0  0  0  0  0  0
   59.1869   35.1021   44.3182 H   0  0  0  0  0  0  0  0  0  0  0  0
   57.8279   33.1780   43.5252 H   0  0  0  0  0  0  0  0  0  0  0  0
   59.1900   32.4170   44.5038 H   0  0  0  0  0  0  0  0  0  0  0  0
   55.6124   29.4287   43.0001 H   0  0  0  0  0  0  0  0  0  0  0  0
   56.9208   30.1553   42.0067 H   0  0  0  0  0  0  0  0  0  0  0  0
   56.6759   28.3758   42.0067 H   0  0  0  0  0  0  0  0  0  0  0  0
   57.4368   26.8040   42.5652 H   0  0  0  0  0  0  0  0  0  0  0  0
   59.1190   26.3861   43.0623 H   0  0  0  0  0  0  0  0  0  0  0  0
   57.7657   26.0152   45.4229 H   0  0  0  0  0  0  0  0  0  0  0  0
   56.5077   25.5466   44.2293 H   0  0  0  0  0  0  0  0  0  0  0  0
   58.1000   24.7151   44.2293 H   0  0  0  0  0  0  0  0  0  0  0  0
   59.9499   26.3707   45.5775 H   0  0  0  0  0  0  0  0  0  0  0  0
   61.0885   27.2320   47.6487 H   0  0  0  0  0  0  0  0  0  0  0  0
   60.7211   29.5929   48.3944 H   0  0  0  0  0  0  0  0  0  0  0  0
   59.2177   31.1163   47.0747 H   0  0  0  0  0  0  0  0  0  0  0  0
   56.9111   33.9173   47.2864 H   0  0  0  0  0  0  0  0  0  0  0  0
   57.6527   32.3008   46.8939 H   0  0  0  0  0  0  0  0  0  0  0  0
   58.8906   34.7124   48.2360 H   0  0  0  0  0  0  0  0  0  0  0  0
   58.9824   32.9637   48.6681 H   0  0  0  0  0  0  0  0  0  0  0  0
  1  2  1  0
  2  3  1  0
  3  4  1  0
  4  5  1  0
  5  6  1  0
  6  7  1  0
  7  8  1  0
  8  9  1  0
  9 10  2  0
  9 11  1  0
 11 12  2  0
 12 13  1  0
 12 14  1  0
 14 15  1  0
 15 16  1  0
 14 17  1  0
 17 18  2  0
 18 19  1  0
 19 20  2  0
 20 21  1  0
 21 22  2  0
  7 23  1  0
 23 24  1  0
 24  4  1  0
 22 11  1  0
 22 17  1  0
  1 25  1  0
  1 26  1  0
  1 27  1  0
  2 28  1  0
  2 29  1  0
  3 30  1  0
  3 31  1  0
  5 32  1  0
  5 33  1  0
  6 34  1  0
  6 35  1  0
  8 36  1  0
  8 37  1  0
 13 38  1  0
 13 39  1  0
 13 40  1  0
 15 41  1  0
 15 42  1  0
 16 43  1  0
 16 44  1  0
 16 45  1  0
 18 46  1  0
 19 47  1  0
 20 48  1  0
 21 49  1  0
 23 50  1  0
 23 51  1  0
 24 52  1  0
 24 53  1  0
M  END
>  <UniqueID>  (48) 
45

>  <SMILES>  (48) 
CCCN1CCN(CC(=O)c2c(C)n(CC)c3ccccc23)CC1

>  <Energy>  (48) 
101.36408564363737

>  <Genealogy>  (48) 
CCCN1CCN(CC(=O)c2c(C)n(CC)c3ccccc23)CC1 (3D coordinates assigned)
CCCN1CCN(CC(=O)c2c(C)n(CC)c3ccccc23)CC1 (nonaromatic ring conformer: 101.36408564363737 kcal/mol)

>  <smiles>  (48) 
CCCN1CCN(CC(=O)c2c(C)n(CC)c3ccccc23)CC1

>  <score_type>  (48) 
oracle

>  <origin>  (48) 
adg

>  <m_score__min__energy>  (48) 
-7.9299999999999997

>  <m_primary>  (48) 
energy

$$$$
