0:0
     RDKit          3D

 75 77  0  0  0  0  0  0  0  0999 V2000
   60.0880   26.7760   46.3910 C   0  0  0  0  0  0  0  0  0  0  0  0
   59.4970   27.1440   47.7420 C   0  0  0  0  0  0  0  0  0  0  0  0
   58.1250   27.4890   47.5830 O   0  0  0  0  0  0  0  0  0  0  0  0
   57.5330   27.6980   46.3290 C   0  0  0  0  0  0  0  0  0  0  0  0
   56.8760   26.7720   45.7780 O   0  0  0  0  0  0  0  0  0  0  0  0
   57.6820   28.9710   45.6750 N   0  0  0  0  0  0  0  0  0  0  0  0
   58.7310   29.8810   46.1490 C   0  0  0  0  0  0  0  0  0  0  0  0
   58.7660   31.1620   45.3170 C   0  0  0  0  0  0  0  0  0  0  0  0
   57.3870   31.6500   45.1510 N   0  0  0  0  0  0  0  0  0  0  0  0
   57.3800   33.0410   44.6460 C   0  0  0  0  0  0  0  0  0  0  0  0
   58.8120   33.5550   44.4440 C   0  0  0  0  0  0  0  0  0  0  0  0
   58.9880   34.9670   45.0220 C   0  0  0  0  0  0  0  0  0  0  0  0
   59.6800   34.9210   46.2710 O   0  0  0  0  0  0  0  0  0  0  0  0
   59.6760   33.8380   47.1730 C   0  0  0  0  0  0  0  0  0  0  0  0
   58.4870   33.3500   47.7320 C   0  0  0  0  0  0  0  0  0  0  0  0
   58.5060   32.3270   48.6700 C   0  0  0  0  0  0  0  0  0  0  0  0
   59.7160   31.7550   49.1080 C   0  0  0  0  0  0  0  0  0  0  0  0
   59.6980   30.6900   50.2050 C   0  0  0  0  0  0  0  0  0  0  0  0
   58.7190   30.9740   51.3520 C   0  0  0  0  0  0  0  0  0  0  0  0
   57.6090   30.1030   51.2510 O   0  0  0  0  0  0  0  0  0  0  0  0
   56.7600   30.2430   52.3770 C   0  0  0  0  0  0  0  0  0  0  0  0
   55.5760   31.1620   52.0510 C   0  0  0  0  0  0  0  0  0  0  0  0
   54.2990   30.4650   52.3210 N   0  0  0  0  0  0  0  0  0  0  0  0
   54.5070   29.0940   52.8200 C   0  0  0  0  0  0  0  0  0  0  0  0
   53.3670   30.5060   51.1730 C   0  0  0  0  0  0  0  0  0  0  0  0
   52.2700   31.5750   51.2950 C   0  0  0  0  0  0  0  0  0  0  0  0
   60.9220   32.1510   48.4590 C   0  0  0  0  0  0  0  0  0  0  0  0
   62.1570   31.5060   48.7090 C   0  0  0  0  0  0  0  0  0  0  0  0
   63.3280   31.9310   48.0790 C   0  0  0  0  0  0  0  0  0  0  0  0
   63.2970   32.9950   47.1820 C   0  0  0  0  0  0  0  0  0  0  0  0
   62.0930   33.6350   46.8970 C   0  0  0  0  0  0  0  0  0  0  0  0
   60.8950   33.2170   47.5110 C   0  0  0  0  0  0  0  0  0  0  0  0
   56.5940   30.7460   44.2810 C   0  0  0  0  0  0  0  0  0  0  0  0
   56.9800   29.2520   44.4120 C   0  0  0  0  0  0  0  0  0  0  0  0
   61.0132   26.1999   46.5401 H   0  0  0  0  0  0  0  0  0  0  0  0
   59.3646   26.1684   45.8275 H   0  0  0  0  0  0  0  0  0  0  0  0
   60.3140   27.6933   45.8275 H   0  0  0  0  0  0  0  0  0  0  0  0
   59.5823   26.2861   48.4252 H   0  0  0  0  0  0  0  0  0  0  0  0
   60.0443   28.0020   48.1596 H   0  0  0  0  0  0  0  0  0  0  0  0
   58.5336   30.1404   47.1996 H   0  0  0  0  0  0  0  0  0  0  0  0
   59.7027   29.3747   46.0514 H   0  0  0  0  0  0  0  0  0  0  0  0
   59.3692   31.9233   45.8334 H   0  0  0  0  0  0  0  0  0  0  0  0
   59.2149   30.9599   44.3333 H   0  0  0  0  0  0  0  0  0  0  0  0
   56.8465   33.0729   43.6846 H   0  0  0  0  0  0  0  0  0  0  0  0
   56.8765   33.6817   45.3849 H   0  0  0  0  0  0  0  0  0  0  0  0
   59.5117   32.8722   44.9483 H   0  0  0  0  0  0  0  0  0  0  0  0
   59.0158   33.5955   43.3638 H   0  0  0  0  0  0  0  0  0  0  0  0
   59.5651   35.5779   44.3122 H   0  0  0  0  0  0  0  0  0  0  0  0
   57.9935   35.4075   45.1858 H   0  0  0  0  0  0  0  0  0  0  0  0
   57.5247   33.7840   47.4229 H   0  0  0  0  0  0  0  0  0  0  0  0
   57.5554   31.9551   49.0800 H   0  0  0  0  0  0  0  0  0  0  0  0
   59.4207   29.7293   49.7466 H   0  0  0  0  0  0  0  0  0  0  0  0
   60.7047   30.6806   50.6482 H   0  0  0  0  0  0  0  0  0  0  0  0
   59.2255   30.8123   52.3149 H   0  0  0  0  0  0  0  0  0  0  0  0
   58.3738   32.0166   51.2898 H   0  0  0  0  0  0  0  0  0  0  0  0
   56.3794   29.2528   52.6678 H   0  0  0  0  0  0  0  0  0  0  0  0
   57.3363   30.6871   53.2020 H   0  0  0  0  0  0  0  0  0  0  0  0
   55.6354   32.0662   52.6746 H   0  0  0  0  0  0  0  0  0  0  0  0
   55.6171   31.4366   50.9866 H   0  0  0  0  0  0  0  0  0  0  0  0
   54.5061   29.1001   53.9200 H   0  0  0  0  0  0  0  0  0  0  0  0
   53.6971   28.4446   52.4562 H   0  0  0  0  0  0  0  0  0  0  0  0
   55.4731   28.7140   52.4562 H   0  0  0  0  0  0  0  0  0  0  0  0
   53.9491   30.7104   50.2623 H   0  0  0  0  0  0  0  0  0  0  0  0
   52.8585   29.5311   51.1415 H   0  0  0  0  0  0  0  0  0  0  0  0
   52.0672   31.7726   52.3579 H   0  0  0  0  0  0  0  0  0  0  0  0
   52.6056   32.5021   50.8072 H   0  0  0  0  0  0  0  0  0  0  0  0
   51.3519   31.2156   50.8072 H   0  0  0  0  0  0  0  0  0  0  0  0
   62.1945   30.6584   49.4092 H   0  0  0  0  0  0  0  0  0  0  0  0
   64.2798   31.4226   48.2924 H   0  0  0  0  0  0  0  0  0  0  0  0
   64.2254   33.3312   46.6971 H   0  0  0  0  0  0  0  0  0  0  0  0
   62.0770   34.4744   46.1862 H   0  0  0  0  0  0  0  0  0  0  0  0
   55.5319   30.8539   44.5459 H   0  0  0  0  0  0  0  0  0  0  0  0
   56.8016   31.0397   43.2415 H   0  0  0  0  0  0  0  0  0  0  0  0
   56.0641   28.6441   44.3722 H   0  0  0  0  0  0  0  0  0  0  0  0
   57.6598   29.0035   43.5836 H   0  0  0  0  0  0  0  0  0  0  0  0
  1  2  1  0
  2  3  1  0
  3  4  1  0
  4  5  2  0
  4  6  1  0
  6  7  1  0
  7  8  1  0
  8  9  1  0
  9 10  1  0
 10 11  1  0
 11 12  1  0
 12 13  1  0
 13 14  1  0
 14 15  2  0
 15 16  1  0
 16 17  2  0
 17 18  1  0
 18 19  1  0
 19 20  1  0
 20 21  1  0
 21 22  1  0
 22 23  1  0
 23 24  1  0
 23 25  1  0
 25 26  1  0
 17 27  1  0
 27 28  2  0
 28 29  1  0
 29 30  2  0
 30 31  1  0
 31 32  2  0
  9 33  1  0
 33 34  1  0
 34  6  1  0
 32 14  1  0
 32 27  1  0
  1 35  1  0
  1 36  1  0
  1 37  1  0
  2 38  1  0
  2 39  1  0
  7 40  1  0
  7 41  1  0
  8 42  1  0
  8 43  1  0
 10 44  1  0
 10 45  1  0
 11 46  1  0
 11 47  1  0
 12 48  1  0
 12 49  1  0
 15 50  1  0
 16 51  1  0
 18 52  1  0
 18 53  1  0
 19 54  1  0
 19 55  1  0
 21 56  1  0
 21 57  1  0
 22 58  1  0
 22 59  1  0
 24 60  1  0
 24 61  1  0
 24 62  1  0
 25 63  1  0
 25 64  1  0
 26 65  1  0
 26 66  1  0
 26 67  1  0
 28 68  1  0
 29 69  1  0
 30 70  1  0
 31 71  1  0
 33 72  1  0
 33 73  1  0
 34 74  1  0
 34 75  1  0
M  END
>  <UniqueID>  (1) 
1

>  <SMILES>  (1) 
CCOC(=O)N1CCN(CCCOc2ccc(CCOCCN(C)CC)c3ccccc23)CC1

>  <Energy>  (1) 
85.07286765804037

>  <Genealogy>  (1) 
CCOC(=O)N1CCN(CCCOc2ccc(CCOCCN(C)CC)c3ccccc23)CC1 (3D coordinates assigned)
CCOC(=O)N1CCN(CCCOc2ccc(CCOCCN(C)CC)c3ccccc23)CC1 (nonaromatic ring conformer: 85.07286765804037 kcal/mol)

>  <smiles>  (1) 
CCOC(=O)N1CCN(CCCOc2ccc(CCOCCN(C)CC)c3ccccc23)CC1

>  <score_type>  (1) 
oracle

>  <origin>  (1) 
adg

>  <m_score__min__energy>  (1) 
-8.4499999999999993

>  <m_primary>  (1) 
energy

$$$$
1:0
     RDKit          3D

 56 58  0  0  0  0  0  0  0  0999 V2000
   69.3150   34.7550   49.8210 C   0  0  0  0  0  0  0  0  0  0  0  0
   68.9040   33.9970   51.0900 C   0  0  0  0  0  0  0  0  0  0  0  0
   67.4420   33.7450   51.1480 N   0  0  2  0  0  0  0  0  0  0  0  0
   66.8020   34.4770   52.2600 C   0  0  0  0  0  0  0  0  0  0  0  0
   67.1300   32.2930   51.1820 C   0  0  0  0  0  0  0  0  0  0  0  0
   65.8670   31.8780   50.4070 C   0  0  0  0  0  0  0  0  0  0  0  0
   65.5690   32.8290   49.3890 O   0  0  0  0  0  0  0  0  0  0  0  0
   64.2740   33.1470   48.9530 C   0  0  0  0  0  0  0  0  0  0  0  0
   64.0470   33.2520   47.5810 C   0  0  0  0  0  0  0  0  0  0  0  0
   62.7790   33.5660   47.0900 C   0  0  0  0  0  0  0  0  0  0  0  0
   61.6980   33.7910   47.9680 C   0  0  0  0  0  0  0  0  0  0  0  0
   61.9180   33.6340   49.3590 C   0  0  0  0  0  0  0  0  0  0  0  0
   63.2040   33.3430   49.8420 C   0  0  0  0  0  0  0  0  0  0  0  0
   60.7950   33.8270   50.3440 C   0  0  0  0  0  0  0  0  0  0  0  0
   59.4450   33.5320   49.6990 C   0  0  0  0  0  0  0  0  0  0  0  0
   59.2770   34.3780   48.4400 C   0  0  0  0  0  0  0  0  0  0  0  0
   60.3650   34.1290   47.4790 N   0  0  0  0  0  0  0  0  0  0  0  0
   60.0880   34.3780   46.0500 C   0  0  0  0  0  0  0  0  0  0  0  0
   59.2270   33.2860   45.4620 C   0  0  0  0  0  0  0  0  0  0  0  0
   58.5830   33.4880   44.2300 C   0  0  0  0  0  0  0  0  0  0  0  0
   57.7730   32.4890   43.6830 C   0  0  0  0  0  0  0  0  0  0  0  0
   57.5840   31.2780   44.3640 C   0  0  0  0  0  0  0  0  0  0  0  0
   56.7460   30.1950   43.7510 C   0  0  0  0  0  0  0  0  0  0  0  0
   58.2220   31.0750   45.5940 C   0  0  0  0  0  0  0  0  0  0  0  0
   59.0230   32.0770   46.1480 C   0  0  0  0  0  0  0  0  0  0  0  0
   69.8221   35.6902   50.1006 H   0  0  0  0  0  0  0  0  0  0  0  0
   69.9983   34.1310   49.2263 H   0  0  0  0  0  0  0  0  0  0  0  0
   68.4192   34.9872   49.2263 H   0  0  0  0  0  0  0  0  0  0  0  0
   69.4304   33.0314   51.1112 H   0  0  0  0  0  0  0  0  0  0  0  0
   69.1723   34.6203   51.9557 H   0  0  0  0  0  0  0  0  0  0  0  0
   67.0150   34.1060   50.2600 H   0  0  0  0  0  0  0  0  0  0  0  0
   67.1570   34.0709   53.2187 H   0  0  0  0  0  0  0  0  0  0  0  0
   67.0623   35.5438   52.1947 H   0  0  0  0  0  0  0  0  0  0  0  0
   65.7100   34.3614   52.1947 H   0  0  0  0  0  0  0  0  0  0  0  0
   67.9859   31.7505   50.7541 H   0  0  0  0  0  0  0  0  0  0  0  0
   66.9372   32.0459   52.2364 H   0  0  0  0  0  0  0  0  0  0  0  0
   66.0334   30.8937   49.9449 H   0  0  0  0  0  0  0  0  0  0  0  0
   65.0202   31.8309   51.1075 H   0  0  0  0  0  0  0  0  0  0  0  0
   64.8766   33.0855   46.8781 H   0  0  0  0  0  0  0  0  0  0  0  0
   62.6203   33.6390   46.0040 H   0  0  0  0  0  0  0  0  0  0  0  0
   63.3751   33.2678   50.9260 H   0  0  0  0  0  0  0  0  0  0  0  0
   60.9429   33.1469   51.1958 H   0  0  0  0  0  0  0  0  0  0  0  0
   60.8008   34.8741   50.6811 H   0  0  0  0  0  0  0  0  0  0  0  0
   59.3930   32.4661   49.4322 H   0  0  0  0  0  0  0  0  0  0  0  0
   58.6420   33.7760   50.4101 H   0  0  0  0  0  0  0  0  0  0  0  0
   58.3162   34.1284   47.9661 H   0  0  0  0  0  0  0  0  0  0  0  0
   59.3045   35.4392   48.7284 H   0  0  0  0  0  0  0  0  0  0  0  0
   59.5656   35.3407   45.9483 H   0  0  0  0  0  0  0  0  0  0  0  0
   61.0450   34.3967   45.5080 H   0  0  0  0  0  0  0  0  0  0  0  0
   58.7171   34.4383   43.6925 H   0  0  0  0  0  0  0  0  0  0  0  0
   57.2811   32.6537   42.7130 H   0  0  0  0  0  0  0  0  0  0  0  0
   56.2819   29.5952   44.5478 H   0  0  0  0  0  0  0  0  0  0  0  0
   55.9605   30.6475   43.1279 H   0  0  0  0  0  0  0  0  0  0  0  0
   57.3812   29.5482   43.1279 H   0  0  0  0  0  0  0  0  0  0  0  0
   58.0919   30.1216   46.1269 H   0  0  0  0  0  0  0  0  0  0  0  0
   59.4970   31.9181   47.1278 H   0  0  0  0  0  0  0  0  0  0  0  0
  1  2  1  0
  2  3  1  0
  3  4  1  0
  3  5  1  0
  5  6  1  0
  6  7  1  0
  7  8  1  0
  8  9  2  0
  9 10  1  0
 10 11  2  0
 11 12  1  0
 12 13  2  0
 12 14  1  0
 14 15  1  0
 15 16  1  0
 16 17  1  0
 17 18  1  0
 18 19  1  0
 19 20  2  0
 20 21  1  0
 21 22  2  0
 22 23  1  0
 22 24  1  0
 24 25  2  0
 13  8  1  0
 25 19  1  0
 17 11  1  0
  1 26  1  0
  1 27  1  0
  1 28  1  0
  2 29  1  0
  2 30  1  0
  3 31  1  6
  4 32  1  0
  4 33  1  0
  4 34  1  0
  5 35  1  0
  5 36  1  0
  6 37  1  0
  6 38  1  0
  9 39  1  0
 10 40  1  0
 13 41  1  0
 14 42  1  0
 14 43  1  0
 15 44  1  0
 15 45  1  0
 16 46  1  0
 16 47  1  0
 18 48  1  0
 18 49  1  0
 20 50  1  0
 21 51  1  0
 23 52  1  0
 23 53  1  0
 23 54  1  0
 24 55  1  0
 25 56  1  0
M  CHG  1   3   1
M  END
>  <UniqueID>  (2) 
2

>  <SMILES>  (2) 
CC[N@H+](C)CCOc1ccc2c(c1)CCCN2Cc1ccc(C)cc1

>  <Energy>  (2) 
58.561805251441655

>  <Genealogy>  (2) 
CC[NH+](C)CCOc1ccc2c(c1)CCCN2Cc1ccc(C)cc1 (protonated)
CC[N@H+](C)CCOc1ccc2c(c1)CCCN2Cc1ccc(C)cc1 (chirality)
CC[N@H+](C)CCOc1ccc2c(c1)CCCN2Cc1ccc(C)cc1 (3D coordinates assigned)
CC[N@H+](C)CCOc1ccc2c(c1)CCCN2Cc1ccc(C)cc1 (nonaromatic ring conformer: 58.561805251441655 kcal/mol)

>  <smiles>  (2) 
CCN(C)CCOc1ccc2c(c1)CCCN2Cc1ccc(C)cc1

>  <score_type>  (2) 
oracle

>  <origin>  (2) 
adg

>  <m_score__min__energy>  (2) 
-5.6900000000000004

>  <m_primary>  (2) 
energy

$$$$
2:0
     RDKit          3D

 44 45  0  0  0  0  0  0  0  0999 V2000
   60.7320   30.3860   46.8120 C   0  0  0  0  0  0  0  0  0  0  0  0
   59.5720   29.8390   45.9870 C   0  0  0  0  0  0  0  0  0  0  0  0
   58.2090   30.0400   46.6640 C   0  0  0  0  0  0  0  0  0  0  0  0
   57.4410   31.0460   45.9980 O   0  0  0  0  0  0  0  0  0  0  0  0
   57.3390   31.2200   44.6080 C   0  0  0  0  0  0  0  0  0  0  0  0
   56.7330   30.2540   43.7790 C   0  0  0  0  0  0  0  0  0  0  0  0
   56.6420   30.4610   42.4030 C   0  0  0  0  0  0  0  0  0  0  0  0
   57.1610   31.6220   41.8340 C   0  0  0  0  0  0  0  0  0  0  0  0
   57.7700   32.5820   42.6410 C   0  0  0  0  0  0  0  0  0  0  0  0
   57.8640   32.3940   44.0270 C   0  0  0  0  0  0  0  0  0  0  0  0
   58.5130   33.4670   44.8760 C   0  0  0  0  0  0  0  0  0  0  0  0
   58.2610   33.2640   46.3120 N   0  0  0  0  0  0  0  0  0  0  0  0
   58.8440   34.3350   47.1360 C   0  0  0  0  0  0  0  0  0  0  0  0
   60.2210   33.9530   47.5920 C   0  0  0  0  0  0  0  0  0  0  0  0
   61.3460   33.8270   46.8060 C   0  0  0  0  0  0  0  0  0  0  0  0
   62.3900   33.5560   47.6130 N   0  0  0  0  0  0  0  0  0  0  0  0
   63.7750   33.4180   47.1900 C   0  0  0  0  0  0  0  0  0  0  0  0
   62.0010   33.5410   48.8790 N   0  0  0  0  0  0  0  0  0  0  0  0
   60.6720   33.7750   48.8900 C   0  0  0  0  0  0  0  0  0  0  0  0
   59.8570   33.8780   50.1360 C   0  0  0  0  0  0  0  0  0  0  0  0
   60.5034   30.2782   47.8826 H   0  0  0  0  0  0  0  0  0  0  0  0
   61.6477   29.8248   46.5743 H   0  0  0  0  0  0  0  0  0  0  0  0
   60.8816   31.4495   46.5743 H   0  0  0  0  0  0  0  0  0  0  0  0
   59.5599   30.3532   45.0147 H   0  0  0  0  0  0  0  0  0  0  0  0
   59.7284   28.7558   45.8760 H   0  0  0  0  0  0  0  0  0  0  0  0
   57.6536   29.0908   46.6400 H   0  0  0  0  0  0  0  0  0  0  0  0
   58.3810   30.3644   47.7009 H   0  0  0  0  0  0  0  0  0  0  0  0
   56.3293   29.3309   44.2205 H   0  0  0  0  0  0  0  0  0  0  0  0
   56.1593   29.7058   41.7653 H   0  0  0  0  0  0  0  0  0  0  0  0
   57.0903   31.7812   40.7479 H   0  0  0  0  0  0  0  0  0  0  0  0
   58.1806   33.4954   42.1859 H   0  0  0  0  0  0  0  0  0  0  0  0
   59.5988   33.4499   44.7004 H   0  0  0  0  0  0  0  0  0  0  0  0
   58.0778   34.4356   44.5891 H   0  0  0  0  0  0  0  0  0  0  0  0
   58.6930   32.3480   46.5870 H   0  0  0  0  0  0  0  0  0  0  0  0
   57.2310   33.2020   46.4840 H   0  0  0  0  0  0  0  0  0  0  0  0
   58.9023   35.2587   46.5416 H   0  0  0  0  0  0  0  0  0  0  0  0
   58.2069   34.4931   48.0186 H   0  0  0  0  0  0  0  0  0  0  0  0
   61.3847   33.9297   45.7115 H   0  0  0  0  0  0  0  0  0  0  0  0
   64.4242   33.3533   48.0757 H   0  0  0  0  0  0  0  0  0  0  0  0
   63.8850   32.5044   46.5872 H   0  0  0  0  0  0  0  0  0  0  0  0
   64.0631   34.2919   46.5872 H   0  0  0  0  0  0  0  0  0  0  0  0
   60.5158   33.7947   51.0130 H   0  0  0  0  0  0  0  0  0  0  0  0
   59.3399   34.8486   50.1567 H   0  0  0  0  0  0  0  0  0  0  0  0
   59.1146   33.0665   50.1567 H   0  0  0  0  0  0  0  0  0  0  0  0
  1  2  1  0
  2  3  1  0
  3  4  1  0
  4  5  1  0
  5  6  2  0
  6  7  1  0
  7  8  2  0
  8  9  1  0
  9 10  2  0
 10 11  1  0
 11 12  1  0
 12 13  1  0
 13 14  1  0
 14 15  2  0
 15 16  1  0
 16 17  1  0
 16 18  1  0
 18 19  2  0
 19 20  1  0
 10  5  1  0
 19 14  1  0
  1 21  1  0
  1 22  1  0
  1 23  1  0
  2 24  1  0
  2 25  1  0
  3 26  1  0
  3 27  1  0
  6 28  1  0
  7 29  1  0
  8 30  1  0
  9 31  1  0
 11 32  1  0
 11 33  1  0
 12 34  1  0
 12 35  1  0
 13 36  1  0
 13 37  1  0
 15 38  1  0
 17 39  1  0
 17 40  1  0
 17 41  1  0
 20 42  1  0
 20 43  1  0
 20 44  1  0
M  CHG  1  12   1
M  END
>  <UniqueID>  (3) 
3

>  <SMILES>  (3) 
CCCOc1ccccc1C[NH2+]Cc1cn(C)nc1C

>  <Energy>  (3) 
68.16896534739077

>  <Genealogy>  (3) 
CCCOc1ccccc1C[NH2+]Cc1cn(C)nc1C (protonated)
CCCOc1ccccc1C[NH2+]Cc1cn(C)nc1C (3D coordinates assigned)
CCCOc1ccccc1C[NH2+]Cc1cn(C)nc1C (optimized conformer: 68.16896534739077 kcal/mol)

>  <smiles>  (3) 
CCCOc1ccccc1CNCc1cn(C)nc1C

>  <score_type>  (3) 
oracle

>  <origin>  (3) 
adg

>  <m_score__min__energy>  (3) 
-4.5300000000000002

>  <m_primary>  (3) 
energy

$$$$
3:0
     RDKit          3D

 29 30  0  0  0  0  0  0  0  0999 V2000
   56.2560   29.8690   43.2090 C   0  0  0  0  0  0  0  0  0  0  0  0
   56.2640   30.4770   44.4950 O   0  0  0  0  0  0  0  0  0  0  0  0
   57.4240   30.9930   45.0830 C   0  0  0  0  0  0  0  0  0  0  0  0
   57.7430   32.3130   45.1060 N   0  0  0  0  0  0  0  0  0  0  0  0
   58.9240   32.3440   45.7530 C   0  0  0  0  0  0  0  0  0  0  0  0
   59.2970   31.0880   46.0990 C   0  0  0  0  0  0  0  0  0  0  0  0
   60.5030   30.8710   46.7540 C   0  0  0  0  0  0  0  0  0  0  0  0
   60.8650   29.7010   47.0570 O   0  0  0  0  0  0  0  0  0  0  0  0
   61.2890   31.9620   47.0510 N   0  0  0  0  0  0  0  0  0  0  0  0
   62.5880   31.7670   47.7140 C   0  0  0  0  0  0  0  0  0  0  0  0
   60.8980   33.2320   46.6600 C   0  0  0  0  0  0  0  0  0  0  0  0
   61.6590   34.2170   46.8870 O   0  0  0  0  0  0  0  0  0  0  0  0
   59.6920   33.4360   46.0210 N   0  0  0  0  0  0  0  0  0  0  0  0
   59.2480   34.7700   45.5930 C   0  0  0  0  0  0  0  0  0  0  0  0
   58.3560   30.2150   45.6860 N   0  0  0  0  0  0  0  0  0  0  0  0
   58.3480   28.7600   45.8240 C   0  0  0  0  0  0  0  0  0  0  0  0
   56.2416   28.7748   43.3208 H   0  0  0  0  0  0  0  0  0  0  0  0
   55.3620   30.1928   42.6559 H   0  0  0  0  0  0  0  0  0  0  0  0
   57.1582   30.1692   42.6559 H   0  0  0  0  0  0  0  0  0  0  0  0
   57.2050   33.1130   44.7050 H   0  0  0  0  0  0  0  0  0  0  0  0
   62.4496   31.7878   48.8051 H   0  0  0  0  0  0  0  0  0  0  0  0
   63.0094   30.7955   47.4163 H   0  0  0  0  0  0  0  0  0  0  0  0
   63.2761   32.5719   47.4163 H   0  0  0  0  0  0  0  0  0  0  0  0
   59.0418   35.3894   46.4784 H   0  0  0  0  0  0  0  0  0  0  0  0
   60.0371   35.2432   44.9901 H   0  0  0  0  0  0  0  0  0  0  0  0
   58.3327   34.6759   44.9901 H   0  0  0  0  0  0  0  0  0  0  0  0
   58.3465   28.4929   46.8911 H   0  0  0  0  0  0  0  0  0  0  0  0
   57.4476   28.3510   45.3424 H   0  0  0  0  0  0  0  0  0  0  0  0
   59.2439   28.3411   45.3424 H   0  0  0  0  0  0  0  0  0  0  0  0
  1  2  1  0
  2  3  1  0
  3  4  2  0
  4  5  1  0
  5  6  2  0
  6  7  1  0
  7  8  2  0
  7  9  1  0
  9 10  1  0
  9 11  1  0
 11 12  2  0
 11 13  1  0
 13 14  1  0
  6 15  1  0
 15 16  1  0
 15  3  1  0
 13  5  1  0
  1 17  1  0
  1 18  1  0
  1 19  1  0
  4 20  1  0
 10 21  1  0
 10 22  1  0
 10 23  1  0
 14 24  1  0
 14 25  1  0
 14 26  1  0
 16 27  1  0
 16 28  1  0
 16 29  1  0
M  CHG  1   4   1
M  END
>  <UniqueID>  (4) 
4

>  <SMILES>  (4) 
COc1[nH+]c2c(c(=O)n(C)c(=O)n2C)n1C

>  <Energy>  (4) 
74.25286217383209

>  <Genealogy>  (4) 
COc1[nH+]c2c(c(=O)n(C)c(=O)n2C)n1C (protonated)
COc1[nH+]c2c(c(=O)n(C)c(=O)n2C)n1C (3D coordinates assigned)
COc1[nH+]c2c(c(=O)n(C)c(=O)n2C)n1C (optimized conformer: 74.25286217383209 kcal/mol)

>  <smiles>  (4) 
COc1nc2c(c(=O)n(C)c(=O)n2C)n1C

>  <score_type>  (4) 
oracle

>  <origin>  (4) 
adg

>  <m_score__min__energy>  (4) 
-3.27

>  <m_primary>  (4) 
energy

$$$$
4:0
     RDKit          3D

 52 54  0  0  0  0  0  0  0  0999 V2000
   57.0420   27.1100   45.9760 C   0  0  0  0  0  0  0  0  0  0  0  0
   58.0400   26.7630   47.0860 C   0  0  0  0  0  0  0  0  0  0  0  0
   59.2410   27.6160   47.0480 N   0  0  0  0  0  0  0  0  0  0  0  0
   59.9820   27.5120   45.7800 C   0  0  0  0  0  0  0  0  0  0  0  0
   60.8340   28.7630   45.5530 C   0  0  0  0  0  0  0  0  0  0  0  0
   60.7870   29.6520   46.7140 N   0  0  0  0  0  0  0  0  0  0  0  0
   60.2530   30.9800   46.6060 C   0  0  0  0  0  0  0  0  0  0  0  0
   60.8360   32.1690   47.0380 C   0  0  0  0  0  0  0  0  0  0  0  0
   62.0570   32.3210   47.8560 C   0  0  0  0  0  0  0  0  0  0  0  0
   62.9970   33.3090   47.5240 C   0  0  0  0  0  0  0  0  0  0  0  0
   64.1490   33.4770   48.2920 C   0  0  0  0  0  0  0  0  0  0  0  0
   64.3800   32.6530   49.3920 C   0  0  0  0  0  0  0  0  0  0  0  0
   63.4650   31.6500   49.7230 C   0  0  0  0  0  0  0  0  0  0  0  0
   62.2920   31.4730   48.9590 C   0  0  0  0  0  0  0  0  0  0  0  0
   61.3430   30.4800   49.2640 O   0  0  0  0  0  0  0  0  0  0  0  0
   60.1100   30.6840   49.9540 C   0  0  0  0  0  0  0  0  0  0  0  0
   59.2850   29.3960   49.9810 C   0  0  0  0  0  0  0  0  0  0  0  0
   60.0550   28.3150   49.4910 O   0  0  0  0  0  0  0  0  0  0  0  0
   60.8290   27.7510   50.5250 C   0  0  0  0  0  0  0  0  0  0  0  0
   60.0700   33.2170   46.6450 N   0  0  0  0  0  0  0  0  0  0  0  0
   59.0450   32.6350   45.9870 C   0  0  0  0  0  0  0  0  0  0  0  0
   57.9930   33.3070   45.3660 C   0  0  0  0  0  0  0  0  0  0  0  0
   57.0310   32.5350   44.6950 C   0  0  0  0  0  0  0  0  0  0  0  0
   57.1430   31.1310   44.6600 C   0  0  0  0  0  0  0  0  0  0  0  0
   55.8440   30.0830   43.7330 Br  0  0  0  0  0  0  0  0  0  0  0  0
   58.2230   30.5070   45.3040 C   0  0  0  0  0  0  0  0  0  0  0  0
   59.1250   31.2930   45.9500 N   0  0  0  0  0  0  0  0  0  0  0  0
   56.0937   27.4397   46.4255 H   0  0  0  0  0  0  0  0  0  0  0  0
   57.4529   27.9180   45.3529 H   0  0  0  0  0  0  0  0  0  0  0  0
   56.8630   26.2213   45.3529 H   0  0  0  0  0  0  0  0  0  0  0  0
   57.5449   26.8931   48.0596 H   0  0  0  0  0  0  0  0  0  0  0  0
   58.3626   25.7224   46.9339 H   0  0  0  0  0  0  0  0  0  0  0  0
   59.8750   27.3630   47.8450 H   0  0  0  0  0  0  0  0  0  0  0  0
   60.6373   26.6292   45.8150 H   0  0  0  0  0  0  0  0  0  0  0  0
   59.2619   27.4172   44.9539 H   0  0  0  0  0  0  0  0  0  0  0  0
   61.8763   28.4600   45.3749 H   0  0  0  0  0  0  0  0  0  0  0  0
   60.4338   29.3042   44.6830 H   0  0  0  0  0  0  0  0  0  0  0  0
   60.7110   29.1930   47.6470 H   0  0  0  0  0  0  0  0  0  0  0  0
   62.8238   33.9558   46.6513 H   0  0  0  0  0  0  0  0  0  0  0  0
   64.8755   34.2601   48.0294 H   0  0  0  0  0  0  0  0  0  0  0  0
   65.2851   32.7925   50.0014 H   0  0  0  0  0  0  0  0  0  0  0  0
   63.6604   30.9944   50.5844 H   0  0  0  0  0  0  0  0  0  0  0  0
   60.3220   30.9986   50.9865 H   0  0  0  0  0  0  0  0  0  0  0  0
   59.5353   31.4607   49.4283 H   0  0  0  0  0  0  0  0  0  0  0  0
   58.9762   29.1834   51.0151 H   0  0  0  0  0  0  0  0  0  0  0  0
   58.3974   29.5236   49.3440 H   0  0  0  0  0  0  0  0  0  0  0  0
   60.4154   28.0524   51.4987 H   0  0  0  0  0  0  0  0  0  0  0  0
   60.8089   26.6543   50.4417 H   0  0  0  0  0  0  0  0  0  0  0  0
   61.8668   28.1061   50.4417 H   0  0  0  0  0  0  0  0  0  0  0  0
   57.9192   34.4040   45.4005 H   0  0  0  0  0  0  0  0  0  0  0  0
   56.1854   33.0290   44.1940 H   0  0  0  0  0  0  0  0  0  0  0  0
   58.3364   29.4130   45.2865 H   0  0  0  0  0  0  0  0  0  0  0  0
  1  2  1  0
  2  3  1  0
  3  4  1  0
  4  5  1  0
  5  6  1  0
  6  7  1  0
  7  8  2  0
  8  9  1  0
  9 10  2  0
 10 11  1  0
 11 12  2  0
 12 13  1  0
 13 14  2  0
 14 15  1  0
 15 16  1  0
 16 17  1  0
 17 18  1  0
 18 19  1  0
  8 20  1  0
 20 21  2  0
 21 22  1  0
 22 23  2  0
 23 24  1  0
 24 25  1  0
 24 26  2  0
 26 27  1  0
 27  7  1  0
 14  9  1  0
 27 21  1  0
  1 28  1  0
  1 29  1  0
  1 30  1  0
  2 31  1  0
  2 32  1  0
  3 33  1  0
  4 34  1  0
  4 35  1  0
  5 36  1  0
  5 37  1  0
  6 38  1  0
 10 39  1  0
 11 40  1  0
 12 41  1  0
 13 42  1  0
 16 43  1  0
 16 44  1  0
 17 45  1  0
 17 46  1  0
 19 47  1  0
 19 48  1  0
 19 49  1  0
 22 50  1  0
 23 51  1  0
 26 52  1  0
M  END
>  <UniqueID>  (5) 
5

>  <SMILES>  (5) 
CCNCCNc1c(-c2ccccc2OCCOC)nc2ccc(Br)cn12

>  <Energy>  (5) 
93.76757689506543

>  <Genealogy>  (5) 
CCNCCNc1c(-c2ccccc2OCCOC)nc2ccc(Br)cn12 (3D coordinates assigned)
CCNCCNc1c(-c2ccccc2OCCOC)nc2ccc(Br)cn12 (optimized conformer: 93.76757689506543 kcal/mol)

>  <smiles>  (5) 
CCNCCNc1c(-c2ccccc2OCCOC)nc2ccc(Br)cn12

>  <score_type>  (5) 
oracle

>  <origin>  (5) 
adg

>  <m_score__min__energy>  (5) 
-5.29

>  <m_primary>  (5) 
energy

$$$$
5:0
     RDKit          3D

 68 70  0  0  0  0  0  0  0  0999 V2000
   63.3870   34.1730   46.3520 C   0  0  0  0  0  0  0  0  0  0  0  0
   63.3180   32.7120   46.7640 C   0  0  0  0  0  0  0  0  0  0  0  0
   62.6670   32.6070   48.0280 O   0  0  0  0  0  0  0  0  0  0  0  0
   63.2460   32.8830   49.2770 C   0  0  0  0  0  0  0  0  0  0  0  0
   64.6460   32.9930   49.3660 C   0  0  0  0  0  0  0  0  0  0  0  0
   65.2700   33.1770   50.5850 C   0  0  0  0  0  0  0  0  0  0  0  0
   64.5240   33.1810   51.7490 C   0  0  0  0  0  0  0  0  0  0  0  0
   63.1170   33.0250   51.7250 C   0  0  0  0  0  0  0  0  0  0  0  0
   62.4410   33.0120   50.4650 C   0  0  0  0  0  0  0  0  0  0  0  0
   61.0070   33.1300   50.4640 C   0  0  0  0  0  0  0  0  0  0  0  0
   60.2420   33.2380   49.2250 N   0  0  0  0  0  0  0  0  0  0  0  0
   59.6650   34.5830   48.9710 C   0  0  0  0  0  0  0  0  0  0  0  0
   59.5680   34.9780   47.4860 C   0  0  0  0  0  0  0  0  0  0  0  0
   60.5090   34.2500   46.7180 O   0  0  0  0  0  0  0  0  0  0  0  0
   59.9090   33.6590   45.5800 C   0  0  0  0  0  0  0  0  0  0  0  0
   58.9440   32.5280   45.9640 C   0  0  0  0  0  0  0  0  0  0  0  0
   59.3360   31.9200   47.1830 O   0  0  0  0  0  0  0  0  0  0  0  0
   60.1930   30.8150   46.9580 C   0  0  0  0  0  0  0  0  0  0  0  0
   60.0390   29.7630   48.0650 C   0  0  0  0  0  0  0  0  0  0  0  0
   60.1350   30.4140   49.3890 N   0  0  0  0  0  0  0  0  0  0  0  0
   58.8560   30.2940   50.1140 C   0  0  0  0  0  0  0  0  0  0  0  0
   61.2470   29.8530   50.1910 C   0  0  0  0  0  0  0  0  0  0  0  0
   60.8150   29.6900   51.6450 C   0  0  0  0  0  0  0  0  0  0  0  0
   60.3230   33.2040   51.7150 C   0  0  0  0  0  0  0  0  0  0  0  0
   58.9130   33.3700   51.7930 C   0  0  0  0  0  0  0  0  0  0  0  0
   58.2600   33.4730   53.0170 C   0  0  0  0  0  0  0  0  0  0  0  0
   58.9830   33.4290   54.1970 C   0  0  0  0  0  0  0  0  0  0  0  0
   60.3620   33.2560   54.1600 C   0  0  0  0  0  0  0  0  0  0  0  0
   61.0560   33.1060   52.9280 C   0  0  0  0  0  0  0  0  0  0  0  0
   62.4150   32.8970   52.9030 N   0  0  0  0  0  0  0  0  0  0  0  0
   63.1210   32.4920   54.1430 C   0  0  0  0  0  0  0  0  0  0  0  0
   63.4169   34.8064   47.2508 H   0  0  0  0  0  0  0  0  0  0  0  0
   64.2942   34.3427   45.7535 H   0  0  0  0  0  0  0  0  0  0  0  0
   62.4999   34.4275   45.7535 H   0  0  0  0  0  0  0  0  0  0  0  0
   62.7513   32.1447   46.0110 H   0  0  0  0  0  0  0  0  0  0  0  0
   64.3363   32.3030   46.8399 H   0  0  0  0  0  0  0  0  0  0  0  0
   65.2532   32.9315   48.4508 H   0  0  0  0  0  0  0  0  0  0  0  0
   66.3597   33.3202   50.6293 H   0  0  0  0  0  0  0  0  0  0  0  0
   65.0348   33.3082   52.7149 H   0  0  0  0  0  0  0  0  0  0  0  0
   59.5240   32.4980   49.1200 H   0  0  0  0  0  0  0  0  0  0  0  0
   60.8550   32.9860   48.4180 H   0  0  0  0  0  0  0  0  0  0  0  0
   58.6512   34.6058   49.3974 H   0  0  0  0  0  0  0  0  0  0  0  0
   60.3506   35.3055   49.4378 H   0  0  0  0  0  0  0  0  0  0  0  0
   58.5543   34.7600   47.1186 H   0  0  0  0  0  0  0  0  0  0  0  0
   59.7831   36.0523   47.3882 H   0  0  0  0  0  0  0  0  0  0  0  0
   59.3509   34.4315   45.0306 H   0  0  0  0  0  0  0  0  0  0  0  0
   60.7079   33.2291   44.9579 H   0  0  0  0  0  0  0  0  0  0  0  0
   57.9312   32.9419   46.0775 H   0  0  0  0  0  0  0  0  0  0  0  0
   58.9616   31.7667   45.1702 H   0  0  0  0  0  0  0  0  0  0  0  0
   59.9425   30.3572   45.9897 H   0  0  0  0  0  0  0  0  0  0  0  0
   61.2330   31.1733   46.9582 H   0  0  0  0  0  0  0  0  0  0  0  0
   59.0592   29.2723   47.9692 H   0  0  0  0  0  0  0  0  0  0  0  0
   60.8387   29.0138   47.9689 H   0  0  0  0  0  0  0  0  0  0  0  0
   59.0456   30.3118   51.1974 H   0  0  0  0  0  0  0  0  0  0  0  0
   58.2004   31.1346   49.8426 H   0  0  0  0  0  0  0  0  0  0  0  0
   58.3682   29.3461   49.8426 H   0  0  0  0  0  0  0  0  0  0  0  0
   61.5303   28.8713   49.7835 H   0  0  0  0  0  0  0  0  0  0  0  0
   62.1055   30.5392   50.1454 H   0  0  0  0  0  0  0  0  0  0  0  0
   61.6360   29.9998   52.3084 H   0  0  0  0  0  0  0  0  0  0  0  0
   59.9317   30.3167   51.8375 H   0  0  0  0  0  0  0  0  0  0  0  0
   60.5658   28.6360   51.8375 H   0  0  0  0  0  0  0  0  0  0  0  0
   58.3252   33.4181   50.8644 H   0  0  0  0  0  0  0  0  0  0  0  0
   57.1666   33.5897   53.0475 H   0  0  0  0  0  0  0  0  0  0  0  0
   58.4668   33.5308   55.1630 H   0  0  0  0  0  0  0  0  0  0  0  0
   60.9278   33.2347   55.1031 H   0  0  0  0  0  0  0  0  0  0  0  0
   62.5435   32.8233   55.0186 H   0  0  0  0  0  0  0  0  0  0  0  0
   63.2246   31.3971   54.1650 H   0  0  0  0  0  0  0  0  0  0  0  0
   64.1185   32.9552   54.1650 H   0  0  0  0  0  0  0  0  0  0  0  0
  1  2  1  0
  2  3  1  0
  3  4  1  0
  4  5  2  0
  5  6  1  0
  6  7  2  0
  7  8  1  0
  8  9  2  0
  9 10  1  0
 10 11  1  0
 11 12  1  0
 12 13  1  0
 13 14  1  0
 14 15  1  0
 15 16  1  0
 16 17  1  0
 17 18  1  0
 18 19  1  0
 19 20  1  0
 20 21  1  0
 20 22  1  0
 22 23  1  0
 10 24  2  0
 24 25  1  0
 25 26  2  0
 26 27  1  0
 27 28  2  0
 28 29  1  0
 29 30  2  0
 30 31  1  0
  9  4  1  0
 29 24  1  0
 30  8  1  0
  1 32  1  0
  1 33  1  0
  1 34  1  0
  2 35  1  0
  2 36  1  0
  5 37  1  0
  6 38  1  0
  7 39  1  0
 11 40  1  0
 11 41  1  0
 12 42  1  0
 12 43  1  0
 13 44  1  0
 13 45  1  0
 15 46  1  0
 15 47  1  0
 16 48  1  0
 16 49  1  0
 18 50  1  0
 18 51  1  0
 19 52  1  0
 19 53  1  0
 21 54  1  0
 21 55  1  0
 21 56  1  0
 22 57  1  0
 22 58  1  0
 23 59  1  0
 23 60  1  0
 23 61  1  0
 25 62  1  0
 26 63  1  0
 27 64  1  0
 28 65  1  0
 31 66  1  0
 31 67  1  0
 31 68  1  0
M  CHG  2  11   1  30   1
M  END
>  <UniqueID>  (6) 
6

>  <SMILES>  (6) 
CCOc1cccc2c1c([NH2+]CCOCCOCCN(C)CC)c1ccccc1[n+]2C

>  <Energy>  (6) 
104.09179179476062

>  <Genealogy>  (6) 
CCOc1cccc2c1c([NH2+]CCOCCOCCN(C)CC)c1ccccc1[n+]2C (protonated)
CCOc1cccc2c1c([NH2+]CCOCCOCCN(C)CC)c1ccccc1[n+]2C (3D coordinates assigned)
CCOc1cccc2c1c([NH2+]CCOCCOCCN(C)CC)c1ccccc1[n+]2C (optimized conformer: 104.09179179476062 kcal/mol)

>  <smiles>  (6) 
CCOc1cccc2c1c(NCCOCCOCCN(C)CC)c1ccccc1[n+]2C

>  <score_type>  (6) 
oracle

>  <origin>  (6) 
adg

>  <m_score__min__energy>  (6) 
-3.6699999999999999

>  <m_primary>  (6) 
energy

$$$$
6:0
     RDKit          3D

 48 49  0  0  0  0  0  0  0  0999 V2000
   61.3410   31.8140   47.2940 C   0  0  0  0  0  0  0  0  0  0  0  0
   60.7540   30.5470   47.4820 O   0  0  0  0  0  0  0  0  0  0  0  0
   59.7270   30.6400   48.4480 C   0  0  0  0  0  0  0  0  0  0  0  0
   59.1840   29.2330   48.7740 C   0  0  0  0  0  0  0  0  0  0  0  0
   59.9010   28.1080   48.1240 N   0  0  1  0  0  0  0  0  0  0  0  0
   60.4730   27.1530   49.0920 C   0  0  0  0  0  0  0  0  0  0  0  0
   59.0870   27.4320   47.1290 C   0  0  0  0  0  0  0  0  0  0  0  0
   58.0190   26.9260   47.4530 O   0  0  0  0  0  0  0  0  0  0  0  0
   59.5470   27.3440   45.6810 C   0  0  0  0  0  0  0  0  0  0  0  0
   58.3540   27.1080   44.7370 C   0  0  0  0  0  0  0  0  0  0  0  0
   57.4590   28.3560   44.5660 C   0  0  0  0  0  0  0  0  0  0  0  0
   58.1380   29.6060   44.9730 N   0  0  0  0  0  0  0  0  0  0  0  0
   57.2630   30.9850   44.3600 S   0  0  0  0  0  0  0  0  0  0  0  0
   55.7950   30.8320   44.6460 O   0  0  0  0  0  0  0  0  0  0  0  0
   57.4580   31.0920   42.8730 O   0  0  0  0  0  0  0  0  0  0  0  0
   57.8830   32.4520   45.1150 C   0  0  0  0  0  0  0  0  0  0  0  0
   57.8120   32.6330   46.5040 C   0  0  0  0  0  0  0  0  0  0  0  0
   58.3370   33.7910   47.0870 C   0  0  0  0  0  0  0  0  0  0  0  0
   58.9350   34.7700   46.2880 C   0  0  0  0  0  0  0  0  0  0  0  0
   59.0110   34.5910   44.9040 C   0  0  0  0  0  0  0  0  0  0  0  0
   58.4870   33.4350   44.3170 C   0  0  0  0  0  0  0  0  0  0  0  0
   59.5280   29.6340   44.4980 C   0  0  0  0  0  0  0  0  0  0  0  0
   60.3660   28.5890   45.2560 C   0  0  0  0  0  0  0  0  0  0  0  0
   61.5519   32.2693   48.2729 H   0  0  0  0  0  0  0  0  0  0  0  0
   62.2796   31.7034   46.7312 H   0  0  0  0  0  0  0  0  0  0  0  0
   60.6497   32.4585   46.7312 H   0  0  0  0  0  0  0  0  0  0  0  0
   60.1284   31.0974   49.3643 H   0  0  0  0  0  0  0  0  0  0  0  0
   58.9104   31.2602   48.0499 H   0  0  0  0  0  0  0  0  0  0  0  0
   59.2441   29.0899   49.8630 H   0  0  0  0  0  0  0  0  0  0  0  0
   58.1571   29.2057   48.3808 H   0  0  0  0  0  0  0  0  0  0  0  0
   60.7240   28.5340   47.6360 H   0  0  0  0  0  0  0  0  0  0  0  0
   60.2655   27.4994   50.1152 H   0  0  0  0  0  0  0  0  0  0  0  0
   60.0195   26.1622   48.9413 H   0  0  0  0  0  0  0  0  0  0  0  0
   61.5605   27.0852   48.9413 H   0  0  0  0  0  0  0  0  0  0  0  0
   60.2191   26.4768   45.6026 H   0  0  0  0  0  0  0  0  0  0  0  0
   58.7414   26.8173   43.7494 H   0  0  0  0  0  0  0  0  0  0  0  0
   57.7329   26.3184   45.1851 H   0  0  0  0  0  0  0  0  0  0  0  0
   57.1713   28.4404   43.5076 H   0  0  0  0  0  0  0  0  0  0  0  0
   56.5818   28.2274   45.2171 H   0  0  0  0  0  0  0  0  0  0  0  0
   57.3432   31.8638   47.1353 H   0  0  0  0  0  0  0  0  0  0  0  0
   58.2792   33.9317   48.1764 H   0  0  0  0  0  0  0  0  0  0  0  0
   59.3455   35.6808   46.7484 H   0  0  0  0  0  0  0  0  0  0  0  0
   59.4836   35.3604   44.2757 H   0  0  0  0  0  0  0  0  0  0  0  0
   58.5485   33.2962   43.2275 H   0  0  0  0  0  0  0  0  0  0  0  0
   59.5496   29.4069   43.4219 H   0  0  0  0  0  0  0  0  0  0  0  0
   59.9502   30.6337   44.6776 H   0  0  0  0  0  0  0  0  0  0  0  0
   61.1889   28.2607   44.6041 H   0  0  0  0  0  0  0  0  0  0  0  0
   60.7342   29.0683   46.1751 H   0  0  0  0  0  0  0  0  0  0  0  0
  1  2  1  0
  2  3  1  0
  3  4  1  0
  4  5  1  0
  5  6  1  0
  5  7  1  0
  7  8  2  0
  7  9  1  0
  9 10  1  0
 10 11  1  0
 11 12  1  0
 12 13  1  0
 13 14  2  0
 13 15  2  0
 13 16  1  0
 16 17  2  0
 17 18  1  0
 18 19  2  0
 19 20  1  0
 20 21  2  0
 12 22  1  0
 22 23  1  0
 23  9  1  0
 21 16  1  0
  1 24  1  0
  1 25  1  0
  1 26  1  0
  3 27  1  0
  3 28  1  0
  4 29  1  0
  4 30  1  0
  5 31  1  6
  6 32  1  0
  6 33  1  0
  6 34  1  0
  9 35  1  0
 10 36  1  0
 10 37  1  0
 11 38  1  0
 11 39  1  0
 17 40  1  0
 18 41  1  0
 19 42  1  0
 20 43  1  0
 21 44  1  0
 22 45  1  0
 22 46  1  0
 23 47  1  0
 23 48  1  0
M  CHG  1   5   1
M  END
>  <UniqueID>  (7) 
7

>  <SMILES>  (7) 
COCC[N@@H+](C)C(=O)C1CCN(S(=O)(=O)c2ccccc2)CC1

>  <Energy>  (7) 
54.68971536183581

>  <Genealogy>  (7) 
COCC[NH+](C)C(=O)C1CCN(S(=O)(=O)c2ccccc2)CC1 (protonated)
COCC[N@@H+](C)C(=O)C1CCN(S(=O)(=O)c2ccccc2)CC1 (chirality)
COCC[N@@H+](C)C(=O)C1CCN(S(=O)(=O)c2ccccc2)CC1 (3D coordinates assigned)
COCC[N@@H+](C)C(=O)C1CCN(S(=O)(=O)c2ccccc2)CC1 (nonaromatic ring conformer: 54.68971536183581 kcal/mol)

>  <smiles>  (7) 
COCCN(C)C(=O)C1CCN(S(=O)(=O)c2ccccc2)CC1

>  <score_type>  (7) 
oracle

>  <origin>  (7) 
adg

>  <m_score__min__energy>  (7) 
-6.4100000000000001

>  <m_primary>  (7) 
energy

$$$$
7:0
     RDKit          3D

 59 61  0  0  0  0  0  0  0  0999 V2000
   62.8080   31.9470   47.8010 C   0  0  0  0  0  0  0  0  0  0  0  0
   63.1270   31.6130   49.2620 C   0  0  0  0  0  0  0  0  0  0  0  0
   62.0160   30.9100   49.9310 N   0  0  0  0  0  0  0  0  0  0  0  0
   62.4700   29.8510   50.8600 C   0  0  0  0  0  0  0  0  0  0  0  0
   61.4190   28.7420   51.0580 C   0  0  0  0  0  0  0  0  0  0  0  0
   60.2840   28.8790   50.1330 N   0  0  0  0  0  0  0  0  0  0  0  0
   60.4280   28.1040   48.8880 C   0  0  0  0  0  0  0  0  0  0  0  0
   59.7580   28.7670   47.6660 C   0  0  0  0  0  0  0  0  0  0  0  0
   58.8410   29.8390   48.0630 N   0  0  0  0  0  0  0  0  0  0  0  0
   58.5470   30.9120   47.1570 C   0  0  0  0  0  0  0  0  0  0  0  0
   58.0040   30.6140   45.8950 C   0  0  0  0  0  0  0  0  0  0  0  0
   57.7110   29.2820   45.5310 C   0  0  0  0  0  0  0  0  0  0  0  0
   57.2270   28.9790   44.2610 C   0  0  0  0  0  0  0  0  0  0  0  0
   57.0330   29.9930   43.3310 C   0  0  0  0  0  0  0  0  0  0  0  0
   57.2920   31.3190   43.6760 C   0  0  0  0  0  0  0  0  0  0  0  0
   57.7440   31.6630   44.9770 C   0  0  0  0  0  0  0  0  0  0  0  0
   57.9480   32.9760   45.3510 N   0  0  0  0  0  0  0  0  0  0  0  0
   57.4060   34.0720   44.5130 C   0  0  0  0  0  0  0  0  0  0  0  0
   58.6220   33.2700   46.5210 C   0  0  0  0  0  0  0  0  0  0  0  0
   59.0950   34.5780   46.7830 C   0  0  0  0  0  0  0  0  0  0  0  0
   59.7100   34.8940   47.9860 C   0  0  0  0  0  0  0  0  0  0  0  0
   59.8800   33.9250   48.9620 C   0  0  0  0  0  0  0  0  0  0  0  0
   59.4750   32.5990   48.7350 C   0  0  0  0  0  0  0  0  0  0  0  0
   59.6360   31.6230   49.7370 O   0  0  0  0  0  0  0  0  0  0  0  0
   58.7920   31.4170   50.8690 C   0  0  0  0  0  0  0  0  0  0  0  0
   58.5830   32.7210   51.6320 C   0  0  0  0  0  0  0  0  0  0  0  0
   58.8780   32.2500   47.4860 C   0  0  0  0  0  0  0  0  0  0  0  0
   62.0487   32.7420   47.7640 H   0  0  0  0  0  0  0  0  0  0  0  0
   63.7227   32.2897   47.2951 H   0  0  0  0  0  0  0  0  0  0  0  0
   62.4237   31.0490   47.2951 H   0  0  0  0  0  0  0  0  0  0  0  0
   64.0202   30.9716   49.2914 H   0  0  0  0  0  0  0  0  0  0  0  0
   63.2951   32.5605   49.7948 H   0  0  0  0  0  0  0  0  0  0  0  0
   61.4340   31.6150   50.4400 H   0  0  0  0  0  0  0  0  0  0  0  0
   61.3920   30.4840   49.2050 H   0  0  0  0  0  0  0  0  0  0  0  0
   63.3874   29.3981   50.4559 H   0  0  0  0  0  0  0  0  0  0  0  0
   62.6450   30.3210   51.8390 H   0  0  0  0  0  0  0  0  0  0  0  0
   61.8978   27.7662   50.8888 H   0  0  0  0  0  0  0  0  0  0  0  0
   61.0300   28.8254   52.0836 H   0  0  0  0  0  0  0  0  0  0  0  0
   60.1630   29.8910   49.8950 H   0  0  0  0  0  0  0  0  0  0  0  0
   61.5005   27.9851   48.6745 H   0  0  0  0  0  0  0  0  0  0  0  0
   59.9237   27.1396   49.0484 H   0  0  0  0  0  0  0  0  0  0  0  0
   60.5394   29.1890   47.0169 H   0  0  0  0  0  0  0  0  0  0  0  0
   59.1764   27.9983   47.1361 H   0  0  0  0  0  0  0  0  0  0  0  0
   58.5060   29.9260   49.0490 H   0  0  0  0  0  0  0  0  0  0  0  0
   57.8670   28.4731   46.2599 H   0  0  0  0  0  0  0  0  0  0  0  0
   56.9982   27.9367   43.9939 H   0  0  0  0  0  0  0  0  0  0  0  0
   56.6742   29.7491   42.3202 H   0  0  0  0  0  0  0  0  0  0  0  0
   57.1436   32.1115   42.9277 H   0  0  0  0  0  0  0  0  0  0  0  0
   57.0120   34.8687   45.1612 H   0  0  0  0  0  0  0  0  0  0  0  0
   58.2070   34.4785   43.8780 H   0  0  0  0  0  0  0  0  0  0  0  0
   56.5968   33.6822   43.8780 H   0  0  0  0  0  0  0  0  0  0  0  0
   58.9727   35.3591   46.0182 H   0  0  0  0  0  0  0  0  0  0  0  0
   60.0646   35.9196   48.1660 H   0  0  0  0  0  0  0  0  0  0  0  0
   60.3370   34.1970   49.9249 H   0  0  0  0  0  0  0  0  0  0  0  0
   57.8172   31.0382   50.5281 H   0  0  0  0  0  0  0  0  0  0  0  0
   59.2720   30.6888   51.5393 H   0  0  0  0  0  0  0  0  0  0  0  0
   58.6149   32.5222   52.7134 H   0  0  0  0  0  0  0  0  0  0  0  0
   59.3785   33.4328   51.3664 H   0  0  0  0  0  0  0  0  0  0  0  0
   57.6049   33.1485   51.3664 H   0  0  0  0  0  0  0  0  0  0  0  0
  1  2  1  0
  2  3  1  0
  3  4  1  0
  4  5  1  0
  5  6  1  0
  6  7  1  0
  7  8  1  0
  8  9  1  0
  9 10  1  0
 10 11  2  0
 11 12  1  0
 12 13  2  0
 13 14  1  0
 14 15  2  0
 15 16  1  0
 16 17  2  0
 17 18  1  0
 17 19  1  0
 19 20  2  0
 20 21  1  0
 21 22  2  0
 22 23  1  0
 23 24  1  0
 24 25  1  0
 25 26  1  0
 23 27  2  0
 27 10  1  0
 16 11  1  0
 27 19  1  0
  1 28  1  0
  1 29  1  0
  1 30  1  0
  2 31  1  0
  2 32  1  0
  3 33  1  0
  3 34  1  0
  4 35  1  0
  4 36  1  0
  5 37  1  0
  5 38  1  0
  6 39  1  0
  7 40  1  0
  7 41  1  0
  8 42  1  0
  8 43  1  0
  9 44  1  0
 12 45  1  0
 13 46  1  0
 14 47  1  0
 15 48  1  0
 18 49  1  0
 18 50  1  0
 18 51  1  0
 20 52  1  0
 21 53  1  0
 22 54  1  0
 25 55  1  0
 25 56  1  0
 26 57  1  0
 26 58  1  0
 26 59  1  0
M  CHG  2   3   1  17   1
M  END
>  <UniqueID>  (8) 
8

>  <SMILES>  (8) 
CC[NH2+]CCNCCNc1c2ccccc2[n+](C)c2cccc(OCC)c12

>  <Energy>  (8) 
87.43983377655609

>  <Genealogy>  (8) 
CC[NH2+]CCNCCNc1c2ccccc2[n+](C)c2cccc(OCC)c12 (protonated)
CC[NH2+]CCNCCNc1c2ccccc2[n+](C)c2cccc(OCC)c12 (3D coordinates assigned)
CC[NH2+]CCNCCNc1c2ccccc2[n+](C)c2cccc(OCC)c12 (optimized conformer: 87.43983377655609 kcal/mol)

>  <smiles>  (8) 
CCNCCNCCNc1c2ccccc2[n+](C)c2cccc(OCC)c12

>  <score_type>  (8) 
oracle

>  <origin>  (8) 
adg

>  <m_score__min__energy>  (8) 
-2.7200000000000002

>  <m_primary>  (8) 
energy

$$$$
8:0
     RDKit          3D

 56 58  0  0  0  0  0  0  0  0999 V2000
   63.0270   33.9660   49.7380 C   0  0  0  0  0  0  0  0  0  0  0  0
   64.0280   33.0240   49.0590 C   0  0  0  0  0  0  0  0  0  0  0  0
   63.8970   32.9980   47.5910 N   0  0  0  0  0  0  0  0  0  0  0  0
   62.5470   32.6700   47.0990 C   0  0  0  0  0  0  0  0  0  0  0  0
   61.8900   33.8460   46.3700 C   0  0  0  0  0  0  0  0  0  0  0  0
   60.7630   34.2870   47.0980 O   0  0  0  0  0  0  0  0  0  0  0  0
   59.9700   35.1290   46.2870 C   0  0  0  0  0  0  0  0  0  0  0  0
   59.3710   34.3190   45.1360 C   0  0  0  0  0  0  0  0  0  0  0  0
   57.8510   34.1880   45.2590 C   0  0  0  0  0  0  0  0  0  0  0  0
   57.5070   33.4260   46.4580 N   0  0  0  0  0  0  0  0  0  0  0  0
   58.1890   32.2010   46.7780 C   0  0  0  0  0  0  0  0  0  0  0  0
   58.9030   32.0850   47.9840 C   0  0  0  0  0  0  0  0  0  0  0  0
   58.8770   33.1220   48.9420 C   0  0  0  0  0  0  0  0  0  0  0  0
   59.5510   32.9890   50.1530 C   0  0  0  0  0  0  0  0  0  0  0  0
   60.2440   31.8200   50.4400 C   0  0  0  0  0  0  0  0  0  0  0  0
   60.2770   30.7790   49.5130 C   0  0  0  0  0  0  0  0  0  0  0  0
   59.6300   30.8950   48.2550 C   0  0  0  0  0  0  0  0  0  0  0  0
   59.6760   29.8810   47.3160 N   0  0  0  0  0  0  0  0  0  0  0  0
   60.6520   28.7790   47.4660 C   0  0  0  0  0  0  0  0  0  0  0  0
   58.8260   29.9090   46.2250 C   0  0  0  0  0  0  0  0  0  0  0  0
   58.6490   28.7800   45.3890 C   0  0  0  0  0  0  0  0  0  0  0  0
   57.8400   28.8410   44.2550 C   0  0  0  0  0  0  0  0  0  0  0  0
   57.1650   30.0170   43.9300 C   0  0  0  0  0  0  0  0  0  0  0  0
   56.3340   30.0920   42.6820 C   0  0  0  0  0  0  0  0  0  0  0  0
   57.3030   31.1380   44.7530 C   0  0  0  0  0  0  0  0  0  0  0  0
   58.0990   31.0910   45.9190 C   0  0  0  0  0  0  0  0  0  0  0  0
   63.1221   33.8765   50.8302 H   0  0  0  0  0  0  0  0  0  0  0  0
   63.2359   35.0028   49.4355 H   0  0  0  0  0  0  0  0  0  0  0  0
   62.0048   33.6946   49.4355 H   0  0  0  0  0  0  0  0  0  0  0  0
   65.0462   33.3536   49.3134 H   0  0  0  0  0  0  0  0  0  0  0  0
   63.8195   32.0074   49.4239 H   0  0  0  0  0  0  0  0  0  0  0  0
   64.5630   32.2810   47.2150 H   0  0  0  0  0  0  0  0  0  0  0  0
   62.6209   31.8204   46.4042 H   0  0  0  0  0  0  0  0  0  0  0  0
   61.9226   32.4244   47.9707 H   0  0  0  0  0  0  0  0  0  0  0  0
   62.6127   34.6703   46.2800 H   0  0  0  0  0  0  0  0  0  0  0  0
   61.5727   33.5222   45.3678 H   0  0  0  0  0  0  0  0  0  0  0  0
   59.1588   35.5610   46.8914 H   0  0  0  0  0  0  0  0  0  0  0  0
   60.5954   35.9363   45.8782 H   0  0  0  0  0  0  0  0  0  0  0  0
   59.6088   34.8211   44.1866 H   0  0  0  0  0  0  0  0  0  0  0  0
   59.8036   33.3082   45.1699 H   0  0  0  0  0  0  0  0  0  0  0  0
   57.4037   35.1908   45.3246 H   0  0  0  0  0  0  0  0  0  0  0  0
   57.4627   33.6616   44.3746 H   0  0  0  0  0  0  0  0  0  0  0  0
   56.6170   33.6560   46.9550 H   0  0  0  0  0  0  0  0  0  0  0  0
   58.3180   34.0452   48.7292 H   0  0  0  0  0  0  0  0  0  0  0  0
   59.5346   33.8111   50.8837 H   0  0  0  0  0  0  0  0  0  0  0  0
   60.7683   31.7152   51.4013 H   0  0  0  0  0  0  0  0  0  0  0  0
   60.8139   29.8515   49.7610 H   0  0  0  0  0  0  0  0  0  0  0  0
   60.8241   28.5846   48.5349 H   0  0  0  0  0  0  0  0  0  0  0  0
   60.2563   27.8711   46.9873 H   0  0  0  0  0  0  0  0  0  0  0  0
   61.6011   29.0621   46.9873 H   0  0  0  0  0  0  0  0  0  0  0  0
   59.1589   27.8378   45.6387 H   0  0  0  0  0  0  0  0  0  0  0  0
   57.7335   27.9549   43.6120 H   0  0  0  0  0  0  0  0  0  0  0  0
   55.2724   30.1878   42.9536 H   0  0  0  0  0  0  0  0  0  0  0  0
   56.6411   30.9661   42.0890 H   0  0  0  0  0  0  0  0  0  0  0  0
   56.4796   29.1771   42.0890 H   0  0  0  0  0  0  0  0  0  0  0  0
   56.7839   32.0711   44.4888 H   0  0  0  0  0  0  0  0  0  0  0  0
  1  2  1  0
  2  3  1  0
  3  4  1  0
  4  5  1  0
  5  6  1  0
  6  7  1  0
  7  8  1  0
  8  9  1  0
  9 10  1  0
 10 11  1  0
 11 12  2  0
 12 13  1  0
 13 14  2  0
 14 15  1  0
 15 16  2  0
 16 17  1  0
 17 18  2  0
 18 19  1  0
 18 20  1  0
 20 21  2  0
 21 22  1  0
 22 23  2  0
 23 24  1  0
 23 25  1  0
 25 26  2  0
 26 11  1  0
 17 12  1  0
 26 20  1  0
  1 27  1  0
  1 28  1  0
  1 29  1  0
  2 30  1  0
  2 31  1  0
  3 32  1  0
  4 33  1  0
  4 34  1  0
  5 35  1  0
  5 36  1  0
  7 37  1  0
  7 38  1  0
  8 39  1  0
  8 40  1  0
  9 41  1  0
  9 42  1  0
 10 43  1  0
 13 44  1  0
 14 45  1  0
 15 46  1  0
 16 47  1  0
 19 48  1  0
 19 49  1  0
 19 50  1  0
 21 51  1  0
 22 52  1  0
 24 53  1  0
 24 54  1  0
 24 55  1  0
 25 56  1  0
M  CHG  1  18   1
M  END
>  <UniqueID>  (9) 
9

>  <SMILES>  (9) 
CCNCCOCCCNc1c2ccccc2[n+](C)c2ccc(C)cc12

>  <Energy>  (9) 
77.39161668371392

>  <Genealogy>  (9) 
CCNCCOCCCNc1c2ccccc2[n+](C)c2ccc(C)cc12 (3D coordinates assigned)
CCNCCOCCCNc1c2ccccc2[n+](C)c2ccc(C)cc12 (optimized conformer: 77.39161668371392 kcal/mol)

>  <smiles>  (9) 
CCNCCOCCCNc1c2ccccc2[n+](C)c2ccc(C)cc12

>  <score_type>  (9) 
oracle

>  <origin>  (9) 
adg

>  <m_score__min__energy>  (9) 
-5.7199999999999998

>  <m_primary>  (9) 
energy

$$$$
9:0
     RDKit          3D

 56 58  0  0  0  0  0  0  0  0999 V2000
   53.6670   30.6440   52.1160 C   0  0  0  0  0  0  0  0  0  0  0  0
   55.0980   30.8280   51.8840 C   0  0  0  0  0  0  0  0  0  0  0  0
   56.2790   30.9780   51.6960 C   0  0  0  0  0  0  0  0  0  0  0  0
   57.6900   31.1490   51.4700 C   0  0  0  0  0  0  0  0  0  0  0  0
   58.1250   31.9630   50.5050 C   0  0  0  0  0  0  0  0  0  0  0  0
   59.6020   32.1020   50.2610 C   0  0  0  0  0  0  0  0  0  0  0  0
   60.3320   30.7230   50.2920 C   0  0  2  0  0  0  0  0  0  0  0  0
   60.4590   30.1170   48.9270 N   0  0  0  0  0  0  0  0  0  0  0  0
   60.6540   31.1230   47.8490 C   0  0  0  0  0  0  0  0  0  0  0  0
   60.7090   30.4600   46.4600 C   0  0  0  0  0  0  0  0  0  0  0  0
   59.6030   29.4890   46.2110 N   0  0  0  0  0  0  0  0  0  0  0  0
   58.9140   29.7320   44.9210 C   0  0  0  0  0  0  0  0  0  0  0  0
   57.3890   29.6930   45.1060 C   0  0  0  0  0  0  0  0  0  0  0  0
   56.8410   31.0130   45.1580 O   0  0  0  0  0  0  0  0  0  0  0  0
   57.5790   32.1950   45.3870 C   0  0  0  0  0  0  0  0  0  0  0  0
   57.7770   32.7100   46.6840 C   0  0  0  0  0  0  0  0  0  0  0  0
   58.5280   33.8770   46.8740 C   0  0  0  0  0  0  0  0  0  0  0  0
   59.0900   34.5450   45.7780 C   0  0  0  0  0  0  0  0  0  0  0  0
   58.8950   34.0510   44.4880 C   0  0  0  0  0  0  0  0  0  0  0  0
   58.1360   32.8810   44.2820 C   0  0  0  0  0  0  0  0  0  0  0  0
   57.9570   32.3430   42.8880 C   0  0  0  0  0  0  0  0  0  0  0  0
   58.6300   29.4260   47.3170 C   0  0  0  0  0  0  0  0  0  0  0  0
   59.3560   29.1480   48.6420 C   0  0  0  0  0  0  0  0  0  0  0  0
   59.7430   29.7340   51.3650 C   0  0  0  0  0  0  0  0  0  0  0  0
   58.6930   30.3820   52.2870 C   0  0  0  0  0  0  0  0  0  0  0  0
   53.4713   30.6188   53.1982 H   0  0  0  0  0  0  0  0  0  0  0  0
   53.1117   31.4781   51.6622 H   0  0  0  0  0  0  0  0  0  0  0  0
   53.3408   29.6965   51.6622 H   0  0  0  0  0  0  0  0  0  0  0  0
   57.4072   32.5283   49.8924 H   0  0  0  0  0  0  0  0  0  0  0  0
   59.7571   32.5638   49.2748 H   0  0  0  0  0  0  0  0  0  0  0  0
   60.0216   32.7267   51.0633 H   0  0  0  0  0  0  0  0  0  0  0  0
   61.3593   30.9253   50.6293 H   0  0  0  0  0  0  0  0  0  0  0  0
   61.3440   29.5530   48.9420 H   0  0  0  0  0  0  0  0  0  0  0  0
   59.8175   31.8370   47.8712 H   0  0  0  0  0  0  0  0  0  0  0  0
   61.6115   31.6352   48.0246 H   0  0  0  0  0  0  0  0  0  0  0  0
   60.6553   31.2500   45.6964 H   0  0  0  0  0  0  0  0  0  0  0  0
   61.6500   29.8922   46.4134 H   0  0  0  0  0  0  0  0  0  0  0  0
   59.2062   30.7200   44.5357 H   0  0  0  0  0  0  0  0  0  0  0  0
   59.2050   28.9447   44.2100 H   0  0  0  0  0  0  0  0  0  0  0  0
   56.9388   29.1505   44.2616 H   0  0  0  0  0  0  0  0  0  0  0  0
   57.1660   29.1853   46.0560 H   0  0  0  0  0  0  0  0  0  0  0  0
   57.3398   32.1931   47.5510 H   0  0  0  0  0  0  0  0  0  0  0  0
   58.6775   34.2715   47.8899 H   0  0  0  0  0  0  0  0  0  0  0  0
   59.6840   35.4575   45.9345 H   0  0  0  0  0  0  0  0  0  0  0  0
   59.3354   34.5766   43.6279 H   0  0  0  0  0  0  0  0  0  0  0  0
   57.6101   31.3004   42.9391 H   0  0  0  0  0  0  0  0  0  0  0  0
   57.2128   32.9512   42.3530 H   0  0  0  0  0  0  0  0  0  0  0  0
   58.9172   32.3841   42.3530 H   0  0  0  0  0  0  0  0  0  0  0  0
   58.0972   30.3857   47.3882 H   0  0  0  0  0  0  0  0  0  0  0  0
   57.9137   28.6145   47.1212 H   0  0  0  0  0  0  0  0  0  0  0  0
   58.6228   29.2032   49.4601 H   0  0  0  0  0  0  0  0  0  0  0  0
   59.8119   28.1503   48.5605 H   0  0  0  0  0  0  0  0  0  0  0  0
   59.2716   28.8905   50.8394 H   0  0  0  0  0  0  0  0  0  0  0  0
   60.5797   29.4130   52.0029 H   0  0  0  0  0  0  0  0  0  0  0  0
   58.1742   29.5964   52.8559 H   0  0  0  0  0  0  0  0  0  0  0  0
   59.1983   31.0731   52.9778 H   0  0  0  0  0  0  0  0  0  0  0  0
  1  2  1  0
  2  3  3  0
  3  4  1  0
  4  5  2  0
  5  6  1  0
  6  7  1  0
  7  8  1  0
  8  9  1  0
  9 10  1  0
 10 11  1  0
 11 12  1  0
 12 13  1  0
 13 14  1  0
 14 15  1  0
 15 16  2  0
 16 17  1  0
 17 18  2  0
 18 19  1  0
 19 20  2  0
 20 21  1  0
 11 22  1  0
 22 23  1  0
  7 24  1  0
 24 25  1  0
 25  4  1  0
 23  8  1  0
 20 15  1  0
  1 26  1  0
  1 27  1  0
  1 28  1  0
  5 29  1  0
  6 30  1  0
  6 31  1  0
  7 32  1  1
  8 33  1  0
  9 34  1  0
  9 35  1  0
 10 36  1  0
 10 37  1  0
 12 38  1  0
 12 39  1  0
 13 40  1  0
 13 41  1  0
 16 42  1  0
 17 43  1  0
 18 44  1  0
 19 45  1  0
 21 46  1  0
 21 47  1  0
 21 48  1  0
 22 49  1  0
 22 50  1  0
 23 51  1  0
 23 52  1  0
 24 53  1  0
 24 54  1  0
 25 55  1  0
 25 56  1  0
M  CHG  1   8   1
M  END
>  <UniqueID>  (10) 
10

>  <SMILES>  (10) 
CC#CC1=CC[C@H]([NH+]2CCN(CCOc3ccccc3C)CC2)CC1

>  <Energy>  (10) 
72.56583546795846

>  <Genealogy>  (10) 
CC#CC1=CCC([NH+]2CCN(CCOc3ccccc3C)CC2)CC1 (protonated)
CC#CC1=CC[C@H]([NH+]2CCN(CCOc3ccccc3C)CC2)CC1 (chirality)
CC#CC1=CC[C@H]([NH+]2CCN(CCOc3ccccc3C)CC2)CC1 (3D coordinates assigned)
CC#CC1=CC[C@H]([NH+]2CCN(CCOc3ccccc3C)CC2)CC1 (nonaromatic ring conformer: 72.56583546795846 kcal/mol)

>  <smiles>  (10) 
CC#CC1=CCC(N2CCN(CCOc3ccccc3C)CC2)CC1

>  <score_type>  (10) 
oracle

>  <origin>  (10) 
adg

>  <m_score__min__energy>  (10) 
-6.2800000000000002

>  <m_primary>  (10) 
energy

$$$$
10:0
     RDKit          3D

 33 35  0  0  0  0  0  0  0  0999 V2000
   57.3510   25.9940   46.7420 C   0  0  0  0  0  0  0  0  0  0  0  0
   58.7400   26.4550   46.3240 C   0  0  0  0  0  0  0  0  0  0  0  0
   58.8700   27.9000   46.5080 N   0  0  0  0  0  0  0  0  0  0  0  0
   59.7460   28.5700   47.2970 C   0  0  0  0  0  0  0  0  0  0  0  0
   60.5810   27.9960   48.0460 O   0  0  0  0  0  0  0  0  0  0  0  0
   59.6260   29.9210   47.2010 N   0  0  0  0  0  0  0  0  0  0  0  0
   60.3790   30.9140   47.9670 C   0  0  0  0  0  0  0  0  0  0  0  0
   58.6520   30.1010   46.2760 C   0  0  0  0  0  0  0  0  0  0  0  0
   58.0650   31.2580   45.7430 C   0  0  0  0  0  0  0  0  0  0  0  0
   58.5360   32.6190   46.0220 C   0  0  0  0  0  0  0  0  0  0  0  0
   58.9970   33.5330   45.0830 C   0  0  0  0  0  0  0  0  0  0  0  0
   59.2620   34.7960   45.6260 C   0  0  0  0  0  0  0  0  0  0  0  0
   58.9840   34.8860   46.9840 C   0  0  0  0  0  0  0  0  0  0  0  0
   58.4020   33.3970   47.5060 S   0  0  0  0  0  0  0  0  0  0  0  0
   57.0260   31.0890   44.8710 N   0  0  0  0  0  0  0  0  0  0  0  0
   56.5710   29.8480   44.5120 C   0  0  0  0  0  0  0  0  0  0  0  0
   55.4610   29.7220   43.5240 C   0  0  0  0  0  0  0  0  0  0  0  0
   57.1720   28.7250   45.0060 N   0  0  0  0  0  0  0  0  0  0  0  0
   58.1950   28.8780   45.8800 C   0  0  0  0  0  0  0  0  0  0  0  0
   57.2867   25.9727   47.8399 H   0  0  0  0  0  0  0  0  0  0  0  0
   56.5983   26.6905   46.3441 H   0  0  0  0  0  0  0  0  0  0  0  0
   57.1641   24.9857   46.3441 H   0  0  0  0  0  0  0  0  0  0  0  0
   59.4936   25.9413   46.9390 H   0  0  0  0  0  0  0  0  0  0  0  0
   58.8935   26.2135   45.2619 H   0  0  0  0  0  0  0  0  0  0  0  0
   60.2396   30.7302   49.0425 H   0  0  0  0  0  0  0  0  0  0  0  0
   61.4475   30.8366   47.7172 H   0  0  0  0  0  0  0  0  0  0  0  0
   60.0162   31.9220   47.7172 H   0  0  0  0  0  0  0  0  0  0  0  0
   59.1395   33.2890   44.0199 H   0  0  0  0  0  0  0  0  0  0  0  0
   59.6529   35.6366   45.0339 H   0  0  0  0  0  0  0  0  0  0  0  0
   59.1212   35.7792   47.6112 H   0  0  0  0  0  0  0  0  0  0  0  0
   54.5054   29.6135   44.0579 H   0  0  0  0  0  0  0  0  0  0  0  0
   55.4281   30.6222   42.8927 H   0  0  0  0  0  0  0  0  0  0  0  0
   55.6307   28.8374   42.8927 H   0  0  0  0  0  0  0  0  0  0  0  0
  1  2  1  0
  2  3  1  0
  3  4  1  0
  4  5  2  0
  4  6  1  0
  6  7  1  0
  6  8  1  0
  8  9  2  0
  9 10  1  0
 10 11  2  0
 11 12  1  0
 12 13  2  0
 13 14  1  0
  9 15  1  0
 15 16  2  0
 16 17  1  0
 16 18  1  0
 18 19  2  0
 19  3  1  0
 19  8  1  0
 14 10  1  0
  1 20  1  0
  1 21  1  0
  1 22  1  0
  2 23  1  0
  2 24  1  0
  7 25  1  0
  7 26  1  0
  7 27  1  0
 11 28  1  0
 12 29  1  0
 13 30  1  0
 17 31  1  0
 17 32  1  0
 17 33  1  0
M  END
>  <UniqueID>  (11) 
11

>  <SMILES>  (11) 
CCn1c(=O)n(C)c2c(-c3cccs3)nc(C)nc21

>  <Energy>  (11) 
107.64057300427709

>  <Genealogy>  (11) 
CCn1c(=O)n(C)c2c(-c3cccs3)nc(C)nc21 (3D coordinates assigned)
CCn1c(=O)n(C)c2c(-c3cccs3)nc(C)nc21 (optimized conformer: 107.64057300427709 kcal/mol)

>  <smiles>  (11) 
CCn1c(=O)n(C)c2c(-c3cccs3)nc(C)nc21

>  <score_type>  (11) 
oracle

>  <origin>  (11) 
adg

>  <m_score__min__energy>  (11) 
-6.2999999999999998

>  <m_primary>  (11) 
energy

$$$$
11:0
     RDKit          3D

 94 97  0  0  0  0  0  0  0  0999 V2000
   59.9020   35.3450   46.1600 C   0  0  0  0  0  0  0  0  0  0  0  0
   59.2680   34.7930   47.4310 C   0  0  0  0  0  0  0  0  0  0  0  0
   58.5670   33.5310   47.1440 N   0  0  0  0  0  0  0  0  0  0  0  0
   57.3550   33.7480   46.3360 C   0  0  0  0  0  0  0  0  0  0  0  0
   57.3500   32.8520   45.0870 C   0  0  0  0  0  0  0  0  0  0  0  0
   58.3370   31.8380   45.1690 O   0  0  0  0  0  0  0  0  0  0  0  0
   58.1370   30.8270   44.1940 C   0  0  0  0  0  0  0  0  0  0  0  0
   57.5440   29.5910   44.8600 C   0  0  0  0  0  0  0  0  0  0  0  0
   57.5630   29.7620   46.2640 O   0  0  0  0  0  0  0  0  0  0  0  0
   58.4870   28.8750   46.8690 C   0  0  0  0  0  0  0  0  0  0  0  0
   59.7470   29.6150   47.3450 C   0  0  0  0  0  0  0  0  0  0  0  0
   59.5760   31.0800   47.3920 N   0  0  0  0  0  0  0  0  0  0  0  0
   60.2660   31.6810   48.5290 C   0  0  0  0  0  0  0  0  0  0  0  0
   61.5330   32.3140   48.3790 C   0  0  0  0  0  0  0  0  0  0  0  0
   62.1760   32.4380   47.1180 C   0  0  0  0  0  0  0  0  0  0  0  0
   63.4400   33.0090   47.0010 C   0  0  0  0  0  0  0  0  0  0  0  0
   64.1040   33.4650   48.1280 C   0  0  0  0  0  0  0  0  0  0  0  0
   63.4940   33.3870   49.3750 C   0  0  0  0  0  0  0  0  0  0  0  0
   62.1870   32.8530   49.5250 C   0  0  0  0  0  0  0  0  0  0  0  0
   61.5630   32.8390   50.7540 N   0  0  0  0  0  0  0  0  0  0  0  0
   62.0880   33.6760   51.8560 C   0  0  0  0  0  0  0  0  0  0  0  0
   60.4200   32.0910   50.9470 C   0  0  0  0  0  0  0  0  0  0  0  0
   59.9340   31.8200   52.2500 C   0  0  0  0  0  0  0  0  0  0  0  0
   58.7090   31.1860   52.4550 C   0  0  0  0  0  0  0  0  0  0  0  0
   58.2770   30.9720   53.7700 O   0  0  0  0  0  0  0  0  0  0  0  0
   58.6020   29.8080   54.5310 C   0  0  0  0  0  0  0  0  0  0  0  0
   58.9460   28.6300   53.5870 C   0  0  0  0  0  0  0  0  0  0  0  0
   60.3960   28.2470   53.5410 N   0  0  0  0  0  0  0  0  0  0  0  0
   60.5270   27.0180   54.3770 C   0  0  0  0  0  0  0  0  0  0  0  0
   60.8130   27.9200   52.1320 C   0  0  0  0  0  0  0  0  0  0  0  0
   61.9490   28.8140   51.5930 C   0  0  0  0  0  0  0  0  0  0  0  0
   63.1320   28.8700   52.5020 N   0  0  0  0  0  0  0  0  0  0  0  0
   63.9130   27.6120   52.3830 C   0  0  0  0  0  0  0  0  0  0  0  0
   64.0060   29.9820   52.0430 C   0  0  0  0  0  0  0  0  0  0  0  0
   62.7460   29.0950   53.9380 C   0  0  0  0  0  0  0  0  0  0  0  0
   61.2350   29.3280   54.1450 C   0  0  0  0  0  0  0  0  0  0  0  0
   57.9540   30.7560   51.3600 C   0  0  0  0  0  0  0  0  0  0  0  0
   56.7280   30.1170   51.5960 O   0  0  0  0  0  0  0  0  0  0  0  0
   55.5610   30.7550   52.1120 C   0  0  0  0  0  0  0  0  0  0  0  0
   58.4560   30.9430   50.0620 C   0  0  0  0  0  0  0  0  0  0  0  0
   59.7090   31.5700   49.8350 C   0  0  0  0  0  0  0  0  0  0  0  0
   60.7069   36.0458   46.4263 H   0  0  0  0  0  0  0  0  0  0  0  0
   60.3181   34.5164   45.5681 H   0  0  0  0  0  0  0  0  0  0  0  0
   59.1386   35.8712   45.5681 H   0  0  0  0  0  0  0  0  0  0  0  0
   60.0537   34.6100   48.1788 H   0  0  0  0  0  0  0  0  0  0  0  0
   58.5439   35.5253   47.8176 H   0  0  0  0  0  0  0  0  0  0  0  0
   59.2160   32.9340   46.5760 H   0  0  0  0  0  0  0  0  0  0  0  0
   56.4703   33.5160   46.9472 H   0  0  0  0  0  0  0  0  0  0  0  0
   57.3377   34.7985   46.0103 H   0  0  0  0  0  0  0  0  0  0  0  0
   56.3609   32.3805   44.9897 H   0  0  0  0  0  0  0  0  0  0  0  0
   57.5733   33.4799   44.2119 H   0  0  0  0  0  0  0  0  0  0  0  0
   57.4461   31.1944   43.4209 H   0  0  0  0  0  0  0  0  0  0  0  0
   59.1004   30.5679   43.7306 H   0  0  0  0  0  0  0  0  0  0  0  0
   56.5068   29.4527   44.5207 H   0  0  0  0  0  0  0  0  0  0  0  0
   58.1376   28.7056   44.5886 H   0  0  0  0  0  0  0  0  0  0  0  0
   58.0069   28.3934   47.7336 H   0  0  0  0  0  0  0  0  0  0  0  0
   58.7876   28.1261   46.1215 H   0  0  0  0  0  0  0  0  0  0  0  0
   60.0010   29.2598   48.3546 H   0  0  0  0  0  0  0  0  0  0  0  0
   60.5459   29.4015   46.6197 H   0  0  0  0  0  0  0  0  0  0  0  0
   59.9430   31.4970   46.5090 H   0  0  0  0  0  0  0  0  0  0  0  0
   58.5720   31.3360   47.3300 H   0  0  0  0  0  0  0  0  0  0  0  0
   61.6638   32.0749   46.2148 H   0  0  0  0  0  0  0  0  0  0  0  0
   63.9126   33.0983   46.0117 H   0  0  0  0  0  0  0  0  0  0  0  0
   65.1148   33.8892   48.0363 H   0  0  0  0  0  0  0  0  0  0  0  0
   64.0348   33.7462   50.2630 H   0  0  0  0  0  0  0  0  0  0  0  0
   61.8078   33.2292   52.8213 H   0  0  0  0  0  0  0  0  0  0  0  0
   63.1841   33.7332   51.7828 H   0  0  0  0  0  0  0  0  0  0  0  0
   61.6624   34.6877   51.7828 H   0  0  0  0  0  0  0  0  0  0  0  0
   60.5373   32.1168   53.1206 H   0  0  0  0  0  0  0  0  0  0  0  0
   59.4687   30.0240   55.1730 H   0  0  0  0  0  0  0  0  0  0  0  0
   57.7358   29.5306   55.1497 H   0  0  0  0  0  0  0  0  0  0  0  0
   58.3728   27.7512   53.9175 H   0  0  0  0  0  0  0  0  0  0  0  0
   58.6886   28.9683   52.5725 H   0  0  0  0  0  0  0  0  0  0  0  0
   60.4976   27.2938   55.4415 H   0  0  0  0  0  0  0  0  0  0  0  0
   59.6969   26.3319   54.1529 H   0  0  0  0  0  0  0  0  0  0  0  0
   61.4831   26.5223   54.1529 H   0  0  0  0  0  0  0  0  0  0  0  0
   61.1529   26.8742   52.1053 H   0  0  0  0  0  0  0  0  0  0  0  0
   59.9367   28.0957   51.4907 H   0  0  0  0  0  0  0  0  0  0  0  0
   62.2740   28.4181   50.6195 H   0  0  0  0  0  0  0  0  0  0  0  0
   61.5506   29.8360   51.5100 H   0  0  0  0  0  0  0  0  0  0  0  0
   64.1496   27.2309   53.3874 H   0  0  0  0  0  0  0  0  0  0  0  0
   63.3208   26.8631   51.8367 H   0  0  0  0  0  0  0  0  0  0  0  0
   64.8469   27.8105   51.8367 H   0  0  0  0  0  0  0  0  0  0  0  0
   64.4193   30.5079   52.9163 H   0  0  0  0  0  0  0  0  0  0  0  0
   64.8287   29.5754   51.4366 H   0  0  0  0  0  0  0  0  0  0  0  0
   63.4165   30.6854   51.4366 H   0  0  0  0  0  0  0  0  0  0  0  0
   63.0440   28.2106   54.5203 H   0  0  0  0  0  0  0  0  0  0  0  0
   63.2605   30.0089   54.2697 H   0  0  0  0  0  0  0  0  0  0  0  0
   61.0302   29.3704   55.2249 H   0  0  0  0  0  0  0  0  0  0  0  0
   60.9726   30.2713   53.6437 H   0  0  0  0  0  0  0  0  0  0  0  0
   55.5902   30.7390   53.2115 H   0  0  0  0  0  0  0  0  0  0  0  0
   55.5273   31.7970   51.7612 H   0  0  0  0  0  0  0  0  0  0  0  0
   54.6657   30.2209   51.7612 H   0  0  0  0  0  0  0  0  0  0  0  0
   57.8649   30.5958   49.2018 H   0  0  0  0  0  0  0  0  0  0  0  0
  1  2  1  0
  2  3  1  0
  3  4  1  0
  4  5  1  0
  5  6  1  0
  6  7  1  0
  7  8  1  0
  8  9  1  0
  9 10  1  0
 10 11  1  0
 11 12  1  0
 12 13  1  0
 13 14  2  0
 14 15  1  0
 15 16  2  0
 16 17  1  0
 17 18  2  0
 18 19  1  0
 19 20  2  0
 20 21  1  0
 20 22  1  0
 22 23  2  0
 23 24  1  0
 24 25  1  0
 25 26  1  0
 26 27  1  0
 27 28  1  0
 28 29  1  0
 28 30  1  0
 30 31  1  0
 31 32  1  0
 32 33  1  0
 32 34  1  0
 32 35  1  0
 35 36  1  0
 24 37  2  0
 37 38  1  0
 38 39  1  0
 37 40  1  0
 40 41  2  0
 41 13  1  0
 19 14  1  0
 41 22  1  0
 36 28  1  0
  1 42  1  0
  1 43  1  0
  1 44  1  0
  2 45  1  0
  2 46  1  0
  3 47  1  0
  4 48  1  0
  4 49  1  0
  5 50  1  0
  5 51  1  0
  7 52  1  0
  7 53  1  0
  8 54  1  0
  8 55  1  0
 10 56  1  0
 10 57  1  0
 11 58  1  0
 11 59  1  0
 12 60  1  0
 12 61  1  0
 15 62  1  0
 16 63  1  0
 17 64  1  0
 18 65  1  0
 21 66  1  0
 21 67  1  0
 21 68  1  0
 23 69  1  0
 26 70  1  0
 26 71  1  0
 27 72  1  0
 27 73  1  0
 29 74  1  0
 29 75  1  0
 29 76  1  0
 30 77  1  0
 30 78  1  0
 31 79  1  0
 31 80  1  0
 33 81  1  0
 33 82  1  0
 33 83  1  0
 34 84  1  0
 34 85  1  0
 34 86  1  0
 35 87  1  0
 35 88  1  0
 36 89  1  0
 36 90  1  0
 39 91  1  0
 39 92  1  0
 39 93  1  0
 40 94  1  0
M  CHG  4  12   1  20   1  28   1  32   1
M  END
>  <UniqueID>  (12) 
12

>  <SMILES>  (12) 
CCNCCOCCOCC[NH2+]c1c2ccccc2[n+](C)c2cc(OCC[N+]3(C)CC[N+](C)(C)CC3)c(OC)cc12

>  <Energy>  (12) 
158.75784665412422

>  <Genealogy>  (12) 
CCNCCOCCOCC[NH2+]c1c2ccccc2[n+](C)c2cc(OCC[N+]3(C)CC[N+](C)(C)CC3)c(OC)cc12 (protonated)
CCNCCOCCOCC[NH2+]c1c2ccccc2[n+](C)c2cc(OCC[N+]3(C)CC[N+](C)(C)CC3)c(OC)cc12 (3D coordinates assigned)
CCNCCOCCOCC[NH2+]c1c2ccccc2[n+](C)c2cc(OCC[N+]3(C)CC[N+](C)(C)CC3)c(OC)cc12 (nonaromatic ring conformer: 158.75784665412422 kcal/mol)

>  <smiles>  (12) 
CCNCCOCCOCCNc1c2ccccc2[n+](C)c2cc(OCC[N+]3(C)CC[N+](C)(C)CC3)c(OC)cc12

>  <score_type>  (12) 
oracle

>  <origin>  (12) 
adg

>  <m_score__min__energy>  (12) 
-2.0699999999999998

>  <m_primary>  (12) 
energy

$$$$
12:0
     RDKit          3D

 60 63  0  0  0  0  0  0  0  0999 V2000
   62.7800   29.7880   51.2800 C   0  0  0  0  0  0  0  0  0  0  0  0
   62.1030   28.5990   51.9500 C   0  0  0  0  0  0  0  0  0  0  0  0
   60.9330   28.1870   51.1650 N   0  0  0  0  0  0  0  0  0  0  0  0
   61.1540   26.9160   50.4560 C   0  0  0  0  0  0  0  0  0  0  0  0
   60.5080   26.9010   49.0600 C   0  0  0  0  0  0  0  0  0  0  0  0
   59.5790   28.0220   48.9080 N   0  0  0  0  0  0  0  0  0  0  0  0
   59.0870   28.4300   47.6200 C   0  0  0  0  0  0  0  0  0  0  0  0
   59.0640   29.7930   47.2590 C   0  0  0  0  0  0  0  0  0  0  0  0
   58.4090   30.1750   46.0680 C   0  0  0  0  0  0  0  0  0  0  0  0
   58.0310   29.2160   45.1470 N   0  0  0  0  0  0  0  0  0  0  0  0
   57.7310   29.6100   43.7550 C   0  0  0  0  0  0  0  0  0  0  0  0
   58.0020   27.8830   45.5060 C   0  0  0  0  0  0  0  0  0  0  0  0
   57.4000   26.9040   44.6780 C   0  0  0  0  0  0  0  0  0  0  0  0
   57.3970   25.5570   45.0390 C   0  0  0  0  0  0  0  0  0  0  0  0
   57.9950   25.1410   46.2320 C   0  0  0  0  0  0  0  0  0  0  0  0
   57.9860   23.7590   46.6330 N   0  0  0  0  0  0  0  0  0  0  0  0
   56.9350   23.1450   47.3910 C   0  0  0  0  0  0  0  0  0  0  0  0
   55.8410   23.7460   47.5740 O   0  0  0  0  0  0  0  0  0  0  0  0
   57.1210   21.8470   47.8820 O   0  0  0  0  0  0  0  0  0  0  0  0
   57.0490   20.6800   47.0660 C   0  0  0  0  0  0  0  0  0  0  0  0
   56.6920   21.0480   45.6310 C   0  0  0  0  0  0  0  0  0  0  0  0
   58.5470   26.0990   47.0870 C   0  0  0  0  0  0  0  0  0  0  0  0
   58.5500   27.4680   46.7440 C   0  0  0  0  0  0  0  0  0  0  0  0
   58.0940   31.6260   45.8750 C   0  0  0  0  0  0  0  0  0  0  0  0
   57.1730   31.9790   45.0890 O   0  0  0  0  0  0  0  0  0  0  0  0
   58.7770   32.6560   46.6860 C   0  0  0  0  0  0  0  0  0  0  0  0
   58.6060   34.0230   46.4010 C   0  0  0  0  0  0  0  0  0  0  0  0
   59.2470   34.9920   47.1770 C   0  0  0  0  0  0  0  0  0  0  0  0
   60.0600   34.6070   48.2440 C   0  0  0  0  0  0  0  0  0  0  0  0
   60.2340   33.2530   48.5370 C   0  0  0  0  0  0  0  0  0  0  0  0
   59.5930   32.2680   47.7630 C   0  0  0  0  0  0  0  0  0  0  0  0
   59.7680   30.8320   48.0700 C   0  0  0  0  0  0  0  0  0  0  0  0
   60.5730   30.4950   48.9810 O   0  0  0  0  0  0  0  0  0  0  0  0
   63.1686   30.4705   52.0502 H   0  0  0  0  0  0  0  0  0  0  0  0
   63.6106   29.4316   50.6530 H   0  0  0  0  0  0  0  0  0  0  0  0
   62.0496   30.3204   50.6530 H   0  0  0  0  0  0  0  0  0  0  0  0
   62.8137   27.7618   52.0133 H   0  0  0  0  0  0  0  0  0  0  0  0
   61.7794   28.8871   52.9611 H   0  0  0  0  0  0  0  0  0  0  0  0
   60.7040   28.9360   50.4700 H   0  0  0  0  0  0  0  0  0  0  0  0
   62.2369   26.7572   50.3455 H   0  0  0  0  0  0  0  0  0  0  0  0
   60.6868   26.1163   51.0494 H   0  0  0  0  0  0  0  0  0  0  0  0
   61.2961   26.9790   48.2965 H   0  0  0  0  0  0  0  0  0  0  0  0
   59.9506   25.9606   48.9382 H   0  0  0  0  0  0  0  0  0  0  0  0
   59.3390   28.5990   49.7450 H   0  0  0  0  0  0  0  0  0  0  0  0
   57.0646   30.4852   43.7572 H   0  0  0  0  0  0  0  0  0  0  0  0
   58.6671   29.8632   43.2357 H   0  0  0  0  0  0  0  0  0  0  0  0
   57.2379   28.7750   43.2357 H   0  0  0  0  0  0  0  0  0  0  0  0
   56.9267   27.2116   43.7339 H   0  0  0  0  0  0  0  0  0  0  0  0
   56.9205   24.8163   44.3800 H   0  0  0  0  0  0  0  0  0  0  0  0
   58.7510   23.1380   46.2860 H   0  0  0  0  0  0  0  0  0  0  0  0
   58.0242   20.1712   47.0765 H   0  0  0  0  0  0  0  0  0  0  0  0
   56.2682   20.0162   47.4658 H   0  0  0  0  0  0  0  0  0  0  0  0
   55.9261   21.8375   45.6347 H   0  0  0  0  0  0  0  0  0  0  0  0
   57.5908   21.4114   45.1112 H   0  0  0  0  0  0  0  0  0  0  0  0
   56.3015   20.1607   45.1112 H   0  0  0  0  0  0  0  0  0  0  0  0
   58.9867   25.7805   48.0437 H   0  0  0  0  0  0  0  0  0  0  0  0
   57.9640   34.3307   45.5625 H   0  0  0  0  0  0  0  0  0  0  0  0
   59.1108   36.0590   46.9468 H   0  0  0  0  0  0  0  0  0  0  0  0
   60.5640   35.3707   48.8545 H   0  0  0  0  0  0  0  0  0  0  0  0
   60.8764   32.9543   49.3785 H   0  0  0  0  0  0  0  0  0  0  0  0
  1  2  1  0
  2  3  1  0
  3  4  1  0
  4  5  1  0
  5  6  1  0
  6  7  1  0
  7  8  2  0
  8  9  1  0
  9 10  2  0
 10 11  1  0
 10 12  1  0
 12 13  2  0
 13 14  1  0
 14 15  2  0
 15 16  1  0
 16 17  1  0
 17 18  2  0
 17 19  1  0
 19 20  1  0
 20 21  1  0
 15 22  1  0
 22 23  2  0
  9 24  1  0
 24 25  2  0
 24 26  1  0
 26 27  2  0
 27 28  1  0
 28 29  2  0
 29 30  1  0
 30 31  2  0
 31 32  1  0
 32 33  2  0
 23  7  1  0
 31 26  1  0
 32  8  1  0
 23 12  1  0
  1 34  1  0
  1 35  1  0
  1 36  1  0
  2 37  1  0
  2 38  1  0
  3 39  1  0
  4 40  1  0
  4 41  1  0
  5 42  1  0
  5 43  1  0
  6 44  1  0
 11 45  1  0
 11 46  1  0
 11 47  1  0
 13 48  1  0
 14 49  1  0
 16 50  1  0
 20 51  1  0
 20 52  1  0
 21 53  1  0
 21 54  1  0
 21 55  1  0
 22 56  1  0
 27 57  1  0
 28 58  1  0
 29 59  1  0
 30 60  1  0
M  CHG  1  10   1
M  END
>  <UniqueID>  (13) 
13

>  <SMILES>  (13) 
CCNCCNc1c2c([n+](C)c3ccc(NC(=O)OCC)cc13)C(=O)c1ccccc1C2=O

>  <Energy>  (13) 
89.59674899551533

>  <Genealogy>  (13) 
CCNCCNc1c2c([n+](C)c3ccc(NC(=O)OCC)cc13)C(=O)c1ccccc1C2=O (3D coordinates assigned)
CCNCCNc1c2c([n+](C)c3ccc(NC(=O)OCC)cc13)C(=O)c1ccccc1C2=O (nonaromatic ring conformer: 89.59674899551533 kcal/mol)

>  <smiles>  (13) 
CCNCCNc1c2c([n+](C)c3ccc(NC(=O)OCC)cc13)C(=O)c1ccccc1C2=O

>  <score_type>  (13) 
oracle

>  <origin>  (13) 
adg

>  <m_score__min__energy>  (13) 
-7.2800000000000002

>  <m_primary>  (13) 
energy

$$$$
13:0
     RDKit          3D

 41 43  0  0  0  0  0  0  0  0999 V2000
   60.5120   34.0890   48.1930 C   0  0  0  0  0  0  0  0  0  0  0  0
   59.5910   33.7400   47.0480 C   0  0  0  0  0  0  0  0  0  0  0  0
   59.2070   34.7900   46.2080 C   0  0  0  0  0  0  0  0  0  0  0  0
   58.5710   34.5330   45.0050 C   0  0  0  0  0  0  0  0  0  0  0  0
   58.3650   33.2240   44.5880 C   0  0  0  0  0  0  0  0  0  0  0  0
   58.7290   32.1260   45.4060 C   0  0  0  0  0  0  0  0  0  0  0  0
   58.6200   30.7740   44.9650 C   0  0  0  0  0  0  0  0  0  0  0  0
   58.1330   30.4400   43.6310 N   0  0  0  0  0  0  0  0  0  0  0  0
   56.7150   30.8170   43.4370 C   0  0  0  0  0  0  0  0  0  0  0  0
   55.7290   29.6720   43.7090 C   0  0  0  0  0  0  0  0  0  0  0  0
   55.6840   29.3450   45.1320 N   0  0  0  0  0  0  0  0  0  0  0  0
   59.0480   29.7400   45.8450 C   0  0  0  0  0  0  0  0  0  0  0  0
   59.1050   28.3830   45.4370 C   0  0  0  0  0  0  0  0  0  0  0  0
   59.5140   27.3830   46.3160 C   0  0  0  0  0  0  0  0  0  0  0  0
   59.8760   27.7020   47.6170 C   0  0  0  0  0  0  0  0  0  0  0  0
   59.8220   29.0230   48.0490 C   0  0  0  0  0  0  0  0  0  0  0  0
   59.3980   30.0610   47.1820 C   0  0  0  0  0  0  0  0  0  0  0  0
   59.3200   31.3610   47.6250 N   0  0  0  0  0  0  0  0  0  0  0  0
   59.1350   31.6100   49.0710 C   0  0  0  0  0  0  0  0  0  0  0  0
   59.2200   32.3960   46.7190 C   0  0  0  0  0  0  0  0  0  0  0  0
   60.0004   33.8951   49.1473 H   0  0  0  0  0  0  0  0  0  0  0  0
   61.4215   33.4732   48.1328 H   0  0  0  0  0  0  0  0  0  0  0  0
   60.7850   35.1529   48.1328 H   0  0  0  0  0  0  0  0  0  0  0  0
   59.4119   35.8290   46.5054 H   0  0  0  0  0  0  0  0  0  0  0  0
   58.2276   35.3685   44.3773 H   0  0  0  0  0  0  0  0  0  0  0  0
   57.9106   33.0364   43.6040 H   0  0  0  0  0  0  0  0  0  0  0  0
   58.3030   29.4480   43.3690 H   0  0  0  0  0  0  0  0  0  0  0  0
   58.7160   30.9460   42.9250 H   0  0  0  0  0  0  0  0  0  0  0  0
   56.4799   31.6471   44.1194 H   0  0  0  0  0  0  0  0  0  0  0  0
   56.5987   31.0969   42.3796 H   0  0  0  0  0  0  0  0  0  0  0  0
   54.7250   29.9760   43.3781 H   0  0  0  0  0  0  0  0  0  0  0  0
   56.0648   28.7824   43.1561 H   0  0  0  0  0  0  0  0  0  0  0  0
   55.1490   28.4520   45.2380 H   0  0  0  0  0  0  0  0  0  0  0  0
   55.1270   30.0740   45.6310 H   0  0  0  0  0  0  0  0  0  0  0  0
   58.8213   28.1156   44.4084 H   0  0  0  0  0  0  0  0  0  0  0  0
   59.5502   26.3369   45.9777 H   0  0  0  0  0  0  0  0  0  0  0  0
   60.2055   26.9106   48.3063 H   0  0  0  0  0  0  0  0  0  0  0  0
   60.1134   29.2664   49.0814 H   0  0  0  0  0  0  0  0  0  0  0  0
   59.6939   30.8578   49.6470 H   0  0  0  0  0  0  0  0  0  0  0  0
   59.5077   32.6144   49.3207 H   0  0  0  0  0  0  0  0  0  0  0  0
   58.0658   31.5431   49.3207 H   0  0  0  0  0  0  0  0  0  0  0  0
  1  2  1  0
  2  3  2  0
  3  4  1  0
  4  5  2  0
  5  6  1  0
  6  7  2  0
  7  8  1  0
  8  9  1  0
  9 10  1  0
 10 11  1  0
  7 12  1  0
 12 13  2  0
 13 14  1  0
 14 15  2  0
 15 16  1  0
 16 17  2  0
 17 18  1  0
 18 19  1  0
 18 20  2  0
 20  2  1  0
 20  6  1  0
 17 12  1  0
  1 21  1  0
  1 22  1  0
  1 23  1  0
  3 24  1  0
  4 25  1  0
  5 26  1  0
  8 27  1  0
  8 28  1  0
  9 29  1  0
  9 30  1  0
 10 31  1  0
 10 32  1  0
 11 33  1  0
 11 34  1  0
 13 35  1  0
 14 36  1  0
 15 37  1  0
 16 38  1  0
 19 39  1  0
 19 40  1  0
 19 41  1  0
M  CHG  2   8   1  18   1
M  END
>  <UniqueID>  (14) 
14

>  <SMILES>  (14) 
Cc1cccc2c([NH2+]CCN)c3ccccc3[n+](C)c12

>  <Energy>  (14) 
81.05564724574363

>  <Genealogy>  (14) 
Cc1cccc2c([NH2+]CCN)c3ccccc3[n+](C)c12 (protonated)
Cc1cccc2c([NH2+]CCN)c3ccccc3[n+](C)c12 (3D coordinates assigned)
Cc1cccc2c([NH2+]CCN)c3ccccc3[n+](C)c12 (optimized conformer: 81.05564724574363 kcal/mol)

>  <smiles>  (14) 
Cc1cccc2c(NCCN)c3ccccc3[n+](C)c12

>  <score_type>  (14) 
oracle

>  <origin>  (14) 
adg

>  <m_score__min__energy>  (14) 
-5.6399999999999997

>  <m_primary>  (14) 
energy

$$$$
14:0
     RDKit          3D

 41 42  0  0  0  0  0  0  0  0999 V2000
   57.0200   31.0180   42.7270 C   0  0  0  0  0  0  0  0  0  0  0  0
   56.3990   29.7590   43.3330 C   0  0  0  0  0  0  0  0  0  0  0  0
   57.2970   28.6030   43.1720 N   0  0  0  0  0  0  0  0  0  0  0  0
   57.7260   28.0450   44.4670 C   0  0  0  0  0  0  0  0  0  0  0  0
   58.8420   28.8810   45.1240 C   0  0  0  0  0  0  0  0  0  0  0  0
   59.5490   28.1060   46.2410 C   0  0  0  0  0  0  0  0  0  0  0  0
   60.3700   29.0120   47.0560 N   0  0  0  0  0  0  0  0  0  0  0  0
   59.5740   30.1120   47.6240 C   0  0  0  0  0  0  0  0  0  0  0  0
   60.0840   31.4760   47.1880 C   0  0  0  0  0  0  0  0  0  0  0  0
   61.4100   31.8140   47.5070 C   0  0  0  0  0  0  0  0  0  0  0  0
   61.9520   33.0410   47.1210 C   0  0  0  0  0  0  0  0  0  0  0  0
   63.7570   33.4690   47.5700 Br  0  0  0  0  0  0  0  0  0  0  0  0
   61.1790   33.9530   46.4060 C   0  0  0  0  0  0  0  0  0  0  0  0
   59.8540   33.6460   46.0660 C   0  0  0  0  0  0  0  0  0  0  0  0
   59.0870   34.5720   45.3420 C   0  0  0  0  0  0  0  0  0  0  0  0
   57.7690   34.2750   44.9950 C   0  0  0  0  0  0  0  0  0  0  0  0
   57.2060   33.0570   45.3650 C   0  0  0  0  0  0  0  0  0  0  0  0
   57.9530   32.1230   46.0880 C   0  0  0  0  0  0  0  0  0  0  0  0
   59.2900   32.3980   46.4520 C   0  0  0  0  0  0  0  0  0  0  0  0
   57.3507   31.6885   43.5338 H   0  0  0  0  0  0  0  0  0  0  0  0
   57.8835   30.7383   42.1056 H   0  0  0  0  0  0  0  0  0  0  0  0
   56.2725   31.5329   42.1056 H   0  0  0  0  0  0  0  0  0  0  0  0
   56.2162   29.9271   44.4046 H   0  0  0  0  0  0  0  0  0  0  0  0
   55.4539   29.5463   42.8119 H   0  0  0  0  0  0  0  0  0  0  0  0
   56.7830   27.8510   42.6540 H   0  0  0  0  0  0  0  0  0  0  0  0
   58.1340   28.8760   42.6040 H   0  0  0  0  0  0  0  0  0  0  0  0
   56.8598   28.0170   45.1444 H   0  0  0  0  0  0  0  0  0  0  0  0
   58.1252   27.0367   44.2830 H   0  0  0  0  0  0  0  0  0  0  0  0
   59.5813   29.1541   44.3567 H   0  0  0  0  0  0  0  0  0  0  0  0
   58.3831   29.7774   45.5665 H   0  0  0  0  0  0  0  0  0  0  0  0
   58.7948   27.6259   46.8818 H   0  0  0  0  0  0  0  0  0  0  0  0
   60.2016   27.3451   45.7880 H   0  0  0  0  0  0  0  0  0  0  0  0
   60.8090   28.4620   47.8310 H   0  0  0  0  0  0  0  0  0  0  0  0
   58.5308   30.0017   47.2930 H   0  0  0  0  0  0  0  0  0  0  0  0
   59.6551   30.0561   48.7196 H   0  0  0  0  0  0  0  0  0  0  0  0
   62.0304   31.1008   48.0695 H   0  0  0  0  0  0  0  0  0  0  0  0
   61.6106   34.9194   46.1065 H   0  0  0  0  0  0  0  0  0  0  0  0
   59.5271   35.5360   45.0470 H   0  0  0  0  0  0  0  0  0  0  0  0
   57.1732   35.0051   44.4276 H   0  0  0  0  0  0  0  0  0  0  0  0
   56.1667   32.8282   45.0866 H   0  0  0  0  0  0  0  0  0  0  0  0
   57.4957   31.1650   46.3763 H   0  0  0  0  0  0  0  0  0  0  0  0
  1  2  1  0
  2  3  1  0
  3  4  1  0
  4  5  1  0
  5  6  1  0
  6  7  1  0
  7  8  1  0
  8  9  1  0
  9 10  2  0
 10 11  1  0
 11 12  1  0
 11 13  2  0
 13 14  1  0
 14 15  2  0
 15 16  1  0
 16 17  2  0
 17 18  1  0
 18 19  2  0
 19  9  1  0
 19 14  1  0
  1 20  1  0
  1 21  1  0
  1 22  1  0
  2 23  1  0
  2 24  1  0
  3 25  1  0
  3 26  1  0
  4 27  1  0
  4 28  1  0
  5 29  1  0
  5 30  1  0
  6 31  1  0
  6 32  1  0
  7 33  1  0
  8 34  1  0
  8 35  1  0
 10 36  1  0
 13 37  1  0
 15 38  1  0
 16 39  1  0
 17 40  1  0
 18 41  1  0
M  CHG  1   3   1
M  END
>  <UniqueID>  (15) 
15

>  <SMILES>  (15) 
CC[NH2+]CCCNCc1cc(Br)cc2ccccc12

>  <Energy>  (15) 
39.87400460610421

>  <Genealogy>  (15) 
CC[NH2+]CCCNCc1cc(Br)cc2ccccc12 (protonated)
CC[NH2+]CCCNCc1cc(Br)cc2ccccc12 (3D coordinates assigned)
CC[NH2+]CCCNCc1cc(Br)cc2ccccc12 (optimized conformer: 39.87400460610421 kcal/mol)

>  <smiles>  (15) 
CCNCCCNCc1cc(Br)cc2ccccc12

>  <score_type>  (15) 
oracle

>  <origin>  (15) 
adg

>  <m_score__min__energy>  (15) 
-5.7599999999999998

>  <m_primary>  (15) 
energy

$$$$
15:0
     RDKit          3D

 44 46  0  0  0  0  0  0  0  0999 V2000
   56.5590   30.4280   42.9640 C   0  0  0  0  0  0  0  0  0  0  0  0
   55.5410   30.1350   44.0600 C   0  0  0  0  0  0  0  0  0  0  0  0
   56.0080   29.1000   44.9050 O   0  0  0  0  0  0  0  0  0  0  0  0
   57.2570   28.5970   44.4640 C   0  0  0  0  0  0  0  0  0  0  0  0
   57.9270   27.7900   45.5820 C   0  0  0  0  0  0  0  0  0  0  0  0
   58.4820   28.6900   46.6930 C   0  0  0  0  0  0  0  0  0  0  0  0
   57.8660   30.0180   46.6560 N   0  0  0  0  0  0  0  0  0  0  0  0
   58.5240   31.1830   47.1870 C   0  0  0  0  0  0  0  0  0  0  0  0
   58.6460   32.3550   46.4130 C   0  0  0  0  0  0  0  0  0  0  0  0
   58.0350   32.4510   45.1440 C   0  0  0  0  0  0  0  0  0  0  0  0
   58.1620   33.6070   44.3770 C   0  0  0  0  0  0  0  0  0  0  0  0
   58.8830   34.6900   44.8640 C   0  0  0  0  0  0  0  0  0  0  0  0
   59.4710   34.6310   46.1260 C   0  0  0  0  0  0  0  0  0  0  0  0
   59.3610   33.4690   46.9340 C   0  0  0  0  0  0  0  0  0  0  0  0
   59.9150   33.4120   48.2000 N   0  0  0  0  0  0  0  0  0  0  0  0
   60.6910   34.5590   48.7200 C   0  0  0  0  0  0  0  0  0  0  0  0
   59.7270   32.3010   48.9900 C   0  0  0  0  0  0  0  0  0  0  0  0
   60.2200   32.2670   50.2640 N   0  0  0  0  0  0  0  0  0  0  0  0
   60.0730   31.1950   51.0830 C   0  0  0  0  0  0  0  0  0  0  0  0
   59.4010   30.0650   50.6330 C   0  0  0  0  0  0  0  0  0  0  0  0
   58.8810   30.0510   49.3410 C   0  0  0  0  0  0  0  0  0  0  0  0
   59.0290   31.1720   48.4980 C   0  0  0  0  0  0  0  0  0  0  0  0
   57.5205   30.7047   43.4211 H   0  0  0  0  0  0  0  0  0  0  0  0
   56.6940   29.5322   42.3400 H   0  0  0  0  0  0  0  0  0  0  0  0
   56.1972   31.2585   42.3400 H   0  0  0  0  0  0  0  0  0  0  0  0
   55.3795   31.0447   44.6569 H   0  0  0  0  0  0  0  0  0  0  0  0
   54.5974   29.8156   43.5936 H   0  0  0  0  0  0  0  0  0  0  0  0
   57.0991   27.9467   43.5910 H   0  0  0  0  0  0  0  0  0  0  0  0
   57.9077   29.4408   44.1908 H   0  0  0  0  0  0  0  0  0  0  0  0
   57.1849   27.1053   46.0183 H   0  0  0  0  0  0  0  0  0  0  0  0
   58.7704   27.2381   45.1414 H   0  0  0  0  0  0  0  0  0  0  0  0
   58.2747   28.2254   47.6683 H   0  0  0  0  0  0  0  0  0  0  0  0
   59.5653   28.8042   46.5402 H   0  0  0  0  0  0  0  0  0  0  0  0
   56.8510   30.0790   46.4170 H   0  0  0  0  0  0  0  0  0  0  0  0
   57.4517   31.6029   44.7562 H   0  0  0  0  0  0  0  0  0  0  0  0
   57.6908   33.6623   43.3846 H   0  0  0  0  0  0  0  0  0  0  0  0
   58.9901   35.5973   44.2513 H   0  0  0  0  0  0  0  0  0  0  0  0
   60.0302   35.5001   46.5027 H   0  0  0  0  0  0  0  0  0  0  0  0
   60.6791   34.5414   49.8198 H   0  0  0  0  0  0  0  0  0  0  0  0
   61.7294   34.4910   48.3634 H   0  0  0  0  0  0  0  0  0  0  0  0
   60.2416   35.4976   48.3634 H   0  0  0  0  0  0  0  0  0  0  0  0
   60.4855   31.2205   52.1024 H   0  0  0  0  0  0  0  0  0  0  0  0
   59.2810   29.1910   51.2901 H   0  0  0  0  0  0  0  0  0  0  0  0
   58.3510   29.1591   48.9754 H   0  0  0  0  0  0  0  0  0  0  0  0
  1  2  1  0
  2  3  1  0
  3  4  1  0
  4  5  1  0
  5  6  1  0
  6  7  1  0
  7  8  1  0
  8  9  2  0
  9 10  1  0
 10 11  2  0
 11 12  1  0
 12 13  2  0
 13 14  1  0
 14 15  2  0
 15 16  1  0
 15 17  1  0
 17 18  2  0
 18 19  1  0
 19 20  2  0
 20 21  1  0
 21 22  2  0
 22  8  1  0
 14  9  1  0
 22 17  1  0
  1 23  1  0
  1 24  1  0
  1 25  1  0
  2 26  1  0
  2 27  1  0
  4 28  1  0
  4 29  1  0
  5 30  1  0
  5 31  1  0
  6 32  1  0
  6 33  1  0
  7 34  1  0
 10 35  1  0
 11 36  1  0
 12 37  1  0
 13 38  1  0
 16 39  1  0
 16 40  1  0
 16 41  1  0
 19 42  1  0
 20 43  1  0
 21 44  1  0
M  CHG  1  15   1
M  END
>  <UniqueID>  (16) 
16

>  <SMILES>  (16) 
CCOCCCNc1c2ccccc2[n+](C)c2ncccc12

>  <Energy>  (16) 
64.06873234413557

>  <Genealogy>  (16) 
CCOCCCNc1c2ccccc2[n+](C)c2ncccc12 (3D coordinates assigned)
CCOCCCNc1c2ccccc2[n+](C)c2ncccc12 (optimized conformer: 64.06873234413557 kcal/mol)

>  <smiles>  (16) 
CCOCCCNc1c2ccccc2[n+](C)c2ncccc12

>  <score_type>  (16) 
oracle

>  <origin>  (16) 
adg

>  <m_score__min__energy>  (16) 
-5.5800000000000001

>  <m_primary>  (16) 
energy

$$$$
16:0
     RDKit          3D

 62 66  0  0  0  0  0  0  0  0999 V2000
   63.3760   34.1410   46.4040 C   0  0  0  0  0  0  0  0  0  0  0  0
   62.9910   32.8540   47.1340 C   0  0  0  0  0  0  0  0  0  0  0  0
   63.2920   32.9470   48.5820 N   0  0  0  0  0  0  0  0  0  0  0  0
   62.5330   34.0480   49.2310 C   0  0  0  0  0  0  0  0  0  0  0  0
   62.9930   34.2070   50.6740 C   0  0  0  0  0  0  0  0  0  0  0  0
   63.0630   31.6430   49.2520 C   0  0  0  0  0  0  0  0  0  0  0  0
   61.8310   30.9150   48.6650 C   0  0  0  0  0  0  0  0  0  0  0  0
   60.5590   31.6670   48.8050 N   0  0  0  0  0  0  0  0  0  0  0  0
   59.7540   31.6290   47.5890 C   0  0  0  0  0  0  0  0  0  0  0  0
   59.1820   30.4120   47.1180 C   0  0  0  0  0  0  0  0  0  0  0  0
   58.4910   30.4150   45.8770 C   0  0  0  0  0  0  0  0  0  0  0  0
   58.1390   31.5970   45.2720 N   0  0  0  0  0  0  0  0  0  0  0  0
   57.0600   31.6200   44.2620 C   0  0  0  0  0  0  0  0  0  0  0  0
   58.7500   32.7730   45.6520 C   0  0  0  0  0  0  0  0  0  0  0  0
   58.5880   33.9600   44.8940 C   0  0  0  0  0  0  0  0  0  0  0  0
   59.2110   35.1460   45.2700 C   0  0  0  0  0  0  0  0  0  0  0  0
   60.0140   35.1810   46.4000 C   0  0  0  0  0  0  0  0  0  0  0  0
   60.2030   34.0310   47.1600 C   0  0  0  0  0  0  0  0  0  0  0  0
   59.5790   32.8070   46.8080 C   0  0  0  0  0  0  0  0  0  0  0  0
   58.1570   29.0900   45.2880 C   0  0  0  0  0  0  0  0  0  0  0  0
   58.0410   28.7800   43.9720 N   0  0  0  0  0  0  0  0  0  0  0  0
   57.8990   27.4400   43.9320 C   0  0  0  0  0  0  0  0  0  0  0  0
   57.7720   26.6390   42.8000 C   0  0  0  0  0  0  0  0  0  0  0  0
   57.6800   25.2460   42.9850 C   0  0  0  0  0  0  0  0  0  0  0  0
   57.7330   24.6910   44.2840 C   0  0  0  0  0  0  0  0  0  0  0  0
   57.8810   25.5220   45.4100 C   0  0  0  0  0  0  0  0  0  0  0  0
   57.9530   26.8970   45.1940 C   0  0  0  0  0  0  0  0  0  0  0  0
   58.1400   27.9510   46.0580 C   0  0  0  0  0  0  0  0  0  0  0  0
   58.3950   27.9750   47.5210 C   0  0  0  0  0  0  0  0  0  0  0  0
   59.4260   29.0740   47.8410 C   0  0  0  0  0  0  0  0  0  0  0  0
   63.6102   34.9241   47.1402 H   0  0  0  0  0  0  0  0  0  0  0  0
   64.2578   33.9550   45.7733 H   0  0  0  0  0  0  0  0  0  0  0  0
   62.5369   34.4699   45.7733 H   0  0  0  0  0  0  0  0  0  0  0  0
   61.9135   32.6758   47.0025 H   0  0  0  0  0  0  0  0  0  0  0  0
   63.5766   32.0251   46.7097 H   0  0  0  0  0  0  0  0  0  0  0  0
   62.7109   34.9862   48.6850 H   0  0  0  0  0  0  0  0  0  0  0  0
   61.4593   33.8093   49.2150 H   0  0  0  0  0  0  0  0  0  0  0  0
   62.1750   33.9242   51.3529 H   0  0  0  0  0  0  0  0  0  0  0  0
   63.8616   33.5569   50.8557 H   0  0  0  0  0  0  0  0  0  0  0  0
   63.2747   35.2547   50.8557 H   0  0  0  0  0  0  0  0  0  0  0  0
   63.9518   31.0095   49.1152 H   0  0  0  0  0  0  0  0  0  0  0  0
   62.8777   31.8306   50.3199 H   0  0  0  0  0  0  0  0  0  0  0  0
   62.0118   30.7383   47.5944 H   0  0  0  0  0  0  0  0  0  0  0  0
   61.7123   29.9820   49.2355 H   0  0  0  0  0  0  0  0  0  0  0  0
   59.9970   31.2540   49.5840 H   0  0  0  0  0  0  0  0  0  0  0  0
   60.7240   32.6350   49.1450 H   0  0  0  0  0  0  0  0  0  0  0  0
   56.0839   31.6408   44.7687 H   0  0  0  0  0  0  0  0  0  0  0  0
   57.1657   32.5161   43.6328 H   0  0  0  0  0  0  0  0  0  0  0  0
   57.1274   30.7202   43.6328 H   0  0  0  0  0  0  0  0  0  0  0  0
   57.9583   33.9431   43.9922 H   0  0  0  0  0  0  0  0  0  0  0  0
   59.0664   36.0567   44.6703 H   0  0  0  0  0  0  0  0  0  0  0  0
   60.5030   36.1207   46.6964 H   0  0  0  0  0  0  0  0  0  0  0  0
   60.8481   34.0719   48.0500 H   0  0  0  0  0  0  0  0  0  0  0  0
   58.1200   29.4170   43.1490 H   0  0  0  0  0  0  0  0  0  0  0  0
   57.7444   27.0805   41.7929 H   0  0  0  0  0  0  0  0  0  0  0  0
   57.5661   24.5854   42.1129 H   0  0  0  0  0  0  0  0  0  0  0  0
   57.6580   23.6015   44.4156 H   0  0  0  0  0  0  0  0  0  0  0  0
   57.9379   25.1012   46.4247 H   0  0  0  0  0  0  0  0  0  0  0  0
   57.4561   28.1857   48.0541 H   0  0  0  0  0  0  0  0  0  0  0  0
   58.7861   26.9985   47.8426 H   0  0  0  0  0  0  0  0  0  0  0  0
   59.4035   29.2605   48.9248 H   0  0  0  0  0  0  0  0  0  0  0  0
   60.3988   28.7014   47.4875 H   0  0  0  0  0  0  0  0  0  0  0  0
  1  2  1  0
  2  3  1  0
  3  4  1  0
  4  5  1  0
  3  6  1  0
  6  7  1  0
  7  8  1  0
  8  9  1  0
  9 10  2  0
 10 11  1  0
 11 12  2  0
 12 13  1  0
 12 14  1  0
 14 15  2  0
 15 16  1  0
 16 17  2  0
 17 18  1  0
 18 19  2  0
 11 20  1  0
 20 21  1  0
 21 22  1  0
 22 23  2  0
 23 24  1  0
 24 25  2  0
 25 26  1  0
 26 27  2  0
 27 28  1  0
 28 29  1  0
 29 30  1  0
 19  9  1  0
 28 20  2  0
 30 10  1  0
 19 14  1  0
 27 22  1  0
  1 31  1  0
  1 32  1  0
  1 33  1  0
  2 34  1  0
  2 35  1  0
  4 36  1  0
  4 37  1  0
  5 38  1  0
  5 39  1  0
  5 40  1  0
  6 41  1  0
  6 42  1  0
  7 43  1  0
  7 44  1  0
  8 45  1  0
  8 46  1  0
 13 47  1  0
 13 48  1  0
 13 49  1  0
 15 50  1  0
 16 51  1  0
 17 52  1  0
 18 53  1  0
 21 54  1  0
 23 55  1  0
 24 56  1  0
 25 57  1  0
 26 58  1  0
 29 59  1  0
 29 60  1  0
 30 61  1  0
 30 62  1  0
M  CHG  2   8   1  12   1
M  END
>  <UniqueID>  (17) 
17

>  <SMILES>  (17) 
CCN(CC)CC[NH2+]c1c2c([n+](C)c3ccccc13)-c1[nH]c3ccccc3c1CC2

>  <Energy>  (17) 
137.79174945768344

>  <Genealogy>  (17) 
CCN(CC)CC[NH2+]c1c2c([n+](C)c3ccccc13)-c1[nH]c3ccccc3c1CC2 (protonated)
CCN(CC)CC[NH2+]c1c2c([n+](C)c3ccccc13)-c1[nH]c3ccccc3c1CC2 (3D coordinates assigned)
CCN(CC)CC[NH2+]c1c2c([n+](C)c3ccccc13)-c1[nH]c3ccccc3c1CC2 (nonaromatic ring conformer: 137.79174945768344 kcal/mol)

>  <smiles>  (17) 
CCN(CC)CCNc1c2c([n+](C)c3ccccc13)-c1[nH]c3ccccc3c1CC2

>  <score_type>  (17) 
oracle

>  <origin>  (17) 
adg

>  <m_score__min__energy>  (17) 
-5.8600000000000003

>  <m_primary>  (17) 
energy

$$$$
17:0
     RDKit          3D

 42 45  0  0  0  0  0  0  0  0999 V2000
   58.0480   27.8960   43.9640 C   0  0  0  0  0  0  0  0  0  0  0  0
   57.9680   29.3020   44.4800 C   0  0  0  0  0  0  0  0  0  0  0  0
   56.9460   30.1590   44.0360 C   0  0  0  0  0  0  0  0  0  0  0  0
   56.8750   31.4800   44.4920 C   0  0  0  0  0  0  0  0  0  0  0  0
   57.8400   31.9660   45.3800 C   0  0  0  0  0  0  0  0  0  0  0  0
   58.8970   31.1130   45.8080 C   0  0  0  0  0  0  0  0  0  0  0  0
   58.9470   29.7830   45.3660 C   0  0  0  0  0  0  0  0  0  0  0  0
   59.7860   31.6530   46.8040 N   0  0  1  0  0  0  0  0  0  0  0  0
   61.0750   31.0010   47.1730 C   0  0  0  0  0  0  0  0  0  0  0  0
   61.9480   31.9220   48.1700 C   0  0  0  0  0  0  0  0  0  0  0  0
   61.9120   33.4330   47.9360 N   0  0  0  0  0  0  0  0  0  0  0  0
   62.2050   34.1360   49.2090 C   0  0  0  0  0  0  0  0  0  0  0  0
   62.9480   33.8390   46.9460 C   0  0  0  0  0  0  0  0  0  0  0  0
   60.5170   33.7620   47.5400 C   0  0  1  0  0  0  0  0  0  0  0  0
   59.8640   34.9680   46.8460 C   0  0  0  0  0  0  0  0  0  0  0  0
   59.2560   33.9910   45.7890 C   0  0  2  0  0  0  0  0  0  0  0  0
   57.8230   33.4140   45.8910 C   0  0  0  0  0  0  0  0  0  0  0  0
   60.2140   32.9560   46.3200 C   0  0  2  0  0  0  0  0  0  0  0  0
   58.0878   27.1961   44.8116 H   0  0  0  0  0  0  0  0  0  0  0  0
   57.1607   27.6794   43.3510 H   0  0  0  0  0  0  0  0  0  0  0  0
   58.9541   27.7814   43.3510 H   0  0  0  0  0  0  0  0  0  0  0  0
   56.1949   29.7876   43.3233 H   0  0  0  0  0  0  0  0  0  0  0  0
   56.0602   32.1362   44.1520 H   0  0  0  0  0  0  0  0  0  0  0  0
   59.7513   29.1173   45.7123 H   0  0  0  0  0  0  0  0  0  0  0  0
   59.2040   31.6900   47.6750 H   0  0  0  0  0  0  0  0  0  0  0  0
   60.8603   30.0431   47.6694 H   0  0  0  0  0  0  0  0  0  0  0  0
   61.6566   30.8472   46.2521 H   0  0  0  0  0  0  0  0  0  0  0  0
   61.5876   31.7367   49.1926 H   0  0  0  0  0  0  0  0  0  0  0  0
   62.9923   31.6308   47.9840 H   0  0  0  0  0  0  0  0  0  0  0  0
   61.9350   33.4883   50.0561 H   0  0  0  0  0  0  0  0  0  0  0  0
   63.2776   34.3750   49.2574 H   0  0  0  0  0  0  0  0  0  0  0  0
   61.6196   35.0660   49.2574 H   0  0  0  0  0  0  0  0  0  0  0  0
   63.8449   34.1905   47.4771 H   0  0  0  0  0  0  0  0  0  0  0  0
   63.2098   32.9770   46.3149 H   0  0  0  0  0  0  0  0  0  0  0  0
   62.5544   34.6494   46.3149 H   0  0  0  0  0  0  0  0  0  0  0  0
   60.1916   33.7372   48.5905 H   0  0  0  0  0  0  0  0  0  0  0  0
   59.1177   35.4946   47.4589 H   0  0  0  0  0  0  0  0  0  0  0  0
   60.4636   35.8366   46.5361 H   0  0  0  0  0  0  0  0  0  0  0  0
   59.1637   34.3952   44.7701 H   0  0  0  0  0  0  0  0  0  0  0  0
   57.4896   33.4332   46.9391 H   0  0  0  0  0  0  0  0  0  0  0  0
   57.1309   34.0179   45.2857 H   0  0  0  0  0  0  0  0  0  0  0  0
   60.9226   32.6337   45.5428 H   0  0  0  0  0  0  0  0  0  0  0  0
  1  2  1  0
  2  3  2  0
  3  4  1  0
  4  5  2  0
  5  6  1  0
  6  7  2  0
  6  8  1  0
  8  9  1  0
  9 10  1  0
 10 11  1  0
 11 12  1  0
 11 13  1  0
 11 14  1  0
 14 15  1  0
 15 16  1  0
 16 17  1  0
 16 18  1  0
  7  2  1  0
 18  8  1  0
 17  5  1  0
 18 14  1  0
  1 19  1  0
  1 20  1  0
  1 21  1  0
  3 22  1  0
  4 23  1  0
  7 24  1  0
  8 25  1  1
  9 26  1  0
  9 27  1  0
 10 28  1  0
 10 29  1  0
 12 30  1  0
 12 31  1  0
 12 32  1  0
 13 33  1  0
 13 34  1  0
 13 35  1  0
 14 36  1  1
 15 37  1  0
 15 38  1  0
 16 39  1  6
 17 40  1  0
 17 41  1  0
 18 42  1  6
M  CHG  2   8   1  11   1
M  END
>  <UniqueID>  (18) 
18

>  <SMILES>  (18) 
Cc1ccc2c(c1)[N@H+]1CC[N+](C)(C)[C@H]3CC(C2)C31

>  <Energy>  (18) 
189.62349211081806

>  <Genealogy>  (18) 
Cc1ccc2c(c1)[NH+]1CC[N+](C)(C)C3CC(C2)C31 (protonated)
Cc1ccc2c(c1)[N@H+]1CC[N+](C)(C)[C@H]3CC(C2)C31 (chirality)
Cc1ccc2c(c1)[N@H+]1CC[N+](C)(C)[C@H]3CC(C2)C31 (3D coordinates assigned)
Cc1ccc2c(c1)[N@H+]1CC[N+](C)(C)[C@H]3CC(C2)C31 (nonaromatic ring conformer: 189.62349211081806 kcal/mol)

>  <smiles>  (18) 
Cc1ccc2c(c1)N1CC[N+](C)(C)C3CC(C2)C31

>  <score_type>  (18) 
oracle

>  <origin>  (18) 
adg

>  <m_score__min__energy>  (18) 
-4.5199999999999996

>  <m_primary>  (18) 
energy

$$$$
