0:0
     RDKit          3D

 71 74  0  0  0  0  0  0  0  0999 V2000
   68.8140   34.9290   51.2550 C   0  0  0  0  0  0  0  0  0  0  0  0
   67.5930   34.6530   51.9320 O   0  0  0  0  0  0  0  0  0  0  0  0
   66.4760   34.0530   51.3320 C   0  0  0  0  0  0  0  0  0  0  0  0
   65.1580   34.4490   51.6230 C   0  0  0  0  0  0  0  0  0  0  0  0
   64.0770   33.8240   50.9960 C   0  0  0  0  0  0  0  0  0  0  0  0
   64.2910   32.7880   50.0690 C   0  0  0  0  0  0  0  0  0  0  0  0
   63.1550   32.1230   49.3850 C   0  0  0  0  0  0  0  0  0  0  0  0
   62.8550   32.4670   48.2080 O   0  0  0  0  0  0  0  0  0  0  0  0
   62.4230   31.0590   50.0170 N   0  0  0  0  0  0  0  0  0  0  0  0
   61.2000   30.5380   49.4720 C   0  0  0  0  0  0  0  0  0  0  0  0
   61.1750   29.9970   48.1760 C   0  0  0  0  0  0  0  0  0  0  0  0
   59.9910   29.4790   47.6490 C   0  0  0  0  0  0  0  0  0  0  0  0
   58.8230   29.4930   48.4110 C   0  0  0  0  0  0  0  0  0  0  0  0
   58.8330   30.0320   49.7000 C   0  0  0  0  0  0  0  0  0  0  0  0
   60.0200   30.5650   50.2400 C   0  0  0  0  0  0  0  0  0  0  0  0
   60.0710   31.1120   51.5350 O   0  0  0  0  0  0  0  0  0  0  0  0
   60.3480   32.4760   51.8510 C   0  0  0  0  0  0  0  0  0  0  0  0
   59.5590   33.4390   50.9410 C   0  0  0  0  0  0  0  0  0  0  0  0
   60.3250   33.9000   49.6820 C   0  0  0  0  0  0  0  0  0  0  0  0
   59.4360   34.0970   48.5110 N   0  0  0  0  0  0  0  0  0  0  0  0
   60.2020   34.4890   47.3000 C   0  0  0  0  0  0  0  0  0  0  0  0
   59.5150   34.0770   45.9880 C   0  0  0  0  0  0  0  0  0  0  0  0
   58.0550   34.1220   46.1620 N   0  0  0  0  0  0  0  0  0  0  0  0
   57.3660   33.9610   44.8640 C   0  0  0  0  0  0  0  0  0  0  0  0
   57.7660   32.6490   44.1890 C   0  0  0  0  0  0  0  0  0  0  0  0
   57.0860   31.5620   44.8120 O   0  0  0  0  0  0  0  0  0  0  0  0
   57.5550   30.2410   44.8370 C   0  0  0  0  0  0  0  0  0  0  0  0
   58.8810   29.9020   44.5040 C   0  0  0  0  0  0  0  0  0  0  0  0
   59.3020   28.5690   44.5550 C   0  0  0  0  0  0  0  0  0  0  0  0
   58.4050   27.5650   44.9280 C   0  0  0  0  0  0  0  0  0  0  0  0
   57.0860   27.8930   45.2520 C   0  0  0  0  0  0  0  0  0  0  0  0
   56.6650   29.2260   45.2100 C   0  0  0  0  0  0  0  0  0  0  0  0
   57.6200   33.0960   47.1400 C   0  0  0  0  0  0  0  0  0  0  0  0
   58.6450   32.8750   48.2710 C   0  0  0  0  0  0  0  0  0  0  0  0
   65.6110   32.4060   49.7740 C   0  0  0  0  0  0  0  0  0  0  0  0
   66.6900   33.0270   50.4070 C   0  0  0  0  0  0  0  0  0  0  0  0
   69.6098   35.1089   51.9928 H   0  0  0  0  0  0  0  0  0  0  0  0
   69.0860   34.0697   50.6245 H   0  0  0  0  0  0  0  0  0  0  0  0
   68.6900   35.8218   50.6245 H   0  0  0  0  0  0  0  0  0  0  0  0
   64.9772   35.2557   52.3487 H   0  0  0  0  0  0  0  0  0  0  0  0
   63.0509   34.1446   51.2291 H   0  0  0  0  0  0  0  0  0  0  0  0
   62.8810   30.5300   50.7930 H   0  0  0  0  0  0  0  0  0  0  0  0
   62.0945   29.9815   47.5725 H   0  0  0  0  0  0  0  0  0  0  0  0
   59.9791   29.0595   46.6322 H   0  0  0  0  0  0  0  0  0  0  0  0
   57.8921   29.0789   47.9964 H   0  0  0  0  0  0  0  0  0  0  0  0
   57.9088   30.0402   50.2965 H   0  0  0  0  0  0  0  0  0  0  0  0
   60.0683   32.6641   52.8981 H   0  0  0  0  0  0  0  0  0  0  0  0
   61.4219   32.6552   51.6940 H   0  0  0  0  0  0  0  0  0  0  0  0
   58.6394   32.9298   50.6168 H   0  0  0  0  0  0  0  0  0  0  0  0
   59.3623   34.3426   51.5366 H   0  0  0  0  0  0  0  0  0  0  0  0
   60.8287   34.8520   49.9055 H   0  0  0  0  0  0  0  0  0  0  0  0
   61.0450   33.1097   49.4232 H   0  0  0  0  0  0  0  0  0  0  0  0
   60.3238   35.5822   47.3023 H   0  0  0  0  0  0  0  0  0  0  0  0
   61.1683   33.9649   47.3411 H   0  0  0  0  0  0  0  0  0  0  0  0
   59.8100   34.7703   45.1866 H   0  0  0  0  0  0  0  0  0  0  0  0
   59.8203   33.0547   45.7203 H   0  0  0  0  0  0  0  0  0  0  0  0
   56.2788   33.9622   45.0315 H   0  0  0  0  0  0  0  0  0  0  0  0
   57.6564   34.7948   44.2079 H   0  0  0  0  0  0  0  0  0  0  0  0
   57.4944   32.6881   43.1238 H   0  0  0  0  0  0  0  0  0  0  0  0
   58.8520   32.5044   44.2879 H   0  0  0  0  0  0  0  0  0  0  0  0
   59.5883   30.6887   44.2026 H   0  0  0  0  0  0  0  0  0  0  0  0
   60.3407   28.3109   44.3011 H   0  0  0  0  0  0  0  0  0  0  0  0
   58.7369   26.5170   44.9666 H   0  0  0  0  0  0  0  0  0  0  0  0
   56.3781   27.1020   45.5404 H   0  0  0  0  0  0  0  0  0  0  0  0
   55.6271   29.4792   45.4719 H   0  0  0  0  0  0  0  0  0  0  0  0
   56.6678   33.4179   47.5868 H   0  0  0  0  0  0  0  0  0  0  0  0
   57.5156   32.1448   46.5974 H   0  0  0  0  0  0  0  0  0  0  0  0
   58.1105   32.6050   49.1937 H   0  0  0  0  0  0  0  0  0  0  0  0
   59.3288   32.0668   47.9725 H   0  0  0  0  0  0  0  0  0  0  0  0
   65.7961   31.6102   49.0374 H   0  0  0  0  0  0  0  0  0  0  0  0
   67.7165   32.7062   50.1758 H   0  0  0  0  0  0  0  0  0  0  0  0
  1  2  1  0
  2  3  1  0
  3  4  2  0
  4  5  1  0
  5  6  2  0
  6  7  1  0
  7  8  2  0
  7  9  1  0
  9 10  1  0
 10 11  2  0
 11 12  1  0
 12 13  2  0
 13 14  1  0
 14 15  2  0
 15 16  1  0
 16 17  1  0
 17 18  1  0
 18 19  1  0
 19 20  1  0
 20 21  1  0
 21 22  1  0
 22 23  1  0
 23 24  1  0
 24 25  1  0
 25 26  1  0
 26 27  1  0
 27 28  2  0
 28 29  1  0
 29 30  2  0
 30 31  1  0
 31 32  2  0
 23 33  1  0
 33 34  1  0
  6 35  1  0
 35 36  2  0
 36  3  1  0
 15 10  1  0
 34 20  1  0
 32 27  1  0
  1 37  1  0
  1 38  1  0
  1 39  1  0
  4 40  1  0
  5 41  1  0
  9 42  1  0
 11 43  1  0
 12 44  1  0
 13 45  1  0
 14 46  1  0
 17 47  1  0
 17 48  1  0
 18 49  1  0
 18 50  1  0
 19 51  1  0
 19 52  1  0
 21 53  1  0
 21 54  1  0
 22 55  1  0
 22 56  1  0
 24 57  1  0
 24 58  1  0
 25 59  1  0
 25 60  1  0
 28 61  1  0
 29 62  1  0
 30 63  1  0
 31 64  1  0
 32 65  1  0
 33 66  1  0
 33 67  1  0
 34 68  1  0
 34 69  1  0
 35 70  1  0
 36 71  1  0
M  END
>  <UniqueID>  (1) 
1

>  <SMILES>  (1) 
COc1ccc(C(=O)Nc2ccccc2OCCCN2CCN(CCOc3ccccc3)CC2)cc1

>  <Energy>  (1) 
84.5710361752841

>  <Genealogy>  (1) 
COc1ccc(C(=O)Nc2ccccc2OCCCN2CCN(CCOc3ccccc3)CC2)cc1 (3D coordinates assigned)
COc1ccc(C(=O)Nc2ccccc2OCCCN2CCN(CCOc3ccccc3)CC2)cc1 (nonaromatic ring conformer: 84.5710361752841 kcal/mol)

>  <smiles>  (1) 
COc1ccc(C(=O)Nc2ccccc2OCCCN2CCN(CCOc3ccccc3)CC2)cc1

>  <score_type>  (1) 
oracle

>  <origin>  (1) 
adg

>  <m_score__min__energy>  (1) 
-7.9100000000000001

>  <m_primary>  (1) 
energy

$$$$
1:0
     RDKit          3D

 35 36  0  0  0  0  0  0  0  0999 V2000
   60.9395   29.8321   46.7352 H   0  0  0  0  0  0  0  0  0  0  0  0
   60.3620   28.9020   46.8420 C   0  0  0  0  0  0  0  0  0  0  0  0
   59.2550   28.8610   47.6920 C   0  0  0  0  0  0  0  0  0  0  0  0
   58.9599   29.7593   48.2542 H   0  0  0  0  0  0  0  0  0  0  0  0
   58.5210   27.6780   47.8290 C   0  0  0  0  0  0  0  0  0  0  0  0
   57.6490   27.6518   48.4990 H   0  0  0  0  0  0  0  0  0  0  0  0
   58.8870   26.5260   47.1200 C   0  0  0  0  0  0  0  0  0  0  0  0
   58.1070   25.3710   47.2910 O   0  0  0  0  0  0  0  0  0  0  0  0
   57.0860   24.9100   46.4040 C   0  0  2  0  0  0  0  0  0  0  0  0
   57.5234   24.2555   45.6357 H   0  0  0  0  0  0  0  0  0  0  0  0
   56.4470   26.1060   45.7430 C   0  0  0  0  0  0  0  0  0  0  0  0
   55.2530   26.3990   46.0180 O   0  0  0  0  0  0  0  0  0  0  0  0
   57.1400   26.8990   44.7680 N   0  0  0  0  0  0  0  0  0  0  0  0
   57.1650   28.1980   44.6870 C   0  0  0  0  0  0  0  0  0  0  0  0
   58.5070   29.1630   44.3240 S   0  0  0  0  0  0  0  0  0  0  0  0
   57.5870   30.5580   44.5340 C   0  0  0  0  0  0  0  0  0  0  0  0
   58.2060   32.2250   44.3190 S   0  0  0  0  0  0  0  0  0  0  0  0
   57.5680   32.4130   42.6170 C   0  0  0  0  0  0  0  0  0  0  0  0
   58.3894   32.7307   41.9580 H   0  0  0  0  0  0  0  0  0  0  0  0
   56.7665   33.1664   42.6244 H   0  0  0  0  0  0  0  0  0  0  0  0
   56.9950   31.1000   42.1010 C   0  0  0  0  0  0  0  0  0  0  0  0
   56.7164   30.4617   42.9525 H   0  0  0  0  0  0  0  0  0  0  0  0
   56.1041   31.3041   41.4889 H   0  0  0  0  0  0  0  0  0  0  0  0
   57.7505   30.5856   41.4889 H   0  0  0  0  0  0  0  0  0  0  0  0
   56.3110   30.2690   44.8710 N   0  0  0  0  0  0  0  0  0  0  0  0
   56.0850   28.9600   44.9620 N   0  0  0  0  0  0  0  0  0  0  0  0
   55.1500   28.5740   45.2250 H   0  0  0  0  0  0  0  0  0  0  0  0
   56.0410   24.0960   47.1760 C   0  0  0  0  0  0  0  0  0  0  0  0
   56.2031   24.2222   48.2566 H   0  0  0  0  0  0  0  0  0  0  0  0
   55.0332   24.4494   46.9126 H   0  0  0  0  0  0  0  0  0  0  0  0
   56.1370   23.0323   46.9126 H   0  0  0  0  0  0  0  0  0  0  0  0
   60.0050   26.5760   46.2610 C   0  0  0  0  0  0  0  0  0  0  0  0
   60.3026   25.6808   45.6952 H   0  0  0  0  0  0  0  0  0  0  0  0
   60.7360   27.7610   46.1270 C   0  0  0  0  0  0  0  0  0  0  0  0
   61.6077   27.7949   45.4569 H   0  0  0  0  0  0  0  0  0  0  0  0
  1  2  1  0
  2  3  2  0
  3  4  1  0
  3  5  1  0
  5  6  1  0
  5  7  2  0
  7  8  1  0
  8  9  1  0
  9 10  1  6
  9 11  1  0
 11 12  2  0
 11 13  1  0
 13 14  2  0
 14 15  1  0
 15 16  1  0
 16 17  1  0
 17 18  1  0
 18 19  1  0
 18 20  1  0
 18 21  1  0
 21 22  1  0
 21 23  1  0
 21 24  1  0
 16 25  2  0
 25 26  1  0
 26 27  1  0
  9 28  1  0
 28 29  1  0
 28 30  1  0
 28 31  1  0
  7 32  1  0
 32 33  1  0
 32 34  2  0
 34 35  1  0
 34  2  1  0
 26 14  1  0
M  END
>  <UniqueID>  (2) 
2

>  <SMILES>  (2) 
CCSc1n[nH]/c(=N/C(=O)[C@H](C)Oc2ccccc2)s1

>  <Energy>  (2) 
67.25901156285194

>  <Genealogy>  (2) 
CCSc1n[nH]c(=NC(=O)[C@H](C)Oc2ccccc2)s1 (chirality)
CCSc1n[nH]/c(=N/C(=O)[C@H](C)Oc2ccccc2)s1 (cis-trans isomerization)
CCSc1n[nH]/c(=N/C(=O)[C@H](C)Oc2ccccc2)s1 (3D coordinates assigned)
CCSc1n[nH]/c(=N/C(=O)[C@H](C)Oc2ccccc2)s1 (optimized conformer: 67.25901156285194 kcal/mol)

>  <smiles>  (2) 
CCSc1n[nH]c(=NC(=O)C(C)Oc2ccccc2)s1

>  <score_type>  (2) 
oracle

>  <origin>  (2) 
adg

>  <m_score__min__energy>  (2) 
-8.4900000000000002

>  <m_primary>  (2) 
energy

$$$$
2:0
     RDKit          3D

 35 37  0  0  0  0  0  0  0  0999 V2000
   57.9080   34.6068   47.8279 H   0  0  0  0  0  0  0  0  0  0  0  0
   58.6540   33.9260   47.3920 C   0  0  0  0  0  0  0  0  0  0  0  0
   58.2930   33.2370   46.2870 C   0  0  0  0  0  0  0  0  0  0  0  0
   58.1630   31.7510   46.2320 C   0  0  0  0  0  0  0  0  0  0  0  0
   58.5240   31.0240   47.1960 O   0  0  0  0  0  0  0  0  0  0  0  0
   57.6520   31.1170   44.9970 C   0  0  0  0  0  0  0  0  0  0  0  0
   57.1890   29.7910   45.0030 C   0  0  0  0  0  0  0  0  0  0  0  0
   57.2089   29.2077   45.9354 H   0  0  0  0  0  0  0  0  0  0  0  0
   56.7030   29.2100   43.8280 C   0  0  0  0  0  0  0  0  0  0  0  0
   56.3332   28.1741   43.8401 H   0  0  0  0  0  0  0  0  0  0  0  0
   56.6860   29.9420   42.6390 C   0  0  0  0  0  0  0  0  0  0  0  0
   56.3027   29.4817   41.7164 H   0  0  0  0  0  0  0  0  0  0  0  0
   57.1550   31.2580   42.6190 C   0  0  0  0  0  0  0  0  0  0  0  0
   57.1546   31.8259   41.6770 H   0  0  0  0  0  0  0  0  0  0  0  0
   57.6270   31.8580   43.7980 C   0  0  0  0  0  0  0  0  0  0  0  0
   58.2180   33.2450   43.7580 C   0  0  0  0  0  0  0  0  0  0  0  0
   57.7906   33.7912   42.9042 H   0  0  0  0  0  0  0  0  0  0  0  0
   59.3094   33.1525   43.6568 H   0  0  0  0  0  0  0  0  0  0  0  0
   57.9180   34.0210   45.0470 C   0  0  0  0  0  0  0  0  0  0  0  0
   56.8420   34.2465   45.0824 H   0  0  0  0  0  0  0  0  0  0  0  0
   58.5198   34.9417   45.0347 H   0  0  0  0  0  0  0  0  0  0  0  0
   59.9650   33.8410   48.0620 C   0  0  0  0  0  0  0  0  0  0  0  0
   60.1040   34.2070   49.4100 C   0  0  0  0  0  0  0  0  0  0  0  0
   59.2199   34.5095   49.9904 H   0  0  0  0  0  0  0  0  0  0  0  0
   61.3620   34.1880   50.0160 C   0  0  0  0  0  0  0  0  0  0  0  0
   61.4653   34.4656   51.0754 H   0  0  0  0  0  0  0  0  0  0  0  0
   62.4900   33.8170   49.2790 C   0  0  0  0  0  0  0  0  0  0  0  0
   63.4793   33.8121   49.7599 H   0  0  0  0  0  0  0  0  0  0  0  0
   62.3690   33.4500   47.9270 C   0  0  0  0  0  0  0  0  0  0  0  0
   63.5940   33.1100   47.1150 C   0  0  0  0  0  0  0  0  0  0  0  0
   63.6020   31.7670   46.7820 F   0  0  0  0  0  0  0  0  0  0  0  0
   63.6210   33.8460   45.9430 F   0  0  0  0  0  0  0  0  0  0  0  0
   64.7240   33.3980   47.8550 F   0  0  0  0  0  0  0  0  0  0  0  0
   61.1030   33.4980   47.3180 C   0  0  0  0  0  0  0  0  0  0  0  0
   61.0041   33.2643   46.2477 H   0  0  0  0  0  0  0  0  0  0  0  0
  1  2  1  0
  2  3  2  0
  3  4  1  0
  4  5  2  0
  4  6  1  0
  6  7  2  0
  7  8  1  0
  7  9  1  0
  9 10  1  0
  9 11  2  0
 11 12  1  0
 11 13  1  0
 13 14  1  0
 13 15  2  0
 15 16  1  0
 16 17  1  0
 16 18  1  0
 16 19  1  0
 19 20  1  0
 19 21  1  0
  2 22  1  0
 22 23  2  0
 23 24  1  0
 23 25  1  0
 25 26  1  0
 25 27  2  0
 27 28  1  0
 27 29  1  0
 29 30  1  0
 30 31  1  0
 30 32  1  0
 30 33  1  0
 29 34  2  0
 34 35  1  0
 19  3  1  0
 34 22  1  0
 15  6  1  0
M  END
>  <UniqueID>  (3) 
3

>  <SMILES>  (3) 
O=C1/C(=C\c2cccc(C(F)(F)F)c2)CCc2ccccc21

>  <Energy>  (3) 
49.96396998067981

>  <Genealogy>  (3) 
O=C1/C(=C\c2cccc(C(F)(F)F)c2)CCc2ccccc21 (cis-trans isomerization)
O=C1/C(=C\c2cccc(C(F)(F)F)c2)CCc2ccccc21 (3D coordinates assigned)
O=C1/C(=C\c2cccc(C(F)(F)F)c2)CCc2ccccc21 (nonaromatic ring conformer: 49.96396998067981 kcal/mol)

>  <smiles>  (3) 
O=C1C(=Cc2cccc(C(F)(F)F)c2)CCc2ccccc21

>  <score_type>  (3) 
oracle

>  <origin>  (3) 
adg

>  <m_score__min__energy>  (3) 
-7.9100000000000001

>  <m_primary>  (3) 
energy

$$$$
3:0
     RDKit          3D

 42 44  0  0  0  0  0  0  0  0999 V2000
   55.1540   23.3350   48.2270 C   0  0  0  0  0  0  0  0  0  0  0  0
   56.1370   23.0750   47.1630 N   0  0  0  0  0  0  0  0  0  0  0  0
   57.0030   22.0150   47.2690 C   0  0  0  0  0  0  0  0  0  0  0  0
   56.9620   21.2500   48.2720 O   0  0  0  0  0  0  0  0  0  0  0  0
   57.8980   21.7800   46.3210 O   0  0  0  0  0  0  0  0  0  0  0  0
   57.9920   22.5340   45.2360 C   0  0  0  0  0  0  0  0  0  0  0  0
   57.1330   23.6200   45.0430 C   0  0  0  0  0  0  0  0  0  0  0  0
   57.2310   24.4700   43.7820 C   0  0  0  0  0  0  0  0  0  0  0  0
   57.4530   25.9200   44.0300 N   0  0  0  0  0  0  0  0  0  0  0  0
   57.7830   26.6600   42.7920 C   0  0  0  0  0  0  0  0  0  0  0  0
   57.7160   28.1730   43.0440 C   0  0  0  0  0  0  0  0  0  0  0  0
   58.3400   28.5170   44.3270 N   0  0  0  0  0  0  0  0  0  0  0  0
   58.2460   29.8580   44.8440 C   0  0  0  0  0  0  0  0  0  0  0  0
   57.4630   30.8270   44.1900 C   0  0  0  0  0  0  0  0  0  0  0  0
   57.4120   32.1410   44.6740 C   0  0  0  0  0  0  0  0  0  0  0  0
   58.1190   32.4920   45.8270 C   0  0  0  0  0  0  0  0  0  0  0  0
   58.0390   34.1330   46.4420 Cl  0  0  0  0  0  0  0  0  0  0  0  0
   58.8860   31.5280   46.4920 C   0  0  0  0  0  0  0  0  0  0  0  0
   58.9510   30.2180   46.0040 C   0  0  0  0  0  0  0  0  0  0  0  0
   59.1650   27.5190   45.0110 C   0  0  0  0  0  0  0  0  0  0  0  0
   58.4200   26.1760   45.1370 C   0  0  0  0  0  0  0  0  0  0  0  0
   56.2300   23.9100   46.0790 C   0  0  0  0  0  0  0  0  0  0  0  0
   55.5100   24.9450   46.0110 O   0  0  0  0  0  0  0  0  0  0  0  0
   55.6339   23.2081   49.2086 H   0  0  0  0  0  0  0  0  0  0  0  0
   54.7763   24.3639   48.1338 H   0  0  0  0  0  0  0  0  0  0  0  0
   54.3170   22.6273   48.1338 H   0  0  0  0  0  0  0  0  0  0  0  0
   58.7549   22.3030   44.4779 H   0  0  0  0  0  0  0  0  0  0  0  0
   58.0692   24.0927   43.1778 H   0  0  0  0  0  0  0  0  0  0  0  0
   56.2601   24.3853   43.2719 H   0  0  0  0  0  0  0  0  0  0  0  0
   56.5250   26.2880   44.3540 H   0  0  0  0  0  0  0  0  0  0  0  0
   58.7989   26.3904   42.4676 H   0  0  0  0  0  0  0  0  0  0  0  0
   57.0559   26.3940   42.0106 H   0  0  0  0  0  0  0  0  0  0  0  0
   58.2447   28.6970   42.2341 H   0  0  0  0  0  0  0  0  0  0  0  0
   56.6597   28.4786   43.0731 H   0  0  0  0  0  0  0  0  0  0  0  0
   56.8877   30.5515   43.2938 H   0  0  0  0  0  0  0  0  0  0  0  0
   56.8141   32.8978   44.1451 H   0  0  0  0  0  0  0  0  0  0  0  0
   59.4400   31.8014   47.4021 H   0  0  0  0  0  0  0  0  0  0  0  0
   59.5571   29.4668   46.5315 H   0  0  0  0  0  0  0  0  0  0  0  0
   60.0907   27.3639   44.4375 H   0  0  0  0  0  0  0  0  0  0  0  0
   59.3938   27.8880   46.0217 H   0  0  0  0  0  0  0  0  0  0  0  0
   59.1637   25.3656   45.1427 H   0  0  0  0  0  0  0  0  0  0  0  0
   57.8375   26.2179   46.0692 H   0  0  0  0  0  0  0  0  0  0  0  0
  1  2  1  0
  2  3  1  0
  3  4  2  0
  3  5  1  0
  5  6  1  0
  6  7  2  0
  7  8  1  0
  8  9  1  0
  9 10  1  0
 10 11  1  0
 11 12  1  0
 12 13  1  0
 13 14  2  0
 14 15  1  0
 15 16  2  0
 16 17  1  0
 16 18  1  0
 18 19  2  0
 12 20  1  0
 20 21  1  0
  7 22  1  0
 22 23  2  0
 22  2  1  0
 21  9  1  0
 19 13  1  0
  1 24  1  0
  1 25  1  0
  1 26  1  0
  6 27  1  0
  8 28  1  0
  8 29  1  0
  9 30  1  0
 10 31  1  0
 10 32  1  0
 11 33  1  0
 11 34  1  0
 14 35  1  0
 15 36  1  0
 18 37  1  0
 19 38  1  0
 20 39  1  0
 20 40  1  0
 21 41  1  0
 21 42  1  0
M  CHG  1   9   1
M  END
>  <UniqueID>  (4) 
4

>  <SMILES>  (4) 
Cn1c(=O)occ(C[NH+]2CCN(c3ccc(Cl)cc3)CC2)c1=O

>  <Energy>  (4) 
63.67021557730929

>  <Genealogy>  (4) 
Cn1c(=O)occ(C[NH+]2CCN(c3ccc(Cl)cc3)CC2)c1=O (protonated)
Cn1c(=O)occ(C[NH+]2CCN(c3ccc(Cl)cc3)CC2)c1=O (3D coordinates assigned)
Cn1c(=O)occ(C[NH+]2CCN(c3ccc(Cl)cc3)CC2)c1=O (nonaromatic ring conformer: 63.67021557730929 kcal/mol)

>  <smiles>  (4) 
Cn1c(=O)occ(CN2CCN(c3ccc(Cl)cc3)CC2)c1=O

>  <score_type>  (4) 
oracle

>  <origin>  (4) 
adg

>  <m_score__min__energy>  (4) 
-5.1799999999999997

>  <m_primary>  (4) 
energy

$$$$
4:0
     RDKit          3D

 49 52  0  0  0  0  0  0  0  0999 V2000
   56.8520   28.5440   45.3540 O   0  0  0  0  0  0  0  0  0  0  0  0
   57.8150   27.8820   45.8300 C   0  0  0  0  0  0  0  0  0  0  0  0
   57.6530   26.3820   45.9740 C   0  0  2  0  0  0  0  0  0  0  0  0
   57.4630   25.6730   44.6540 C   0  0  0  0  0  0  0  0  0  0  0  0
   56.2640   24.7770   44.8960 C   0  0  0  0  0  0  0  0  0  0  0  0
   55.5280   25.2850   45.9820 O   0  0  0  0  0  0  0  0  0  0  0  0
   56.4430   25.9640   46.8080 C   0  0  0  0  0  0  0  0  0  0  0  0
   59.0270   28.5740   46.1930 N   0  0  0  0  0  0  0  0  0  0  0  0
   59.5840   29.5790   45.2760 C   0  0  0  0  0  0  0  0  0  0  0  0
   59.7360   30.9320   45.9860 C   0  0  0  0  0  0  0  0  0  0  0  0
   60.2860   30.8080   47.4360 C   0  0  0  0  0  0  0  0  0  0  0  0
   61.3840   31.8220   47.7220 C   0  0  0  0  0  0  0  0  0  0  0  0
   62.7370   31.4340   47.6730 C   0  0  0  0  0  0  0  0  0  0  0  0
   63.7450   32.3560   47.9520 C   0  0  0  0  0  0  0  0  0  0  0  0
   63.4000   33.6640   48.2860 C   0  0  0  0  0  0  0  0  0  0  0  0
   62.0940   34.0280   48.3440 N   0  0  0  0  0  0  0  0  0  0  0  0
   61.0820   33.1520   48.0870 C   0  0  0  0  0  0  0  0  0  0  0  0
   59.7470   33.5760   48.1520 O   0  0  0  0  0  0  0  0  0  0  0  0
   58.8970   33.7580   47.0520 C   0  0  0  0  0  0  0  0  0  0  0  0
   59.2930   34.4520   45.8960 C   0  0  0  0  0  0  0  0  0  0  0  0
   58.3960   34.6160   44.8390 C   0  0  0  0  0  0  0  0  0  0  0  0
   57.1050   34.0970   44.9510 C   0  0  0  0  0  0  0  0  0  0  0  0
   56.7300   33.4450   46.0830 N   0  0  0  0  0  0  0  0  0  0  0  0
   57.5870   33.2710   47.1250 C   0  0  0  0  0  0  0  0  0  0  0  0
   60.7690   29.3820   47.7720 C   0  0  0  0  0  0  0  0  0  0  0  0
   59.6460   28.3690   47.5120 C   0  0  0  0  0  0  0  0  0  0  0  0
   58.5946   26.0955   46.4653 H   0  0  0  0  0  0  0  0  0  0  0  0
   57.2582   26.3930   43.8480 H   0  0  0  0  0  0  0  0  0  0  0  0
   58.3561   25.1137   44.3383 H   0  0  0  0  0  0  0  0  0  0  0  0
   55.6302   24.7574   43.9972 H   0  0  0  0  0  0  0  0  0  0  0  0
   56.6018   23.7544   45.1201 H   0  0  0  0  0  0  0  0  0  0  0  0
   55.9626   26.8572   47.2338 H   0  0  0  0  0  0  0  0  0  0  0  0
   56.7664   25.3028   47.6255 H   0  0  0  0  0  0  0  0  0  0  0  0
   60.5706   29.2416   44.9257 H   0  0  0  0  0  0  0  0  0  0  0  0
   58.8991   29.7003   44.4238 H   0  0  0  0  0  0  0  0  0  0  0  0
   60.4282   31.5567   45.4023 H   0  0  0  0  0  0  0  0  0  0  0  0
   58.7329   31.3780   46.0552 H   0  0  0  0  0  0  0  0  0  0  0  0
   59.4336   31.0312   48.0946 H   0  0  0  0  0  0  0  0  0  0  0  0
   62.9999   30.3980   47.4132 H   0  0  0  0  0  0  0  0  0  0  0  0
   64.8018   32.0539   47.9089 H   0  0  0  0  0  0  0  0  0  0  0  0
   64.1866   34.4018   48.5027 H   0  0  0  0  0  0  0  0  0  0  0  0
   60.3096   34.8659   45.8240 H   0  0  0  0  0  0  0  0  0  0  0  0
   58.7034   35.1488   43.9271 H   0  0  0  0  0  0  0  0  0  0  0  0
   56.3909   34.2158   44.1228 H   0  0  0  0  0  0  0  0  0  0  0  0
   57.2486   32.7448   48.0297 H   0  0  0  0  0  0  0  0  0  0  0  0
   61.6358   29.1337   47.1419 H   0  0  0  0  0  0  0  0  0  0  0  0
   61.0531   29.3393   48.8338 H   0  0  0  0  0  0  0  0  0  0  0  0
   60.0646   27.3527   47.5559 H   0  0  0  0  0  0  0  0  0  0  0  0
   58.8719   28.5083   48.2810 H   0  0  0  0  0  0  0  0  0  0  0  0
  1  2  2  0
  2  3  1  0
  3  4  1  0
  4  5  1  0
  5  6  1  0
  6  7  1  0
  2  8  1  0
  8  9  1  0
  9 10  1  0
 10 11  1  0
 11 12  1  0
 12 13  2  0
 13 14  1  0
 14 15  2  0
 15 16  1  0
 16 17  2  0
 17 18  1  0
 18 19  1  0
 19 20  2  0
 20 21  1  0
 21 22  2  0
 22 23  1  0
 23 24  2  0
 11 25  1  0
 25 26  1  0
  7  3  1  0
 26  8  1  0
 17 12  1  0
 24 19  1  0
  3 27  1  1
  4 28  1  0
  4 29  1  0
  5 30  1  0
  5 31  1  0
  7 32  1  0
  7 33  1  0
  9 34  1  0
  9 35  1  0
 10 36  1  0
 10 37  1  0
 11 38  1  0
 13 39  1  0
 14 40  1  0
 15 41  1  0
 20 42  1  0
 21 43  1  0
 22 44  1  0
 24 45  1  0
 25 46  1  0
 25 47  1  0
 26 48  1  0
 26 49  1  0
M  END
>  <UniqueID>  (5) 
5

>  <SMILES>  (5) 
O=C([C@@H]1CCOC1)N1CCC(c2cccnc2Oc2cccnc2)CC1

>  <Energy>  (5) 
66.8976536559419

>  <Genealogy>  (5) 
O=C([C@@H]1CCOC1)N1CCC(c2cccnc2Oc2cccnc2)CC1 (chirality)
O=C([C@@H]1CCOC1)N1CCC(c2cccnc2Oc2cccnc2)CC1 (3D coordinates assigned)
O=C([C@@H]1CCOC1)N1CCC(c2cccnc2Oc2cccnc2)CC1 (nonaromatic ring conformer: 66.8976536559419 kcal/mol)

>  <smiles>  (5) 
O=C(C1CCOC1)N1CCC(c2cccnc2Oc2cccnc2)CC1

>  <score_type>  (5) 
oracle

>  <origin>  (5) 
adg

>  <m_score__min__energy>  (5) 
-7.96

>  <m_primary>  (5) 
energy

$$$$
5:0
     RDKit          3D

 47 50  0  0  0  0  0  0  0  0999 V2000
   61.6840   34.2060   49.8650 C   0  0  0  0  0  0  0  0  0  0  0  0
   61.4050   34.3880   48.4810 O   0  0  0  0  0  0  0  0  0  0  0  0
   60.7120   33.4650   47.6810 C   0  0  0  0  0  0  0  0  0  0  0  0
   59.5420   33.8130   46.9820 C   0  0  0  0  0  0  0  0  0  0  0  0
   58.8800   32.8670   46.1880 C   0  0  0  0  0  0  0  0  0  0  0  0
   59.3500   31.5440   46.1200 C   0  0  0  0  0  0  0  0  0  0  0  0
   60.5380   31.2070   46.7970 C   0  0  0  0  0  0  0  0  0  0  0  0
   61.2160   32.1610   47.5810 C   0  0  0  0  0  0  0  0  0  0  0  0
   62.3980   31.8520   48.2740 O   0  0  0  0  0  0  0  0  0  0  0  0
   63.6960   32.3090   47.9060 C   0  0  0  0  0  0  0  0  0  0  0  0
   58.5880   30.5640   45.2870 C   0  0  0  0  0  0  0  0  0  0  0  0
   58.7220   29.1780   45.4890 C   0  0  0  0  0  0  0  0  0  0  0  0
   57.9940   28.2950   44.6870 C   0  0  0  0  0  0  0  0  0  0  0  0
   58.1040   26.8240   44.8480 C   0  0  0  0  0  0  0  0  0  0  0  0
   58.9590   26.2910   45.8280 C   0  0  0  0  0  0  0  0  0  0  0  0
   59.0620   24.9090   45.9790 C   0  0  0  0  0  0  0  0  0  0  0  0
   58.3240   24.0630   45.1500 C   0  0  0  0  0  0  0  0  0  0  0  0
   58.4440   22.2830   45.3340 S   0  0  0  0  0  0  0  0  0  0  0  0
   57.4900   21.9400   43.8230 C   0  0  0  0  0  0  0  0  0  0  0  0
   57.4900   24.6190   44.1790 C   0  0  0  0  0  0  0  0  0  0  0  0
   57.3980   25.9710   44.0430 N   0  0  0  0  0  0  0  0  0  0  0  0
   57.1830   28.8010   43.7240 N   0  0  0  0  0  0  0  0  0  0  0  0
   57.0300   30.1350   43.5410 C   0  0  0  0  0  0  0  0  0  0  0  0
   56.2670   30.5390   42.6230 O   0  0  0  0  0  0  0  0  0  0  0  0
   57.6990   31.0240   44.3430 N   0  0  0  0  0  0  0  0  0  0  0  0
   57.5410   32.4780   44.1290 C   0  0  0  0  0  0  0  0  0  0  0  0
   57.6250   33.2440   45.4520 C   0  0  0  0  0  0  0  0  0  0  0  0
   60.9114   34.7100   50.4642 H   0  0  0  0  0  0  0  0  0  0  0  0
   61.6874   33.1314   50.1001 H   0  0  0  0  0  0  0  0  0  0  0  0
   62.6688   34.6359   50.1001 H   0  0  0  0  0  0  0  0  0  0  0  0
   59.1437   34.8354   47.0592 H   0  0  0  0  0  0  0  0  0  0  0  0
   60.9412   30.1870   46.7126 H   0  0  0  0  0  0  0  0  0  0  0  0
   64.2828   32.5156   48.8132 H   0  0  0  0  0  0  0  0  0  0  0  0
   64.2020   31.5350   47.3103 H   0  0  0  0  0  0  0  0  0  0  0  0
   63.6055   33.2293   47.3103 H   0  0  0  0  0  0  0  0  0  0  0  0
   59.3934   28.7932   46.2707 H   0  0  0  0  0  0  0  0  0  0  0  0
   59.5448   26.9620   46.4735 H   0  0  0  0  0  0  0  0  0  0  0  0
   59.7234   24.4864   46.7497 H   0  0  0  0  0  0  0  0  0  0  0  0
   56.4873   21.5795   44.0963 H   0  0  0  0  0  0  0  0  0  0  0  0
   57.3991   22.8617   43.2296 H   0  0  0  0  0  0  0  0  0  0  0  0
   58.0068   21.1714   43.2296 H   0  0  0  0  0  0  0  0  0  0  0  0
   56.9038   23.9617   43.5199 H   0  0  0  0  0  0  0  0  0  0  0  0
   56.7900   26.3410   43.2790 H   0  0  0  0  0  0  0  0  0  0  0  0
   58.3386   32.8309   43.4587 H   0  0  0  0  0  0  0  0  0  0  0  0
   56.5518   32.6593   43.6834 H   0  0  0  0  0  0  0  0  0  0  0  0
   57.6342   34.3247   45.2468 H   0  0  0  0  0  0  0  0  0  0  0  0
   56.7532   32.9883   46.0722 H   0  0  0  0  0  0  0  0  0  0  0  0
  1  2  1  0
  2  3  1  0
  3  4  2  0
  4  5  1  0
  5  6  2  0
  6  7  1  0
  7  8  2  0
  8  9  1  0
  9 10  1  0
  6 11  1  0
 11 12  2  0
 12 13  1  0
 13 14  1  0
 14 15  2  0
 15 16  1  0
 16 17  2  0
 17 18  1  0
 18 19  1  0
 17 20  1  0
 20 21  2  0
 13 22  2  0
 22 23  1  0
 23 24  2  0
 23 25  1  0
 25 26  1  0
 26 27  1  0
  8  3  1  0
 25 11  1  0
 27  5  1  0
 21 14  1  0
  1 28  1  0
  1 29  1  0
  1 30  1  0
  4 31  1  0
  7 32  1  0
 10 33  1  0
 10 34  1  0
 10 35  1  0
 12 36  1  0
 15 37  1  0
 16 38  1  0
 19 39  1  0
 19 40  1  0
 19 41  1  0
 20 42  1  0
 21 43  1  0
 26 44  1  0
 26 45  1  0
 27 46  1  0
 27 47  1  0
M  CHG  1  21   1
M  END
>  <UniqueID>  (6) 
6

>  <SMILES>  (6) 
COc1cc2c(cc1OC)-c1cc(-c3ccc(SC)c[nH+]3)nc(=O)n1CC2

>  <Energy>  (6) 
58.30277672713166

>  <Genealogy>  (6) 
COc1cc2c(cc1OC)-c1cc(-c3ccc(SC)c[nH+]3)nc(=O)n1CC2 (protonated)
COc1cc2c(cc1OC)-c1cc(-c3ccc(SC)c[nH+]3)nc(=O)n1CC2 (3D coordinates assigned)
COc1cc2c(cc1OC)-c1cc(-c3ccc(SC)c[nH+]3)nc(=O)n1CC2 (nonaromatic ring conformer: 58.30277672713166 kcal/mol)

>  <smiles>  (6) 
COc1cc2c(cc1OC)-c1cc(-c3ccc(SC)cn3)nc(=O)n1CC2

>  <score_type>  (6) 
oracle

>  <origin>  (6) 
adg

>  <m_score__min__energy>  (6) 
-6.4199999999999999

>  <m_primary>  (6) 
energy

$$$$
6:0
     RDKit          3D

 50 54  0  0  0  0  0  0  0  0999 V2000
   59.3210   27.3990   44.0760 F   0  0  0  0  0  0  0  0  0  0  0  0
   58.9840   28.5770   44.7130 C   0  0  0  0  0  0  0  0  0  0  0  0
   58.6520   28.2940   46.0250 F   0  0  0  0  0  0  0  0  0  0  0  0
   60.0690   29.4330   44.7110 F   0  0  0  0  0  0  0  0  0  0  0  0
   57.8110   29.2100   44.0210 C   0  0  0  0  0  0  0  0  0  0  0  0
   57.0680   28.5730   43.0920 N   0  0  0  0  0  0  0  0  0  0  0  0
   56.1240   29.4420   42.7670 N   0  0  0  0  0  0  0  0  0  0  0  0
   56.2600   30.5690   43.4480 N   0  0  0  0  0  0  0  0  0  0  0  0
   57.3190   30.4540   44.2310 N   0  0  0  0  0  0  0  0  0  0  0  0
   57.7630   31.4820   45.1300 C   0  0  0  0  0  0  0  0  0  0  0  0
   57.5430   32.8380   44.8430 C   0  0  0  0  0  0  0  0  0  0  0  0
   57.9770   33.8270   45.7290 C   0  0  0  0  0  0  0  0  0  0  0  0
   58.6330   33.4760   46.9190 C   0  0  0  0  0  0  0  0  0  0  0  0
   59.1140   34.5450   47.8650 C   0  0  0  0  0  0  0  0  0  0  0  0
   60.2910   34.0840   48.6130 N   0  0  0  0  0  0  0  0  0  0  0  0
   60.3900   33.8150   49.9460 C   0  0  0  0  0  0  0  0  0  0  0  0
   59.2770   33.9800   50.9430 C   0  0  0  0  0  0  0  0  0  0  0  0
   58.6050   32.6600   51.2020 C   0  0  0  0  0  0  0  0  0  0  0  0
   57.5910   32.5560   52.1700 C   0  0  0  0  0  0  0  0  0  0  0  0
   56.9870   31.3220   52.4300 C   0  0  0  0  0  0  0  0  0  0  0  0
   57.3940   30.1830   51.7310 C   0  0  0  0  0  0  0  0  0  0  0  0
   58.4090   30.2740   50.7760 C   0  0  0  0  0  0  0  0  0  0  0  0
   59.0180   31.5050   50.5150 C   0  0  0  0  0  0  0  0  0  0  0  0
   61.6280   33.3890   50.3170 N   0  0  0  0  0  0  0  0  0  0  0  0
   62.3090   33.3800   49.1580 C   0  0  0  0  0  0  0  0  0  0  0  0
   63.6360   33.0040   48.9610 C   0  0  0  0  0  0  0  0  0  0  0  0
   64.1440   33.0580   47.6500 C   0  0  0  0  0  0  0  0  0  0  0  0
   63.3220   33.4790   46.5810 C   0  0  0  0  0  0  0  0  0  0  0  0
   61.9850   33.8520   46.8140 C   0  0  0  0  0  0  0  0  0  0  0  0
   61.5130   33.7910   48.1290 C   0  0  0  0  0  0  0  0  0  0  0  0
   58.8130   32.1190   47.2270 C   0  0  0  0  0  0  0  0  0  0  0  0
   58.3780   31.1300   46.3400 C   0  0  0  0  0  0  0  0  0  0  0  0
   55.3700   29.2620   42.0690 H   0  0  0  0  0  0  0  0  0  0  0  0
   57.0259   33.1237   43.9151 H   0  0  0  0  0  0  0  0  0  0  0  0
   57.8035   34.8872   45.4925 H   0  0  0  0  0  0  0  0  0  0  0  0
   59.3810   35.4434   47.2892 H   0  0  0  0  0  0  0  0  0  0  0  0
   58.3089   34.7747   48.5784 H   0  0  0  0  0  0  0  0  0  0  0  0
   59.6897   34.3677   51.8860 H   0  0  0  0  0  0  0  0  0  0  0  0
   58.5358   34.6840   50.5369 H   0  0  0  0  0  0  0  0  0  0  0  0
   57.2711   33.4498   52.7257 H   0  0  0  0  0  0  0  0  0  0  0  0
   56.1908   31.2480   53.1854 H   0  0  0  0  0  0  0  0  0  0  0  0
   56.9147   29.2137   51.9329 H   0  0  0  0  0  0  0  0  0  0  0  0
   58.7298   29.3756   50.2283 H   0  0  0  0  0  0  0  0  0  0  0  0
   59.8237   31.5702   49.7690 H   0  0  0  0  0  0  0  0  0  0  0  0
   64.2651   32.6761   49.8017 H   0  0  0  0  0  0  0  0  0  0  0  0
   65.1879   32.7705   47.4562 H   0  0  0  0  0  0  0  0  0  0  0  0
   63.7295   33.5155   45.5599 H   0  0  0  0  0  0  0  0  0  0  0  0
   61.3339   34.1801   45.9903 H   0  0  0  0  0  0  0  0  0  0  0  0
   59.2989   31.8319   48.1712 H   0  0  0  0  0  0  0  0  0  0  0  0
   58.5191   30.0688   46.5929 H   0  0  0  0  0  0  0  0  0  0  0  0
  1  2  1  0
  2  3  1  0
  2  4  1  0
  2  5  1  0
  5  6  2  0
  6  7  1  0
  7  8  2  0
  8  9  1  0
  9 10  1  0
 10 11  2  0
 11 12  1  0
 12 13  2  0
 13 14  1  0
 14 15  1  0
 15 16  1  0
 16 17  1  0
 17 18  1  0
 18 19  2  0
 19 20  1  0
 20 21  2  0
 21 22  1  0
 22 23  2  0
 16 24  2  0
 24 25  1  0
 25 26  2  0
 26 27  1  0
 27 28  2  0
 28 29  1  0
 29 30  2  0
 13 31  1  0
 31 32  2  0
  9  5  1  0
 32 10  1  0
 30 15  1  0
 23 18  1  0
 30 25  1  0
  7 33  1  0
 11 34  1  0
 12 35  1  0
 14 36  1  0
 14 37  1  0
 17 38  1  0
 17 39  1  0
 19 40  1  0
 20 41  1  0
 21 42  1  0
 22 43  1  0
 23 44  1  0
 26 45  1  0
 27 46  1  0
 28 47  1  0
 29 48  1  0
 31 49  1  0
 32 50  1  0
M  CHG  1   7   1
M  END
>  <UniqueID>  (7) 
7

>  <SMILES>  (7) 
FC(F)(F)c1n[nH+]nn1-c1ccc(Cn2c(Cc3ccccc3)nc3ccccc32)cc1

>  <Energy>  (7) 
135.20192082464047

>  <Genealogy>  (7) 
FC(F)(F)c1n[nH+]nn1-c1ccc(Cn2c(Cc3ccccc3)nc3ccccc32)cc1 (protonated)
FC(F)(F)c1n[nH+]nn1-c1ccc(Cn2c(Cc3ccccc3)nc3ccccc32)cc1 (3D coordinates assigned)
FC(F)(F)c1n[nH+]nn1-c1ccc(Cn2c(Cc3ccccc3)nc3ccccc32)cc1 (optimized conformer: 135.20192082464047 kcal/mol)

>  <smiles>  (7) 
FC(F)(F)c1nnnn1-c1ccc(Cn2c(Cc3ccccc3)nc3ccccc32)cc1

>  <score_type>  (7) 
oracle

>  <origin>  (7) 
adg

>  <m_score__min__energy>  (7) 
-8.1999999999999993

>  <m_primary>  (7) 
energy

$$$$
7:0
     RDKit          3D

 29 31  0  0  0  0  0  0  0  0999 V2000
   58.9067   33.7982   43.4592 H   0  0  0  0  0  0  0  0  0  0  0  0
   58.3920   32.8870   43.7980 C   0  0  0  0  0  0  0  0  0  0  0  0
   57.7300   32.1090   42.9020 N   0  0  0  0  0  0  0  0  0  0  0  0
   57.0880   30.9710   43.2810 C   0  0  0  0  0  0  0  0  0  0  0  0
   56.5561   30.3671   42.5311 H   0  0  0  0  0  0  0  0  0  0  0  0
   57.1010   30.5630   44.6260 C   0  0  0  0  0  0  0  0  0  0  0  0
   56.3900   29.3380   45.0630 C   0  0  0  0  0  0  0  0  0  0  0  0
   55.1530   29.2370   44.8480 O   0  0  0  0  0  0  0  0  0  0  0  0
   57.0710   28.2320   45.6750 N   0  0  0  0  0  0  0  0  0  0  0  0
   56.6900   26.9900   45.6260 C   0  0  0  0  0  0  0  0  0  0  0  0
   55.6220   26.4890   46.2780 N   0  0  0  0  0  0  0  0  0  0  0  0
   55.5700   25.2070   45.9510 N   0  0  0  0  0  0  0  0  0  0  0  0
   56.6030   24.9820   45.1130 C   0  0  0  0  0  0  0  0  0  0  0  0
   56.9170   23.6740   44.5060 C   0  0  0  0  0  0  0  0  0  0  0  0
   56.2510   23.2510   43.3480 C   0  0  0  0  0  0  0  0  0  0  0  0
   55.4897   23.8962   42.8852 H   0  0  0  0  0  0  0  0  0  0  0  0
   56.5530   22.0110   42.7810 C   0  0  0  0  0  0  0  0  0  0  0  0
   56.0326   21.6742   41.8723 H   0  0  0  0  0  0  0  0  0  0  0  0
   57.5220   21.2030   43.3790 C   0  0  0  0  0  0  0  0  0  0  0  0
   57.7673   20.2242   42.9410 H   0  0  0  0  0  0  0  0  0  0  0  0
   58.1630   21.6240   44.5020 N   0  0  0  0  0  0  0  0  0  0  0  0
   58.8850   21.0070   44.9380 H   0  0  0  0  0  0  0  0  0  0  0  0
   57.8840   22.8280   45.0730 C   0  0  0  0  0  0  0  0  0  0  0  0
   58.4184   23.1396   45.9826 H   0  0  0  0  0  0  0  0  0  0  0  0
   57.2950   26.0800   44.9070 O   0  0  0  0  0  0  0  0  0  0  0  0
   57.7670   31.3700   45.5620 C   0  0  0  0  0  0  0  0  0  0  0  0
   57.7743   31.0861   46.6247 H   0  0  0  0  0  0  0  0  0  0  0  0
   58.4200   32.5320   45.1470 C   0  0  0  0  0  0  0  0  0  0  0  0
   58.9512   33.1613   45.8762 H   0  0  0  0  0  0  0  0  0  0  0  0
  1  2  1  0
  2  3  2  0
  3  4  1  0
  4  5  1  0
  4  6  2  0
  6  7  1  0
  7  8  2  0
  7  9  1  0
  9 10  2  0
 10 11  1  0
 11 12  1  0
 12 13  2  0
 13 14  1  0
 14 15  2  0
 15 16  1  0
 15 17  1  0
 17 18  1  0
 17 19  2  0
 19 20  1  0
 19 21  1  0
 21 22  1  0
 21 23  2  0
 23 24  1  0
 13 25  1  0
  6 26  1  0
 26 27  1  0
 26 28  2  0
 28 29  1  0
 28  2  1  0
 25 10  1  0
 23 14  1  0
M  CHG  2  11  -1  21   1
M  END
>  <UniqueID>  (8) 
8

>  <SMILES>  (8) 
O=C(/N=c1\[n-]nc(-c2ccc[nH+]c2)o1)c1cccnc1

>  <Energy>  (8) 
75.80506206580183

>  <Genealogy>  (8) 
O=C(N=c1[n-]nc(-c2ccc[nH+]c2)o1)c1cccnc1 (protonated)
O=C(/N=c1\[n-]nc(-c2ccc[nH+]c2)o1)c1cccnc1 (cis-trans isomerization)
O=C(/N=c1\[n-]nc(-c2ccc[nH+]c2)o1)c1cccnc1 (3D coordinates assigned)
O=C(/N=c1\[n-]nc(-c2ccc[nH+]c2)o1)c1cccnc1 (optimized conformer: 75.80506206580183 kcal/mol)

>  <smiles>  (8) 
O=C(N=c1[nH]nc(-c2cccnc2)o1)c1cccnc1

>  <score_type>  (8) 
oracle

>  <origin>  (8) 
adg

>  <m_score__min__energy>  (8) 
-8.1600000000000001

>  <m_primary>  (8) 
energy

$$$$
8:0
     RDKit          3D

 32 35  0  0  0  0  0  0  0  0999 V2000
   60.4230   28.7920   44.8810 C   0  0  0  0  0  0  0  0  0  0  0  0
   59.9200   29.0520   46.2270 N   0  0  0  0  0  0  0  0  0  0  0  0
   60.0670   28.2000   47.2280 N   0  0  0  0  0  0  0  0  0  0  0  0
   59.4540   28.7230   48.3080 C   0  0  0  0  0  0  0  0  0  0  0  0
   58.8980   29.9440   47.9810 C   0  0  0  0  0  0  0  0  0  0  0  0
   59.2280   30.1290   46.6550 C   0  0  0  0  0  0  0  0  0  0  0  0
   58.8480   31.2950   45.8380 C   0  0  0  0  0  0  0  0  0  0  0  0
   58.0340   31.3300   44.7000 C   0  0  0  0  0  0  0  0  0  0  0  0
   57.4150   30.1230   44.0360 C   0  0  0  0  0  0  0  0  0  0  0  0
   56.6360   30.3560   42.7500 C   0  0  0  0  0  0  0  0  0  0  0  0
   55.8950   30.0920   44.0530 C   0  0  0  0  0  0  0  0  0  0  0  0
   57.9430   32.6120   44.2610 N   0  0  0  0  0  0  0  0  0  0  0  0
   58.6770   33.3580   45.0650 N   0  0  0  0  0  0  0  0  0  0  0  0
   58.8460   34.6750   44.9660 N   0  0  0  0  0  0  0  0  0  0  0  0
   59.6340   35.3140   45.8770 C   0  0  0  0  0  0  0  0  0  0  0  0
   60.2510   34.5780   46.9070 C   0  0  0  0  0  0  0  0  0  0  0  0
   60.0530   33.1910   46.9870 C   0  0  0  0  0  0  0  0  0  0  0  0
   59.2430   32.6090   46.0180 C   0  0  0  0  0  0  0  0  0  0  0  0
   61.3985   28.2878   44.9452 H   0  0  0  0  0  0  0  0  0  0  0  0
   59.7123   28.1483   44.3419 H   0  0  0  0  0  0  0  0  0  0  0  0
   60.5371   29.7441   44.3419 H   0  0  0  0  0  0  0  0  0  0  0  0
   59.4041   28.2493   49.2995 H   0  0  0  0  0  0  0  0  0  0  0  0
   58.3214   30.6176   48.6320 H   0  0  0  0  0  0  0  0  0  0  0  0
   58.2252   29.4378   44.3260 H   0  0  0  0  0  0  0  0  0  0  0  0
   56.6107   31.3576   42.2959 H   0  0  0  0  0  0  0  0  0  0  0  0
   56.6343   29.9019   41.7481 H   0  0  0  0  0  0  0  0  0  0  0  0
   55.3338   30.9028   44.5405 H   0  0  0  0  0  0  0  0  0  0  0  0
   55.1355   29.3679   44.3829 H   0  0  0  0  0  0  0  0  0  0  0  0
   57.4030   32.9770   43.4450 H   0  0  0  0  0  0  0  0  0  0  0  0
   59.7873   36.4011   45.8076 H   0  0  0  0  0  0  0  0  0  0  0  0
   60.8859   35.0885   47.6462 H   0  0  0  0  0  0  0  0  0  0  0  0
   60.5185   32.5900   47.7820 H   0  0  0  0  0  0  0  0  0  0  0  0
  1  2  1  0
  2  3  1  0
  3  4  2  0
  4  5  1  0
  5  6  2  0
  6  7  1  0
  7  8  1  0
  8  9  1  0
  9 10  1  0
 10 11  1  0
  8 12  2  0
 12 13  1  0
 13 14  1  0
 14 15  2  0
 15 16  1  0
 16 17  2  0
 17 18  1  0
  6  2  1  0
 18  7  2  0
 11  9  1  0
 18 13  1  0
  1 19  1  0
  1 20  1  0
  1 21  1  0
  4 22  1  0
  5 23  1  0
  9 24  1  0
 10 25  1  0
 10 26  1  0
 11 27  1  0
 11 28  1  0
 12 29  1  0
 15 30  1  0
 16 31  1  0
 17 32  1  0
M  CHG  1  12   1
M  END
>  <UniqueID>  (9) 
9

>  <SMILES>  (9) 
Cn1nccc1-c1c(C2CC2)[nH+]n2ncccc12

>  <Energy>  (9) 
372.7819108621277

>  <Genealogy>  (9) 
Cn1nccc1-c1c(C2CC2)[nH+]n2ncccc12 (protonated)
Cn1nccc1-c1c(C2CC2)[nH+]n2ncccc12 (3D coordinates assigned)
Cn1nccc1-c1c(C2CC2)[nH+]n2ncccc12 (nonaromatic ring conformer: 372.7819108621277 kcal/mol)

>  <smiles>  (9) 
Cn1nccc1-c1c(C2CC2)nn2ncccc12

>  <score_type>  (9) 
oracle

>  <origin>  (9) 
adg

>  <m_score__min__energy>  (9) 
-5.1500000000000004

>  <m_primary>  (9) 
energy

$$$$
9:0
     RDKit          3D

 63 67  0  0  0  0  0  0  0  0999 V2000
   64.4386   32.1137   47.8466 H   0  0  0  0  0  0  0  0  0  0  0  0
   63.4190   32.3690   48.1710 C   0  0  0  0  0  0  0  0  0  0  0  0
   62.3180   31.8950   47.4520 C   0  0  0  0  0  0  0  0  0  0  0  0
   62.4722   31.2672   46.5620 H   0  0  0  0  0  0  0  0  0  0  0  0
   61.0160   32.2190   47.8640 C   0  0  0  0  0  0  0  0  0  0  0  0
   59.8820   31.7450   47.1130 N   0  0  0  0  0  0  0  0  0  0  0  0
   59.4720   30.4370   47.2410 C   0  0  0  0  0  0  0  0  0  0  0  0
   60.1190   29.5050   48.0710 C   0  0  0  0  0  0  0  0  0  0  0  0
   60.9991   29.8180   48.6519 H   0  0  0  0  0  0  0  0  0  0  0  0
   59.6580   28.1720   48.1720 C   0  0  0  0  0  0  0  0  0  0  0  0
   60.2600   27.3020   48.9410 N   0  0  0  0  0  0  0  0  0  0  0  0
   61.1500   27.5950   50.0630 C   0  0  0  0  0  0  0  0  0  0  0  0
   61.8410   28.4032   49.7814 H   0  0  0  0  0  0  0  0  0  0  0  0
   61.7251   26.6931   50.3196 H   0  0  0  0  0  0  0  0  0  0  0  0
   60.3200   28.0320   51.2730 C   0  0  0  0  0  0  0  0  0  0  0  0
   60.8799   27.7876   52.1877 H   0  0  0  0  0  0  0  0  0  0  0  0
   59.3599   27.4976   51.2211 H   0  0  0  0  0  0  0  0  0  0  0  0
   60.0040   29.5440   51.2800 C   0  0  0  0  0  0  0  0  0  0  0  0
   60.6338   30.0309   50.5209 H   0  0  0  0  0  0  0  0  0  0  0  0
   60.2076   29.9032   52.2996 H   0  0  0  0  0  0  0  0  0  0  0  0
   58.5870   29.8740   50.9890 N   0  0  0  0  0  0  0  0  0  0  0  0
   58.2230   29.2460   50.2370 H   0  0  0  0  0  0  0  0  0  0  0  0
   58.4990   31.2550   50.4810 C   0  0  0  0  0  0  0  0  0  0  0  0
   58.4544   31.9552   51.3282 H   0  0  0  0  0  0  0  0  0  0  0  0
   59.3848   31.4773   49.8679 H   0  0  0  0  0  0  0  0  0  0  0  0
   57.5921   31.3631   49.8679 H   0  0  0  0  0  0  0  0  0  0  0  0
   57.7310   29.7330   52.1830 C   0  0  0  0  0  0  0  0  0  0  0  0
   58.3462   29.8343   53.0892 H   0  0  0  0  0  0  0  0  0  0  0  0
   56.9584   30.5160   52.1748 H   0  0  0  0  0  0  0  0  0  0  0  0
   57.2504   28.7436   52.1748 H   0  0  0  0  0  0  0  0  0  0  0  0
   58.5210   27.7540   47.4410 C   0  0  0  0  0  0  0  0  0  0  0  0
   58.1260   26.5120   47.5570 N   0  0  0  0  0  0  0  0  0  0  0  0
   57.6770   25.6280   46.5180 C   0  0  0  0  0  0  0  0  0  0  0  0
   56.3180   25.5500   46.1630 C   0  0  0  0  0  0  0  0  0  0  0  0
   55.5848   26.2069   46.6539 H   0  0  0  0  0  0  0  0  0  0  0  0
   55.8960   24.6410   45.1890 C   0  0  0  0  0  0  0  0  0  0  0  0
   54.8353   24.5969   44.9010 H   0  0  0  0  0  0  0  0  0  0  0  0
   56.8220   23.7870   44.5800 C   0  0  0  0  0  0  0  0  0  0  0  0
   56.2910   22.6430   43.3610 Cl  0  0  0  0  0  0  0  0  0  0  0  0
   58.1690   23.8360   44.9550 C   0  0  0  0  0  0  0  0  0  0  0  0
   58.8958   23.1583   44.4834 H   0  0  0  0  0  0  0  0  0  0  0  0
   58.5920   24.7460   45.9290 C   0  0  0  0  0  0  0  0  0  0  0  0
   59.6486   24.7693   46.2341 H   0  0  0  0  0  0  0  0  0  0  0  0
   57.8670   28.6610   46.5800 C   0  0  0  0  0  0  0  0  0  0  0  0
   57.0009   28.3239   45.9916 H   0  0  0  0  0  0  0  0  0  0  0  0
   58.3050   29.9760   46.4670 C   0  0  0  0  0  0  0  0  0  0  0  0
   57.6740   30.8420   45.6450 N   0  0  0  0  0  0  0  0  0  0  0  0
   58.0870   32.1270   45.5220 C   0  0  0  0  0  0  0  0  0  0  0  0
   57.3960   32.9830   44.6570 C   0  0  0  0  0  0  0  0  0  0  0  0
   56.5333   32.6063   44.0879 H   0  0  0  0  0  0  0  0  0  0  0  0
   57.7960   34.3120   44.5130 C   0  0  0  0  0  0  0  0  0  0  0  0
   57.2491   34.9802   43.8315 H   0  0  0  0  0  0  0  0  0  0  0  0
   58.8890   34.7930   45.2330 C   0  0  0  0  0  0  0  0  0  0  0  0
   59.2007   35.8416   45.1179 H   0  0  0  0  0  0  0  0  0  0  0  0
   59.5900   33.9520   46.0990 C   0  0  0  0  0  0  0  0  0  0  0  0
   60.4512   34.3441   46.6599 H   0  0  0  0  0  0  0  0  0  0  0  0
   59.2040   32.5990   46.2630 C   0  0  0  0  0  0  0  0  0  0  0  0
   60.8260   33.0210   48.9990 C   0  0  0  0  0  0  0  0  0  0  0  0
   59.8075   33.2790   49.3248 H   0  0  0  0  0  0  0  0  0  0  0  0
   61.9290   33.4930   49.7170 C   0  0  0  0  0  0  0  0  0  0  0  0
   61.7775   34.1202   50.6079 H   0  0  0  0  0  0  0  0  0  0  0  0
   63.2250   33.1680   49.3030 C   0  0  0  0  0  0  0  0  0  0  0  0
   64.2940   33.6290   49.9990 F   0  0  0  0  0  0  0  0  0  0  0  0
  1  2  1  0
  2  3  2  0
  3  4  1  0
  3  5  1  0
  5  6  1  0
  6  7  1  0
  7  8  2  0
  8  9  1  0
  8 10  1  0
 10 11  2  0
 11 12  1  0
 12 13  1  0
 12 14  1  0
 12 15  1  0
 15 16  1  0
 15 17  1  0
 15 18  1  0
 18 19  1  0
 18 20  1  0
 18 21  1  0
 21 22  1  0
 21 23  1  0
 23 24  1  0
 23 25  1  0
 23 26  1  0
 21 27  1  0
 27 28  1  0
 27 29  1  0
 27 30  1  0
 10 31  1  0
 31 32  2  0
 32 33  1  0
 33 34  2  0
 34 35  1  0
 34 36  1  0
 36 37  1  0
 36 38  2  0
 38 39  1  0
 38 40  1  0
 40 41  1  0
 40 42  2  0
 42 43  1  0
 31 44  1  0
 44 45  1  0
 44 46  2  0
 46 47  1  0
 47 48  1  0
 48 49  2  0
 49 50  1  0
 49 51  1  0
 51 52  1  0
 51 53  2  0
 53 54  1  0
 53 55  1  0
 55 56  1  0
 55 57  2  0
  5 58  2  0
 58 59  1  0
 58 60  1  0
 60 61  1  0
 60 62  2  0
 62 63  1  0
 62  2  1  0
 57  6  1  0
 46  7  1  0
 57 48  1  0
 42 33  1  0
M  CHG  2  21   1  47  -1
M  END
>  <UniqueID>  (10) 
10

>  <SMILES>  (10) 
C[NH+](C)CCC/N=c1\cc2n(-c3ccc(F)cc3)c3ccccc3[n-]c-2c\c1=N/c1ccc(Cl)cc1

>  <Energy>  (10) 
97.2275834544539

>  <Genealogy>  (10) 
C[NH+](C)CCCN=c1cc2n(-c3ccc(F)cc3)c3ccccc3[n-]c-2cc1=Nc1ccc(Cl)cc1 (protonated)
C[NH+](C)CCC/N=c1\cc2n(-c3ccc(F)cc3)c3ccccc3[n-]c-2c\c1=N/c1ccc(Cl)cc1 (cis-trans isomerization)
C[NH+](C)CCC/N=c1\cc2n(-c3ccc(F)cc3)c3ccccc3[n-]c-2c\c1=N/c1ccc(Cl)cc1 (3D coordinates assigned)
C[NH+](C)CCC/N=c1\cc2n(-c3ccc(F)cc3)c3ccccc3[n-]c-2c\c1=N/c1ccc(Cl)cc1 (optimized conformer: 97.2275834544539 kcal/mol)

>  <smiles>  (10) 
CN(C)CCCN=c1cc2n(-c3ccc(F)cc3)c3ccccc3[nH]c-2cc1=Nc1ccc(Cl)cc1

>  <score_type>  (10) 
oracle

>  <origin>  (10) 
adg

>  <m_score__min__energy>  (10) 
-8.2400000000000002

>  <m_primary>  (10) 
energy

$$$$
10:0
     RDKit          3D

 32 34  0  0  0  0  0  0  0  0999 V2000
   67.3480   34.3510   51.4680 C   0  0  0  0  0  0  0  0  0  0  0  0
   65.9620   34.7080   51.9960 C   0  0  0  0  0  0  0  0  0  0  0  0
   65.0110   33.6300   51.7230 N   0  0  0  0  0  0  0  0  0  0  0  0
   64.2930   33.4620   50.4880 C   0  0  0  0  0  0  0  0  0  0  0  0
   64.8740   32.8490   49.3450 C   0  0  0  0  0  0  0  0  0  0  0  0
   64.1450   32.7110   48.1990 N   0  0  0  0  0  0  0  0  0  0  0  0
   62.8700   33.1650   48.1860 C   0  0  0  0  0  0  0  0  0  0  0  0
   62.0200   33.1030   47.1440 N   0  0  0  0  0  0  0  0  0  0  0  0
   60.8890   33.6800   47.6360 C   0  0  0  0  0  0  0  0  0  0  0  0
   59.6470   33.8440   46.8390 C   0  0  0  0  0  0  0  0  0  0  0  0
   58.4360   33.3040   47.3090 C   0  0  0  0  0  0  0  0  0  0  0  0
   57.2580   33.4510   46.5690 C   0  0  0  0  0  0  0  0  0  0  0  0
   57.2750   34.1370   45.3540 C   0  0  0  0  0  0  0  0  0  0  0  0
   58.4690   34.6780   44.8760 C   0  0  0  0  0  0  0  0  0  0  0  0
   59.6510   34.5350   45.6100 C   0  0  0  0  0  0  0  0  0  0  0  0
   61.0850   34.0740   48.9620 C   0  0  0  0  0  0  0  0  0  0  0  0
   62.3400   33.7320   49.2680 N   0  0  0  0  0  0  0  0  0  0  0  0
   63.0010   33.8950   50.4090 N   0  0  0  0  0  0  0  0  0  0  0  0
   68.0287   34.1757   52.3141 H   0  0  0  0  0  0  0  0  0  0  0  0
   67.2833   33.4402   50.8546 H   0  0  0  0  0  0  0  0  0  0  0  0
   67.7314   35.1797   50.8546 H   0  0  0  0  0  0  0  0  0  0  0  0
   66.0205   34.8714   53.0822 H   0  0  0  0  0  0  0  0  0  0  0  0
   65.6156   35.6216   51.4906 H   0  0  0  0  0  0  0  0  0  0  0  0
   64.8570   32.9210   52.4750 H   0  0  0  0  0  0  0  0  0  0  0  0
   65.9115   32.4856   49.3837 H   0  0  0  0  0  0  0  0  0  0  0  0
   64.5610   32.2610   47.3520 H   0  0  0  0  0  0  0  0  0  0  0  0
   58.4152   32.7619   48.2659 H   0  0  0  0  0  0  0  0  0  0  0  0
   56.3164   33.0250   46.9457 H   0  0  0  0  0  0  0  0  0  0  0  0
   56.3477   34.2512   44.7734 H   0  0  0  0  0  0  0  0  0  0  0  0
   58.4808   35.2190   43.9183 H   0  0  0  0  0  0  0  0  0  0  0  0
   60.5885   34.9638   45.2264 H   0  0  0  0  0  0  0  0  0  0  0  0
   60.3542   34.5661   49.6207 H   0  0  0  0  0  0  0  0  0  0  0  0
  1  2  1  0
  2  3  1  0
  3  4  1  0
  4  5  1  0
  5  6  2  0
  6  7  1  0
  7  8  2  0
  8  9  1  0
  9 10  1  0
 10 11  2  0
 11 12  1  0
 12 13  2  0
 13 14  1  0
 14 15  2  0
  9 16  2  0
 16 17  1  0
 17 18  1  0
 18  4  2  0
 17  7  1  0
 15 10  1  0
  1 19  1  0
  1 20  1  0
  1 21  1  0
  2 22  1  0
  2 23  1  0
  3 24  1  0
  5 25  1  0
  6 26  1  0
 11 27  1  0
 12 28  1  0
 13 29  1  0
 14 30  1  0
 15 31  1  0
 16 32  1  0
M  CHG  1   6   1
M  END
>  <UniqueID>  (11) 
11

>  <SMILES>  (11) 
CCNc1c[nH+]c2nc(-c3ccccc3)cn2n1

>  <Energy>  (11) 
69.99536103537436

>  <Genealogy>  (11) 
CCNc1c[nH+]c2nc(-c3ccccc3)cn2n1 (protonated)
CCNc1c[nH+]c2nc(-c3ccccc3)cn2n1 (3D coordinates assigned)
CCNc1c[nH+]c2nc(-c3ccccc3)cn2n1 (optimized conformer: 69.99536103537436 kcal/mol)

>  <smiles>  (11) 
CCNc1cnc2nc(-c3ccccc3)cn2n1

>  <score_type>  (11) 
oracle

>  <origin>  (11) 
adg

>  <m_score__min__energy>  (11) 
-5.0800000000000001

>  <m_primary>  (11) 
energy

$$$$
11:0
     RDKit          3D

 67 70  0  0  0  0  0  0  0  0999 V2000
   62.6560   31.2190   47.1610 C   0  0  0  0  0  0  0  0  0  0  0  0
   61.2530   31.0030   47.0420 O   0  0  0  0  0  0  0  0  0  0  0  0
   60.6540   29.7530   46.8090 C   0  0  0  0  0  0  0  0  0  0  0  0
   60.6780   29.1460   45.5360 C   0  0  0  0  0  0  0  0  0  0  0  0
   60.1290   27.8740   45.3500 C   0  0  0  0  0  0  0  0  0  0  0  0
   59.5370   27.1990   46.4220 C   0  0  0  0  0  0  0  0  0  0  0  0
   59.4860   27.7990   47.6810 C   0  0  0  0  0  0  0  0  0  0  0  0
   60.0320   29.0780   47.8850 C   0  0  0  0  0  0  0  0  0  0  0  0
   60.0050   29.6600   49.2050 N   0  0  0  0  0  0  0  0  0  0  0  0
   61.1200   29.4320   50.1280 C   0  0  0  0  0  0  0  0  0  0  0  0
   61.3430   30.6700   51.0140 C   0  0  0  0  0  0  0  0  0  0  0  0
   60.8090   31.8860   50.3540 N   0  0  0  0  0  0  0  0  0  0  0  0
   61.2190   33.1260   51.0620 C   0  0  0  0  0  0  0  0  0  0  0  0
   61.7970   34.2110   50.1190 C   0  0  0  0  0  0  0  0  0  0  0  0
   61.0880   34.2600   48.7870 C   0  0  0  0  0  0  0  0  0  0  0  0
   61.7910   34.0200   47.5980 C   0  0  0  0  0  0  0  0  0  0  0  0
   61.1250   34.0030   46.3700 C   0  0  0  0  0  0  0  0  0  0  0  0
   59.7510   34.2810   46.3010 C   0  0  0  0  0  0  0  0  0  0  0  0
   59.0310   34.2770   45.0950 O   0  0  0  0  0  0  0  0  0  0  0  0
   57.6880   33.8140   44.9200 C   0  0  0  0  0  0  0  0  0  0  0  0
   57.4100   32.5470   45.7440 C   0  0  0  0  0  0  0  0  0  0  0  0
   56.9340   31.4380   44.8940 N   0  0  0  0  0  0  0  0  0  0  0  0
   57.4080   30.1320   45.4070 C   0  0  0  0  0  0  0  0  0  0  0  0
   57.2270   29.0240   44.3470 C   0  0  0  0  0  0  0  0  0  0  0  0
   56.2400   29.4040   43.4120 O   0  0  0  0  0  0  0  0  0  0  0  0
   56.7020   30.4980   42.6310 C   0  0  0  0  0  0  0  0  0  0  0  0
   57.3590   31.6000   43.4880 C   0  0  0  0  0  0  0  0  0  0  0  0
   59.0550   34.5500   47.4880 C   0  0  0  0  0  0  0  0  0  0  0  0
   59.7090   34.5190   48.7240 C   0  0  0  0  0  0  0  0  0  0  0  0
   59.3300   31.7950   50.2720 C   0  0  0  0  0  0  0  0  0  0  0  0
   58.8570   30.4450   49.6800 C   0  0  0  0  0  0  0  0  0  0  0  0
   62.9315   31.2614   48.2251 H   0  0  0  0  0  0  0  0  0  0  0  0
   63.1966   30.3935   46.6749 H   0  0  0  0  0  0  0  0  0  0  0  0
   62.9233   32.1689   46.6749 H   0  0  0  0  0  0  0  0  0  0  0  0
   61.1310   29.6763   44.6853 H   0  0  0  0  0  0  0  0  0  0  0  0
   60.1628   27.4024   44.3568 H   0  0  0  0  0  0  0  0  0  0  0  0
   59.1117   26.1955   46.2730 H   0  0  0  0  0  0  0  0  0  0  0  0
   59.0147   27.2667   48.5204 H   0  0  0  0  0  0  0  0  0  0  0  0
   60.8912   28.5658   50.7662 H   0  0  0  0  0  0  0  0  0  0  0  0
   62.0330   29.2406   49.5451 H   0  0  0  0  0  0  0  0  0  0  0  0
   60.8281   30.5244   51.9751 H   0  0  0  0  0  0  0  0  0  0  0  0
   62.4230   30.7999   51.1773 H   0  0  0  0  0  0  0  0  0  0  0  0
   61.1560   31.9300   49.3720 H   0  0  0  0  0  0  0  0  0  0  0  0
   60.3390   33.5422   51.5742 H   0  0  0  0  0  0  0  0  0  0  0  0
   62.0176   32.8489   51.7659 H   0  0  0  0  0  0  0  0  0  0  0  0
   61.6975   35.1916   50.6074 H   0  0  0  0  0  0  0  0  0  0  0  0
   62.8502   33.9586   49.9267 H   0  0  0  0  0  0  0  0  0  0  0  0
   62.8762   33.8436   47.6323 H   0  0  0  0  0  0  0  0  0  0  0  0
   61.6816   33.7700   45.4503 H   0  0  0  0  0  0  0  0  0  0  0  0
   56.9939   34.6056   45.2388 H   0  0  0  0  0  0  0  0  0  0  0  0
   57.5463   33.5689   43.8571 H   0  0  0  0  0  0  0  0  0  0  0  0
   58.3381   32.2379   46.2471 H   0  0  0  0  0  0  0  0  0  0  0  0
   56.6237   32.7798   46.4772 H   0  0  0  0  0  0  0  0  0  0  0  0
   58.4742   30.2123   45.6654 H   0  0  0  0  0  0  0  0  0  0  0  0
   56.8157   29.8679   46.2955 H   0  0  0  0  0  0  0  0  0  0  0  0
   58.1808   28.8619   43.8236 H   0  0  0  0  0  0  0  0  0  0  0  0
   56.9117   28.0960   44.8463 H   0  0  0  0  0  0  0  0  0  0  0  0
   57.4416   30.1267   41.9064 H   0  0  0  0  0  0  0  0  0  0  0  0
   55.8300   30.9412   42.1278 H   0  0  0  0  0  0  0  0  0  0  0  0
   58.4537   31.5142   43.4220 H   0  0  0  0  0  0  0  0  0  0  0  0
   57.0500   32.5893   43.1194 H   0  0  0  0  0  0  0  0  0  0  0  0
   57.9819   34.7882   47.4467 H   0  0  0  0  0  0  0  0  0  0  0  0
   59.1417   34.6980   49.6493 H   0  0  0  0  0  0  0  0  0  0  0  0
   58.9122   31.9035   51.2837 H   0  0  0  0  0  0  0  0  0  0  0  0
   58.9797   32.5965   49.6049 H   0  0  0  0  0  0  0  0  0  0  0  0
   58.3258   29.8755   50.4568 H   0  0  0  0  0  0  0  0  0  0  0  0
   58.1870   30.6446   48.8307 H   0  0  0  0  0  0  0  0  0  0  0  0
  1  2  1  0
  2  3  1  0
  3  4  2  0
  4  5  1  0
  5  6  2  0
  6  7  1  0
  7  8  2  0
  8  9  1  0
  9 10  1  0
 10 11  1  0
 11 12  1  0
 12 13  1  0
 13 14  1  0
 14 15  1  0
 15 16  2  0
 16 17  1  0
 17 18  2  0
 18 19  1  0
 19 20  1  0
 20 21  1  0
 21 22  1  0
 22 23  1  0
 23 24  1  0
 24 25  1  0
 25 26  1  0
 26 27  1  0
 18 28  1  0
 28 29  2  0
 12 30  1  0
 30 31  1  0
  8  3  1  0
 31  9  1  0
 29 15  1  0
 27 22  1  0
  1 32  1  0
  1 33  1  0
  1 34  1  0
  4 35  1  0
  5 36  1  0
  6 37  1  0
  7 38  1  0
 10 39  1  0
 10 40  1  0
 11 41  1  0
 11 42  1  0
 12 43  1  0
 13 44  1  0
 13 45  1  0
 14 46  1  0
 14 47  1  0
 16 48  1  0
 17 49  1  0
 20 50  1  0
 20 51  1  0
 21 52  1  0
 21 53  1  0
 23 54  1  0
 23 55  1  0
 24 56  1  0
 24 57  1  0
 26 58  1  0
 26 59  1  0
 27 60  1  0
 27 61  1  0
 28 62  1  0
 29 63  1  0
 30 64  1  0
 30 65  1  0
 31 66  1  0
 31 67  1  0
M  CHG  1  12   1
M  END
>  <UniqueID>  (12) 
12

>  <SMILES>  (12) 
COc1ccccc1N1CC[NH+](CCc2ccc(OCCN3CCOCC3)cc2)CC1

>  <Energy>  (12) 
89.40244440990426

>  <Genealogy>  (12) 
COc1ccccc1N1CC[NH+](CCc2ccc(OCCN3CCOCC3)cc2)CC1 (protonated)
COc1ccccc1N1CC[NH+](CCc2ccc(OCCN3CCOCC3)cc2)CC1 (3D coordinates assigned)
COc1ccccc1N1CC[NH+](CCc2ccc(OCCN3CCOCC3)cc2)CC1 (nonaromatic ring conformer: 89.40244440990426 kcal/mol)

>  <smiles>  (12) 
COc1ccccc1N1CCN(CCc2ccc(OCCN3CCOCC3)cc2)CC1

>  <score_type>  (12) 
oracle

>  <origin>  (12) 
adg

>  <m_score__min__energy>  (12) 
-7

>  <m_primary>  (12) 
energy

$$$$
12:0
     RDKit          3D

 41 44  0  0  0  0  0  0  0  0999 V2000
   54.1830   24.7990   45.6060 C   0  0  0  0  0  0  0  0  0  0  0  0
   54.7880   26.0470   45.9260 O   0  0  0  0  0  0  0  0  0  0  0  0
   56.1700   26.2480   46.0770 C   0  0  0  0  0  0  0  0  0  0  0  0
   57.0180   25.2420   46.5720 C   0  0  0  0  0  0  0  0  0  0  0  0
   58.3840   25.4770   46.7040 C   0  0  0  0  0  0  0  0  0  0  0  0
   58.9290   26.7110   46.3510 C   0  0  0  0  0  0  0  0  0  0  0  0
   58.1070   27.7480   45.8590 C   0  0  0  0  0  0  0  0  0  0  0  0
   58.5990   29.0330   45.4900 C   0  0  0  0  0  0  0  0  0  0  0  0
   60.0480   29.4670   45.6150 C   0  0  0  0  0  0  0  0  0  0  0  0
   60.1600   30.6120   46.5220 N   0  0  0  0  0  0  0  0  0  0  0  0
   59.9090   31.8660   46.1550 N   0  0  0  0  0  0  0  0  0  0  0  0
   60.0260   32.6430   47.2430 C   0  0  0  0  0  0  0  0  0  0  0  0
   59.8340   34.0190   47.3400 C   0  0  0  0  0  0  0  0  0  0  0  0
   59.9920   34.6130   48.6070 C   0  0  0  0  0  0  0  0  0  0  0  0
   60.3300   33.8230   49.7310 C   0  0  0  0  0  0  0  0  0  0  0  0
   60.5130   32.4330   49.6000 C   0  0  0  0  0  0  0  0  0  0  0  0
   60.3550   31.8780   48.3310 C   0  0  0  0  0  0  0  0  0  0  0  0
   60.4440   30.5810   47.8530 C   0  0  0  0  0  0  0  0  0  0  0  0
   60.7150   29.3480   48.6570 C   0  0  0  0  0  0  0  0  0  0  0  0
   57.6960   29.9870   44.9920 C   0  0  0  0  0  0  0  0  0  0  0  0
   56.3420   29.6810   44.8760 C   0  0  0  0  0  0  0  0  0  0  0  0
   55.5360   30.5420   44.4330 O   0  0  0  0  0  0  0  0  0  0  0  0
   55.8880   28.4590   45.2400 N   0  0  0  0  0  0  0  0  0  0  0  0
   56.7140   27.4920   45.7210 C   0  0  0  0  0  0  0  0  0  0  0  0
   53.9254   24.2677   46.5341 H   0  0  0  0  0  0  0  0  0  0  0  0
   53.2698   24.9742   45.0183 H   0  0  0  0  0  0  0  0  0  0  0  0
   54.8862   24.1906   45.0183 H   0  0  0  0  0  0  0  0  0  0  0  0
   56.6005   24.2648   46.8563 H   0  0  0  0  0  0  0  0  0  0  0  0
   59.0391   24.6822   47.0902 H   0  0  0  0  0  0  0  0  0  0  0  0
   60.0110   26.8783   46.4570 H   0  0  0  0  0  0  0  0  0  0  0  0
   60.6442   28.6314   46.0104 H   0  0  0  0  0  0  0  0  0  0  0  0
   60.4205   29.7595   44.6222 H   0  0  0  0  0  0  0  0  0  0  0  0
   59.6470   32.1730   45.1920 H   0  0  0  0  0  0  0  0  0  0  0  0
   59.5683   34.6205   46.4582 H   0  0  0  0  0  0  0  0  0  0  0  0
   59.8518   35.6978   48.7235 H   0  0  0  0  0  0  0  0  0  0  0  0
   60.4508   34.2986   50.7155 H   0  0  0  0  0  0  0  0  0  0  0  0
   60.7712   31.8078   50.4674 H   0  0  0  0  0  0  0  0  0  0  0  0
   60.6618   29.5901   49.7287 H   0  0  0  0  0  0  0  0  0  0  0  0
   59.9640   28.5811   48.4166 H   0  0  0  0  0  0  0  0  0  0  0  0
   61.7184   28.9667   48.4166 H   0  0  0  0  0  0  0  0  0  0  0  0
   58.0600   30.9808   44.6921 H   0  0  0  0  0  0  0  0  0  0  0  0
  1  2  1  0
  2  3  1  0
  3  4  2  0
  4  5  1  0
  5  6  2  0
  6  7  1  0
  7  8  1  0
  8  9  1  0
  9 10  1  0
 10 11  1  0
 11 12  2  0
 12 13  1  0
 13 14  2  0
 14 15  1  0
 15 16  2  0
 16 17  1  0
 17 18  2  0
 18 19  1  0
  8 20  2  0
 20 21  1  0
 21 22  2  0
 21 23  1  0
 23 24  1  0
 24  3  1  0
 24  7  2  0
 18 10  1  0
 17 12  1  0
  1 25  1  0
  1 26  1  0
  1 27  1  0
  4 28  1  0
  5 29  1  0
  6 30  1  0
  9 31  1  0
  9 32  1  0
 11 33  1  0
 13 34  1  0
 14 35  1  0
 15 36  1  0
 16 37  1  0
 19 38  1  0
 19 39  1  0
 19 40  1  0
 20 41  1  0
M  CHG  2  11   1  23  -1
M  END
>  <UniqueID>  (13) 
13

>  <SMILES>  (13) 
COc1cccc2c(Cn3[nH+]c4ccccc4c3C)cc(=O)[n-]c12

>  <Energy>  (13) 
90.05617511426226

>  <Genealogy>  (13) 
COc1cccc2c(Cn3[nH+]c4ccccc4c3C)cc(=O)[n-]c12 (protonated)
COc1cccc2c(Cn3[nH+]c4ccccc4c3C)cc(=O)[n-]c12 (3D coordinates assigned)
COc1cccc2c(Cn3[nH+]c4ccccc4c3C)cc(=O)[n-]c12 (optimized conformer: 90.05617511426226 kcal/mol)

>  <smiles>  (13) 
COc1cccc2c(Cn3nc4ccccc4c3C)cc(=O)[nH]c12

>  <score_type>  (13) 
oracle

>  <origin>  (13) 
adg

>  <m_score__min__energy>  (13) 
-9.4800000000000004

>  <m_primary>  (13) 
energy

$$$$
13:0
     RDKit          3D

 47 50  0  0  0  0  0  0  0  0999 V2000
   56.1768   32.0388   45.2303 H   0  0  0  0  0  0  0  0  0  0  0  0
   57.0450   32.7140   45.2500 C   0  0  0  0  0  0  0  0  0  0  0  0
   58.1110   32.9880   43.9810 S   0  0  0  0  0  0  0  0  0  0  0  0
   59.0980   34.0870   44.7800 C   0  0  0  0  0  0  0  0  0  0  0  0
   59.9792   34.5915   44.3570 H   0  0  0  0  0  0  0  0  0  0  0  0
   58.6050   34.2470   46.0710 C   0  0  0  0  0  0  0  0  0  0  0  0
   59.2330   35.1620   47.0870 C   0  0  0  0  0  0  0  0  0  0  0  0
   58.4384   35.5646   47.7324 H   0  0  0  0  0  0  0  0  0  0  0  0
   59.7576   35.9536   46.5318 H   0  0  0  0  0  0  0  0  0  0  0  0
   60.2350   34.4890   47.9410 N   0  0  0  0  0  0  0  0  0  0  0  0
   61.5520   34.2130   47.2990 C   0  0  0  0  0  0  0  0  0  0  0  0
   62.3456   34.4598   48.0196 H   0  0  0  0  0  0  0  0  0  0  0  0
   61.5958   34.8298   46.3892 H   0  0  0  0  0  0  0  0  0  0  0  0
   61.7430   32.7460   46.8510 C   0  0  0  0  0  0  0  0  0  0  0  0
   62.7984   32.5705   46.5953 H   0  0  0  0  0  0  0  0  0  0  0  0
   61.1240   32.5387   45.9657 H   0  0  0  0  0  0  0  0  0  0  0  0
   61.3340   31.8330   47.9990 C   0  0  1  0  0  0  0  0  0  0  0  0
   62.0855   32.0918   48.7594 H   0  0  0  0  0  0  0  0  0  0  0  0
   59.8850   32.0560   48.3050 C   0  0  1  0  0  0  0  0  0  0  0  0
   59.2365   32.0144   47.4174 H   0  0  0  0  0  0  0  0  0  0  0  0
   59.5050   31.0270   49.1780 O   0  0  0  0  0  0  0  0  0  0  0  0
   60.2740   29.8960   48.7920 C   0  0  1  0  0  0  0  0  0  0  0  0
   60.8007   29.4659   49.6566 H   0  0  0  0  0  0  0  0  0  0  0  0
   59.3710   28.7960   48.2690 C   0  0  0  0  0  0  0  0  0  0  0  0
   59.6730   27.5900   48.4810 O   0  0  0  0  0  0  0  0  0  0  0  0
   58.1680   29.0730   47.5330 N   0  0  0  0  0  0  0  0  0  0  0  0
   57.9730   28.9390   46.2520 C   0  0  0  0  0  0  0  0  0  0  0  0
   56.9210   29.5400   45.6270 N   0  0  0  0  0  0  0  0  0  0  0  0
   56.6940   29.4030   44.2920 C   0  0  0  0  0  0  0  0  0  0  0  0
   55.5220   30.0860   43.6630 C   0  0  0  0  0  0  0  0  0  0  0  0
   54.8577   30.4732   44.4496 H   0  0  0  0  0  0  0  0  0  0  0  0
   55.8753   30.9196   43.0383 H   0  0  0  0  0  0  0  0  0  0  0  0
   54.9708   29.3677   43.0383 H   0  0  0  0  0  0  0  0  0  0  0  0
   57.5500   28.6050   43.5230 C   0  0  0  0  0  0  0  0  0  0  0  0
   57.3750   28.4824   42.4440 H   0  0  0  0  0  0  0  0  0  0  0  0
   58.6270   27.9670   44.1390 C   0  0  0  0  0  0  0  0  0  0  0  0
   59.3057   27.3358   43.5465 H   0  0  0  0  0  0  0  0  0  0  0  0
   58.8420   28.1310   45.5090 C   0  0  0  0  0  0  0  0  0  0  0  0
   59.6881   27.6289   46.0009 H   0  0  0  0  0  0  0  0  0  0  0  0
   61.3390   30.3530   47.7680 C   0  0  0  0  0  0  0  0  0  0  0  0
   62.3236   29.9129   47.9843 H   0  0  0  0  0  0  0  0  0  0  0  0
   61.1309   30.0534   46.7302 H   0  0  0  0  0  0  0  0  0  0  0  0
   59.7050   33.4620   48.8760 C   0  0  0  0  0  0  0  0  0  0  0  0
   60.2442   33.5336   49.8321 H   0  0  0  0  0  0  0  0  0  0  0  0
   58.6305   33.6448   49.0246 H   0  0  0  0  0  0  0  0  0  0  0  0
   57.4510   33.4880   46.3270 C   0  0  0  0  0  0  0  0  0  0  0  0
   56.9198   33.5058   47.2901 H   0  0  0  0  0  0  0  0  0  0  0  0
  1  2  1  0
  2  3  1  0
  3  4  1  0
  4  5  1  0
  4  6  2  0
  6  7  1  0
  7  8  1  0
  7  9  1  0
  7 10  1  0
 10 11  1  0
 11 12  1  0
 11 13  1  0
 11 14  1  0
 14 15  1  0
 14 16  1  0
 14 17  1  0
 17 18  1  1
 17 19  1  0
 19 20  1  6
 19 21  1  0
 21 22  1  0
 22 23  1  1
 22 24  1  0
 24 25  2  0
 24 26  1  0
 26 27  2  0
 27 28  1  0
 28 29  1  0
 29 30  1  0
 30 31  1  0
 30 32  1  0
 30 33  1  0
 29 34  2  0
 34 35  1  0
 34 36  1  0
 36 37  1  0
 36 38  2  0
 38 39  1  0
 22 40  1  0
 40 41  1  0
 40 42  1  0
 19 43  1  0
 43 44  1  0
 43 45  1  0
  6 46  1  0
 46 47  1  0
 46  2  2  0
 43 10  1  0
 40 17  1  0
 38 27  1  0
M  CHG  1  28  -1
M  END
>  <UniqueID>  (14) 
14

>  <SMILES>  (14) 
Cc1ccc/c(=N/C(=O)[C@H]2C[C@H]3CCN(Cc4ccsc4)CC3O2)[n-]1

>  <Energy>  (14) 
93.89372414473036

>  <Genealogy>  (14) 
Cc1cccc(=NC(=O)C2CC3CCN(Cc4ccsc4)CC3O2)[n-]1 (protonated)
Cc1cccc(=NC(=O)[C@H]2C[C@H]3CCN(Cc4ccsc4)CC3O2)[n-]1 (chirality)
Cc1ccc/c(=N/C(=O)[C@H]2C[C@H]3CCN(Cc4ccsc4)CC3O2)[n-]1 (cis-trans isomerization)
Cc1ccc/c(=N/C(=O)[C@H]2C[C@H]3CCN(Cc4ccsc4)CC3O2)[n-]1 (3D coordinates assigned)
Cc1ccc/c(=N/C(=O)[C@H]2C[C@H]3CCN(Cc4ccsc4)CC3O2)[n-]1 (nonaromatic ring conformer: 93.89372414473036 kcal/mol)

>  <smiles>  (14) 
Cc1cccc(=NC(=O)C2CC3CCN(Cc4ccsc4)CC3O2)[nH]1

>  <score_type>  (14) 
oracle

>  <origin>  (14) 
adg

>  <m_score__min__energy>  (14) 
-10.82

>  <m_primary>  (14) 
energy

$$$$
14:0
     RDKit          3D

 33 34  0  0  0  0  0  0  0  0999 V2000
   56.6070   26.1190   46.1760 C   0  0  0  0  0  0  0  0  0  0  0  0
   57.4870   27.3670   46.1560 C   0  0  0  0  0  0  0  0  0  0  0  0
   57.2120   28.2840   44.9500 C   0  0  0  0  0  0  0  0  0  0  0  0
   55.8280   28.7820   44.8810 N   0  0  0  0  0  0  0  0  0  0  0  0
   55.5880   29.7380   43.7850 C   0  0  0  0  0  0  0  0  0  0  0  0
   56.5920   30.8550   43.7870 C   0  0  0  0  0  0  0  0  0  0  0  0
   57.1790   31.4100   42.6680 C   0  0  0  0  0  0  0  0  0  0  0  0
   58.0350   32.3810   43.1390 C   0  0  0  0  0  0  0  0  0  0  0  0
   57.9190   32.3590   44.5210 C   0  0  0  0  0  0  0  0  0  0  0  0
   58.6430   33.2350   45.4770 C   0  0  0  0  0  0  0  0  0  0  0  0
   58.8940   34.5790   45.1330 C   0  0  0  0  0  0  0  0  0  0  0  0
   59.5600   35.4300   46.0180 C   0  0  0  0  0  0  0  0  0  0  0  0
   59.9870   34.9560   47.2560 C   0  0  0  0  0  0  0  0  0  0  0  0
   59.7510   33.6290   47.6150 C   0  0  0  0  0  0  0  0  0  0  0  0
   59.0830   32.7640   46.7390 C   0  0  0  0  0  0  0  0  0  0  0  0
   58.8720   31.0940   47.2560 Cl  0  0  0  0  0  0  0  0  0  0  0  0
   57.0480   31.4380   44.8700 O   0  0  0  0  0  0  0  0  0  0  0  0
   56.4035   25.8305   47.2178 H   0  0  0  0  0  0  0  0  0  0  0  0
   55.6578   26.3314   45.6623 H   0  0  0  0  0  0  0  0  0  0  0  0
   57.1258   25.2962   45.6623 H   0  0  0  0  0  0  0  0  0  0  0  0
   57.3046   27.9382   47.0782 H   0  0  0  0  0  0  0  0  0  0  0  0
   58.5311   27.0295   46.0786 H   0  0  0  0  0  0  0  0  0  0  0  0
   57.8885   29.1492   45.0117 H   0  0  0  0  0  0  0  0  0  0  0  0
   57.3790   27.6802   44.0458 H   0  0  0  0  0  0  0  0  0  0  0  0
   55.1440   27.9900   44.8780 H   0  0  0  0  0  0  0  0  0  0  0  0
   55.6527   29.2032   42.8259 H   0  0  0  0  0  0  0  0  0  0  0  0
   54.5894   30.1767   43.9275 H   0  0  0  0  0  0  0  0  0  0  0  0
   57.0004   31.1343   41.6182 H   0  0  0  0  0  0  0  0  0  0  0  0
   58.6802   33.0406   42.5401 H   0  0  0  0  0  0  0  0  0  0  0  0
   58.5616   34.9617   44.1567 H   0  0  0  0  0  0  0  0  0  0  0  0
   59.7476   36.4767   45.7366 H   0  0  0  0  0  0  0  0  0  0  0  0
   60.5107   35.6286   47.9512 H   0  0  0  0  0  0  0  0  0  0  0  0
   60.0920   33.2591   48.5932 H   0  0  0  0  0  0  0  0  0  0  0  0
  1  2  1  0
  2  3  1  0
  3  4  1  0
  4  5  1  0
  5  6  1  0
  6  7  2  0
  7  8  1  0
  8  9  2  0
  9 10  1  0
 10 11  2  0
 11 12  1  0
 12 13  2  0
 13 14  1  0
 14 15  2  0
 15 16  1  0
  9 17  1  0
 17  6  1  0
 15 10  1  0
  1 18  1  0
  1 19  1  0
  1 20  1  0
  2 21  1  0
  2 22  1  0
  3 23  1  0
  3 24  1  0
  4 25  1  0
  5 26  1  0
  5 27  1  0
  7 28  1  0
  8 29  1  0
 11 30  1  0
 12 31  1  0
 13 32  1  0
 14 33  1  0
M  END
>  <UniqueID>  (15) 
15

>  <SMILES>  (15) 
CCCNCc1ccc(-c2ccccc2Cl)o1

>  <Energy>  (15) 
60.22386464220059

>  <Genealogy>  (15) 
CCCNCc1ccc(-c2ccccc2Cl)o1 (3D coordinates assigned)
CCCNCc1ccc(-c2ccccc2Cl)o1 (optimized conformer: 60.22386464220059 kcal/mol)

>  <smiles>  (15) 
CCCNCc1ccc(-c2ccccc2Cl)o1

>  <score_type>  (15) 
oracle

>  <origin>  (15) 
adg

>  <m_score__min__energy>  (15) 
-7.5099999999999998

>  <m_primary>  (15) 
energy

$$$$
15:0
     RDKit          3D

 55 58  0  0  0  0  0  0  0  0999 V2000
   63.2820   31.5800   47.4790 C   0  0  0  0  0  0  0  0  0  0  0  0
   63.7270   33.0170   47.2160 C   0  0  0  0  0  0  0  0  0  0  0  0
   62.6890   34.0260   47.7370 C   0  0  0  0  0  0  0  0  0  0  0  0
   62.3290   33.9050   49.2190 C   0  0  0  0  0  0  0  0  0  0  0  0
   63.3440   33.8290   50.1840 C   0  0  0  0  0  0  0  0  0  0  0  0
   63.0150   33.7330   51.5290 C   0  0  0  0  0  0  0  0  0  0  0  0
   63.9440   33.6660   52.3790 O   0  0  0  0  0  0  0  0  0  0  0  0
   61.7060   33.7120   51.9190 N   0  0  0  0  0  0  0  0  0  0  0  0
   61.3640   33.6130   53.3520 C   0  0  0  0  0  0  0  0  0  0  0  0
   60.8720   32.2100   53.6900 C   0  0  0  0  0  0  0  0  0  0  0  0
   60.7130   33.7230   50.9720 C   0  0  0  0  0  0  0  0  0  0  0  0
   59.5040   33.6570   51.3380 O   0  0  0  0  0  0  0  0  0  0  0  0
   61.0140   33.8020   49.6300 N   0  0  0  0  0  0  0  0  0  0  0  0
   59.8900   33.7810   48.6640 C   0  0  0  0  0  0  0  0  0  0  0  0
   59.6660   32.3940   48.1020 C   0  0  0  0  0  0  0  0  0  0  0  0
   59.2050   31.3430   48.9170 C   0  0  0  0  0  0  0  0  0  0  0  0
   58.9760   30.0760   48.3760 C   0  0  0  0  0  0  0  0  0  0  0  0
   59.1850   29.8420   47.0080 C   0  0  0  0  0  0  0  0  0  0  0  0
   58.9570   28.4950   46.4380 C   0  0  0  0  0  0  0  0  0  0  0  0
   59.8460   27.4670   46.7980 C   0  0  0  0  0  0  0  0  0  0  0  0
   59.6310   26.1580   46.3660 C   0  0  0  0  0  0  0  0  0  0  0  0
   58.5260   25.8580   45.5730 C   0  0  0  0  0  0  0  0  0  0  0  0
   57.6400   26.8680   45.1940 C   0  0  0  0  0  0  0  0  0  0  0  0
   57.8460   28.1980   45.6040 C   0  0  0  0  0  0  0  0  0  0  0  0
   56.9160   29.2420   45.1100 C   0  0  0  0  0  0  0  0  0  0  0  0
   57.2720   30.5220   44.8750 N   0  0  0  0  0  0  0  0  0  0  0  0
   56.1590   31.1230   44.4900 N   0  0  0  0  0  0  0  0  0  0  0  0
   55.1700   30.2480   44.4980 N   0  0  0  0  0  0  0  0  0  0  0  0
   55.5990   29.0610   44.8870 N   0  0  0  0  0  0  0  0  0  0  0  0
   59.6440   30.8870   46.1920 C   0  0  0  0  0  0  0  0  0  0  0  0
   59.8720   32.1550   46.7340 C   0  0  0  0  0  0  0  0  0  0  0  0
   63.2280   31.4056   48.5637 H   0  0  0  0  0  0  0  0  0  0  0  0
   62.2908   31.4154   47.0313 H   0  0  0  0  0  0  0  0  0  0  0  0
   64.0067   30.8840   47.0313 H   0  0  0  0  0  0  0  0  0  0  0  0
   64.6861   33.1942   47.7246 H   0  0  0  0  0  0  0  0  0  0  0  0
   63.8321   33.1554   46.1298 H   0  0  0  0  0  0  0  0  0  0  0  0
   63.0869   35.0375   47.5678 H   0  0  0  0  0  0  0  0  0  0  0  0
   61.7615   33.8123   47.1856 H   0  0  0  0  0  0  0  0  0  0  0  0
   64.3996   33.8455   49.8752 H   0  0  0  0  0  0  0  0  0  0  0  0
   62.2573   33.8376   53.9533 H   0  0  0  0  0  0  0  0  0  0  0  0
   60.5636   34.3334   53.5764 H   0  0  0  0  0  0  0  0  0  0  0  0
   60.8298   32.0896   54.7826 H   0  0  0  0  0  0  0  0  0  0  0  0
   59.8681   32.0613   53.2656 H   0  0  0  0  0  0  0  0  0  0  0  0
   61.5632   31.4669   53.2656 H   0  0  0  0  0  0  0  0  0  0  0  0
   58.9737   34.1117   49.1749 H   0  0  0  0  0  0  0  0  0  0  0  0
   60.1392   34.4544   47.8307 H   0  0  0  0  0  0  0  0  0  0  0  0
   59.0239   31.5208   49.9873 H   0  0  0  0  0  0  0  0  0  0  0  0
   58.6303   29.2578   49.0249 H   0  0  0  0  0  0  0  0  0  0  0  0
   60.7192   27.6970   47.4262 H   0  0  0  0  0  0  0  0  0  0  0  0
   60.3347   25.3623   46.6519 H   0  0  0  0  0  0  0  0  0  0  0  0
   58.3510   24.8228   45.2446 H   0  0  0  0  0  0  0  0  0  0  0  0
   56.7704   26.6210   44.5673 H   0  0  0  0  0  0  0  0  0  0  0  0
   54.1830   30.4640   44.2380 H   0  0  0  0  0  0  0  0  0  0  0  0
   59.8251   30.7077   45.1219 H   0  0  0  0  0  0  0  0  0  0  0  0
   60.2157   32.9725   46.0832 H   0  0  0  0  0  0  0  0  0  0  0  0
  1  2  1  0
  2  3  1  0
  3  4  1  0
  4  5  2  0
  5  6  1  0
  6  7  2  0
  6  8  1  0
  8  9  1  0
  9 10  1  0
  8 11  1  0
 11 12  2  0
 11 13  1  0
 13 14  1  0
 14 15  1  0
 15 16  2  0
 16 17  1  0
 17 18  2  0
 18 19  1  0
 19 20  2  0
 20 21  1  0
 21 22  2  0
 22 23  1  0
 23 24  2  0
 24 25  1  0
 25 26  2  0
 26 27  1  0
 27 28  1  0
 28 29  2  0
 18 30  1  0
 30 31  2  0
 13  4  1  0
 31 15  1  0
 24 19  1  0
 29 25  1  0
  1 32  1  0
  1 33  1  0
  1 34  1  0
  2 35  1  0
  2 36  1  0
  3 37  1  0
  3 38  1  0
  5 39  1  0
  9 40  1  0
  9 41  1  0
 10 42  1  0
 10 43  1  0
 10 44  1  0
 14 45  1  0
 14 46  1  0
 16 47  1  0
 17 48  1  0
 20 49  1  0
 21 50  1  0
 22 51  1  0
 23 52  1  0
 28 53  1  0
 30 54  1  0
 31 55  1  0
M  CHG  2  27  -1  28   1
M  END
>  <UniqueID>  (16) 
16

>  <SMILES>  (16) 
CCCc1cc(=O)n(CC)c(=O)n1Cc1ccc(-c2ccccc2-c2n[n-][nH+]n2)cc1

>  <Energy>  (16) 
113.91258266632279

>  <Genealogy>  (16) 
CCCc1cc(=O)n(CC)c(=O)n1Cc1ccc(-c2ccccc2-c2n[n-][nH+]n2)cc1 (protonated)
CCCc1cc(=O)n(CC)c(=O)n1Cc1ccc(-c2ccccc2-c2n[n-][nH+]n2)cc1 (3D coordinates assigned)
CCCc1cc(=O)n(CC)c(=O)n1Cc1ccc(-c2ccccc2-c2n[n-][nH+]n2)cc1 (optimized conformer: 113.91258266632279 kcal/mol)

>  <smiles>  (16) 
CCCc1cc(=O)n(CC)c(=O)n1Cc1ccc(-c2ccccc2-c2nn[nH]n2)cc1

>  <score_type>  (16) 
oracle

>  <origin>  (16) 
adg

>  <m_score__min__energy>  (16) 
-8.6999999999999993

>  <m_primary>  (16) 
energy

$$$$
16:0
     RDKit          3D

 43 45  0  0  0  0  0  0  0  0999 V2000
   69.1050   33.5270   51.0130 C   0  0  0  0  0  0  0  0  0  0  0  0
   67.6860   33.8590   51.3680 C   0  0  0  0  0  0  0  0  0  0  0  0
   66.6380   33.4350   50.5380 C   0  0  0  0  0  0  0  0  0  0  0  0
   65.3220   33.7830   50.8600 C   0  0  0  0  0  0  0  0  0  0  0  0
   64.2330   33.3490   50.0240 C   0  0  0  0  0  0  0  0  0  0  0  0
   63.3220   32.9870   49.3230 C   0  0  0  0  0  0  0  0  0  0  0  0
   62.2340   32.5550   48.4860 C   0  0  0  0  0  0  0  0  0  0  0  0
   62.1950   31.2370   48.0160 C   0  0  0  0  0  0  0  0  0  0  0  0
   61.1410   30.8110   47.2030 C   0  0  0  0  0  0  0  0  0  0  0  0
   60.1150   31.7020   46.8520 C   0  0  0  0  0  0  0  0  0  0  0  0
   59.0520   31.2830   46.0350 C   0  0  0  0  0  0  0  0  0  0  0  0
   58.0260   32.1840   45.6830 C   0  0  0  0  0  0  0  0  0  0  0  0
   56.9420   31.8200   44.8680 O   0  0  0  0  0  0  0  0  0  0  0  0
   57.0330   31.3010   43.5410 C   0  0  0  0  0  0  0  0  0  0  0  0
   56.2350   29.9990   43.3950 C   0  0  0  0  0  0  0  0  0  0  0  0
   56.6400   28.9660   44.4440 C   0  0  0  0  0  0  0  0  0  0  0  0
   55.5360   28.6130   45.1980 F   0  0  0  0  0  0  0  0  0  0  0  0
   58.0750   33.4980   46.1640 C   0  0  0  0  0  0  0  0  0  0  0  0
   59.1280   33.9230   46.9780 C   0  0  0  0  0  0  0  0  0  0  0  0
   60.1530   33.0340   47.3270 C   0  0  0  0  0  0  0  0  0  0  0  0
   61.2150   33.4530   48.1430 C   0  0  0  0  0  0  0  0  0  0  0  0
   65.0690   34.5560   51.9960 C   0  0  0  0  0  0  0  0  0  0  0  0
   66.1390   34.9750   52.7900 C   0  0  0  0  0  0  0  0  0  0  0  0
   67.4140   34.6290   52.4620 N   0  0  0  0  0  0  0  0  0  0  0  0
   69.6909   33.3899   51.9338 H   0  0  0  0  0  0  0  0  0  0  0  0
   69.1278   32.5993   50.4224 H   0  0  0  0  0  0  0  0  0  0  0  0
   69.5370   34.3483   50.4224 H   0  0  0  0  0  0  0  0  0  0  0  0
   66.8491   32.8338   49.6413 H   0  0  0  0  0  0  0  0  0  0  0  0
   62.9966   30.5343   48.2874 H   0  0  0  0  0  0  0  0  0  0  0  0
   61.1155   29.7740   46.8370 H   0  0  0  0  0  0  0  0  0  0  0  0
   59.0197   30.2466   45.6679 H   0  0  0  0  0  0  0  0  0  0  0  0
   56.6345   32.0462   42.8368 H   0  0  0  0  0  0  0  0  0  0  0  0
   58.0898   31.0863   43.3242 H   0  0  0  0  0  0  0  0  0  0  0  0
   55.1642   30.2227   43.5102 H   0  0  0  0  0  0  0  0  0  0  0  0
   56.4458   29.5780   42.4008 H   0  0  0  0  0  0  0  0  0  0  0  0
   57.0415   28.0731   43.9425 H   0  0  0  0  0  0  0  0  0  0  0  0
   57.4094   29.3961   45.1021 H   0  0  0  0  0  0  0  0  0  0  0  0
   57.2748   34.2043   45.8978 H   0  0  0  0  0  0  0  0  0  0  0  0
   59.1523   34.9593   47.3462 H   0  0  0  0  0  0  0  0  0  0  0  0
   61.2474   34.4881   48.5138 H   0  0  0  0  0  0  0  0  0  0  0  0
   64.0379   34.8317   52.2623 H   0  0  0  0  0  0  0  0  0  0  0  0
   65.9505   35.5872   53.6842 H   0  0  0  0  0  0  0  0  0  0  0  0
   68.1940   34.9650   53.0700 H   0  0  0  0  0  0  0  0  0  0  0  0
  1  2  1  0
  2  3  2  0
  3  4  1  0
  4  5  1  0
  5  6  3  0
  6  7  1  0
  7  8  2  0
  8  9  1  0
  9 10  2  0
 10 11  1  0
 11 12  2  0
 12 13  1  0
 13 14  1  0
 14 15  1  0
 15 16  1  0
 16 17  1  0
 12 18  1  0
 18 19  2  0
 19 20  1  0
 20 21  2  0
  4 22  2  0
 22 23  1  0
 23 24  2  0
 24  2  1  0
 21  7  1  0
 20 10  1  0
  1 25  1  0
  1 26  1  0
  1 27  1  0
  3 28  1  0
  8 29  1  0
  9 30  1  0
 11 31  1  0
 14 32  1  0
 14 33  1  0
 15 34  1  0
 15 35  1  0
 16 36  1  0
 16 37  1  0
 18 38  1  0
 19 39  1  0
 21 40  1  0
 22 41  1  0
 23 42  1  0
 24 43  1  0
M  CHG  1  24   1
M  END
>  <UniqueID>  (17) 
17

>  <SMILES>  (17) 
Cc1cc(C#Cc2ccc3cc(OCCCF)ccc3c2)cc[nH+]1

>  <Energy>  (17) 
39.41578123401273

>  <Genealogy>  (17) 
Cc1cc(C#Cc2ccc3cc(OCCCF)ccc3c2)cc[nH+]1 (protonated)
Cc1cc(C#Cc2ccc3cc(OCCCF)ccc3c2)cc[nH+]1 (3D coordinates assigned)
Cc1cc(C#Cc2ccc3cc(OCCCF)ccc3c2)cc[nH+]1 (optimized conformer: 39.41578123401273 kcal/mol)

>  <smiles>  (17) 
Cc1cc(C#Cc2ccc3cc(OCCCF)ccc3c2)ccn1

>  <score_type>  (17) 
oracle

>  <origin>  (17) 
adg

>  <m_score__min__energy>  (17) 
-5.9199999999999999

>  <m_primary>  (17) 
energy

$$$$
17:0
     RDKit          3D

 52 55  0  0  0  0  0  0  0  0999 V2000
   57.4290   21.1020   44.8290 C   0  0  0  0  0  0  0  0  0  0  0  0
   56.6590   20.8140   43.7020 C   0  0  0  0  0  0  0  0  0  0  0  0
   56.1750   21.8270   42.9350 N   0  0  0  0  0  0  0  0  0  0  0  0
   56.4200   23.1310   43.2320 C   0  0  0  0  0  0  0  0  0  0  0  0
   57.1930   23.4720   44.3560 C   0  0  0  0  0  0  0  0  0  0  0  0
   57.4780   24.8920   44.6620 C   0  0  0  0  0  0  0  0  0  0  0  0
   57.7650   25.9110   43.7690 C   0  0  0  0  0  0  0  0  0  0  0  0
   57.9260   27.0260   44.5010 N   0  0  0  0  0  0  0  0  0  0  0  0
   58.1220   28.3850   43.9830 C   0  0  0  0  0  0  0  0  0  0  0  0
   56.9300   29.2680   44.3860 C   0  0  0  0  0  0  0  0  0  0  0  0
   57.2540   30.7550   44.1900 C   0  0  0  0  0  0  0  0  0  0  0  0
   58.4800   31.1950   44.9130 N   0  0  0  0  0  0  0  0  0  0  0  0
   58.2360   32.3270   45.8470 C   0  0  0  0  0  0  0  0  0  0  0  0
   58.0970   33.6590   45.0640 C   0  0  0  0  0  0  0  0  0  0  0  0
   59.4080   34.4580   44.9300 C   0  0  0  0  0  0  0  0  0  0  0  0
   59.8860   35.1570   46.2130 C   0  0  0  0  0  0  0  0  0  0  0  0
   58.9930   34.9110   47.4410 C   0  0  0  0  0  0  0  0  0  0  0  0
   59.0640   33.4940   48.0560 C   0  0  0  0  0  0  0  0  0  0  0  0
   59.2550   32.3540   47.0380 C   0  0  0  0  0  0  0  0  0  0  0  0
   59.3160   30.1000   45.4660 C   0  0  0  0  0  0  0  0  0  0  0  0
   59.4800   28.9690   44.4440 C   0  0  0  0  0  0  0  0  0  0  0  0
   57.7230   26.7090   45.7700 N   0  0  0  0  0  0  0  0  0  0  0  0
   57.4580   25.4200   45.9060 N   0  0  0  0  0  0  0  0  0  0  0  0
   57.6970   22.4330   45.1560 C   0  0  0  0  0  0  0  0  0  0  0  0
   57.8219   20.2873   45.4550 H   0  0  0  0  0  0  0  0  0  0  0  0
   56.4437   19.7690   43.4343 H   0  0  0  0  0  0  0  0  0  0  0  0
   56.0109   23.9242   42.5889 H   0  0  0  0  0  0  0  0  0  0  0  0
   57.8453   25.8244   42.6754 H   0  0  0  0  0  0  0  0  0  0  0  0
   58.1605   28.3543   42.8841 H   0  0  0  0  0  0  0  0  0  0  0  0
   56.0613   29.0045   43.7648 H   0  0  0  0  0  0  0  0  0  0  0  0
   56.7106   29.0951   45.4499 H   0  0  0  0  0  0  0  0  0  0  0  0
   57.3973   30.9417   43.1155 H   0  0  0  0  0  0  0  0  0  0  0  0
   56.4108   31.3277   44.6034 H   0  0  0  0  0  0  0  0  0  0  0  0
   57.2675   32.1733   46.3454 H   0  0  0  0  0  0  0  0  0  0  0  0
   57.7304   33.4273   44.0531 H   0  0  0  0  0  0  0  0  0  0  0  0
   57.4020   34.2897   45.6379 H   0  0  0  0  0  0  0  0  0  0  0  0
   60.1976   33.7635   44.6071 H   0  0  0  0  0  0  0  0  0  0  0  0
   59.2026   35.2598   44.2055 H   0  0  0  0  0  0  0  0  0  0  0  0
   60.8982   34.7946   46.4455 H   0  0  0  0  0  0  0  0  0  0  0  0
   59.8531   36.2381   46.0124 H   0  0  0  0  0  0  0  0  0  0  0  0
   59.2851   35.6311   48.2196 H   0  0  0  0  0  0  0  0  0  0  0  0
   57.9589   35.0290   47.0849 H   0  0  0  0  0  0  0  0  0  0  0  0
   59.9091   33.4689   48.7597 H   0  0  0  0  0  0  0  0  0  0  0  0
   58.0909   33.3176   48.5377 H   0  0  0  0  0  0  0  0  0  0  0  0
   60.2664   32.4447   46.6152 H   0  0  0  0  0  0  0  0  0  0  0  0
   59.0866   31.4219   47.5973 H   0  0  0  0  0  0  0  0  0  0  0  0
   60.3080   30.4992   45.7241 H   0  0  0  0  0  0  0  0  0  0  0  0
   58.8202   29.6964   46.3611 H   0  0  0  0  0  0  0  0  0  0  0  0
   60.0116   29.3622   43.5649 H   0  0  0  0  0  0  0  0  0  0  0  0
   60.0447   28.1593   44.9292 H   0  0  0  0  0  0  0  0  0  0  0  0
   57.7430   27.3850   46.5650 H   0  0  0  0  0  0  0  0  0  0  0  0
   58.3044   22.6685   46.0424 H   0  0  0  0  0  0  0  0  0  0  0  0
  1  2  2  0
  2  3  1  0
  3  4  2  0
  4  5  1  0
  5  6  1  0
  6  7  2  0
  7  8  1  0
  8  9  1  0
  9 10  1  0
 10 11  1  0
 11 12  1  0
 12 13  1  0
 13 14  1  0
 14 15  1  0
 15 16  1  0
 16 17  1  0
 17 18  1  0
 18 19  1  0
 12 20  1  0
 20 21  1  0
  8 22  1  0
 22 23  2  0
  5 24  2  0
 24  1  1  0
 23  6  1  0
 21  9  1  0
 19 13  1  0
  1 25  1  0
  2 26  1  0
  4 27  1  0
  7 28  1  0
  9 29  1  0
 10 30  1  0
 10 31  1  0
 11 32  1  0
 11 33  1  0
 13 34  1  0
 14 35  1  0
 14 36  1  0
 15 37  1  0
 15 38  1  0
 16 39  1  0
 16 40  1  0
 17 41  1  0
 17 42  1  0
 18 43  1  0
 18 44  1  0
 19 45  1  0
 19 46  1  0
 20 47  1  0
 20 48  1  0
 21 49  1  0
 21 50  1  0
 22 51  1  0
 24 52  1  0
M  CHG  1  22   1
M  END
>  <UniqueID>  (18) 
18

>  <SMILES>  (18) 
c1cncc(-c2cn(C3CCN(C4CCCCCC4)CC3)[nH+]n2)c1

>  <Energy>  (18) 
111.53899627259784

>  <Genealogy>  (18) 
c1cncc(-c2cn(C3CCN(C4CCCCCC4)CC3)[nH+]n2)c1 (protonated)
c1cncc(-c2cn(C3CCN(C4CCCCCC4)CC3)[nH+]n2)c1 (3D coordinates assigned)
c1cncc(-c2cn(C3CCN(C4CCCCCC4)CC3)[nH+]n2)c1 (nonaromatic ring conformer: 111.53899627259784 kcal/mol)

>  <smiles>  (18) 
c1cncc(-c2cn(C3CCN(C4CCCCCC4)CC3)nn2)c1

>  <score_type>  (18) 
oracle

>  <origin>  (18) 
adg

>  <m_score__min__energy>  (18) 
-5.5300000000000002

>  <m_primary>  (18) 
energy

$$$$
18:0
     RDKit          3D

 47 48  0  0  0  0  0  0  0  0999 V2000
   63.3650   33.8530   46.4030 C   0  0  0  0  0  0  0  0  0  0  0  0
   62.8000   32.6480   47.1630 C   0  0  0  0  0  0  0  0  0  0  0  0
   61.3110   32.6240   47.1550 N   0  0  0  0  0  0  0  0  0  0  0  0
   60.7720   33.9930   47.3830 C   0  0  0  0  0  0  0  0  0  0  0  0
   60.1900   34.1610   48.7910 C   0  0  0  0  0  0  0  0  0  0  0  0
   60.8060   31.6930   48.2000 C   0  0  0  0  0  0  0  0  0  0  0  0
   60.5750   30.2740   47.6470 C   0  0  0  0  0  0  0  0  0  0  0  0
   60.4770   30.3040   46.2230 O   0  0  0  0  0  0  0  0  0  0  0  0
   59.5870   29.5430   45.4440 C   0  0  0  0  0  0  0  0  0  0  0  0
   59.8080   28.1790   45.1780 C   0  0  0  0  0  0  0  0  0  0  0  0
   58.8940   27.4500   44.4200 C   0  0  0  0  0  0  0  0  0  0  0  0
   57.7540   28.0660   43.9090 C   0  0  0  0  0  0  0  0  0  0  0  0
   57.5160   29.4300   44.1430 C   0  0  0  0  0  0  0  0  0  0  0  0
   56.2800   30.0630   43.5590 C   0  0  0  0  0  0  0  0  0  0  0  0
   58.4300   30.1700   44.9320 C   0  0  0  0  0  0  0  0  0  0  0  0
   58.2010   31.6050   45.2220 C   0  0  0  0  0  0  0  0  0  0  0  0
   58.3770   32.5700   44.2170 C   0  0  0  0  0  0  0  0  0  0  0  0
   58.1530   33.9220   44.4940 C   0  0  0  0  0  0  0  0  0  0  0  0
   57.7500   34.3170   45.7730 C   0  0  0  0  0  0  0  0  0  0  0  0
   57.5680   33.3610   46.7760 C   0  0  0  0  0  0  0  0  0  0  0  0
   57.7900   32.0090   46.5030 C   0  0  0  0  0  0  0  0  0  0  0  0
   63.7185   34.6069   47.1218 H   0  0  0  0  0  0  0  0  0  0  0  0
   64.2042   33.5272   45.7709 H   0  0  0  0  0  0  0  0  0  0  0  0
   62.5778   34.2898   45.7709 H   0  0  0  0  0  0  0  0  0  0  0  0
   63.1714   31.7262   46.6915 H   0  0  0  0  0  0  0  0  0  0  0  0
   63.1303   32.7244   48.2095 H   0  0  0  0  0  0  0  0  0  0  0  0
   60.9860   32.2870   46.2170 H   0  0  0  0  0  0  0  0  0  0  0  0
   61.5855   34.7208   47.2472 H   0  0  0  0  0  0  0  0  0  0  0  0
   59.9595   34.1598   46.6605 H   0  0  0  0  0  0  0  0  0  0  0  0
   60.9661   33.9370   49.5377 H   0  0  0  0  0  0  0  0  0  0  0  0
   59.8422   35.1962   48.9229 H   0  0  0  0  0  0  0  0  0  0  0  0
   59.3440   33.4704   48.9229 H   0  0  0  0  0  0  0  0  0  0  0  0
   61.5429   31.6408   49.0150 H   0  0  0  0  0  0  0  0  0  0  0  0
   59.8406   32.0783   48.5600 H   0  0  0  0  0  0  0  0  0  0  0  0
   61.4176   29.6298   47.9387 H   0  0  0  0  0  0  0  0  0  0  0  0
   59.6356   29.8786   48.0608 H   0  0  0  0  0  0  0  0  0  0  0  0
   60.7086   27.6848   45.5712 H   0  0  0  0  0  0  0  0  0  0  0  0
   59.0736   26.3826   44.2241 H   0  0  0  0  0  0  0  0  0  0  0  0
   57.0350   27.4798   43.3179 H   0  0  0  0  0  0  0  0  0  0  0  0
   55.6213   30.4003   44.3728 H   0  0  0  0  0  0  0  0  0  0  0  0
   56.5675   30.9248   42.9389 H   0  0  0  0  0  0  0  0  0  0  0  0
   55.7487   29.3260   42.9389 H   0  0  0  0  0  0  0  0  0  0  0  0
   58.6919   32.2614   43.2092 H   0  0  0  0  0  0  0  0  0  0  0  0
   58.2940   34.6754   43.7050 H   0  0  0  0  0  0  0  0  0  0  0  0
   57.5760   35.3812   45.9901 H   0  0  0  0  0  0  0  0  0  0  0  0
   57.2496   33.6734   47.7815 H   0  0  0  0  0  0  0  0  0  0  0  0
   57.6425   31.2585   47.2936 H   0  0  0  0  0  0  0  0  0  0  0  0
  1  2  1  0
  2  3  1  0
  3  4  1  0
  4  5  1  0
  3  6  1  0
  6  7  1  0
  7  8  1  0
  8  9  1  0
  9 10  2  0
 10 11  1  0
 11 12  2  0
 12 13  1  0
 13 14  1  0
 13 15  2  0
 15 16  1  0
 16 17  2  0
 17 18  1  0
 18 19  2  0
 19 20  1  0
 20 21  2  0
 15  9  1  0
 21 16  1  0
  1 22  1  0
  1 23  1  0
  1 24  1  0
  2 25  1  0
  2 26  1  0
  3 27  1  0
  4 28  1  0
  4 29  1  0
  5 30  1  0
  5 31  1  0
  5 32  1  0
  6 33  1  0
  6 34  1  0
  7 35  1  0
  7 36  1  0
 10 37  1  0
 11 38  1  0
 12 39  1  0
 14 40  1  0
 14 41  1  0
 14 42  1  0
 17 43  1  0
 18 44  1  0
 19 45  1  0
 20 46  1  0
 21 47  1  0
M  CHG  1   3   1
M  END
>  <UniqueID>  (19) 
19

>  <SMILES>  (19) 
CC[NH+](CC)CCOc1cccc(C)c1-c1ccccc1

>  <Energy>  (19) 
55.18086250824376

>  <Genealogy>  (19) 
CC[NH+](CC)CCOc1cccc(C)c1-c1ccccc1 (protonated)
CC[NH+](CC)CCOc1cccc(C)c1-c1ccccc1 (3D coordinates assigned)
CC[NH+](CC)CCOc1cccc(C)c1-c1ccccc1 (optimized conformer: 55.18086250824376 kcal/mol)

>  <smiles>  (19) 
CCN(CC)CCOc1cccc(C)c1-c1ccccc1

>  <score_type>  (19) 
oracle

>  <origin>  (19) 
adg

>  <m_score__min__energy>  (19) 
-4.8300000000000001

>  <m_primary>  (19) 
energy

$$$$
19:0
     RDKit          3D

 46 47  0  0  0  0  0  0  0  0999 V2000
   59.4891   26.8712   44.1024 H   0  0  0  0  0  0  0  0  0  0  0  0
   59.0770   27.8680   44.3180 C   0  0  0  0  0  0  0  0  0  0  0  0
   59.8840   28.8460   44.9050 C   0  0  0  0  0  0  0  0  0  0  0  0
   60.9350   28.6227   45.1405 H   0  0  0  0  0  0  0  0  0  0  0  0
   59.3570   30.1070   45.1930 C   0  0  0  0  0  0  0  0  0  0  0  0
   60.0003   30.8799   45.6388 H   0  0  0  0  0  0  0  0  0  0  0  0
   58.0080   30.3940   44.9160 C   0  0  0  0  0  0  0  0  0  0  0  0
   57.4580   31.6900   45.2020 N   0  0  0  0  0  0  0  0  0  0  0  0
   57.4060   32.2390   46.3570 N   0  0  0  0  0  0  0  0  0  0  0  0
   58.5180   32.4080   47.2490 C   0  0  0  0  0  0  0  0  0  0  0  0
   59.1620   33.5970   47.5510 C   0  0  0  0  0  0  0  0  0  0  0  0
   58.9030   34.9420   46.9350 C   0  0  0  0  0  0  0  0  0  0  0  0
   57.8229   35.0477   46.7557 H   0  0  0  0  0  0  0  0  0  0  0  0
   59.2694   35.7097   47.6324 H   0  0  0  0  0  0  0  0  0  0  0  0
   59.6450   35.1210   45.6040 C   0  0  0  0  0  0  0  0  0  0  0  0
   59.5428   36.1676   45.2811 H   0  0  0  0  0  0  0  0  0  0  0  0
   60.6981   34.8497   45.7693 H   0  0  0  0  0  0  0  0  0  0  0  0
   59.0990   34.2130   44.5030 C   0  0  0  0  0  0  0  0  0  0  0  0
   58.5829   33.3547   44.9579 H   0  0  0  0  0  0  0  0  0  0  0  0
   58.3908   34.7782   43.8792 H   0  0  0  0  0  0  0  0  0  0  0  0
   59.9302   33.8525   43.8792 H   0  0  0  0  0  0  0  0  0  0  0  0
   60.1040   33.3530   48.4880 N   0  0  0  0  0  0  0  0  0  0  0  0
   60.7660   34.0500   48.8970 H   0  0  0  0  0  0  0  0  0  0  0  0
   60.0660   32.0670   48.8090 N   0  0  0  0  0  0  0  0  0  0  0  0
   60.9930   31.4160   49.7360 C   0  0  0  0  0  0  0  0  0  0  0  0
   60.6989   30.3629   49.8565 H   0  0  0  0  0  0  0  0  0  0  0  0
   60.9493   31.9448   50.6996 H   0  0  0  0  0  0  0  0  0  0  0  0
   62.4390   31.4760   49.2140 C   0  0  0  0  0  0  0  0  0  0  0  0
   62.9507   30.5487   49.5111 H   0  0  0  0  0  0  0  0  0  0  0  0
   62.8937   32.3765   49.6526 H   0  0  0  0  0  0  0  0  0  0  0  0
   62.5590   31.6240   47.6810 C   0  0  0  0  0  0  0  0  0  0  0  0
   61.5694   31.8911   47.2818 H   0  0  0  0  0  0  0  0  0  0  0  0
   62.9274   30.6606   47.2986 H   0  0  0  0  0  0  0  0  0  0  0  0
   63.5670   32.6940   47.2270 C   0  0  0  0  0  0  0  0  0  0  0  0
   64.3062   32.2184   46.5657 H   0  0  0  0  0  0  0  0  0  0  0  0
   64.0285   33.1112   48.1342 H   0  0  0  0  0  0  0  0  0  0  0  0
   62.9210   33.8550   46.4750 C   0  0  0  0  0  0  0  0  0  0  0  0
   62.5175   34.5802   47.1969 H   0  0  0  0  0  0  0  0  0  0  0  0
   63.6749   34.3473   45.8431 H   0  0  0  0  0  0  0  0  0  0  0  0
   62.1052   33.4739   45.8431 H   0  0  0  0  0  0  0  0  0  0  0  0
   59.0920   31.4750   48.0900 C   0  0  0  0  0  0  0  0  0  0  0  0
   58.7490   30.2690   48.2120 O   0  0  0  0  0  0  0  0  0  0  0  0
   57.2120   29.4190   44.2900 C   0  0  0  0  0  0  0  0  0  0  0  0
   55.5320   29.7500   43.8920 Cl  0  0  0  0  0  0  0  0  0  0  0  0
   57.7460   28.1570   44.0050 C   0  0  0  0  0  0  0  0  0  0  0  0
   57.1154   27.3894   43.5327 H   0  0  0  0  0  0  0  0  0  0  0  0
  1  2  1  0
  2  3  2  0
  3  4  1  0
  3  5  1  0
  5  6  1  0
  5  7  2  0
  7  8  1  0
  8  9  2  0
  9 10  1  0
 10 11  2  0
 11 12  1  0
 12 13  1  0
 12 14  1  0
 12 15  1  0
 15 16  1  0
 15 17  1  0
 15 18  1  0
 18 19  1  0
 18 20  1  0
 18 21  1  0
 11 22  1  0
 22 23  1  0
 22 24  1  0
 24 25  1  0
 25 26  1  0
 25 27  1  0
 25 28  1  0
 28 29  1  0
 28 30  1  0
 28 31  1  0
 31 32  1  0
 31 33  1  0
 31 34  1  0
 34 35  1  0
 34 36  1  0
 34 37  1  0
 37 38  1  0
 37 39  1  0
 37 40  1  0
 24 41  1  0
 41 42  2  0
  7 43  1  0
 43 44  1  0
 43 45  2  0
 45 46  1  0
 45  2  1  0
 41 10  1  0
M  END
>  <UniqueID>  (20) 
20

>  <SMILES>  (20) 
CCCCCn1[nH]c(CCC)c(/N=N\c2ccccc2Cl)c1=O

>  <Energy>  (20) 
78.93862702088859

>  <Genealogy>  (20) 
CCCCCn1[nH]c(CCC)c(/N=N\c2ccccc2Cl)c1=O (cis-trans isomerization)
CCCCCn1[nH]c(CCC)c(/N=N\c2ccccc2Cl)c1=O (3D coordinates assigned)
CCCCCn1[nH]c(CCC)c(/N=N\c2ccccc2Cl)c1=O (optimized conformer: 78.93862702088859 kcal/mol)

>  <smiles>  (20) 
CCCCCn1[nH]c(CCC)c(N=Nc2ccccc2Cl)c1=O

>  <score_type>  (20) 
oracle

>  <origin>  (20) 
adg

>  <m_score__min__energy>  (20) 
-7.7699999999999996

>  <m_primary>  (20) 
energy

$$$$
20:0
     RDKit          3D

 42 44  0  0  0  0  0  0  0  0999 V2000
   55.6470   26.5450   46.1830 O   0  0  0  0  0  0  0  0  0  0  0  0
   56.3440   27.4250   45.6130 C   0  0  0  0  0  0  0  0  0  0  0  0
   57.7030   27.1290   45.2840 N   0  0  0  0  0  0  0  0  0  0  0  0
   58.7720   28.1130   45.3900 C   0  0  0  0  0  0  0  0  0  0  0  0
   59.5880   27.8750   46.6610 C   0  0  0  0  0  0  0  0  0  0  0  0
   59.9500   29.1740   47.3340 C   0  0  0  0  0  0  0  0  0  0  0  0
   60.8770   30.0470   46.7410 C   0  0  0  0  0  0  0  0  0  0  0  0
   61.2340   31.2380   47.3840 C   0  0  0  0  0  0  0  0  0  0  0  0
   60.6740   31.5600   48.6230 C   0  0  0  0  0  0  0  0  0  0  0  0
   59.7590   30.6900   49.2240 C   0  0  0  0  0  0  0  0  0  0  0  0
   59.4000   29.4990   48.5850 C   0  0  0  0  0  0  0  0  0  0  0  0
   55.7760   28.6900   45.2500 N   0  0  0  0  0  0  0  0  0  0  0  0
   56.4190   29.7370   44.5080 C   0  0  0  0  0  0  0  0  0  0  0  0
   56.4000   29.7750   43.1030 C   0  0  0  0  0  0  0  0  0  0  0  0
   57.0170   30.8260   42.4210 C   0  0  0  0  0  0  0  0  0  0  0  0
   57.6440   31.8530   43.1290 C   0  0  0  0  0  0  0  0  0  0  0  0
   57.6520   31.8450   44.5360 C   0  0  0  0  0  0  0  0  0  0  0  0
   58.3070   32.9440   45.2920 C   0  0  0  0  0  0  0  0  0  0  0  0
   58.9860   33.9740   44.6150 C   0  0  0  0  0  0  0  0  0  0  0  0
   59.6010   35.0070   45.3290 C   0  0  0  0  0  0  0  0  0  0  0  0
   59.5450   35.0230   46.7250 C   0  0  0  0  0  0  0  0  0  0  0  0
   58.8740   34.0070   47.4090 C   0  0  0  0  0  0  0  0  0  0  0  0
   58.2570   32.9710   46.6990 C   0  0  0  0  0  0  0  0  0  0  0  0
   57.0270   30.7820   45.2140 C   0  0  0  0  0  0  0  0  0  0  0  0
   59.4317   28.0279   44.5139 H   0  0  0  0  0  0  0  0  0  0  0  0
   58.3294   29.1191   45.4320 H   0  0  0  0  0  0  0  0  0  0  0  0
   58.9951   27.2642   47.3577 H   0  0  0  0  0  0  0  0  0  0  0  0
   60.5185   27.3583   46.3831 H   0  0  0  0  0  0  0  0  0  0  0  0
   61.3238   29.7939   45.7682 H   0  0  0  0  0  0  0  0  0  0  0  0
   61.9563   31.9213   46.9133 H   0  0  0  0  0  0  0  0  0  0  0  0
   60.9529   32.4979   49.1256 H   0  0  0  0  0  0  0  0  0  0  0  0
   59.3209   30.9428   50.2008 H   0  0  0  0  0  0  0  0  0  0  0  0
   58.6844   28.8143   49.0637 H   0  0  0  0  0  0  0  0  0  0  0  0
   55.8979   28.9749   42.5393 H   0  0  0  0  0  0  0  0  0  0  0  0
   57.0089   30.8447   41.3212 H   0  0  0  0  0  0  0  0  0  0  0  0
   58.1345   32.6729   42.5839 H   0  0  0  0  0  0  0  0  0  0  0  0
   59.0333   33.9664   43.5160 H   0  0  0  0  0  0  0  0  0  0  0  0
   60.1295   35.8079   44.7911 H   0  0  0  0  0  0  0  0  0  0  0  0
   60.0296   35.8361   47.2854 H   0  0  0  0  0  0  0  0  0  0  0  0
   58.8304   34.0212   48.5080 H   0  0  0  0  0  0  0  0  0  0  0  0
   57.7300   32.1733   47.2430 H   0  0  0  0  0  0  0  0  0  0  0  0
   57.0160   30.7720   46.3139 H   0  0  0  0  0  0  0  0  0  0  0  0
  1  2  2  0
  2  3  1  0
  3  4  1  0
  4  5  1  0
  5  6  1  0
  6  7  2  0
  7  8  1  0
  8  9  2  0
  9 10  1  0
 10 11  2  0
  2 12  1  0
 12 13  1  0
 13 14  2  0
 14 15  1  0
 15 16  2  0
 16 17  1  0
 17 18  1  0
 18 19  2  0
 19 20  1  0
 20 21  2  0
 21 22  1  0
 22 23  2  0
 17 24  2  0
 11  6  1  0
 24 13  1  0
 23 18  1  0
  4 25  1  0
  4 26  1  0
  5 27  1  0
  5 28  1  0
  7 29  1  0
  8 30  1  0
  9 31  1  0
 10 32  1  0
 11 33  1  0
 14 34  1  0
 15 35  1  0
 16 36  1  0
 19 37  1  0
 20 38  1  0
 21 39  1  0
 22 40  1  0
 23 41  1  0
 24 42  1  0
M  CHG  2   3  -1  12  -1
M  END
>  <UniqueID>  (21) 
21

>  <SMILES>  (21) 
O=C([N-]CCc1ccccc1)[N-]c1cccc(-c2ccccc2)c1

>  <Energy>  (21) 
48.16372078147162

>  <Genealogy>  (21) 
O=C([N-]CCc1ccccc1)[N-]c1cccc(-c2ccccc2)c1 (protonated)
O=C([N-]CCc1ccccc1)[N-]c1cccc(-c2ccccc2)c1 (3D coordinates assigned)
O=C([N-]CCc1ccccc1)[N-]c1cccc(-c2ccccc2)c1 (optimized conformer: 48.16372078147162 kcal/mol)

>  <smiles>  (21) 
O=C(NCCc1ccccc1)Nc1cccc(-c2ccccc2)c1

>  <score_type>  (21) 
oracle

>  <origin>  (21) 
adg

>  <m_score__min__energy>  (21) 
-12.82

>  <m_primary>  (21) 
energy

$$$$
21:0
     RDKit          3D

 39 39  0  0  0  0  0  0  0  0999 V2000
   57.4100   33.7740   45.1810 C   0  0  0  0  0  0  0  0  0  0  0  0
   57.4140   32.2770   45.4700 C   0  0  0  0  0  0  0  0  0  0  0  0
   56.5950   31.5680   44.4940 N   0  0  0  0  0  0  0  0  0  0  0  0
   56.4090   30.1480   44.4970 C   0  0  0  0  0  0  0  0  0  0  0  0
   55.3440   29.6460   44.9500 O   0  0  0  0  0  0  0  0  0  0  0  0
   57.4850   29.2490   43.9570 C   0  0  1  0  0  0  0  0  0  0  0  0
   58.8640   29.6880   44.4790 C   0  0  0  0  0  0  0  0  0  0  0  0
   59.2610   28.8930   45.6960 C   0  0  0  0  0  0  0  0  0  0  0  0
   58.6490   29.1420   46.9370 C   0  0  0  0  0  0  0  0  0  0  0  0
   58.9850   28.3710   48.0550 C   0  0  0  0  0  0  0  0  0  0  0  0
   59.9260   27.3450   47.9400 C   0  0  0  0  0  0  0  0  0  0  0  0
   60.5320   27.0850   46.7070 C   0  0  0  0  0  0  0  0  0  0  0  0
   60.1980   27.8530   45.5870 C   0  0  0  0  0  0  0  0  0  0  0  0
   57.2070   27.8670   44.3620 N   0  0  0  0  0  0  0  0  0  0  0  0
   57.7630   26.7260   43.6920 C   0  0  0  0  0  0  0  0  0  0  0  0
   58.5520   26.8740   42.7190 O   0  0  0  0  0  0  0  0  0  0  0  0
   57.3700   25.3420   44.1180 C   0  0  0  0  0  0  0  0  0  0  0  0
   57.1490   25.2630   45.6330 C   0  0  0  0  0  0  0  0  0  0  0  0
   55.7060   25.4550   45.9930 C   0  0  0  0  0  0  0  0  0  0  0  0
   54.9920   24.4650   46.3000 O   0  0  0  0  0  0  0  0  0  0  0  0
   55.1400   26.7220   45.9460 O   0  0  0  0  0  0  0  0  0  0  0  0
   57.4085   34.3306   46.1298 H   0  0  0  0  0  0  0  0  0  0  0  0
   58.3074   34.0381   44.6024 H   0  0  0  0  0  0  0  0  0  0  0  0
   56.5112   34.0333   44.6024 H   0  0  0  0  0  0  0  0  0  0  0  0
   58.4464   31.9008   45.4183 H   0  0  0  0  0  0  0  0  0  0  0  0
   56.9991   32.1067   46.4744 H   0  0  0  0  0  0  0  0  0  0  0  0
   57.4955   29.3150   42.8590 H   0  0  0  0  0  0  0  0  0  0  0  0
   59.6133   29.5334   43.6886 H   0  0  0  0  0  0  0  0  0  0  0  0
   58.8102   30.7507   44.7579 H   0  0  0  0  0  0  0  0  0  0  0  0
   57.9036   29.9456   47.0292 H   0  0  0  0  0  0  0  0  0  0  0  0
   58.5078   28.5729   49.0253 H   0  0  0  0  0  0  0  0  0  0  0  0
   60.1905   26.7409   48.8204 H   0  0  0  0  0  0  0  0  0  0  0  0
   61.2719   26.2759   46.6179 H   0  0  0  0  0  0  0  0  0  0  0  0
   60.6712   27.6415   44.6168 H   0  0  0  0  0  0  0  0  0  0  0  0
   56.6160   27.7060   45.2100 H   0  0  0  0  0  0  0  0  0  0  0  0
   56.4381   25.0612   43.6055 H   0  0  0  0  0  0  0  0  0  0  0  0
   58.1856   24.6537   43.8514 H   0  0  0  0  0  0  0  0  0  0  0  0
   57.4774   24.2758   45.9903 H   0  0  0  0  0  0  0  0  0  0  0  0
   57.7310   26.0671   46.1071 H   0  0  0  0  0  0  0  0  0  0  0  0
  1  2  1  0
  2  3  1  0
  3  4  1  0
  4  5  2  0
  4  6  1  0
  6  7  1  0
  7  8  1  0
  8  9  2  0
  9 10  1  0
 10 11  2  0
 11 12  1  0
 12 13  2  0
  6 14  1  0
 14 15  1  0
 15 16  2  0
 15 17  1  0
 17 18  1  0
 18 19  1  0
 19 20  2  0
 19 21  1  0
 13  8  1  0
  1 22  1  0
  1 23  1  0
  1 24  1  0
  2 25  1  0
  2 26  1  0
  6 27  1  6
  7 28  1  0
  7 29  1  0
  9 30  1  0
 10 31  1  0
 11 32  1  0
 12 33  1  0
 13 34  1  0
 14 35  1  0
 17 36  1  0
 17 37  1  0
 18 38  1  0
 18 39  1  0
M  CHG  2   3  -1  21  -1
M  END
>  <UniqueID>  (22) 
22

>  <SMILES>  (22) 
CC[N-]C(=O)[C@@H](Cc1ccccc1)NC(=O)CCC(=O)[O-]

>  <Energy>  (22) 
22.15024516405063

>  <Genealogy>  (22) 
CC[N-]C(=O)C(Cc1ccccc1)NC(=O)CCC(=O)[O-] (protonated)
CC[N-]C(=O)[C@@H](Cc1ccccc1)NC(=O)CCC(=O)[O-] (chirality)
CC[N-]C(=O)[C@@H](Cc1ccccc1)NC(=O)CCC(=O)[O-] (3D coordinates assigned)
CC[N-]C(=O)[C@@H](Cc1ccccc1)NC(=O)CCC(=O)[O-] (optimized conformer: 22.15024516405063 kcal/mol)

>  <smiles>  (22) 
CCNC(=O)C(Cc1ccccc1)NC(=O)CCC(=O)O

>  <score_type>  (22) 
oracle

>  <origin>  (22) 
adg

>  <m_score__min__energy>  (22) 
-11.109999999999999

>  <m_primary>  (22) 
energy

$$$$
22:0
     RDKit          3D

 48 51  0  0  0  0  0  0  0  0999 V2000
   56.5287   29.8636   42.3504 H   0  0  0  0  0  0  0  0  0  0  0  0
   57.0010   30.5920   43.0260 C   0  0  0  0  0  0  0  0  0  0  0  0
   57.4890   31.7990   42.5210 C   0  0  0  0  0  0  0  0  0  0  0  0
   57.3912   32.0252   41.4490 H   0  0  0  0  0  0  0  0  0  0  0  0
   58.1020   32.7210   43.3760 C   0  0  0  0  0  0  0  0  0  0  0  0
   58.4708   33.6768   42.9755 H   0  0  0  0  0  0  0  0  0  0  0  0
   58.2490   32.4340   44.7400 C   0  0  0  0  0  0  0  0  0  0  0  0
   58.8530   33.4220   45.5900 N   0  0  0  0  0  0  0  0  0  0  0  0
   59.3040   33.2470   46.8020 C   0  0  0  0  0  0  0  0  0  0  0  0
   58.4580   32.9020   47.8120 N   0  0  0  0  0  0  0  0  0  0  0  0
   58.8730   32.6900   49.0890 C   0  0  0  0  0  0  0  0  0  0  0  0
   57.8930   32.3460   50.0850 N   0  0  0  0  0  0  0  0  0  0  0  0
   56.8890   32.4860   49.8270 H   0  0  0  0  0  0  0  0  0  0  0  0
   58.2190   31.7890   51.4050 C   0  0  2  0  0  0  0  0  0  0  0  0
   59.1835   32.2406   51.6803 H   0  0  0  0  0  0  0  0  0  0  0  0
   58.2450   30.2700   51.3720 C   0  0  0  0  0  0  0  0  0  0  0  0
   58.9428   29.8957   52.1356 H   0  0  0  0  0  0  0  0  0  0  0  0
   58.5765   29.9237   50.3820 H   0  0  0  0  0  0  0  0  0  0  0  0
   56.9490   29.7870   51.6380 O   0  0  0  0  0  0  0  0  0  0  0  0
   56.2330   30.8240   52.2720 C   0  0  0  0  0  0  0  0  0  0  0  0
   55.9309   30.4972   53.2780 H   0  0  0  0  0  0  0  0  0  0  0  0
   55.3398   31.0653   51.6770 H   0  0  0  0  0  0  0  0  0  0  0  0
   57.1090   32.0590   52.3850 C   0  0  0  0  0  0  0  0  0  0  0  0
   57.5034   32.1700   53.4059 H   0  0  0  0  0  0  0  0  0  0  0  0
   56.5661   32.9919   52.1731 H   0  0  0  0  0  0  0  0  0  0  0  0
   60.2370   32.8160   49.3950 C   0  0  0  0  0  0  0  0  0  0  0  0
   60.5883   32.6598   50.4256 H   0  0  0  0  0  0  0  0  0  0  0  0
   61.1510   33.1420   48.3810 C   0  0  0  0  0  0  0  0  0  0  0  0
   62.5330   33.2740   48.6280 C   0  0  0  0  0  0  0  0  0  0  0  0
   63.0880   33.0300   49.9300 N   0  0  0  0  0  0  0  0  0  0  0  0
   64.0380   31.9300   50.0990 C   0  0  0  0  0  0  0  0  0  0  0  0
   64.1978   31.7450   51.1715 H   0  0  0  0  0  0  0  0  0  0  0  0
   63.6355   31.0220   49.6263 H   0  0  0  0  0  0  0  0  0  0  0  0
   64.9949   32.1961   49.6263 H   0  0  0  0  0  0  0  0  0  0  0  0
   63.1150   34.1230   50.8980 C   0  0  0  0  0  0  0  0  0  0  0  0
   63.1048   33.7102   51.9175 H   0  0  0  0  0  0  0  0  0  0  0  0
   64.0281   34.7189   50.7528 H   0  0  0  0  0  0  0  0  0  0  0  0
   62.2324   34.7633   50.7528 H   0  0  0  0  0  0  0  0  0  0  0  0
   63.3600   33.6400   47.6150 N   0  0  0  0  0  0  0  0  0  0  0  0
   62.8930   33.8630   46.3620 C   0  0  0  0  0  0  0  0  0  0  0  0
   63.5892   34.1580   45.5631 H   0  0  0  0  0  0  0  0  0  0  0  0
   61.5700   33.7240   46.0880 N   0  0  0  0  0  0  0  0  0  0  0  0
   61.2510   33.9030   45.1100 H   0  0  0  0  0  0  0  0  0  0  0  0
   60.6830   33.3730   47.0680 C   0  0  0  0  0  0  0  0  0  0  0  0
   57.7250   31.2290   45.2480 C   0  0  0  0  0  0  0  0  0  0  0  0
   57.7976   31.0103   46.3236 H   0  0  0  0  0  0  0  0  0  0  0  0
   57.1130   30.3100   44.3900 C   0  0  0  0  0  0  0  0  0  0  0  0
   56.7192   29.3637   44.7894 H   0  0  0  0  0  0  0  0  0  0  0  0
  1  2  1  0
  2  3  2  0
  3  4  1  0
  3  5  1  0
  5  6  1  0
  5  7  2  0
  7  8  1  0
  8  9  2  0
  9 10  1  0
 10 11  1  0
 11 12  1  0
 12 13  1  0
 12 14  1  0
 14 15  1  1
 14 16  1  0
 16 17  1  0
 16 18  1  0
 16 19  1  0
 19 20  1  0
 20 21  1  0
 20 22  1  0
 20 23  1  0
 23 24  1  0
 23 25  1  0
 11 26  2  0
 26 27  1  0
 26 28  1  0
 28 29  2  0
 29 30  1  0
 30 31  1  0
 31 32  1  0
 31 33  1  0
 31 34  1  0
 30 35  1  0
 35 36  1  0
 35 37  1  0
 35 38  1  0
 29 39  1  0
 39 40  2  0
 40 41  1  0
 40 42  1  0
 42 43  1  0
 42 44  2  0
  7 45  1  0
 45 46  1  0
 45 47  2  0
 47 48  1  0
 47  2  1  0
 44  9  1  0
 23 14  1  0
 44 28  1  0
M  CHG  2  10  -1  42   1
M  END
>  <UniqueID>  (23) 
23

>  <SMILES>  (23) 
CN(C)c1nc[nH+]c2/c(=N/c3ccccc3)[n-]c(N[C@H]3CCOC3)cc12

>  <Energy>  (23) 
67.20958595860957

>  <Genealogy>  (23) 
CN(C)c1nc[nH+]c2c(=Nc3ccccc3)[n-]c(NC3CCOC3)cc12 (protonated)
CN(C)c1nc[nH+]c2c(=Nc3ccccc3)[n-]c(N[C@H]3CCOC3)cc12 (chirality)
CN(C)c1nc[nH+]c2/c(=N/c3ccccc3)[n-]c(N[C@H]3CCOC3)cc12 (cis-trans isomerization)
CN(C)c1nc[nH+]c2/c(=N/c3ccccc3)[n-]c(N[C@H]3CCOC3)cc12 (3D coordinates assigned)
CN(C)c1nc[nH+]c2/c(=N/c3ccccc3)[n-]c(N[C@H]3CCOC3)cc12 (nonaromatic ring conformer: 67.20958595860957 kcal/mol)

>  <smiles>  (23) 
CN(C)c1ncnc2c(=Nc3ccccc3)[nH]c(NC3CCOC3)cc12

>  <score_type>  (23) 
oracle

>  <origin>  (23) 
adg

>  <m_score__min__energy>  (23) 
-7.8899999999999997

>  <m_primary>  (23) 
energy

$$$$
23:0
     RDKit          3D

 48 51  0  0  0  0  0  0  0  0999 V2000
   58.0050   34.8660   44.8760 C   0  0  0  0  0  0  0  0  0  0  0  0
   58.9700   33.7320   45.2440 C   0  0  1  0  0  0  0  0  0  0  0  0
   59.4580   33.9020   46.6930 C   0  0  0  0  0  0  0  0  0  0  0  0
   60.1180   32.6670   47.1350 N   0  0  0  0  0  0  0  0  0  0  0  0
   61.4740   32.6870   47.6240 C   0  0  0  0  0  0  0  0  0  0  0  0
   62.4540   33.4670   46.9830 C   0  0  0  0  0  0  0  0  0  0  0  0
   63.7710   33.4740   47.4520 C   0  0  0  0  0  0  0  0  0  0  0  0
   64.1250   32.6990   48.5580 C   0  0  0  0  0  0  0  0  0  0  0  0
   63.1620   31.9150   49.1980 C   0  0  0  0  0  0  0  0  0  0  0  0
   61.8430   31.9040   48.7340 C   0  0  0  0  0  0  0  0  0  0  0  0
   59.4080   31.3860   47.0070 C   0  0  0  0  0  0  0  0  0  0  0  0
   58.1050   31.5390   46.2100 C   0  0  0  0  0  0  0  0  0  0  0  0
   58.3210   32.4170   45.0480 N   0  0  0  0  0  0  0  0  0  0  0  0
   57.9540   32.0000   43.7140 C   0  0  0  0  0  0  0  0  0  0  0  0
   58.4370   32.6040   42.7190 O   0  0  0  0  0  0  0  0  0  0  0  0
   56.9760   30.8810   43.4670 C   0  0  0  0  0  0  0  0  0  0  0  0
   57.3620   29.6810   44.2110 N   0  0  0  0  0  0  0  0  0  0  0  0
   58.6260   29.2210   44.3890 C   0  0  0  0  0  0  0  0  0  0  0  0
   58.5790   28.0760   45.1590 C   0  0  0  0  0  0  0  0  0  0  0  0
   59.6000   27.2430   45.6110 C   0  0  0  0  0  0  0  0  0  0  0  0
   59.2390   26.1330   46.3990 C   0  0  0  0  0  0  0  0  0  0  0  0
   57.8840   25.8860   46.7130 C   0  0  0  0  0  0  0  0  0  0  0  0
   56.8740   26.7460   46.2430 C   0  0  0  0  0  0  0  0  0  0  0  0
   57.2630   27.8340   45.4640 C   0  0  0  0  0  0  0  0  0  0  0  0
   56.5330   28.8400   44.8740 C   0  0  0  0  0  0  0  0  0  0  0  0
   55.1530   28.9900   44.9490 O   0  0  0  0  0  0  0  0  0  0  0  0
   57.6131   35.3266   45.7948 H   0  0  0  0  0  0  0  0  0  0  0  0
   58.5389   35.6244   44.2846 H   0  0  0  0  0  0  0  0  0  0  0  0
   57.1709   34.4603   44.2846 H   0  0  0  0  0  0  0  0  0  0  0  0
   59.8456   33.7775   44.5797 H   0  0  0  0  0  0  0  0  0  0  0  0
   60.1716   34.7376   46.7440 H   0  0  0  0  0  0  0  0  0  0  0  0
   58.5990   34.1131   47.3469 H   0  0  0  0  0  0  0  0  0  0  0  0
   62.1823   34.0750   46.1075 H   0  0  0  0  0  0  0  0  0  0  0  0
   64.5297   34.0913   46.9487 H   0  0  0  0  0  0  0  0  0  0  0  0
   65.1618   32.7057   48.9253 H   0  0  0  0  0  0  0  0  0  0  0  0
   63.4421   31.3047   50.0693 H   0  0  0  0  0  0  0  0  0  0  0  0
   61.0903   31.2806   49.2387 H   0  0  0  0  0  0  0  0  0  0  0  0
   60.0601   30.6665   46.4902 H   0  0  0  0  0  0  0  0  0  0  0  0
   59.1539   31.0312   48.0167 H   0  0  0  0  0  0  0  0  0  0  0  0
   57.7737   30.5497   45.8615 H   0  0  0  0  0  0  0  0  0  0  0  0
   57.3369   31.9845   46.8592 H   0  0  0  0  0  0  0  0  0  0  0  0
   55.9741   31.1995   43.7906 H   0  0  0  0  0  0  0  0  0  0  0  0
   56.9737   30.6448   42.3927 H   0  0  0  0  0  0  0  0  0  0  0  0
   59.5386   29.6844   43.9859 H   0  0  0  0  0  0  0  0  0  0  0  0
   60.6520   27.4453   45.3610 H   0  0  0  0  0  0  0  0  0  0  0  0
   60.0184   25.4528   46.7730 H   0  0  0  0  0  0  0  0  0  0  0  0
   57.6164   25.0151   47.3294 H   0  0  0  0  0  0  0  0  0  0  0  0
   55.8155   26.5658   46.4820 H   0  0  0  0  0  0  0  0  0  0  0  0
  1  2  1  0
  2  3  1  0
  3  4  1  0
  4  5  1  0
  5  6  2  0
  6  7  1  0
  7  8  2  0
  8  9  1  0
  9 10  2  0
  4 11  1  0
 11 12  1  0
 12 13  1  0
 13 14  1  0
 14 15  2  0
 14 16  1  0
 16 17  1  0
 17 18  1  0
 18 19  2  0
 19 20  1  0
 20 21  2  0
 21 22  1  0
 22 23  2  0
 23 24  1  0
 24 25  2  0
 25 26  1  0
 13  2  1  0
 25 17  1  0
 10  5  1  0
 24 19  1  0
  1 27  1  0
  1 28  1  0
  1 29  1  0
  2 30  1  6
  3 31  1  0
  3 32  1  0
  6 33  1  0
  7 34  1  0
  8 35  1  0
  9 36  1  0
 10 37  1  0
 11 38  1  0
 11 39  1  0
 12 40  1  0
 12 41  1  0
 16 42  1  0
 16 43  1  0
 18 44  1  0
 20 45  1  0
 21 46  1  0
 22 47  1  0
 23 48  1  0
M  CHG  1  26  -1
M  END
>  <UniqueID>  (24) 
24

>  <SMILES>  (24) 
C[C@H]1CN(c2ccccc2)CCN1C(=O)Cn1cc2ccccc2c1[O-]

>  <Energy>  (24) 
90.32898032887258

>  <Genealogy>  (24) 
CC1CN(c2ccccc2)CCN1C(=O)Cn1cc2ccccc2c1[O-] (protonated)
C[C@H]1CN(c2ccccc2)CCN1C(=O)Cn1cc2ccccc2c1[O-] (chirality)
C[C@H]1CN(c2ccccc2)CCN1C(=O)Cn1cc2ccccc2c1[O-] (3D coordinates assigned)
C[C@H]1CN(c2ccccc2)CCN1C(=O)Cn1cc2ccccc2c1[O-] (nonaromatic ring conformer: 90.32898032887258 kcal/mol)

>  <smiles>  (24) 
CC1CN(c2ccccc2)CCN1C(=O)Cn1cc2ccccc2c1O

>  <score_type>  (24) 
oracle

>  <origin>  (24) 
adg

>  <m_score__min__energy>  (24) 
-12.380000000000001

>  <m_primary>  (24) 
energy

$$$$
24:0
     RDKit          3D

 32 34  0  0  0  0  0  0  0  0999 V2000
   54.8980   24.4330   45.6040 C   0  0  0  0  0  0  0  0  0  0  0  0
   55.2800   25.5730   46.3640 O   0  0  0  0  0  0  0  0  0  0  0  0
   56.5690   26.1260   46.3570 C   0  0  0  0  0  0  0  0  0  0  0  0
   57.7010   25.4630   46.8920 C   0  0  0  0  0  0  0  0  0  0  0  0
   58.9750   26.0750   46.8530 C   0  0  0  0  0  0  0  0  0  0  0  0
   59.1390   27.3510   46.2840 C   0  0  0  0  0  0  0  0  0  0  0  0
   58.0060   27.9780   45.7640 C   0  0  0  0  0  0  0  0  0  0  0  0
   56.7740   27.3860   45.8020 C   0  0  0  0  0  0  0  0  0  0  0  0
   55.8960   28.1880   45.2480 O   0  0  0  0  0  0  0  0  0  0  0  0
   56.5670   29.2610   44.8700 C   0  0  0  0  0  0  0  0  0  0  0  0
   55.8560   30.5330   44.1230 S   0  0  0  0  0  0  0  0  0  0  0  0
   57.8930   29.1830   45.1720 N   0  0  0  0  0  0  0  0  0  0  0  0
   58.9650   30.1360   44.8680 C   0  0  0  0  0  0  0  0  0  0  0  0
   58.5990   31.5120   45.3570 C   0  0  0  0  0  0  0  0  0  0  0  0
   58.3350   32.5490   44.4440 C   0  0  0  0  0  0  0  0  0  0  0  0
   57.9780   33.8200   44.9050 C   0  0  0  0  0  0  0  0  0  0  0  0
   57.8810   34.0660   46.2780 C   0  0  0  0  0  0  0  0  0  0  0  0
   58.1440   33.0420   47.1910 C   0  0  0  0  0  0  0  0  0  0  0  0
   58.5010   31.7690   46.7350 C   0  0  0  0  0  0  0  0  0  0  0  0
   54.6235   23.6137   46.2847 H   0  0  0  0  0  0  0  0  0  0  0  0
   54.0359   24.6872   44.9698 H   0  0  0  0  0  0  0  0  0  0  0  0
   55.7392   24.1165   44.9698 H   0  0  0  0  0  0  0  0  0  0  0  0
   57.5880   24.4651   47.3409 H   0  0  0  0  0  0  0  0  0  0  0  0
   59.8456   25.5487   47.2713 H   0  0  0  0  0  0  0  0  0  0  0  0
   60.1252   27.8372   46.2502 H   0  0  0  0  0  0  0  0  0  0  0  0
   59.8912   29.8098   45.3637 H   0  0  0  0  0  0  0  0  0  0  0  0
   59.1116   30.1721   43.7784 H   0  0  0  0  0  0  0  0  0  0  0  0
   58.4097   32.3594   43.3630 H   0  0  0  0  0  0  0  0  0  0  0  0
   57.7732   34.6274   44.1865 H   0  0  0  0  0  0  0  0  0  0  0  0
   57.5977   35.0657   46.6391 H   0  0  0  0  0  0  0  0  0  0  0  0
   58.0701   33.2373   48.2710 H   0  0  0  0  0  0  0  0  0  0  0  0
   58.7059   30.9657   47.4580 H   0  0  0  0  0  0  0  0  0  0  0  0
  1  2  1  0
  2  3  1  0
  3  4  2  0
  4  5  1  0
  5  6  2  0
  6  7  1  0
  7  8  2  0
  8  9  1  0
  9 10  1  0
 10 11  2  0
 10 12  1  0
 12 13  1  0
 13 14  1  0
 14 15  2  0
 15 16  1  0
 16 17  2  0
 17 18  1  0
 18 19  2  0
  8  3  1  0
 19 14  1  0
 12  7  1  0
  1 20  1  0
  1 21  1  0
  1 22  1  0
  4 23  1  0
  5 24  1  0
  6 25  1  0
 13 26  1  0
 13 27  1  0
 15 28  1  0
 16 29  1  0
 17 30  1  0
 18 31  1  0
 19 32  1  0
M  END
>  <UniqueID>  (25) 
25

>  <SMILES>  (25) 
COc1cccc2c1oc(=S)n2Cc1ccccc1

>  <Energy>  (25) 
73.55644446416095

>  <Genealogy>  (25) 
COc1cccc2c1oc(=S)n2Cc1ccccc1 (3D coordinates assigned)
COc1cccc2c1oc(=S)n2Cc1ccccc1 (optimized conformer: 73.55644446416095 kcal/mol)

>  <smiles>  (25) 
COc1cccc2c1oc(=S)n2Cc1ccccc1

>  <score_type>  (25) 
oracle

>  <origin>  (25) 
adg

>  <m_score__min__energy>  (25) 
-7.5

>  <m_primary>  (25) 
energy

$$$$
25:0
     RDKit          3D

 49 52  0  0  0  0  0  0  0  0999 V2000
   55.4270   29.8750   53.2250 C   0  0  0  0  0  0  0  0  0  0  0  0
   56.6020   30.6500   53.4440 O   0  0  0  0  0  0  0  0  0  0  0  0
   57.4000   31.1830   52.4200 C   0  0  0  0  0  0  0  0  0  0  0  0
   57.7490   32.5380   52.4890 C   0  0  0  0  0  0  0  0  0  0  0  0
   58.5310   33.1230   51.4880 C   0  0  0  0  0  0  0  0  0  0  0  0
   58.9970   32.3520   50.4120 C   0  0  0  0  0  0  0  0  0  0  0  0
   58.6570   30.9890   50.3480 C   0  0  0  0  0  0  0  0  0  0  0  0
   57.8540   30.4100   51.3360 C   0  0  0  0  0  0  0  0  0  0  0  0
   59.3230   29.9810   49.0190 S   0  0  0  0  0  0  0  0  0  0  0  0
   58.9200   31.1940   47.7560 C   0  0  0  0  0  0  0  0  0  0  0  0
   58.3660   30.7850   46.5420 C   0  0  0  0  0  0  0  0  0  0  0  0
   58.1470   31.7160   45.5230 C   0  0  0  0  0  0  0  0  0  0  0  0
   58.4520   33.0740   45.7220 C   0  0  0  0  0  0  0  0  0  0  0  0
   58.2550   34.0750   44.6110 C   0  0  0  0  0  0  0  0  0  0  0  0
   59.1450   35.1260   44.7400 F   0  0  0  0  0  0  0  0  0  0  0  0
   56.9710   34.5900   44.6320 F   0  0  0  0  0  0  0  0  0  0  0  0
   58.4680   33.4510   43.3950 F   0  0  0  0  0  0  0  0  0  0  0  0
   59.0110   33.4790   46.9470 C   0  0  0  0  0  0  0  0  0  0  0  0
   59.2430   32.5450   47.9720 C   0  0  0  0  0  0  0  0  0  0  0  0
   59.6680   32.9630   49.2880 N   0  0  0  0  0  0  0  0  0  0  0  0
   60.7830   33.9080   49.4820 C   0  0  0  0  0  0  0  0  0  0  0  0
   62.0470   33.5350   48.6710 C   0  0  0  0  0  0  0  0  0  0  0  0
   62.0200   34.0560   47.2250 C   0  0  0  0  0  0  0  0  0  0  0  0
   63.3780   33.8240   46.5270 C   0  0  0  0  0  0  0  0  0  0  0  0
   64.1430   32.6920   47.0960 N   0  0  0  0  0  0  0  0  0  0  0  0
   63.2730   31.5900   47.5320 C   0  0  0  0  0  0  0  0  0  0  0  0
   62.3550   32.0200   48.6960 C   0  0  0  0  0  0  0  0  0  0  0  0
   54.9915   29.5877   54.1934 H   0  0  0  0  0  0  0  0  0  0  0  0
   54.6966   30.4692   52.6562 H   0  0  0  0  0  0  0  0  0  0  0  0
   55.6856   28.9697   52.6562 H   0  0  0  0  0  0  0  0  0  0  0  0
   57.4050   33.1471   53.3379 H   0  0  0  0  0  0  0  0  0  0  0  0
   58.7820   34.1925   51.5443 H   0  0  0  0  0  0  0  0  0  0  0  0
   57.5769   29.3478   51.2652 H   0  0  0  0  0  0  0  0  0  0  0  0
   58.1014   29.7286   46.3871 H   0  0  0  0  0  0  0  0  0  0  0  0
   57.7334   31.3843   44.5592 H   0  0  0  0  0  0  0  0  0  0  0  0
   59.2692   34.5365   47.1049 H   0  0  0  0  0  0  0  0  0  0  0  0
   60.4507   34.9093   49.1705 H   0  0  0  0  0  0  0  0  0  0  0  0
   61.0569   33.8759   50.5469 H   0  0  0  0  0  0  0  0  0  0  0  0
   62.8684   34.0520   49.1887 H   0  0  0  0  0  0  0  0  0  0  0  0
   61.2337   33.5268   46.6667 H   0  0  0  0  0  0  0  0  0  0  0  0
   61.8172   35.1369   47.2460 H   0  0  0  0  0  0  0  0  0  0  0  0
   63.1928   33.6200   45.4621 H   0  0  0  0  0  0  0  0  0  0  0  0
   63.9804   34.7321   46.6765 H   0  0  0  0  0  0  0  0  0  0  0  0
   64.8020   32.3300   46.3670 H   0  0  0  0  0  0  0  0  0  0  0  0
   64.7180   33.0230   47.9050 H   0  0  0  0  0  0  0  0  0  0  0  0
   62.6492   31.2703   46.6843 H   0  0  0  0  0  0  0  0  0  0  0  0
   63.9107   30.7650   47.8823 H   0  0  0  0  0  0  0  0  0  0  0  0
   61.4080   31.4652   48.6233 H   0  0  0  0  0  0  0  0  0  0  0  0
   62.8789   31.7984   49.6375 H   0  0  0  0  0  0  0  0  0  0  0  0
  1  2  1  0
  2  3  1  0
  3  4  2  0
  4  5  1  0
  5  6  2  0
  6  7  1  0
  7  8  2  0
  7  9  1  0
  9 10  1  0
 10 11  2  0
 11 12  1  0
 12 13  2  0
 13 14  1  0
 14 15  1  0
 14 16  1  0
 14 17  1  0
 13 18  1  0
 18 19  2  0
 19 20  1  0
 20 21  1  0
 21 22  1  0
 22 23  1  0
 23 24  1  0
 24 25  1  0
 25 26  1  0
 26 27  1  0
  8  3  1  0
 19 10  1  0
 27 22  1  0
 20  6  1  0
  1 28  1  0
  1 29  1  0
  1 30  1  0
  4 31  1  0
  5 32  1  0
  8 33  1  0
 11 34  1  0
 12 35  1  0
 18 36  1  0
 21 37  1  0
 21 38  1  0
 22 39  1  0
 23 40  1  0
 23 41  1  0
 24 42  1  0
 24 43  1  0
 25 44  1  0
 25 45  1  0
 26 46  1  0
 26 47  1  0
 27 48  1  0
 27 49  1  0
M  CHG  1  25   1
M  END
>  <UniqueID>  (26) 
26

>  <SMILES>  (26) 
COc1ccc2c(c1)Sc1ccc(C(F)(F)F)cc1N2CC1CC[NH2+]CC1

>  <Energy>  (26) 
73.27709577278766

>  <Genealogy>  (26) 
COc1ccc2c(c1)Sc1ccc(C(F)(F)F)cc1N2CC1CC[NH2+]CC1 (protonated)
COc1ccc2c(c1)Sc1ccc(C(F)(F)F)cc1N2CC1CC[NH2+]CC1 (3D coordinates assigned)
COc1ccc2c(c1)Sc1ccc(C(F)(F)F)cc1N2CC1CC[NH2+]CC1 (nonaromatic ring conformer: 73.27709577278766 kcal/mol)

>  <smiles>  (26) 
COc1ccc2c(c1)Sc1ccc(C(F)(F)F)cc1N2CC1CCNCC1

>  <score_type>  (26) 
oracle

>  <origin>  (26) 
adg

>  <m_score__min__energy>  (26) 
-6.25

>  <m_primary>  (26) 
energy

$$$$
26:0
     RDKit          3D

 49 51  0  0  0  0  0  0  0  0999 V2000
   61.1390   30.3270   46.4940 C   0  0  0  0  0  0  0  0  0  0  0  0
   61.2370   31.7270   46.7270 O   0  0  0  0  0  0  0  0  0  0  0  0
   62.0020   32.3190   47.7440 C   0  0  0  0  0  0  0  0  0  0  0  0
   63.3130   31.8850   48.0270 C   0  0  0  0  0  0  0  0  0  0  0  0
   64.0430   32.4690   49.0650 C   0  0  0  0  0  0  0  0  0  0  0  0
   63.4770   33.4880   49.8330 C   0  0  0  0  0  0  0  0  0  0  0  0
   64.3940   34.2140   51.1410 Cl  0  0  0  0  0  0  0  0  0  0  0  0
   62.1810   33.9310   49.5580 C   0  0  0  0  0  0  0  0  0  0  0  0
   61.4420   33.3660   48.5080 C   0  0  0  0  0  0  0  0  0  0  0  0
   60.0700   33.8740   48.2560 C   0  0  0  0  0  0  0  0  0  0  0  0
   59.5220   34.5540   49.1650 O   0  0  0  0  0  0  0  0  0  0  0  0
   59.3580   33.6730   47.0050 N   0  0  0  0  0  0  0  0  0  0  0  0
   57.8900   33.7800   47.1400 C   0  0  0  0  0  0  0  0  0  0  0  0
   57.1920   33.3700   45.8260 C   0  0  0  0  0  0  0  0  0  0  0  0
   57.9050   33.8260   44.6040 N   0  0  0  0  0  0  0  0  0  0  0  0
   58.5250   32.7080   43.8580 C   0  0  0  0  0  0  0  0  0  0  0  0
   57.8590   31.3980   44.1960 C   0  0  0  0  0  0  0  0  0  0  0  0
   56.7660   30.9520   43.4390 C   0  0  0  0  0  0  0  0  0  0  0  0
   56.1640   29.7250   43.7290 C   0  0  0  0  0  0  0  0  0  0  0  0
   56.6460   28.9360   44.7760 C   0  0  0  0  0  0  0  0  0  0  0  0
   57.7300   29.3770   45.5510 C   0  0  0  0  0  0  0  0  0  0  0  0
   58.2770   28.5090   46.6450 C   0  0  0  0  0  0  0  0  0  0  0  0
   58.3440   30.6020   45.2470 C   0  0  0  0  0  0  0  0  0  0  0  0
   58.8480   34.9330   44.8760 C   0  0  0  0  0  0  0  0  0  0  0  0
   59.8970   34.5640   45.9470 C   0  0  0  0  0  0  0  0  0  0  0  0
   61.1019   29.7967   47.4570 H   0  0  0  0  0  0  0  0  0  0  0  0
   60.2237   30.1136   45.9224 H   0  0  0  0  0  0  0  0  0  0  0  0
   62.0156   29.9882   45.9224 H   0  0  0  0  0  0  0  0  0  0  0  0
   63.7641   31.0813   47.4266 H   0  0  0  0  0  0  0  0  0  0  0  0
   65.0660   32.1252   49.2776 H   0  0  0  0  0  0  0  0  0  0  0  0
   61.7362   34.7296   50.1699 H   0  0  0  0  0  0  0  0  0  0  0  0
   59.5570   32.6830   46.7220 H   0  0  0  0  0  0  0  0  0  0  0  0
   57.5523   33.1175   47.9506 H   0  0  0  0  0  0  0  0  0  0  0  0
   57.6302   34.8242   47.3685 H   0  0  0  0  0  0  0  0  0  0  0  0
   57.1213   32.2726   45.7979 H   0  0  0  0  0  0  0  0  0  0  0  0
   56.2042   33.8540   45.8217 H   0  0  0  0  0  0  0  0  0  0  0  0
   58.4233   32.8954   42.7789 H   0  0  0  0  0  0  0  0  0  0  0  0
   59.5864   32.6446   44.1397 H   0  0  0  0  0  0  0  0  0  0  0  0
   56.3814   31.5701   42.6143 H   0  0  0  0  0  0  0  0  0  0  0  0
   55.3079   29.3793   43.1310 H   0  0  0  0  0  0  0  0  0  0  0  0
   56.1747   27.9662   44.9938 H   0  0  0  0  0  0  0  0  0  0  0  0
   58.0074   28.9368   47.6219 H   0  0  0  0  0  0  0  0  0  0  0  0
   57.8525   27.4980   46.5577 H   0  0  0  0  0  0  0  0  0  0  0  0
   59.3722   28.4556   46.5577 H   0  0  0  0  0  0  0  0  0  0  0  0
   59.2098   30.9406   45.8350 H   0  0  0  0  0  0  0  0  0  0  0  0
   59.3711   35.1886   43.9427 H   0  0  0  0  0  0  0  0  0  0  0  0
   58.2646   35.7839   45.2576 H   0  0  0  0  0  0  0  0  0  0  0  0
   60.7371   34.0535   45.4534 H   0  0  0  0  0  0  0  0  0  0  0  0
   60.2127   35.4986   46.4337 H   0  0  0  0  0  0  0  0  0  0  0  0
  1  2  1  0
  2  3  1  0
  3  4  2  0
  4  5  1  0
  5  6  2  0
  6  7  1  0
  6  8  1  0
  8  9  2  0
  9 10  1  0
 10 11  2  0
 10 12  1  0
 12 13  1  0
 13 14  1  0
 14 15  1  0
 15 16  1  0
 16 17  1  0
 17 18  2  0
 18 19  1  0
 19 20  2  0
 20 21  1  0
 21 22  1  0
 21 23  2  0
 15 24  1  0
 24 25  1  0
  9  3  1  0
 25 12  1  0
 23 17  1  0
  1 26  1  0
  1 27  1  0
  1 28  1  0
  4 29  1  0
  5 30  1  0
  8 31  1  0
 12 32  1  0
 13 33  1  0
 13 34  1  0
 14 35  1  0
 14 36  1  0
 16 37  1  0
 16 38  1  0
 18 39  1  0
 19 40  1  0
 20 41  1  0
 22 42  1  0
 22 43  1  0
 22 44  1  0
 23 45  1  0
 24 46  1  0
 24 47  1  0
 25 48  1  0
 25 49  1  0
M  CHG  1  12   1
M  END
>  <UniqueID>  (27) 
27

>  <SMILES>  (27) 
COc1ccc(Cl)cc1C(=O)[NH+]1CCN(Cc2cccc(C)c2)CC1

>  <Energy>  (27) 
72.01825990687591

>  <Genealogy>  (27) 
COc1ccc(Cl)cc1C(=O)[NH+]1CCN(Cc2cccc(C)c2)CC1 (protonated)
COc1ccc(Cl)cc1C(=O)[NH+]1CCN(Cc2cccc(C)c2)CC1 (3D coordinates assigned)
COc1ccc(Cl)cc1C(=O)[NH+]1CCN(Cc2cccc(C)c2)CC1 (nonaromatic ring conformer: 72.01825990687591 kcal/mol)

>  <smiles>  (27) 
COc1ccc(Cl)cc1C(=O)N1CCN(Cc2cccc(C)c2)CC1

>  <score_type>  (27) 
oracle

>  <origin>  (27) 
adg

>  <m_score__min__energy>  (27) 
-6.8600000000000003

>  <m_primary>  (27) 
energy

$$$$
27:0
     RDKit          3D

 46 48  0  0  0  0  0  0  0  0999 V2000
   55.7470   29.7210   43.3540 C   0  0  0  0  0  0  0  0  0  0  0  0
   56.9990   29.7370   44.1130 N   0  0  0  0  0  0  0  0  0  0  0  0
   57.8020   28.5110   44.1930 C   0  0  0  0  0  0  0  0  0  0  0  0
   59.2720   28.8210   44.5070 C   0  0  0  0  0  0  0  0  0  0  0  0
   59.6460   28.4430   45.9540 C   0  0  0  0  0  0  0  0  0  0  0  0
   59.6310   29.6150   46.8660 N   0  0  0  0  0  0  0  0  0  0  0  0
   59.3990   29.1860   48.2720 C   0  0  0  0  0  0  0  0  0  0  0  0
   60.7170   29.0840   49.0610 C   0  0  0  0  0  0  0  0  0  0  0  0
   61.4350   30.3090   49.1340 O   0  0  0  0  0  0  0  0  0  0  0  0
   61.2000   31.1740   48.0310 C   0  0  0  0  0  0  0  0  0  0  0  0
   60.8680   30.4270   46.7270 C   0  0  0  0  0  0  0  0  0  0  0  0
   57.5300   30.9710   44.6290 C   0  0  0  0  0  0  0  0  0  0  0  0
   57.5800   31.2360   45.9610 N   0  0  0  0  0  0  0  0  0  0  0  0
   58.1190   32.4670   46.0020 C   0  0  0  0  0  0  0  0  0  0  0  0
   58.4030   33.2310   47.1320 C   0  0  0  0  0  0  0  0  0  0  0  0
   58.9700   34.5040   46.9380 C   0  0  0  0  0  0  0  0  0  0  0  0
   59.2340   34.9790   45.6340 C   0  0  0  0  0  0  0  0  0  0  0  0
   58.9330   34.1840   44.5120 C   0  0  0  0  0  0  0  0  0  0  0  0
   58.3720   32.9250   44.7410 C   0  0  0  0  0  0  0  0  0  0  0  0
   57.9870   31.9930   43.8530 N   0  0  0  0  0  0  0  0  0  0  0  0
   58.0370   32.0890   42.3940 C   0  0  0  0  0  0  0  0  0  0  0  0
   54.8959   29.7101   44.0508 H   0  0  0  0  0  0  0  0  0  0  0  0
   55.6908   30.6185   42.7205 H   0  0  0  0  0  0  0  0  0  0  0  0
   55.7137   28.8224   42.7205 H   0  0  0  0  0  0  0  0  0  0  0  0
   57.3947   27.8681   44.9873 H   0  0  0  0  0  0  0  0  0  0  0  0
   57.7568   28.0045   43.2176 H   0  0  0  0  0  0  0  0  0  0  0  0
   59.9105   28.2521   43.8151 H   0  0  0  0  0  0  0  0  0  0  0  0
   59.4233   29.9041   44.3890 H   0  0  0  0  0  0  0  0  0  0  0  0
   58.9246   27.6990   46.3227 H   0  0  0  0  0  0  0  0  0  0  0  0
   60.6694   28.0398   45.9420 H   0  0  0  0  0  0  0  0  0  0  0  0
   58.8160   30.2170   46.5930 H   0  0  0  0  0  0  0  0  0  0  0  0
   58.7442   29.9195   48.7651 H   0  0  0  0  0  0  0  0  0  0  0  0
   58.9321   28.1902   48.2541 H   0  0  0  0  0  0  0  0  0  0  0  0
   60.4845   28.7561   50.0849 H   0  0  0  0  0  0  0  0  0  0  0  0
   61.3574   28.3671   48.5263 H   0  0  0  0  0  0  0  0  0  0  0  0
   60.3556   31.8338   48.2793 H   0  0  0  0  0  0  0  0  0  0  0  0
   62.1295   31.7355   47.8554 H   0  0  0  0  0  0  0  0  0  0  0  0
   60.7251   31.1613   45.9205 H   0  0  0  0  0  0  0  0  0  0  0  0
   61.7025   29.7489   46.4949 H   0  0  0  0  0  0  0  0  0  0  0  0
   58.1909   32.8515   48.1424 H   0  0  0  0  0  0  0  0  0  0  0  0
   59.2094   35.1337   47.8076 H   0  0  0  0  0  0  0  0  0  0  0  0
   59.6774   35.9760   45.4946 H   0  0  0  0  0  0  0  0  0  0  0  0
   59.1324   34.5413   43.4909 H   0  0  0  0  0  0  0  0  0  0  0  0
   58.5273   33.0304   42.1051 H   0  0  0  0  0  0  0  0  0  0  0  0
   58.6072   31.2395   41.9900 H   0  0  0  0  0  0  0  0  0  0  0  0
   57.0141   32.0693   41.9900 H   0  0  0  0  0  0  0  0  0  0  0  0
  1  2  1  0
  2  3  1  0
  3  4  1  0
  4  5  1  0
  5  6  1  0
  6  7  1  0
  7  8  1  0
  8  9  1  0
  9 10  1  0
 10 11  1  0
  2 12  1  0
 12 13  2  0
 13 14  1  0
 14 15  2  0
 15 16  1  0
 16 17  2  0
 17 18  1  0
 18 19  2  0
 19 20  1  0
 20 21  1  0
 11  6  1  0
 20 12  1  0
 19 14  1  0
  1 22  1  0
  1 23  1  0
  1 24  1  0
  3 25  1  0
  3 26  1  0
  4 27  1  0
  4 28  1  0
  5 29  1  0
  5 30  1  0
  6 31  1  0
  7 32  1  0
  7 33  1  0
  8 34  1  0
  8 35  1  0
 10 36  1  0
 10 37  1  0
 11 38  1  0
 11 39  1  0
 15 40  1  0
 16 41  1  0
 17 42  1  0
 18 43  1  0
 21 44  1  0
 21 45  1  0
 21 46  1  0
M  CHG  1   6   1
M  END
>  <UniqueID>  (28) 
28

>  <SMILES>  (28) 
CN(CCC[NH+]1CCOCC1)c1nc2ccccc2n1C

>  <Energy>  (28) 
97.37114307467922

>  <Genealogy>  (28) 
CN(CCC[NH+]1CCOCC1)c1nc2ccccc2n1C (protonated)
CN(CCC[NH+]1CCOCC1)c1nc2ccccc2n1C (3D coordinates assigned)
CN(CCC[NH+]1CCOCC1)c1nc2ccccc2n1C (nonaromatic ring conformer: 97.37114307467922 kcal/mol)

>  <smiles>  (28) 
CN(CCCN1CCOCC1)c1nc2ccccc2n1C

>  <score_type>  (28) 
oracle

>  <origin>  (28) 
adg

>  <m_score__min__energy>  (28) 
-5.1699999999999999

>  <m_primary>  (28) 
energy

$$$$
28:0
     RDKit          3D

 36 38  0  0  0  0  0  0  0  0999 V2000
   65.6980   33.8290   51.5150 Br  0  0  0  0  0  0  0  0  0  0  0  0
   64.2470   33.6490   50.2850 C   0  0  0  0  0  0  0  0  0  0  0  0
   64.4190   32.9550   49.0870 C   0  0  0  0  0  0  0  0  0  0  0  0
   63.3500   32.8290   48.1960 C   0  0  0  0  0  0  0  0  0  0  0  0
   62.1090   33.4070   48.5160 C   0  0  0  0  0  0  0  0  0  0  0  0
   60.9800   33.2970   47.6250 N   0  0  0  0  0  0  0  0  0  0  0  0
   59.9620   32.2710   47.8790 C   0  0  0  0  0  0  0  0  0  0  0  0
   58.5590   32.8240   47.6200 C   0  0  0  0  0  0  0  0  0  0  0  0
   58.4220   33.5490   46.2660 C   0  0  0  0  0  0  0  0  0  0  0  0
   58.1240   32.6090   45.1010 C   0  0  0  0  0  0  0  0  0  0  0  0
   57.8360   31.2560   45.3640 C   0  0  0  0  0  0  0  0  0  0  0  0
   57.5690   30.3790   44.3120 C   0  0  0  0  0  0  0  0  0  0  0  0
   57.5880   30.8250   43.0280 N   0  0  0  0  0  0  0  0  0  0  0  0
   57.8670   32.1220   42.7360 C   0  0  0  0  0  0  0  0  0  0  0  0
   58.1410   33.0330   43.7600 C   0  0  0  0  0  0  0  0  0  0  0  0
   59.5820   34.5350   45.9950 C   0  0  0  0  0  0  0  0  0  0  0  0
   60.9750   33.9870   46.3290 C   0  0  0  0  0  0  0  0  0  0  0  0
   61.9720   34.0730   49.6980 N   0  0  0  0  0  0  0  0  0  0  0  0
   63.0000   34.2060   50.5780 C   0  0  0  0  0  0  0  0  0  0  0  0
   65.3943   32.5079   48.8443 H   0  0  0  0  0  0  0  0  0  0  0  0
   63.4786   32.2813   47.2507 H   0  0  0  0  0  0  0  0  0  0  0  0
   60.1403   31.4132   47.2139 H   0  0  0  0  0  0  0  0  0  0  0  0
   60.0299   31.9589   48.9316 H   0  0  0  0  0  0  0  0  0  0  0  0
   57.8459   31.9867   47.6399 H   0  0  0  0  0  0  0  0  0  0  0  0
   58.3545   33.5662   48.4057 H   0  0  0  0  0  0  0  0  0  0  0  0
   57.5221   34.1759   46.3505 H   0  0  0  0  0  0  0  0  0  0  0  0
   57.8215   30.8896   46.4011 H   0  0  0  0  0  0  0  0  0  0  0  0
   57.3424   29.3233   44.5224 H   0  0  0  0  0  0  0  0  0  0  0  0
   57.3860   30.1570   42.2500 H   0  0  0  0  0  0  0  0  0  0  0  0
   57.8773   32.4570   41.6883 H   0  0  0  0  0  0  0  0  0  0  0  0
   58.3698   34.0812   43.5172 H   0  0  0  0  0  0  0  0  0  0  0  0
   59.5644   34.8009   44.9278 H   0  0  0  0  0  0  0  0  0  0  0  0
   59.4191   35.3985   46.6567 H   0  0  0  0  0  0  0  0  0  0  0  0
   61.2788   33.2783   45.5445 H   0  0  0  0  0  0  0  0  0  0  0  0
   61.6769   34.8322   46.3829 H   0  0  0  0  0  0  0  0  0  0  0  0
   62.8496   34.7523   51.5208 H   0  0  0  0  0  0  0  0  0  0  0  0
  1  2  1  0
  2  3  2  0
  3  4  1  0
  4  5  2  0
  5  6  1  0
  6  7  1  0
  7  8  1  0
  8  9  1  0
  9 10  1  0
 10 11  2  0
 11 12  1  0
 12 13  2  0
 13 14  1  0
 14 15  2  0
  9 16  1  0
 16 17  1  0
  5 18  1  0
 18 19  2  0
 19  2  1  0
 17  6  1  0
 15 10  1  0
  3 20  1  0
  4 21  1  0
  7 22  1  0
  7 23  1  0
  8 24  1  0
  8 25  1  0
  9 26  1  0
 11 27  1  0
 12 28  1  0
 13 29  1  0
 14 30  1  0
 15 31  1  0
 16 32  1  0
 16 33  1  0
 17 34  1  0
 17 35  1  0
 19 36  1  0
M  CHG  1  13   1
M  END
>  <UniqueID>  (29) 
29

>  <SMILES>  (29) 
Brc1ccc(N2CCC(c3cc[nH+]cc3)CC2)nc1

>  <Energy>  (29) 
44.64525781222955

>  <Genealogy>  (29) 
Brc1ccc(N2CCC(c3cc[nH+]cc3)CC2)nc1 (protonated)
Brc1ccc(N2CCC(c3cc[nH+]cc3)CC2)nc1 (3D coordinates assigned)
Brc1ccc(N2CCC(c3cc[nH+]cc3)CC2)nc1 (nonaromatic ring conformer: 44.64525781222955 kcal/mol)

>  <smiles>  (29) 
Brc1ccc(N2CCC(c3ccncc3)CC2)nc1

>  <score_type>  (29) 
oracle

>  <origin>  (29) 
adg

>  <m_score__min__energy>  (29) 
-5.4199999999999999

>  <m_primary>  (29) 
energy

$$$$
29:0
     RDKit          3D

 39 40  0  0  0  0  0  0  0  0999 V2000
   61.0090   33.6050   49.8150 C   0  0  0  0  0  0  0  0  0  0  0  0
   61.0370   33.0020   48.4710 N   0  0  0  0  0  0  0  0  0  0  0  0
   62.2450   32.1610   48.3120 C   0  0  0  0  0  0  0  0  0  0  0  0
   61.9080   30.8530   47.5820 C   0  0  0  0  0  0  0  0  0  0  0  0
   60.7220   31.0130   46.7410 N   0  0  0  0  0  0  0  0  0  0  0  0
   60.2050   29.9490   45.9270 C   0  0  0  0  0  0  0  0  0  0  0  0
   60.9560   28.9870   45.6100 O   0  0  0  0  0  0  0  0  0  0  0  0
   58.8010   29.9690   45.4560 C   0  0  0  0  0  0  0  0  0  0  0  0
   58.3180   31.0600   44.7140 C   0  0  0  0  0  0  0  0  0  0  0  0
   56.9960   31.0600   44.2640 C   0  0  0  0  0  0  0  0  0  0  0  0
   56.1820   30.0060   44.5360 N   0  0  0  0  0  0  0  0  0  0  0  0
   56.6220   28.9320   45.2420 C   0  0  0  0  0  0  0  0  0  0  0  0
   57.9360   28.8910   45.7120 C   0  0  0  0  0  0  0  0  0  0  0  0
   60.9660   34.0490   47.4300 C   0  0  0  0  0  0  0  0  0  0  0  0
   59.6180   34.0210   46.7600 C   0  0  0  0  0  0  0  0  0  0  0  0
   59.4380   34.5930   45.4880 C   0  0  0  0  0  0  0  0  0  0  0  0
   58.1750   34.5930   44.8900 C   0  0  0  0  0  0  0  0  0  0  0  0
   57.0830   34.0260   45.5560 C   0  0  0  0  0  0  0  0  0  0  0  0
   57.2550   33.4580   46.8220 C   0  0  0  0  0  0  0  0  0  0  0  0
   58.5170   33.4550   47.4220 C   0  0  0  0  0  0  0  0  0  0  0  0
   61.0459   32.8100   50.5744 H   0  0  0  0  0  0  0  0  0  0  0  0
   61.8773   34.2692   49.9370 H   0  0  0  0  0  0  0  0  0  0  0  0
   60.0829   34.1859   49.9370 H   0  0  0  0  0  0  0  0  0  0  0  0
   62.9960   32.7153   47.7301 H   0  0  0  0  0  0  0  0  0  0  0  0
   62.6374   31.9161   49.3100 H   0  0  0  0  0  0  0  0  0  0  0  0
   62.7607   30.5636   46.9502 H   0  0  0  0  0  0  0  0  0  0  0  0
   61.7033   30.0753   48.3325 H   0  0  0  0  0  0  0  0  0  0  0  0
   60.2510   31.9450   46.7300 H   0  0  0  0  0  0  0  0  0  0  0  0
   58.9783   31.9104   44.4885 H   0  0  0  0  0  0  0  0  0  0  0  0
   56.6125   31.9151   43.6880 H   0  0  0  0  0  0  0  0  0  0  0  0
   55.9409   28.0921   45.4440 H   0  0  0  0  0  0  0  0  0  0  0  0
   58.2927   28.0192   46.2800 H   0  0  0  0  0  0  0  0  0  0  0  0
   61.1216   35.0343   47.8936 H   0  0  0  0  0  0  0  0  0  0  0  0
   61.7463   33.8624   46.6775 H   0  0  0  0  0  0  0  0  0  0  0  0
   60.2938   35.0417   44.9623 H   0  0  0  0  0  0  0  0  0  0  0  0
   58.0391   35.0395   43.8939 H   0  0  0  0  0  0  0  0  0  0  0  0
   56.0895   34.0271   45.0838 H   0  0  0  0  0  0  0  0  0  0  0  0
   56.3962   33.0132   47.3461 H   0  0  0  0  0  0  0  0  0  0  0  0
   58.6484   33.0069   48.4180 H   0  0  0  0  0  0  0  0  0  0  0  0
  1  2  1  0
  2  3  1  0
  3  4  1  0
  4  5  1  0
  5  6  1  0
  6  7  2  0
  6  8  1  0
  8  9  2  0
  9 10  1  0
 10 11  2  0
 11 12  1  0
 12 13  2  0
  2 14  1  0
 14 15  1  0
 15 16  2  0
 16 17  1  0
 17 18  2  0
 18 19  1  0
 19 20  2  0
 13  8  1  0
 20 15  1  0
  1 21  1  0
  1 22  1  0
  1 23  1  0
  3 24  1  0
  3 25  1  0
  4 26  1  0
  4 27  1  0
  5 28  1  0
  9 29  1  0
 10 30  1  0
 12 31  1  0
 13 32  1  0
 14 33  1  0
 14 34  1  0
 16 35  1  0
 17 36  1  0
 18 37  1  0
 19 38  1  0
 20 39  1  0
M  END
>  <UniqueID>  (30) 
30

>  <SMILES>  (30) 
CN(CCNC(=O)c1ccncc1)Cc1ccccc1

>  <Energy>  (30) 
38.55524614367666

>  <Genealogy>  (30) 
CN(CCNC(=O)c1ccncc1)Cc1ccccc1 (3D coordinates assigned)
CN(CCNC(=O)c1ccncc1)Cc1ccccc1 (optimized conformer: 38.55524614367666 kcal/mol)

>  <smiles>  (30) 
CN(CCNC(=O)c1ccncc1)Cc1ccccc1

>  <score_type>  (30) 
oracle

>  <origin>  (30) 
adg

>  <m_score__min__energy>  (30) 
-6.2300000000000004

>  <m_primary>  (30) 
energy

$$$$
30:0
     RDKit          3D

 46 48  0  0  0  0  0  0  0  0999 V2000
   63.9770   33.0870   47.8140 C   0  0  0  0  0  0  0  0  0  0  0  0
   62.7930   32.9860   48.7880 C   0  0  0  0  0  0  0  0  0  0  0  0
   61.4630   32.7480   48.1650 N   0  0  2  0  0  0  0  0  0  0  0  0
   60.5570   33.9250   48.1520 C   0  0  0  0  0  0  0  0  0  0  0  0
   59.6240   34.0020   46.9640 C   0  0  0  0  0  0  0  0  0  0  0  0
   58.2310   33.9400   47.1490 C   0  0  0  0  0  0  0  0  0  0  0  0
   57.3670   34.0330   46.0540 C   0  0  0  0  0  0  0  0  0  0  0  0
   57.8840   34.2090   44.7670 C   0  0  0  0  0  0  0  0  0  0  0  0
   59.2640   34.3040   44.5770 C   0  0  0  0  0  0  0  0  0  0  0  0
   60.1310   34.2120   45.6700 C   0  0  0  0  0  0  0  0  0  0  0  0
   60.6790   31.2630   48.6760 S   0  0  0  0  0  0  0  0  0  0  0  0
   59.6430   31.5420   49.7300 O   0  0  0  0  0  0  0  0  0  0  0  0
   61.7050   30.3270   49.2510 O   0  0  0  0  0  0  0  0  0  0  0  0
   59.9240   30.4670   47.2960 C   0  0  0  0  0  0  0  0  0  0  0  0
   60.4460   29.2480   46.7910 C   0  0  0  0  0  0  0  0  0  0  0  0
   59.8360   28.6060   45.6980 C   0  0  0  0  0  0  0  0  0  0  0  0
   58.7160   29.2150   45.1320 C   0  0  0  0  0  0  0  0  0  0  0  0
   58.2110   30.3870   45.6140 C   0  0  0  0  0  0  0  0  0  0  0  0
   58.7890   31.0480   46.6940 C   0  0  0  0  0  0  0  0  0  0  0  0
   57.1170   30.7520   44.9210 N   0  0  0  0  0  0  0  0  0  0  0  0
   56.9870   29.7540   44.0080 C   0  0  0  0  0  0  0  0  0  0  0  0
   55.8730   29.7180   43.0100 C   0  0  0  0  0  0  0  0  0  0  0  0
   57.9590   28.8080   44.1000 N   0  0  0  0  0  0  0  0  0  0  0  0
   58.0810   27.5630   43.3420 C   0  0  0  0  0  0  0  0  0  0  0  0
   64.9146   33.1670   48.3836 H   0  0  0  0  0  0  0  0  0  0  0  0
   64.0084   32.1883   47.1805 H   0  0  0  0  0  0  0  0  0  0  0  0
   63.8557   33.9781   47.1805 H   0  0  0  0  0  0  0  0  0  0  0  0
   62.9951   32.1557   49.4806 H   0  0  0  0  0  0  0  0  0  0  0  0
   62.7231   33.9686   49.2775 H   0  0  0  0  0  0  0  0  0  0  0  0
   61.6740   32.5800   47.1530 H   0  0  0  0  0  0  0  0  0  0  0  0
   59.9445   33.8939   49.0652 H   0  0  0  0  0  0  0  0  0  0  0  0
   61.2059   34.8111   48.0905 H   0  0  0  0  0  0  0  0  0  0  0  0
   57.8190   33.8176   48.1615 H   0  0  0  0  0  0  0  0  0  0  0  0
   56.2794   33.9677   46.2051 H   0  0  0  0  0  0  0  0  0  0  0  0
   57.2040   34.2726   43.9047 H   0  0  0  0  0  0  0  0  0  0  0  0
   59.6699   34.4515   43.5653 H   0  0  0  0  0  0  0  0  0  0  0  0
   61.2163   34.3045   45.5163 H   0  0  0  0  0  0  0  0  0  0  0  0
   61.3357   28.8010   47.2584 H   0  0  0  0  0  0  0  0  0  0  0  0
   60.2284   27.6571   45.3036 H   0  0  0  0  0  0  0  0  0  0  0  0
   58.3727   31.9955   47.0668 H   0  0  0  0  0  0  0  0  0  0  0  0
   54.9085   29.6868   43.5380 H   0  0  0  0  0  0  0  0  0  0  0  0
   55.9167   30.6180   42.3791 H   0  0  0  0  0  0  0  0  0  0  0  0
   55.9747   28.8227   42.3791 H   0  0  0  0  0  0  0  0  0  0  0  0
   58.1640   26.7160   44.0390 H   0  0  0  0  0  0  0  0  0  0  0  0
   57.1915   27.4308   42.7085 H   0  0  0  0  0  0  0  0  0  0  0  0
   58.9792   27.6059   42.7085 H   0  0  0  0  0  0  0  0  0  0  0  0
  1  2  1  0
  2  3  1  0
  3  4  1  0
  4  5  1  0
  5  6  2  0
  6  7  1  0
  7  8  2  0
  8  9  1  0
  9 10  2  0
  3 11  1  0
 11 12  2  0
 11 13  2  0
 11 14  1  0
 14 15  2  0
 15 16  1  0
 16 17  2  0
 17 18  1  0
 18 19  2  0
 18 20  1  0
 20 21  2  0
 21 22  1  0
 21 23  1  0
 23 24  1  0
 10  5  1  0
 19 14  1  0
 23 17  1  0
  1 25  1  0
  1 26  1  0
  1 27  1  0
  2 28  1  0
  2 29  1  0
  3 30  1  6
  4 31  1  0
  4 32  1  0
  6 33  1  0
  7 34  1  0
  8 35  1  0
  9 36  1  0
 10 37  1  0
 15 38  1  0
 16 39  1  0
 19 40  1  0
 22 41  1  0
 22 42  1  0
 22 43  1  0
 24 44  1  0
 24 45  1  0
 24 46  1  0
M  CHG  1   3   1
M  END
>  <UniqueID>  (31) 
31

>  <SMILES>  (31) 
CC[N@H+](Cc1ccccc1)S(=O)(=O)c1ccc2c(c1)nc(C)n2C

>  <Energy>  (31) 
90.80800663155703

>  <Genealogy>  (31) 
CC[NH+](Cc1ccccc1)S(=O)(=O)c1ccc2c(c1)nc(C)n2C (protonated)
CC[N@H+](Cc1ccccc1)S(=O)(=O)c1ccc2c(c1)nc(C)n2C (chirality)
CC[N@H+](Cc1ccccc1)S(=O)(=O)c1ccc2c(c1)nc(C)n2C (3D coordinates assigned)
CC[N@H+](Cc1ccccc1)S(=O)(=O)c1ccc2c(c1)nc(C)n2C (optimized conformer: 90.80800663155703 kcal/mol)

>  <smiles>  (31) 
CCN(Cc1ccccc1)S(=O)(=O)c1ccc2c(c1)nc(C)n2C

>  <score_type>  (31) 
oracle

>  <origin>  (31) 
adg

>  <m_score__min__energy>  (31) 
-6.71

>  <m_primary>  (31) 
energy

$$$$
31:0
     RDKit          3D

 39 41  0  0  0  0  0  0  0  0999 V2000
   57.7260   33.5670   46.6280 C   0  0  0  0  0  0  0  0  0  0  0  0
   58.0060   32.2750   46.1010 O   0  0  0  0  0  0  0  0  0  0  0  0
   57.6820   31.8610   44.7980 C   0  0  0  0  0  0  0  0  0  0  0  0
   57.8410   32.7090   43.6840 C   0  0  0  0  0  0  0  0  0  0  0  0
   57.5080   32.2610   42.4040 C   0  0  0  0  0  0  0  0  0  0  0  0
   57.0180   30.9680   42.2210 C   0  0  0  0  0  0  0  0  0  0  0  0
   56.8570   30.1180   43.3180 C   0  0  0  0  0  0  0  0  0  0  0  0
   57.1850   30.5600   44.6150 C   0  0  0  0  0  0  0  0  0  0  0  0
   57.0410   29.7400   45.7490 O   0  0  0  0  0  0  0  0  0  0  0  0
   57.7890   28.5540   46.0210 C   0  0  0  0  0  0  0  0  0  0  0  0
   58.9890   28.8680   46.9190 C   0  0  0  0  0  0  0  0  0  0  0  0
   59.0040   30.2810   47.2960 N   0  0  0  0  0  0  0  0  0  0  0  0
   60.2260   30.9770   47.5670 C   0  0  0  0  0  0  0  0  0  0  0  0
   61.1520   30.6590   48.5620 C   0  0  0  0  0  0  0  0  0  0  0  0
   62.1290   31.6220   48.3990 C   0  0  0  0  0  0  0  0  0  0  0  0
   63.3110   31.8080   49.1140 C   0  0  0  0  0  0  0  0  0  0  0  0
   64.1360   32.8800   48.7350 C   0  0  0  0  0  0  0  0  0  0  0  0
   63.7650   33.7210   47.6680 C   0  0  0  0  0  0  0  0  0  0  0  0
   62.5630   33.4840   46.9850 C   0  0  0  0  0  0  0  0  0  0  0  0
   61.7950   32.4380   47.3850 N   0  0  0  0  0  0  0  0  0  0  0  0
   60.6400   32.0560   46.8700 N   0  0  0  0  0  0  0  0  0  0  0  0
   57.7352   33.5245   47.7271 H   0  0  0  0  0  0  0  0  0  0  0  0
   58.4910   34.2778   46.2821 H   0  0  0  0  0  0  0  0  0  0  0  0
   56.7354   33.8973   46.2821 H   0  0  0  0  0  0  0  0  0  0  0  0
   58.2293   33.7287   43.8233 H   0  0  0  0  0  0  0  0  0  0  0  0
   57.6323   32.9288   41.5388 H   0  0  0  0  0  0  0  0  0  0  0  0
   56.7579   30.6170   41.2115 H   0  0  0  0  0  0  0  0  0  0  0  0
   56.4722   29.0984   43.1684 H   0  0  0  0  0  0  0  0  0  0  0  0
   57.1394   27.8250   46.5275 H   0  0  0  0  0  0  0  0  0  0  0  0
   58.1561   28.1403   45.0702 H   0  0  0  0  0  0  0  0  0  0  0  0
   58.9282   28.2532   47.8291 H   0  0  0  0  0  0  0  0  0  0  0  0
   59.9115   28.6429   46.3637 H   0  0  0  0  0  0  0  0  0  0  0  0
   58.1070   30.8130   47.3700 H   0  0  0  0  0  0  0  0  0  0  0  0
   61.1132   29.8412   49.2966 H   0  0  0  0  0  0  0  0  0  0  0  0
   63.5873   31.1406   49.9436 H   0  0  0  0  0  0  0  0  0  0  0  0
   65.0769   33.0635   49.2745 H   0  0  0  0  0  0  0  0  0  0  0  0
   64.4138   34.5585   47.3721 H   0  0  0  0  0  0  0  0  0  0  0  0
   62.2513   34.1273   46.1489 H   0  0  0  0  0  0  0  0  0  0  0  0
   60.1500   32.5170   46.0700 H   0  0  0  0  0  0  0  0  0  0  0  0
  1  2  1  0
  2  3  1  0
  3  4  2  0
  4  5  1  0
  5  6  2  0
  6  7  1  0
  7  8  2  0
  8  9  1  0
  9 10  1  0
 10 11  1  0
 11 12  1  0
 12 13  1  0
 13 14  1  0
 14 15  2  0
 15 16  1  0
 16 17  2  0
 17 18  1  0
 18 19  2  0
 19 20  1  0
 20 21  1  0
  8  3  1  0
 21 13  2  0
 20 15  1  0
  1 22  1  0
  1 23  1  0
  1 24  1  0
  4 25  1  0
  5 26  1  0
  6 27  1  0
  7 28  1  0
 10 29  1  0
 10 30  1  0
 11 31  1  0
 11 32  1  0
 12 33  1  0
 14 34  1  0
 16 35  1  0
 17 36  1  0
 18 37  1  0
 19 38  1  0
 21 39  1  0
M  CHG  1  21   1
M  END
>  <UniqueID>  (32) 
32

>  <SMILES>  (32) 
COc1ccccc1OCCNc1cc2ccccn2[nH+]1

>  <Energy>  (32) 
73.75998955535826

>  <Genealogy>  (32) 
COc1ccccc1OCCNc1cc2ccccn2[nH+]1 (protonated)
COc1ccccc1OCCNc1cc2ccccn2[nH+]1 (3D coordinates assigned)
COc1ccccc1OCCNc1cc2ccccn2[nH+]1 (optimized conformer: 73.75998955535826 kcal/mol)

>  <smiles>  (32) 
COc1ccccc1OCCNc1cc2ccccn2n1

>  <score_type>  (32) 
oracle

>  <origin>  (32) 
adg

>  <m_score__min__energy>  (32) 
-5.2999999999999998

>  <m_primary>  (32) 
energy

$$$$
32:0
     RDKit          3D

 39 41  0  0  0  0  0  0  0  0999 V2000
   60.6710   28.9020   44.9430 C   0  0  0  0  0  0  0  0  0  0  0  0
   59.7180   29.3220   46.0590 C   0  0  0  0  0  0  0  0  0  0  0  0
   58.5750   30.0640   45.5090 N   0  0  0  0  0  0  0  0  0  0  0  0
   57.4260   29.3290   45.0370 C   0  0  0  0  0  0  0  0  0  0  0  0
   56.2710   29.8060   45.2010 O   0  0  0  0  0  0  0  0  0  0  0  0
   57.5660   28.0110   44.3860 C   0  0  0  0  0  0  0  0  0  0  0  0
   57.3680   26.7710   44.9650 C   0  0  0  0  0  0  0  0  0  0  0  0
   57.6060   25.8780   43.9320 C   0  0  0  0  0  0  0  0  0  0  0  0
   57.5780   24.4010   43.9950 C   0  0  0  0  0  0  0  0  0  0  0  0
   56.6470   23.7220   43.1890 C   0  0  0  0  0  0  0  0  0  0  0  0
   56.5900   22.3270   43.1900 C   0  0  0  0  0  0  0  0  0  0  0  0
   57.4520   21.5920   44.0030 C   0  0  0  0  0  0  0  0  0  0  0  0
   58.3660   22.2500   44.8270 C   0  0  0  0  0  0  0  0  0  0  0  0
   58.4350   23.6500   44.8370 C   0  0  0  0  0  0  0  0  0  0  0  0
   59.5370   24.4030   45.9850 Cl  0  0  0  0  0  0  0  0  0  0  0  0
   57.9200   26.5590   42.8520 O   0  0  0  0  0  0  0  0  0  0  0  0
   57.8920   27.8360   43.0930 N   0  0  0  0  0  0  0  0  0  0  0  0
   58.5710   31.5090   45.5210 C   0  0  0  0  0  0  0  0  0  0  0  0
   59.2410   32.2130   46.5390 C   0  0  0  0  0  0  0  0  0  0  0  0
   59.2230   33.6110   46.5640 C   0  0  0  0  0  0  0  0  0  0  0  0
   58.5390   34.3200   45.5740 C   0  0  0  0  0  0  0  0  0  0  0  0
   57.8740   33.6320   44.5570 C   0  0  0  0  0  0  0  0  0  0  0  0
   57.8890   32.2350   44.5280 C   0  0  0  0  0  0  0  0  0  0  0  0
   61.5937   28.4953   45.3825 H   0  0  0  0  0  0  0  0  0  0  0  0
   60.1908   28.1321   44.3211 H   0  0  0  0  0  0  0  0  0  0  0  0
   60.9152   29.7759   44.3211 H   0  0  0  0  0  0  0  0  0  0  0  0
   59.3507   28.4244   46.5780 H   0  0  0  0  0  0  0  0  0  0  0  0
   60.2589   29.9726   46.7620 H   0  0  0  0  0  0  0  0  0  0  0  0
   57.0868   26.5456   46.0043 H   0  0  0  0  0  0  0  0  0  0  0  0
   55.9574   24.2952   42.5519 H   0  0  0  0  0  0  0  0  0  0  0  0
   55.8637   21.8068   42.5482 H   0  0  0  0  0  0  0  0  0  0  0  0
   57.4115   20.4928   43.9948 H   0  0  0  0  0  0  0  0  0  0  0  0
   59.0373   21.6657   45.4735 H   0  0  0  0  0  0  0  0  0  0  0  0
   58.1020   28.5780   42.3890 H   0  0  0  0  0  0  0  0  0  0  0  0
   59.7826   31.6597   47.3204 H   0  0  0  0  0  0  0  0  0  0  0  0
   59.7482   34.1530   47.3643 H   0  0  0  0  0  0  0  0  0  0  0  0
   58.5242   35.4197   45.5954 H   0  0  0  0  0  0  0  0  0  0  0  0
   57.3370   34.1912   43.7767 H   0  0  0  0  0  0  0  0  0  0  0  0
   57.3640   31.6996   43.7232 H   0  0  0  0  0  0  0  0  0  0  0  0
  1  2  1  0
  2  3  1  0
  3  4  1  0
  4  5  2  0
  4  6  1  0
  6  7  1  0
  7  8  2  0
  8  9  1  0
  9 10  2  0
 10 11  1  0
 11 12  2  0
 12 13  1  0
 13 14  2  0
 14 15  1  0
  8 16  1  0
 16 17  1  0
  3 18  1  0
 18 19  2  0
 19 20  1  0
 20 21  2  0
 21 22  1  0
 22 23  2  0
 17  6  2  0
 23 18  1  0
 14  9  1  0
  1 24  1  0
  1 25  1  0
  1 26  1  0
  2 27  1  0
  2 28  1  0
  7 29  1  0
 10 30  1  0
 11 31  1  0
 12 32  1  0
 13 33  1  0
 17 34  1  0
 19 35  1  0
 20 36  1  0
 21 37  1  0
 22 38  1  0
 23 39  1  0
M  CHG  1  17   1
M  END
>  <UniqueID>  (33) 
33

>  <SMILES>  (33) 
CCN(C(=O)c1cc(-c2ccccc2Cl)o[nH+]1)c1ccccc1

>  <Energy>  (33) 
81.52301459257077

>  <Genealogy>  (33) 
CCN(C(=O)c1cc(-c2ccccc2Cl)o[nH+]1)c1ccccc1 (protonated)
CCN(C(=O)c1cc(-c2ccccc2Cl)o[nH+]1)c1ccccc1 (3D coordinates assigned)
CCN(C(=O)c1cc(-c2ccccc2Cl)o[nH+]1)c1ccccc1 (optimized conformer: 81.52301459257077 kcal/mol)

>  <smiles>  (33) 
CCN(C(=O)c1cc(-c2ccccc2Cl)on1)c1ccccc1

>  <score_type>  (33) 
oracle

>  <origin>  (33) 
adg

>  <m_score__min__energy>  (33) 
-6.9400000000000004

>  <m_primary>  (33) 
energy

$$$$
33:0
     RDKit          3D

 37 39  0  0  1  0  0  0  0  0999 V2000
   57.6630   32.3410   41.4320 C   0  0  0  0  0  0  0  0  0  0  0  0
   57.7940   32.0530   42.8820 C   0  0  0  0  0  0  0  0  0  0  0  0
   57.7740   33.0980   43.7830 C   0  0  0  0  0  0  0  0  0  0  0  0
   57.8980   32.8090   45.1220 C   0  0  0  0  0  0  0  0  0  0  0  0
   57.8900   33.7150   46.0320 N   0  0  0  0  0  0  0  0  0  0  0  0
   59.1420   34.2200   46.5750 C   0  0  0  0  0  0  0  0  0  0  0  0
   59.0910   33.8460   48.0640 C   0  0  0  0  0  0  0  0  0  0  0  0
   60.3510   34.1990   48.7750 C   0  0  0  0  0  0  0  0  0  0  0  0
   61.4880   33.6470   48.0930 N   0  0  0  0  0  0  0  0  0  0  0  0
   62.7260   33.8610   48.8050 C   0  0  0  0  0  0  0  0  0  0  0  0
   61.5540   34.0270   46.7150 C   0  0  0  0  0  0  0  0  0  0  0  0
   60.3280   33.4770   46.0150 C   0  0  0  0  0  0  0  0  0  0  0  0
   58.0350   31.5270   45.5350 N   0  0  0  0  0  0  0  0  0  0  0  0
   58.1700   31.0000   46.7590 N   0  0  0  0  0  0  0  0  0  0  0  0
   58.2750   29.6600   46.6730 C   0  0  0  0  0  0  0  0  0  0  0  0
   58.2050   29.3050   45.3290 C   0  0  0  0  0  0  0  0  0  0  0  0
   58.0550   30.5060   44.6510 C   0  0  0  0  0  0  0  0  0  0  0  0
   57.9330   30.8070   43.3460 N   0  0  0  0  0  0  0  0  0  0  0  0
   57.2111   33.3345   41.2949 H   0  0  0  0  0  0  0  0  0  0  0  0
   58.6579   32.3229   40.9632 H   0  0  0  0  0  0  0  0  0  0  0  0
   57.0229   31.5791   40.9632 H   0  0  0  0  0  0  0  0  0  0  0  0
   57.6616   34.1367   43.4388 H   0  0  0  0  0  0  0  0  0  0  0  0
   59.2477   35.2921   46.3527 H   0  0  0  0  0  0  0  0  0  0  0  0
   58.2552   34.3833   48.5360 H   0  0  0  0  0  0  0  0  0  0  0  0
   58.9567   32.7565   48.1346 H   0  0  0  0  0  0  0  0  0  0  0  0
   60.4494   35.2939   48.8141 H   0  0  0  0  0  0  0  0  0  0  0  0
   60.3121   33.7838   49.7929 H   0  0  0  0  0  0  0  0  0  0  0  0
   62.5365   33.8282   49.8881 H   0  0  0  0  0  0  0  0  0  0  0  0
   63.4453   33.0739   48.5346 H   0  0  0  0  0  0  0  0  0  0  0  0
   63.1393   34.8439   48.5346 H   0  0  0  0  0  0  0  0  0  0  0  0
   61.5705   35.1237   46.6312 H   0  0  0  0  0  0  0  0  0  0  0  0
   62.4682   33.6262   46.2529 H   0  0  0  0  0  0  0  0  0  0  0  0
   60.4031   33.6446   44.9304 H   0  0  0  0  0  0  0  0  0  0  0  0
   60.2305   32.3936   46.1788 H   0  0  0  0  0  0  0  0  0  0  0  0
   58.3952   28.9665   47.5183 H   0  0  0  0  0  0  0  0  0  0  0  0
   58.2572   28.2940   44.8988 H   0  0  0  0  0  0  0  0  0  0  0  0
   57.9450   30.0330   42.6390 H   0  0  0  0  0  0  0  0  0  0  0  0
  1  2  1  0
  2  3  2  0
  3  4  1  0
  4  5  2  0
  5  6  1  0
  6  7  1  0
  7  8  1  0
  8  9  1  0
  9 10  1  0
  9 11  1  0
 11 12  1  0
  4 13  1  0
 13 14  1  0
 14 15  2  0
 15 16  1  0
 16 17  2  0
 17 18  1  0
 18  2  1  0
 12  6  1  0
 17 13  1  0
  1 19  1  0
  1 20  1  0
  1 21  1  0
  3 22  1  0
  6 23  1  0
  7 24  1  0
  7 25  1  0
  8 26  1  0
  8 27  1  0
 10 28  1  0
 10 29  1  0
 10 30  1  0
 11 31  1  0
 11 32  1  0
 12 33  1  0
 12 34  1  0
 15 35  1  0
 16 36  1  0
 18 37  1  0
M  END
>  <smiles>  (34) 
Cc1cc(=NC2CCN(C)CC2)n2nccc2[nH]1

>  <score_type>  (34) 
oracle

>  <origin>  (34) 
adg

>  <m_score__min__energy>  (34) 
-6.6399999999999997

>  <m_primary>  (34) 
energy

$$$$
34:0
     RDKit          3D

 59 61  0  0  0  0  0  0  0  0999 V2000
   63.0070   33.0770   46.9210 C   0  0  0  0  0  0  0  0  0  0  0  0
   61.7820   33.8380   46.4200 C   0  0  0  0  0  0  0  0  0  0  0  0
   60.8530   34.0960   47.5440 N   0  0  0  0  0  0  0  0  0  0  0  0
   61.5510   34.5430   48.7700 C   0  0  0  0  0  0  0  0  0  0  0  0
   61.7930   33.3820   49.7390 C   0  0  0  0  0  0  0  0  0  0  0  0
   59.7030   34.9450   47.1460 C   0  0  0  0  0  0  0  0  0  0  0  0
   58.3450   34.2210   47.1170 C   0  0  0  0  0  0  0  0  0  0  0  0
   58.5290   32.7660   47.3080 N   0  0  0  0  0  0  0  0  0  0  0  0
   58.3830   31.8790   46.2640 C   0  0  0  0  0  0  0  0  0  0  0  0
   57.7870   32.4040   44.6340 S   0  0  0  0  0  0  0  0  0  0  0  0
   57.6150   30.7190   43.9340 C   0  0  0  0  0  0  0  0  0  0  0  0
   56.4380   30.0080   44.5140 C   0  0  0  0  0  0  0  0  0  0  0  0
   55.3010   30.1730   44.0000 O   0  0  0  0  0  0  0  0  0  0  0  0
   56.6380   29.1120   45.6190 N   0  0  0  0  0  0  0  0  0  0  0  0
   57.0860   27.7460   45.6160 C   0  0  0  0  0  0  0  0  0  0  0  0
   56.2860   26.6810   46.0860 C   0  0  0  0  0  0  0  0  0  0  0  0
   56.7910   25.3800   46.1140 C   0  0  0  0  0  0  0  0  0  0  0  0
   58.0910   25.1210   45.6790 C   0  0  0  0  0  0  0  0  0  0  0  0
   58.8970   26.1670   45.2240 C   0  0  0  0  0  0  0  0  0  0  0  0
   58.4060   27.4870   45.2030 C   0  0  0  0  0  0  0  0  0  0  0  0
   59.2040   28.5690   44.7930 O   0  0  0  0  0  0  0  0  0  0  0  0
   60.6290   28.5800   44.8180 C   0  0  0  0  0  0  0  0  0  0  0  0
   58.7090   30.5680   46.4280 N   0  0  0  0  0  0  0  0  0  0  0  0
   59.0800   30.0750   47.6380 C   0  0  0  0  0  0  0  0  0  0  0  0
   59.3750   28.7090   47.7910 C   0  0  0  0  0  0  0  0  0  0  0  0
   59.7520   28.2090   49.0410 C   0  0  0  0  0  0  0  0  0  0  0  0
   59.8320   29.0630   50.1440 C   0  0  0  0  0  0  0  0  0  0  0  0
   59.5350   30.4220   50.0030 C   0  0  0  0  0  0  0  0  0  0  0  0
   59.1580   30.9370   48.7470 C   0  0  0  0  0  0  0  0  0  0  0  0
   58.8730   32.2980   48.5540 C   0  0  0  0  0  0  0  0  0  0  0  0
   58.9410   33.0930   49.5350 O   0  0  0  0  0  0  0  0  0  0  0  0
   63.0121   33.0738   48.0210 H   0  0  0  0  0  0  0  0  0  0  0  0
   62.9718   32.0415   46.5515 H   0  0  0  0  0  0  0  0  0  0  0  0
   63.9197   33.5673   46.5515 H   0  0  0  0  0  0  0  0  0  0  0  0
   62.1013   34.7960   45.9837 H   0  0  0  0  0  0  0  0  0  0  0  0
   61.2682   33.2343   45.6574 H   0  0  0  0  0  0  0  0  0  0  0  0
   62.5202   34.9807   48.4889 H   0  0  0  0  0  0  0  0  0  0  0  0
   60.9153   35.2848   49.2755 H   0  0  0  0  0  0  0  0  0  0  0  0
   61.7170   33.7464   50.7741 H   0  0  0  0  0  0  0  0  0  0  0  0
   61.0386   32.5996   49.5694 H   0  0  0  0  0  0  0  0  0  0  0  0
   62.7971   32.9661   49.5694 H   0  0  0  0  0  0  0  0  0  0  0  0
   59.6307   35.7793   47.8592 H   0  0  0  0  0  0  0  0  0  0  0  0
   59.9017   35.2714   46.1145 H   0  0  0  0  0  0  0  0  0  0  0  0
   57.7080   34.6141   47.9230 H   0  0  0  0  0  0  0  0  0  0  0  0
   57.8706   34.3941   46.1398 H   0  0  0  0  0  0  0  0  0  0  0  0
   57.4862   30.7952   42.8442 H   0  0  0  0  0  0  0  0  0  0  0  0
   58.5218   30.1469   44.1798 H   0  0  0  0  0  0  0  0  0  0  0  0
   55.2604   26.8778   46.4315 H   0  0  0  0  0  0  0  0  0  0  0  0
   56.1615   24.5557   46.4805 H   0  0  0  0  0  0  0  0  0  0  0  0
   58.4813   24.0927   45.6944 H   0  0  0  0  0  0  0  0  0  0  0  0
   59.9209   25.9588   44.8801 H   0  0  0  0  0  0  0  0  0  0  0  0
   60.9774   28.5827   45.8614 H   0  0  0  0  0  0  0  0  0  0  0  0
   61.0116   27.6848   44.3060 H   0  0  0  0  0  0  0  0  0  0  0  0
   60.9978   29.4810   44.3060 H   0  0  0  0  0  0  0  0  0  0  0  0
   58.6460   29.9230   45.6070 H   0  0  0  0  0  0  0  0  0  0  0  0
   59.3091   28.0326   46.9260 H   0  0  0  0  0  0  0  0  0  0  0  0
   59.9863   27.1405   49.1565 H   0  0  0  0  0  0  0  0  0  0  0  0
   60.1293   28.6652   51.1255 H   0  0  0  0  0  0  0  0  0  0  0  0
   59.5958   31.0904   50.8745 H   0  0  0  0  0  0  0  0  0  0  0  0
  1  2  1  0
  2  3  1  0
  3  4  1  0
  4  5  1  0
  3  6  1  0
  6  7  1  0
  7  8  1  0
  8  9  1  0
  9 10  1  0
 10 11  1  0
 11 12  1  0
 12 13  2  0
 12 14  1  0
 14 15  1  0
 15 16  2  0
 16 17  1  0
 17 18  2  0
 18 19  1  0
 19 20  2  0
 20 21  1  0
 21 22  1  0
  9 23  2  0
 23 24  1  0
 24 25  2  0
 25 26  1  0
 26 27  2  0
 27 28  1  0
 28 29  2  0
 29 30  1  0
 30 31  2  0
 30  8  1  0
 20 15  1  0
 29 24  1  0
  1 32  1  0
  1 33  1  0
  1 34  1  0
  2 35  1  0
  2 36  1  0
  4 37  1  0
  4 38  1  0
  5 39  1  0
  5 40  1  0
  5 41  1  0
  6 42  1  0
  6 43  1  0
  7 44  1  0
  7 45  1  0
 11 46  1  0
 11 47  1  0
 16 48  1  0
 17 49  1  0
 18 50  1  0
 19 51  1  0
 22 52  1  0
 22 53  1  0
 22 54  1  0
 23 55  1  0
 25 56  1  0
 26 57  1  0
 27 58  1  0
 28 59  1  0
M  CHG  2  14  -1  23   1
M  END
>  <UniqueID>  (35) 
34

>  <SMILES>  (35) 
CCN(CC)CCn1c(SCC(=O)[N-]c2ccccc2OC)[nH+]c2ccccc2c1=O

>  <Energy>  (35) 
66.48296767417291

>  <Genealogy>  (35) 
CCN(CC)CCn1c(SCC(=O)[N-]c2ccccc2OC)[nH+]c2ccccc2c1=O (protonated)
CCN(CC)CCn1c(SCC(=O)[N-]c2ccccc2OC)[nH+]c2ccccc2c1=O (3D coordinates assigned)
CCN(CC)CCn1c(SCC(=O)[N-]c2ccccc2OC)[nH+]c2ccccc2c1=O (optimized conformer: 66.48296767417291 kcal/mol)

>  <smiles>  (35) 
CCN(CC)CCn1c(SCC(=O)Nc2ccccc2OC)nc2ccccc2c1=O

>  <score_type>  (35) 
oracle

>  <origin>  (35) 
adg

>  <m_score__min__energy>  (35) 
-9.6699999999999999

>  <m_primary>  (35) 
energy

$$$$
35:0
     RDKit          3D

 50 52  0  0  0  0  0  0  0  0999 V2000
   57.7200   34.0340   45.5030 C   0  0  0  0  0  0  0  0  0  0  0  0
   57.1220   32.6360   45.3540 C   0  0  0  0  0  0  0  0  0  0  0  0
   58.1000   31.6570   44.6620 C   0  0  2  0  0  0  0  0  0  0  0  0
   57.5930   31.2110   43.2840 C   0  0  0  0  0  0  0  0  0  0  0  0
   57.0410   29.7850   43.4590 C   0  0  2  0  0  0  0  0  0  0  0  0
   55.5060   29.7520   43.4100 C   0  0  0  0  0  0  0  0  0  0  0  0
   57.5790   29.2870   44.8050 C   0  0  0  0  0  0  0  0  0  0  0  0
   58.2140   30.4310   45.4390 N   0  0  0  0  0  0  0  0  0  0  0  0
   58.9500   30.2950   46.6700 C   0  0  0  0  0  0  0  0  0  0  0  0
   58.4620   29.5880   47.5930 O   0  0  0  0  0  0  0  0  0  0  0  0
   60.3460   30.8680   46.8590 C   0  0  1  0  0  0  0  0  0  0  0  0
   60.3370   32.3650   47.1690 C   0  0  0  0  0  0  0  0  0  0  0  0
   61.5690   32.5890   48.0510 C   0  0  0  0  0  0  0  0  0  0  0  0
   62.8150   32.8680   47.1690 C   0  0  0  0  0  0  0  0  0  0  0  0
   64.0850   33.1720   48.0010 C   0  0  0  0  0  0  0  0  0  0  0  0
   63.8060   33.7200   49.3400 N   0  0  0  0  0  0  0  0  0  0  0  0
   62.6180   34.5760   49.3540 C   0  0  0  0  0  0  0  0  0  0  0  0
   61.3340   33.7840   49.0300 C   0  0  0  0  0  0  0  0  0  0  0  0
   61.7060   31.2290   48.7730 C   0  0  0  0  0  0  0  0  0  0  0  0
   61.1220   30.1900   47.9100 N   0  0  0  0  0  0  0  0  0  0  0  0
   57.8237   34.2765   46.5709 H   0  0  0  0  0  0  0  0  0  0  0  0
   58.7092   34.0628   45.0227 H   0  0  0  0  0  0  0  0  0  0  0  0
   57.0576   34.7692   45.0227 H   0  0  0  0  0  0  0  0  0  0  0  0
   56.8773   32.2463   46.3531 H   0  0  0  0  0  0  0  0  0  0  0  0
   56.2221   32.7169   44.7265 H   0  0  0  0  0  0  0  0  0  0  0  0
   59.0544   32.1966   44.5725 H   0  0  0  0  0  0  0  0  0  0  0  0
   56.7973   31.8859   42.9357 H   0  0  0  0  0  0  0  0  0  0  0  0
   58.4005   31.2350   42.5374 H   0  0  0  0  0  0  0  0  0  0  0  0
   57.3666   29.1327   42.6353 H   0  0  0  0  0  0  0  0  0  0  0  0
   55.1065   29.7434   44.4349 H   0  0  0  0  0  0  0  0  0  0  0  0
   55.1368   30.6424   42.8800 H   0  0  0  0  0  0  0  0  0  0  0  0
   55.1754   28.8465   42.8800 H   0  0  0  0  0  0  0  0  0  0  0  0
   56.7544   28.9141   45.4303 H   0  0  0  0  0  0  0  0  0  0  0  0
   58.2904   28.4590   44.6696 H   0  0  0  0  0  0  0  0  0  0  0  0
   60.8321   30.6942   45.8877 H   0  0  0  0  0  0  0  0  0  0  0  0
   60.4116   32.9531   46.2424 H   0  0  0  0  0  0  0  0  0  0  0  0
   59.4077   32.6807   47.6657 H   0  0  0  0  0  0  0  0  0  0  0  0
   63.0080   31.9836   46.5440 H   0  0  0  0  0  0  0  0  0  0  0  0
   62.5970   33.7585   46.5612 H   0  0  0  0  0  0  0  0  0  0  0  0
   64.6522   32.2372   48.1209 H   0  0  0  0  0  0  0  0  0  0  0  0
   64.6486   33.9413   47.4528 H   0  0  0  0  0  0  0  0  0  0  0  0
   63.6730   32.9380   50.0230 H   0  0  0  0  0  0  0  0  0  0  0  0
   62.5158   35.0260   50.3525 H   0  0  0  0  0  0  0  0  0  0  0  0
   62.7457   35.3489   48.5817 H   0  0  0  0  0  0  0  0  0  0  0  0
   60.9226   33.3881   49.9702 H   0  0  0  0  0  0  0  0  0  0  0  0
   60.6422   34.4791   48.5318 H   0  0  0  0  0  0  0  0  0  0  0  0
   62.7684   31.0089   48.9542 H   0  0  0  0  0  0  0  0  0  0  0  0
   61.1832   31.2578   49.7404 H   0  0  0  0  0  0  0  0  0  0  0  0
   60.5450   29.5350   48.4820 H   0  0  0  0  0  0  0  0  0  0  0  0
   61.8940   29.6290   47.4730 H   0  0  0  0  0  0  0  0  0  0  0  0
  1  2  1  0
  2  3  1  0
  3  4  1  0
  4  5  1  0
  5  6  1  0
  5  7  1  0
  7  8  1  0
  8  9  1  0
  9 10  2  0
  9 11  1  0
 11 12  1  0
 12 13  1  0
 13 14  1  0
 14 15  1  0
 15 16  1  0
 16 17  1  0
 17 18  1  0
 13 19  1  0
 19 20  1  0
  8  3  1  0
 20 11  1  0
 18 13  1  0
  1 21  1  0
  1 22  1  0
  1 23  1  0
  2 24  1  0
  2 25  1  0
  3 26  1  6
  4 27  1  0
  4 28  1  0
  5 29  1  6
  6 30  1  0
  6 31  1  0
  6 32  1  0
  7 33  1  0
  7 34  1  0
 11 35  1  6
 12 36  1  0
 12 37  1  0
 14 38  1  0
 14 39  1  0
 15 40  1  0
 15 41  1  0
 16 42  1  0
 17 43  1  0
 17 44  1  0
 18 45  1  0
 18 46  1  0
 19 47  1  0
 19 48  1  0
 20 49  1  0
 20 50  1  0
M  CHG  1  20   1
M  END
>  <UniqueID>  (36) 
35

>  <SMILES>  (36) 
CC[C@@H]1C[C@H](C)CN1C(=O)C1CC2(CCNCC2)C[NH2+]1

>  <Energy>  (36) 
60.17757260189048

>  <Genealogy>  (36) 
CCC1CC(C)CN1C(=O)C1CC2(CCNCC2)C[NH2+]1 (protonated)
CC[C@@H]1C[C@H](C)CN1C(=O)C1CC2(CCNCC2)C[NH2+]1 (chirality)
CC[C@@H]1C[C@H](C)CN1C(=O)C1CC2(CCNCC2)C[NH2+]1 (3D coordinates assigned)
CC[C@@H]1C[C@H](C)CN1C(=O)C1CC2(CCNCC2)C[NH2+]1 (nonaromatic ring conformer: 60.17757260189048 kcal/mol)

>  <smiles>  (36) 
CCC1CC(C)CN1C(=O)C1CC2(CCNCC2)CN1

>  <score_type>  (36) 
oracle

>  <origin>  (36) 
adg

>  <m_score__min__energy>  (36) 
-6.2000000000000002

>  <m_primary>  (36) 
energy

$$$$
36:0
     RDKit          3D

 54 55  0  0  0  0  0  0  0  0999 V2000
   56.7450   34.6110   44.8710 C   0  0  0  0  0  0  0  0  0  0  0  0
   57.3460   33.7340   45.9780 C   0  0  0  0  0  0  0  0  0  0  0  0
   58.5360   32.9580   45.5350 N   0  0  0  0  0  0  0  0  0  0  0  0
   59.8300   33.6230   45.8670 C   0  0  0  0  0  0  0  0  0  0  0  0
   59.7010   34.9410   46.6450 C   0  0  0  0  0  0  0  0  0  0  0  0
   58.3880   32.6220   44.0920 C   0  0  0  0  0  0  0  0  0  0  0  0
   57.6890   31.2780   43.8140 C   0  0  0  0  0  0  0  0  0  0  0  0
   57.0610   30.7580   44.9910 O   0  0  0  0  0  0  0  0  0  0  0  0
   57.3990   29.5410   45.6020 C   0  0  0  0  0  0  0  0  0  0  0  0
   56.6480   28.4070   45.2670 C   0  0  0  0  0  0  0  0  0  0  0  0
   56.9000   27.1700   45.8860 C   0  0  0  0  0  0  0  0  0  0  0  0
   56.1490   26.0210   45.6020 O   0  0  0  0  0  0  0  0  0  0  0  0
   56.6460   24.8910   44.8900 C   0  0  0  0  0  0  0  0  0  0  0  0
   57.9300   27.0770   46.8270 C   0  0  0  0  0  0  0  0  0  0  0  0
   58.7140   28.1910   47.1370 C   0  0  0  0  0  0  0  0  0  0  0  0
   58.4790   29.4250   46.5030 C   0  0  0  0  0  0  0  0  0  0  0  0
   59.3070   30.5690   46.7610 N   0  0  0  0  0  0  0  0  0  0  0  0
   59.3690   31.3520   47.9580 C   0  0  0  0  0  0  0  0  0  0  0  0
   58.4490   32.1620   48.2530 O   0  0  0  0  0  0  0  0  0  0  0  0
   60.5350   31.1860   48.8780 C   0  0  0  0  0  0  0  0  0  0  0  0
   61.6440   32.1210   48.4800 C   0  0  0  0  0  0  0  0  0  0  0  0
   62.5380   31.7630   47.4570 C   0  0  0  0  0  0  0  0  0  0  0  0
   63.5920   32.6180   47.1100 C   0  0  0  0  0  0  0  0  0  0  0  0
   63.7610   33.8300   47.7860 C   0  0  0  0  0  0  0  0  0  0  0  0
   62.8820   34.1870   48.8130 C   0  0  0  0  0  0  0  0  0  0  0  0
   61.8300   33.3340   49.1650 C   0  0  0  0  0  0  0  0  0  0  0  0
   56.1786   35.4375   45.3249 H   0  0  0  0  0  0  0  0  0  0  0  0
   57.5537   35.0197   44.2474 H   0  0  0  0  0  0  0  0  0  0  0  0
   56.0720   34.0043   44.2474 H   0  0  0  0  0  0  0  0  0  0  0  0
   57.6445   34.3834   46.8142 H   0  0  0  0  0  0  0  0  0  0  0  0
   56.5746   33.0070   46.2718 H   0  0  0  0  0  0  0  0  0  0  0  0
   58.5090   32.0590   46.0670 H   0  0  0  0  0  0  0  0  0  0  0  0
   60.4264   32.9256   46.4735 H   0  0  0  0  0  0  0  0  0  0  0  0
   60.3004   33.8779   44.9059 H   0  0  0  0  0  0  0  0  0  0  0  0
   59.7214   34.7328   47.7249 H   0  0  0  0  0  0  0  0  0  0  0  0
   60.5385   35.6045   46.3836 H   0  0  0  0  0  0  0  0  0  0  0  0
   58.7507   35.4296   46.3836 H   0  0  0  0  0  0  0  0  0  0  0  0
   57.8011   33.4194   43.6127 H   0  0  0  0  0  0  0  0  0  0  0  0
   59.4069   32.5326   43.6871 H   0  0  0  0  0  0  0  0  0  0  0  0
   56.9243   31.4271   43.0374 H   0  0  0  0  0  0  0  0  0  0  0  0
   58.4499   30.5562   43.4821 H   0  0  0  0  0  0  0  0  0  0  0  0
   55.8524   28.4851   44.5114 H   0  0  0  0  0  0  0  0  0  0  0  0
   56.9825   24.1260   45.6052 H   0  0  0  0  0  0  0  0  0  0  0  0
   55.8474   24.4758   44.2576 H   0  0  0  0  0  0  0  0  0  0  0  0
   57.4917   25.1990   44.2576 H   0  0  0  0  0  0  0  0  0  0  0  0
   58.1249   26.1174   47.3281 H   0  0  0  0  0  0  0  0  0  0  0  0
   59.5195   28.1030   47.8809 H   0  0  0  0  0  0  0  0  0  0  0  0
   60.2210   31.4114   49.9078 H   0  0  0  0  0  0  0  0  0  0  0  0
   60.8980   30.1495   48.8161 H   0  0  0  0  0  0  0  0  0  0  0  0
   62.4098   30.8079   46.9266 H   0  0  0  0  0  0  0  0  0  0  0  0
   64.2869   32.3357   46.3054 H   0  0  0  0  0  0  0  0  0  0  0  0
   64.5860   34.5031   47.5097 H   0  0  0  0  0  0  0  0  0  0  0  0
   63.0176   35.1401   49.3452 H   0  0  0  0  0  0  0  0  0  0  0  0
   61.1466   33.6137   49.9803 H   0  0  0  0  0  0  0  0  0  0  0  0
  1  2  1  0
  2  3  1  0
  3  4  1  0
  4  5  1  0
  3  6  1  0
  6  7  1  0
  7  8  1  0
  8  9  1  0
  9 10  2  0
 10 11  1  0
 11 12  1  0
 12 13  1  0
 11 14  2  0
 14 15  1  0
 15 16  2  0
 16 17  1  0
 17 18  1  0
 18 19  2  0
 18 20  1  0
 20 21  1  0
 21 22  2  0
 22 23  1  0
 23 24  2  0
 24 25  1  0
 25 26  2  0
 16  9  1  0
 26 21  1  0
  1 27  1  0
  1 28  1  0
  1 29  1  0
  2 30  1  0
  2 31  1  0
  3 32  1  0
  4 33  1  0
  4 34  1  0
  5 35  1  0
  5 36  1  0
  5 37  1  0
  6 38  1  0
  6 39  1  0
  7 40  1  0
  7 41  1  0
 10 42  1  0
 13 43  1  0
 13 44  1  0
 13 45  1  0
 14 46  1  0
 15 47  1  0
 20 48  1  0
 20 49  1  0
 22 50  1  0
 23 51  1  0
 24 52  1  0
 25 53  1  0
 26 54  1  0
M  CHG  2   3   1  17  -1
M  END
>  <UniqueID>  (37) 
36

>  <SMILES>  (37) 
CC[NH+](CC)CCOc1cc(OC)ccc1[N-]C(=O)Cc1ccccc1

>  <Energy>  (37) 
60.92052524339156

>  <Genealogy>  (37) 
CC[NH+](CC)CCOc1cc(OC)ccc1[N-]C(=O)Cc1ccccc1 (protonated)
CC[NH+](CC)CCOc1cc(OC)ccc1[N-]C(=O)Cc1ccccc1 (3D coordinates assigned)
CC[NH+](CC)CCOc1cc(OC)ccc1[N-]C(=O)Cc1ccccc1 (optimized conformer: 60.92052524339156 kcal/mol)

>  <smiles>  (37) 
CCN(CC)CCOc1cc(OC)ccc1NC(=O)Cc1ccccc1

>  <score_type>  (37) 
oracle

>  <origin>  (37) 
adg

>  <m_score__min__energy>  (37) 
-6.1200000000000001

>  <m_primary>  (37) 
energy

$$$$
37:0
     RDKit          3D

 35 37  0  0  1  0  0  0  0  0999 V2000
   55.6100   29.3200   45.0460 N   0  0  0  0  0  0  0  0  0  0  0  0
   55.4810   29.7230   43.6710 C   0  0  0  0  0  0  0  0  0  0  0  0
   56.6650   30.7410   43.4630 C   0  0  0  0  0  0  0  0  0  0  0  0
   56.7570   31.2440   44.7720 N   0  0  0  0  0  0  0  0  0  0  0  0
   57.7430   31.3750   45.5150 C   0  0  0  0  0  0  0  0  0  0  0  0
   58.2130   30.3310   46.1880 N   0  0  0  0  0  0  0  0  0  0  0  0
   59.2710   30.3620   47.0150 C   0  0  0  0  0  0  0  0  0  0  0  0
   59.6840   29.1410   47.6950 C   0  0  0  0  0  0  0  0  0  0  0  0
   59.3950   27.8820   47.2170 C   0  0  0  0  0  0  0  0  0  0  0  0
   59.7870   26.7200   47.8630 C   0  0  0  0  0  0  0  0  0  0  0  0
   60.4990   26.8290   49.0360 C   0  0  0  0  0  0  0  0  0  0  0  0
   60.7710   28.1030   49.4850 C   0  0  0  0  0  0  0  0  0  0  0  0
   60.3810   29.2180   48.8440 N   0  0  0  0  0  0  0  0  0  0  0  0
   59.8870   31.5450   47.1620 N   0  0  0  0  0  0  0  0  0  0  0  0
   59.4430   32.6260   46.4970 C   0  0  0  0  0  0  0  0  0  0  0  0
   60.1350   33.8040   46.7060 C   0  0  0  0  0  0  0  0  0  0  0  0
   59.6690   34.9010   46.0210 C   0  0  0  0  0  0  0  0  0  0  0  0
   58.6070   34.9160   45.1770 C   0  0  0  0  0  0  0  0  0  0  0  0
   57.9080   33.7020   44.9750 C   0  0  0  0  0  0  0  0  0  0  0  0
   58.3500   32.6020   45.6410 C   0  0  0  0  0  0  0  0  0  0  0  0
   55.1680   30.0630   45.6270 H   0  0  0  0  0  0  0  0  0  0  0  0
   56.6050   29.1900   45.3100 H   0  0  0  0  0  0  0  0  0  0  0  0
   55.5849   28.8589   42.9983 H   0  0  0  0  0  0  0  0  0  0  0  0
   54.4981   30.1636   43.4481 H   0  0  0  0  0  0  0  0  0  0  0  0
   57.5912   30.2375   43.1489 H   0  0  0  0  0  0  0  0  0  0  0  0
   56.5076   31.4946   42.6773 H   0  0  0  0  0  0  0  0  0  0  0  0
   58.8268   27.7946   46.2792 H   0  0  0  0  0  0  0  0  0  0  0  0
   59.5348   25.7331   47.4477 H   0  0  0  0  0  0  0  0  0  0  0  0
   60.8354   25.9399   49.5895 H   0  0  0  0  0  0  0  0  0  0  0  0
   61.3391   28.2136   50.4204 H   0  0  0  0  0  0  0  0  0  0  0  0
   60.7120   31.6240   47.7910 H   0  0  0  0  0  0  0  0  0  0  0  0
   61.0039   33.8602   47.3782 H   0  0  0  0  0  0  0  0  0  0  0  0
   60.2044   35.8502   46.1704 H   0  0  0  0  0  0  0  0  0  0  0  0
   58.2995   35.8407   44.6667 H   0  0  0  0  0  0  0  0  0  0  0  0
   57.0384   33.6502   44.3033 H   0  0  0  0  0  0  0  0  0  0  0  0
  1  2  1  0
  2  3  1  0
  3  4  1  0
  4  5  2  0
  5  6  1  0
  6  7  2  0
  7  8  1  0
  8  9  2  0
  9 10  1  0
 10 11  2  0
 11 12  1  0
 12 13  2  0
  7 14  1  0
 14 15  1  0
 15 16  2  0
 16 17  1  0
 17 18  2  0
 18 19  1  0
 19 20  2  0
 20  5  1  0
 13  8  1  0
 20 15  1  0
  1 21  1  0
  1 22  1  0
  2 23  1  0
  2 24  1  0
  3 25  1  0
  3 26  1  0
  9 27  1  0
 10 28  1  0
 11 29  1  0
 12 30  1  0
 14 31  1  0
 16 32  1  0
 17 33  1  0
 18 34  1  0
 19 35  1  0
M  END
>  <smiles>  (38) 
NCCN=c1nc(-c2ccccn2)[nH]c2ccccc12

>  <score_type>  (38) 
oracle

>  <origin>  (38) 
adg

>  <m_score__min__energy>  (38) 
-6.9000000000000004

>  <m_primary>  (38) 
energy

$$$$
38:0
     RDKit          3D

 54 56  0  0  0  0  0  0  0  0999 V2000
   64.4080   32.6750   49.2890 C   0  0  0  0  0  0  0  0  0  0  0  0
   64.1230   33.4700   48.0140 C   0  0  0  0  0  0  0  0  0  0  0  0
   63.0830   32.7860   47.1210 C   0  0  0  0  0  0  0  0  0  0  0  0
   61.6920   33.0070   47.6270 C   0  0  0  0  0  0  0  0  0  0  0  0
   61.2910   32.7210   48.8800 N   0  0  0  0  0  0  0  0  0  0  0  0
   59.9810   33.0280   48.9010 C   0  0  0  0  0  0  0  0  0  0  0  0
   59.1300   32.9010   50.1000 C   0  0  0  0  0  0  0  0  0  0  0  0
   58.1820   31.8700   50.2110 C   0  0  0  0  0  0  0  0  0  0  0  0
   57.3890   31.7610   51.3580 C   0  0  0  0  0  0  0  0  0  0  0  0
   57.5460   32.6710   52.4070 C   0  0  0  0  0  0  0  0  0  0  0  0
   58.5000   33.6870   52.3140 C   0  0  0  0  0  0  0  0  0  0  0  0
   59.2940   33.7990   51.1680 C   0  0  0  0  0  0  0  0  0  0  0  0
   59.6360   33.5120   47.6450 C   0  0  0  0  0  0  0  0  0  0  0  0
   58.3160   34.0620   47.1740 C   0  0  0  0  0  0  0  0  0  0  0  0
   58.3900   34.6030   45.8060 N   0  0  0  0  0  0  0  0  0  0  0  0
   57.5660   33.8550   44.8400 C   0  0  0  0  0  0  0  0  0  0  0  0
   58.1720   32.4730   44.5680 C   0  0  0  0  0  0  0  0  0  0  0  0
   57.3260   31.3990   45.1290 N   0  0  0  0  0  0  0  0  0  0  0  0
   56.5620   30.7160   44.0570 C   0  0  0  0  0  0  0  0  0  0  0  0
   55.9720   29.3900   44.5480 C   0  0  0  0  0  0  0  0  0  0  0  0
   57.0820   28.4080   44.9620 C   0  0  0  0  0  0  0  0  0  0  0  0
   58.3810   29.1210   45.3720 C   0  0  0  0  0  0  0  0  0  0  0  0
   58.0880   30.4810   46.0200 C   0  0  0  0  0  0  0  0  0  0  0  0
   60.7110   33.4760   46.8890 O   0  0  0  0  0  0  0  0  0  0  0  0
   64.1846   33.2983   50.1674 H   0  0  0  0  0  0  0  0  0  0  0  0
   63.7768   31.7744   49.3083 H   0  0  0  0  0  0  0  0  0  0  0  0
   65.4677   32.3805   49.3083 H   0  0  0  0  0  0  0  0  0  0  0  0
   63.7482   34.4654   48.2944 H   0  0  0  0  0  0  0  0  0  0  0  0
   65.0615   33.5391   47.4444 H   0  0  0  0  0  0  0  0  0  0  0  0
   63.1619   33.1954   46.1031 H   0  0  0  0  0  0  0  0  0  0  0  0
   63.2832   31.7044   47.1259 H   0  0  0  0  0  0  0  0  0  0  0  0
   61.8700   32.3330   49.6600 H   0  0  0  0  0  0  0  0  0  0  0  0
   58.0629   31.1452   49.3921 H   0  0  0  0  0  0  0  0  0  0  0  0
   56.6410   30.9581   51.4345 H   0  0  0  0  0  0  0  0  0  0  0  0
   56.9180   32.5871   53.3062 H   0  0  0  0  0  0  0  0  0  0  0  0
   58.6269   34.3994   53.1425 H   0  0  0  0  0  0  0  0  0  0  0  0
   60.0509   34.5945   51.1025 H   0  0  0  0  0  0  0  0  0  0  0  0
   57.5691   33.2547   47.1949 H   0  0  0  0  0  0  0  0  0  0  0  0
   58.0367   34.8865   47.8464 H   0  0  0  0  0  0  0  0  0  0  0  0
   59.3880   34.5940   45.4880 H   0  0  0  0  0  0  0  0  0  0  0  0
   56.5526   33.7309   45.2494 H   0  0  0  0  0  0  0  0  0  0  0  0
   57.5292   34.4176   43.8955 H   0  0  0  0  0  0  0  0  0  0  0  0
   58.2621   32.3282   43.4813 H   0  0  0  0  0  0  0  0  0  0  0  0
   59.1602   32.4251   45.0487 H   0  0  0  0  0  0  0  0  0  0  0  0
   55.7427   31.3721   43.7280 H   0  0  0  0  0  0  0  0  0  0  0  0
   57.2492   30.5019   43.2252 H   0  0  0  0  0  0  0  0  0  0  0  0
   55.3233   29.5847   45.4147 H   0  0  0  0  0  0  0  0  0  0  0  0
   55.3958   28.9391   43.7266 H   0  0  0  0  0  0  0  0  0  0  0  0
   56.7242   27.8109   45.8137 H   0  0  0  0  0  0  0  0  0  0  0  0
   57.3098   27.7767   44.0904 H   0  0  0  0  0  0  0  0  0  0  0  0
   58.9244   28.4907   46.0913 H   0  0  0  0  0  0  0  0  0  0  0  0
   58.9857   29.2891   44.4686 H   0  0  0  0  0  0  0  0  0  0  0  0
   57.5011   30.3138   46.9352 H   0  0  0  0  0  0  0  0  0  0  0  0
   59.0557   30.9585   46.2336 H   0  0  0  0  0  0  0  0  0  0  0  0
  1  2  1  0
  2  3  1  0
  3  4  1  0
  4  5  2  0
  5  6  1  0
  6  7  1  0
  7  8  2  0
  8  9  1  0
  9 10  2  0
 10 11  1  0
 11 12  2  0
  6 13  2  0
 13 14  1  0
 14 15  1  0
 15 16  1  0
 16 17  1  0
 17 18  1  0
 18 19  1  0
 19 20  1  0
 20 21  1  0
 21 22  1  0
 22 23  1  0
 13 24  1  0
 24  4  1  0
 12  7  1  0
 23 18  1  0
  1 25  1  0
  1 26  1  0
  1 27  1  0
  2 28  1  0
  2 29  1  0
  3 30  1  0
  3 31  1  0
  5 32  1  0
  8 33  1  0
  9 34  1  0
 10 35  1  0
 11 36  1  0
 12 37  1  0
 14 38  1  0
 14 39  1  0
 15 40  1  0
 16 41  1  0
 16 42  1  0
 17 43  1  0
 17 44  1  0
 19 45  1  0
 19 46  1  0
 20 47  1  0
 20 48  1  0
 21 49  1  0
 21 50  1  0
 22 51  1  0
 22 52  1  0
 23 53  1  0
 23 54  1  0
M  CHG  1   5   1
M  END
>  <UniqueID>  (39) 
37

>  <SMILES>  (39) 
CCCc1[nH+]c(-c2ccccc2)c(CNCCN2CCCCC2)o1

>  <Energy>  (39) 
90.59398676584262

>  <Genealogy>  (39) 
CCCc1[nH+]c(-c2ccccc2)c(CNCCN2CCCCC2)o1 (protonated)
CCCc1[nH+]c(-c2ccccc2)c(CNCCN2CCCCC2)o1 (3D coordinates assigned)
CCCc1[nH+]c(-c2ccccc2)c(CNCCN2CCCCC2)o1 (nonaromatic ring conformer: 90.59398676584262 kcal/mol)

>  <smiles>  (39) 
CCCc1nc(-c2ccccc2)c(CNCCN2CCCCC2)o1

>  <score_type>  (39) 
oracle

>  <origin>  (39) 
adg

>  <m_score__min__energy>  (39) 
-5.8099999999999996

>  <m_primary>  (39) 
energy

$$$$
39:0
     RDKit          3D

 46 48  0  0  0  0  0  0  0  0999 V2000
   60.0440   29.2490   45.9460 C   0  0  0  0  0  0  0  0  0  0  0  0
   59.5280   29.5540   44.5410 C   0  0  0  0  0  0  0  0  0  0  0  0
   58.0700   29.7340   44.5460 N   0  0  0  0  0  0  0  0  0  0  0  0
   57.1830   28.8020   44.9390 C   0  0  0  0  0  0  0  0  0  0  0  0
   55.9230   29.3400   44.8590 C   0  0  0  0  0  0  0  0  0  0  0  0
   56.0070   30.6150   44.4330 N   0  0  0  0  0  0  0  0  0  0  0  0
   57.3270   30.8300   44.2480 C   0  0  0  0  0  0  0  0  0  0  0  0
   57.8620   32.1750   43.7910 C   0  0  0  0  0  0  0  0  0  0  0  0
   57.8890   33.2140   44.8540 N   0  0  0  0  0  0  0  0  0  0  0  0
   57.7510   32.6520   46.2290 C   0  0  0  0  0  0  0  0  0  0  0  0
   59.0980   32.4110   46.9320 C   0  0  0  0  0  0  0  0  0  0  0  0
   59.9560   33.5950   46.8400 N   0  0  0  0  0  0  0  0  0  0  0  0
   61.2380   33.5970   47.4900 C   0  0  0  0  0  0  0  0  0  0  0  0
   62.3990   33.4200   46.7210 C   0  0  0  0  0  0  0  0  0  0  0  0
   63.6570   33.4420   47.3270 C   0  0  0  0  0  0  0  0  0  0  0  0
   63.7680   33.6410   48.7040 C   0  0  0  0  0  0  0  0  0  0  0  0
   62.6210   33.8140   49.4820 C   0  0  0  0  0  0  0  0  0  0  0  0
   61.3460   33.7850   48.8880 C   0  0  0  0  0  0  0  0  0  0  0  0
   60.1220   33.9620   49.7450 C   0  0  0  0  0  0  0  0  0  0  0  0
   59.5510   34.7220   45.9990 C   0  0  0  0  0  0  0  0  0  0  0  0
   59.0130   34.1810   44.6740 C   0  0  0  0  0  0  0  0  0  0  0  0
   59.3467   29.6612   46.6902 H   0  0  0  0  0  0  0  0  0  0  0  0
   60.1214   28.1599   46.0798 H   0  0  0  0  0  0  0  0  0  0  0  0
   61.0355   29.7063   46.0798 H   0  0  0  0  0  0  0  0  0  0  0  0
   60.0035   30.4759   44.1749 H   0  0  0  0  0  0  0  0  0  0  0  0
   59.7755   28.7072   43.8840 H   0  0  0  0  0  0  0  0  0  0  0  0
   57.4265   27.7812   45.2687 H   0  0  0  0  0  0  0  0  0  0  0  0
   54.9897   28.8121   45.1046 H   0  0  0  0  0  0  0  0  0  0  0  0
   58.8887   32.0309   43.4235 H   0  0  0  0  0  0  0  0  0  0  0  0
   57.1769   32.5389   43.0111 H   0  0  0  0  0  0  0  0  0  0  0  0
   57.0140   33.7720   44.7010 H   0  0  0  0  0  0  0  0  0  0  0  0
   57.1629   33.3565   46.8356 H   0  0  0  0  0  0  0  0  0  0  0  0
   57.2581   31.6736   46.1304 H   0  0  0  0  0  0  0  0  0  0  0  0
   58.9148   32.1807   47.9919 H   0  0  0  0  0  0  0  0  0  0  0  0
   59.6063   31.5699   46.4379 H   0  0  0  0  0  0  0  0  0  0  0  0
   62.3174   33.2631   45.6353 H   0  0  0  0  0  0  0  0  0  0  0  0
   64.5622   33.3022   46.7179 H   0  0  0  0  0  0  0  0  0  0  0  0
   64.7607   33.6616   49.1774 H   0  0  0  0  0  0  0  0  0  0  0  0
   62.7152   33.9740   50.5662 H   0  0  0  0  0  0  0  0  0  0  0  0
   60.4083   33.9206   50.8063 H   0  0  0  0  0  0  0  0  0  0  0  0
   59.6600   34.9363   49.5276 H   0  0  0  0  0  0  0  0  0  0  0  0
   59.4029   33.1585   49.5276 H   0  0  0  0  0  0  0  0  0  0  0  0
   58.7657   35.2997   46.5084 H   0  0  0  0  0  0  0  0  0  0  0  0
   60.4145   35.3772   45.8117 H   0  0  0  0  0  0  0  0  0  0  0  0
   58.6546   35.0270   44.0692 H   0  0  0  0  0  0  0  0  0  0  0  0
   59.8350   33.6430   44.1792 H   0  0  0  0  0  0  0  0  0  0  0  0
  1  2  1  0
  2  3  1  0
  3  4  1  0
  4  5  2  0
  5  6  1  0
  6  7  2  0
  7  8  1  0
  8  9  1  0
  9 10  1  0
 10 11  1  0
 11 12  1  0
 12 13  1  0
 13 14  2  0
 14 15  1  0
 15 16  2  0
 16 17  1  0
 17 18  2  0
 18 19  1  0
 12 20  1  0
 20 21  1  0
  7  3  1  0
 21  9  1  0
 18 13  1  0
  1 22  1  0
  1 23  1  0
  1 24  1  0
  2 25  1  0
  2 26  1  0
  4 27  1  0
  5 28  1  0
  8 29  1  0
  8 30  1  0
  9 31  1  0
 10 32  1  0
 10 33  1  0
 11 34  1  0
 11 35  1  0
 14 36  1  0
 15 37  1  0
 16 38  1  0
 17 39  1  0
 19 40  1  0
 19 41  1  0
 19 42  1  0
 20 43  1  0
 20 44  1  0
 21 45  1  0
 21 46  1  0
M  CHG  1   9   1
M  END
>  <UniqueID>  (40) 
38

>  <SMILES>  (40) 
CCn1ccnc1C[NH+]1CCN(c2ccccc2C)CC1

>  <Energy>  (40) 
88.88576065042406

>  <Genealogy>  (40) 
CCn1ccnc1C[NH+]1CCN(c2ccccc2C)CC1 (protonated)
CCn1ccnc1C[NH+]1CCN(c2ccccc2C)CC1 (3D coordinates assigned)
CCn1ccnc1C[NH+]1CCN(c2ccccc2C)CC1 (nonaromatic ring conformer: 88.88576065042406 kcal/mol)

>  <smiles>  (40) 
CCn1ccnc1CN1CCN(c2ccccc2C)CC1

>  <score_type>  (40) 
oracle

>  <origin>  (40) 
adg

>  <m_score__min__energy>  (40) 
-5.7400000000000002

>  <m_primary>  (40) 
energy

$$$$
40:0
     RDKit          3D

 58 60  0  0  0  0  0  0  0  0999 V2000
   58.1370   27.1050   42.8230 C   0  0  0  0  0  0  0  0  0  0  0  0
   58.3370   27.4190   44.3040 C   0  0  0  0  0  0  0  0  0  0  0  0
   59.1110   28.7290   44.5280 C   0  0  0  0  0  0  0  0  0  0  0  0
   58.4060   29.6410   45.4450 N   0  0  0  0  0  0  0  0  0  0  0  0
   58.6140   29.4740   46.8930 C   0  0  0  0  0  0  0  0  0  0  0  0
   59.9140   30.1000   47.3270 C   0  0  0  0  0  0  0  0  0  0  0  0
   60.6390   30.6810   46.4770 O   0  0  0  0  0  0  0  0  0  0  0  0
   60.3320   30.0940   48.6980 N   0  0  0  0  0  0  0  0  0  0  0  0
   59.9290   31.0230   49.7140 C   0  0  0  0  0  0  0  0  0  0  0  0
   58.5970   31.4630   49.8080 C   0  0  0  0  0  0  0  0  0  0  0  0
   58.2170   32.3450   50.8240 C   0  0  0  0  0  0  0  0  0  0  0  0
   59.1540   32.7810   51.7610 C   0  0  0  0  0  0  0  0  0  0  0  0
   60.4740   32.3290   51.6910 C   0  0  0  0  0  0  0  0  0  0  0  0
   60.8630   31.4450   50.6770 C   0  0  0  0  0  0  0  0  0  0  0  0
   62.6800   30.8450   50.6130 Br  0  0  0  0  0  0  0  0  0  0  0  0
   57.4750   30.6140   44.9110 C   0  0  0  0  0  0  0  0  0  0  0  0
   56.2500   30.3220   44.8580 O   0  0  0  0  0  0  0  0  0  0  0  0
   57.9250   31.9540   44.3650 C   0  0  0  0  0  0  0  0  0  0  0  0
   57.6570   33.0890   45.2770 N   0  0  0  0  0  0  0  0  0  0  0  0
   58.2290   34.3870   44.8480 C   0  0  0  0  0  0  0  0  0  0  0  0
   59.6450   34.6200   45.4030 C   0  0  0  0  0  0  0  0  0  0  0  0
   59.7660   34.1420   46.7850 N   0  0  0  0  0  0  0  0  0  0  0  0
   61.0710   33.9500   47.3670 C   0  0  0  0  0  0  0  0  0  0  0  0
   61.3050   34.2720   48.7160 C   0  0  0  0  0  0  0  0  0  0  0  0
   62.5750   34.1060   49.2750 C   0  0  0  0  0  0  0  0  0  0  0  0
   63.6280   33.6240   48.4910 C   0  0  0  0  0  0  0  0  0  0  0  0
   64.8600   33.4660   49.0350 F   0  0  0  0  0  0  0  0  0  0  0  0
   63.4100   33.3100   47.1470 C   0  0  0  0  0  0  0  0  0  0  0  0
   62.1400   33.4730   46.5860 C   0  0  0  0  0  0  0  0  0  0  0  0
   58.5460   33.8020   47.5220 C   0  0  0  0  0  0  0  0  0  0  0  0
   57.7360   32.7720   46.7250 C   0  0  0  0  0  0  0  0  0  0  0  0
   57.5486   26.1813   42.7202 H   0  0  0  0  0  0  0  0  0  0  0  0
   57.6016   27.9363   42.3410 H   0  0  0  0  0  0  0  0  0  0  0  0
   59.1167   26.9713   42.3410 H   0  0  0  0  0  0  0  0  0  0  0  0
   57.3505   27.5057   44.7828 H   0  0  0  0  0  0  0  0  0  0  0  0
   58.9284   26.6017   44.7425 H   0  0  0  0  0  0  0  0  0  0  0  0
   60.0965   28.4899   44.9542 H   0  0  0  0  0  0  0  0  0  0  0  0
   59.2077   29.2350   43.5561 H   0  0  0  0  0  0  0  0  0  0  0  0
   57.7851   29.9546   47.4334 H   0  0  0  0  0  0  0  0  0  0  0  0
   58.6496   28.3984   47.1204 H   0  0  0  0  0  0  0  0  0  0  0  0
   57.8512   31.1121   49.0796 H   0  0  0  0  0  0  0  0  0  0  0  0
   57.1763   32.6961   50.8847 H   0  0  0  0  0  0  0  0  0  0  0  0
   58.8535   33.4806   52.5549 H   0  0  0  0  0  0  0  0  0  0  0  0
   61.2100   32.6685   52.4346 H   0  0  0  0  0  0  0  0  0  0  0  0
   59.0080   31.9069   44.1783 H   0  0  0  0  0  0  0  0  0  0  0  0
   57.3481   32.1368   43.4464 H   0  0  0  0  0  0  0  0  0  0  0  0
   58.2733   34.4068   43.7491 H   0  0  0  0  0  0  0  0  0  0  0  0
   57.5808   35.1839   45.2415 H   0  0  0  0  0  0  0  0  0  0  0  0
   60.3687   34.0813   44.7737 H   0  0  0  0  0  0  0  0  0  0  0  0
   59.8462   35.7014   45.3928 H   0  0  0  0  0  0  0  0  0  0  0  0
   60.4820   34.6575   49.3358 H   0  0  0  0  0  0  0  0  0  0  0  0
   62.7466   34.3547   50.3327 H   0  0  0  0  0  0  0  0  0  0  0  0
   64.2390   32.9340   46.5295 H   0  0  0  0  0  0  0  0  0  0  0  0
   61.9751   33.2267   45.5267 H   0  0  0  0  0  0  0  0  0  0  0  0
   58.8152   33.3785   48.5008 H   0  0  0  0  0  0  0  0  0  0  0  0
   57.9416   34.7094   47.6681 H   0  0  0  0  0  0  0  0  0  0  0  0
   58.2104   31.7865   46.8425 H   0  0  0  0  0  0  0  0  0  0  0  0
   56.7096   32.7842   47.1204 H   0  0  0  0  0  0  0  0  0  0  0  0
  1  2  1  0
  2  3  1  0
  3  4  1  0
  4  5  1  0
  5  6  1  0
  6  7  2  0
  6  8  1  0
  8  9  1  0
  9 10  2  0
 10 11  1  0
 11 12  2  0
 12 13  1  0
 13 14  2  0
 14 15  1  0
  4 16  1  0
 16 17  2  0
 16 18  1  0
 18 19  1  0
 19 20  1  0
 20 21  1  0
 21 22  1  0
 22 23  1  0
 23 24  2  0
 24 25  1  0
 25 26  2  0
 26 27  1  0
 26 28  1  0
 28 29  2  0
 22 30  1  0
 30 31  1  0
 14  9  1  0
 31 19  1  0
 29 23  1  0
  1 32  1  0
  1 33  1  0
  1 34  1  0
  2 35  1  0
  2 36  1  0
  3 37  1  0
  3 38  1  0
  5 39  1  0
  5 40  1  0
 10 41  1  0
 11 42  1  0
 12 43  1  0
 13 44  1  0
 18 45  1  0
 18 46  1  0
 20 47  1  0
 20 48  1  0
 21 49  1  0
 21 50  1  0
 24 51  1  0
 25 52  1  0
 28 53  1  0
 29 54  1  0
 30 55  1  0
 30 56  1  0
 31 57  1  0
 31 58  1  0
M  CHG  1   8  -1
M  END
>  <UniqueID>  (41) 
39

>  <SMILES>  (41) 
CCCN(CC(=O)[N-]c1ccccc1Br)C(=O)CN1CCN(c2ccc(F)cc2)CC1

>  <Energy>  (41) 
74.51874423342068

>  <Genealogy>  (41) 
CCCN(CC(=O)[N-]c1ccccc1Br)C(=O)CN1CCN(c2ccc(F)cc2)CC1 (protonated)
CCCN(CC(=O)[N-]c1ccccc1Br)C(=O)CN1CCN(c2ccc(F)cc2)CC1 (3D coordinates assigned)
CCCN(CC(=O)[N-]c1ccccc1Br)C(=O)CN1CCN(c2ccc(F)cc2)CC1 (nonaromatic ring conformer: 74.51874423342068 kcal/mol)

>  <smiles>  (41) 
CCCN(CC(=O)Nc1ccccc1Br)C(=O)CN1CCN(c2ccc(F)cc2)CC1

>  <score_type>  (41) 
oracle

>  <origin>  (41) 
adg

>  <m_score__min__energy>  (41) 
-11.109999999999999

>  <m_primary>  (41) 
energy

$$$$
41:0
     RDKit          3D

 22 24  0  0  0  0  0  0  0  0999 V2000
   56.6660   34.5920   44.9430 N   0  0  0  0  0  0  0  0  0  0  0  0
   57.4810   33.6440   45.2570 C   0  0  0  0  0  0  0  0  0  0  0  0
   58.7190   33.7980   45.7590 N   0  0  0  0  0  0  0  0  0  0  0  0
   59.2910   32.6210   45.9720 N   0  0  0  0  0  0  0  0  0  0  0  0
   58.4120   31.6810   45.6040 C   0  0  0  0  0  0  0  0  0  0  0  0
   58.4660   30.2800   45.6030 C   0  0  0  0  0  0  0  0  0  0  0  0
   60.0650   29.4970   46.2370 Br  0  0  0  0  0  0  0  0  0  0  0  0
   57.4140   29.5180   45.1680 C   0  0  0  0  0  0  0  0  0  0  0  0
   57.3730   28.0760   45.1290 C   0  0  0  0  0  0  0  0  0  0  0  0
   58.1380   27.1370   44.4960 C   0  0  0  0  0  0  0  0  0  0  0  0
   57.6540   25.8610   44.8060 C   0  0  0  0  0  0  0  0  0  0  0  0
   56.5870   26.1050   45.6390 C   0  0  0  0  0  0  0  0  0  0  0  0
   56.4660   27.3720   45.7920 O   0  0  0  0  0  0  0  0  0  0  0  0
   56.3230   30.2170   44.7380 N   0  0  0  0  0  0  0  0  0  0  0  0
   56.2700   31.5260   44.7370 N   0  0  0  0  0  0  0  0  0  0  0  0
   57.2660   32.2930   45.1500 C   0  0  0  0  0  0  0  0  0  0  0  0
   55.9370   34.8740   45.6210 H   0  0  0  0  0  0  0  0  0  0  0  0
   59.1380   34.7230   45.9430 H   0  0  0  0  0  0  0  0  0  0  0  0
   60.2610   32.4700   46.3620 H   0  0  0  0  0  0  0  0  0  0  0  0
   58.9988   27.3505   43.8452 H   0  0  0  0  0  0  0  0  0  0  0  0
   58.0377   24.8888   44.4631 H   0  0  0  0  0  0  0  0  0  0  0  0
   55.9439   25.3396   46.0979 H   0  0  0  0  0  0  0  0  0  0  0  0
  1  2  2  3
  2  3  1  0
  3  4  1  0
  4  5  1  0
  5  6  2  0
  6  7  1  0
  6  8  1  0
  8  9  1  0
  9 10  2  0
 10 11  1  0
 11 12  2  0
 12 13  1  0
  8 14  2  0
 14 15  1  0
 15 16  2  0
 16  2  1  0
 16  5  1  0
 13  9  1  0
  1 17  1  0
  3 18  1  0
  4 19  1  0
 10 20  1  0
 11 21  1  0
 12 22  1  0
M  END
>  <smiles>  (42) 
N=c1[nH][nH]c2c(Br)c(-c3ccco3)nnc12

>  <score_type>  (42) 
oracle

>  <origin>  (42) 
adg

>  <m_score__min__energy>  (42) 
-6.0899999999999999

>  <m_primary>  (42) 
energy

$$$$
42:0
     RDKit          3D

 48 50  0  0  0  0  0  0  0  0999 V2000
   60.5520   28.6680   44.9050 C   0  0  0  0  0  0  0  0  0  0  0  0
   60.4730   28.9120   46.4120 C   0  0  0  0  0  0  0  0  0  0  0  0
   59.7610   27.7710   47.1500 C   0  0  0  0  0  0  0  0  0  0  0  0
   59.9460   26.4520   46.4560 C   0  0  0  0  0  0  0  0  0  0  0  0
   61.1020   25.9660   46.3270 O   0  0  0  0  0  0  0  0  0  0  0  0
   58.8270   25.7470   45.9150 N   0  0  0  0  0  0  0  0  0  0  0  0
   58.3850   24.3400   45.8710 C   0  0  0  0  0  0  0  0  0  0  0  0
   57.1680   24.5750   45.0320 C   0  0  0  0  0  0  0  0  0  0  0  0
   57.6280   26.0080   45.0880 C   0  0  2  0  0  0  0  0  0  0  0  0
   58.0300   26.5590   43.7080 C   0  0  0  0  0  0  0  0  0  0  0  0
   56.6320   26.8930   45.8080 C   0  0  0  0  0  0  0  0  0  0  0  0
   55.4490   26.4920   45.9870 O   0  0  0  0  0  0  0  0  0  0  0  0
   57.0190   28.1990   46.2510 N   0  0  0  0  0  0  0  0  0  0  0  0
   57.1640   29.3440   45.4070 C   0  0  0  0  0  0  0  0  0  0  0  0
   56.5710   29.3330   44.1400 C   0  0  0  0  0  0  0  0  0  0  0  0
   56.6350   30.4630   43.3270 C   0  0  0  0  0  0  0  0  0  0  0  0
   57.2660   31.6230   43.7810 C   0  0  0  0  0  0  0  0  0  0  0  0
   57.8480   31.6620   45.0570 C   0  0  0  0  0  0  0  0  0  0  0  0
   58.4640   32.9090   45.5730 C   0  0  0  0  0  0  0  0  0  0  0  0
   58.7550   33.9760   44.6990 C   0  0  0  0  0  0  0  0  0  0  0  0
   59.2900   35.1690   45.1960 C   0  0  0  0  0  0  0  0  0  0  0  0
   59.5470   35.3070   46.5600 C   0  0  0  0  0  0  0  0  0  0  0  0
   59.2730   34.2510   47.4350 C   0  0  0  0  0  0  0  0  0  0  0  0
   58.7310   33.0570   46.9470 C   0  0  0  0  0  0  0  0  0  0  0  0
   57.7970   30.5130   45.8640 C   0  0  0  0  0  0  0  0  0  0  0  0
   60.8859   27.6368   44.7175 H   0  0  0  0  0  0  0  0  0  0  0  0
   59.5590   28.8192   44.4565 H   0  0  0  0  0  0  0  0  0  0  0  0
   61.2680   29.3725   44.4565 H   0  0  0  0  0  0  0  0  0  0  0  0
   61.4945   29.0070   46.8090 H   0  0  0  0  0  0  0  0  0  0  0  0
   59.8919   29.8318   46.5740 H   0  0  0  0  0  0  0  0  0  0  0  0
   60.1696   27.6970   48.1686 H   0  0  0  0  0  0  0  0  0  0  0  0
   58.6847   27.9975   47.1693 H   0  0  0  0  0  0  0  0  0  0  0  0
   59.1168   23.6813   45.3805 H   0  0  0  0  0  0  0  0  0  0  0  0
   58.2350   23.8342   46.8362 H   0  0  0  0  0  0  0  0  0  0  0  0
   57.1811   24.1103   44.0351 H   0  0  0  0  0  0  0  0  0  0  0  0
   56.1566   24.2421   45.3081 H   0  0  0  0  0  0  0  0  0  0  0  0
   58.6737   27.4413   43.8388 H   0  0  0  0  0  0  0  0  0  0  0  0
   58.5773   25.7853   43.1495 H   0  0  0  0  0  0  0  0  0  0  0  0
   57.1262   26.8441   43.1495 H   0  0  0  0  0  0  0  0  0  0  0  0
   56.0529   28.4301   43.7846 H   0  0  0  0  0  0  0  0  0  0  0  0
   56.1863   30.4411   42.3229 H   0  0  0  0  0  0  0  0  0  0  0  0
   57.3070   32.5118   43.1342 H   0  0  0  0  0  0  0  0  0  0  0  0
   58.5605   33.8700   43.6215 H   0  0  0  0  0  0  0  0  0  0  0  0
   59.5086   36.0003   44.5096 H   0  0  0  0  0  0  0  0  0  0  0  0
   59.9656   36.2474   46.9478 H   0  0  0  0  0  0  0  0  0  0  0  0
   59.4840   34.3594   48.5091 H   0  0  0  0  0  0  0  0  0  0  0  0
   58.5127   32.2309   47.6397 H   0  0  0  0  0  0  0  0  0  0  0  0
   58.2569   30.5283   46.8631 H   0  0  0  0  0  0  0  0  0  0  0  0
  1  2  1  0
  2  3  1  0
  3  4  1  0
  4  5  2  0
  4  6  1  0
  6  7  1  0
  7  8  1  0
  8  9  1  0
  9 10  1  6
  9 11  1  0
 11 12  2  0
 11 13  1  0
 13 14  1  0
 14 15  2  0
 15 16  1  0
 16 17  2  0
 17 18  1  0
 18 19  1  0
 19 20  2  0
 20 21  1  0
 21 22  2  0
 22 23  1  0
 23 24  2  0
 18 25  2  0
  9  6  1  0
 25 14  1  0
 24 19  1  0
  1 26  1  0
  1 27  1  0
  1 28  1  0
  2 29  1  0
  2 30  1  0
  3 31  1  0
  3 32  1  0
  7 33  1  0
  7 34  1  0
  8 35  1  0
  8 36  1  0
 10 37  1  0
 10 38  1  0
 10 39  1  0
 15 40  1  0
 16 41  1  0
 17 42  1  0
 20 43  1  0
 21 44  1  0
 22 45  1  0
 23 46  1  0
 24 47  1  0
 25 48  1  0
M  CHG  1  13  -1
M  END
>  <UniqueID>  (43) 
40

>  <SMILES>  (43) 
CCCC(=O)N1CC[C@@]1(C)C(=O)[N-]c1cccc(-c2ccccc2)c1

>  <Energy>  (43) 
95.98181151400529

>  <Genealogy>  (43) 
CCCC(=O)N1CCC1(C)C(=O)[N-]c1cccc(-c2ccccc2)c1 (protonated)
CCCC(=O)N1CC[C@@]1(C)C(=O)[N-]c1cccc(-c2ccccc2)c1 (chirality)
CCCC(=O)N1CC[C@@]1(C)C(=O)[N-]c1cccc(-c2ccccc2)c1 (3D coordinates assigned)
CCCC(=O)N1CC[C@@]1(C)C(=O)[N-]c1cccc(-c2ccccc2)c1 (nonaromatic ring conformer: 95.98181151400529 kcal/mol)

>  <smiles>  (43) 
CCCC(=O)N1CCC1(C)C(=O)Nc1cccc(-c2ccccc2)c1

>  <score_type>  (43) 
oracle

>  <origin>  (43) 
adg

>  <m_score__min__energy>  (43) 
-10.779999999999999

>  <m_primary>  (43) 
energy

$$$$
43:0
     RDKit          3D

 44 46  0  0  0  0  0  0  0  0999 V2000
   56.3770   29.8360   42.9990 C   0  0  0  0  0  0  0  0  0  0  0  0
   56.1870   30.5080   44.2410 O   0  0  0  0  0  0  0  0  0  0  0  0
   57.1670   31.2800   44.8820 C   0  0  0  0  0  0  0  0  0  0  0  0
   57.0260   32.6730   44.8770 C   0  0  0  0  0  0  0  0  0  0  0  0
   57.9750   33.4860   45.5040 C   0  0  0  0  0  0  0  0  0  0  0  0
   59.0770   32.9130   46.1530 C   0  0  0  0  0  0  0  0  0  0  0  0
   60.0460   33.7470   46.8110 N   0  0  0  0  0  0  0  0  0  0  0  0
   61.4250   33.7930   46.3130 C   0  0  0  0  0  0  0  0  0  0  0  0
   62.3510   33.1560   47.3120 C   0  0  0  0  0  0  0  0  0  0  0  0
   63.4920   33.8440   47.7570 C   0  0  0  0  0  0  0  0  0  0  0  0
   64.3320   33.2690   48.7160 C   0  0  0  0  0  0  0  0  0  0  0  0
   64.0320   32.0110   49.2440 C   0  0  0  0  0  0  0  0  0  0  0  0
   62.8890   31.3260   48.8190 C   0  0  0  0  0  0  0  0  0  0  0  0
   62.0470   31.8980   47.8600 C   0  0  0  0  0  0  0  0  0  0  0  0
   59.6380   34.5620   47.9600 C   0  0  0  0  0  0  0  0  0  0  0  0
   59.5740   33.7090   49.1950 C   0  0  0  0  0  0  0  0  0  0  0  0
   58.6010   32.7010   49.3090 C   0  0  0  0  0  0  0  0  0  0  0  0
   58.5740   31.8720   50.4340 C   0  0  0  0  0  0  0  0  0  0  0  0
   59.5250   32.0350   51.4470 C   0  0  0  0  0  0  0  0  0  0  0  0
   60.5060   33.0240   51.3330 C   0  0  0  0  0  0  0  0  0  0  0  0
   60.5350   33.8560   50.2100 C   0  0  0  0  0  0  0  0  0  0  0  0
   59.2240   31.5180   46.1610 C   0  0  0  0  0  0  0  0  0  0  0  0
   58.2790   30.7040   45.5290 C   0  0  0  0  0  0  0  0  0  0  0  0
   56.6718   28.7932   43.1877 H   0  0  0  0  0  0  0  0  0  0  0  0
   55.4387   29.8537   42.4252 H   0  0  0  0  0  0  0  0  0  0  0  0
   57.1672   30.3424   42.4252 H   0  0  0  0  0  0  0  0  0  0  0  0
   56.1611   33.1317   44.3754 H   0  0  0  0  0  0  0  0  0  0  0  0
   57.8562   34.5794   45.4878 H   0  0  0  0  0  0  0  0  0  0  0  0
   61.4868   33.2484   45.3593 H   0  0  0  0  0  0  0  0  0  0  0  0
   61.7209   34.8416   46.1620 H   0  0  0  0  0  0  0  0  0  0  0  0
   63.7257   34.8387   47.3497 H   0  0  0  0  0  0  0  0  0  0  0  0
   65.2293   33.8076   49.0547 H   0  0  0  0  0  0  0  0  0  0  0  0
   64.6958   31.5583   49.9953 H   0  0  0  0  0  0  0  0  0  0  0  0
   62.6523   30.3373   49.2391 H   0  0  0  0  0  0  0  0  0  0  0  0
   61.1439   31.3616   47.5335 H   0  0  0  0  0  0  0  0  0  0  0  0
   60.3690   35.3698   48.1121 H   0  0  0  0  0  0  0  0  0  0  0  0
   58.6444   34.9916   47.7647 H   0  0  0  0  0  0  0  0  0  0  0  0
   57.8578   32.5640   48.5096 H   0  0  0  0  0  0  0  0  0  0  0  0
   57.8045   31.0910   50.5229 H   0  0  0  0  0  0  0  0  0  0  0  0
   59.5007   31.3845   52.3337 H   0  0  0  0  0  0  0  0  0  0  0  0
   61.2562   33.1478   52.1279 H   0  0  0  0  0  0  0  0  0  0  0  0
   61.3128   34.6286   50.1204 H   0  0  0  0  0  0  0  0  0  0  0  0
   60.0875   31.0619   46.6673 H   0  0  0  0  0  0  0  0  0  0  0  0
   58.4037   29.6111   45.5367 H   0  0  0  0  0  0  0  0  0  0  0  0
  1  2  1  0
  2  3  1  0
  3  4  2  0
  4  5  1  0
  5  6  2  0
  6  7  1  0
  7  8  1  0
  8  9  1  0
  9 10  2  0
 10 11  1  0
 11 12  2  0
 12 13  1  0
 13 14  2  0
  7 15  1  0
 15 16  1  0
 16 17  2  0
 17 18  1  0
 18 19  2  0
 19 20  1  0
 20 21  2  0
  6 22  1  0
 22 23  2  0
 23  3  1  0
 14  9  1  0
 21 16  1  0
  1 24  1  0
  1 25  1  0
  1 26  1  0
  4 27  1  0
  5 28  1  0
  8 29  1  0
  8 30  1  0
 10 31  1  0
 11 32  1  0
 12 33  1  0
 13 34  1  0
 14 35  1  0
 15 36  1  0
 15 37  1  0
 17 38  1  0
 18 39  1  0
 19 40  1  0
 20 41  1  0
 21 42  1  0
 22 43  1  0
 23 44  1  0
M  END
>  <UniqueID>  (44) 
41

>  <SMILES>  (44) 
COc1ccc(N(Cc2ccccc2)Cc2ccccc2)cc1

>  <Energy>  (44) 
46.15697487610112

>  <Genealogy>  (44) 
COc1ccc(N(Cc2ccccc2)Cc2ccccc2)cc1 (3D coordinates assigned)
COc1ccc(N(Cc2ccccc2)Cc2ccccc2)cc1 (optimized conformer: 46.15697487610112 kcal/mol)

>  <smiles>  (44) 
COc1ccc(N(Cc2ccccc2)Cc2ccccc2)cc1

>  <score_type>  (44) 
oracle

>  <origin>  (44) 
adg

>  <m_score__min__energy>  (44) 
-6.7400000000000002

>  <m_primary>  (44) 
energy

$$$$
44:0
     RDKit          3D

 70 72  0  0  0  0  0  0  0  0999 V2000
   56.2570   22.5200   42.6430 C   0  0  0  0  0  0  0  0  0  0  0  0
   56.0900   23.0450   43.9410 O   0  0  0  0  0  0  0  0  0  0  0  0
   55.8290   22.0130   44.8870 C   0  0  2  0  0  0  0  0  0  0  0  0
   54.7980   22.5240   45.9020 C   0  0  2  0  0  0  0  0  0  0  0  0
   53.5960   22.8330   45.2420 O   0  0  0  0  0  0  0  0  0  0  0  0
   55.3450   23.7500   46.6670 C   0  0  2  0  0  0  0  0  0  0  0  0
   54.9570   24.9330   46.0120 O   0  0  0  0  0  0  0  0  0  0  0  0
   56.8910   23.6930   46.8230 C   0  0  2  0  0  0  0  0  0  0  0  0
   57.5720   24.4380   45.8060 O   0  0  0  0  0  0  0  0  0  0  0  0
   57.6930   25.8360   45.7280 C   0  0  0  0  0  0  0  0  0  0  0  0
   57.7890   26.4130   44.4580 C   0  0  0  0  0  0  0  0  0  0  0  0
   57.9080   27.7980   44.3080 C   0  0  0  0  0  0  0  0  0  0  0  0
   57.9370   28.6360   45.4370 C   0  0  0  0  0  0  0  0  0  0  0  0
   58.0600   30.1090   45.2830 C   0  0  0  0  0  0  0  0  0  0  0  0
   57.9480   30.7060   44.0140 C   0  0  0  0  0  0  0  0  0  0  0  0
   58.0570   32.0920   43.8700 C   0  0  0  0  0  0  0  0  0  0  0  0
   58.2850   32.9100   44.9810 C   0  0  0  0  0  0  0  0  0  0  0  0
   58.3790   34.2960   44.7750 O   0  0  0  0  0  0  0  0  0  0  0  0
   59.4280   35.1370   45.2550 C   0  0  0  0  0  0  0  0  0  0  0  0
   59.2940   35.3540   46.7660 C   0  0  0  0  0  0  0  0  0  0  0  0
   60.2960   34.4850   47.5380 C   0  0  0  0  0  0  0  0  0  0  0  0
   61.3800   33.9020   46.6180 C   0  0  0  0  0  0  0  0  0  0  0  0
   62.3840   33.1230   47.3750 N   0  0  0  0  0  0  0  0  0  0  0  0
   61.9910   31.7060   47.4270 C   0  0  0  0  0  0  0  0  0  0  0  0
   63.7210   33.2380   46.7640 C   0  0  0  0  0  0  0  0  0  0  0  0
   58.3980   32.3170   46.2540 C   0  0  0  0  0  0  0  0  0  0  0  0
   58.2870   30.9310   46.4000 C   0  0  0  0  0  0  0  0  0  0  0  0
   57.8440   28.0560   46.7140 C   0  0  0  0  0  0  0  0  0  0  0  0
   57.7230   26.6720   46.8610 C   0  0  0  0  0  0  0  0  0  0  0  0
   57.3700   22.3560   46.8490 O   0  0  0  0  0  0  0  0  0  0  0  0
   57.1430   21.6070   45.6520 C   0  0  0  0  0  0  0  0  0  0  0  0
   58.3880   21.7000   44.7390 C   0  0  0  0  0  0  0  0  0  0  0  0
   57.0230   20.1320   46.0940 C   0  0  0  0  0  0  0  0  0  0  0  0
   56.5898   21.4737   42.7107 H   0  0  0  0  0  0  0  0  0  0  0  0
   55.2998   22.5661   42.1029 H   0  0  0  0  0  0  0  0  0  0  0  0
   57.0116   23.1106   42.1029 H   0  0  0  0  0  0  0  0  0  0  0  0
   55.4467   21.1302   44.3535 H   0  0  0  0  0  0  0  0  0  0  0  0
   54.5995   21.7336   46.6409 H   0  0  0  0  0  0  0  0  0  0  0  0
   53.7720   23.6420   44.6930 H   0  0  0  0  0  0  0  0  0  0  0  0
   54.9160   23.7373   47.6798 H   0  0  0  0  0  0  0  0  0  0  0  0
   55.4760   24.9850   45.1670 H   0  0  0  0  0  0  0  0  0  0  0  0
   57.1135   24.1637   47.7920 H   0  0  0  0  0  0  0  0  0  0  0  0
   57.7707   25.7695   43.5661 H   0  0  0  0  0  0  0  0  0  0  0  0
   57.9794   28.2347   43.3009 H   0  0  0  0  0  0  0  0  0  0  0  0
   57.7733   30.0773   43.1285 H   0  0  0  0  0  0  0  0  0  0  0  0
   57.9624   32.5443   42.8718 H   0  0  0  0  0  0  0  0  0  0  0  0
   60.3977   34.6633   45.0420 H   0  0  0  0  0  0  0  0  0  0  0  0
   59.3622   36.1114   44.7488 H   0  0  0  0  0  0  0  0  0  0  0  0
   59.4846   36.4128   46.9955 H   0  0  0  0  0  0  0  0  0  0  0  0
   58.2761   35.0703   47.0716 H   0  0  0  0  0  0  0  0  0  0  0  0
   60.7794   35.1012   48.3104 H   0  0  0  0  0  0  0  0  0  0  0  0
   59.7436   33.6462   47.9866 H   0  0  0  0  0  0  0  0  0  0  0  0
   60.9021   33.2429   45.8783 H   0  0  0  0  0  0  0  0  0  0  0  0
   61.8972   34.7393   46.1267 H   0  0  0  0  0  0  0  0  0  0  0  0
   61.9029   31.3882   48.4764 H   0  0  0  0  0  0  0  0  0  0  0  0
   61.0227   31.5753   46.9217 H   0  0  0  0  0  0  0  0  0  0  0  0
   62.7536   31.0952   46.9217 H   0  0  0  0  0  0  0  0  0  0  0  0
   64.4816   33.3034   47.5559 H   0  0  0  0  0  0  0  0  0  0  0  0
   63.9164   32.3533   46.1401 H   0  0  0  0  0  0  0  0  0  0  0  0
   63.7624   34.1430   46.1401 H   0  0  0  0  0  0  0  0  0  0  0  0
   58.5745   32.9478   47.1377 H   0  0  0  0  0  0  0  0  0  0  0  0
   58.3782   30.4795   47.3989 H   0  0  0  0  0  0  0  0  0  0  0  0
   57.8667   28.6984   47.6067 H   0  0  0  0  0  0  0  0  0  0  0  0
   57.6508   26.2329   47.8670 H   0  0  0  0  0  0  0  0  0  0  0  0
   59.2936   21.7677   45.3597 H   0  0  0  0  0  0  0  0  0  0  0  0
   58.4448   20.8036   44.1040 H   0  0  0  0  0  0  0  0  0  0  0  0
   58.3110   22.5949   44.1040 H   0  0  0  0  0  0  0  0  0  0  0  0
   57.0186   20.0777   47.1926 H   0  0  0  0  0  0  0  0  0  0  0  0
   56.0873   19.7067   45.7021 H   0  0  0  0  0  0  0  0  0  0  0  0
   57.8777   19.5611   45.7021 H   0  0  0  0  0  0  0  0  0  0  0  0
  1  2  1  0
  2  3  1  0
  3  4  1  0
  4  5  1  0
  4  6  1  0
  6  7  1  0
  6  8  1  0
  8  9  1  0
  9 10  1  0
 10 11  2  0
 11 12  1  0
 12 13  2  0
 13 14  1  0
 14 15  2  0
 15 16  1  0
 16 17  2  0
 17 18  1  0
 18 19  1  0
 19 20  1  0
 20 21  1  0
 21 22  1  0
 22 23  1  0
 23 24  1  0
 23 25  1  0
 17 26  1  0
 26 27  2  0
 13 28  1  0
 28 29  2  0
  8 30  1  0
 30 31  1  0
 31 32  1  0
 31 33  1  0
 31  3  1  0
 29 10  1  0
 27 14  1  0
  1 34  1  0
  1 35  1  0
  1 36  1  0
  3 37  1  6
  4 38  1  1
  5 39  1  0
  6 40  1  1
  7 41  1  0
  8 42  1  1
 11 43  1  0
 12 44  1  0
 15 45  1  0
 16 46  1  0
 19 47  1  0
 19 48  1  0
 20 49  1  0
 20 50  1  0
 21 51  1  0
 21 52  1  0
 22 53  1  0
 22 54  1  0
 24 55  1  0
 24 56  1  0
 24 57  1  0
 25 58  1  0
 25 59  1  0
 25 60  1  0
 26 61  1  0
 27 62  1  0
 28 63  1  0
 29 64  1  0
 32 65  1  0
 32 66  1  0
 32 67  1  0
 33 68  1  0
 33 69  1  0
 33 70  1  0
M  END
>  <UniqueID>  (45) 
42

>  <SMILES>  (45) 
CO[C@@H]1[C@H](O)C(O)C(Oc2ccc(-c3ccc(OCCCCN(C)C)cc3)cc2)OC1(C)C

>  <Energy>  (45) 
88.93022440154353

>  <Genealogy>  (45) 
CO[C@@H]1[C@H](O)C(O)C(Oc2ccc(-c3ccc(OCCCCN(C)C)cc3)cc2)OC1(C)C (chirality)
CO[C@@H]1[C@H](O)C(O)C(Oc2ccc(-c3ccc(OCCCCN(C)C)cc3)cc2)OC1(C)C (3D coordinates assigned)
CO[C@@H]1[C@H](O)C(O)C(Oc2ccc(-c3ccc(OCCCCN(C)C)cc3)cc2)OC1(C)C (nonaromatic ring conformer: 88.93022440154353 kcal/mol)

>  <smiles>  (45) 
COC1C(O)C(O)C(Oc2ccc(-c3ccc(OCCCCN(C)C)cc3)cc2)OC1(C)C

>  <score_type>  (45) 
oracle

>  <origin>  (45) 
adg

>  <m_score__min__energy>  (45) 
-7.9900000000000002

>  <m_primary>  (45) 
energy

$$$$
45:0
     RDKit          3D

 56 59  0  0  0  0  0  0  0  0999 V2000
   63.3730   33.9120   46.3720 C   0  0  0  0  0  0  0  0  0  0  0  0
   62.9580   32.9390   47.4360 C   0  0  0  0  0  0  0  0  0  0  0  0
   63.5740   32.9670   48.6940 C   0  0  0  0  0  0  0  0  0  0  0  0
   63.2090   32.0430   49.6750 C   0  0  0  0  0  0  0  0  0  0  0  0
   62.2360   31.0780   49.4070 C   0  0  0  0  0  0  0  0  0  0  0  0
   61.6180   31.0220   48.1440 C   0  0  0  0  0  0  0  0  0  0  0  0
   60.5820   30.0070   47.8420 C   0  0  0  0  0  0  0  0  0  0  0  0
   60.2700   29.4530   46.6140 C   0  0  0  0  0  0  0  0  0  0  0  0
   59.2840   28.5700   46.8410 N   0  0  0  0  0  0  0  0  0  0  0  0
   58.6030   27.7420   45.8510 C   0  0  0  0  0  0  0  0  0  0  0  0
   58.5810   28.4260   44.4810 C   0  0  0  0  0  0  0  0  0  0  0  0
   57.9250   29.8150   44.5380 C   0  0  0  0  0  0  0  0  0  0  0  0
   56.8100   29.9890   43.4910 C   0  0  0  0  0  0  0  0  0  0  0  0
   57.0280   31.2080   42.5640 C   0  0  0  0  0  0  0  0  0  0  0  0
   58.1080   32.1650   43.0770 C   0  0  0  0  0  0  0  0  0  0  0  0
   57.5710   33.0360   44.0660 O   0  0  0  0  0  0  0  0  0  0  0  0
   58.2170   33.3840   45.2610 C   0  0  0  0  0  0  0  0  0  0  0  0
   59.0690   34.4930   45.2530 C   0  0  0  0  0  0  0  0  0  0  0  0
   59.7380   34.8850   46.4160 C   0  0  0  0  0  0  0  0  0  0  0  0
   59.5540   34.1750   47.6100 C   0  0  0  0  0  0  0  0  0  0  0  0
   60.2170   34.5630   48.7840 C   0  0  0  0  0  0  0  0  0  0  0  0
   60.0220   33.8480   49.9690 C   0  0  0  0  0  0  0  0  0  0  0  0
   59.1650   32.7430   49.9910 C   0  0  0  0  0  0  0  0  0  0  0  0
   58.4970   32.3470   48.8270 C   0  0  0  0  0  0  0  0  0  0  0  0
   58.6870   33.0550   47.6310 C   0  0  0  0  0  0  0  0  0  0  0  0
   58.0230   32.6670   46.4570 C   0  0  0  0  0  0  0  0  0  0  0  0
   58.9970   28.5780   48.1330 N   0  0  0  0  0  0  0  0  0  0  0  0
   59.7760   29.4430   48.7690 N   0  0  0  0  0  0  0  0  0  0  0  0
   61.9960   31.9550   47.1590 C   0  0  0  0  0  0  0  0  0  0  0  0
   63.7630   34.8263   46.8432 H   0  0  0  0  0  0  0  0  0  0  0  0
   64.1563   33.4592   45.7464 H   0  0  0  0  0  0  0  0  0  0  0  0
   62.5040   34.1639   45.7464 H   0  0  0  0  0  0  0  0  0  0  0  0
   64.3473   33.7190   48.9094 H   0  0  0  0  0  0  0  0  0  0  0  0
   63.6902   32.0754   50.6636 H   0  0  0  0  0  0  0  0  0  0  0  0
   61.9509   30.3574   50.1877 H   0  0  0  0  0  0  0  0  0  0  0  0
   60.7359   29.6883   45.6457 H   0  0  0  0  0  0  0  0  0  0  0  0
   59.1295   26.7801   45.7638 H   0  0  0  0  0  0  0  0  0  0  0  0
   57.5651   27.5863   46.1804 H   0  0  0  0  0  0  0  0  0  0  0  0
   59.6153   28.5368   44.1233 H   0  0  0  0  0  0  0  0  0  0  0  0
   57.9876   27.7991   43.7992 H   0  0  0  0  0  0  0  0  0  0  0  0
   57.4931   29.9593   45.5393 H   0  0  0  0  0  0  0  0  0  0  0  0
   58.7046   30.5598   44.3199 H   0  0  0  0  0  0  0  0  0  0  0  0
   56.7683   29.0814   42.8708 H   0  0  0  0  0  0  0  0  0  0  0  0
   55.8714   30.1592   44.0388 H   0  0  0  0  0  0  0  0  0  0  0  0
   57.3263   30.8434   41.5700 H   0  0  0  0  0  0  0  0  0  0  0  0
   56.0819   31.7681   42.5294 H   0  0  0  0  0  0  0  0  0  0  0  0
   58.9303   31.5812   43.5163 H   0  0  0  0  0  0  0  0  0  0  0  0
   58.4794   32.7676   42.2350 H   0  0  0  0  0  0  0  0  0  0  0  0
   59.2140   35.0621   44.3229 H   0  0  0  0  0  0  0  0  0  0  0  0
   60.4116   35.7543   46.3939 H   0  0  0  0  0  0  0  0  0  0  0  0
   60.8917   35.4317   48.7718 H   0  0  0  0  0  0  0  0  0  0  0  0
   60.5442   34.1553   50.8871 H   0  0  0  0  0  0  0  0  0  0  0  0
   59.0156   32.1835   50.9262 H   0  0  0  0  0  0  0  0  0  0  0  0
   57.8217   31.4790   48.8498 H   0  0  0  0  0  0  0  0  0  0  0  0
   57.3479   31.7987   46.4714 H   0  0  0  0  0  0  0  0  0  0  0  0
   61.5326   31.9122   46.1623 H   0  0  0  0  0  0  0  0  0  0  0  0
  1  2  1  0
  2  3  2  0
  3  4  1  0
  4  5  2  0
  5  6  1  0
  6  7  1  0
  7  8  2  0
  8  9  1  0
  9 10  1  0
 10 11  1  0
 11 12  1  0
 12 13  1  0
 13 14  1  0
 14 15  1  0
 15 16  1  0
 16 17  1  0
 17 18  2  0
 18 19  1  0
 19 20  2  0
 20 21  1  0
 21 22  2  0
 22 23  1  0
 23 24  2  0
 24 25  1  0
 25 26  2  0
  9 27  1  0
 27 28  2  0
  6 29  2  0
 29  2  1  0
 28  7  1  0
 26 17  1  0
 25 20  1  0
  1 30  1  0
  1 31  1  0
  1 32  1  0
  3 33  1  0
  4 34  1  0
  5 35  1  0
  8 36  1  0
 10 37  1  0
 10 38  1  0
 11 39  1  0
 11 40  1  0
 12 41  1  0
 12 42  1  0
 13 43  1  0
 13 44  1  0
 14 45  1  0
 14 46  1  0
 15 47  1  0
 15 48  1  0
 18 49  1  0
 19 50  1  0
 21 51  1  0
 22 52  1  0
 23 53  1  0
 24 54  1  0
 26 55  1  0
 29 56  1  0
M  END
>  <UniqueID>  (46) 
43

>  <SMILES>  (46) 
Cc1cccc(-c2cn(CCCCCCOc3ccc4ccccc4c3)nn2)c1

>  <Energy>  (46) 
91.43033355435426

>  <Genealogy>  (46) 
Cc1cccc(-c2cn(CCCCCCOc3ccc4ccccc4c3)nn2)c1 (3D coordinates assigned)
Cc1cccc(-c2cn(CCCCCCOc3ccc4ccccc4c3)nn2)c1 (optimized conformer: 91.43033355435426 kcal/mol)

>  <smiles>  (46) 
Cc1cccc(-c2cn(CCCCCCOc3ccc4ccccc4c3)nn2)c1

>  <score_type>  (46) 
oracle

>  <origin>  (46) 
adg

>  <m_score__min__energy>  (46) 
-9.25

>  <m_primary>  (46) 
energy

$$$$
46:0
     RDKit          3D

 31 34  0  0  0  0  0  0  0  0999 V2000
   59.4370   28.2710   44.7740 C   0  0  0  0  0  0  0  0  0  0  0  0
   58.5310   27.7210   45.5890 C   0  0  0  0  0  0  0  0  0  0  0  0
   58.6670   28.1370   47.0320 C   0  0  0  0  0  0  0  0  0  0  0  0
   58.5270   29.6070   47.1860 N   0  0  0  0  0  0  0  0  0  0  0  0
   58.6150   30.3690   45.9080 C   0  0  1  0  0  0  0  0  0  0  0  0
   58.8920   31.8430   46.2530 C   0  0  0  0  0  0  0  0  0  0  0  0
   59.1450   32.1960   47.5970 C   0  0  0  0  0  0  0  0  0  0  0  0
   59.4000   33.5210   47.9590 C   0  0  0  0  0  0  0  0  0  0  0  0
   59.4090   34.5220   46.9900 C   0  0  0  0  0  0  0  0  0  0  0  0
   59.1580   34.2010   45.6560 C   0  0  0  0  0  0  0  0  0  0  0  0
   58.9000   32.8770   45.2850 C   0  0  0  0  0  0  0  0  0  0  0  0
   59.7540   29.7250   45.0370 C   0  0  0  0  0  0  0  0  0  0  0  0
   57.3210   30.2460   45.1770 N   0  0  0  0  0  0  0  0  0  0  0  0
   56.6010   31.2500   44.7060 N   0  0  0  0  0  0  0  0  0  0  0  0
   55.5200   30.6940   44.1210 C   0  0  0  0  0  0  0  0  0  0  0  0
   55.5230   29.3430   44.1870 N   0  0  0  0  0  0  0  0  0  0  0  0
   56.6650   29.1050   44.8570 C   0  0  0  0  0  0  0  0  0  0  0  0
   57.1950   27.7910   45.0920 N   0  0  0  0  0  0  0  0  0  0  0  0
   59.9198   27.7026   43.9654 H   0  0  0  0  0  0  0  0  0  0  0  0
   57.8848   27.6388   47.6236 H   0  0  0  0  0  0  0  0  0  0  0  0
   59.6673   27.8451   47.3843 H   0  0  0  0  0  0  0  0  0  0  0  0
   57.6020   29.7950   47.6390 H   0  0  0  0  0  0  0  0  0  0  0  0
   59.1412   31.4148   48.3714 H   0  0  0  0  0  0  0  0  0  0  0  0
   59.5941   33.7746   49.0116 H   0  0  0  0  0  0  0  0  0  0  0  0
   59.6138   35.5641   47.2766 H   0  0  0  0  0  0  0  0  0  0  0  0
   59.1629   34.9925   44.8922 H   0  0  0  0  0  0  0  0  0  0  0  0
   58.7012   32.6364   44.2302 H   0  0  0  0  0  0  0  0  0  0  0  0
   59.8291   30.2614   44.0796 H   0  0  0  0  0  0  0  0  0  0  0  0
   60.7092   29.7965   45.5777 H   0  0  0  0  0  0  0  0  0  0  0  0
   54.7206   31.2776   43.6410 H   0  0  0  0  0  0  0  0  0  0  0  0
   56.6720   26.9300   44.8180 H   0  0  0  0  0  0  0  0  0  0  0  0
  1  2  2  0
  2  3  1  0
  3  4  1  0
  4  5  1  0
  5  6  1  1
  6  7  2  0
  7  8  1  0
  8  9  2  0
  9 10  1  0
 10 11  2  0
  5 12  1  0
  5 13  1  0
 13 14  1  0
 14 15  2  0
 15 16  1  0
 16 17  2  0
 17 18  1  0
 12  1  1  0
 17 13  1  0
 18  2  1  0
 11  6  1  0
  1 19  1  0
  3 20  1  0
  3 21  1  0
  4 22  1  0
  7 23  1  0
  8 24  1  0
  9 25  1  0
 10 26  1  0
 11 27  1  0
 12 28  1  0
 12 29  1  0
 15 30  1  0
 18 31  1  0
M  END
>  <UniqueID>  (47) 
44

>  <SMILES>  (47) 
C1=C2CN[C@@](c3ccccc3)(C1)n1ncnc1N2

>  <Energy>  (47) 
124.15273171548571

>  <Genealogy>  (47) 
C1=C2CN[C@@](c3ccccc3)(C1)n1ncnc1N2 (chirality)
C1=C2CN[C@@](c3ccccc3)(C1)n1ncnc1N2 (3D coordinates assigned)
C1=C2CN[C@@](c3ccccc3)(C1)n1ncnc1N2 (nonaromatic ring conformer: 124.15273171548571 kcal/mol)

>  <smiles>  (47) 
C1=C2CNC(c3ccccc3)(C1)n1ncnc1N2

>  <score_type>  (47) 
oracle

>  <origin>  (47) 
adg

>  <m_score__min__energy>  (47) 
-6.9299999999999997

>  <m_primary>  (47) 
energy

$$$$
47:0
     RDKit          3D

 45 48  0  0  0  0  0  0  0  0999 V2000
   58.8910   30.9630   49.4190 C   0  0  0  0  0  0  0  0  0  0  0  0
   59.9740   31.1560   48.4530 N   0  0  0  0  0  0  0  0  0  0  0  0
   60.3000   30.3790   47.3780 C   0  0  0  0  0  0  0  0  0  0  0  0
   59.5880   29.1890   46.9810 N   0  0  0  0  0  0  0  0  0  0  0  0
   60.0230   27.8450   47.3330 C   0  0  0  0  0  0  0  0  0  0  0  0
   58.7730   26.9790   47.2910 C   0  0  0  0  0  0  0  0  0  0  0  0
   57.7820   27.7380   46.4200 C   0  0  0  0  0  0  0  0  0  0  0  0
   58.2040   29.2080   46.5140 C   0  0  2  0  0  0  0  0  0  0  0  0
   58.0540   29.9410   45.1670 C   0  0  0  0  0  0  0  0  0  0  0  0
   57.3710   31.1890   45.3230 O   0  0  0  0  0  0  0  0  0  0  0  0
   57.9660   32.4270   45.6130 C   0  0  0  0  0  0  0  0  0  0  0  0
   58.6020   33.1120   44.5700 C   0  0  0  0  0  0  0  0  0  0  0  0
   59.2190   34.3440   44.8000 C   0  0  0  0  0  0  0  0  0  0  0  0
   59.1980   34.9090   46.0770 C   0  0  0  0  0  0  0  0  0  0  0  0
   58.5520   34.2460   47.1220 C   0  0  0  0  0  0  0  0  0  0  0  0
   57.9300   33.0140   46.8950 C   0  0  0  0  0  0  0  0  0  0  0  0
   61.4150   30.8160   46.7390 N   0  0  0  0  0  0  0  0  0  0  0  0
   61.7870   31.9070   47.4260 C   0  0  0  0  0  0  0  0  0  0  0  0
   62.8830   32.7340   47.1920 C   0  0  0  0  0  0  0  0  0  0  0  0
   63.0780   33.8200   48.0630 C   0  0  0  0  0  0  0  0  0  0  0  0
   62.1850   34.0480   49.1340 C   0  0  0  0  0  0  0  0  0  0  0  0
   61.0880   33.1920   49.3440 C   0  0  0  0  0  0  0  0  0  0  0  0
   60.9200   32.1200   48.4610 C   0  0  0  0  0  0  0  0  0  0  0  0
   59.2935   31.0347   50.4402 H   0  0  0  0  0  0  0  0  0  0  0  0
   58.1253   31.7388   49.2713 H   0  0  0  0  0  0  0  0  0  0  0  0
   58.4405   29.9704   49.2713 H   0  0  0  0  0  0  0  0  0  0  0  0
   60.7656   27.4808   46.6078 H   0  0  0  0  0  0  0  0  0  0  0  0
   60.4986   27.8207   48.3246 H   0  0  0  0  0  0  0  0  0  0  0  0
   58.9999   25.9974   46.8494 H   0  0  0  0  0  0  0  0  0  0  0  0
   58.3718   26.7921   48.2980 H   0  0  0  0  0  0  0  0  0  0  0  0
   57.8367   27.3873   45.3788 H   0  0  0  0  0  0  0  0  0  0  0  0
   56.7444   27.5872   46.7526 H   0  0  0  0  0  0  0  0  0  0  0  0
   57.5575   29.7667   47.2068 H   0  0  0  0  0  0  0  0  0  0  0  0
   59.0540   30.1304   44.7497 H   0  0  0  0  0  0  0  0  0  0  0  0
   57.4623   29.3054   44.4918 H   0  0  0  0  0  0  0  0  0  0  0  0
   58.6158   32.6758   43.5603 H   0  0  0  0  0  0  0  0  0  0  0  0
   59.7217   34.8695   43.9747 H   0  0  0  0  0  0  0  0  0  0  0  0
   59.6901   35.8757   46.2593 H   0  0  0  0  0  0  0  0  0  0  0  0
   58.5321   34.6937   48.1266 H   0  0  0  0  0  0  0  0  0  0  0  0
   57.4113   32.5014   47.7186 H   0  0  0  0  0  0  0  0  0  0  0  0
   61.8870   30.4090   45.9020 H   0  0  0  0  0  0  0  0  0  0  0  0
   63.5715   32.5441   46.3554 H   0  0  0  0  0  0  0  0  0  0  0  0
   63.9315   34.4968   47.9098 H   0  0  0  0  0  0  0  0  0  0  0  0
   62.3486   34.9012   49.8088 H   0  0  0  0  0  0  0  0  0  0  0  0
   60.3864   33.3601   50.1743 H   0  0  0  0  0  0  0  0  0  0  0  0
  1  2  1  0
  2  3  1  0
  3  4  1  0
  4  5  1  0
  5  6  1  0
  6  7  1  0
  7  8  1  0
  8  9  1  0
  9 10  1  0
 10 11  1  0
 11 12  2  0
 12 13  1  0
 13 14  2  0
 14 15  1  0
 15 16  2  0
  3 17  2  0
 17 18  1  0
 18 19  2  0
 19 20  1  0
 20 21  2  0
 21 22  1  0
 22 23  2  0
 23  2  1  0
  8  4  1  0
 16 11  1  0
 23 18  1  0
  1 24  1  0
  1 25  1  0
  1 26  1  0
  5 27  1  0
  5 28  1  0
  6 29  1  0
  6 30  1  0
  7 31  1  0
  7 32  1  0
  8 33  1  1
  9 34  1  0
  9 35  1  0
 12 36  1  0
 13 37  1  0
 14 38  1  0
 15 39  1  0
 16 40  1  0
 17 41  1  0
 19 42  1  0
 20 43  1  0
 21 44  1  0
 22 45  1  0
M  CHG  1  17   1
M  END
>  <UniqueID>  (48) 
45

>  <SMILES>  (48) 
Cn1c(N2CCC[C@@H]2COc2ccccc2)[nH+]c2ccccc21

>  <Energy>  (48) 
87.86324537269913

>  <Genealogy>  (48) 
Cn1c(N2CCCC2COc2ccccc2)[nH+]c2ccccc21 (protonated)
Cn1c(N2CCC[C@@H]2COc2ccccc2)[nH+]c2ccccc21 (chirality)
Cn1c(N2CCC[C@@H]2COc2ccccc2)[nH+]c2ccccc21 (3D coordinates assigned)
Cn1c(N2CCC[C@@H]2COc2ccccc2)[nH+]c2ccccc21 (nonaromatic ring conformer: 87.86324537269913 kcal/mol)

>  <smiles>  (48) 
Cn1c(N2CCCC2COc2ccccc2)nc2ccccc21

>  <score_type>  (48) 
oracle

>  <origin>  (48) 
adg

>  <m_score__min__energy>  (48) 
-5.5499999999999998

>  <m_primary>  (48) 
energy

$$$$
48:0
     RDKit          3D

 38 39  0  0  0  0  0  0  0  0999 V2000
   57.0200   28.0330   45.3050 C   0  0  0  0  0  0  0  0  0  0  0  0
   56.1800   29.2330   44.8690 C   0  0  0  0  0  0  0  0  0  0  0  0
   56.9820   30.4790   44.8530 N   0  0  0  0  0  0  0  0  0  0  0  0
   57.0570   30.9950   43.4630 C   0  0  0  0  0  0  0  0  0  0  0  0
   58.1020   32.1020   43.3090 C   0  0  0  0  0  0  0  0  0  0  0  0
   58.3380   30.2550   45.4270 C   0  0  0  0  0  0  0  0  0  0  0  0
   58.4810   30.9470   46.7920 C   0  0  0  0  0  0  0  0  0  0  0  0
   59.1770   32.2520   46.6730 N   0  0  0  0  0  0  0  0  0  0  0  0
   58.4220   33.3540   46.3280 C   0  0  0  0  0  0  0  0  0  0  0  0
   57.1850   33.2470   46.1090 O   0  0  0  0  0  0  0  0  0  0  0  0
   59.0040   34.6150   46.2100 C   0  0  0  0  0  0  0  0  0  0  0  0
   60.3620   34.7750   46.4290 C   0  0  0  0  0  0  0  0  0  0  0  0
   61.1470   33.6720   46.7560 C   0  0  0  0  0  0  0  0  0  0  0  0
   62.5280   33.8360   46.9550 C   0  0  0  0  0  0  0  0  0  0  0  0
   63.3290   32.7390   47.2600 C   0  0  0  0  0  0  0  0  0  0  0  0
   62.7620   31.4710   47.3640 C   0  0  0  0  0  0  0  0  0  0  0  0
   61.3900   31.2920   47.1730 C   0  0  0  0  0  0  0  0  0  0  0  0
   60.5440   32.3890   46.8720 C   0  0  0  0  0  0  0  0  0  0  0  0
   57.0519   27.9875   46.4036 H   0  0  0  0  0  0  0  0  0  0  0  0
   56.5706   27.1089   44.9126 H   0  0  0  0  0  0  0  0  0  0  0  0
   58.0422   28.1390   44.9126 H   0  0  0  0  0  0  0  0  0  0  0  0
   55.7882   29.0469   43.8581 H   0  0  0  0  0  0  0  0  0  0  0  0
   55.3586   29.3600   45.5896 H   0  0  0  0  0  0  0  0  0  0  0  0
   57.3201   30.1646   42.7913 H   0  0  0  0  0  0  0  0  0  0  0  0
   56.0754   31.4219   43.2096 H   0  0  0  0  0  0  0  0  0  0  0  0
   58.4241   32.4432   44.3039 H   0  0  0  0  0  0  0  0  0  0  0  0
   58.9697   31.7128   42.7562 H   0  0  0  0  0  0  0  0  0  0  0  0
   57.6635   32.9459   42.7562 H   0  0  0  0  0  0  0  0  0  0  0  0
   58.5010   29.1745   45.5529 H   0  0  0  0  0  0  0  0  0  0  0  0
   59.0837   30.6804   44.7393 H   0  0  0  0  0  0  0  0  0  0  0  0
   57.4791   31.1141   47.2142 H   0  0  0  0  0  0  0  0  0  0  0  0
   59.0797   30.2964   47.4464 H   0  0  0  0  0  0  0  0  0  0  0  0
   58.3842   35.4836   45.9428 H   0  0  0  0  0  0  0  0  0  0  0  0
   60.8199   35.7716   46.3448 H   0  0  0  0  0  0  0  0  0  0  0  0
   62.9785   34.8359   46.8694 H   0  0  0  0  0  0  0  0  0  0  0  0
   64.4091   32.8735   47.4188 H   0  0  0  0  0  0  0  0  0  0  0  0
   63.3988   30.6051   47.5980 H   0  0  0  0  0  0  0  0  0  0  0  0
   60.9590   30.2835   47.2575 H   0  0  0  0  0  0  0  0  0  0  0  0
  1  2  1  0
  2  3  1  0
  3  4  1  0
  4  5  1  0
  3  6  1  0
  6  7  1  0
  7  8  1  0
  8  9  1  0
  9 10  2  0
  9 11  1  0
 11 12  2  0
 12 13  1  0
 13 14  2  0
 14 15  1  0
 15 16  2  0
 16 17  1  0
 17 18  2  0
 18  8  1  0
 18 13  1  0
  1 19  1  0
  1 20  1  0
  1 21  1  0
  2 22  1  0
  2 23  1  0
  4 24  1  0
  4 25  1  0
  5 26  1  0
  5 27  1  0
  5 28  1  0
  6 29  1  0
  6 30  1  0
  7 31  1  0
  7 32  1  0
 11 33  1  0
 12 34  1  0
 14 35  1  0
 15 36  1  0
 16 37  1  0
 17 38  1  0
M  END
>  <UniqueID>  (49) 
46

>  <SMILES>  (49) 
CCN(CC)CCn1c(=O)ccc2ccccc21

>  <Energy>  (49) 
46.16149120112063

>  <Genealogy>  (49) 
CCN(CC)CCn1c(=O)ccc2ccccc21 (3D coordinates assigned)
CCN(CC)CCn1c(=O)ccc2ccccc21 (optimized conformer: 46.16149120112063 kcal/mol)

>  <smiles>  (49) 
CCN(CC)CCn1c(=O)ccc2ccccc21

>  <score_type>  (49) 
oracle

>  <origin>  (49) 
adg

>  <m_score__min__energy>  (49) 
-6.4699999999999998

>  <m_primary>  (49) 
energy

$$$$
