0:0
     RDKit          3D

 35 36  0  0  0  0  0  0  0  0999 V2000
   61.1020   34.1470   48.5940 C   0  0  0  0  0  0  0  0  0  0  0  0
   59.6490   34.5800   48.4260 C   0  0  0  0  0  0  0  0  0  0  0  0
   59.0880   34.0650   47.1280 C   0  0  0  0  0  0  0  0  0  0  0  0
   57.9270   33.2780   47.1220 C   0  0  0  0  0  0  0  0  0  0  0  0
   57.4300   32.7650   45.9210 C   0  0  0  0  0  0  0  0  0  0  0  0
   58.0970   33.0120   44.7110 C   0  0  0  0  0  0  0  0  0  0  0  0
   57.5650   32.4390   43.4140 C   0  0  0  0  0  0  0  0  0  0  0  0
   57.8040   30.9810   43.2320 N   0  0  0  0  0  0  0  0  0  0  0  0
   56.6590   30.2550   42.6280 C   0  0  0  0  0  0  0  0  0  0  0  0
   55.6390   29.7300   43.6670 C   0  0  0  0  0  0  0  0  0  0  0  0
   56.0180   30.0070   44.9980 O   0  0  0  0  0  0  0  0  0  0  0  0
   57.3140   29.5110   45.2290 C   0  0  0  0  0  0  0  0  0  0  0  0
   58.3630   30.3050   44.4320 C   0  0  0  0  0  0  0  0  0  0  0  0
   59.2520   33.8120   44.7170 C   0  0  0  0  0  0  0  0  0  0  0  0
   59.7500   34.3240   45.9180 C   0  0  0  0  0  0  0  0  0  0  0  0
   61.3418   34.0755   49.6652 H   0  0  0  0  0  0  0  0  0  0  0  0
   61.2495   33.1659   48.1190 H   0  0  0  0  0  0  0  0  0  0  0  0
   61.7625   34.8873   48.1190 H   0  0  0  0  0  0  0  0  0  0  0  0
   59.0542   34.1803   49.2605 H   0  0  0  0  0  0  0  0  0  0  0  0
   59.6057   35.6791   48.4190 H   0  0  0  0  0  0  0  0  0  0  0  0
   57.4056   33.0638   48.0666 H   0  0  0  0  0  0  0  0  0  0  0  0
   56.5093   32.1632   45.9239 H   0  0  0  0  0  0  0  0  0  0  0  0
   56.4796   32.6146   43.3819 H   0  0  0  0  0  0  0  0  0  0  0  0
   58.1104   32.9460   42.6044 H   0  0  0  0  0  0  0  0  0  0  0  0
   58.5640   30.9430   42.5100 H   0  0  0  0  0  0  0  0  0  0  0  0
   56.1365   30.9387   41.9428 H   0  0  0  0  0  0  0  0  0  0  0  0
   57.0717   29.3769   42.1097 H   0  0  0  0  0  0  0  0  0  0  0  0
   54.6655   30.2041   43.4735 H   0  0  0  0  0  0  0  0  0  0  0  0
   55.5909   28.6364   43.5585 H   0  0  0  0  0  0  0  0  0  0  0  0
   57.5428   29.5905   46.3020 H   0  0  0  0  0  0  0  0  0  0  0  0
   57.3489   28.4613   44.9020 H   0  0  0  0  0  0  0  0  0  0  0  0
   58.7975   31.0698   45.0925 H   0  0  0  0  0  0  0  0  0  0  0  0
   59.1159   29.5852   44.0785 H   0  0  0  0  0  0  0  0  0  0  0  0
   59.7670   34.0365   43.7713 H   0  0  0  0  0  0  0  0  0  0  0  0
   60.6658   34.9333   45.9150 H   0  0  0  0  0  0  0  0  0  0  0  0
  1  2  1  0
  2  3  1  0
  3  4  2  0
  4  5  1  0
  5  6  2  0
  6  7  1  0
  7  8  1  0
  8  9  1  0
  9 10  1  0
 10 11  1  0
 11 12  1  0
 12 13  1  0
  6 14  1  0
 14 15  2  0
 15  3  1  0
 13  8  1  0
  1 16  1  0
  1 17  1  0
  1 18  1  0
  2 19  1  0
  2 20  1  0
  4 21  1  0
  5 22  1  0
  7 23  1  0
  7 24  1  0
  8 25  1  0
  9 26  1  0
  9 27  1  0
 10 28  1  0
 10 29  1  0
 12 30  1  0
 12 31  1  0
 13 32  1  0
 13 33  1  0
 14 34  1  0
 15 35  1  0
M  CHG  1   8   1
M  END
>  <UniqueID>  (1) 
1

>  <SMILES>  (1) 
CCc1ccc(C[NH+]2CCOCC2)cc1

>  <Energy>  (1) 
46.415378166308166

>  <Genealogy>  (1) 
CCc1ccc(C[NH+]2CCOCC2)cc1 (protonated)
CCc1ccc(C[NH+]2CCOCC2)cc1 (3D coordinates assigned)
CCc1ccc(C[NH+]2CCOCC2)cc1 (nonaromatic ring conformer: 46.415378166308166 kcal/mol)

>  <smiles>  (1) 
CCc1ccc(CN2CCOCC2)cc1

>  <score_type>  (1) 
oracle

>  <origin>  (1) 
adg

>  <m_score__min__energy>  (1) 
-5.0499999999999998

>  <m_primary>  (1) 
energy

$$$$
1:0
     RDKit          3D

 46 48  0  0  0  0  0  0  0  0999 V2000
   59.5950   35.0800   45.9570 C   0  0  0  0  0  0  0  0  0  0  0  0
   58.7900   33.9030   45.4920 C   0  0  0  0  0  0  0  0  0  0  0  0
   58.2330   33.0180   46.4240 C   0  0  0  0  0  0  0  0  0  0  0  0
   57.5130   31.9020   45.9920 C   0  0  0  0  0  0  0  0  0  0  0  0
   57.3480   31.6430   44.6200 C   0  0  0  0  0  0  0  0  0  0  0  0
   56.5410   30.4360   44.1870 C   0  0  0  0  0  0  0  0  0  0  0  0
   56.4880   29.3850   45.2210 N   0  0  0  0  0  0  0  0  0  0  0  0
   57.8070   28.9950   45.7710 C   0  0  1  0  0  0  0  0  0  0  0  0
   57.7060   27.6310   46.5060 C   0  0  0  0  0  0  0  0  0  0  0  0
   58.0070   26.4190   45.5940 C   0  0  0  0  0  0  0  0  0  0  0  0
   57.6780   26.7100   44.1800 N   0  0  2  0  0  0  0  0  0  0  0  0
   57.6940   25.4930   43.3290 C   0  0  0  0  0  0  0  0  0  0  0  0
   57.1530   24.2530   44.0030 C   0  0  0  0  0  0  0  0  0  0  0  0
   57.9710   23.2190   44.4890 C   0  0  0  0  0  0  0  0  0  0  0  0
   57.2630   22.1660   45.0500 C   0  0  0  0  0  0  0  0  0  0  0  0
   55.6250   22.5160   44.9280 S   0  0  0  0  0  0  0  0  0  0  0  0
   55.7930   24.0030   44.1650 C   0  0  0  0  0  0  0  0  0  0  0  0
   58.5220   27.8010   43.6230 C   0  0  0  0  0  0  0  0  0  0  0  0
   58.8760   28.8850   44.6640 C   0  0  0  0  0  0  0  0  0  0  0  0
   57.9290   32.5240   43.6810 C   0  0  0  0  0  0  0  0  0  0  0  0
   57.7980   32.2540   41.9460 Cl  0  0  0  0  0  0  0  0  0  0  0  0
   58.6490   33.6410   44.1230 C   0  0  0  0  0  0  0  0  0  0  0  0
   59.6103   35.1023   47.0567 H   0  0  0  0  0  0  0  0  0  0  0  0
   60.6239   34.9934   45.5777 H   0  0  0  0  0  0  0  0  0  0  0  0
   59.1412   36.0075   45.5777 H   0  0  0  0  0  0  0  0  0  0  0  0
   58.3632   33.2028   47.5005 H   0  0  0  0  0  0  0  0  0  0  0  0
   57.0708   31.2191   46.7323 H   0  0  0  0  0  0  0  0  0  0  0  0
   55.5143   30.7612   43.9630 H   0  0  0  0  0  0  0  0  0  0  0  0
   57.0343   30.0068   43.3024 H   0  0  0  0  0  0  0  0  0  0  0  0
   55.8820   29.7360   45.9980 H   0  0  0  0  0  0  0  0  0  0  0  0
   58.1083   29.7827   46.4772 H   0  0  0  0  0  0  0  0  0  0  0  0
   56.6860   27.5236   46.9035 H   0  0  0  0  0  0  0  0  0  0  0  0
   58.4642   27.6343   47.3030 H   0  0  0  0  0  0  0  0  0  0  0  0
   57.4079   25.5603   45.9311 H   0  0  0  0  0  0  0  0  0  0  0  0
   59.0821   26.1958   45.6597 H   0  0  0  0  0  0  0  0  0  0  0  0
   56.6830   27.0420   44.1590 H   0  0  0  0  0  0  0  0  0  0  0  0
   57.0862   25.6911   42.4338 H   0  0  0  0  0  0  0  0  0  0  0  0
   58.7489   25.2879   43.0941 H   0  0  0  0  0  0  0  0  0  0  0  0
   59.0692   23.2423   44.4302 H   0  0  0  0  0  0  0  0  0  0  0  0
   57.6985   21.2600   45.4967 H   0  0  0  0  0  0  0  0  0  0  0  0
   54.9722   24.6636   43.8487 H   0  0  0  0  0  0  0  0  0  0  0  0
   57.9772   28.2764   42.7940 H   0  0  0  0  0  0  0  0  0  0  0  0
   59.4664   27.3467   43.2887 H   0  0  0  0  0  0  0  0  0  0  0  0
   58.9583   29.8552   44.1523 H   0  0  0  0  0  0  0  0  0  0  0  0
   59.8277   28.6028   45.1379 H   0  0  0  0  0  0  0  0  0  0  0  0
   59.1081   34.3189   43.3884 H   0  0  0  0  0  0  0  0  0  0  0  0
  1  2  1  0
  2  3  2  0
  3  4  1  0
  4  5  2  0
  5  6  1  0
  6  7  1  0
  7  8  1  0
  8  9  1  0
  9 10  1  0
 10 11  1  0
 11 12  1  0
 12 13  1  0
 13 14  1  0
 14 15  2  0
 15 16  1  0
 16 17  1  0
 11 18  1  0
 18 19  1  0
  5 20  1  0
 20 21  1  0
 20 22  2  0
 22  2  1  0
 19  8  1  0
 17 13  2  0
  1 23  1  0
  1 24  1  0
  1 25  1  0
  3 26  1  0
  4 27  1  0
  6 28  1  0
  6 29  1  0
  7 30  1  0
  8 31  1  1
  9 32  1  0
  9 33  1  0
 10 34  1  0
 10 35  1  0
 11 36  1  1
 12 37  1  0
 12 38  1  0
 14 39  1  0
 15 40  1  0
 17 41  1  0
 18 42  1  0
 18 43  1  0
 19 44  1  0
 19 45  1  0
 22 46  1  0
M  CHG  1  11   1
M  END
>  <UniqueID>  (2) 
2

>  <SMILES>  (2) 
Cc1ccc(CNC2CC[NH+](Cc3ccsc3)CC2)c(Cl)c1

>  <Energy>  (2) 
84.9613100220807

>  <Genealogy>  (2) 
Cc1ccc(CNC2CC[NH+](Cc3ccsc3)CC2)c(Cl)c1 (protonated)
Cc1ccc(CNC2CC[NH+](Cc3ccsc3)CC2)c(Cl)c1 (3D coordinates assigned)
Cc1ccc(CNC2CC[NH+](Cc3ccsc3)CC2)c(Cl)c1 (nonaromatic ring conformer: 84.9613100220807 kcal/mol)

>  <smiles>  (2) 
Cc1ccc(CNC2CCN(Cc3ccsc3)CC2)c(Cl)c1

>  <score_type>  (2) 
oracle

>  <origin>  (2) 
adg

>  <m_score__min__energy>  (2) 
-6.9400000000000004

>  <m_primary>  (2) 
energy

$$$$
2:0
     RDKit          3D

 62 65  0  0  0  0  0  0  0  0999 V2000
   63.7140   33.0920   46.7840 C   0  0  0  0  0  0  0  0  0  0  0  0
   62.5460   33.7940   47.4670 C   0  0  0  0  0  0  0  0  0  0  0  0
   61.2880   33.5220   46.7360 N   0  0  0  0  0  0  0  0  0  0  0  0
   60.3120   34.6250   46.9030 C   0  0  0  0  0  0  0  0  0  0  0  0
   59.5700   34.9310   45.6020 C   0  0  0  0  0  0  0  0  0  0  0  0
   60.7390   32.1770   47.0440 C   0  0  0  0  0  0  0  0  0  0  0  0
   59.2160   32.1580   47.2770 C   0  0  0  0  0  0  0  0  0  0  0  0
   58.6210   30.9820   46.6440 N   0  0  0  0  0  0  0  0  0  0  0  0
   58.5590   29.7410   47.1820 C   0  0  0  0  0  0  0  0  0  0  0  0
   57.9290   28.8670   46.3030 C   0  0  0  0  0  0  0  0  0  0  0  0
   57.6660   27.4380   46.5450 C   0  0  0  0  0  0  0  0  0  0  0  0
   58.2500   26.8550   47.5030 O   0  0  0  0  0  0  0  0  0  0  0  0
   56.7260   26.7240   45.7310 N   0  0  0  0  0  0  0  0  0  0  0  0
   56.6520   25.2590   45.7350 C   0  0  2  0  0  0  0  0  0  0  0  0
   57.7200   24.6670   44.7700 C   0  0  0  0  0  0  0  0  0  0  0  0
   57.3520   23.2400   44.2730 C   0  0  2  0  0  0  0  0  0  0  0  0
   56.5970   23.3070   42.9320 C   0  0  0  0  0  0  0  0  0  0  0  0
   55.1290   23.3480   43.3340 C   0  0  0  0  0  0  0  0  0  0  0  0
   55.1590   23.3190   44.8720 C   0  0  2  0  0  0  0  0  0  0  0  0
   55.2010   24.7660   45.4410 C   0  0  0  0  0  0  0  0  0  0  0  0
   56.4140   22.6550   45.2420 N   0  0  0  0  0  0  0  0  0  0  0  0
   56.3290   21.1860   45.1330 C   0  0  0  0  0  0  0  0  0  0  0  0
   57.6280   29.6150   45.1750 C   0  0  0  0  0  0  0  0  0  0  0  0
   57.0670   29.2520   43.9480 C   0  0  0  0  0  0  0  0  0  0  0  0
   56.9320   30.2460   42.9650 C   0  0  0  0  0  0  0  0  0  0  0  0
   57.3690   31.5630   43.2140 C   0  0  0  0  0  0  0  0  0  0  0  0
   57.9510   31.8990   44.4500 C   0  0  0  0  0  0  0  0  0  0  0  0
   58.0670   30.8950   45.4150 C   0  0  0  0  0  0  0  0  0  0  0  0
   64.3932   32.6838   47.5469 H   0  0  0  0  0  0  0  0  0  0  0  0
   63.3331   32.2730   46.1561 H   0  0  0  0  0  0  0  0  0  0  0  0
   64.2585   33.8126   46.1561 H   0  0  0  0  0  0  0  0  0  0  0  0
   62.4536   33.4250   48.4991 H   0  0  0  0  0  0  0  0  0  0  0  0
   62.7316   34.8782   47.4710 H   0  0  0  0  0  0  0  0  0  0  0  0
   59.5791   34.3381   47.6715 H   0  0  0  0  0  0  0  0  0  0  0  0
   60.8654   35.5279   47.2005 H   0  0  0  0  0  0  0  0  0  0  0  0
   58.5760   35.3409   45.8345 H   0  0  0  0  0  0  0  0  0  0  0  0
   60.1424   35.6665   45.0177 H   0  0  0  0  0  0  0  0  0  0  0  0
   59.4576   34.0058   45.0177 H   0  0  0  0  0  0  0  0  0  0  0  0
   60.9679   31.5089   46.2006 H   0  0  0  0  0  0  0  0  0  0  0  0
   61.2080   31.8503   47.9838 H   0  0  0  0  0  0  0  0  0  0  0  0
   59.0145   32.1294   48.3580 H   0  0  0  0  0  0  0  0  0  0  0  0
   58.7749   33.0639   46.8356 H   0  0  0  0  0  0  0  0  0  0  0  0
   58.9506   29.4641   48.1719 H   0  0  0  0  0  0  0  0  0  0  0  0
   56.0650   27.2770   45.1320 H   0  0  0  0  0  0  0  0  0  0  0  0
   56.8916   24.8840   46.7410 H   0  0  0  0  0  0  0  0  0  0  0  0
   58.6837   24.6184   45.2982 H   0  0  0  0  0  0  0  0  0  0  0  0
   57.7728   25.3232   43.8888 H   0  0  0  0  0  0  0  0  0  0  0  0
   58.2772   22.6557   44.1608 H   0  0  0  0  0  0  0  0  0  0  0  0
   56.8095   22.4184   42.3194 H   0  0  0  0  0  0  0  0  0  0  0  0
   56.8926   24.1747   42.3240 H   0  0  0  0  0  0  0  0  0  0  0  0
   54.5912   22.4741   42.9376 H   0  0  0  0  0  0  0  0  0  0  0  0
   54.6081   24.2326   42.9389 H   0  0  0  0  0  0  0  0  0  0  0  0
   54.2688   22.8067   45.2657 H   0  0  0  0  0  0  0  0  0  0  0  0
   54.6246   24.7921   46.3775 H   0  0  0  0  0  0  0  0  0  0  0  0
   54.7727   25.4338   44.6790 H   0  0  0  0  0  0  0  0  0  0  0  0
   56.3034   20.7445   46.1402 H   0  0  0  0  0  0  0  0  0  0  0  0
   55.4134   20.9111   44.5888 H   0  0  0  0  0  0  0  0  0  0  0  0
   57.2067   20.8073   44.5888 H   0  0  0  0  0  0  0  0  0  0  0  0
   56.7409   28.2189   43.7576 H   0  0  0  0  0  0  0  0  0  0  0  0
   56.4818   29.9949   41.9933 H   0  0  0  0  0  0  0  0  0  0  0  0
   57.2542   32.3329   42.4368 H   0  0  0  0  0  0  0  0  0  0  0  0
   58.3041   32.9213   44.6507 H   0  0  0  0  0  0  0  0  0  0  0  0
  1  2  1  0
  2  3  1  0
  3  4  1  0
  4  5  1  0
  3  6  1  0
  6  7  1  0
  7  8  1  0
  8  9  1  0
  9 10  2  0
 10 11  1  0
 11 12  2  0
 11 13  1  0
 13 14  1  0
 14 15  1  0
 15 16  1  0
 16 17  1  0
 17 18  1  0
 18 19  1  0
 19 20  1  0
 19 21  1  0
 21 22  1  0
 10 23  1  0
 23 24  2  0
 24 25  1  0
 25 26  2  0
 26 27  1  0
 27 28  2  0
 28  8  1  0
 20 14  1  0
 28 23  1  0
 21 16  1  0
  1 29  1  0
  1 30  1  0
  1 31  1  0
  2 32  1  0
  2 33  1  0
  4 34  1  0
  4 35  1  0
  5 36  1  0
  5 37  1  0
  5 38  1  0
  6 39  1  0
  6 40  1  0
  7 41  1  0
  7 42  1  0
  9 43  1  0
 13 44  1  0
 14 45  1  1
 15 46  1  0
 15 47  1  0
 16 48  1  6
 17 49  1  0
 17 50  1  0
 18 51  1  0
 18 52  1  0
 19 53  1  1
 20 54  1  0
 20 55  1  0
 22 56  1  0
 22 57  1  0
 22 58  1  0
 24 59  1  0
 25 60  1  0
 26 61  1  0
 27 62  1  0
M  END
>  <UniqueID>  (3) 
3

>  <SMILES>  (3) 
CCN(CC)CCn1cc(C(=O)NC2C[C@H]3CC[C@@H](C2)N3C)c2ccccc21

>  <Energy>  (3) 
114.49064050412132

>  <Genealogy>  (3) 
CCN(CC)CCn1cc(C(=O)NC2C[C@H]3CC[C@@H](C2)N3C)c2ccccc21 (chirality)
CCN(CC)CCn1cc(C(=O)NC2C[C@H]3CC[C@@H](C2)N3C)c2ccccc21 (3D coordinates assigned)
CCN(CC)CCn1cc(C(=O)NC2C[C@H]3CC[C@@H](C2)N3C)c2ccccc21 (nonaromatic ring conformer: 114.49064050412132 kcal/mol)

>  <smiles>  (3) 
CCN(CC)CCn1cc(C(=O)NC2CC3CCC(C2)N3C)c2ccccc21

>  <score_type>  (3) 
oracle

>  <origin>  (3) 
adg

>  <m_score__min__energy>  (3) 
-8.4000000000000004

>  <m_primary>  (3) 
energy

$$$$
3:0
     RDKit          3D

 47 50  0  0  0  0  0  0  0  0999 V2000
   57.4480   31.2480   42.4110 N   0  0  0  0  0  0  0  0  0  0  0  0
   57.6820   31.6170   43.8030 C   0  0  0  0  0  0  0  0  0  0  0  0
   58.0240   30.3940   44.6160 C   0  0  0  0  0  0  0  0  0  0  0  0
   57.7500   29.1190   44.0980 C   0  0  0  0  0  0  0  0  0  0  0  0
   58.0290   27.9750   44.8530 C   0  0  0  0  0  0  0  0  0  0  0  0
   57.7640   26.6950   44.3460 C   0  0  0  0  0  0  0  0  0  0  0  0
   58.0500   25.5490   45.1120 C   0  0  0  0  0  0  0  0  0  0  0  0
   57.7700   24.1930   44.5750 C   0  0  0  0  0  0  0  0  0  0  0  0
   58.6050   23.1070   44.8890 C   0  0  0  0  0  0  0  0  0  0  0  0
   58.3290   21.8380   44.3770 C   0  0  0  0  0  0  0  0  0  0  0  0
   57.2180   21.6590   43.5530 C   0  0  0  0  0  0  0  0  0  0  0  0
   56.4150   22.7150   43.2560 N   0  0  0  0  0  0  0  0  0  0  0  0
   56.6620   23.9620   43.7400 C   0  0  0  0  0  0  0  0  0  0  0  0
   58.6050   25.7080   46.3950 C   0  0  0  0  0  0  0  0  0  0  0  0
   58.8680   26.9820   46.9040 C   0  0  0  0  0  0  0  0  0  0  0  0
   58.5830   28.1220   46.1400 C   0  0  0  0  0  0  0  0  0  0  0  0
   58.8370   29.3690   46.6340 N   0  0  0  0  0  0  0  0  0  0  0  0
   58.5750   30.4960   45.9130 C   0  0  0  0  0  0  0  0  0  0  0  0
   58.8500   31.7780   46.4960 N   0  0  0  0  0  0  0  0  0  0  0  0
   60.2460   32.1790   46.7050 C   0  0  0  0  0  0  0  0  0  0  0  0
   60.3360   33.5700   47.3420 C   0  0  0  0  0  0  0  0  0  0  0  0
   59.5060   34.6030   46.5590 C   0  0  0  0  0  0  0  0  0  0  0  0
   58.1180   34.0850   46.1140 C   0  0  0  0  0  0  0  0  0  0  0  0
   57.7580   32.7300   46.7290 C   0  0  0  0  0  0  0  0  0  0  0  0
   58.0250   31.8800   41.8110 H   0  0  0  0  0  0  0  0  0  0  0  0
   57.8170   30.2790   42.2650 H   0  0  0  0  0  0  0  0  0  0  0  0
   58.5163   32.3320   43.8539 H   0  0  0  0  0  0  0  0  0  0  0  0
   56.7690   32.0752   44.2110 H   0  0  0  0  0  0  0  0  0  0  0  0
   57.3137   29.0187   43.0932 H   0  0  0  0  0  0  0  0  0  0  0  0
   57.3291   26.5853   43.3416 H   0  0  0  0  0  0  0  0  0  0  0  0
   59.4787   23.2574   45.5402 H   0  0  0  0  0  0  0  0  0  0  0  0
   58.9818   20.9870   44.6212 H   0  0  0  0  0  0  0  0  0  0  0  0
   56.9916   20.6635   43.1435 H   0  0  0  0  0  0  0  0  0  0  0  0
   55.9919   24.7938   43.4771 H   0  0  0  0  0  0  0  0  0  0  0  0
   58.8340   24.8205   47.0032 H   0  0  0  0  0  0  0  0  0  0  0  0
   59.3009   27.0911   47.9093 H   0  0  0  0  0  0  0  0  0  0  0  0
   59.2500   29.4700   47.5890 H   0  0  0  0  0  0  0  0  0  0  0  0
   60.7331   31.4490   47.3681 H   0  0  0  0  0  0  0  0  0  0  0  0
   60.7482   32.2117   45.7269 H   0  0  0  0  0  0  0  0  0  0  0  0
   59.9584   33.5159   48.3737 H   0  0  0  0  0  0  0  0  0  0  0  0
   61.3885   33.8894   47.3268 H   0  0  0  0  0  0  0  0  0  0  0  0
   59.3575   35.4850   47.1994 H   0  0  0  0  0  0  0  0  0  0  0  0
   60.0684   34.8359   45.6428 H   0  0  0  0  0  0  0  0  0  0  0  0
   57.3569   34.8197   46.4154 H   0  0  0  0  0  0  0  0  0  0  0  0
   58.1518   33.9516   45.0226 H   0  0  0  0  0  0  0  0  0  0  0  0
   57.6010   32.8493   47.8112 H   0  0  0  0  0  0  0  0  0  0  0  0
   56.8368   32.3504   46.2629 H   0  0  0  0  0  0  0  0  0  0  0  0
  1  2  1  0
  2  3  1  0
  3  4  2  0
  4  5  1  0
  5  6  2  0
  6  7  1  0
  7  8  1  0
  8  9  2  0
  9 10  1  0
 10 11  2  0
 11 12  1  0
 12 13  2  0
  7 14  2  0
 14 15  1  0
 15 16  2  0
 16 17  1  0
 17 18  2  0
 18 19  1  0
 19 20  1  0
 20 21  1  0
 21 22  1  0
 22 23  1  0
 23 24  1  0
 18  3  1  0
 24 19  1  0
 16  5  1  0
 13  8  1  0
  1 25  1  0
  1 26  1  0
  2 27  1  0
  2 28  1  0
  4 29  1  0
  6 30  1  0
  9 31  1  0
 10 32  1  0
 11 33  1  0
 13 34  1  0
 14 35  1  0
 15 36  1  0
 17 37  1  0
 20 38  1  0
 20 39  1  0
 21 40  1  0
 21 41  1  0
 22 42  1  0
 22 43  1  0
 23 44  1  0
 23 45  1  0
 24 46  1  0
 24 47  1  0
M  CHG  1  17   1
M  END
>  <UniqueID>  (4) 
4

>  <SMILES>  (4) 
NCc1cc2cc(-c3cccnc3)ccc2[nH+]c1N1CCCCC1

>  <Energy>  (4) 
64.13172308787418

>  <Genealogy>  (4) 
NCc1cc2cc(-c3cccnc3)ccc2[nH+]c1N1CCCCC1 (protonated)
NCc1cc2cc(-c3cccnc3)ccc2[nH+]c1N1CCCCC1 (3D coordinates assigned)
NCc1cc2cc(-c3cccnc3)ccc2[nH+]c1N1CCCCC1 (nonaromatic ring conformer: 64.13172308787418 kcal/mol)

>  <smiles>  (4) 
NCc1cc2cc(-c3cccnc3)ccc2nc1N1CCCCC1

>  <score_type>  (4) 
oracle

>  <origin>  (4) 
adg

>  <m_score__min__energy>  (4) 
-6.3799999999999999

>  <m_primary>  (4) 
energy

$$$$
4:0
     RDKit          3D

 38 40  0  0  0  0  0  0  0  0999 V2000
   60.6410   30.2410   47.4310 C   0  0  0  0  0  0  0  0  0  0  0  0
   59.6560   30.2980   46.3120 C   0  0  0  0  0  0  0  0  0  0  0  0
   59.2820   31.4380   45.6930 N   0  0  0  0  0  0  0  0  0  0  0  0
   58.3270   31.2300   44.7440 C   0  0  0  0  0  0  0  0  0  0  0  0
   57.7740   32.3540   43.9050 C   0  0  0  0  0  0  0  0  0  0  0  0
   57.8760   33.6780   44.5570 N   0  0  0  0  0  0  0  0  0  0  0  0
   59.2470   34.2450   44.5720 C   0  0  0  0  0  0  0  0  0  0  0  0
   59.5610   35.0360   45.8450 C   0  0  0  0  0  0  0  0  0  0  0  0
   59.2010   34.2370   47.0160 N   0  0  0  0  0  0  0  0  0  0  0  0
   60.0350   34.2350   48.1850 C   0  0  0  0  0  0  0  0  0  0  0  0
   59.5400   34.5470   49.3020 O   0  0  0  0  0  0  0  0  0  0  0  0
   61.4530   33.8450   48.1120 C   0  0  0  0  0  0  0  0  0  0  0  0
   62.3530   33.8000   49.1710 C   0  0  0  0  0  0  0  0  0  0  0  0
   63.6480   33.4350   48.7820 C   0  0  0  0  0  0  0  0  0  0  0  0
   63.7760   33.2030   47.4200 C   0  0  0  0  0  0  0  0  0  0  0  0
   62.2780   33.4550   46.6990 S   0  0  0  0  0  0  0  0  0  0  0  0
   57.8920   33.5840   47.0750 C   0  0  0  0  0  0  0  0  0  0  0  0
   57.0760   33.8330   45.7940 C   0  0  0  0  0  0  0  0  0  0  0  0
   57.9080   29.9050   44.6270 C   0  0  0  0  0  0  0  0  0  0  0  0
   58.7810   28.9850   45.7340 S   0  0  0  0  0  0  0  0  0  0  0  0
   60.1065   30.2719   48.3919 H   0  0  0  0  0  0  0  0  0  0  0  0
   61.2195   29.3079   47.3631 H   0  0  0  0  0  0  0  0  0  0  0  0
   61.3233   31.1012   47.3631 H   0  0  0  0  0  0  0  0  0  0  0  0
   59.6830   32.3750   45.9220 H   0  0  0  0  0  0  0  0  0  0  0  0
   58.3309   32.3882   42.9570 H   0  0  0  0  0  0  0  0  0  0  0  0
   56.7043   32.1489   43.7513 H   0  0  0  0  0  0  0  0  0  0  0  0
   59.9677   33.4183   44.4878 H   0  0  0  0  0  0  0  0  0  0  0  0
   59.3194   34.9454   43.7269 H   0  0  0  0  0  0  0  0  0  0  0  0
   60.6356   35.2691   45.8763 H   0  0  0  0  0  0  0  0  0  0  0  0
   58.9829   35.9718   45.8475 H   0  0  0  0  0  0  0  0  0  0  0  0
   62.0755   34.0283   50.2107 H   0  0  0  0  0  0  0  0  0  0  0  0
   64.4849   33.3411   49.4897 H   0  0  0  0  0  0  0  0  0  0  0  0
   64.6990   32.9053   46.9010 H   0  0  0  0  0  0  0  0  0  0  0  0
   58.0387   32.5010   47.1999 H   0  0  0  0  0  0  0  0  0  0  0  0
   57.3353   34.0058   47.9248 H   0  0  0  0  0  0  0  0  0  0  0  0
   56.2428   33.1154   45.7645 H   0  0  0  0  0  0  0  0  0  0  0  0
   56.7216   34.8738   45.8276 H   0  0  0  0  0  0  0  0  0  0  0  0
   57.1420   29.5276   43.9336 H   0  0  0  0  0  0  0  0  0  0  0  0
  1  2  1  0
  2  3  2  0
  3  4  1  0
  4  5  1  0
  5  6  1  0
  6  7  1  0
  7  8  1  0
  8  9  1  0
  9 10  1  0
 10 11  2  0
 10 12  1  0
 12 13  2  0
 13 14  1  0
 14 15  2  0
 15 16  1  0
  9 17  1  0
 17 18  1  0
  4 19  2  0
 19 20  1  0
 20  2  1  0
 18  6  1  0
 16 12  1  0
  1 21  1  0
  1 22  1  0
  1 23  1  0
  3 24  1  0
  5 25  1  0
  5 26  1  0
  7 27  1  0
  7 28  1  0
  8 29  1  0
  8 30  1  0
 13 31  1  0
 14 32  1  0
 15 33  1  0
 17 34  1  0
 17 35  1  0
 18 36  1  0
 18 37  1  0
 19 38  1  0
M  CHG  1   3   1
M  END
>  <UniqueID>  (5) 
5

>  <SMILES>  (5) 
Cc1[nH+]c(CN2CCN(C(=O)c3cccs3)CC2)cs1

>  <Energy>  (5) 
103.93605241111094

>  <Genealogy>  (5) 
Cc1[nH+]c(CN2CCN(C(=O)c3cccs3)CC2)cs1 (protonated)
Cc1[nH+]c(CN2CCN(C(=O)c3cccs3)CC2)cs1 (3D coordinates assigned)
Cc1[nH+]c(CN2CCN(C(=O)c3cccs3)CC2)cs1 (nonaromatic ring conformer: 103.93605241111094 kcal/mol)

>  <smiles>  (5) 
Cc1nc(CN2CCN(C(=O)c3cccs3)CC2)cs1

>  <score_type>  (5) 
oracle

>  <origin>  (5) 
adg

>  <m_score__min__energy>  (5) 
-5.5999999999999996

>  <m_primary>  (5) 
energy

$$$$
5:0
     RDKit          3D

 41 42  0  0  0  0  0  0  0  0999 V2000
   59.6970   27.9220   44.8480 C   0  0  0  0  0  0  0  0  0  0  0  0
   59.9860   29.3520   45.2910 C   0  0  0  0  0  0  0  0  0  0  0  0
   58.7670   29.9990   45.7860 N   0  0  0  0  0  0  0  0  0  0  0  0
   58.6160   30.2670   47.2250 C   0  0  0  0  0  0  0  0  0  0  0  0
   59.9030   30.8320   47.8110 C   0  0  0  0  0  0  0  0  0  0  0  0
   57.5980   30.0230   44.9440 C   0  0  0  0  0  0  0  0  0  0  0  0
   56.5130   29.4070   45.2680 N   0  0  0  0  0  0  0  0  0  0  0  0
   55.5240   29.5600   44.2080 C   0  0  0  0  0  0  0  0  0  0  0  0
   56.2080   30.4340   43.1370 C   0  0  0  0  0  0  0  0  0  0  0  0
   57.5350   30.6760   43.6770 N   0  0  0  0  0  0  0  0  0  0  0  0
   58.4920   31.6190   43.0980 C   0  0  0  0  0  0  0  0  0  0  0  0
   58.0550   33.0620   43.3580 C   0  0  0  0  0  0  0  0  0  0  0  0
   58.3880   33.4800   44.7680 C   0  0  0  0  0  0  0  0  0  0  0  0
   57.4960   33.1980   45.8190 C   0  0  0  0  0  0  0  0  0  0  0  0
   57.7940   33.6020   47.1240 C   0  0  0  0  0  0  0  0  0  0  0  0
   58.9800   34.2920   47.3860 C   0  0  0  0  0  0  0  0  0  0  0  0
   59.2730   34.6660   48.6570 F   0  0  0  0  0  0  0  0  0  0  0  0
   59.8660   34.5890   46.3460 C   0  0  0  0  0  0  0  0  0  0  0  0
   59.5700   34.1880   45.0410 C   0  0  0  0  0  0  0  0  0  0  0  0
   59.5678   27.2828   45.7338 H   0  0  0  0  0  0  0  0  0  0  0  0
   58.7770   27.9037   44.2453 H   0  0  0  0  0  0  0  0  0  0  0  0
   60.5377   27.5479   44.2453 H   0  0  0  0  0  0  0  0  0  0  0  0
   60.7376   29.3361   46.0940 H   0  0  0  0  0  0  0  0  0  0  0  0
   60.3614   29.9202   44.4271 H   0  0  0  0  0  0  0  0  0  0  0  0
   57.8037   30.9939   47.3726 H   0  0  0  0  0  0  0  0  0  0  0  0
   58.3830   29.3211   47.7359 H   0  0  0  0  0  0  0  0  0  0  0  0
   59.8475   30.8076   48.9093 H   0  0  0  0  0  0  0  0  0  0  0  0
   60.7566   30.2259   47.4735 H   0  0  0  0  0  0  0  0  0  0  0  0
   60.0346   31.8706   47.4735 H   0  0  0  0  0  0  0  0  0  0  0  0
   55.2527   28.5795   43.7896 H   0  0  0  0  0  0  0  0  0  0  0  0
   54.5939   30.0165   44.5774 H   0  0  0  0  0  0  0  0  0  0  0  0
   56.2677   29.9008   42.1767 H   0  0  0  0  0  0  0  0  0  0  0  0
   55.6570   31.3642   42.9340 H   0  0  0  0  0  0  0  0  0  0  0  0
   59.4806   31.4540   43.5512 H   0  0  0  0  0  0  0  0  0  0  0  0
   58.5376   31.4539   42.0114 H   0  0  0  0  0  0  0  0  0  0  0  0
   58.5741   33.7280   42.6530 H   0  0  0  0  0  0  0  0  0  0  0  0
   56.9658   33.1294   43.2197 H   0  0  0  0  0  0  0  0  0  0  0  0
   56.5603   32.6575   45.6131 H   0  0  0  0  0  0  0  0  0  0  0  0
   57.0954   33.3768   47.9433 H   0  0  0  0  0  0  0  0  0  0  0  0
   60.7958   35.1382   46.5553 H   0  0  0  0  0  0  0  0  0  0  0  0
   60.2658   34.4278   44.2234 H   0  0  0  0  0  0  0  0  0  0  0  0
  1  2  1  0
  2  3  1  0
  3  4  1  0
  4  5  1  0
  3  6  1  0
  6  7  2  0
  7  8  1  0
  8  9  1  0
  9 10  1  0
 10 11  1  0
 11 12  1  0
 12 13  1  0
 13 14  2  0
 14 15  1  0
 15 16  2  0
 16 17  1  0
 16 18  1  0
 18 19  2  0
 10  6  1  0
 19 13  1  0
  1 20  1  0
  1 21  1  0
  1 22  1  0
  2 23  1  0
  2 24  1  0
  4 25  1  0
  4 26  1  0
  5 27  1  0
  5 28  1  0
  5 29  1  0
  8 30  1  0
  8 31  1  0
  9 32  1  0
  9 33  1  0
 11 34  1  0
 11 35  1  0
 12 36  1  0
 12 37  1  0
 14 38  1  0
 15 39  1  0
 18 40  1  0
 19 41  1  0
M  END
>  <UniqueID>  (6) 
6

>  <SMILES>  (6) 
CCN(CC)C1=NCCN1CCc1ccc(F)cc1

>  <Energy>  (6) 
45.618683332850196

>  <Genealogy>  (6) 
CCN(CC)C1=NCCN1CCc1ccc(F)cc1 (3D coordinates assigned)
CCN(CC)C1=NCCN1CCc1ccc(F)cc1 (nonaromatic ring conformer: 45.618683332850196 kcal/mol)

>  <smiles>  (6) 
CCN(CC)C1=NCCN1CCc1ccc(F)cc1

>  <score_type>  (6) 
oracle

>  <origin>  (6) 
adg

>  <m_score__min__energy>  (6) 
-5.8200000000000003

>  <m_primary>  (6) 
energy

$$$$
6:0
     RDKit          3D

 30 31  0  0  0  0  0  0  0  0999 V2000
   53.0702   25.0489   45.3513 H   0  0  0  0  0  0  0  0  0  0  0  0
   54.1360   25.0930   45.6200 C   0  0  0  0  0  0  0  0  0  0  0  0
   54.7620   26.2940   45.7070 N   0  0  0  0  0  0  0  0  0  0  0  0
   56.0790   26.3890   46.0230 C   0  0  0  0  0  0  0  0  0  0  0  0
   56.5532   27.3788   46.0965 H   0  0  0  0  0  0  0  0  0  0  0  0
   56.8380   25.2350   46.2560 C   0  0  0  0  0  0  0  0  0  0  0  0
   58.2300   25.3750   46.5940 N   0  0  0  0  0  0  0  0  0  0  0  0
   58.7410   24.5170   46.9030 H   0  0  0  0  0  0  0  0  0  0  0  0
   58.9300   26.6310   46.6300 C   0  0  0  0  0  0  0  0  0  0  0  0
   59.2800   27.2600   45.4260 C   0  0  0  0  0  0  0  0  0  0  0  0
   59.0087   26.7943   44.4671 H   0  0  0  0  0  0  0  0  0  0  0  0
   59.9720   28.4760   45.4370 C   0  0  0  0  0  0  0  0  0  0  0  0
   60.2360   28.9664   44.4884 H   0  0  0  0  0  0  0  0  0  0  0  0
   60.3280   29.0680   46.6510 C   0  0  0  0  0  0  0  0  0  0  0  0
   60.8653   30.0278   46.6587 H   0  0  0  0  0  0  0  0  0  0  0  0
   60.0010   28.4400   47.8560 C   0  0  0  0  0  0  0  0  0  0  0  0
   60.2871   28.9033   48.8118 H   0  0  0  0  0  0  0  0  0  0  0  0
   59.3110   27.2240   47.8490 C   0  0  0  0  0  0  0  0  0  0  0  0
   59.0648   26.7285   48.7997 H   0  0  0  0  0  0  0  0  0  0  0  0
   56.2050   23.9730   46.2100 C   0  0  0  0  0  0  0  0  0  0  0  0
   56.8980   22.9070   46.5030 N   0  0  0  0  0  0  0  0  0  0  0  0
   58.1240   22.1270   45.5480 S   0  0  0  0  0  0  0  0  0  0  0  0
   59.3800   22.9520   45.5290 O   0  0  0  0  0  0  0  0  0  0  0  0
   58.4400   20.8010   46.1800 O   0  0  0  0  0  0  0  0  0  0  0  0
   57.5350   21.8360   43.8910 C   0  0  0  0  0  0  0  0  0  0  0  0
   58.5420   21.2650   43.1370 F   0  0  0  0  0  0  0  0  0  0  0  0
   56.4530   20.9760   43.9320 F   0  0  0  0  0  0  0  0  0  0  0  0
   57.1470   23.0240   43.3040 F   0  0  0  0  0  0  0  0  0  0  0  0
   54.8390   23.9140   45.8700 C   0  0  0  0  0  0  0  0  0  0  0  0
   54.3286   22.9420   45.8019 H   0  0  0  0  0  0  0  0  0  0  0  0
  1  2  1  0
  2  3  1  0
  3  4  1  0
  4  5  1  0
  4  6  2  0
  6  7  1  0
  7  8  1  0
  7  9  1  0
  9 10  2  0
 10 11  1  0
 10 12  1  0
 12 13  1  0
 12 14  2  0
 14 15  1  0
 14 16  1  0
 16 17  1  0
 16 18  2  0
 18 19  1  0
  6 20  1  0
 20 21  2  0
 21 22  1  0
 22 23  2  0
 22 24  2  0
 22 25  1  0
 25 26  1  0
 25 27  1  0
 25 28  1  0
 20 29  1  0
 29 30  1  0
 29  2  2  0
 18  9  1  0
M  CHG  1   3  -1
M  END
>  <UniqueID>  (7) 
7

>  <SMILES>  (7) 
O=S(=O)(/N=c1\cc[n-]cc1Nc1ccccc1)C(F)(F)F

>  <Energy>  (7) 
40.177055661292606

>  <Genealogy>  (7) 
O=S(=O)(N=c1cc[n-]cc1Nc1ccccc1)C(F)(F)F (protonated)
O=S(=O)(/N=c1\cc[n-]cc1Nc1ccccc1)C(F)(F)F (cis-trans isomerization)
O=S(=O)(/N=c1\cc[n-]cc1Nc1ccccc1)C(F)(F)F (3D coordinates assigned)
O=S(=O)(/N=c1\cc[n-]cc1Nc1ccccc1)C(F)(F)F (optimized conformer: 40.177055661292606 kcal/mol)

>  <smiles>  (7) 
O=S(=O)(N=c1cc[nH]cc1Nc1ccccc1)C(F)(F)F

>  <score_type>  (7) 
oracle

>  <origin>  (7) 
adg

>  <m_score__min__energy>  (7) 
-7.8099999999999996

>  <m_primary>  (7) 
energy

$$$$
7:0
     RDKit          3D

 40 41  0  0  0  0  0  0  0  0999 V2000
   59.6610   35.5250   46.0610 C   0  0  0  0  0  0  0  0  0  0  0  0
   58.9040   34.6260   47.0370 C   0  0  0  0  0  0  0  0  0  0  0  0
   58.5000   33.3150   46.3750 C   0  0  0  0  0  0  0  0  0  0  0  0
   57.4730   33.3100   45.3940 C   0  0  0  0  0  0  0  0  0  0  0  0
   56.8490   34.5800   44.8690 C   0  0  0  0  0  0  0  0  0  0  0  0
   57.0400   32.0900   44.8670 C   0  0  0  0  0  0  0  0  0  0  0  0
   57.5670   30.9260   45.3050 N   0  0  0  0  0  0  0  0  0  0  0  0
   58.5510   30.8700   46.2370 C   0  0  0  0  0  0  0  0  0  0  0  0
   59.0140   29.5060   46.6690 C   0  0  0  0  0  0  0  0  0  0  0  0
   59.0740   32.0730   46.7850 C   0  0  0  0  0  0  0  0  0  0  0  0
   60.2370   32.0320   47.7710 C   0  0  0  0  0  0  0  0  0  0  0  0
   61.5390   32.0870   47.0710 N   0  0  0  0  0  0  0  0  0  0  0  0
   62.6240   31.3940   47.8100 C   0  0  0  0  0  0  0  0  0  0  0  0
   63.4980   32.3720   48.6110 C   0  0  0  0  0  0  0  0  0  0  0  0
   64.1360   33.3840   47.7470 N   0  0  0  0  0  0  0  0  0  0  0  0
   63.3830   33.6730   46.5120 C   0  0  0  0  0  0  0  0  0  0  0  0
   61.8740   33.4870   46.7140 C   0  0  0  0  0  0  0  0  0  0  0  0
   60.2695   36.2476   46.6246 H   0  0  0  0  0  0  0  0  0  0  0  0
   60.3163   34.9089   45.4278 H   0  0  0  0  0  0  0  0  0  0  0  0
   58.9423   36.0659   45.4278 H   0  0  0  0  0  0  0  0  0  0  0  0
   59.5503   34.4083   47.9001 H   0  0  0  0  0  0  0  0  0  0  0  0
   57.9921   35.1501   47.3591 H   0  0  0  0  0  0  0  0  0  0  0  0
   56.5383   35.2123   45.7138 H   0  0  0  0  0  0  0  0  0  0  0  0
   57.5830   35.1227   44.2553 H   0  0  0  0  0  0  0  0  0  0  0  0
   55.9708   34.3306   44.2553 H   0  0  0  0  0  0  0  0  0  0  0  0
   56.2630   32.0777   44.0885 H   0  0  0  0  0  0  0  0  0  0  0  0
   59.0311   29.4555   47.7677 H   0  0  0  0  0  0  0  0  0  0  0  0
   58.3243   28.7437   46.2776 H   0  0  0  0  0  0  0  0  0  0  0  0
   60.0253   29.3211   46.2776 H   0  0  0  0  0  0  0  0  0  0  0  0
   60.1598   32.8926   48.4517 H   0  0  0  0  0  0  0  0  0  0  0  0
   60.1839   31.0864   48.3305 H   0  0  0  0  0  0  0  0  0  0  0  0
   62.1730   30.6709   48.5055 H   0  0  0  0  0  0  0  0  0  0  0  0
   63.2678   30.8924   47.0724 H   0  0  0  0  0  0  0  0  0  0  0  0
   62.8677   32.8853   49.3521 H   0  0  0  0  0  0  0  0  0  0  0  0
   64.2957   31.7917   49.0978 H   0  0  0  0  0  0  0  0  0  0  0  0
   65.0850   33.0360   47.4720 H   0  0  0  0  0  0  0  0  0  0  0  0
   63.5773   34.7129   46.2106 H   0  0  0  0  0  0  0  0  0  0  0  0
   63.7152   32.9698   45.7341 H   0  0  0  0  0  0  0  0  0  0  0  0
   61.5376   34.1519   47.5232 H   0  0  0  0  0  0  0  0  0  0  0  0
   61.3678   33.7313   45.7684 H   0  0  0  0  0  0  0  0  0  0  0  0
  1  2  1  0
  2  3  1  0
  3  4  2  0
  4  5  1  0
  4  6  1  0
  6  7  2  0
  7  8  1  0
  8  9  1  0
  8 10  2  0
 10 11  1  0
 11 12  1  0
 12 13  1  0
 13 14  1  0
 14 15  1  0
 15 16  1  0
 16 17  1  0
 10  3  1  0
 17 12  1  0
  1 18  1  0
  1 19  1  0
  1 20  1  0
  2 21  1  0
  2 22  1  0
  5 23  1  0
  5 24  1  0
  5 25  1  0
  6 26  1  0
  9 27  1  0
  9 28  1  0
  9 29  1  0
 11 30  1  0
 11 31  1  0
 13 32  1  0
 13 33  1  0
 14 34  1  0
 14 35  1  0
 15 36  1  0
 16 37  1  0
 16 38  1  0
 17 39  1  0
 17 40  1  0
M  END
>  <UniqueID>  (8) 
8

>  <SMILES>  (8) 
CCc1c(C)cnc(C)c1CN1CCNCC1

>  <Energy>  (8) 
52.478356758587005

>  <Genealogy>  (8) 
CCc1c(C)cnc(C)c1CN1CCNCC1 (3D coordinates assigned)
CCc1c(C)cnc(C)c1CN1CCNCC1 (nonaromatic ring conformer: 52.478356758587005 kcal/mol)

>  <smiles>  (8) 
CCc1c(C)cnc(C)c1CN1CCNCC1

>  <score_type>  (8) 
oracle

>  <origin>  (8) 
adg

>  <m_score__min__energy>  (8) 
-6.7199999999999998

>  <m_primary>  (8) 
energy

$$$$
8:0
     RDKit          3D

 50 53  0  0  0  0  0  0  0  0999 V2000
   61.7734   29.5972   49.4408 H   0  0  0  0  0  0  0  0  0  0  0  0
   60.7310   29.2470   49.4120 C   0  0  0  0  0  0  0  0  0  0  0  0
   60.0730   29.1460   50.5850 C   0  0  0  0  0  0  0  0  0  0  0  0
   60.4780   28.1910   51.5920 C   0  0  0  0  0  0  0  0  0  0  0  0
   60.8030   27.4250   52.3960 N   0  0  0  0  0  0  0  0  0  0  0  0
   58.9570   30.0600   50.9150 C   0  0  0  0  0  0  0  0  0  0  0  0
   57.7960   29.6390   51.4650 N   0  0  0  0  0  0  0  0  0  0  0  0
   56.9080   30.6530   51.6750 C   0  0  0  0  0  0  0  0  0  0  0  0
   55.5690   30.3950   52.2680 C   0  0  0  0  0  0  0  0  0  0  0  0
   54.4140   30.8860   51.6280 C   0  0  0  0  0  0  0  0  0  0  0  0
   54.5104   31.4579   50.6933 H   0  0  0  0  0  0  0  0  0  0  0  0
   53.1460   30.6530   52.1700 C   0  0  0  0  0  0  0  0  0  0  0  0
   52.2518   31.0449   51.6632 H   0  0  0  0  0  0  0  0  0  0  0  0
   53.0130   29.9240   53.3530 C   0  0  0  0  0  0  0  0  0  0  0  0
   52.0149   29.7422   53.7781 H   0  0  0  0  0  0  0  0  0  0  0  0
   54.1470   29.4260   53.9960 C   0  0  0  0  0  0  0  0  0  0  0  0
   54.0406   28.8506   54.9275 H   0  0  0  0  0  0  0  0  0  0  0  0
   55.4190   29.6560   53.4600 C   0  0  0  0  0  0  0  0  0  0  0  0
   56.3077   29.2579   53.9716 H   0  0  0  0  0  0  0  0  0  0  0  0
   57.3680   31.9120   51.2790 C   0  0  0  0  0  0  0  0  0  0  0  0
   56.8130   32.8583   51.3592 H   0  0  0  0  0  0  0  0  0  0  0  0
   58.9180   31.7250   50.6590 S   0  0  0  0  0  0  0  0  0  0  0  0
   60.1530   28.9210   48.0880 C   0  0  0  0  0  0  0  0  0  0  0  0
   60.5000   29.7090   46.9820 C   0  0  0  0  0  0  0  0  0  0  0  0
   61.2148   30.5363   47.1036 H   0  0  0  0  0  0  0  0  0  0  0  0
   59.9440   29.4510   45.7250 C   0  0  0  0  0  0  0  0  0  0  0  0
   60.2378   30.0645   44.8605 H   0  0  0  0  0  0  0  0  0  0  0  0
   59.0100   28.4100   45.5600 C   0  0  0  0  0  0  0  0  0  0  0  0
   58.4150   28.1130   44.3230 O   0  0  0  0  0  0  0  0  0  0  0  0
   57.4530   28.9290   43.6550 C   0  0  0  0  0  0  0  0  0  0  0  0
   57.9753   29.7237   43.1021 H   0  0  0  0  0  0  0  0  0  0  0  0
   56.8747   28.2990   42.9631 H   0  0  0  0  0  0  0  0  0  0  0  0
   56.5120   29.5520   44.6390 C   0  0  0  0  0  0  0  0  0  0  0  0
   55.2900   29.2470   44.6100 O   0  0  0  0  0  0  0  0  0  0  0  0
   57.0240   30.4260   45.6520 N   0  0  0  0  0  0  0  0  0  0  0  0
   57.7090   31.6650   45.4260 C   0  0  0  0  0  0  0  0  0  0  0  0
   57.7610   32.1790   44.1240 C   0  0  0  0  0  0  0  0  0  0  0  0
   57.2984   31.6200   43.2972 H   0  0  0  0  0  0  0  0  0  0  0  0
   58.3970   33.3980   43.8680 C   0  0  0  0  0  0  0  0  0  0  0  0
   58.4439   33.7886   42.8408 H   0  0  0  0  0  0  0  0  0  0  0  0
   58.9730   34.1200   44.9170 C   0  0  0  0  0  0  0  0  0  0  0  0
   59.4800   35.0749   44.7140 H   0  0  0  0  0  0  0  0  0  0  0  0
   58.9050   33.6290   46.2240 C   0  0  0  0  0  0  0  0  0  0  0  0
   59.6020   34.5500   47.5440 Cl  0  0  0  0  0  0  0  0  0  0  0  0
   58.2700   32.4080   46.4820 C   0  0  0  0  0  0  0  0  0  0  0  0
   58.2093   32.0283   47.5126 H   0  0  0  0  0  0  0  0  0  0  0  0
   58.6490   27.6390   46.6720 C   0  0  0  0  0  0  0  0  0  0  0  0
   57.9214   26.8223   46.5554 H   0  0  0  0  0  0  0  0  0  0  0  0
   59.2040   27.8970   47.9280 C   0  0  0  0  0  0  0  0  0  0  0  0
   58.8965   27.2955   48.7961 H   0  0  0  0  0  0  0  0  0  0  0  0
  1  2  1  0
  2  3  2  0
  3  4  1  0
  4  5  3  0
  3  6  1  0
  6  7  2  0
  7  8  1  0
  8  9  1  0
  9 10  2  0
 10 11  1  0
 10 12  1  0
 12 13  1  0
 12 14  2  0
 14 15  1  0
 14 16  1  0
 16 17  1  0
 16 18  2  0
 18 19  1  0
  8 20  2  0
 20 21  1  0
 20 22  1  0
  2 23  1  0
 23 24  2  0
 24 25  1  0
 24 26  1  0
 26 27  1  0
 26 28  2  0
 28 29  1  0
 29 30  1  0
 30 31  1  0
 30 32  1  0
 30 33  1  0
 33 34  2  0
 33 35  1  0
 35 36  1  0
 36 37  2  0
 37 38  1  0
 37 39  1  0
 39 40  1  0
 39 41  2  0
 41 42  1  0
 41 43  1  0
 43 44  1  0
 43 45  2  0
 45 46  1  0
 28 47  1  0
 47 48  1  0
 47 49  2  0
 49 50  1  0
 22  6  1  0
 49 23  1  0
 18  9  1  0
 45 36  1  0
M  CHG  1  35  -1
M  END
>  <UniqueID>  (9) 
9

>  <SMILES>  (9) 
N#C/C(=C\c1ccc(OCC(=O)[N-]c2cccc(Cl)c2)cc1)c1nc(-c2ccccc2)cs1

>  <Energy>  (9) 
94.50739664677316

>  <Genealogy>  (9) 
N#CC(=Cc1ccc(OCC(=O)[N-]c2cccc(Cl)c2)cc1)c1nc(-c2ccccc2)cs1 (protonated)
N#C/C(=C\c1ccc(OCC(=O)[N-]c2cccc(Cl)c2)cc1)c1nc(-c2ccccc2)cs1 (cis-trans isomerization)
N#C/C(=C\c1ccc(OCC(=O)[N-]c2cccc(Cl)c2)cc1)c1nc(-c2ccccc2)cs1 (3D coordinates assigned)
N#C/C(=C\c1ccc(OCC(=O)[N-]c2cccc(Cl)c2)cc1)c1nc(-c2ccccc2)cs1 (optimized conformer: 94.50739664677316 kcal/mol)

>  <smiles>  (9) 
N#CC(=Cc1ccc(OCC(=O)Nc2cccc(Cl)c2)cc1)c1nc(-c2ccccc2)cs1

>  <score_type>  (9) 
oracle

>  <origin>  (9) 
adg

>  <m_score__min__energy>  (9) 
-11.880000000000001

>  <m_primary>  (9) 
energy

$$$$
9:0
     RDKit          3D

 34 36  0  0  0  0  0  0  0  0999 V2000
   58.5390   32.7890   44.5200 C   0  0  0  0  0  0  0  0  0  0  0  0
   58.0870   31.3890   44.8150 C   0  0  0  0  0  0  0  0  0  0  0  0
   59.0030   30.4320   45.2670 C   0  0  0  0  0  0  0  0  0  0  0  0
   58.5880   29.1220   45.5140 C   0  0  0  0  0  0  0  0  0  0  0  0
   57.2520   28.7400   45.3030 C   0  0  0  0  0  0  0  0  0  0  0  0
   56.8480   27.3640   45.6620 C   0  0  0  0  0  0  0  0  0  0  0  0
   55.6230   27.0920   45.7900 O   0  0  0  0  0  0  0  0  0  0  0  0
   57.8410   26.3470   45.8490 N   0  0  0  0  0  0  0  0  0  0  0  0
   57.6650   24.9330   45.6780 C   0  0  0  0  0  0  0  0  0  0  0  0
   57.6620   24.3290   44.4060 C   0  0  0  0  0  0  0  0  0  0  0  0
   57.5080   22.9440   44.2830 C   0  0  0  0  0  0  0  0  0  0  0  0
   57.3800   22.1500   45.4260 C   0  0  0  0  0  0  0  0  0  0  0  0
   57.3970   22.7450   46.6950 C   0  0  0  0  0  0  0  0  0  0  0  0
   57.5470   24.1300   46.8200 C   0  0  0  0  0  0  0  0  0  0  0  0
   57.2140   21.9290   47.8530 N   0  0  0  0  0  0  0  0  0  0  0  0
   57.1180   20.5100   47.7220 C   0  0  0  0  0  0  0  0  0  0  0  0
   56.8620   19.8040   48.7330 O   0  0  0  0  0  0  0  0  0  0  0  0
   57.4040   19.8570   46.3990 C   0  0  0  0  0  0  0  0  0  0  0  0
   57.2170   20.7640   45.3060 O   0  0  0  0  0  0  0  0  0  0  0  0
   56.3390   29.6910   44.7860 C   0  0  0  0  0  0  0  0  0  0  0  0
   55.0250   29.3630   44.4460 O   0  0  0  0  0  0  0  0  0  0  0  0
   56.7620   31.0070   44.5620 C   0  0  0  0  0  0  0  0  0  0  0  0
   58.7121   33.3252   45.4648 H   0  0  0  0  0  0  0  0  0  0  0  0
   59.4728   32.7582   43.9395 H   0  0  0  0  0  0  0  0  0  0  0  0
   57.7634   33.3101   43.9395 H   0  0  0  0  0  0  0  0  0  0  0  0
   60.0542   30.7132   45.4283 H   0  0  0  0  0  0  0  0  0  0  0  0
   59.3147   28.3807   45.8778 H   0  0  0  0  0  0  0  0  0  0  0  0
   57.7813   24.9489   43.5051 H   0  0  0  0  0  0  0  0  0  0  0  0
   57.4876   22.4796   43.2860 H   0  0  0  0  0  0  0  0  0  0  0  0
   57.5724   24.5905   47.8187 H   0  0  0  0  0  0  0  0  0  0  0  0
   58.4457   19.5038   46.3942 H   0  0  0  0  0  0  0  0  0  0  0  0
   56.7018   19.0198   46.2723 H   0  0  0  0  0  0  0  0  0  0  0  0
   54.6590   28.4210   44.4910 H   0  0  0  0  0  0  0  0  0  0  0  0
   56.0455   31.7505   44.1827 H   0  0  0  0  0  0  0  0  0  0  0  0
  1  2  1  0
  2  3  2  0
  3  4  1  0
  4  5  2  0
  5  6  1  0
  6  7  2  0
  6  8  1  0
  8  9  1  0
  9 10  2  0
 10 11  1  0
 11 12  2  0
 12 13  1  0
 13 14  2  0
 13 15  1  0
 15 16  1  0
 16 17  2  0
 16 18  1  0
 18 19  1  0
  5 20  1  0
 20 21  1  0
 20 22  2  0
 22  2  1  0
 14  9  1  0
 19 12  1  0
  1 23  1  0
  1 24  1  0
  1 25  1  0
  3 26  1  0
  4 27  1  0
 10 28  1  0
 11 29  1  0
 14 30  1  0
 18 31  1  0
 18 32  1  0
 21 33  1  0
 22 34  1  0
M  CHG  2   8  -1  15  -1
M  END
>  <UniqueID>  (10) 
10

>  <SMILES>  (10) 
Cc1ccc(C(=O)[N-]c2ccc3c(c2)[N-]C(=O)CO3)c(O)c1

>  <Energy>  (10) 
46.85724418161955

>  <Genealogy>  (10) 
Cc1ccc(C(=O)[N-]c2ccc3c(c2)[N-]C(=O)CO3)c(O)c1 (protonated)
Cc1ccc(C(=O)[N-]c2ccc3c(c2)[N-]C(=O)CO3)c(O)c1 (3D coordinates assigned)
Cc1ccc(C(=O)[N-]c2ccc3c(c2)[N-]C(=O)CO3)c(O)c1 (nonaromatic ring conformer: 46.85724418161955 kcal/mol)

>  <smiles>  (10) 
Cc1ccc(C(=O)Nc2ccc3c(c2)NC(=O)CO3)c(O)c1

>  <score_type>  (10) 
oracle

>  <origin>  (10) 
adg

>  <m_score__min__energy>  (10) 
-10.619999999999999

>  <m_primary>  (10) 
energy

$$$$
10:0
     RDKit          3D

 44 46  0  0  0  0  0  0  0  0999 V2000
   65.1940   32.8320   49.7820 Br  0  0  0  0  0  0  0  0  0  0  0  0
   63.5650   33.1180   48.8300 C   0  0  0  0  0  0  0  0  0  0  0  0
   62.3540   33.1930   49.5210 C   0  0  0  0  0  0  0  0  0  0  0  0
   61.1590   33.4030   48.8250 C   0  0  0  0  0  0  0  0  0  0  0  0
   61.1610   33.5370   47.4240 C   0  0  0  0  0  0  0  0  0  0  0  0
   59.9200   33.7530   46.7200 N   0  0  0  0  0  0  0  0  0  0  0  0
   58.9750   34.6830   46.9630 C   0  0  0  0  0  0  0  0  0  0  0  0
   57.9570   34.5920   46.0860 N   0  0  0  0  0  0  0  0  0  0  0  0
   58.3400   33.5570   45.3090 C   0  0  0  0  0  0  0  0  0  0  0  0
   57.5500   33.0650   44.1310 C   0  0  0  0  0  0  0  0  0  0  0  0
   58.1520   31.8630   43.5300 N   0  0  0  0  0  0  0  0  0  0  0  0
   57.1520   30.8490   43.1600 C   0  0  0  0  0  0  0  0  0  0  0  0
   56.6210   30.1100   44.3980 C   0  0  0  0  0  0  0  0  0  0  0  0
   57.6950   29.2620   45.0990 C   0  0  0  0  0  0  0  0  0  0  0  0
   58.6810   30.1060   45.8020 N   0  0  0  0  0  0  0  0  0  0  0  0
   60.0510   29.6600   45.5410 C   0  0  0  0  0  0  0  0  0  0  0  0
   60.8910   30.1370   46.7110 C   0  0  0  0  0  0  0  0  0  0  0  0
   59.9110   30.3140   47.8590 C   0  0  0  0  0  0  0  0  0  0  0  0
   58.5320   30.0640   47.2620 C   0  0  0  0  0  0  0  0  0  0  0  0
   59.5290   33.0430   45.6760 N   0  0  0  0  0  0  0  0  0  0  0  0
   62.3890   33.4620   46.7380 C   0  0  0  0  0  0  0  0  0  0  0  0
   63.5810   33.2530   47.4390 C   0  0  0  0  0  0  0  0  0  0  0  0
   62.3397   33.0866   50.6158 H   0  0  0  0  0  0  0  0  0  0  0  0
   60.2097   33.4639   49.3773 H   0  0  0  0  0  0  0  0  0  0  0  0
   59.0286   35.4229   47.7752 H   0  0  0  0  0  0  0  0  0  0  0  0
   56.5294   32.8237   44.4629 H   0  0  0  0  0  0  0  0  0  0  0  0
   57.5419   33.8593   43.3700 H   0  0  0  0  0  0  0  0  0  0  0  0
   58.8290   31.4430   44.2090 H   0  0  0  0  0  0  0  0  0  0  0  0
   56.3120   31.3436   42.6504 H   0  0  0  0  0  0  0  0  0  0  0  0
   57.6319   30.1143   42.4967 H   0  0  0  0  0  0  0  0  0  0  0  0
   56.2397   30.8537   45.1132 H   0  0  0  0  0  0  0  0  0  0  0  0
   55.8311   29.4243   44.0578 H   0  0  0  0  0  0  0  0  0  0  0  0
   57.2066   28.6001   45.8293 H   0  0  0  0  0  0  0  0  0  0  0  0
   58.2262   28.6781   44.3330 H   0  0  0  0  0  0  0  0  0  0  0  0
   60.0863   28.5628   45.4705 H   0  0  0  0  0  0  0  0  0  0  0  0
   60.4268   30.0664   44.5904 H   0  0  0  0  0  0  0  0  0  0  0  0
   61.6550   29.3885   46.9679 H   0  0  0  0  0  0  0  0  0  0  0  0
   61.4261   31.0698   46.4797 H   0  0  0  0  0  0  0  0  0  0  0  0
   60.1208   29.5881   48.6584 H   0  0  0  0  0  0  0  0  0  0  0  0
   59.9853   31.3159   48.3070 H   0  0  0  0  0  0  0  0  0  0  0  0
   58.1581   29.0780   47.5752 H   0  0  0  0  0  0  0  0  0  0  0  0
   57.8130   30.8227   47.6047 H   0  0  0  0  0  0  0  0  0  0  0  0
   62.4106   33.5686   45.6434 H   0  0  0  0  0  0  0  0  0  0  0  0
   64.5345   33.1947   46.8936 H   0  0  0  0  0  0  0  0  0  0  0  0
  1  2  1  0
  2  3  2  0
  3  4  1  0
  4  5  2  0
  5  6  1  0
  6  7  1  0
  7  8  2  0
  8  9  1  0
  9 10  1  0
 10 11  1  0
 11 12  1  0
 12 13  1  0
 13 14  1  0
 14 15  1  0
 15 16  1  0
 16 17  1  0
 17 18  1  0
 18 19  1  0
  9 20  2  0
  5 21  1  0
 21 22  2  0
 22  2  1  0
 20  6  1  0
 19 15  1  0
  3 23  1  0
  4 24  1  0
  7 25  1  0
 10 26  1  0
 10 27  1  0
 11 28  1  0
 12 29  1  0
 12 30  1  0
 13 31  1  0
 13 32  1  0
 14 33  1  0
 14 34  1  0
 16 35  1  0
 16 36  1  0
 17 37  1  0
 17 38  1  0
 18 39  1  0
 18 40  1  0
 19 41  1  0
 19 42  1  0
 21 43  1  0
 22 44  1  0
M  END
>  <UniqueID>  (11) 
11

>  <SMILES>  (11) 
Brc1ccc(-n2cnc(CNCCCN3CCCC3)n2)cc1

>  <Energy>  (11) 
78.7232645195802

>  <Genealogy>  (11) 
Brc1ccc(-n2cnc(CNCCCN3CCCC3)n2)cc1 (3D coordinates assigned)
Brc1ccc(-n2cnc(CNCCCN3CCCC3)n2)cc1 (nonaromatic ring conformer: 78.7232645195802 kcal/mol)

>  <smiles>  (11) 
Brc1ccc(-n2cnc(CNCCCN3CCCC3)n2)cc1

>  <score_type>  (11) 
oracle

>  <origin>  (11) 
adg

>  <m_score__min__energy>  (11) 
-6.8200000000000003

>  <m_primary>  (11) 
energy

$$$$
11:0
     RDKit          3D

 57 60  0  0  0  0  0  0  0  0999 V2000
   57.2510   24.2660   45.3460 C   0  0  0  0  0  0  0  0  0  0  0  0
   58.2660   24.8150   46.3480 C   0  0  0  0  0  0  0  0  0  0  0  0
   59.3300   25.6890   45.6700 C   0  0  0  0  0  0  0  0  0  0  0  0
   59.4190   27.0170   46.3210 N   0  0  0  0  0  0  0  0  0  0  0  0
   58.1990   27.3730   47.0730 C   0  0  0  0  0  0  0  0  0  0  0  0
   57.0230   27.6860   46.1420 C   0  0  0  0  0  0  0  0  0  0  0  0
   57.4060   28.7020   45.1530 N   0  0  0  0  0  0  0  0  0  0  0  0
   56.3840   29.5730   44.6140 C   0  0  0  0  0  0  0  0  0  0  0  0
   55.1680   29.3380   44.8570 O   0  0  0  0  0  0  0  0  0  0  0  0
   56.7370   30.7420   43.7300 C   0  0  0  0  0  0  0  0  0  0  0  0
   56.8110   31.9590   44.4750 O   0  0  0  0  0  0  0  0  0  0  0  0
   57.7670   32.2470   45.4640 C   0  0  0  0  0  0  0  0  0  0  0  0
   58.8910   31.4200   45.5580 C   0  0  0  0  0  0  0  0  0  0  0  0
   59.8650   31.6480   46.5360 C   0  0  0  0  0  0  0  0  0  0  0  0
   59.7320   32.7190   47.4360 C   0  0  0  0  0  0  0  0  0  0  0  0
   60.7550   32.9540   48.4850 C   0  0  0  0  0  0  0  0  0  0  0  0
   60.3680   33.2850   49.7960 C   0  0  0  0  0  0  0  0  0  0  0  0
   61.3290   33.5000   50.7950 C   0  0  0  0  0  0  0  0  0  0  0  0
   60.9350   33.8320   52.0910 O   0  0  0  0  0  0  0  0  0  0  0  0
   62.6900   33.3780   50.4890 C   0  0  0  0  0  0  0  0  0  0  0  0
   63.6300   33.5750   51.4530 N   0  0  0  0  0  0  0  0  0  0  0  0
   64.9590   33.4600   51.1910 C   0  0  0  0  0  0  0  0  0  0  0  0
   65.3960   33.1310   49.9050 C   0  0  0  0  0  0  0  0  0  0  0  0
   64.4570   32.9250   48.8930 C   0  0  0  0  0  0  0  0  0  0  0  0
   63.0890   33.0460   49.1750 C   0  0  0  0  0  0  0  0  0  0  0  0
   62.1240   32.8390   48.1810 C   0  0  0  0  0  0  0  0  0  0  0  0
   58.6080   33.5580   47.3340 C   0  0  0  0  0  0  0  0  0  0  0  0
   57.6330   33.3250   46.3590 C   0  0  0  0  0  0  0  0  0  0  0  0
   58.6780   28.5180   44.4380 C   0  0  0  0  0  0  0  0  0  0  0  0
   59.8070   28.1050   45.3990 C   0  0  0  0  0  0  0  0  0  0  0  0
   56.4094   23.8108   45.8887 H   0  0  0  0  0  0  0  0  0  0  0  0
   56.8792   25.0860   44.7141 H   0  0  0  0  0  0  0  0  0  0  0  0
   57.7338   23.5060   44.7141 H   0  0  0  0  0  0  0  0  0  0  0  0
   57.7339   25.4203   47.0967 H   0  0  0  0  0  0  0  0  0  0  0  0
   58.7767   23.9606   46.8162 H   0  0  0  0  0  0  0  0  0  0  0  0
   60.3064   25.1873   45.7409 H   0  0  0  0  0  0  0  0  0  0  0  0
   59.0467   25.8329   44.6169 H   0  0  0  0  0  0  0  0  0  0  0  0
   57.9231   26.5293   47.7226 H   0  0  0  0  0  0  0  0  0  0  0  0
   58.4147   28.2754   47.6639 H   0  0  0  0  0  0  0  0  0  0  0  0
   56.7212   26.7669   45.6184 H   0  0  0  0  0  0  0  0  0  0  0  0
   56.1865   28.0722   46.7430 H   0  0  0  0  0  0  0  0  0  0  0  0
   57.7125   30.5517   43.2586 H   0  0  0  0  0  0  0  0  0  0  0  0
   55.9490   30.8501   42.9702 H   0  0  0  0  0  0  0  0  0  0  0  0
   59.0104   30.5818   44.8558 H   0  0  0  0  0  0  0  0  0  0  0  0
   60.7403   30.9849   46.6009 H   0  0  0  0  0  0  0  0  0  0  0  0
   59.2995   33.3763   50.0408 H   0  0  0  0  0  0  0  0  0  0  0  0
   61.6110   33.9510   52.8390 H   0  0  0  0  0  0  0  0  0  0  0  0
   65.6926   33.6264   51.9936 H   0  0  0  0  0  0  0  0  0  0  0  0
   66.4709   33.0352   49.6921 H   0  0  0  0  0  0  0  0  0  0  0  0
   64.7896   32.6683   47.8764 H   0  0  0  0  0  0  0  0  0  0  0  0
   62.4380   32.5853   47.1577 H   0  0  0  0  0  0  0  0  0  0  0  0
   58.4948   34.4047   48.0270 H   0  0  0  0  0  0  0  0  0  0  0  0
   56.7573   33.9872   46.2912 H   0  0  0  0  0  0  0  0  0  0  0  0
   58.5508   27.7339   43.6771 H   0  0  0  0  0  0  0  0  0  0  0  0
   58.9539   29.4745   43.9700 H   0  0  0  0  0  0  0  0  0  0  0  0
   60.6675   27.7675   44.8027 H   0  0  0  0  0  0  0  0  0  0  0  0
   60.0495   28.9837   46.0146 H   0  0  0  0  0  0  0  0  0  0  0  0
  1  2  1  0
  2  3  1  0
  3  4  1  0
  4  5  1  0
  5  6  1  0
  6  7  1  0
  7  8  1  0
  8  9  2  0
  8 10  1  0
 10 11  1  0
 11 12  1  0
 12 13  2  0
 13 14  1  0
 14 15  2  0
 15 16  1  0
 16 17  2  0
 17 18  1  0
 18 19  1  0
 18 20  2  0
 20 21  1  0
 21 22  2  0
 22 23  1  0
 23 24  2  0
 24 25  1  0
 25 26  2  0
 15 27  1  0
 27 28  2  0
  7 29  1  0
 29 30  1  0
 30  4  1  0
 28 12  1  0
 26 16  1  0
 25 20  1  0
  1 31  1  0
  1 32  1  0
  1 33  1  0
  2 34  1  0
  2 35  1  0
  3 36  1  0
  3 37  1  0
  5 38  1  0
  5 39  1  0
  6 40  1  0
  6 41  1  0
 10 42  1  0
 10 43  1  0
 13 44  1  0
 14 45  1  0
 17 46  1  0
 19 47  1  0
 22 48  1  0
 23 49  1  0
 24 50  1  0
 26 51  1  0
 27 52  1  0
 28 53  1  0
 29 54  1  0
 29 55  1  0
 30 56  1  0
 30 57  1  0
M  END
>  <UniqueID>  (12) 
12

>  <SMILES>  (12) 
CCCN1CCN(C(=O)COc2ccc(-c3cc(O)c4ncccc4c3)cc2)CC1

>  <Energy>  (12) 
69.97828003801285

>  <Genealogy>  (12) 
CCCN1CCN(C(=O)COc2ccc(-c3cc(O)c4ncccc4c3)cc2)CC1 (3D coordinates assigned)
CCCN1CCN(C(=O)COc2ccc(-c3cc(O)c4ncccc4c3)cc2)CC1 (nonaromatic ring conformer: 69.97828003801285 kcal/mol)

>  <smiles>  (12) 
CCCN1CCN(C(=O)COc2ccc(-c3cc(O)c4ncccc4c3)cc2)CC1

>  <score_type>  (12) 
oracle

>  <origin>  (12) 
adg

>  <m_score__min__energy>  (12) 
-9.0700000000000003

>  <m_primary>  (12) 
energy

$$$$
12:0
     RDKit          3D

 37 39  0  0  0  0  0  0  0  0999 V2000
   55.6280   29.7350   43.9780 C   0  0  0  0  0  0  0  0  0  0  0  0
   56.1010   29.3560   45.2650 O   0  0  0  0  0  0  0  0  0  0  0  0
   57.4030   28.8860   45.4650 C   0  0  0  0  0  0  0  0  0  0  0  0
   58.4930   29.7900   45.4870 C   0  0  0  0  0  0  0  0  0  0  0  0
   58.3080   31.2330   45.2020 C   0  0  0  0  0  0  0  0  0  0  0  0
   58.2860   32.1670   46.2530 C   0  0  0  0  0  0  0  0  0  0  0  0
   58.1110   33.5280   45.9850 C   0  0  0  0  0  0  0  0  0  0  0  0
   57.9620   33.9690   44.6680 C   0  0  0  0  0  0  0  0  0  0  0  0
   57.9910   33.0500   43.6160 C   0  0  0  0  0  0  0  0  0  0  0  0
   58.1660   31.6880   43.8790 C   0  0  0  0  0  0  0  0  0  0  0  0
   59.7840   29.3070   45.7510 C   0  0  0  0  0  0  0  0  0  0  0  0
   60.0020   27.9480   45.9620 C   0  0  0  0  0  0  0  0  0  0  0  0
   58.9380   27.0500   45.9060 C   0  0  0  0  0  0  0  0  0  0  0  0
   57.6300   27.4990   45.6520 C   0  0  0  0  0  0  0  0  0  0  0  0
   56.5230   26.5100   45.6040 C   0  0  0  0  0  0  0  0  0  0  0  0
   56.5950   25.3390   44.9380 N   0  0  0  0  0  0  0  0  0  0  0  0
   55.3820   24.8020   45.1730 C   0  0  0  0  0  0  0  0  0  0  0  0
   54.9530   23.4880   44.6490 C   0  0  0  0  0  0  0  0  0  0  0  0
   53.8360   22.8190   45.2440 N   0  0  0  0  0  0  0  0  0  0  0  0
   55.5800   22.9370   43.6550 N   0  0  0  0  0  0  0  0  0  0  0  0
   54.6110   25.5970   45.9380 N   0  0  0  0  0  0  0  0  0  0  0  0
   55.3290   26.6730   46.2090 N   0  0  0  0  0  0  0  0  0  0  0  0
   54.7739   30.4194   44.0882 H   0  0  0  0  0  0  0  0  0  0  0  0
   56.4338   30.2402   43.4253 H   0  0  0  0  0  0  0  0  0  0  0  0
   55.3106   28.8384   43.4253 H   0  0  0  0  0  0  0  0  0  0  0  0
   58.4071   31.8250   47.2915 H   0  0  0  0  0  0  0  0  0  0  0  0
   58.0906   34.2525   46.8124 H   0  0  0  0  0  0  0  0  0  0  0  0
   57.8218   35.0399   44.4591 H   0  0  0  0  0  0  0  0  0  0  0  0
   57.8760   33.3986   42.5791 H   0  0  0  0  0  0  0  0  0  0  0  0
   58.1927   30.9689   43.0470 H   0  0  0  0  0  0  0  0  0  0  0  0
   60.6308   30.0079   45.7916 H   0  0  0  0  0  0  0  0  0  0  0  0
   61.0176   27.5821   46.1736 H   0  0  0  0  0  0  0  0  0  0  0  0
   59.1235   25.9771   46.0624 H   0  0  0  0  0  0  0  0  0  0  0  0
   53.3160   23.2430   46.0440 H   0  0  0  0  0  0  0  0  0  0  0  0
   53.5190   21.8900   44.8870 H   0  0  0  0  0  0  0  0  0  0  0  0
   56.5660   23.2030   43.4310 H   0  0  0  0  0  0  0  0  0  0  0  0
   55.1260   22.2160   43.0500 H   0  0  0  0  0  0  0  0  0  0  0  0
  1  2  1  0
  2  3  1  0
  3  4  2  0
  4  5  1  0
  5  6  2  0
  6  7  1  0
  7  8  2  0
  8  9  1  0
  9 10  2  0
  4 11  1  0
 11 12  2  0
 12 13  1  0
 13 14  2  0
 14 15  1  0
 15 16  2  0
 16 17  1  0
 17 18  1  0
 18 19  1  0
 18 20  2  0
 17 21  2  0
 21 22  1  0
 14  3  1  0
 22 15  1  0
 10  5  1  0
  1 23  1  0
  1 24  1  0
  1 25  1  0
  6 26  1  0
  7 27  1  0
  8 28  1  0
  9 29  1  0
 10 30  1  0
 11 31  1  0
 12 32  1  0
 13 33  1  0
 19 34  1  0
 19 35  1  0
 20 36  1  0
 20 37  1  0
M  CHG  2  20   1  22  -1
M  END
>  <UniqueID>  (13) 
13

>  <SMILES>  (13) 
COc1c(-c2ccccc2)cccc1-c1nc(C(N)=[NH2+])n[n-]1

>  <Energy>  (13) 
82.74784135885136

>  <Genealogy>  (13) 
COc1c(-c2ccccc2)cccc1-c1nc(C(N)=[NH2+])n[n-]1 (protonated)
COc1c(-c2ccccc2)cccc1-c1nc(C(N)=[NH2+])n[n-]1 (3D coordinates assigned)
COc1c(-c2ccccc2)cccc1-c1nc(C(N)=[NH2+])n[n-]1 (optimized conformer: 82.74784135885136 kcal/mol)

>  <smiles>  (13) 
COc1c(-c2ccccc2)cccc1-c1nc(C(=N)N)n[nH]1

>  <score_type>  (13) 
oracle

>  <origin>  (13) 
adg

>  <m_score__min__energy>  (13) 
-8.25

>  <m_primary>  (13) 
energy

$$$$
13:0
     RDKit          3D

 36 39  0  0  0  0  0  0  0  0999 V2000
   59.3170   35.1340   47.4220 F   0  0  0  0  0  0  0  0  0  0  0  0
   59.5050   34.6540   46.1350 C   0  0  0  0  0  0  0  0  0  0  0  0
   59.2750   35.6880   45.2470 F   0  0  0  0  0  0  0  0  0  0  0  0
   60.8180   34.2380   46.0120 F   0  0  0  0  0  0  0  0  0  0  0  0
   58.5610   33.4750   45.8030 C   0  0  0  0  0  0  0  0  0  0  0  0
   58.9880   32.0740   46.2340 C   0  0  0  0  0  0  0  0  0  0  0  0
   60.1430   31.8140   47.0030 C   0  0  0  0  0  0  0  0  0  0  0  0
   60.4590   30.5370   47.3490 N   0  0  0  0  0  0  0  0  0  0  0  0
   59.6770   29.4900   46.9680 C   0  0  0  0  0  0  0  0  0  0  0  0
   60.0000   28.1750   47.3250 C   0  0  0  0  0  0  0  0  0  0  0  0
   59.1800   27.1170   46.9220 C   0  0  0  0  0  0  0  0  0  0  0  0
   58.0250   27.3570   46.1530 C   0  0  0  0  0  0  0  0  0  0  0  0
   57.1560   26.2300   45.7250 C   0  0  0  0  0  0  0  0  0  0  0  0
   57.5430   25.3810   44.6740 C   0  0  0  0  0  0  0  0  0  0  0  0
   56.7160   24.3250   44.2840 C   0  0  0  0  0  0  0  0  0  0  0  0
   55.5050   24.1240   44.9470 C   0  0  0  0  0  0  0  0  0  0  0  0
   55.1390   24.9520   45.9600 N   0  0  0  0  0  0  0  0  0  0  0  0
   55.9260   25.9850   46.3610 C   0  0  0  0  0  0  0  0  0  0  0  0
   57.7050   28.6810   45.7960 C   0  0  0  0  0  0  0  0  0  0  0  0
   58.5240   29.7390   46.2000 C   0  0  0  0  0  0  0  0  0  0  0  0
   58.2160   31.0160   45.8600 N   0  0  0  0  0  0  0  0  0  0  0  0
   57.7790   33.5950   44.4960 C   0  0  0  0  0  0  0  0  0  0  0  0
   57.0650   33.7900   45.8340 C   0  0  0  0  0  0  0  0  0  0  0  0
   60.7884   32.6453   47.3229 H   0  0  0  0  0  0  0  0  0  0  0  0
   61.3190   30.3700   47.9200 H   0  0  0  0  0  0  0  0  0  0  0  0
   60.9007   27.9742   47.9237 H   0  0  0  0  0  0  0  0  0  0  0  0
   59.4395   26.0871   47.2083 H   0  0  0  0  0  0  0  0  0  0  0  0
   58.4995   25.5485   44.1572 H   0  0  0  0  0  0  0  0  0  0  0  0
   57.0166   23.6584   43.4622 H   0  0  0  0  0  0  0  0  0  0  0  0
   54.8463   23.2948   44.6494 H   0  0  0  0  0  0  0  0  0  0  0  0
   55.5990   26.6329   47.1876 H   0  0  0  0  0  0  0  0  0  0  0  0
   56.8056   28.8837   45.1960 H   0  0  0  0  0  0  0  0  0  0  0  0
   57.9469   34.4556   43.8317 H   0  0  0  0  0  0  0  0  0  0  0  0
   57.6253   32.9483   43.6195 H   0  0  0  0  0  0  0  0  0  0  0  0
   56.7196   34.7908   46.1325 H   0  0  0  0  0  0  0  0  0  0  0  0
   56.1853   33.3419   46.3192 H   0  0  0  0  0  0  0  0  0  0  0  0
  1  2  1  0
  2  3  1  0
  2  4  1  0
  2  5  1  0
  5  6  1  0
  6  7  2  0
  7  8  1  0
  8  9  2  0
  9 10  1  0
 10 11  2  0
 11 12  1  0
 12 13  1  0
 13 14  2  0
 14 15  1  0
 15 16  2  0
 16 17  1  0
 17 18  2  0
 12 19  2  0
 19 20  1  0
 20 21  2  0
  5 22  1  0
 22 23  1  0
 23  5  1  0
 21  6  1  0
 20  9  1  0
 18 13  1  0
  7 24  1  0
  8 25  1  0
 10 26  1  0
 11 27  1  0
 14 28  1  0
 15 29  1  0
 16 30  1  0
 18 31  1  0
 19 32  1  0
 22 33  1  0
 22 34  1  0
 23 35  1  0
 23 36  1  0
M  CHG  1   8   1
M  END
>  <UniqueID>  (14) 
14

>  <SMILES>  (14) 
FC(F)(F)C1(c2c[nH+]c3ccc(-c4cccnc4)cc3n2)CC1

>  <Energy>  (14) 
320.5541024455065

>  <Genealogy>  (14) 
FC(F)(F)C1(c2c[nH+]c3ccc(-c4cccnc4)cc3n2)CC1 (protonated)
FC(F)(F)C1(c2c[nH+]c3ccc(-c4cccnc4)cc3n2)CC1 (3D coordinates assigned)
FC(F)(F)C1(c2c[nH+]c3ccc(-c4cccnc4)cc3n2)CC1 (nonaromatic ring conformer: 320.5541024455065 kcal/mol)

>  <smiles>  (14) 
FC(F)(F)C1(c2cnc3ccc(-c4cccnc4)cc3n2)CC1

>  <score_type>  (14) 
oracle

>  <origin>  (14) 
adg

>  <m_score__min__energy>  (14) 
-5.5099999999999998

>  <m_primary>  (14) 
energy

$$$$
14:0
     RDKit          3D

 37 37  0  0  0  0  0  0  0  0999 V2000
   59.6710   33.7500   49.6220 C   0  0  0  0  0  0  0  0  0  0  0  0
   60.8210   34.1040   48.6860 C   0  0  0  0  0  0  0  0  0  0  0  0
   60.4680   33.7230   47.2930 N   0  0  0  0  0  0  0  0  0  0  0  0
   61.6390   33.7950   46.3910 C   0  0  0  0  0  0  0  0  0  0  0  0
   62.9180   33.4120   47.1330 C   0  0  0  0  0  0  0  0  0  0  0  0
   59.3540   34.5430   46.7650 C   0  0  0  0  0  0  0  0  0  0  0  0
   58.4480   33.7150   45.9010 C   0  0  0  0  0  0  0  0  0  0  0  0
   57.4060   34.2420   45.4250 O   0  0  0  0  0  0  0  0  0  0  0  0
   58.8010   32.3620   45.5680 N   0  0  0  0  0  0  0  0  0  0  0  0
   57.9500   31.4680   44.8320 C   0  0  0  0  0  0  0  0  0  0  0  0
   57.7300   31.6990   43.4680 C   0  0  0  0  0  0  0  0  0  0  0  0
   56.9200   30.8360   42.7270 C   0  0  0  0  0  0  0  0  0  0  0  0
   56.3350   29.7250   43.3380 C   0  0  0  0  0  0  0  0  0  0  0  0
   56.5620   29.4600   44.6940 C   0  0  0  0  0  0  0  0  0  0  0  0
   55.9650   28.3230   45.2590 O   0  0  0  0  0  0  0  0  0  0  0  0
   56.6850   27.2040   45.7660 C   0  0  0  0  0  0  0  0  0  0  0  0
   57.3800   30.3340   45.4390 C   0  0  0  0  0  0  0  0  0  0  0  0
   60.0030   33.8522   50.6657 H   0  0  0  0  0  0  0  0  0  0  0  0
   58.8259   34.4296   49.4378 H   0  0  0  0  0  0  0  0  0  0  0  0
   59.3543   32.7128   49.4378 H   0  0  0  0  0  0  0  0  0  0  0  0
   61.0102   35.1866   48.7323 H   0  0  0  0  0  0  0  0  0  0  0  0
   61.7243   33.5578   48.9955 H   0  0  0  0  0  0  0  0  0  0  0  0
   61.4892   33.1030   45.5492 H   0  0  0  0  0  0  0  0  0  0  0  0
   61.7392   34.8272   46.0241 H   0  0  0  0  0  0  0  0  0  0  0  0
   62.7424   33.4646   48.2176 H   0  0  0  0  0  0  0  0  0  0  0  0
   63.2087   32.3874   46.8579 H   0  0  0  0  0  0  0  0  0  0  0  0
   63.7240   34.1082   46.8579 H   0  0  0  0  0  0  0  0  0  0  0  0
   58.7758   34.9514   47.6070 H   0  0  0  0  0  0  0  0  0  0  0  0
   59.7728   35.3590   46.1577 H   0  0  0  0  0  0  0  0  0  0  0  0
   59.7740   32.0440   45.7810 H   0  0  0  0  0  0  0  0  0  0  0  0
   58.1981   32.5653   42.9777 H   0  0  0  0  0  0  0  0  0  0  0  0
   56.7423   31.0319   41.6593 H   0  0  0  0  0  0  0  0  0  0  0  0
   55.6917   29.0537   42.7502 H   0  0  0  0  0  0  0  0  0  0  0  0
   56.6706   27.2264   46.8657 H   0  0  0  0  0  0  0  0  0  0  0  0
   56.2150   26.2746   45.4120 H   0  0  0  0  0  0  0  0  0  0  0  0
   57.7256   27.2466   45.4120 H   0  0  0  0  0  0  0  0  0  0  0  0
   57.5738   30.1278   46.5020 H   0  0  0  0  0  0  0  0  0  0  0  0
  1  2  1  0
  2  3  1  0
  3  4  1  0
  4  5  1  0
  3  6  1  0
  6  7  1  0
  7  8  2  0
  7  9  1  0
  9 10  1  0
 10 11  2  0
 11 12  1  0
 12 13  2  0
 13 14  1  0
 14 15  1  0
 15 16  1  0
 14 17  2  0
 17 10  1  0
  1 18  1  0
  1 19  1  0
  1 20  1  0
  2 21  1  0
  2 22  1  0
  4 23  1  0
  4 24  1  0
  5 25  1  0
  5 26  1  0
  5 27  1  0
  6 28  1  0
  6 29  1  0
  9 30  1  0
 11 31  1  0
 12 32  1  0
 13 33  1  0
 16 34  1  0
 16 35  1  0
 16 36  1  0
 17 37  1  0
M  END
>  <UniqueID>  (15) 
15

>  <SMILES>  (15) 
CCN(CC)CC(=O)Nc1cccc(OC)c1

>  <Energy>  (15) 
35.58201893269344

>  <Genealogy>  (15) 
CCN(CC)CC(=O)Nc1cccc(OC)c1 (3D coordinates assigned)
CCN(CC)CC(=O)Nc1cccc(OC)c1 (optimized conformer: 35.58201893269344 kcal/mol)

>  <smiles>  (15) 
CCN(CC)CC(=O)Nc1cccc(OC)c1

>  <score_type>  (15) 
oracle

>  <origin>  (15) 
adg

>  <m_score__min__energy>  (15) 
-6.3300000000000001

>  <m_primary>  (15) 
energy

$$$$
15:0
     RDKit          3D

 38 40  0  0  0  0  0  0  0  0999 V2000
   59.2080   29.1540   49.3350 C   0  0  0  0  0  0  0  0  0  0  0  0
   58.6160   29.7190   48.1710 O   0  0  0  0  0  0  0  0  0  0  0  0
   58.5190   29.0720   46.9270 C   0  0  0  0  0  0  0  0  0  0  0  0
   58.1110   27.7250   46.8310 C   0  0  0  0  0  0  0  0  0  0  0  0
   58.0150   27.1000   45.5870 C   0  0  0  0  0  0  0  0  0  0  0  0
   58.3200   27.8050   44.4240 C   0  0  0  0  0  0  0  0  0  0  0  0
   58.7250   29.1370   44.5000 C   0  0  0  0  0  0  0  0  0  0  0  0
   58.8350   29.7870   45.7460 C   0  0  0  0  0  0  0  0  0  0  0  0
   59.2740   31.2470   45.8010 C   0  0  2  0  0  0  0  0  0  0  0  0
   59.7390   31.6340   47.1650 N   0  0  1  0  0  0  0  0  0  0  0  0
   61.0630   32.2310   47.1240 C   0  0  0  0  0  0  0  0  0  0  0  0
   62.1600   31.5580   47.6970 C   0  0  0  0  0  0  0  0  0  0  0  0
   63.4450   32.1060   47.6340 C   0  0  0  0  0  0  0  0  0  0  0  0
   63.6550   33.3270   46.9910 C   0  0  0  0  0  0  0  0  0  0  0  0
   62.5820   34.0010   46.4050 C   0  0  0  0  0  0  0  0  0  0  0  0
   61.2950   33.4580   46.4640 C   0  0  0  0  0  0  0  0  0  0  0  0
   58.7890   32.5580   47.7520 C   0  0  0  0  0  0  0  0  0  0  0  0
   58.8860   32.8940   48.9240 O   0  0  0  0  0  0  0  0  0  0  0  0
   57.6740   33.0870   46.9140 C   0  0  0  0  0  0  0  0  0  0  0  0
   57.9320   32.3320   45.3520 S   0  0  0  0  0  0  0  0  0  0  0  0
   58.3680   33.3410   44.3270 O   0  0  0  0  0  0  0  0  0  0  0  0
   56.7070   31.5980   44.8790 O   0  0  0  0  0  0  0  0  0  0  0  0
   58.7468   29.5942   50.2314 H   0  0  0  0  0  0  0  0  0  0  0  0
   59.0473   28.0658   49.3367 H   0  0  0  0  0  0  0  0  0  0  0  0
   60.2875   29.3653   49.3367 H   0  0  0  0  0  0  0  0  0  0  0  0
   57.8665   27.1627   47.7443 H   0  0  0  0  0  0  0  0  0  0  0  0
   57.6979   26.0486   45.5241 H   0  0  0  0  0  0  0  0  0  0  0  0
   58.2411   27.3099   43.4449 H   0  0  0  0  0  0  0  0  0  0  0  0
   58.9614   29.6869   43.5771 H   0  0  0  0  0  0  0  0  0  0  0  0
   60.1047   31.3487   45.0871 H   0  0  0  0  0  0  0  0  0  0  0  0
   59.7630   30.7950   47.7940 H   0  0  0  0  0  0  0  0  0  0  0  0
   62.0042   30.5917   48.1990 H   0  0  0  0  0  0  0  0  0  0  0  0
   64.2918   31.5739   48.0920 H   0  0  0  0  0  0  0  0  0  0  0  0
   64.6660   33.7582   46.9460 H   0  0  0  0  0  0  0  0  0  0  0  0
   62.7495   34.9615   45.8957 H   0  0  0  0  0  0  0  0  0  0  0  0
   60.4561   33.9908   45.9925 H   0  0  0  0  0  0  0  0  0  0  0  0
   56.6983   32.7989   47.3324 H   0  0  0  0  0  0  0  0  0  0  0  0
   57.6661   34.1856   46.8599 H   0  0  0  0  0  0  0  0  0  0  0  0
  1  2  1  0
  2  3  1  0
  3  4  2  0
  4  5  1  0
  5  6  2  0
  6  7  1  0
  7  8  2  0
  8  9  1  0
  9 10  1  0
 10 11  1  0
 11 12  2  0
 12 13  1  0
 13 14  2  0
 14 15  1  0
 15 16  2  0
 10 17  1  0
 17 18  2  0
 17 19  1  0
 19 20  1  0
 20 21  2  0
 20 22  2  0
  8  3  1  0
 20  9  1  0
 16 11  1  0
  1 23  1  0
  1 24  1  0
  1 25  1  0
  4 26  1  0
  5 27  1  0
  6 28  1  0
  7 29  1  0
  9 30  1  6
 10 31  1  1
 12 32  1  0
 13 33  1  0
 14 34  1  0
 15 35  1  0
 16 36  1  0
 19 37  1  0
 19 38  1  0
M  CHG  1  10   1
M  END
>  <UniqueID>  (16) 
16

>  <SMILES>  (16) 
COc1ccccc1[C@@H]1[N@@H+](c2ccccc2)C(=O)CS1(=O)=O

>  <Energy>  (16) 
46.32401756332574

>  <Genealogy>  (16) 
COc1ccccc1C1[NH+](c2ccccc2)C(=O)CS1(=O)=O (protonated)
COc1ccccc1[C@@H]1[N@@H+](c2ccccc2)C(=O)CS1(=O)=O (chirality)
COc1ccccc1[C@@H]1[N@@H+](c2ccccc2)C(=O)CS1(=O)=O (3D coordinates assigned)
COc1ccccc1[C@@H]1[N@@H+](c2ccccc2)C(=O)CS1(=O)=O (nonaromatic ring conformer: 46.32401756332574 kcal/mol)

>  <smiles>  (16) 
COc1ccccc1C1N(c2ccccc2)C(=O)CS1(=O)=O

>  <score_type>  (16) 
oracle

>  <origin>  (16) 
adg

>  <m_score__min__energy>  (16) 
-5.6299999999999999

>  <m_primary>  (16) 
energy

$$$$
16:0
     RDKit          3D

 33 34  0  0  0  0  0  0  0  0999 V2000
   63.3680   33.8660   46.4220 C   0  0  0  0  0  0  0  0  0  0  0  0
   63.7460   32.5640   47.1250 C   0  0  0  0  0  0  0  0  0  0  0  0
   64.0340   32.7600   48.6230 C   0  0  0  0  0  0  0  0  0  0  0  0
   62.8600   32.4410   49.4560 N   0  0  0  0  0  0  0  0  0  0  0  0
   62.0000   33.6190   49.6670 C   0  0  0  0  0  0  0  0  0  0  0  0
   60.8200   33.6200   48.7380 C   0  0  0  0  0  0  0  0  0  0  0  0
   59.8400   34.5840   48.6740 C   0  0  0  0  0  0  0  0  0  0  0  0
   58.9660   34.1930   47.7820 O   0  0  0  0  0  0  0  0  0  0  0  0
   59.3760   33.0340   47.3130 C   0  0  0  0  0  0  0  0  0  0  0  0
   58.6500   32.2640   46.2820 C   0  0  0  0  0  0  0  0  0  0  0  0
   58.5220   30.8710   46.4020 C   0  0  0  0  0  0  0  0  0  0  0  0
   57.8370   30.1380   45.4270 C   0  0  0  0  0  0  0  0  0  0  0  0
   57.2730   30.7900   44.3260 C   0  0  0  0  0  0  0  0  0  0  0  0
   56.3380   29.7870   42.9970 Br  0  0  0  0  0  0  0  0  0  0  0  0
   57.3970   32.1770   44.2000 C   0  0  0  0  0  0  0  0  0  0  0  0
   58.0810   32.9130   45.1720 C   0  0  0  0  0  0  0  0  0  0  0  0
   60.5320   32.6230   47.8810 N   0  0  0  0  0  0  0  0  0  0  0  0
   63.1441   34.6371   47.1739 H   0  0  0  0  0  0  0  0  0  0  0  0
   64.2063   34.1998   45.7929 H   0  0  0  0  0  0  0  0  0  0  0  0
   62.4813   33.6990   45.7929 H   0  0  0  0  0  0  0  0  0  0  0  0
   62.9149   31.8515   47.0167 H   0  0  0  0  0  0  0  0  0  0  0  0
   64.6675   32.1886   46.6559 H   0  0  0  0  0  0  0  0  0  0  0  0
   64.8658   32.1017   48.9141 H   0  0  0  0  0  0  0  0  0  0  0  0
   64.2892   33.8176   48.7851 H   0  0  0  0  0  0  0  0  0  0  0  0
   63.1850   32.1100   50.3940 H   0  0  0  0  0  0  0  0  0  0  0  0
   62.2970   31.6800   49.0120 H   0  0  0  0  0  0  0  0  0  0  0  0
   61.6362   33.6132   50.7051 H   0  0  0  0  0  0  0  0  0  0  0  0
   62.5972   34.5200   49.4631 H   0  0  0  0  0  0  0  0  0  0  0  0
   59.7989   35.5117   49.2636 H   0  0  0  0  0  0  0  0  0  0  0  0
   58.9625   30.3534   47.2669 H   0  0  0  0  0  0  0  0  0  0  0  0
   57.7419   29.0467   45.5266 H   0  0  0  0  0  0  0  0  0  0  0  0
   56.9550   32.6906   43.3335 H   0  0  0  0  0  0  0  0  0  0  0  0
   58.1744   34.0041   45.0680 H   0  0  0  0  0  0  0  0  0  0  0  0
  1  2  1  0
  2  3  1  0
  3  4  1  0
  4  5  1  0
  5  6  1  0
  6  7  2  0
  7  8  1  0
  8  9  1  0
  9 10  1  0
 10 11  2  0
 11 12  1  0
 12 13  2  0
 13 14  1  0
 13 15  1  0
 15 16  2  0
  9 17  2  0
 17  6  1  0
 16 10  1  0
  1 18  1  0
  1 19  1  0
  1 20  1  0
  2 21  1  0
  2 22  1  0
  3 23  1  0
  3 24  1  0
  4 25  1  0
  4 26  1  0
  5 27  1  0
  5 28  1  0
  7 29  1  0
 11 30  1  0
 12 31  1  0
 15 32  1  0
 16 33  1  0
M  CHG  1   4   1
M  END
>  <UniqueID>  (17) 
17

>  <SMILES>  (17) 
CCC[NH2+]Cc1coc(-c2ccc(Br)cc2)n1

>  <Energy>  (17) 
57.32651706087577

>  <Genealogy>  (17) 
CCC[NH2+]Cc1coc(-c2ccc(Br)cc2)n1 (protonated)
CCC[NH2+]Cc1coc(-c2ccc(Br)cc2)n1 (3D coordinates assigned)
CCC[NH2+]Cc1coc(-c2ccc(Br)cc2)n1 (optimized conformer: 57.32651706087577 kcal/mol)

>  <smiles>  (17) 
CCCNCc1coc(-c2ccc(Br)cc2)n1

>  <score_type>  (17) 
oracle

>  <origin>  (17) 
adg

>  <m_score__min__energy>  (17) 
-4.6600000000000001

>  <m_primary>  (17) 
energy

$$$$
17:0
     RDKit          3D

 32 34  0  0  0  0  0  0  0  0999 V2000
   54.3453   24.8268   45.8300 H   0  0  0  0  0  0  0  0  0  0  0  0
   55.2860   25.3750   45.6730 C   0  0  0  0  0  0  0  0  0  0  0  0
   55.4240   26.6900   45.9900 N   0  0  0  0  0  0  0  0  0  0  0  0
   56.6640   27.1390   45.7080 C   0  0  0  0  0  0  0  0  0  0  0  0
   57.0240   28.3670   45.9270 N   0  0  0  0  0  0  0  0  0  0  0  0
   58.3160   28.9250   45.5390 C   0  0  0  0  0  0  0  0  0  0  0  0
   58.5875   28.5591   44.5378 H   0  0  0  0  0  0  0  0  0  0  0  0
   59.0822   28.6132   46.2641 H   0  0  0  0  0  0  0  0  0  0  0  0
   58.2280   30.4380   45.5170 C   0  0  0  0  0  0  0  0  0  0  0  0
   57.1180   31.0560   44.8920 C   0  0  0  0  0  0  0  0  0  0  0  0
   56.1330   30.2520   44.2930 O   0  0  0  0  0  0  0  0  0  0  0  0
   56.2010   29.7320   42.9690 C   0  0  0  0  0  0  0  0  0  0  0  0
   56.3435   28.6420   43.0100 H   0  0  0  0  0  0  0  0  0  0  0  0
   55.2654   29.9597   42.4371 H   0  0  0  0  0  0  0  0  0  0  0  0
   57.0466   30.1926   42.4371 H   0  0  0  0  0  0  0  0  0  0  0  0
   57.0190   32.4590   44.8780 C   0  0  0  0  0  0  0  0  0  0  0  0
   56.1498   32.9373   44.4030 H   0  0  0  0  0  0  0  0  0  0  0  0
   58.0060   33.2490   45.4570 C   0  0  0  0  0  0  0  0  0  0  0  0
   57.9048   34.3443   45.4468 H   0  0  0  0  0  0  0  0  0  0  0  0
   59.1260   32.6610   46.0520 C   0  0  0  0  0  0  0  0  0  0  0  0
   60.1230   33.4740   46.6150 C   0  0  0  0  0  0  0  0  0  0  0  0
   60.0119   34.5682   46.5968 H   0  0  0  0  0  0  0  0  0  0  0  0
   61.2530   32.9010   47.1970 C   0  0  0  0  0  0  0  0  0  0  0  0
   62.0289   33.5436   47.6387 H   0  0  0  0  0  0  0  0  0  0  0  0
   61.4010   31.5160   47.2200 C   0  0  0  0  0  0  0  0  0  0  0  0
   62.2971   31.0689   47.6751 H   0  0  0  0  0  0  0  0  0  0  0  0
   60.4170   30.6920   46.6680 C   0  0  0  0  0  0  0  0  0  0  0  0
   60.5468   29.5999   46.6895 H   0  0  0  0  0  0  0  0  0  0  0  0
   59.2560   31.2470   46.0820 C   0  0  0  0  0  0  0  0  0  0  0  0
   57.6390   25.9280   45.0550 S   0  0  0  0  0  0  0  0  0  0  0  0
   56.4190   24.7720   45.1360 C   0  0  0  0  0  0  0  0  0  0  0  0
   56.5027   23.7219   44.8194 H   0  0  0  0  0  0  0  0  0  0  0  0
  1  2  1  0
  2  3  1  0
  3  4  1  0
  4  5  2  0
  5  6  1  0
  6  7  1  0
  6  8  1  0
  6  9  1  0
  9 10  2  0
 10 11  1  0
 11 12  1  0
 12 13  1  0
 12 14  1  0
 12 15  1  0
 10 16  1  0
 16 17  1  0
 16 18  2  0
 18 19  1  0
 18 20  1  0
 20 21  2  0
 21 22  1  0
 21 23  1  0
 23 24  1  0
 23 25  2  0
 25 26  1  0
 25 27  1  0
 27 28  1  0
 27 29  2  0
  4 30  1  0
 30 31  1  0
 31 32  1  0
 31  2  2  0
 29  9  1  0
 29 20  1  0
M  CHG  1   3  -1
M  END
>  <UniqueID>  (18) 
18

>  <SMILES>  (18) 
COc1ccc2ccccc2c1C/N=c1/[n-]ccs1

>  <Energy>  (18) 
70.02798576516858

>  <Genealogy>  (18) 
COc1ccc2ccccc2c1CN=c1[n-]ccs1 (protonated)
COc1ccc2ccccc2c1C/N=c1/[n-]ccs1 (cis-trans isomerization)
COc1ccc2ccccc2c1C/N=c1/[n-]ccs1 (3D coordinates assigned)
COc1ccc2ccccc2c1C/N=c1/[n-]ccs1 (optimized conformer: 70.02798576516858 kcal/mol)

>  <smiles>  (18) 
COc1ccc2ccccc2c1CN=c1[nH]ccs1

>  <score_type>  (18) 
oracle

>  <origin>  (18) 
adg

>  <m_score__min__energy>  (18) 
-8.5800000000000001

>  <m_primary>  (18) 
energy

$$$$
18:0
     RDKit          3D

 42 44  0  0  0  0  0  0  0  0999 V2000
   59.6450   35.5400   45.6580 C   0  0  0  0  0  0  0  0  0  0  0  0
   59.1380   34.1480   45.9150 C   0  0  0  0  0  0  0  0  0  0  0  0
   58.3700   33.5060   44.9330 C   0  0  0  0  0  0  0  0  0  0  0  0
   57.8630   32.2180   45.1440 C   0  0  0  0  0  0  0  0  0  0  0  0
   57.0650   31.6040   44.1150 N   0  0  0  0  0  0  0  0  0  0  0  0
   56.6410   29.9210   44.0990 S   0  0  0  0  0  0  0  0  0  0  0  0
   56.4160   29.4830   42.6790 O   0  0  0  0  0  0  0  0  0  0  0  0
   55.3720   29.7220   44.8780 O   0  0  0  0  0  0  0  0  0  0  0  0
   57.9200   28.9730   44.8500 C   0  0  0  0  0  0  0  0  0  0  0  0
   57.5990   28.0250   45.8320 C   0  0  0  0  0  0  0  0  0  0  0  0
   58.6110   27.2820   46.4500 C   0  0  0  0  0  0  0  0  0  0  0  0
   59.9470   27.4820   46.0860 C   0  0  0  0  0  0  0  0  0  0  0  0
   60.2710   28.4240   45.1050 C   0  0  0  0  0  0  0  0  0  0  0  0
   59.2600   29.1680   44.4860 C   0  0  0  0  0  0  0  0  0  0  0  0
   58.1490   31.5590   46.3500 C   0  0  0  0  0  0  0  0  0  0  0  0
   58.9220   32.1800   47.3470 C   0  0  0  0  0  0  0  0  0  0  0  0
   59.2430   31.4620   48.6400 C   0  0  0  0  0  0  0  0  0  0  0  0
   60.5970   31.1830   48.6930 F   0  0  0  0  0  0  0  0  0  0  0  0
   58.5350   30.2760   48.6940 F   0  0  0  0  0  0  0  0  0  0  0  0
   58.9140   32.2230   49.7490 F   0  0  0  0  0  0  0  0  0  0  0  0
   59.4420   33.4690   47.1140 C   0  0  0  0  0  0  0  0  0  0  0  0
   60.2470   34.0730   48.0900 O   0  0  0  0  0  0  0  0  0  0  0  0
   61.5980   33.7640   48.2980 C   0  0  0  0  0  0  0  0  0  0  0  0
   62.2020   33.8480   49.5630 C   0  0  0  0  0  0  0  0  0  0  0  0
   63.5510   33.5300   49.6960 C   0  0  0  0  0  0  0  0  0  0  0  0
   64.2710   33.1400   48.5680 C   0  0  0  0  0  0  0  0  0  0  0  0
   63.6480   33.0830   47.3630 N   0  0  0  0  0  0  0  0  0  0  0  0
   62.3550   33.3860   47.2330 N   0  0  0  0  0  0  0  0  0  0  0  0
   59.8293   36.0460   46.6172 H   0  0  0  0  0  0  0  0  0  0  0  0
   60.5822   35.4888   45.0844 H   0  0  0  0  0  0  0  0  0  0  0  0
   58.8944   36.1036   45.0844 H   0  0  0  0  0  0  0  0  0  0  0  0
   58.1629   34.0215   43.9836 H   0  0  0  0  0  0  0  0  0  0  0  0
   56.6210   32.2100   43.3880 H   0  0  0  0  0  0  0  0  0  0  0  0
   56.5488   27.8649   46.1174 H   0  0  0  0  0  0  0  0  0  0  0  0
   58.3562   26.5408   47.2218 H   0  0  0  0  0  0  0  0  0  0  0  0
   60.7426   26.8980   46.5717 H   0  0  0  0  0  0  0  0  0  0  0  0
   61.3217   28.5806   44.8194 H   0  0  0  0  0  0  0  0  0  0  0  0
   59.5170   29.9069   43.7127 H   0  0  0  0  0  0  0  0  0  0  0  0
   57.7630   30.5426   46.5174 H   0  0  0  0  0  0  0  0  0  0  0  0
   61.6157   34.1616   50.4393 H   0  0  0  0  0  0  0  0  0  0  0  0
   64.0422   33.5858   50.6786 H   0  0  0  0  0  0  0  0  0  0  0  0
   65.3365   32.8802   48.6535 H   0  0  0  0  0  0  0  0  0  0  0  0
  1  2  1  0
  2  3  2  0
  3  4  1  0
  4  5  1  0
  5  6  1  0
  6  7  2  0
  6  8  2  0
  6  9  1  0
  9 10  2  0
 10 11  1  0
 11 12  2  0
 12 13  1  0
 13 14  2  0
  4 15  2  0
 15 16  1  0
 16 17  1  0
 17 18  1  0
 17 19  1  0
 17 20  1  0
 16 21  2  0
 21 22  1  0
 22 23  1  0
 23 24  2  0
 24 25  1  0
 25 26  2  0
 26 27  1  0
 27 28  2  0
 21  2  1  0
 28 23  1  0
 14  9  1  0
  1 29  1  0
  1 30  1  0
  1 31  1  0
  3 32  1  0
  5 33  1  0
 10 34  1  0
 11 35  1  0
 12 36  1  0
 13 37  1  0
 14 38  1  0
 15 39  1  0
 24 40  1  0
 25 41  1  0
 26 42  1  0
M  END
>  <UniqueID>  (19) 
19

>  <SMILES>  (19) 
Cc1cc(NS(=O)(=O)c2ccccc2)cc(C(F)(F)F)c1Oc1cccnn1

>  <Energy>  (19) 
57.716517357071226

>  <Genealogy>  (19) 
Cc1cc(NS(=O)(=O)c2ccccc2)cc(C(F)(F)F)c1Oc1cccnn1 (3D coordinates assigned)
Cc1cc(NS(=O)(=O)c2ccccc2)cc(C(F)(F)F)c1Oc1cccnn1 (optimized conformer: 57.716517357071226 kcal/mol)

>  <smiles>  (19) 
Cc1cc(NS(=O)(=O)c2ccccc2)cc(C(F)(F)F)c1Oc1cccnn1

>  <score_type>  (19) 
oracle

>  <origin>  (19) 
adg

>  <m_score__min__energy>  (19) 
-8.5199999999999996

>  <m_primary>  (19) 
energy

$$$$
19:0
     RDKit          3D

 50 52  0  0  0  0  0  0  0  0999 V2000
   59.0070   29.9920   44.8500 C   0  0  0  0  0  0  0  0  0  0  0  0
   57.6390   29.8830   45.5160 C   0  0  0  0  0  0  0  0  0  0  0  0
   56.6290   30.6980   44.7940 N   0  0  0  0  0  0  0  0  0  0  0  0
   55.7120   29.8200   44.0290 C   0  0  0  0  0  0  0  0  0  0  0  0
   56.2740   29.5600   42.6330 C   0  0  0  0  0  0  0  0  0  0  0  0
   57.3050   31.6780   43.9070 C   0  0  0  0  0  0  0  0  0  0  0  0
   57.3980   33.0960   44.5200 C   0  0  0  0  0  0  0  0  0  0  0  0
   57.0560   33.1540   45.9520 N   0  0  0  0  0  0  0  0  0  0  0  0
   58.2240   33.1430   46.8010 C   0  0  0  0  0  0  0  0  0  0  0  0
   58.1190   32.7760   48.1560 C   0  0  0  0  0  0  0  0  0  0  0  0
   59.2480   32.7720   48.9810 C   0  0  0  0  0  0  0  0  0  0  0  0
   60.4960   33.1260   48.4620 C   0  0  0  0  0  0  0  0  0  0  0  0
   61.5920   33.1330   49.2660 N   0  0  0  0  0  0  0  0  0  0  0  0
   62.8310   33.4720   48.8080 C   0  0  0  0  0  0  0  0  0  0  0  0
   63.9820   33.4530   49.7470 C   0  0  0  0  0  0  0  0  0  0  0  0
   63.9420   34.1440   50.9750 C   0  0  0  0  0  0  0  0  0  0  0  0
   65.0340   34.1050   51.8470 C   0  0  0  0  0  0  0  0  0  0  0  0
   66.1750   33.3740   51.5100 C   0  0  0  0  0  0  0  0  0  0  0  0
   67.2330   33.3370   52.3580 F   0  0  0  0  0  0  0  0  0  0  0  0
   66.2240   32.6750   50.3020 C   0  0  0  0  0  0  0  0  0  0  0  0
   65.1340   32.7100   49.4260 C   0  0  0  0  0  0  0  0  0  0  0  0
   62.9890   33.8140   47.4520 C   0  0  0  0  0  0  0  0  0  0  0  0
   61.8810   33.8150   46.6030 C   0  0  0  0  0  0  0  0  0  0  0  0
   60.6190   33.4720   47.1020 C   0  0  0  0  0  0  0  0  0  0  0  0
   59.4860   33.4690   46.2750 C   0  0  0  0  0  0  0  0  0  0  0  0
   59.7872   30.0542   45.6229 H   0  0  0  0  0  0  0  0  0  0  0  0
   59.1815   29.1049   44.2234 H   0  0  0  0  0  0  0  0  0  0  0  0
   59.0388   30.8955   44.2234 H   0  0  0  0  0  0  0  0  0  0  0  0
   57.3204   28.8302   45.5131 H   0  0  0  0  0  0  0  0  0  0  0  0
   57.7202   30.2583   46.5468 H   0  0  0  0  0  0  0  0  0  0  0  0
   55.5986   28.8629   44.5592 H   0  0  0  0  0  0  0  0  0  0  0  0
   54.7344   30.3157   43.9360 H   0  0  0  0  0  0  0  0  0  0  0  0
   57.2693   29.0995   42.7183 H   0  0  0  0  0  0  0  0  0  0  0  0
   55.6016   28.8815   42.0876 H   0  0  0  0  0  0  0  0  0  0  0  0
   56.3558   30.5117   42.0876 H   0  0  0  0  0  0  0  0  0  0  0  0
   58.3243   31.3186   43.7023 H   0  0  0  0  0  0  0  0  0  0  0  0
   56.7019   31.7581   42.9906 H   0  0  0  0  0  0  0  0  0  0  0  0
   58.4287   33.4596   44.3956 H   0  0  0  0  0  0  0  0  0  0  0  0
   56.6619   33.7197   43.9917 H   0  0  0  0  0  0  0  0  0  0  0  0
   56.4080   32.3660   46.1880 H   0  0  0  0  0  0  0  0  0  0  0  0
   56.5300   34.0410   46.1310 H   0  0  0  0  0  0  0  0  0  0  0  0
   57.1405   32.4900   48.5693 H   0  0  0  0  0  0  0  0  0  0  0  0
   59.1535   32.4898   50.0400 H   0  0  0  0  0  0  0  0  0  0  0  0
   63.0448   34.7183   51.2492 H   0  0  0  0  0  0  0  0  0  0  0  0
   64.9943   34.6514   52.8008 H   0  0  0  0  0  0  0  0  0  0  0  0
   67.1214   32.0958   50.0389 H   0  0  0  0  0  0  0  0  0  0  0  0
   65.1773   32.1525   48.4787 H   0  0  0  0  0  0  0  0  0  0  0  0
   63.9827   34.0797   47.0623 H   0  0  0  0  0  0  0  0  0  0  0  0
   61.9994   34.0850   45.5432 H   0  0  0  0  0  0  0  0  0  0  0  0
   59.5857   33.7231   45.2094 H   0  0  0  0  0  0  0  0  0  0  0  0
  1  2  1  0
  2  3  1  0
  3  4  1  0
  4  5  1  0
  3  6  1  0
  6  7  1  0
  7  8  1  0
  8  9  1  0
  9 10  2  0
 10 11  1  0
 11 12  2  0
 12 13  1  0
 13 14  2  0
 14 15  1  0
 15 16  2  0
 16 17  1  0
 17 18  2  0
 18 19  1  0
 18 20  1  0
 20 21  2  0
 14 22  1  0
 22 23  2  0
 23 24  1  0
 24 25  2  0
 25  9  1  0
 24 12  1  0
 21 15  1  0
  1 26  1  0
  1 27  1  0
  1 28  1  0
  2 29  1  0
  2 30  1  0
  4 31  1  0
  4 32  1  0
  5 33  1  0
  5 34  1  0
  5 35  1  0
  6 36  1  0
  6 37  1  0
  7 38  1  0
  7 39  1  0
  8 40  1  0
  8 41  1  0
 10 42  1  0
 11 43  1  0
 16 44  1  0
 17 45  1  0
 20 46  1  0
 21 47  1  0
 22 48  1  0
 23 49  1  0
 25 50  1  0
M  CHG  1   8   1
M  END
>  <UniqueID>  (20) 
20

>  <SMILES>  (20) 
CCN(CC)CC[NH2+]c1ccc2nc(-c3ccc(F)cc3)ccc2c1

>  <Energy>  (20) 
57.441720317186395

>  <Genealogy>  (20) 
CCN(CC)CC[NH2+]c1ccc2nc(-c3ccc(F)cc3)ccc2c1 (protonated)
CCN(CC)CC[NH2+]c1ccc2nc(-c3ccc(F)cc3)ccc2c1 (3D coordinates assigned)
CCN(CC)CC[NH2+]c1ccc2nc(-c3ccc(F)cc3)ccc2c1 (optimized conformer: 57.441720317186395 kcal/mol)

>  <smiles>  (20) 
CCN(CC)CCNc1ccc2nc(-c3ccc(F)cc3)ccc2c1

>  <score_type>  (20) 
oracle

>  <origin>  (20) 
adg

>  <m_score__min__energy>  (20) 
-6.0599999999999996

>  <m_primary>  (20) 
energy

$$$$
20:0
     RDKit          3D

 43 45  0  0  0  0  0  0  0  0999 V2000
   56.9150   20.7840   42.9610 C   0  0  0  0  0  0  0  0  0  0  0  0
   56.2160   22.0130   43.1370 O   0  0  0  0  0  0  0  0  0  0  0  0
   56.4420   22.9080   44.1930 C   0  0  0  0  0  0  0  0  0  0  0  0
   56.1440   22.5880   45.5320 C   0  0  0  0  0  0  0  0  0  0  0  0
   56.3850   23.5160   46.5480 C   0  0  0  0  0  0  0  0  0  0  0  0
   56.9200   24.7690   46.2410 C   0  0  0  0  0  0  0  0  0  0  0  0
   57.2200   25.1040   44.9120 C   0  0  0  0  0  0  0  0  0  0  0  0
   57.7640   26.3960   44.5960 N   0  0  0  0  0  0  0  0  0  0  0  0
   57.8980   26.8300   43.2040 C   0  0  0  0  0  0  0  0  0  0  0  0
   57.3940   28.2700   43.0890 C   0  0  0  0  0  0  0  0  0  0  0  0
   58.1340   29.2090   43.9810 N   0  0  0  0  0  0  0  0  0  0  0  0
   57.2560   30.2540   44.4730 C   0  0  0  0  0  0  0  0  0  0  0  0
   56.0930   29.9610   44.8700 O   0  0  0  0  0  0  0  0  0  0  0  0
   57.7240   31.6440   44.6500 C   0  0  0  0  0  0  0  0  0  0  0  0
   57.8620   32.3890   46.1520 S   0  0  0  0  0  0  0  0  0  0  0  0
   58.4090   33.8730   45.5910 C   0  0  0  0  0  0  0  0  0  0  0  0
   58.4750   33.8150   44.2050 C   0  0  0  0  0  0  0  0  0  0  0  0
   58.0780   32.5790   43.6680 C   0  0  0  0  0  0  0  0  0  0  0  0
   58.0160   32.3410   42.1900 C   0  0  0  0  0  0  0  0  0  0  0  0
   58.8430   28.5630   45.1200 C   0  0  0  0  0  0  0  0  0  0  0  0
   58.1060   27.3300   45.6740 C   0  0  0  0  0  0  0  0  0  0  0  0
   56.9810   24.1650   43.8950 C   0  0  0  0  0  0  0  0  0  0  0  0
   57.1582   20.3564   43.9449 H   0  0  0  0  0  0  0  0  0  0  0  0
   56.2825   20.0794   42.4011 H   0  0  0  0  0  0  0  0  0  0  0  0
   57.8439   20.9674   42.4011 H   0  0  0  0  0  0  0  0  0  0  0  0
   55.7198   21.6035   45.7786 H   0  0  0  0  0  0  0  0  0  0  0  0
   56.1529   23.2593   47.5921 H   0  0  0  0  0  0  0  0  0  0  0  0
   57.1070   25.4964   47.0447 H   0  0  0  0  0  0  0  0  0  0  0  0
   58.9545   26.7822   42.9013 H   0  0  0  0  0  0  0  0  0  0  0  0
   57.3084   26.1728   42.5479 H   0  0  0  0  0  0  0  0  0  0  0  0
   57.5152   28.6037   42.0479 H   0  0  0  0  0  0  0  0  0  0  0  0
   56.3382   28.2794   43.3974 H   0  0  0  0  0  0  0  0  0  0  0  0
   58.8830   29.6550   43.4030 H   0  0  0  0  0  0  0  0  0  0  0  0
   58.6701   34.7415   46.2135 H   0  0  0  0  0  0  0  0  0  0  0  0
   58.8078   34.6599   43.5842 H   0  0  0  0  0  0  0  0  0  0  0  0
   57.7429   31.2928   41.9985 H   0  0  0  0  0  0  0  0  0  0  0  0
   57.2606   33.0042   41.7432 H   0  0  0  0  0  0  0  0  0  0  0  0
   58.9989   32.5513   41.7432 H   0  0  0  0  0  0  0  0  0  0  0  0
   59.8404   28.2494   44.7781 H   0  0  0  0  0  0  0  0  0  0  0  0
   58.8976   29.3028   45.9322 H   0  0  0  0  0  0  0  0  0  0  0  0
   58.7548   26.8191   46.4007 H   0  0  0  0  0  0  0  0  0  0  0  0
   57.1761   27.6643   46.1573 H   0  0  0  0  0  0  0  0  0  0  0  0
   57.2202   24.4205   42.8522 H   0  0  0  0  0  0  0  0  0  0  0  0
  1  2  1  0
  2  3  1  0
  3  4  2  0
  4  5  1  0
  5  6  2  0
  6  7  1  0
  7  8  1  0
  8  9  1  0
  9 10  1  0
 10 11  1  0
 11 12  1  0
 12 13  2  0
 12 14  1  0
 14 15  1  0
 15 16  1  0
 16 17  2  0
 17 18  1  0
 18 19  1  0
 11 20  1  0
 20 21  1  0
  7 22  2  0
 22  3  1  0
 21  8  1  0
 18 14  2  0
  1 23  1  0
  1 24  1  0
  1 25  1  0
  4 26  1  0
  5 27  1  0
  6 28  1  0
  9 29  1  0
  9 30  1  0
 10 31  1  0
 10 32  1  0
 11 33  1  0
 16 34  1  0
 17 35  1  0
 19 36  1  0
 19 37  1  0
 19 38  1  0
 20 39  1  0
 20 40  1  0
 21 41  1  0
 21 42  1  0
 22 43  1  0
M  CHG  1  11   1
M  END
>  <UniqueID>  (21) 
21

>  <SMILES>  (21) 
COc1cccc(N2CC[NH+](C(=O)c3sccc3C)CC2)c1

>  <Energy>  (21) 
87.14934694046791

>  <Genealogy>  (21) 
COc1cccc(N2CC[NH+](C(=O)c3sccc3C)CC2)c1 (protonated)
COc1cccc(N2CC[NH+](C(=O)c3sccc3C)CC2)c1 (3D coordinates assigned)
COc1cccc(N2CC[NH+](C(=O)c3sccc3C)CC2)c1 (nonaromatic ring conformer: 87.14934694046791 kcal/mol)

>  <smiles>  (21) 
COc1cccc(N2CCN(C(=O)c3sccc3C)CC2)c1

>  <score_type>  (21) 
oracle

>  <origin>  (21) 
adg

>  <m_score__min__energy>  (21) 
-6.5700000000000003

>  <m_primary>  (21) 
energy

$$$$
21:0
     RDKit          3D

 42 44  0  0  0  0  0  0  0  0999 V2000
   63.8310   33.1530   48.5350 C   0  0  0  0  0  0  0  0  0  0  0  0
   62.4880   32.5560   48.4410 N   0  0  0  0  0  0  0  0  0  0  0  0
   62.2460   31.5590   47.5250 C   0  0  0  0  0  0  0  0  0  0  0  0
   63.1610   31.1290   46.7690 O   0  0  0  0  0  0  0  0  0  0  0  0
   60.9590   31.0410   47.4410 C   0  0  0  0  0  0  0  0  0  0  0  0
   59.9730   31.5280   48.2300 C   0  0  0  0  0  0  0  0  0  0  0  0
   58.7990   30.9260   47.9580 N   0  0  0  0  0  0  0  0  0  0  0  0
   59.1320   30.0550   46.9700 C   0  0  0  0  0  0  0  0  0  0  0  0
   57.9190   28.9810   46.1940 S   0  0  0  0  0  0  0  0  0  0  0  0
   58.1520   29.6700   44.5180 C   0  0  0  0  0  0  0  0  0  0  0  0
   56.8770   30.3570   44.0280 C   0  0  0  0  0  0  0  0  0  0  0  0
   56.5820   31.5020   44.8290 O   0  0  0  0  0  0  0  0  0  0  0  0
   57.4720   32.5490   45.1160 C   0  0  0  0  0  0  0  0  0  0  0  0
   57.4230   33.1270   46.3920 C   0  0  0  0  0  0  0  0  0  0  0  0
   58.2840   34.1750   46.7330 C   0  0  0  0  0  0  0  0  0  0  0  0
   59.2040   34.6560   45.7970 C   0  0  0  0  0  0  0  0  0  0  0  0
   60.0380   35.6720   46.1280 F   0  0  0  0  0  0  0  0  0  0  0  0
   59.2600   34.0920   44.5200 C   0  0  0  0  0  0  0  0  0  0  0  0
   58.4000   33.0440   44.1770 C   0  0  0  0  0  0  0  0  0  0  0  0
   60.4490   30.0920   46.6350 N   0  0  0  0  0  0  0  0  0  0  0  0
   61.1370   29.3360   45.5900 C   0  0  0  0  0  0  0  0  0  0  0  0
   60.1880   32.5210   49.1350 N   0  0  0  0  0  0  0  0  0  0  0  0
   59.0790   33.0620   49.9310 C   0  0  0  0  0  0  0  0  0  0  0  0
   61.4560   33.0560   49.2190 C   0  0  0  0  0  0  0  0  0  0  0  0
   61.6730   34.0180   50.0090 O   0  0  0  0  0  0  0  0  0  0  0  0
   64.1049   33.2747   49.5934 H   0  0  0  0  0  0  0  0  0  0  0  0
   64.5604   32.4944   48.0409 H   0  0  0  0  0  0  0  0  0  0  0  0
   63.8308   34.1358   48.0409 H   0  0  0  0  0  0  0  0  0  0  0  0
   58.9706   30.4044   44.5412 H   0  0  0  0  0  0  0  0  0  0  0  0
   58.3938   28.8464   43.8301 H   0  0  0  0  0  0  0  0  0  0  0  0
   57.0153   30.6728   42.9834 H   0  0  0  0  0  0  0  0  0  0  0  0
   56.0405   29.6467   44.1038 H   0  0  0  0  0  0  0  0  0  0  0  0
   56.7005   32.7528   47.1322 H   0  0  0  0  0  0  0  0  0  0  0  0
   58.2372   34.6207   47.7376 H   0  0  0  0  0  0  0  0  0  0  0  0
   59.9821   34.4731   43.7829 H   0  0  0  0  0  0  0  0  0  0  0  0
   58.4477   32.6038   43.1700 H   0  0  0  0  0  0  0  0  0  0  0  0
   61.8086   28.5981   46.0531 H   0  0  0  0  0  0  0  0  0  0  0  0
   60.3958   28.8160   44.9653 H   0  0  0  0  0  0  0  0  0  0  0  0
   61.7243   30.0250   44.9653 H   0  0  0  0  0  0  0  0  0  0  0  0
   59.3074   32.9506   51.0013 H   0  0  0  0  0  0  0  0  0  0  0  0
   58.9432   34.1276   49.6940 H   0  0  0  0  0  0  0  0  0  0  0  0
   58.1557   32.5131   49.6940 H   0  0  0  0  0  0  0  0  0  0  0  0
  1  2  1  0
  2  3  1  0
  3  4  2  0
  3  5  1  0
  5  6  2  0
  6  7  1  0
  7  8  2  0
  8  9  1  0
  9 10  1  0
 10 11  1  0
 11 12  1  0
 12 13  1  0
 13 14  2  0
 14 15  1  0
 15 16  2  0
 16 17  1  0
 16 18  1  0
 18 19  2  0
  8 20  1  0
 20 21  1  0
  6 22  1  0
 22 23  1  0
 22 24  1  0
 24 25  2  0
 24  2  1  0
 20  5  1  0
 19 13  1  0
  1 26  1  0
  1 27  1  0
  1 28  1  0
 10 29  1  0
 10 30  1  0
 11 31  1  0
 11 32  1  0
 14 33  1  0
 15 34  1  0
 18 35  1  0
 19 36  1  0
 21 37  1  0
 21 38  1  0
 21 39  1  0
 23 40  1  0
 23 41  1  0
 23 42  1  0
M  END
>  <UniqueID>  (22) 
22

>  <SMILES>  (22) 
Cn1c(=O)c2c(nc(SCCOc3ccc(F)cc3)n2C)n(C)c1=O

>  <Energy>  (22) 
84.70475817110054

>  <Genealogy>  (22) 
Cn1c(=O)c2c(nc(SCCOc3ccc(F)cc3)n2C)n(C)c1=O (3D coordinates assigned)
Cn1c(=O)c2c(nc(SCCOc3ccc(F)cc3)n2C)n(C)c1=O (optimized conformer: 84.70475817110054 kcal/mol)

>  <smiles>  (22) 
Cn1c(=O)c2c(nc(SCCOc3ccc(F)cc3)n2C)n(C)c1=O

>  <score_type>  (22) 
oracle

>  <origin>  (22) 
adg

>  <m_score__min__energy>  (22) 
-6.5599999999999996

>  <m_primary>  (22) 
energy

$$$$
22:0
     RDKit          3D

 58 62  0  0  0  0  0  0  0  0999 V2000
   55.8830   30.1130   52.4190 C   0  0  0  0  0  0  0  0  0  0  0  0
   57.0100   30.0930   51.5500 O   0  0  0  0  0  0  0  0  0  0  0  0
   58.0450   31.0400   51.5750 C   0  0  0  0  0  0  0  0  0  0  0  0
   59.3670   30.5800   51.5480 C   0  0  0  0  0  0  0  0  0  0  0  0
   60.4340   31.4830   51.5720 C   0  0  0  0  0  0  0  0  0  0  0  0
   60.1930   32.8650   51.6240 C   0  0  0  0  0  0  0  0  0  0  0  0
   61.3420   33.8410   51.6150 C   0  0  0  0  0  0  0  0  0  0  0  0
   62.4560   33.3220   50.7920 N   0  0  0  0  0  0  0  0  0  0  0  0
   63.6380   32.9520   51.3920 C   0  0  0  0  0  0  0  0  0  0  0  0
   63.7840   33.0720   52.6410 O   0  0  0  0  0  0  0  0  0  0  0  0
   64.6890   32.4200   50.6170 C   0  0  0  0  0  0  0  0  0  0  0  0
   65.9830   32.0250   51.2230 C   0  0  0  0  0  0  0  0  0  0  0  0
   66.2820   30.6640   51.3820 C   0  0  0  0  0  0  0  0  0  0  0  0
   67.4760   30.2720   51.9830 C   0  0  0  0  0  0  0  0  0  0  0  0
   68.3660   31.2430   52.4320 C   0  0  0  0  0  0  0  0  0  0  0  0
   68.0750   32.5630   52.2790 N   0  0  0  0  0  0  0  0  0  0  0  0
   66.9200   32.9840   51.6810 C   0  0  0  0  0  0  0  0  0  0  0  0
   66.6670   34.4610   51.5330 C   0  0  0  0  0  0  0  0  0  0  0  0
   64.5150   32.2700   49.2800 N   0  0  0  0  0  0  0  0  0  0  0  0
   63.3550   32.6230   48.6770 C   0  0  0  0  0  0  0  0  0  0  0  0
   63.1830   32.4620   47.3030 C   0  0  0  0  0  0  0  0  0  0  0  0
   62.0090   32.8270   46.7250 N   0  0  0  0  0  0  0  0  0  0  0  0
   60.9890   33.3510   47.4620 C   0  0  0  0  0  0  0  0  0  0  0  0
   59.7510   33.7320   46.8270 N   0  0  0  0  0  0  0  0  0  0  0  0
   59.7560   34.7460   45.7630 C   0  0  0  0  0  0  0  0  0  0  0  0
   58.5190   34.5950   44.8720 C   0  0  0  0  0  0  0  0  0  0  0  0
   57.3410   34.5460   45.6510 O   0  0  0  0  0  0  0  0  0  0  0  0
   57.3430   33.3710   46.4370 C   0  0  0  0  0  0  0  0  0  0  0  0
   58.4700   33.4130   47.4730 C   0  0  0  0  0  0  0  0  0  0  0  0
   61.1510   33.5100   48.8050 N   0  0  0  0  0  0  0  0  0  0  0  0
   62.3050   33.1600   49.4360 C   0  0  0  0  0  0  0  0  0  0  0  0
   58.8680   33.3290   51.6470 C   0  0  0  0  0  0  0  0  0  0  0  0
   57.8020   32.4250   51.6250 C   0  0  0  0  0  0  0  0  0  0  0  0
   56.2258   30.1069   53.4642 H   0  0  0  0  0  0  0  0  0  0  0  0
   55.2920   31.0218   52.2322 H   0  0  0  0  0  0  0  0  0  0  0  0
   55.2602   29.2258   52.2322 H   0  0  0  0  0  0  0  0  0  0  0  0
   59.5678   29.4992   51.5076 H   0  0  0  0  0  0  0  0  0  0  0  0
   61.4681   31.1085   51.5500 H   0  0  0  0  0  0  0  0  0  0  0  0
   60.9996   34.7994   51.1977 H   0  0  0  0  0  0  0  0  0  0  0  0
   61.6973   33.9818   52.6465 H   0  0  0  0  0  0  0  0  0  0  0  0
   65.5703   29.9025   51.0305 H   0  0  0  0  0  0  0  0  0  0  0  0
   67.7132   29.2045   52.1016 H   0  0  0  0  0  0  0  0  0  0  0  0
   69.3086   30.9419   52.9125 H   0  0  0  0  0  0  0  0  0  0  0  0
   68.7660   33.2630   52.6320 H   0  0  0  0  0  0  0  0  0  0  0  0
   66.5882   34.9211   52.5290 H   0  0  0  0  0  0  0  0  0  0  0  0
   67.4993   34.9221   50.9809 H   0  0  0  0  0  0  0  0  0  0  0  0
   65.7287   34.6188   50.9809 H   0  0  0  0  0  0  0  0  0  0  0  0
   63.9938   32.0415   46.6899 H   0  0  0  0  0  0  0  0  0  0  0  0
   59.7546   35.7477   46.2176 H   0  0  0  0  0  0  0  0  0  0  0  0
   60.6570   34.6105   45.1467 H   0  0  0  0  0  0  0  0  0  0  0  0
   58.4620   35.4530   44.1860 H   0  0  0  0  0  0  0  0  0  0  0  0
   58.6057   33.6561   44.3054 H   0  0  0  0  0  0  0  0  0  0  0  0
   56.3778   33.2832   46.9572 H   0  0  0  0  0  0  0  0  0  0  0  0
   57.5019   32.5052   45.7773 H   0  0  0  0  0  0  0  0  0  0  0  0
   58.2421   34.1829   48.2249 H   0  0  0  0  0  0  0  0  0  0  0  0
   58.5493   32.4263   47.9528 H   0  0  0  0  0  0  0  0  0  0  0  0
   58.6677   34.4100   51.6825 H   0  0  0  0  0  0  0  0  0  0  0  0
   56.7676   32.7984   51.6469 H   0  0  0  0  0  0  0  0  0  0  0  0
  1  2  1  0
  2  3  1  0
  3  4  2  0
  4  5  1  0
  5  6  2  0
  6  7  1  0
  7  8  1  0
  8  9  1  0
  9 10  2  0
  9 11  1  0
 11 12  1  0
 12 13  2  0
 13 14  1  0
 14 15  2  0
 15 16  1  0
 16 17  2  0
 17 18  1  0
 11 19  2  0
 19 20  1  0
 20 21  2  0
 21 22  1  0
 22 23  2  0
 23 24  1  0
 24 25  1  0
 25 26  1  0
 26 27  1  0
 27 28  1  0
 28 29  1  0
 23 30  1  0
 30 31  2  0
  6 32  1  0
 32 33  2  0
 33  3  1  0
 31  8  1  0
 17 12  1  0
 31 20  1  0
 29 24  1  0
  1 34  1  0
  1 35  1  0
  1 36  1  0
  4 37  1  0
  5 38  1  0
  7 39  1  0
  7 40  1  0
 13 41  1  0
 14 42  1  0
 15 43  1  0
 16 44  1  0
 18 45  1  0
 18 46  1  0
 18 47  1  0
 21 48  1  0
 25 49  1  0
 25 50  1  0
 26 51  1  0
 26 52  1  0
 28 53  1  0
 28 54  1  0
 29 55  1  0
 29 56  1  0
 32 57  1  0
 33 58  1  0
M  CHG  1  16   1
M  END
>  <UniqueID>  (23) 
23

>  <SMILES>  (23) 
COc1ccc(Cn2c(=O)c(-c3ccc[nH+]c3C)nc3cnc(N4CCOCC4)nc32)cc1

>  <Energy>  (23) 
78.25038436742466

>  <Genealogy>  (23) 
COc1ccc(Cn2c(=O)c(-c3ccc[nH+]c3C)nc3cnc(N4CCOCC4)nc32)cc1 (protonated)
COc1ccc(Cn2c(=O)c(-c3ccc[nH+]c3C)nc3cnc(N4CCOCC4)nc32)cc1 (3D coordinates assigned)
COc1ccc(Cn2c(=O)c(-c3ccc[nH+]c3C)nc3cnc(N4CCOCC4)nc32)cc1 (nonaromatic ring conformer: 78.25038436742466 kcal/mol)

>  <smiles>  (23) 
COc1ccc(Cn2c(=O)c(-c3cccnc3C)nc3cnc(N4CCOCC4)nc32)cc1

>  <score_type>  (23) 
oracle

>  <origin>  (23) 
adg

>  <m_score__min__energy>  (23) 
-6.5300000000000002

>  <m_primary>  (23) 
energy

$$$$
23:0
     RDKit          3D

 38 40  0  0  0  0  0  0  0  0999 V2000
   56.7780   27.4120   45.6320 C   0  0  0  0  0  0  0  0  0  0  0  0
   57.1360   28.7920   45.1820 C   0  0  0  0  0  0  0  0  0  0  0  0
   58.4710   29.1550   44.9850 C   0  0  0  0  0  0  0  0  0  0  0  0
   58.7700   30.4430   44.5490 C   0  0  0  0  0  0  0  0  0  0  0  0
   57.7260   31.3480   44.3200 C   0  0  0  0  0  0  0  0  0  0  0  0
   57.9930   32.7590   43.8590 C   0  0  0  0  0  0  0  0  0  0  0  0
   57.7620   33.7870   44.9010 N   0  0  0  0  0  0  0  0  0  0  0  0
   57.4230   33.2800   46.2450 C   0  0  0  0  0  0  0  0  0  0  0  0
   58.6660   32.9150   47.0770 C   0  0  0  0  0  0  0  0  0  0  0  0
   59.8360   33.7000   46.6650 N   0  0  0  0  0  0  0  0  0  0  0  0
   61.1670   33.2080   46.9240 C   0  0  0  0  0  0  0  0  0  0  0  0
   61.3560   32.0650   47.6390 N   0  0  0  0  0  0  0  0  0  0  0  0
   62.6030   31.6080   47.9240 C   0  0  0  0  0  0  0  0  0  0  0  0
   63.7190   32.3150   47.4820 C   0  0  0  0  0  0  0  0  0  0  0  0
   63.5170   33.4830   46.7510 C   0  0  0  0  0  0  0  0  0  0  0  0
   62.2530   33.9070   46.4880 N   0  0  0  0  0  0  0  0  0  0  0  0
   59.6020   35.0330   46.1020 C   0  0  0  0  0  0  0  0  0  0  0  0
   58.6820   34.9480   44.8740 C   0  0  0  0  0  0  0  0  0  0  0  0
   56.4430   30.9280   44.4880 N   0  0  0  0  0  0  0  0  0  0  0  0
   56.1570   29.6930   44.9050 N   0  0  0  0  0  0  0  0  0  0  0  0
   56.7686   27.3757   46.7314 H   0  0  0  0  0  0  0  0  0  0  0  0
   55.7816   27.1480   45.2479 H   0  0  0  0  0  0  0  0  0  0  0  0
   57.5204   26.6969   45.2479 H   0  0  0  0  0  0  0  0  0  0  0  0
   59.2773   28.4306   45.1725 H   0  0  0  0  0  0  0  0  0  0  0  0
   59.8147   30.7465   44.3862 H   0  0  0  0  0  0  0  0  0  0  0  0
   59.0422   32.8244   43.5350 H   0  0  0  0  0  0  0  0  0  0  0  0
   57.2844   32.9671   43.0438 H   0  0  0  0  0  0  0  0  0  0  0  0
   56.8571   34.0563   46.7809 H   0  0  0  0  0  0  0  0  0  0  0  0
   56.8321   32.3617   46.1128 H   0  0  0  0  0  0  0  0  0  0  0  0
   58.4572   33.1141   48.1385 H   0  0  0  0  0  0  0  0  0  0  0  0
   58.8896   31.8501   46.9161 H   0  0  0  0  0  0  0  0  0  0  0  0
   62.7314   30.6814   48.5027 H   0  0  0  0  0  0  0  0  0  0  0  0
   64.7357   31.9591   47.7051 H   0  0  0  0  0  0  0  0  0  0  0  0
   64.3791   34.0613   46.3871 H   0  0  0  0  0  0  0  0  0  0  0  0
   59.1292   35.6695   46.8645 H   0  0  0  0  0  0  0  0  0  0  0  0
   60.5668   35.4617   45.7931 H   0  0  0  0  0  0  0  0  0  0  0  0
   58.0802   35.8675   44.8261 H   0  0  0  0  0  0  0  0  0  0  0  0
   59.3299   34.8256   43.9935 H   0  0  0  0  0  0  0  0  0  0  0  0
  1  2  1  0
  2  3  2  0
  3  4  1  0
  4  5  2  0
  5  6  1  0
  6  7  1  0
  7  8  1  0
  8  9  1  0
  9 10  1  0
 10 11  1  0
 11 12  2  0
 12 13  1  0
 13 14  2  0
 14 15  1  0
 15 16  2  0
 10 17  1  0
 17 18  1  0
  5 19  1  0
 19 20  2  0
 20  2  1  0
 18  7  1  0
 16 11  1  0
  1 21  1  0
  1 22  1  0
  1 23  1  0
  3 24  1  0
  4 25  1  0
  6 26  1  0
  6 27  1  0
  8 28  1  0
  8 29  1  0
  9 30  1  0
  9 31  1  0
 13 32  1  0
 14 33  1  0
 15 34  1  0
 17 35  1  0
 17 36  1  0
 18 37  1  0
 18 38  1  0
M  END
>  <UniqueID>  (24) 
24

>  <SMILES>  (24) 
Cc1ccc(CN2CCN(c3ncccn3)CC2)nn1

>  <Energy>  (24) 
50.27122943937732

>  <Genealogy>  (24) 
Cc1ccc(CN2CCN(c3ncccn3)CC2)nn1 (3D coordinates assigned)
Cc1ccc(CN2CCN(c3ncccn3)CC2)nn1 (nonaromatic ring conformer: 50.27122943937732 kcal/mol)

>  <smiles>  (24) 
Cc1ccc(CN2CCN(c3ncccn3)CC2)nn1

>  <score_type>  (24) 
oracle

>  <origin>  (24) 
adg

>  <m_score__min__energy>  (24) 
-7.9100000000000001

>  <m_primary>  (24) 
energy

$$$$
24:0
     RDKit          3D

 41 43  0  0  0  0  0  0  0  0999 V2000
   59.5771   27.3587   46.5016 H   0  0  0  0  0  0  0  0  0  0  0  0
   58.5190   27.4810   46.2270 C   0  0  0  0  0  0  0  0  0  0  0  0
   58.0820   28.6600   45.7110 N   0  0  0  0  0  0  0  0  0  0  0  0
   56.7780   28.8350   45.3670 C   0  0  0  0  0  0  0  0  0  0  0  0
   56.3970   29.9780   44.8780 N   0  0  0  0  0  0  0  0  0  0  0  0
   57.2100   30.8400   44.0200 C   0  0  0  0  0  0  0  0  0  0  0  0
   58.0477   30.2556   43.6117 H   0  0  0  0  0  0  0  0  0  0  0  0
   56.5781   31.2238   43.2055 H   0  0  0  0  0  0  0  0  0  0  0  0
   57.7560   32.0080   44.7990 C   0  0  0  0  0  0  0  0  0  0  0  0
   57.0180   33.1970   44.8900 C   0  0  0  0  0  0  0  0  0  0  0  0
   56.0554   33.2868   44.3652 H   0  0  0  0  0  0  0  0  0  0  0  0
   57.5020   34.2670   45.6450 C   0  0  0  0  0  0  0  0  0  0  0  0
   56.9231   35.2003   45.7064 H   0  0  0  0  0  0  0  0  0  0  0  0
   58.7190   34.1570   46.3230 C   0  0  0  0  0  0  0  0  0  0  0  0
   59.0908   35.0026   46.9202 H   0  0  0  0  0  0  0  0  0  0  0  0
   59.4710   32.9710   46.2460 C   0  0  0  0  0  0  0  0  0  0  0  0
   60.7500   32.8370   46.9890 C   0  0  0  0  0  0  0  0  0  0  0  0
   60.9320   31.7970   47.9180 C   0  0  0  0  0  0  0  0  0  0  0  0
   60.1129   31.0886   48.1111 H   0  0  0  0  0  0  0  0  0  0  0  0
   62.1450   31.6560   48.5980 C   0  0  0  0  0  0  0  0  0  0  0  0
   62.2777   30.8324   49.3150 H   0  0  0  0  0  0  0  0  0  0  0  0
   63.1940   32.5590   48.3710 C   0  0  0  0  0  0  0  0  0  0  0  0
   64.5080   32.3810   49.0700 C   0  0  0  0  0  0  0  0  0  0  0  0
   64.3502   32.4024   50.1584 H   0  0  0  0  0  0  0  0  0  0  0  0
   64.9485   31.4150   48.7823 H   0  0  0  0  0  0  0  0  0  0  0  0
   65.1896   33.1950   48.7823 H   0  0  0  0  0  0  0  0  0  0  0  0
   63.0240   33.5880   47.4350 C   0  0  0  0  0  0  0  0  0  0  0  0
   63.8492   34.2875   47.2357 H   0  0  0  0  0  0  0  0  0  0  0  0
   61.8120   33.7310   46.7530 C   0  0  0  0  0  0  0  0  0  0  0  0
   61.6871   34.5477   46.0268 H   0  0  0  0  0  0  0  0  0  0  0  0
   58.9820   31.9030   45.4720 C   0  0  0  0  0  0  0  0  0  0  0  0
   59.5677   30.9752   45.3937 H   0  0  0  0  0  0  0  0  0  0  0  0
   55.8940   27.8120   45.5380 N   0  0  0  0  0  0  0  0  0  0  0  0
   56.2900   26.6130   46.0450 C   0  0  0  0  0  0  0  0  0  0  0  0
   55.3810   25.5640   46.2080 O   0  0  0  0  0  0  0  0  0  0  0  0
   55.3510   24.4290   45.3510 C   0  0  0  0  0  0  0  0  0  0  0  0
   55.3268   23.5119   45.9579 H   0  0  0  0  0  0  0  0  0  0  0  0
   54.4537   24.4725   44.7162 H   0  0  0  0  0  0  0  0  0  0  0  0
   56.2494   24.4250   44.7162 H   0  0  0  0  0  0  0  0  0  0  0  0
   57.6240   26.4260   46.4080 C   0  0  0  0  0  0  0  0  0  0  0  0
   57.9629   25.4674   46.8279 H   0  0  0  0  0  0  0  0  0  0  0  0
  1  2  1  0
  2  3  1  0
  3  4  1  0
  4  5  2  0
  5  6  1  0
  6  7  1  0
  6  8  1  0
  6  9  1  0
  9 10  2  0
 10 11  1  0
 10 12  1  0
 12 13  1  0
 12 14  2  0
 14 15  1  0
 14 16  1  0
 16 17  1  0
 17 18  2  0
 18 19  1  0
 18 20  1  0
 20 21  1  0
 20 22  2  0
 22 23  1  0
 23 24  1  0
 23 25  1  0
 23 26  1  0
 22 27  1  0
 27 28  1  0
 27 29  2  0
 29 30  1  0
 16 31  2  0
 31 32  1  0
  4 33  1  0
 33 34  2  0
 34 35  1  0
 35 36  1  0
 36 37  1  0
 36 38  1  0
 36 39  1  0
 34 40  1  0
 40 41  1  0
 40  2  2  0
 31  9  1  0
 29 17  1  0
M  CHG  1   3  -1
M  END
>  <UniqueID>  (25) 
25

>  <SMILES>  (25) 
COc1cc[n-]/c(=N/Cc2cccc(-c3ccc(C)cc3)c2)n1

>  <Energy>  (25) 
43.651603337341726

>  <Genealogy>  (25) 
COc1cc[n-]c(=NCc2cccc(-c3ccc(C)cc3)c2)n1 (protonated)
COc1cc[n-]/c(=N/Cc2cccc(-c3ccc(C)cc3)c2)n1 (cis-trans isomerization)
COc1cc[n-]/c(=N/Cc2cccc(-c3ccc(C)cc3)c2)n1 (3D coordinates assigned)
COc1cc[n-]/c(=N/Cc2cccc(-c3ccc(C)cc3)c2)n1 (optimized conformer: 43.651603337341726 kcal/mol)

>  <smiles>  (25) 
COc1cc[nH]c(=NCc2cccc(-c3ccc(C)cc3)c2)n1

>  <score_type>  (25) 
oracle

>  <origin>  (25) 
adg

>  <m_score__min__energy>  (25) 
-10.02

>  <m_primary>  (25) 
energy

$$$$
25:0
     RDKit          3D

 38 39  0  0  0  0  0  0  0  0999 V2000
   57.0260   29.0010   43.3970 C   0  0  0  0  0  0  0  0  0  0  0  0
   55.9280   29.8890   43.9710 C   0  0  0  0  0  0  0  0  0  0  0  0
   56.4780   30.8540   44.8670 O   0  0  0  0  0  0  0  0  0  0  0  0
   57.3930   31.8390   44.4750 C   0  0  0  0  0  0  0  0  0  0  0  0
   57.6010   32.0580   43.2500 O   0  0  0  0  0  0  0  0  0  0  0  0
   58.1240   32.6180   45.5040 C   0  0  0  0  0  0  0  0  0  0  0  0
   58.1120   33.9620   45.4280 C   0  0  0  0  0  0  0  0  0  0  0  0
   58.6120   34.7720   46.5010 N   0  0  0  0  0  0  0  0  0  0  0  0
   59.2890   34.2840   47.4950 C   0  0  0  0  0  0  0  0  0  0  0  0
   59.7150   32.8430   47.5000 C   0  0  2  0  0  0  0  0  0  0  0  0
   61.0880   32.7490   46.8870 C   0  0  0  0  0  0  0  0  0  0  0  0
   61.4430   33.5960   46.0220 O   0  0  0  0  0  0  0  0  0  0  0  0
   61.9700   31.7440   47.3000 O   0  0  0  0  0  0  0  0  0  0  0  0
   63.3590   31.9760   47.4940 C   0  0  0  0  0  0  0  0  0  0  0  0
   58.6610   31.9550   46.7740 C   0  0  2  0  0  0  0  0  0  0  0  0
   59.1940   30.5350   46.5670 C   0  0  0  0  0  0  0  0  0  0  0  0
   59.6170   30.1160   45.2860 C   0  0  0  0  0  0  0  0  0  0  0  0
   60.1420   28.8380   45.0890 C   0  0  0  0  0  0  0  0  0  0  0  0
   60.2730   27.9610   46.1650 C   0  0  0  0  0  0  0  0  0  0  0  0
   59.8880   28.3660   47.4430 C   0  0  0  0  0  0  0  0  0  0  0  0
   59.3600   29.6450   47.6570 C   0  0  0  0  0  0  0  0  0  0  0  0
   58.9110   30.1190   49.4640 Br  0  0  0  0  0  0  0  0  0  0  0  0
   57.5938   28.5418   44.2197 H   0  0  0  0  0  0  0  0  0  0  0  0
   56.5735   28.2118   42.7786 H   0  0  0  0  0  0  0  0  0  0  0  0
   57.7031   29.6085   42.7786 H   0  0  0  0  0  0  0  0  0  0  0  0
   55.4175   30.4101   43.1477 H   0  0  0  0  0  0  0  0  0  0  0  0
   55.2153   29.2588   44.5232 H   0  0  0  0  0  0  0  0  0  0  0  0
   57.7113   34.4481   44.5262 H   0  0  0  0  0  0  0  0  0  0  0  0
   59.5539   34.9324   48.3432 H   0  0  0  0  0  0  0  0  0  0  0  0
   59.7723   32.4594   48.5294 H   0  0  0  0  0  0  0  0  0  0  0  0
   63.5777   32.0125   48.5714 H   0  0  0  0  0  0  0  0  0  0  0  0
   63.9350   31.1616   47.0303 H   0  0  0  0  0  0  0  0  0  0  0  0
   63.6391   32.9334   47.0303 H   0  0  0  0  0  0  0  0  0  0  0  0
   57.7807   31.8560   47.4262 H   0  0  0  0  0  0  0  0  0  0  0  0
   59.5315   30.8055   44.4332 H   0  0  0  0  0  0  0  0  0  0  0  0
   60.4532   28.5218   44.0824 H   0  0  0  0  0  0  0  0  0  0  0  0
   60.6794   26.9512   46.0063 H   0  0  0  0  0  0  0  0  0  0  0  0
   60.0002   27.6741   48.2907 H   0  0  0  0  0  0  0  0  0  0  0  0
  1  2  1  0
  2  3  1  0
  3  4  1  0
  4  5  2  0
  4  6  1  0
  6  7  2  0
  7  8  1  0
  8  9  2  0
  9 10  1  0
 10 11  1  0
 11 12  2  0
 11 13  1  0
 13 14  1  0
 10 15  1  0
 15 16  1  0
 16 17  2  0
 17 18  1  0
 18 19  2  0
 19 20  1  0
 20 21  2  0
 21 22  1  0
 15  6  1  0
 21 16  1  0
  1 23  1  0
  1 24  1  0
  1 25  1  0
  2 26  1  0
  2 27  1  0
  7 28  1  0
  9 29  1  0
 10 30  1  1
 14 31  1  0
 14 32  1  0
 14 33  1  0
 15 34  1  1
 17 35  1  0
 18 36  1  0
 19 37  1  0
 20 38  1  0
M  END
>  <UniqueID>  (26) 
26

>  <SMILES>  (26) 
CCOC(=O)C1=CN=C[C@H](C(=O)OC)[C@@H]1c1ccccc1Br

>  <Energy>  (26) 
39.46236760286529

>  <Genealogy>  (26) 
CCOC(=O)C1=CN=C[C@H](C(=O)OC)[C@@H]1c1ccccc1Br (chirality)
CCOC(=O)C1=CN=C[C@H](C(=O)OC)[C@@H]1c1ccccc1Br (3D coordinates assigned)
CCOC(=O)C1=CN=C[C@H](C(=O)OC)[C@@H]1c1ccccc1Br (nonaromatic ring conformer: 39.46236760286529 kcal/mol)

>  <smiles>  (26) 
CCOC(=O)C1=CN=CC(C(=O)OC)C1c1ccccc1Br

>  <score_type>  (26) 
oracle

>  <origin>  (26) 
adg

>  <m_score__min__energy>  (26) 
-6.7800000000000002

>  <m_primary>  (26) 
energy

$$$$
26:0
     RDKit          3D

 49 51  0  0  0  0  0  0  0  0999 V2000
   57.3500   32.3770   40.7550 C   0  0  0  0  0  0  0  0  0  0  0  0
   57.7060   31.9670   42.1800 C   0  0  0  0  0  0  0  0  0  0  0  0
   56.7130   31.0930   42.7150 O   0  0  0  0  0  0  0  0  0  0  0  0
   56.5970   30.7940   44.0790 C   0  0  0  0  0  0  0  0  0  0  0  0
   55.5830   30.1710   44.4970 O   0  0  0  0  0  0  0  0  0  0  0  0
   57.6660   31.2020   45.0360 C   0  0  0  0  0  0  0  0  0  0  0  0
   58.6920   30.3050   45.3490 C   0  0  0  0  0  0  0  0  0  0  0  0
   59.7110   30.6260   46.2080 N   0  0  0  0  0  0  0  0  0  0  0  0
   60.7360   29.5730   46.3830 C   0  0  0  0  0  0  0  0  0  0  0  0
   60.7440   28.6150   45.1920 C   0  0  0  0  0  0  0  0  0  0  0  0
   59.7200   31.8540   46.8630 C   0  0  0  0  0  0  0  0  0  0  0  0
   60.7100   32.2350   47.8350 C   0  0  0  0  0  0  0  0  0  0  0  0
   61.7540   31.3680   48.1810 O   0  0  0  0  0  0  0  0  0  0  0  0
   63.1200   31.5930   47.8380 C   0  0  0  0  0  0  0  0  0  0  0  0
   60.6270   33.4950   48.4750 C   0  0  0  0  0  0  0  0  0  0  0  0
   61.4950   33.8310   49.5660 N   0  0  0  0  0  0  0  0  0  0  0  0
   62.8130   34.4040   49.3680 C   0  0  0  0  0  0  0  0  0  0  0  0
   63.3840   34.5910   50.7670 C   0  0  0  0  0  0  0  0  0  0  0  0
   62.5540   33.6920   51.6820 C   0  0  0  0  0  0  0  0  0  0  0  0
   61.2510   33.4190   50.9370 C   0  0  0  0  0  0  0  0  0  0  0  0
   59.6290   34.3980   48.1200 C   0  0  0  0  0  0  0  0  0  0  0  0
   58.6800   34.0610   47.1730 C   0  0  0  0  0  0  0  0  0  0  0  0
   58.6930   32.7980   46.5560 C   0  0  0  0  0  0  0  0  0  0  0  0
   57.6800   32.4650   45.6390 C   0  0  0  0  0  0  0  0  0  0  0  0
   56.7770   33.3050   45.3660 O   0  0  0  0  0  0  0  0  0  0  0  0
   56.6290   33.2073   40.7816 H   0  0  0  0  0  0  0  0  0  0  0  0
   58.2603   32.6986   40.2277 H   0  0  0  0  0  0  0  0  0  0  0  0
   56.9039   31.5208   40.2277 H   0  0  0  0  0  0  0  0  0  0  0  0
   58.6773   31.4506   42.1755 H   0  0  0  0  0  0  0  0  0  0  0  0
   57.7575   32.8700   42.8060 H   0  0  0  0  0  0  0  0  0  0  0  0
   58.6811   29.3057   44.8894 H   0  0  0  0  0  0  0  0  0  0  0  0
   61.7256   30.0451   46.4719 H   0  0  0  0  0  0  0  0  0  0  0  0
   60.4997   29.0008   47.2922 H   0  0  0  0  0  0  0  0  0  0  0  0
   60.7527   27.5771   45.5563 H   0  0  0  0  0  0  0  0  0  0  0  0
   59.8444   28.7817   44.5813 H   0  0  0  0  0  0  0  0  0  0  0  0
   61.6407   28.7967   44.5813 H   0  0  0  0  0  0  0  0  0  0  0  0
   63.7173   31.6914   48.7565 H   0  0  0  0  0  0  0  0  0  0  0  0
   63.4941   30.7444   47.2465 H   0  0  0  0  0  0  0  0  0  0  0  0
   63.2022   32.5168   47.2465 H   0  0  0  0  0  0  0  0  0  0  0  0
   63.4457   33.7215   48.7816 H   0  0  0  0  0  0  0  0  0  0  0  0
   62.7686   35.3527   48.8129 H   0  0  0  0  0  0  0  0  0  0  0  0
   64.4417   34.2900   50.7919 H   0  0  0  0  0  0  0  0  0  0  0  0
   63.3378   35.6431   51.0846 H   0  0  0  0  0  0  0  0  0  0  0  0
   63.0869   32.7497   51.8773 H   0  0  0  0  0  0  0  0  0  0  0  0
   62.3683   34.1703   52.6550 H   0  0  0  0  0  0  0  0  0  0  0  0
   61.0015   32.3485   50.9782 H   0  0  0  0  0  0  0  0  0  0  0  0
   60.4045   33.9624   51.3822 H   0  0  0  0  0  0  0  0  0  0  0  0
   59.5952   35.3885   48.5972 H   0  0  0  0  0  0  0  0  0  0  0  0
   57.9042   34.7910   46.8986 H   0  0  0  0  0  0  0  0  0  0  0  0
  1  2  1  0
  2  3  1  0
  3  4  1  0
  4  5  2  0
  4  6  1  0
  6  7  2  0
  7  8  1  0
  8  9  1  0
  9 10  1  0
  8 11  1  0
 11 12  2  0
 12 13  1  0
 13 14  1  0
 12 15  1  0
 15 16  1  0
 16 17  1  0
 17 18  1  0
 18 19  1  0
 19 20  1  0
 15 21  2  0
 21 22  1  0
 22 23  2  0
 23 24  1  0
 24 25  2  0
 24  6  1  0
 23 11  1  0
 20 16  1  0
  1 26  1  0
  1 27  1  0
  1 28  1  0
  2 29  1  0
  2 30  1  0
  7 31  1  0
  9 32  1  0
  9 33  1  0
 10 34  1  0
 10 35  1  0
 10 36  1  0
 14 37  1  0
 14 38  1  0
 14 39  1  0
 17 40  1  0
 17 41  1  0
 18 42  1  0
 18 43  1  0
 19 44  1  0
 19 45  1  0
 20 46  1  0
 20 47  1  0
 21 48  1  0
 22 49  1  0
M  END
>  <UniqueID>  (27) 
27

>  <SMILES>  (27) 
CCOC(=O)c1cn(CC)c2c(OC)c(N3CCCC3)ccc2c1=O

>  <Energy>  (27) 
72.63617859687

>  <Genealogy>  (27) 
CCOC(=O)c1cn(CC)c2c(OC)c(N3CCCC3)ccc2c1=O (3D coordinates assigned)
CCOC(=O)c1cn(CC)c2c(OC)c(N3CCCC3)ccc2c1=O (nonaromatic ring conformer: 72.63617859687 kcal/mol)

>  <smiles>  (27) 
CCOC(=O)c1cn(CC)c2c(OC)c(N3CCCC3)ccc2c1=O

>  <score_type>  (27) 
oracle

>  <origin>  (27) 
adg

>  <m_score__min__energy>  (27) 
-6.7999999999999998

>  <m_primary>  (27) 
energy

$$$$
27:0
     RDKit          3D

 49 52  0  0  0  0  0  0  0  0999 V2000
   55.3850   26.2600   46.3320 O   0  0  0  0  0  0  0  0  0  0  0  0
   56.2830   27.0260   45.8920 C   0  0  0  0  0  0  0  0  0  0  0  0
   55.8760   28.2390   45.2460 N   0  0  0  0  0  0  0  0  0  0  0  0
   56.6900   29.3210   44.7770 C   0  0  0  0  0  0  0  0  0  0  0  0
   56.1910   30.1330   43.7530 C   0  0  0  0  0  0  0  0  0  0  0  0
   56.9220   31.2360   43.3070 C   0  0  0  0  0  0  0  0  0  0  0  0
   58.1440   31.5290   43.9090 C   0  0  0  0  0  0  0  0  0  0  0  0
   58.6070   30.7470   44.9190 N   0  0  0  0  0  0  0  0  0  0  0  0
   57.9210   29.6610   45.3710 C   0  0  0  0  0  0  0  0  0  0  0  0
   58.4500   28.8990   46.4600 N   0  0  0  0  0  0  0  0  0  0  0  0
   58.6170   29.5080   47.7850 C   0  0  0  0  0  0  0  0  0  0  0  0
   59.7740   30.5160   47.8060 C   0  0  0  0  0  0  0  0  0  0  0  0
   60.1860   30.8520   49.2450 C   0  0  0  0  0  0  0  0  0  0  0  0
   61.7110   30.6890   49.4310 C   0  0  0  0  0  0  0  0  0  0  0  0
   62.5130   31.8380   48.9560 N   0  0  0  0  0  0  0  0  0  0  0  0
   62.9310   31.7210   47.5450 C   0  0  0  0  0  0  0  0  0  0  0  0
   63.6000   33.0250   47.0670 C   0  0  0  0  0  0  0  0  0  0  0  0
   64.0470   33.7890   48.1700 O   0  0  0  0  0  0  0  0  0  0  0  0
   62.9370   34.2630   48.9160 C   0  0  0  0  0  0  0  0  0  0  0  0
   61.9140   33.1530   49.2340 C   0  0  0  0  0  0  0  0  0  0  0  0
   58.7330   27.5090   46.2620 C   0  0  0  0  0  0  0  0  0  0  0  0
   60.0530   27.0450   46.3880 C   0  0  0  0  0  0  0  0  0  0  0  0
   60.3450   25.6890   46.2390 C   0  0  0  0  0  0  0  0  0  0  0  0
   59.3200   24.7810   45.9710 C   0  0  0  0  0  0  0  0  0  0  0  0
   58.0040   25.2300   45.8500 C   0  0  0  0  0  0  0  0  0  0  0  0
   57.6960   26.5970   45.9810 C   0  0  0  0  0  0  0  0  0  0  0  0
   55.2173   29.9013   43.2966 H   0  0  0  0  0  0  0  0  0  0  0  0
   56.5380   31.8656   42.4908 H   0  0  0  0  0  0  0  0  0  0  0  0
   58.7333   32.3926   43.5669 H   0  0  0  0  0  0  0  0  0  0  0  0
   57.6867   30.0277   48.0580 H   0  0  0  0  0  0  0  0  0  0  0  0
   58.8474   28.7073   48.5032 H   0  0  0  0  0  0  0  0  0  0  0  0
   60.6363   30.0846   47.2766 H   0  0  0  0  0  0  0  0  0  0  0  0
   59.4413   31.4409   47.3123 H   0  0  0  0  0  0  0  0  0  0  0  0
   59.9047   31.8919   49.4672 H   0  0  0  0  0  0  0  0  0  0  0  0
   59.6714   30.1616   49.9295 H   0  0  0  0  0  0  0  0  0  0  0  0
   61.9133   30.5485   50.5031 H   0  0  0  0  0  0  0  0  0  0  0  0
   62.0102   29.8246   48.8200 H   0  0  0  0  0  0  0  0  0  0  0  0
   63.6463   30.8910   47.4476 H   0  0  0  0  0  0  0  0  0  0  0  0
   62.0414   31.5315   46.9263 H   0  0  0  0  0  0  0  0  0  0  0  0
   64.4597   32.7767   46.4272 H   0  0  0  0  0  0  0  0  0  0  0  0
   62.8631   33.6151   46.5025 H   0  0  0  0  0  0  0  0  0  0  0  0
   63.3042   34.6847   49.8633 H   0  0  0  0  0  0  0  0  0  0  0  0
   62.4252   35.0204   48.3041 H   0  0  0  0  0  0  0  0  0  0  0  0
   61.6301   33.2094   50.2952 H   0  0  0  0  0  0  0  0  0  0  0  0
   61.0203   33.2882   48.6071 H   0  0  0  0  0  0  0  0  0  0  0  0
   60.8629   27.7567   46.6059 H   0  0  0  0  0  0  0  0  0  0  0  0
   61.3826   25.3359   46.3327 H   0  0  0  0  0  0  0  0  0  0  0  0
   59.5491   23.7114   45.8551 H   0  0  0  0  0  0  0  0  0  0  0  0
   57.1989   24.5076   45.6501 H   0  0  0  0  0  0  0  0  0  0  0  0
  1  2  2  0
  2  3  1  0
  3  4  1  0
  4  5  2  0
  5  6  1  0
  6  7  2  0
  7  8  1  0
  8  9  2  0
  9 10  1  0
 10 11  1  0
 11 12  1  0
 12 13  1  0
 13 14  1  0
 14 15  1  0
 15 16  1  0
 16 17  1  0
 17 18  1  0
 18 19  1  0
 19 20  1  0
 10 21  1  0
 21 22  2  0
 22 23  1  0
 23 24  2  0
 24 25  1  0
 25 26  2  0
 26  2  1  0
  9  4  1  0
 20 15  1  0
 26 21  1  0
  5 27  1  0
  6 28  1  0
  7 29  1  0
 11 30  1  0
 11 31  1  0
 12 32  1  0
 12 33  1  0
 13 34  1  0
 13 35  1  0
 14 36  1  0
 14 37  1  0
 16 38  1  0
 16 39  1  0
 17 40  1  0
 17 41  1  0
 19 42  1  0
 19 43  1  0
 20 44  1  0
 20 45  1  0
 22 46  1  0
 23 47  1  0
 24 48  1  0
 25 49  1  0
M  CHG  1   3  -1
M  END
>  <UniqueID>  (28) 
28

>  <SMILES>  (28) 
O=C1[N-]c2cccnc2N(CCCCN2CCOCC2)c2ccccc21

>  <Energy>  (28) 
82.10885179971298

>  <Genealogy>  (28) 
O=C1[N-]c2cccnc2N(CCCCN2CCOCC2)c2ccccc21 (protonated)
O=C1[N-]c2cccnc2N(CCCCN2CCOCC2)c2ccccc21 (3D coordinates assigned)
O=C1[N-]c2cccnc2N(CCCCN2CCOCC2)c2ccccc21 (nonaromatic ring conformer: 82.10885179971298 kcal/mol)

>  <smiles>  (28) 
O=C1Nc2cccnc2N(CCCCN2CCOCC2)c2ccccc21

>  <score_type>  (28) 
oracle

>  <origin>  (28) 
adg

>  <m_score__min__energy>  (28) 
-10.58

>  <m_primary>  (28) 
energy

$$$$
28:0
     RDKit          3D

 43 44  0  0  0  0  0  0  0  0999 V2000
   55.6920   26.7170   45.2620 H   0  0  0  0  0  0  0  0  0  0  0  0
   54.9610   26.2580   45.7520 O   0  0  0  0  0  0  0  0  0  0  0  0
   55.1410   24.8820   45.5520 C   0  0  0  0  0  0  0  0  0  0  0  0
   54.5535   24.5662   44.6773 H   0  0  0  0  0  0  0  0  0  0  0  0
   54.8057   24.3508   46.4550 H   0  0  0  0  0  0  0  0  0  0  0  0
   56.6270   24.5460   45.3090 C   0  0  0  0  0  0  0  0  0  0  0  0
   56.6811   23.7545   44.5470 H   0  0  0  0  0  0  0  0  0  0  0  0
   57.0424   24.2347   46.2788 H   0  0  0  0  0  0  0  0  0  0  0  0
   57.4450   25.6950   44.8450 N   0  0  0  0  0  0  0  0  0  0  0  0
   57.7310   25.6960   43.3920 C   0  0  0  0  0  0  0  0  0  0  0  0
   56.8275   25.3801   42.8499 H   0  0  0  0  0  0  0  0  0  0  0  0
   58.5638   25.0023   43.2044 H   0  0  0  0  0  0  0  0  0  0  0  0
   58.1440   27.0830   42.9020 C   0  0  0  0  0  0  0  0  0  0  0  0
   58.3380   27.7346   43.7667 H   0  0  0  0  0  0  0  0  0  0  0  0
   59.0565   27.0002   42.2933 H   0  0  0  0  0  0  0  0  0  0  0  0
   57.3349   27.5128   42.2933 H   0  0  0  0  0  0  0  0  0  0  0  0
   58.6670   25.8950   45.6590 C   0  0  0  0  0  0  0  0  0  0  0  0
   58.9905   24.9288   46.0734 H   0  0  0  0  0  0  0  0  0  0  0  0
   59.4602   26.3128   45.0217 H   0  0  0  0  0  0  0  0  0  0  0  0
   58.3810   26.8660   46.8040 C   0  0  0  0  0  0  0  0  0  0  0  0
   58.1935   26.2977   47.7270 H   0  0  0  0  0  0  0  0  0  0  0  0
   59.2490   27.5266   46.9464 H   0  0  0  0  0  0  0  0  0  0  0  0
   57.2100   27.6710   46.4850 N   0  0  0  0  0  0  0  0  0  0  0  0
   57.0690   28.6670   45.6540 C   0  0  0  0  0  0  0  0  0  0  0  0
   55.9550   28.6540   44.8640 N   0  0  0  0  0  0  0  0  0  0  0  0
   55.5560   29.7190   44.1110 C   0  0  0  0  0  0  0  0  0  0  0  0
   54.6630   29.6347   43.4742 H   0  0  0  0  0  0  0  0  0  0  0  0
   56.2750   30.9160   44.1440 C   0  0  0  0  0  0  0  0  0  0  0  0
   55.9375   31.8020   43.5863 H   0  0  0  0  0  0  0  0  0  0  0  0
   57.4370   30.9420   44.9120 C   0  0  0  0  0  0  0  0  0  0  0  0
   57.8800   29.8360   45.6150 C   0  0  0  0  0  0  0  0  0  0  0  0
   59.1810   30.1960   46.0100 C   0  0  0  0  0  0  0  0  0  0  0  0
   60.3130   29.3120   46.4340 C   0  0  0  0  0  0  0  0  0  0  0  0
   60.3587   29.2763   47.5325 H   0  0  0  0  0  0  0  0  0  0  0  0
   60.1531   28.2973   46.0405 H   0  0  0  0  0  0  0  0  0  0  0  0
   61.2587   29.7131   46.0405 H   0  0  0  0  0  0  0  0  0  0  0  0
   59.4050   31.4740   45.6220 N   0  0  0  0  0  0  0  0  0  0  0  0
   60.3070   31.9930   45.7150 H   0  0  0  0  0  0  0  0  0  0  0  0
   58.3480   31.9280   44.9680 N   0  0  0  0  0  0  0  0  0  0  0  0
   58.3090   33.2070   44.2640 C   0  0  0  0  0  0  0  0  0  0  0  0
   58.2840   34.0278   44.9959 H   0  0  0  0  0  0  0  0  0  0  0  0
   59.2046   33.3056   43.6329 H   0  0  0  0  0  0  0  0  0  0  0  0
   57.4091   33.2509   43.6329 H   0  0  0  0  0  0  0  0  0  0  0  0
  1  2  1  0
  2  3  1  0
  3  4  1  0
  3  5  1  0
  3  6  1  0
  6  7  1  0
  6  8  1  0
  6  9  1  0
  9 10  1  0
 10 11  1  0
 10 12  1  0
 10 13  1  0
 13 14  1  0
 13 15  1  0
 13 16  1  0
  9 17  1  0
 17 18  1  0
 17 19  1  0
 17 20  1  0
 20 21  1  0
 20 22  1  0
 20 23  1  0
 23 24  2  0
 24 25  1  0
 25 26  1  0
 26 27  1  0
 26 28  2  0
 28 29  1  0
 28 30  1  0
 30 31  2  0
 31 32  1  0
 32 33  1  0
 33 34  1  0
 33 35  1  0
 33 36  1  0
 32 37  2  0
 37 38  1  0
 37 39  1  0
 39 40  1  0
 40 41  1  0
 40 42  1  0
 40 43  1  0
 31 24  1  0
 39 30  1  0
M  CHG  2  25  -1  37   1
M  END
>  <UniqueID>  (29) 
29

>  <SMILES>  (29) 
CCN(CCO)CC/N=c1/[n-]ccc2c1c(C)[nH+]n2C

>  <Energy>  (29) 
99.9528662646118

>  <Genealogy>  (29) 
CCN(CCO)CCN=c1[n-]ccc2c1c(C)[nH+]n2C (protonated)
CCN(CCO)CC/N=c1/[n-]ccc2c1c(C)[nH+]n2C (cis-trans isomerization)
CCN(CCO)CC/N=c1/[n-]ccc2c1c(C)[nH+]n2C (3D coordinates assigned)
CCN(CCO)CC/N=c1/[n-]ccc2c1c(C)[nH+]n2C (optimized conformer: 99.9528662646118 kcal/mol)

>  <smiles>  (29) 
CCN(CCO)CCN=c1[nH]ccc2c1c(C)nn2C

>  <score_type>  (29) 
oracle

>  <origin>  (29) 
adg

>  <m_score__min__energy>  (29) 
-7.2400000000000002

>  <m_primary>  (29) 
energy

$$$$
29:0
     RDKit          3D

 34 35  0  0  0  0  0  0  0  0999 V2000
   57.4090   33.3360   44.8630 C   0  0  0  0  0  0  0  0  0  0  0  0
   57.4870   31.9260   45.4380 C   0  0  0  0  0  0  0  0  0  0  0  0
   56.6520   31.0110   44.6700 N   0  0  0  0  0  0  0  0  0  0  0  0
   56.5960   29.5970   44.9020 C   0  0  0  0  0  0  0  0  0  0  0  0
   55.4820   29.0090   44.8690 O   0  0  0  0  0  0  0  0  0  0  0  0
   57.8480   28.8370   45.1710 C   0  0  0  0  0  0  0  0  0  0  0  0
   59.0730   29.3440   44.6910 C   0  0  0  0  0  0  0  0  0  0  0  0
   60.2680   28.6590   44.9130 C   0  0  0  0  0  0  0  0  0  0  0  0
   60.2660   27.4630   45.6250 C   0  0  0  0  0  0  0  0  0  0  0  0
   59.0680   26.9430   46.1150 C   0  0  0  0  0  0  0  0  0  0  0  0
   57.8490   27.6090   45.8820 C   0  0  0  0  0  0  0  0  0  0  0  0
   56.6270   27.0800   46.4230 N   0  0  0  0  0  0  0  0  0  0  0  0
   55.9120   25.9340   45.9410 C   0  0  0  0  0  0  0  0  0  0  0  0
   54.6520   25.9590   45.9590 O   0  0  0  0  0  0  0  0  0  0  0  0
   56.6080   24.7530   45.3800 C   0  0  0  0  0  0  0  0  0  0  0  0
   57.5860   24.0830   46.1380 C   0  0  0  0  0  0  0  0  0  0  0  0
   58.2430   22.9650   45.6160 C   0  0  0  0  0  0  0  0  0  0  0  0
   57.9240   22.4990   44.3380 C   0  0  0  0  0  0  0  0  0  0  0  0
   56.9450   23.1470   43.5820 C   0  0  0  0  0  0  0  0  0  0  0  0
   56.2840   24.2640   44.1010 C   0  0  0  0  0  0  0  0  0  0  0  0
   57.3686   34.0656   45.6852 H   0  0  0  0  0  0  0  0  0  0  0  0
   58.2978   33.5294   44.2445 H   0  0  0  0  0  0  0  0  0  0  0  0
   56.5043   33.4302   44.2445 H   0  0  0  0  0  0  0  0  0  0  0  0
   58.5302   31.5788   45.4032 H   0  0  0  0  0  0  0  0  0  0  0  0
   57.1268   31.9468   46.4772 H   0  0  0  0  0  0  0  0  0  0  0  0
   59.0867   30.2924   44.1340 H   0  0  0  0  0  0  0  0  0  0  0  0
   61.2137   29.0649   44.5245 H   0  0  0  0  0  0  0  0  0  0  0  0
   61.2103   26.9272   45.8015 H   0  0  0  0  0  0  0  0  0  0  0  0
   59.0754   26.0044   46.6885 H   0  0  0  0  0  0  0  0  0  0  0  0
   57.8351   24.4413   47.1477 H   0  0  0  0  0  0  0  0  0  0  0  0
   59.0119   22.4516   46.2120 H   0  0  0  0  0  0  0  0  0  0  0  0
   58.4443   21.6212   43.9272 H   0  0  0  0  0  0  0  0  0  0  0  0
   56.6936   22.7780   42.5767 H   0  0  0  0  0  0  0  0  0  0  0  0
   55.5056   24.7639   43.5058 H   0  0  0  0  0  0  0  0  0  0  0  0
  1  2  1  0
  2  3  1  0
  3  4  1  0
  4  5  2  0
  4  6  1  0
  6  7  2  0
  7  8  1  0
  8  9  2  0
  9 10  1  0
 10 11  2  0
 11 12  1  0
 12 13  1  0
 13 14  2  0
 13 15  1  0
 15 16  2  0
 16 17  1  0
 17 18  2  0
 18 19  1  0
 19 20  2  0
 11  6  1  0
 20 15  1  0
  1 21  1  0
  1 22  1  0
  1 23  1  0
  2 24  1  0
  2 25  1  0
  7 26  1  0
  8 27  1  0
  9 28  1  0
 10 29  1  0
 16 30  1  0
 17 31  1  0
 18 32  1  0
 19 33  1  0
 20 34  1  0
M  CHG  2   3  -1  12  -1
M  END
>  <UniqueID>  (30) 
30

>  <SMILES>  (30) 
CC[N-]C(=O)c1ccccc1[N-]C(=O)c1ccccc1

>  <Energy>  (30) 
40.088168525489806

>  <Genealogy>  (30) 
CC[N-]C(=O)c1ccccc1[N-]C(=O)c1ccccc1 (protonated)
CC[N-]C(=O)c1ccccc1[N-]C(=O)c1ccccc1 (3D coordinates assigned)
CC[N-]C(=O)c1ccccc1[N-]C(=O)c1ccccc1 (optimized conformer: 40.088168525489806 kcal/mol)

>  <smiles>  (30) 
CCNC(=O)c1ccccc1NC(=O)c1ccccc1

>  <score_type>  (30) 
oracle

>  <origin>  (30) 
adg

>  <m_score__min__energy>  (30) 
-11.710000000000001

>  <m_primary>  (30) 
energy

$$$$
30:0
     RDKit          3D

 44 47  0  0  0  0  0  0  0  0999 V2000
   57.5800   32.0680   42.2410 C   0  0  0  0  0  0  0  0  0  0  0  0
   58.3220   32.7320   43.4040 C   0  0  0  0  0  0  0  0  0  0  0  0
   57.4900   32.8550   44.6310 N   0  0  0  0  0  0  0  0  0  0  0  0
   57.5110   34.2130   45.2220 C   0  0  0  0  0  0  0  0  0  0  0  0
   58.9180   34.5880   45.7110 C   0  0  0  0  0  0  0  0  0  0  0  0
   59.5930   33.4290   46.3060 N   0  0  0  0  0  0  0  0  0  0  0  0
   60.9170   33.5940   46.8380 C   0  0  0  0  0  0  0  0  0  0  0  0
   61.9890   33.6910   45.9950 N   0  0  0  0  0  0  0  0  0  0  0  0
   63.2650   33.8500   46.4690 C   0  0  0  0  0  0  0  0  0  0  0  0
   63.5000   33.9290   47.8110 N   0  0  0  0  0  0  0  0  0  0  0  0
   62.4450   33.8400   48.6560 C   0  0  0  0  0  0  0  0  0  0  0  0
   62.4930   33.9390   49.9920 N   0  0  0  0  0  0  0  0  0  0  0  0
   61.2080   33.8490   50.4050 C   0  0  0  0  0  0  0  0  0  0  0  0
   60.3480   33.6920   49.3210 C   0  0  0  0  0  0  0  0  0  0  0  0
   61.1660   33.6800   48.2090 C   0  0  0  0  0  0  0  0  0  0  0  0
   58.7830   32.3000   46.7730 C   0  0  0  0  0  0  0  0  0  0  0  0
   57.7690   31.8280   45.6850 C   0  0  2  0  0  0  0  0  0  0  0  0
   58.1070   30.4490   45.1240 C   0  0  0  0  0  0  0  0  0  0  0  0
   57.1440   29.6740   44.4460 C   0  0  0  0  0  0  0  0  0  0  0  0
   57.4650   28.3970   43.9750 C   0  0  0  0  0  0  0  0  0  0  0  0
   58.7440   27.8750   44.1840 C   0  0  0  0  0  0  0  0  0  0  0  0
   59.7010   28.6240   44.8710 C   0  0  0  0  0  0  0  0  0  0  0  0
   59.3850   29.9010   45.3440 C   0  0  0  0  0  0  0  0  0  0  0  0
   56.8152   31.3836   42.6370 H   0  0  0  0  0  0  0  0  0  0  0  0
   57.0969   32.8409   41.6252 H   0  0  0  0  0  0  0  0  0  0  0  0
   58.2948   31.5024   41.6252 H   0  0  0  0  0  0  0  0  0  0  0  0
   59.2108   32.1292   43.6423 H   0  0  0  0  0  0  0  0  0  0  0  0
   58.5893   33.7502   43.0848 H   0  0  0  0  0  0  0  0  0  0  0  0
   57.1908   34.9398   44.4610 H   0  0  0  0  0  0  0  0  0  0  0  0
   56.8289   34.2264   46.0849 H   0  0  0  0  0  0  0  0  0  0  0  0
   59.5105   34.9510   44.8583 H   0  0  0  0  0  0  0  0  0  0  0  0
   58.8259   35.3719   46.4771 H   0  0  0  0  0  0  0  0  0  0  0  0
   64.1058   33.9144   45.7627 H   0  0  0  0  0  0  0  0  0  0  0  0
   63.3390   34.0780   50.5880 H   0  0  0  0  0  0  0  0  0  0  0  0
   60.8857   33.8938   51.4558 H   0  0  0  0  0  0  0  0  0  0  0  0
   59.2523   33.5978   49.3455 H   0  0  0  0  0  0  0  0  0  0  0  0
   59.4504   31.4628   47.0255 H   0  0  0  0  0  0  0  0  0  0  0  0
   58.2123   32.6287   47.6540 H   0  0  0  0  0  0  0  0  0  0  0  0
   56.8091   31.7091   46.2089 H   0  0  0  0  0  0  0  0  0  0  0  0
   56.1329   30.0767   44.2863 H   0  0  0  0  0  0  0  0  0  0  0  0
   56.7098   27.8029   43.4395 H   0  0  0  0  0  0  0  0  0  0  0  0
   58.9971   26.8731   43.8069 H   0  0  0  0  0  0  0  0  0  0  0  0
   60.7054   28.2087   45.0404 H   0  0  0  0  0  0  0  0  0  0  0  0
   60.1409   30.4822   45.8924 H   0  0  0  0  0  0  0  0  0  0  0  0
  1  2  1  0
  2  3  1  0
  3  4  1  0
  4  5  1  0
  5  6  1  0
  6  7  1  0
  7  8  2  0
  8  9  1  0
  9 10  2  0
 10 11  1  0
 11 12  1  0
 12 13  1  0
 13 14  2  0
 14 15  1  0
  6 16  1  0
 16 17  1  0
 17 18  1  0
 18 19  2  0
 19 20  1  0
 20 21  2  0
 21 22  1  0
 22 23  2  0
 17  3  1  0
 23 18  1  0
 15  7  1  0
 15 11  2  0
  1 24  1  0
  1 25  1  0
  1 26  1  0
  2 27  1  0
  2 28  1  0
  4 29  1  0
  4 30  1  0
  5 31  1  0
  5 32  1  0
  9 33  1  0
 12 34  1  0
 13 35  1  0
 14 36  1  0
 16 37  1  0
 16 38  1  0
 17 39  1  1
 19 40  1  0
 20 41  1  0
 21 42  1  0
 22 43  1  0
 23 44  1  0
M  END
>  <UniqueID>  (31) 
31

>  <SMILES>  (31) 
CCN1CCN(c2ncnc3[nH]ccc23)C[C@@H]1c1ccccc1

>  <Energy>  (31) 
102.15119632374969

>  <Genealogy>  (31) 
CCN1CCN(c2ncnc3[nH]ccc23)C[C@@H]1c1ccccc1 (chirality)
CCN1CCN(c2ncnc3[nH]ccc23)C[C@@H]1c1ccccc1 (3D coordinates assigned)
CCN1CCN(c2ncnc3[nH]ccc23)C[C@@H]1c1ccccc1 (nonaromatic ring conformer: 102.15119632374969 kcal/mol)

>  <smiles>  (31) 
CCN1CCN(c2ncnc3[nH]ccc23)CC1c1ccccc1

>  <score_type>  (31) 
oracle

>  <origin>  (31) 
adg

>  <m_score__min__energy>  (31) 
-7.4699999999999998

>  <m_primary>  (31) 
energy

$$$$
31:0
     RDKit          3D

 41 43  0  0  0  0  0  0  0  0999 V2000
   57.2770   21.4320   42.8640 C   0  0  0  0  0  0  0  0  0  0  0  0
   56.1650   21.8090   43.7510 N   0  0  0  0  0  0  0  0  0  0  0  0
   56.3030   21.3800   45.1590 C   0  0  0  0  0  0  0  0  0  0  0  0
   57.0210   22.3820   46.0900 C   0  0  0  0  0  0  0  0  0  0  0  0
   56.2570   23.6790   46.4140 C   0  0  0  0  0  0  0  0  0  0  0  0
   56.4310   24.7050   45.3810 N   0  0  0  0  0  0  0  0  0  0  0  0
   56.1570   26.0900   45.6690 C   0  0  0  0  0  0  0  0  0  0  0  0
   55.0620   26.4100   46.2030 O   0  0  0  0  0  0  0  0  0  0  0  0
   57.1160   27.1490   45.3210 C   0  0  0  0  0  0  0  0  0  0  0  0
   58.4100   26.9740   44.8650 C   0  0  0  0  0  0  0  0  0  0  0  0
   58.8680   28.2510   44.6280 C   0  0  0  0  0  0  0  0  0  0  0  0
   57.8840   29.1280   44.9240 N   0  0  0  0  0  0  0  0  0  0  0  0
   57.9290   30.5650   44.8050 C   0  0  0  0  0  0  0  0  0  0  0  0
   57.7520   31.1730   43.5480 C   0  0  0  0  0  0  0  0  0  0  0  0
   57.7920   32.5640   43.4170 C   0  0  0  0  0  0  0  0  0  0  0  0
   58.0030   33.3670   44.5390 C   0  0  0  0  0  0  0  0  0  0  0  0
   58.1730   32.7800   45.7950 C   0  0  0  0  0  0  0  0  0  0  0  0
   58.1350   31.3890   45.9310 C   0  0  0  0  0  0  0  0  0  0  0  0
   56.8150   28.4630   45.3360 N   0  0  0  0  0  0  0  0  0  0  0  0
   56.6630   24.2770   43.9990 C   0  0  0  0  0  0  0  0  0  0  0  0
   55.6710   23.1880   43.5660 C   0  0  0  0  0  0  0  0  0  0  0  0
   58.1461   21.1373   43.4705 H   0  0  0  0  0  0  0  0  0  0  0  0
   56.9697   20.5878   42.2292 H   0  0  0  0  0  0  0  0  0  0  0  0
   57.5464   22.2890   42.2292 H   0  0  0  0  0  0  0  0  0  0  0  0
   55.2940   21.2062   45.5612 H   0  0  0  0  0  0  0  0  0  0  0  0
   56.9331   20.4785   45.1406 H   0  0  0  0  0  0  0  0  0  0  0  0
   57.2273   21.8680   47.0404 H   0  0  0  0  0  0  0  0  0  0  0  0
   57.9200   22.7000   45.5417 H   0  0  0  0  0  0  0  0  0  0  0  0
   55.1858   23.4450   46.5022 H   0  0  0  0  0  0  0  0  0  0  0  0
   56.6617   24.0796   47.3551 H   0  0  0  0  0  0  0  0  0  0  0  0
   58.9518   26.0272   44.7234 H   0  0  0  0  0  0  0  0  0  0  0  0
   59.8702   28.5137   44.2585 H   0  0  0  0  0  0  0  0  0  0  0  0
   57.5805   30.5472   42.6598 H   0  0  0  0  0  0  0  0  0  0  0  0
   57.6570   33.0266   42.4282 H   0  0  0  0  0  0  0  0  0  0  0  0
   58.0354   34.4615   44.4342 H   0  0  0  0  0  0  0  0  0  0  0  0
   58.3372   33.4135   46.6791 H   0  0  0  0  0  0  0  0  0  0  0  0
   58.2668   30.9338   46.9237 H   0  0  0  0  0  0  0  0  0  0  0  0
   56.5511   25.1457   43.3335 H   0  0  0  0  0  0  0  0  0  0  0  0
   57.6787   23.8594   43.9360 H   0  0  0  0  0  0  0  0  0  0  0  0
   54.7502   23.3063   44.1560 H   0  0  0  0  0  0  0  0  0  0  0  0
   55.5068   23.3221   42.4866 H   0  0  0  0  0  0  0  0  0  0  0  0
  1  2  1  0
  2  3  1  0
  3  4  1  0
  4  5  1  0
  5  6  1  0
  6  7  1  0
  7  8  2  0
  7  9  1  0
  9 10  1  0
 10 11  2  0
 11 12  1  0
 12 13  1  0
 13 14  2  0
 14 15  1  0
 15 16  2  0
 16 17  1  0
 17 18  2  0
 12 19  1  0
  6 20  1  0
 20 21  1  0
 21  2  1  0
 19  9  2  0
 18 13  1  0
  1 22  1  0
  1 23  1  0
  1 24  1  0
  3 25  1  0
  3 26  1  0
  4 27  1  0
  4 28  1  0
  5 29  1  0
  5 30  1  0
 10 31  1  0
 11 32  1  0
 14 33  1  0
 15 34  1  0
 16 35  1  0
 17 36  1  0
 18 37  1  0
 20 38  1  0
 20 39  1  0
 21 40  1  0
 21 41  1  0
M  END
>  <UniqueID>  (32) 
32

>  <SMILES>  (32) 
CN1CCCN(C(=O)c2ccn(-c3ccccc3)n2)CC1

>  <Energy>  (32) 
87.69414992553811

>  <Genealogy>  (32) 
CN1CCCN(C(=O)c2ccn(-c3ccccc3)n2)CC1 (3D coordinates assigned)
CN1CCCN(C(=O)c2ccn(-c3ccccc3)n2)CC1 (nonaromatic ring conformer: 87.69414992553811 kcal/mol)

>  <smiles>  (32) 
CN1CCCN(C(=O)c2ccn(-c3ccccc3)n2)CC1

>  <score_type>  (32) 
oracle

>  <origin>  (32) 
adg

>  <m_score__min__energy>  (32) 
-5.5700000000000003

>  <m_primary>  (32) 
energy

$$$$
32:0
     RDKit          3D

 46 49  0  0  0  0  0  0  0  0999 V2000
   65.7890   32.1950   50.5020 C   0  0  0  0  0  0  0  0  0  0  0  0
   64.4950   32.7540   49.9940 C   0  0  0  0  0  0  0  0  0  0  0  0
   63.5800   33.3530   50.8910 C   0  0  0  0  0  0  0  0  0  0  0  0
   62.3800   33.9140   50.4220 C   0  0  0  0  0  0  0  0  0  0  0  0
   62.1110   33.8820   49.0530 C   0  0  0  0  0  0  0  0  0  0  0  0
   60.9740   34.3980   48.4230 C   0  0  0  0  0  0  0  0  0  0  0  0
   61.0120   34.2120   47.0430 C   0  0  0  0  0  0  0  0  0  0  0  0
   59.7800   34.7580   45.9220 S   0  0  0  0  0  0  0  0  0  0  0  0
   59.9150   33.9780   44.6440 O   0  0  0  0  0  0  0  0  0  0  0  0
   59.9970   36.2170   45.6280 O   0  0  0  0  0  0  0  0  0  0  0  0
   58.2030   34.4940   46.6350 N   0  0  0  0  0  0  0  0  0  0  0  0
   57.1880   34.1750   45.6150 C   0  0  0  0  0  0  0  0  0  0  0  0
   57.2300   32.7390   45.1620 C   0  0  0  0  0  0  0  0  0  0  0  0
   57.7640   31.7690   45.9130 C   0  0  0  0  0  0  0  0  0  0  0  0
   57.7410   30.4110   45.4350 C   0  0  0  0  0  0  0  0  0  0  0  0
   57.7220   29.2740   45.0360 C   0  0  0  0  0  0  0  0  0  0  0  0
   57.6990   27.9170   44.5580 C   0  0  0  0  0  0  0  0  0  0  0  0
   57.5810   26.8550   45.4660 C   0  0  0  0  0  0  0  0  0  0  0  0
   57.5590   25.5350   45.0010 C   0  0  0  0  0  0  0  0  0  0  0  0
   57.6540   25.2750   43.6290 C   0  0  0  0  0  0  0  0  0  0  0  0
   57.7720   26.3330   42.7230 C   0  0  0  0  0  0  0  0  0  0  0  0
   57.7940   27.6530   43.1840 C   0  0  0  0  0  0  0  0  0  0  0  0
   58.5170   32.0720   47.1810 C   0  0  0  0  0  0  0  0  0  0  0  0
   58.2320   33.4860   47.7090 C   0  0  0  0  0  0  0  0  0  0  0  0
   62.4420   33.4260   46.6020 S   0  0  0  0  0  0  0  0  0  0  0  0
   63.0190   33.3080   48.1760 C   0  0  0  0  0  0  0  0  0  0  0  0
   64.2160   32.7460   48.6130 C   0  0  0  0  0  0  0  0  0  0  0  0
   65.7829   32.1976   51.6020 H   0  0  0  0  0  0  0  0  0  0  0  0
   65.9109   31.1640   50.1385 H   0  0  0  0  0  0  0  0  0  0  0  0
   66.6232   32.8130   50.1385 H   0  0  0  0  0  0  0  0  0  0  0  0
   63.8100   33.3800   51.9663 H   0  0  0  0  0  0  0  0  0  0  0  0
   61.6648   34.3706   51.1220 H   0  0  0  0  0  0  0  0  0  0  0  0
   60.1474   34.8923   48.9544 H   0  0  0  0  0  0  0  0  0  0  0  0
   56.1928   34.3792   46.0368 H   0  0  0  0  0  0  0  0  0  0  0  0
   57.4015   34.8006   44.7358 H   0  0  0  0  0  0  0  0  0  0  0  0
   56.8072   32.4790   44.1803 H   0  0  0  0  0  0  0  0  0  0  0  0
   57.5057   27.0594   46.5442 H   0  0  0  0  0  0  0  0  0  0  0  0
   57.4671   24.7021   45.7137 H   0  0  0  0  0  0  0  0  0  0  0  0
   57.6358   24.2377   43.2635 H   0  0  0  0  0  0  0  0  0  0  0  0
   57.8477   26.1267   41.6452 H   0  0  0  0  0  0  0  0  0  0  0  0
   57.8858   28.4840   42.4691 H   0  0  0  0  0  0  0  0  0  0  0  0
   58.2224   31.3422   47.9495 H   0  0  0  0  0  0  0  0  0  0  0  0
   59.5918   32.0091   46.9554 H   0  0  0  0  0  0  0  0  0  0  0  0
   57.2560   33.4830   48.2165 H   0  0  0  0  0  0  0  0  0  0  0  0
   59.0455   33.7556   48.3986 H   0  0  0  0  0  0  0  0  0  0  0  0
   64.9264   32.3065   47.8973 H   0  0  0  0  0  0  0  0  0  0  0  0
  1  2  1  0
  2  3  2  0
  3  4  1  0
  4  5  2  0
  5  6  1  0
  6  7  2  0
  7  8  1  0
  8  9  2  0
  8 10  2  0
  8 11  1  0
 11 12  1  0
 12 13  1  0
 13 14  2  0
 14 15  1  0
 15 16  3  0
 16 17  1  0
 17 18  2  0
 18 19  1  0
 19 20  2  0
 20 21  1  0
 21 22  2  0
 14 23  1  0
 23 24  1  0
  7 25  1  0
 25 26  1  0
 26 27  2  0
 27  2  1  0
 26  5  1  0
 24 11  1  0
 22 17  1  0
  1 28  1  0
  1 29  1  0
  1 30  1  0
  3 31  1  0
  4 32  1  0
  6 33  1  0
 12 34  1  0
 12 35  1  0
 13 36  1  0
 18 37  1  0
 19 38  1  0
 20 39  1  0
 21 40  1  0
 22 41  1  0
 23 42  1  0
 23 43  1  0
 24 44  1  0
 24 45  1  0
 27 46  1  0
M  END
>  <UniqueID>  (33) 
33

>  <SMILES>  (33) 
Cc1ccc2cc(S(=O)(=O)N3CC=C(C#Cc4ccccc4)CC3)sc2c1

>  <Energy>  (33) 
78.80663853656382

>  <Genealogy>  (33) 
Cc1ccc2cc(S(=O)(=O)N3CC=C(C#Cc4ccccc4)CC3)sc2c1 (3D coordinates assigned)
Cc1ccc2cc(S(=O)(=O)N3CC=C(C#Cc4ccccc4)CC3)sc2c1 (nonaromatic ring conformer: 78.80663853656382 kcal/mol)

>  <smiles>  (33) 
Cc1ccc2cc(S(=O)(=O)N3CC=C(C#Cc4ccccc4)CC3)sc2c1

>  <score_type>  (33) 
oracle

>  <origin>  (33) 
adg

>  <m_score__min__energy>  (33) 
-9.1300000000000008

>  <m_primary>  (33) 
energy

$$$$
33:0
     RDKit          3D

 44 45  0  0  0  0  0  0  0  0999 V2000
   62.7520   33.1680   47.1230 C   0  0  0  0  0  0  0  0  0  0  0  0
   62.4730   31.8620   47.1470 C   0  0  0  0  0  0  0  0  0  0  0  0
   61.1570   31.3540   47.6640 C   0  0  0  0  0  0  0  0  0  0  0  0
   60.2720   31.0570   46.5850 O   0  0  0  0  0  0  0  0  0  0  0  0
   59.3060   31.9260   46.0490 C   0  0  0  0  0  0  0  0  0  0  0  0
   59.1030   33.2190   46.5730 C   0  0  0  0  0  0  0  0  0  0  0  0
   58.1610   34.0760   46.0050 C   0  0  0  0  0  0  0  0  0  0  0  0
   57.4110   33.6610   44.9060 C   0  0  0  0  0  0  0  0  0  0  0  0
   57.5950   32.3830   44.3780 C   0  0  0  0  0  0  0  0  0  0  0  0
   58.5240   31.4980   44.9470 C   0  0  0  0  0  0  0  0  0  0  0  0
   58.6780   30.1920   44.3560 N   0  0  0  0  0  0  0  0  0  0  0  0
   58.3050   28.9630   44.9960 C   0  0  0  0  0  0  0  0  0  0  0  0
   59.3100   28.1030   45.4600 C   0  0  0  0  0  0  0  0  0  0  0  0
   60.6500   28.4480   45.2840 O   0  0  0  0  0  0  0  0  0  0  0  0
   58.9700   26.9110   46.1110 C   0  0  0  0  0  0  0  0  0  0  0  0
   57.6220   26.5540   46.3030 C   0  0  0  0  0  0  0  0  0  0  0  0
   57.2500   25.3360   46.9870 N   0  0  0  0  0  0  0  0  0  0  0  0
   57.0750   24.0300   46.3340 C   0  0  0  0  0  0  0  0  0  0  0  0
   55.9000   24.0800   45.3510 C   0  0  0  0  0  0  0  0  0  0  0  0
   58.3590   23.6320   45.5980 C   0  0  0  0  0  0  0  0  0  0  0  0
   56.6170   27.4140   45.8180 C   0  0  0  0  0  0  0  0  0  0  0  0
   55.2760   27.0780   45.9780 O   0  0  0  0  0  0  0  0  0  0  0  0
   56.9530   28.6090   45.1620 C   0  0  0  0  0  0  0  0  0  0  0  0
   55.5470   29.7120   44.4560 Br  0  0  0  0  0  0  0  0  0  0  0  0
   63.7226   33.5161   46.7398 H   0  0  0  0  0  0  0  0  0  0  0  0
   62.0112   33.8954   47.4864 H   0  0  0  0  0  0  0  0  0  0  0  0
   63.2217   31.1441   46.7809 H   0  0  0  0  0  0  0  0  0  0  0  0
   61.3285   30.4405   48.2523 H   0  0  0  0  0  0  0  0  0  0  0  0
   60.6997   32.1324   48.2925 H   0  0  0  0  0  0  0  0  0  0  0  0
   59.6934   33.5550   47.4382 H   0  0  0  0  0  0  0  0  0  0  0  0
   58.0096   35.0813   46.4250 H   0  0  0  0  0  0  0  0  0  0  0  0
   56.6738   34.3414   44.4549 H   0  0  0  0  0  0  0  0  0  0  0  0
   57.0052   32.0651   43.5056 H   0  0  0  0  0  0  0  0  0  0  0  0
   59.1300   30.1240   43.4160 H   0  0  0  0  0  0  0  0  0  0  0  0
   60.9740   29.4000   45.4080 H   0  0  0  0  0  0  0  0  0  0  0  0
   59.7658   26.2455   46.4768 H   0  0  0  0  0  0  0  0  0  0  0  0
   57.0870   25.3860   48.0180 H   0  0  0  0  0  0  0  0  0  0  0  0
   56.8583   23.2769   47.1059 H   0  0  0  0  0  0  0  0  0  0  0  0
   54.9544   24.1202   45.9116 H   0  0  0  0  0  0  0  0  0  0  0  0
   55.9894   24.9752   44.7180 H   0  0  0  0  0  0  0  0  0  0  0  0
   55.9130   23.1805   44.7180 H   0  0  0  0  0  0  0  0  0  0  0  0
   59.1419   23.3893   46.3316 H   0  0  0  0  0  0  0  0  0  0  0  0
   58.1624   22.7526   44.9671 H   0  0  0  0  0  0  0  0  0  0  0  0
   58.6943   24.4684   44.9671 H   0  0  0  0  0  0  0  0  0  0  0  0
  1  2  2  0
  2  3  1  0
  3  4  1  0
  4  5  1  0
  5  6  2  0
  6  7  1  0
  7  8  2  0
  8  9  1  0
  9 10  2  0
 10 11  1  0
 11 12  1  0
 12 13  2  0
 13 14  1  0
 13 15  1  0
 15 16  2  0
 16 17  1  0
 17 18  1  0
 18 19  1  0
 18 20  1  0
 16 21  1  0
 21 22  1  0
 21 23  2  0
 23 24  1  0
 10  5  1  0
 23 12  1  0
  1 25  1  0
  1 26  1  0
  2 27  1  0
  3 28  1  0
  3 29  1  0
  6 30  1  0
  7 31  1  0
  8 32  1  0
  9 33  1  0
 11 34  1  0
 14 35  1  0
 15 36  1  0
 17 37  1  0
 18 38  1  0
 19 39  1  0
 19 40  1  0
 19 41  1  0
 20 42  1  0
 20 43  1  0
 20 44  1  0
M  CHG  1  22  -1
M  END
>  <UniqueID>  (34) 
34

>  <SMILES>  (34) 
C=CCOc1ccccc1Nc1c(O)cc(NC(C)C)c([O-])c1Br

>  <Energy>  (34) 
47.3298817489697

>  <Genealogy>  (34) 
C=CCOc1ccccc1Nc1c(O)cc(NC(C)C)c([O-])c1Br (protonated)
C=CCOc1ccccc1Nc1c(O)cc(NC(C)C)c([O-])c1Br (3D coordinates assigned)
C=CCOc1ccccc1Nc1c(O)cc(NC(C)C)c([O-])c1Br (optimized conformer: 47.3298817489697 kcal/mol)

>  <smiles>  (34) 
C=CCOc1ccccc1Nc1c(O)cc(NC(C)C)c(O)c1Br

>  <score_type>  (34) 
oracle

>  <origin>  (34) 
adg

>  <m_score__min__energy>  (34) 
-9.9900000000000002

>  <m_primary>  (34) 
energy

$$$$
34:0
     RDKit          3D

 34 35  0  0  0  0  0  0  0  0999 V2000
   59.8600   34.5880   48.4410 C   0  0  0  0  0  0  0  0  0  0  0  0
   59.4390   34.7260   47.0870 O   0  0  0  0  0  0  0  0  0  0  0  0
   58.8050   33.7160   46.3490 C   0  0  0  0  0  0  0  0  0  0  0  0
   58.0020   33.9920   45.2250 C   0  0  0  0  0  0  0  0  0  0  0  0
   57.3910   32.9490   44.5230 C   0  0  0  0  0  0  0  0  0  0  0  0
   57.5680   31.6220   44.9350 C   0  0  0  0  0  0  0  0  0  0  0  0
   56.7810   30.3040   44.0710 S   0  0  0  0  0  0  0  0  0  0  0  0
   55.6260   29.7600   44.8670 O   0  0  0  0  0  0  0  0  0  0  0  0
   56.2670   30.8260   42.7590 O   0  0  0  0  0  0  0  0  0  0  0  0
   57.9180   29.0270   43.7750 N   0  0  0  0  0  0  0  0  0  0  0  0
   58.4650   28.1840   44.8040 C   0  0  0  0  0  0  0  0  0  0  0  0
   59.8010   28.3640   45.1940 C   0  0  0  0  0  0  0  0  0  0  0  0
   60.3570   27.5760   46.2050 C   0  0  0  0  0  0  0  0  0  0  0  0
   59.5890   26.5940   46.8330 C   0  0  0  0  0  0  0  0  0  0  0  0
   58.2600   26.3810   46.4380 C   0  0  0  0  0  0  0  0  0  0  0  0
   57.4210   25.3500   47.1360 C   0  0  0  0  0  0  0  0  0  0  0  0
   57.6980   27.1830   45.4330 C   0  0  0  0  0  0  0  0  0  0  0  0
   58.3700   31.3460   46.0480 C   0  0  0  0  0  0  0  0  0  0  0  0
   58.9820   32.3870   46.7500 C   0  0  0  0  0  0  0  0  0  0  0  0
   59.0317   34.8595   49.1120 H   0  0  0  0  0  0  0  0  0  0  0  0
   60.1569   33.5455   48.6282 H   0  0  0  0  0  0  0  0  0  0  0  0
   60.7164   35.2524   48.6282 H   0  0  0  0  0  0  0  0  0  0  0  0
   57.8552   35.0321   44.8985 H   0  0  0  0  0  0  0  0  0  0  0  0
   56.7687   33.1712   43.6436 H   0  0  0  0  0  0  0  0  0  0  0  0
   58.2770   28.9330   42.7990 H   0  0  0  0  0  0  0  0  0  0  0  0
   60.4152   29.1313   44.7000 H   0  0  0  0  0  0  0  0  0  0  0  0
   61.4034   27.7300   46.5071 H   0  0  0  0  0  0  0  0  0  0  0  0
   60.0266   25.9863   47.6388 H   0  0  0  0  0  0  0  0  0  0  0  0
   57.5204   25.4722   48.2247 H   0  0  0  0  0  0  0  0  0  0  0  0
   56.3673   25.4781   46.8474 H   0  0  0  0  0  0  0  0  0  0  0  0
   57.7606   24.3443   46.8474 H   0  0  0  0  0  0  0  0  0  0  0  0
   56.6507   27.0292   45.1339 H   0  0  0  0  0  0  0  0  0  0  0  0
   58.5191   30.3052   46.3713 H   0  0  0  0  0  0  0  0  0  0  0  0
   59.6083   32.1603   47.6254 H   0  0  0  0  0  0  0  0  0  0  0  0
  1  2  1  0
  2  3  1  0
  3  4  2  0
  4  5  1  0
  5  6  2  0
  6  7  1  0
  7  8  2  0
  7  9  2  0
  7 10  1  0
 10 11  1  0
 11 12  2  0
 12 13  1  0
 13 14  2  0
 14 15  1  0
 15 16  1  0
 15 17  2  0
  6 18  1  0
 18 19  2  0
 19  3  1  0
 17 11  1  0
  1 20  1  0
  1 21  1  0
  1 22  1  0
  4 23  1  0
  5 24  1  0
 10 25  1  0
 12 26  1  0
 13 27  1  0
 14 28  1  0
 16 29  1  0
 16 30  1  0
 16 31  1  0
 17 32  1  0
 18 33  1  0
 19 34  1  0
M  END
>  <UniqueID>  (35) 
35

>  <SMILES>  (35) 
COc1ccc(S(=O)(=O)Nc2cccc(C)c2)cc1

>  <Energy>  (35) 
35.26858093517988

>  <Genealogy>  (35) 
COc1ccc(S(=O)(=O)Nc2cccc(C)c2)cc1 (3D coordinates assigned)
COc1ccc(S(=O)(=O)Nc2cccc(C)c2)cc1 (optimized conformer: 35.26858093517988 kcal/mol)

>  <smiles>  (35) 
COc1ccc(S(=O)(=O)Nc2cccc(C)c2)cc1

>  <score_type>  (35) 
oracle

>  <origin>  (35) 
adg

>  <m_score__min__energy>  (35) 
-7.1500000000000004

>  <m_primary>  (35) 
energy

$$$$
35:0
     RDKit          3D

 54 57  0  0  0  0  0  0  0  0999 V2000
   63.6490   33.5070   47.1910 C   0  0  0  0  0  0  0  0  0  0  0  0
   62.2420   33.7540   47.4970 N   0  0  0  0  0  0  0  0  0  0  0  0
   61.3280   34.2150   46.6200 C   0  0  0  0  0  0  0  0  0  0  0  0
   60.0760   34.2230   47.2100 C   0  0  0  0  0  0  0  0  0  0  0  0
   58.7480   34.5530   46.5680 C   0  0  1  0  0  0  0  0  0  0  0  0
   58.8890   34.8530   45.0590 C   0  0  0  0  0  0  0  0  0  0  0  0
   58.9090   33.5990   44.1540 C   0  0  0  0  0  0  0  0  0  0  0  0
   58.1400   32.4430   44.6900 N   0  0  2  0  0  0  0  0  0  0  0  0
   57.5760   31.6630   43.5940 C   0  0  0  0  0  0  0  0  0  0  0  0
   57.3960   32.2010   42.5090 O   0  0  0  0  0  0  0  0  0  0  0  0
   57.2030   30.1930   43.7020 C   0  0  0  0  0  0  0  0  0  0  0  0
   56.2330   29.6660   42.6550 C   0  0  0  0  0  0  0  0  0  0  0  0
   55.7840   29.8160   44.1050 C   0  0  0  0  0  0  0  0  0  0  0  0
   57.0680   32.8560   45.6180 C   0  0  0  0  0  0  0  0  0  0  0  0
   57.6710   33.4830   46.8840 C   0  0  0  0  0  0  0  0  0  0  0  0
   60.2350   33.7200   48.4890 C   0  0  0  0  0  0  0  0  0  0  0  0
   61.5810   33.4420   48.6350 C   0  0  0  0  0  0  0  0  0  0  0  0
   62.1750   32.7350   49.8250 C   0  0  0  0  0  0  0  0  0  0  0  0
   62.2110   31.2120   49.6250 C   0  0  0  0  0  0  0  0  0  0  0  0
   61.1560   30.7500   48.6500 C   0  0  0  0  0  0  0  0  0  0  0  0
   61.4720   30.6000   47.2880 C   0  0  0  0  0  0  0  0  0  0  0  0
   60.5110   30.1200   46.3920 C   0  0  0  0  0  0  0  0  0  0  0  0
   59.2330   29.7800   46.8500 C   0  0  0  0  0  0  0  0  0  0  0  0
   58.9150   29.9170   48.2050 C   0  0  0  0  0  0  0  0  0  0  0  0
   59.8720   30.4000   49.1040 C   0  0  0  0  0  0  0  0  0  0  0  0
   64.2161   33.4074   48.1283 H   0  0  0  0  0  0  0  0  0  0  0  0
   63.7399   32.5792   46.6072 H   0  0  0  0  0  0  0  0  0  0  0  0
   64.0505   34.3484   46.6072 H   0  0  0  0  0  0  0  0  0  0  0  0
   61.5445   34.5364   45.5905 H   0  0  0  0  0  0  0  0  0  0  0  0
   58.3878   35.4872   47.0235 H   0  0  0  0  0  0  0  0  0  0  0  0
   59.8291   35.4030   44.9046 H   0  0  0  0  0  0  0  0  0  0  0  0
   57.9991   35.4320   44.7711 H   0  0  0  0  0  0  0  0  0  0  0  0
   59.9552   33.2855   44.0232 H   0  0  0  0  0  0  0  0  0  0  0  0
   58.4265   33.8862   43.2081 H   0  0  0  0  0  0  0  0  0  0  0  0
   58.7940   31.8510   45.2450 H   0  0  0  0  0  0  0  0  0  0  0  0
   58.1994   29.9125   44.0741 H   0  0  0  0  0  0  0  0  0  0  0  0
   55.8358   30.3419   41.8834 H   0  0  0  0  0  0  0  0  0  0  0  0
   56.2469   28.8423   41.9261 H   0  0  0  0  0  0  0  0  0  0  0  0
   55.0632   30.6002   44.3795 H   0  0  0  0  0  0  0  0  0  0  0  0
   55.3401   29.1457   44.8558 H   0  0  0  0  0  0  0  0  0  0  0  0
   56.4713   31.9754   45.8981 H   0  0  0  0  0  0  0  0  0  0  0  0
   56.4300   33.6004   45.1191 H   0  0  0  0  0  0  0  0  0  0  0  0
   58.1327   32.6862   47.4856 H   0  0  0  0  0  0  0  0  0  0  0  0
   56.8557   33.9830   47.4275 H   0  0  0  0  0  0  0  0  0  0  0  0
   59.4462   33.5708   49.2410 H   0  0  0  0  0  0  0  0  0  0  0  0
   63.2019   33.0982   49.9788 H   0  0  0  0  0  0  0  0  0  0  0  0
   61.5441   32.9499   50.7001 H   0  0  0  0  0  0  0  0  0  0  0  0
   63.2011   30.9267   49.2400 H   0  0  0  0  0  0  0  0  0  0  0  0
   62.0119   30.7347   50.5959 H   0  0  0  0  0  0  0  0  0  0  0  0
   62.4775   30.8608   46.9262 H   0  0  0  0  0  0  0  0  0  0  0  0
   60.7601   30.0097   45.3263 H   0  0  0  0  0  0  0  0  0  0  0  0
   58.4779   29.4047   46.1436 H   0  0  0  0  0  0  0  0  0  0  0  0
   57.9116   29.6448   48.5642 H   0  0  0  0  0  0  0  0  0  0  0  0
   59.6192   30.5063   50.1693 H   0  0  0  0  0  0  0  0  0  0  0  0
  1  2  1  0
  2  3  1  0
  3  4  2  0
  4  5  1  0
  5  6  1  0
  6  7  1  0
  7  8  1  0
  8  9  1  0
  9 10  2  0
  9 11  1  0
 11 12  1  0
 12 13  1  0
  8 14  1  0
 14 15  1  0
  4 16  1  0
 16 17  2  0
 17 18  1  0
 18 19  1  0
 19 20  1  0
 20 21  2  0
 21 22  1  0
 22 23  2  0
 23 24  1  0
 24 25  2  0
 17  2  1  0
 25 20  1  0
 15  5  1  0
 13 11  1  0
  1 26  1  0
  1 27  1  0
  1 28  1  0
  3 29  1  0
  5 30  1  1
  6 31  1  0
  6 32  1  0
  7 33  1  0
  7 34  1  0
  8 35  1  1
 11 36  1  0
 12 37  1  0
 12 38  1  0
 13 39  1  0
 13 40  1  0
 14 41  1  0
 14 42  1  0
 15 43  1  0
 15 44  1  0
 16 45  1  0
 18 46  1  0
 18 47  1  0
 19 48  1  0
 19 49  1  0
 21 50  1  0
 22 51  1  0
 23 52  1  0
 24 53  1  0
 25 54  1  0
M  CHG  1   8   1
M  END
>  <UniqueID>  (36) 
36

>  <SMILES>  (36) 
Cn1cc(C2CC[NH+](C(=O)C3CC3)CC2)cc1CCc1ccccc1

>  <Energy>  (36) 
352.4671685713645

>  <Genealogy>  (36) 
Cn1cc(C2CC[NH+](C(=O)C3CC3)CC2)cc1CCc1ccccc1 (protonated)
Cn1cc(C2CC[NH+](C(=O)C3CC3)CC2)cc1CCc1ccccc1 (3D coordinates assigned)
Cn1cc(C2CC[NH+](C(=O)C3CC3)CC2)cc1CCc1ccccc1 (nonaromatic ring conformer: 352.4671685713645 kcal/mol)

>  <smiles>  (36) 
Cn1cc(C2CCN(C(=O)C3CC3)CC2)cc1CCc1ccccc1

>  <score_type>  (36) 
oracle

>  <origin>  (36) 
adg

>  <m_score__min__energy>  (36) 
-7.25

>  <m_primary>  (36) 
energy

$$$$
36:0
     RDKit          3D

 36 36  0  0  0  0  0  0  0  0999 V2000
   54.5880   25.0030   45.6130 C   0  0  0  0  0  0  0  0  0  0  0  0
   54.8850   26.3350   45.9700 O   0  0  0  0  0  0  0  0  0  0  0  0
   56.2840   26.5210   46.0750 C   0  0  0  0  0  0  0  0  0  0  0  0
   56.6640   27.8580   45.5220 C   0  0  0  0  0  0  0  0  0  0  0  0
   57.8720   28.2170   45.5210 O   0  0  0  0  0  0  0  0  0  0  0  0
   55.6440   28.7190   45.0030 N   0  0  0  0  0  0  0  0  0  0  0  0
   55.7820   29.6510   43.8830 C   0  0  2  0  0  0  0  0  0  0  0  0
   56.6600   29.0510   42.7800 C   0  0  0  0  0  0  0  0  0  0  0  0
   56.3060   31.0270   44.3440 C   0  0  0  0  0  0  0  0  0  0  0  0
   57.0420   30.9480   45.6170 N   0  0  0  0  0  0  0  0  0  0  0  0
   58.4980   31.1030   45.4550 C   0  0  0  0  0  0  0  0  0  0  0  0
   58.8910   32.5420   45.6620 C   0  0  0  0  0  0  0  0  0  0  0  0
   58.5270   33.5150   44.7150 C   0  0  0  0  0  0  0  0  0  0  0  0
   58.9080   34.8480   44.8900 C   0  0  0  0  0  0  0  0  0  0  0  0
   59.6450   35.2240   46.0150 C   0  0  0  0  0  0  0  0  0  0  0  0
   60.0180   36.5170   46.1780 F   0  0  0  0  0  0  0  0  0  0  0  0
   60.0000   34.2660   46.9710 C   0  0  0  0  0  0  0  0  0  0  0  0
   60.7140   34.6300   48.0640 F   0  0  0  0  0  0  0  0  0  0  0  0
   59.6200   32.9310   46.7990 C   0  0  0  0  0  0  0  0  0  0  0  0
   54.4537   24.4006   46.5235 H   0  0  0  0  0  0  0  0  0  0  0  0
   53.6627   24.9803   45.0185 H   0  0  0  0  0  0  0  0  0  0  0  0
   55.4160   24.5894   45.0185 H   0  0  0  0  0  0  0  0  0  0  0  0
   56.5806   26.4664   47.1329 H   0  0  0  0  0  0  0  0  0  0  0  0
   56.7974   25.7340   45.5032 H   0  0  0  0  0  0  0  0  0  0  0  0
   54.7798   29.8182   43.4616 H   0  0  0  0  0  0  0  0  0  0  0  0
   57.4865   28.4862   43.2359 H   0  0  0  0  0  0  0  0  0  0  0  0
   56.0552   28.3765   42.1561 H   0  0  0  0  0  0  0  0  0  0  0  0
   57.0687   29.8596   42.1561 H   0  0  0  0  0  0  0  0  0  0  0  0
   56.9789   31.4262   43.5708 H   0  0  0  0  0  0  0  0  0  0  0  0
   55.4367   31.6831   44.4986 H   0  0  0  0  0  0  0  0  0  0  0  0
   56.8630   29.9960   46.0150 H   0  0  0  0  0  0  0  0  0  0  0  0
   59.0154   30.4744   46.1947 H   0  0  0  0  0  0  0  0  0  0  0  0
   58.7821   30.7947   44.4380 H   0  0  0  0  0  0  0  0  0  0  0  0
   57.9391   33.2255   43.8315 H   0  0  0  0  0  0  0  0  0  0  0  0
   58.6269   35.6024   44.1404 H   0  0  0  0  0  0  0  0  0  0  0  0
   59.8929   32.1821   47.5570 H   0  0  0  0  0  0  0  0  0  0  0  0
  1  2  1  0
  2  3  1  0
  3  4  1  0
  4  5  2  0
  4  6  1  0
  6  7  1  0
  7  8  1  0
  7  9  1  0
  9 10  1  0
 10 11  1  0
 11 12  1  0
 12 13  2  0
 13 14  1  0
 14 15  2  0
 15 16  1  0
 15 17  1  0
 17 18  1  0
 17 19  2  0
 19 12  1  0
  1 20  1  0
  1 21  1  0
  1 22  1  0
  3 23  1  0
  3 24  1  0
  7 25  1  6
  8 26  1  0
  8 27  1  0
  8 28  1  0
  9 29  1  0
  9 30  1  0
 10 31  1  0
 11 32  1  0
 11 33  1  0
 13 34  1  0
 14 35  1  0
 19 36  1  0
M  CHG  1   6  -1
M  END
>  <UniqueID>  (37) 
37

>  <SMILES>  (37) 
COCC(=O)[N-][C@H](C)CNCc1ccc(F)c(F)c1

>  <Energy>  (37) 
29.23618189390115

>  <Genealogy>  (37) 
COCC(=O)[N-]C(C)CNCc1ccc(F)c(F)c1 (protonated)
COCC(=O)[N-][C@H](C)CNCc1ccc(F)c(F)c1 (chirality)
COCC(=O)[N-][C@H](C)CNCc1ccc(F)c(F)c1 (3D coordinates assigned)
COCC(=O)[N-][C@H](C)CNCc1ccc(F)c(F)c1 (optimized conformer: 29.23618189390115 kcal/mol)

>  <smiles>  (37) 
COCC(=O)NC(C)CNCc1ccc(F)c(F)c1

>  <score_type>  (37) 
oracle

>  <origin>  (37) 
adg

>  <m_score__min__energy>  (37) 
-7.9400000000000004

>  <m_primary>  (37) 
energy

$$$$
37:0
     RDKit          3D

 36 37  0  0  0  0  0  0  0  0999 V2000
   56.5340   34.8140   44.5670 F   0  0  0  0  0  0  0  0  0  0  0  0
   57.5680   34.2960   45.2740 C   0  0  0  0  0  0  0  0  0  0  0  0
   57.3210   33.4850   46.3820 C   0  0  0  0  0  0  0  0  0  0  0  0
   58.3860   32.9580   47.1170 C   0  0  0  0  0  0  0  0  0  0  0  0
   59.7180   33.2280   46.7500 C   0  0  0  0  0  0  0  0  0  0  0  0
   60.8430   32.6760   47.6220 C   0  0  2  0  0  0  0  0  0  0  0  0
   61.2350   31.2390   47.1960 C   0  0  0  0  0  0  0  0  0  0  0  0
   60.0860   30.3030   47.1310 N   0  0  0  0  0  0  0  0  0  0  0  0
   59.9640   29.6530   45.8140 C   0  0  0  0  0  0  0  0  0  0  0  0
   58.6260   29.9450   45.1740 C   0  0  0  0  0  0  0  0  0  0  0  0
   58.5140   30.8700   44.1240 C   0  0  0  0  0  0  0  0  0  0  0  0
   57.2630   31.1490   43.5700 C   0  0  0  0  0  0  0  0  0  0  0  0
   56.1330   30.4990   44.0690 C   0  0  0  0  0  0  0  0  0  0  0  0
   56.2550   29.6060   45.0850 N   0  0  0  0  0  0  0  0  0  0  0  0
   57.4610   29.3180   45.6430 C   0  0  0  0  0  0  0  0  0  0  0  0
   60.6300   32.8220   49.1480 C   0  0  0  0  0  0  0  0  0  0  0  0
   59.7440   31.8510   49.5830 F   0  0  0  0  0  0  0  0  0  0  0  0
   60.1130   34.0590   49.4850 F   0  0  0  0  0  0  0  0  0  0  0  0
   61.8310   32.6380   49.8100 F   0  0  0  0  0  0  0  0  0  0  0  0
   59.9520   34.0570   45.6320 C   0  0  0  0  0  0  0  0  0  0  0  0
   58.8830   34.5830   44.9000 C   0  0  0  0  0  0  0  0  0  0  0  0
   56.2856   33.2600   46.6776 H   0  0  0  0  0  0  0  0  0  0  0  0
   58.1813   32.3247   47.9928 H   0  0  0  0  0  0  0  0  0  0  0  0
   61.7055   33.3306   47.4280 H   0  0  0  0  0  0  0  0  0  0  0  0
   61.7011   31.2866   46.2008 H   0  0  0  0  0  0  0  0  0  0  0  0
   61.9224   30.8522   47.9627 H   0  0  0  0  0  0  0  0  0  0  0  0
   60.2310   29.5530   47.8470 H   0  0  0  0  0  0  0  0  0  0  0  0
   59.1810   30.7680   47.3620 H   0  0  0  0  0  0  0  0  0  0  0  0
   60.7635   30.0249   45.1564 H   0  0  0  0  0  0  0  0  0  0  0  0
   60.0484   28.5656   45.9566 H   0  0  0  0  0  0  0  0  0  0  0  0
   59.4117   31.3750   43.7377 H   0  0  0  0  0  0  0  0  0  0  0  0
   57.1689   31.8741   42.7482 H   0  0  0  0  0  0  0  0  0  0  0  0
   55.1428   30.7102   43.6390 H   0  0  0  0  0  0  0  0  0  0  0  0
   57.5240   28.5904   46.4656 H   0  0  0  0  0  0  0  0  0  0  0  0
   60.9845   34.2914   45.3338 H   0  0  0  0  0  0  0  0  0  0  0  0
   59.0780   35.2242   44.0277 H   0  0  0  0  0  0  0  0  0  0  0  0
  1  2  1  0
  2  3  2  0
  3  4  1  0
  4  5  2  0
  5  6  1  0
  6  7  1  0
  7  8  1  0
  8  9  1  0
  9 10  1  0
 10 11  2  0
 11 12  1  0
 12 13  2  0
 13 14  1  0
 14 15  2  0
  6 16  1  0
 16 17  1  0
 16 18  1  0
 16 19  1  0
  5 20  1  0
 20 21  2  0
 21  2  1  0
 15 10  1  0
  3 22  1  0
  4 23  1  0
  6 24  1  6
  7 25  1  0
  7 26  1  0
  8 27  1  0
  8 28  1  0
  9 29  1  0
  9 30  1  0
 11 31  1  0
 12 32  1  0
 13 33  1  0
 15 34  1  0
 20 35  1  0
 21 36  1  0
M  CHG  1   8   1
M  END
>  <UniqueID>  (38) 
38

>  <SMILES>  (38) 
Fc1ccc([C@H](C[NH2+]Cc2cccnc2)C(F)(F)F)cc1

>  <Energy>  (38) 
38.69407541630264

>  <Genealogy>  (38) 
Fc1ccc(C(C[NH2+]Cc2cccnc2)C(F)(F)F)cc1 (protonated)
Fc1ccc([C@H](C[NH2+]Cc2cccnc2)C(F)(F)F)cc1 (chirality)
Fc1ccc([C@H](C[NH2+]Cc2cccnc2)C(F)(F)F)cc1 (3D coordinates assigned)
Fc1ccc([C@H](C[NH2+]Cc2cccnc2)C(F)(F)F)cc1 (optimized conformer: 38.69407541630264 kcal/mol)

>  <smiles>  (38) 
Fc1ccc(C(CNCc2cccnc2)C(F)(F)F)cc1

>  <score_type>  (38) 
oracle

>  <origin>  (38) 
adg

>  <m_score__min__energy>  (38) 
-4.3899999999999997

>  <m_primary>  (38) 
energy

$$$$
38:0
     RDKit          3D

 48 49  0  0  0  0  0  0  0  0999 V2000
   59.4070   33.4540   50.4970 C   0  0  0  0  0  0  0  0  0  0  0  0
   59.9500   33.8080   49.1530 C   0  0  0  0  0  0  0  0  0  0  0  0
   61.2090   33.4860   48.6800 C   0  0  0  0  0  0  0  0  0  0  0  0
   61.2180   33.9720   47.3870 C   0  0  0  0  0  0  0  0  0  0  0  0
   62.3490   33.8440   46.4140 C   0  0  0  0  0  0  0  0  0  0  0  0
   60.0120   34.5170   47.1200 N   0  0  0  0  0  0  0  0  0  0  0  0
   59.5920   35.1730   45.8830 C   0  0  0  0  0  0  0  0  0  0  0  0
   59.2720   34.1240   44.8120 C   0  0  0  0  0  0  0  0  0  0  0  0
   57.8380   33.5940   44.9360 C   0  0  0  0  0  0  0  0  0  0  0  0
   57.6530   32.3550   44.1630 N   0  0  0  0  0  0  0  0  0  0  0  0
   57.8550   32.3490   42.7120 C   0  0  0  0  0  0  0  0  0  0  0  0
   57.3460   31.1140   44.8270 C   0  0  0  0  0  0  0  0  0  0  0  0
   56.2580   30.5250   44.5880 O   0  0  0  0  0  0  0  0  0  0  0  0
   58.2720   30.5250   45.7490 N   0  0  0  0  0  0  0  0  0  0  0  0
   58.5340   31.1930   47.0260 C   0  0  0  0  0  0  0  0  0  0  0  0
   59.3550   30.2910   47.9580 C   0  0  0  0  0  0  0  0  0  0  0  0
   60.5040   29.6730   47.2620 N   0  0  0  0  0  0  0  0  0  0  0  0
   61.5990   30.6390   47.0640 C   0  0  0  0  0  0  0  0  0  0  0  0
   60.1550   28.9690   45.9950 C   0  0  0  0  0  0  0  0  0  0  0  0
   58.6870   29.1340   45.5660 C   0  0  0  0  0  0  0  0  0  0  0  0
   59.2380   34.4290   48.1910 N   0  0  0  0  0  0  0  0  0  0  0  0
   60.0561   33.8772   51.2778 H   0  0  0  0  0  0  0  0  0  0  0  0
   58.3918   33.8643   50.6020 H   0  0  0  0  0  0  0  0  0  0  0  0
   59.3728   32.3596   50.6020 H   0  0  0  0  0  0  0  0  0  0  0  0
   62.0177   32.9629   49.2114 H   0  0  0  0  0  0  0  0  0  0  0  0
   63.2955   33.7369   46.9641 H   0  0  0  0  0  0  0  0  0  0  0  0
   62.1901   32.9581   45.7816 H   0  0  0  0  0  0  0  0  0  0  0  0
   62.3921   34.7430   45.7816 H   0  0  0  0  0  0  0  0  0  0  0  0
   58.6946   35.7782   46.0789 H   0  0  0  0  0  0  0  0  0  0  0  0
   60.4074   35.8176   45.5229 H   0  0  0  0  0  0  0  0  0  0  0  0
   59.3970   34.5808   43.8192 H   0  0  0  0  0  0  0  0  0  0  0  0
   59.9601   33.2770   44.9502 H   0  0  0  0  0  0  0  0  0  0  0  0
   57.6224   33.3902   45.9952 H   0  0  0  0  0  0  0  0  0  0  0  0
   57.1523   34.3559   44.5369 H   0  0  0  0  0  0  0  0  0  0  0  0
   58.9323   32.3170   42.4919 H   0  0  0  0  0  0  0  0  0  0  0  0
   57.3655   31.4650   42.2773 H   0  0  0  0  0  0  0  0  0  0  0  0
   57.4189   33.2605   42.2773 H   0  0  0  0  0  0  0  0  0  0  0  0
   59.0934   32.1214   46.8386 H   0  0  0  0  0  0  0  0  0  0  0  0
   57.5716   31.4152   47.5102 H   0  0  0  0  0  0  0  0  0  0  0  0
   59.7313   30.8957   48.7963 H   0  0  0  0  0  0  0  0  0  0  0  0
   58.6986   29.4828   48.3127 H   0  0  0  0  0  0  0  0  0  0  0  0
   61.9760   30.9716   48.0424 H   0  0  0  0  0  0  0  0  0  0  0  0
   62.4134   30.1598   46.5009 H   0  0  0  0  0  0  0  0  0  0  0  0
   61.2250   31.5068   46.5009 H   0  0  0  0  0  0  0  0  0  0  0  0
   60.7954   29.3645   45.1928 H   0  0  0  0  0  0  0  0  0  0  0  0
   60.3128   27.8955   46.1759 H   0  0  0  0  0  0  0  0  0  0  0  0
   58.5827   28.8579   44.5063 H   0  0  0  0  0  0  0  0  0  0  0  0
   58.0521   28.4808   46.1827 H   0  0  0  0  0  0  0  0  0  0  0  0
  1  2  1  0
  2  3  1  0
  3  4  2  0
  4  5  1  0
  4  6  1  0
  6  7  1  0
  7  8  1  0
  8  9  1  0
  9 10  1  0
 10 11  1  0
 10 12  1  0
 12 13  2  0
 12 14  1  0
 14 15  1  0
 15 16  1  0
 16 17  1  0
 17 18  1  0
 17 19  1  0
 19 20  1  0
  6 21  1  0
 21  2  2  0
 20 14  1  0
  1 22  1  0
  1 23  1  0
  1 24  1  0
  3 25  1  0
  5 26  1  0
  5 27  1  0
  5 28  1  0
  7 29  1  0
  7 30  1  0
  8 31  1  0
  8 32  1  0
  9 33  1  0
  9 34  1  0
 11 35  1  0
 11 36  1  0
 11 37  1  0
 15 38  1  0
 15 39  1  0
 16 40  1  0
 16 41  1  0
 18 42  1  0
 18 43  1  0
 18 44  1  0
 19 45  1  0
 19 46  1  0
 20 47  1  0
 20 48  1  0
M  END
>  <UniqueID>  (39) 
39

>  <SMILES>  (39) 
Cc1cc(C)n(CCCN(C)C(=O)N2CCN(C)CC2)n1

>  <Energy>  (39) 
77.39096213097785

>  <Genealogy>  (39) 
Cc1cc(C)n(CCCN(C)C(=O)N2CCN(C)CC2)n1 (3D coordinates assigned)
Cc1cc(C)n(CCCN(C)C(=O)N2CCN(C)CC2)n1 (nonaromatic ring conformer: 77.39096213097785 kcal/mol)

>  <smiles>  (39) 
Cc1cc(C)n(CCCN(C)C(=O)N2CCN(C)CC2)n1

>  <score_type>  (39) 
oracle

>  <origin>  (39) 
adg

>  <m_score__min__energy>  (39) 
-7.3600000000000003

>  <m_primary>  (39) 
energy

$$$$
39:0
     RDKit          3D

 77 81  0  0  0  0  0  0  0  0999 V2000
   63.6140   34.6110   51.4880 C   0  0  0  0  0  0  0  0  0  0  0  0
   62.4990   34.5880   50.4450 C   0  0  0  0  0  0  0  0  0  0  0  0
   61.6140   33.4220   50.6620 N   0  0  0  0  0  0  0  0  0  0  0  0
   61.7800   32.8730   52.0270 C   0  0  0  0  0  0  0  0  0  0  0  0
   60.4190   32.6930   52.6950 C   0  0  0  0  0  0  0  0  0  0  0  0
   60.1960   33.7530   50.3800 C   0  0  0  0  0  0  0  0  0  0  0  0
   60.0940   34.5880   49.1020 C   0  0  0  0  0  0  0  0  0  0  0  0
   58.9010   34.2750   48.3920 O   0  0  0  0  0  0  0  0  0  0  0  0
   58.8310   34.2670   46.9960 C   0  0  0  0  0  0  0  0  0  0  0  0
   59.0390   35.3370   46.3580 O   0  0  0  0  0  0  0  0  0  0  0  0
   58.5240   33.0180   46.2510 C   0  0  0  0  0  0  0  0  0  0  0  0
   57.2840   32.9220   45.5890 C   0  0  0  0  0  0  0  0  0  0  0  0
   56.9720   31.8070   44.8080 C   0  0  0  0  0  0  0  0  0  0  0  0
   57.8950   30.7730   44.6660 C   0  0  0  0  0  0  0  0  0  0  0  0
   59.1300   30.8460   45.3100 C   0  0  0  0  0  0  0  0  0  0  0  0
   59.4630   31.9590   46.0970 C   0  0  0  0  0  0  0  0  0  0  0  0
   60.7840   31.9580   46.7620 C   0  0  0  0  0  0  0  0  0  0  0  0
   61.6820   32.9370   46.5010 N   0  0  0  0  0  0  0  0  0  0  0  0
   62.6520   32.7030   47.3880 C   0  0  0  0  0  0  0  0  0  0  0  0
   63.8010   33.4480   47.5760 C   0  0  0  0  0  0  0  0  0  0  0  0
   64.6350   33.0980   48.6420 C   0  0  0  0  0  0  0  0  0  0  0  0
   64.2600   32.0510   49.5350 C   0  0  0  0  0  0  0  0  0  0  0  0
   65.0980   31.7130   50.6860 N   0  0  0  0  0  0  0  0  0  0  0  0
   64.5930   30.7500   51.6890 C   0  0  0  0  0  0  0  0  0  0  0  0
   65.5590   30.5120   52.8540 C   0  0  0  0  0  0  0  0  0  0  0  0
   66.8950   30.5090   52.4130 O   0  0  0  0  0  0  0  0  0  0  0  0
   67.2320   31.8170   52.0180 C   0  0  0  0  0  0  0  0  0  0  0  0
   66.4890   32.2120   50.7400 C   0  0  0  0  0  0  0  0  0  0  0  0
   63.0840   31.3700   49.2950 N   0  0  0  0  0  0  0  0  0  0  0  0
   62.3350   31.6490   48.1870 C   0  0  0  0  0  0  0  0  0  0  0  0
   61.1470   31.1130   47.7820 N   0  0  0  0  0  0  0  0  0  0  0  0
   60.3720   29.8910   48.1570 C   0  0  0  0  0  0  0  0  0  0  0  0
   61.0630   29.1030   49.3020 C   0  0  0  0  0  0  0  0  0  0  0  0
   60.8290   29.7370   50.6730 C   0  0  0  0  0  0  0  0  0  0  0  0
   59.3340   29.7950   50.9800 C   0  0  0  0  0  0  0  0  0  0  0  0
   58.6100   30.6210   49.9170 C   0  0  0  0  0  0  0  0  0  0  0  0
   58.8720   30.0680   48.4960 C   0  0  0  0  0  0  0  0  0  0  0  0
   63.1735   34.6019   52.4959 H   0  0  0  0  0  0  0  0  0  0  0  0
   64.2544   33.7259   51.3597 H   0  0  0  0  0  0  0  0  0  0  0  0
   64.2173   35.5218   51.3597 H   0  0  0  0  0  0  0  0  0  0  0  0
   61.9077   35.5120   50.5261 H   0  0  0  0  0  0  0  0  0  0  0  0
   62.9483   34.5136   49.4437 H   0  0  0  0  0  0  0  0  0  0  0  0
   62.2865   31.8984   51.9670 H   0  0  0  0  0  0  0  0  0  0  0  0
   62.3816   33.5743   52.6239 H   0  0  0  0  0  0  0  0  0  0  0  0
   60.5420   32.7093   53.7880 H   0  0  0  0  0  0  0  0  0  0  0  0
   59.7495   33.5104   52.3892 H   0  0  0  0  0  0  0  0  0  0  0  0
   59.9850   31.7296   52.3892 H   0  0  0  0  0  0  0  0  0  0  0  0
   59.6237   32.8223   50.2529 H   0  0  0  0  0  0  0  0  0  0  0  0
   59.7877   34.3321   51.2214 H   0  0  0  0  0  0  0  0  0  0  0  0
   60.0870   35.6555   49.3674 H   0  0  0  0  0  0  0  0  0  0  0  0
   60.9581   34.3606   48.4604 H   0  0  0  0  0  0  0  0  0  0  0  0
   56.5515   33.7365   45.6887 H   0  0  0  0  0  0  0  0  0  0  0  0
   55.9961   31.7451   44.3042 H   0  0  0  0  0  0  0  0  0  0  0  0
   57.6495   29.8985   44.0456 H   0  0  0  0  0  0  0  0  0  0  0  0
   59.8507   30.0223   45.1998 H   0  0  0  0  0  0  0  0  0  0  0  0
   64.0505   34.2871   46.9100 H   0  0  0  0  0  0  0  0  0  0  0  0
   65.5846   33.6324   48.7927 H   0  0  0  0  0  0  0  0  0  0  0  0
   63.6467   31.1361   52.0957 H   0  0  0  0  0  0  0  0  0  0  0  0
   64.4659   29.7862   51.1743 H   0  0  0  0  0  0  0  0  0  0  0  0
   65.4283   31.3117   53.5979 H   0  0  0  0  0  0  0  0  0  0  0  0
   65.3357   29.5304   53.2974 H   0  0  0  0  0  0  0  0  0  0  0  0
   66.9614   32.5168   52.8224 H   0  0  0  0  0  0  0  0  0  0  0  0
   68.3135   31.8562   51.8211 H   0  0  0  0  0  0  0  0  0  0  0  0
   66.4674   33.3099   50.6755 H   0  0  0  0  0  0  0  0  0  0  0  0
   67.0290   31.7541   49.8981 H   0  0  0  0  0  0  0  0  0  0  0  0
   62.7390   30.7100   50.0020 H   0  0  0  0  0  0  0  0  0  0  0  0
   60.3792   29.3244   47.2142 H   0  0  0  0  0  0  0  0  0  0  0  0
   60.6648   28.0777   49.3149 H   0  0  0  0  0  0  0  0  0  0  0  0
   62.1459   29.1139   49.1091 H   0  0  0  0  0  0  0  0  0  0  0  0
   61.3347   29.1352   51.4425 H   0  0  0  0  0  0  0  0  0  0  0  0
   61.2342   30.7597   50.6690 H   0  0  0  0  0  0  0  0  0  0  0  0
   58.9246   28.7740   50.9884 H   0  0  0  0  0  0  0  0  0  0  0  0
   59.1868   30.2659   51.9632 H   0  0  0  0  0  0  0  0  0  0  0  0
   57.5288   30.5937   50.1178 H   0  0  0  0  0  0  0  0  0  0  0  0
   58.9899   31.6523   49.9623 H   0  0  0  0  0  0  0  0  0  0  0  0
   58.3797   29.0881   48.4098 H   0  0  0  0  0  0  0  0  0  0  0  0
   58.4702   30.8071   47.7873 H   0  0  0  0  0  0  0  0  0  0  0  0
  1  2  1  0
  2  3  1  0
  3  4  1  0
  4  5  1  0
  3  6  1  0
  6  7  1  0
  7  8  1  0
  8  9  1  0
  9 10  2  0
  9 11  1  0
 11 12  2  0
 12 13  1  0
 13 14  2  0
 14 15  1  0
 15 16  2  0
 16 17  1  0
 17 18  2  0
 18 19  1  0
 19 20  2  0
 20 21  1  0
 21 22  2  0
 22 23  1  0
 23 24  1  0
 24 25  1  0
 25 26  1  0
 26 27  1  0
 27 28  1  0
 22 29  1  0
 29 30  2  0
 30 31  1  0
 31 32  1  0
 32 33  1  0
 33 34  1  0
 34 35  1  0
 35 36  1  0
 36 37  1  0
 16 11  1  0
 31 17  1  0
 37 32  1  0
 30 19  1  0
 28 23  1  0
  1 38  1  0
  1 39  1  0
  1 40  1  0
  2 41  1  0
  2 42  1  0
  4 43  1  0
  4 44  1  0
  5 45  1  0
  5 46  1  0
  5 47  1  0
  6 48  1  0
  6 49  1  0
  7 50  1  0
  7 51  1  0
 12 52  1  0
 13 53  1  0
 14 54  1  0
 15 55  1  0
 20 56  1  0
 21 57  1  0
 24 58  1  0
 24 59  1  0
 25 60  1  0
 25 61  1  0
 27 62  1  0
 27 63  1  0
 28 64  1  0
 28 65  1  0
 29 66  1  0
 32 67  1  0
 33 68  1  0
 33 69  1  0
 34 70  1  0
 34 71  1  0
 35 72  1  0
 35 73  1  0
 36 74  1  0
 36 75  1  0
 37 76  1  0
 37 77  1  0
M  CHG  1  29   1
M  END
>  <UniqueID>  (40) 
40

>  <SMILES>  (40) 
CCN(CC)CCOC(=O)c1ccccc1-c1nc2ccc(N3CCOCC3)[nH+]c2n1C1CCCCC1

>  <Energy>  (40) 
140.4865969387027

>  <Genealogy>  (40) 
CCN(CC)CCOC(=O)c1ccccc1-c1nc2ccc(N3CCOCC3)[nH+]c2n1C1CCCCC1 (protonated)
CCN(CC)CCOC(=O)c1ccccc1-c1nc2ccc(N3CCOCC3)[nH+]c2n1C1CCCCC1 (3D coordinates assigned)
CCN(CC)CCOC(=O)c1ccccc1-c1nc2ccc(N3CCOCC3)[nH+]c2n1C1CCCCC1 (nonaromatic ring conformer: 140.4865969387027 kcal/mol)

>  <smiles>  (40) 
CCN(CC)CCOC(=O)c1ccccc1-c1nc2ccc(N3CCOCC3)nc2n1C1CCCCC1

>  <score_type>  (40) 
oracle

>  <origin>  (40) 
adg

>  <m_score__min__energy>  (40) 
-7.3799999999999999

>  <m_primary>  (40) 
energy

$$$$
40:0
     RDKit          3D

 36 39  0  0  0  0  0  0  0  0999 V2000
   58.2520   28.8370   47.7720 O   0  0  0  0  0  0  0  0  0  0  0  0
   58.1480   29.7210   46.8780 C   0  0  0  0  0  0  0  0  0  0  0  0
   57.6470   29.3560   45.5470 C   0  0  0  0  0  0  0  0  0  0  0  0
   57.3010   28.1680   45.3040 O   0  0  0  0  0  0  0  0  0  0  0  0
   57.5600   30.4000   44.5080 C   0  0  0  0  0  0  0  0  0  0  0  0
   57.0890   30.1000   43.2180 C   0  0  0  0  0  0  0  0  0  0  0  0
   57.0190   31.0980   42.2440 C   0  0  0  0  0  0  0  0  0  0  0  0
   57.4170   32.4000   42.5470 C   0  0  0  0  0  0  0  0  0  0  0  0
   57.8870   32.7110   43.8260 C   0  0  0  0  0  0  0  0  0  0  0  0
   57.9630   31.7180   44.8190 C   0  0  0  0  0  0  0  0  0  0  0  0
   58.4670   32.0580   46.1810 C   0  0  0  0  0  0  0  0  0  0  0  0
   58.5330   31.1230   47.1570 C   0  0  0  0  0  0  0  0  0  0  0  0
   59.0890   31.4770   48.5190 C   0  0  0  0  0  0  0  0  0  0  0  0
   58.9300   32.9660   48.8320 C   0  0  0  0  0  0  0  0  0  0  0  0
   59.4390   33.8260   47.6670 C   0  0  1  0  0  0  0  0  0  0  0  0
   60.9550   33.8480   47.6040 C   0  0  0  0  0  0  0  0  0  0  0  0
   61.6490   33.8280   46.3780 C   0  0  0  0  0  0  0  0  0  0  0  0
   63.0470   33.8160   46.3580 C   0  0  0  0  0  0  0  0  0  0  0  0
   63.7670   33.8160   47.5540 C   0  0  0  0  0  0  0  0  0  0  0  0
   63.0900   33.8230   48.7750 C   0  0  0  0  0  0  0  0  0  0  0  0
   61.6920   33.8350   48.8030 C   0  0  0  0  0  0  0  0  0  0  0  0
   58.8680   33.3820   46.4340 O   0  0  0  0  0  0  0  0  0  0  0  0
   56.7742   29.0745   42.9748 H   0  0  0  0  0  0  0  0  0  0  0  0
   56.6495   30.8571   41.2363 H   0  0  0  0  0  0  0  0  0  0  0  0
   57.3608   33.1840   41.7775 H   0  0  0  0  0  0  0  0  0  0  0  0
   58.1997   33.7399   44.0576 H   0  0  0  0  0  0  0  0  0  0  0  0
   58.5545   30.8941   49.2835 H   0  0  0  0  0  0  0  0  0  0  0  0
   60.1636   31.2419   48.5196 H   0  0  0  0  0  0  0  0  0  0  0  0
   57.8663   33.1864   49.0049 H   0  0  0  0  0  0  0  0  0  0  0  0
   59.5212   33.2025   49.7290 H   0  0  0  0  0  0  0  0  0  0  0  0
   59.1147   34.8624   47.8425 H   0  0  0  0  0  0  0  0  0  0  0  0
   61.0881   33.8218   45.4318 H   0  0  0  0  0  0  0  0  0  0  0  0
   63.5814   33.8065   45.3966 H   0  0  0  0  0  0  0  0  0  0  0  0
   64.8668   33.8105   47.5344 H   0  0  0  0  0  0  0  0  0  0  0  0
   63.6577   33.8191   49.7172 H   0  0  0  0  0  0  0  0  0  0  0  0
   61.1648   33.8343   49.7684 H   0  0  0  0  0  0  0  0  0  0  0  0
  1  2  2  0
  2  3  1  0
  3  4  2  0
  3  5  1  0
  5  6  2  0
  6  7  1  0
  7  8  2  0
  8  9  1  0
  9 10  2  0
 10 11  1  0
 11 12  2  0
 12 13  1  0
 13 14  1  0
 14 15  1  0
 15 16  1  0
 16 17  2  0
 17 18  1  0
 18 19  2  0
 19 20  1  0
 20 21  2  0
 15 22  1  0
 12  2  1  0
 21 16  1  0
 10  5  1  0
 22 11  1  0
  6 23  1  0
  7 24  1  0
  8 25  1  0
  9 26  1  0
 13 27  1  0
 13 28  1  0
 14 29  1  0
 14 30  1  0
 15 31  1  1
 17 32  1  0
 18 33  1  0
 19 34  1  0
 20 35  1  0
 21 36  1  0
M  END
>  <UniqueID>  (41) 
41

>  <SMILES>  (41) 
O=C1C(=O)c2ccccc2C2=C1CC[C@@H](c1ccccc1)O2

>  <Energy>  (41) 
43.5745983879436

>  <Genealogy>  (41) 
O=C1C(=O)c2ccccc2C2=C1CC[C@@H](c1ccccc1)O2 (chirality)
O=C1C(=O)c2ccccc2C2=C1CC[C@@H](c1ccccc1)O2 (3D coordinates assigned)
O=C1C(=O)c2ccccc2C2=C1CC[C@@H](c1ccccc1)O2 (nonaromatic ring conformer: 43.5745983879436 kcal/mol)

>  <smiles>  (41) 
O=C1C(=O)c2ccccc2C2=C1CCC(c1ccccc1)O2

>  <score_type>  (41) 
oracle

>  <origin>  (41) 
adg

>  <m_score__min__energy>  (41) 
-7.7000000000000002

>  <m_primary>  (41) 
energy

$$$$
41:0
     RDKit          3D

 49 51  0  0  0  0  0  0  0  0999 V2000
   55.2810   29.3850   44.4000 F   0  0  0  0  0  0  0  0  0  0  0  0
   56.4840   29.3890   43.7160 C   0  0  0  0  0  0  0  0  0  0  0  0
   56.2460   29.0930   42.3870 F   0  0  0  0  0  0  0  0  0  0  0  0
   57.2930   28.4060   44.2600 F   0  0  0  0  0  0  0  0  0  0  0  0
   57.1520   30.7390   43.8120 C   0  0  0  0  0  0  0  0  0  0  0  0
   57.4430   31.4730   42.6500 C   0  0  0  0  0  0  0  0  0  0  0  0
   58.0980   32.7020   42.7390 C   0  0  0  0  0  0  0  0  0  0  0  0
   58.4860   33.2040   43.9820 C   0  0  0  0  0  0  0  0  0  0  0  0
   58.2310   32.4750   45.1580 C   0  0  0  0  0  0  0  0  0  0  0  0
   58.6480   32.9850   46.4430 N   0  0  0  0  0  0  0  0  0  0  0  0
   57.8430   32.7260   47.6440 C   0  0  0  0  0  0  0  0  0  0  0  0
   58.7410   32.6960   48.8850 C   0  0  0  0  0  0  0  0  0  0  0  0
   59.5140   33.9510   49.0420 N   0  0  0  0  0  0  0  0  0  0  0  0
   60.6630   33.8220   49.9650 C   0  0  0  0  0  0  0  0  0  0  0  0
   62.0320   34.1490   49.3130 C   0  0  0  0  0  0  0  0  0  0  0  0
   62.9750   32.9980   49.3480 N   0  0  0  0  0  0  0  0  0  0  0  0
   64.1430   33.1710   48.4540 C   0  0  0  0  0  0  0  0  0  0  0  0
   63.7410   33.1090   46.9610 C   0  0  0  0  0  0  0  0  0  0  0  0
   62.4690   32.5220   46.7480 O   0  0  0  0  0  0  0  0  0  0  0  0
   62.3300   31.3620   47.5380 C   0  0  0  0  0  0  0  0  0  0  0  0
   62.2830   31.7190   49.0400 C   0  0  0  0  0  0  0  0  0  0  0  0
   59.8000   34.7030   47.7980 C   0  0  0  0  0  0  0  0  0  0  0  0
   59.8650   33.8010   46.5590 C   0  0  0  0  0  0  0  0  0  0  0  0
   57.5690   31.2360   45.0580 C   0  0  0  0  0  0  0  0  0  0  0  0
   57.1532   31.0771   41.6655 H   0  0  0  0  0  0  0  0  0  0  0  0
   58.3093   33.2774   41.8257 H   0  0  0  0  0  0  0  0  0  0  0  0
   58.9951   34.1772   44.0428 H   0  0  0  0  0  0  0  0  0  0  0  0
   57.0926   33.5223   47.7574 H   0  0  0  0  0  0  0  0  0  0  0  0
   57.3430   31.7519   47.5384 H   0  0  0  0  0  0  0  0  0  0  0  0
   58.1113   32.5531   49.7755 H   0  0  0  0  0  0  0  0  0  0  0  0
   59.4566   31.8690   48.7665 H   0  0  0  0  0  0  0  0  0  0  0  0
   60.5082   34.5100   50.8092 H   0  0  0  0  0  0  0  0  0  0  0  0
   60.7027   32.7690   50.2806 H   0  0  0  0  0  0  0  0  0  0  0  0
   61.8630   34.4336   48.2640 H   0  0  0  0  0  0  0  0  0  0  0  0
   62.4868   34.9684   49.8889 H   0  0  0  0  0  0  0  0  0  0  0  0
   63.3380   32.9220   50.3290 H   0  0  0  0  0  0  0  0  0  0  0  0
   64.6050   34.1483   48.6576 H   0  0  0  0  0  0  0  0  0  0  0  0
   64.8481   32.3502   48.6516 H   0  0  0  0  0  0  0  0  0  0  0  0
   63.7244   34.1335   46.5608 H   0  0  0  0  0  0  0  0  0  0  0  0
   64.4818   32.4768   46.4496 H   0  0  0  0  0  0  0  0  0  0  0  0
   61.3981   30.8474   47.2610 H   0  0  0  0  0  0  0  0  0  0  0  0
   63.1975   30.7097   47.3593 H   0  0  0  0  0  0  0  0  0  0  0  0
   61.2306   31.8052   49.3484 H   0  0  0  0  0  0  0  0  0  0  0  0
   62.8035   30.9196   49.5878 H   0  0  0  0  0  0  0  0  0  0  0  0
   59.0058   35.4492   47.6481 H   0  0  0  0  0  0  0  0  0  0  0  0
   60.7867   35.1748   47.9160 H   0  0  0  0  0  0  0  0  0  0  0  0
   59.9655   34.4284   45.6611 H   0  0  0  0  0  0  0  0  0  0  0  0
   60.7313   33.1302   46.6563 H   0  0  0  0  0  0  0  0  0  0  0  0
   57.3758   30.6493   45.9682 H   0  0  0  0  0  0  0  0  0  0  0  0
  1  2  1  0
  2  3  1  0
  2  4  1  0
  2  5  1  0
  5  6  2  0
  6  7  1  0
  7  8  2  0
  8  9  1  0
  9 10  1  0
 10 11  1  0
 11 12  1  0
 12 13  1  0
 13 14  1  0
 14 15  1  0
 15 16  1  0
 16 17  1  0
 17 18  1  0
 18 19  1  0
 19 20  1  0
 20 21  1  0
 13 22  1  0
 22 23  1  0
  9 24  2  0
 24  5  1  0
 23 10  1  0
 21 16  1  0
  6 25  1  0
  7 26  1  0
  8 27  1  0
 11 28  1  0
 11 29  1  0
 12 30  1  0
 12 31  1  0
 14 32  1  0
 14 33  1  0
 15 34  1  0
 15 35  1  0
 16 36  1  0
 17 37  1  0
 17 38  1  0
 18 39  1  0
 18 40  1  0
 20 41  1  0
 20 42  1  0
 21 43  1  0
 21 44  1  0
 22 45  1  0
 22 46  1  0
 23 47  1  0
 23 48  1  0
 24 49  1  0
M  CHG  1  16   1
M  END
>  <UniqueID>  (42) 
42

>  <SMILES>  (42) 
FC(F)(F)c1cccc(N2CCN(CC[NH+]3CCOCC3)CC2)c1

>  <Energy>  (42) 
75.43762387619493

>  <Genealogy>  (42) 
FC(F)(F)c1cccc(N2CCN(CC[NH+]3CCOCC3)CC2)c1 (protonated)
FC(F)(F)c1cccc(N2CCN(CC[NH+]3CCOCC3)CC2)c1 (3D coordinates assigned)
FC(F)(F)c1cccc(N2CCN(CC[NH+]3CCOCC3)CC2)c1 (nonaromatic ring conformer: 75.43762387619493 kcal/mol)

>  <smiles>  (42) 
FC(F)(F)c1cccc(N2CCN(CCN3CCOCC3)CC2)c1

>  <score_type>  (42) 
oracle

>  <origin>  (42) 
adg

>  <m_score__min__energy>  (42) 
-5.3600000000000003

>  <m_primary>  (42) 
energy

$$$$
42:0
     RDKit          3D

 39 40  0  0  0  0  0  0  0  0999 V2000
   56.3250   30.4150   43.6130 C   0  0  0  0  0  0  0  0  0  0  0  0
   56.7450   30.4920   44.9720 O   0  0  0  0  0  0  0  0  0  0  0  0
   58.0210   30.1300   45.4270 C   0  0  0  0  0  0  0  0  0  0  0  0
   58.9200   29.5720   44.5120 C   0  0  0  0  0  0  0  0  0  0  0  0
   60.2040   29.2010   44.9160 C   0  0  0  0  0  0  0  0  0  0  0  0
   60.6030   29.3820   46.2410 C   0  0  0  0  0  0  0  0  0  0  0  0
   59.7160   29.9350   47.1760 C   0  0  0  0  0  0  0  0  0  0  0  0
   60.1590   30.1540   48.6060 C   0  0  0  0  0  0  0  0  0  0  0  0
   60.9970   31.3730   48.7580 N   0  0  1  0  0  0  0  0  0  0  0  0
   60.1760   32.4880   49.3060 C   0  0  0  0  0  0  0  0  0  0  0  0
   60.6440   33.9010   48.9050 C   0  0  0  0  0  0  0  0  0  0  0  0
   62.0990   34.1970   49.2970 C   0  0  0  0  0  0  0  0  0  0  0  0
   63.0570   33.2340   48.7290 N   0  0  0  0  0  0  0  0  0  0  0  0
   63.6520   33.5580   47.4600 C   0  0  0  0  0  0  0  0  0  0  0  0
   63.1590   33.1340   46.3820 O   0  0  0  0  0  0  0  0  0  0  0  0
   63.3900   31.9800   49.4240 C   0  0  0  0  0  0  0  0  0  0  0  0
   62.1650   31.0520   49.6210 C   0  0  0  0  0  0  0  0  0  0  0  0
   58.4250   30.3110   46.7660 C   0  0  0  0  0  0  0  0  0  0  0  0
   55.2437   30.2168   43.5741 H   0  0  0  0  0  0  0  0  0  0  0  0
   56.5415   31.3678   43.1078 H   0  0  0  0  0  0  0  0  0  0  0  0
   56.8654   29.6010   43.1078 H   0  0  0  0  0  0  0  0  0  0  0  0
   58.6130   29.4243   43.4661 H   0  0  0  0  0  0  0  0  0  0  0  0
   60.9033   28.7647   44.1876 H   0  0  0  0  0  0  0  0  0  0  0  0
   61.6166   29.0900   46.5530 H   0  0  0  0  0  0  0  0  0  0  0  0
   59.2665   30.2571   49.2407 H   0  0  0  0  0  0  0  0  0  0  0  0
   60.7679   29.2882   48.9055 H   0  0  0  0  0  0  0  0  0  0  0  0
   61.3370   31.6230   47.7990 H   0  0  0  0  0  0  0  0  0  0  0  0
   59.1430   32.3573   48.9511 H   0  0  0  0  0  0  0  0  0  0  0  0
   60.2728   32.4315   50.4003 H   0  0  0  0  0  0  0  0  0  0  0  0
   60.5495   34.0028   47.8138 H   0  0  0  0  0  0  0  0  0  0  0  0
   60.0100   34.6184   49.4466 H   0  0  0  0  0  0  0  0  0  0  0  0
   62.3603   35.2037   48.9388 H   0  0  0  0  0  0  0  0  0  0  0  0
   62.1661   34.1196   50.3922 H   0  0  0  0  0  0  0  0  0  0  0  0
   64.5537   34.1874   47.4310 H   0  0  0  0  0  0  0  0  0  0  0  0
   64.1457   31.4419   48.8329 H   0  0  0  0  0  0  0  0  0  0  0  0
   63.7636   32.2475   50.4234 H   0  0  0  0  0  0  0  0  0  0  0  0
   62.4783   30.0202   49.4037 H   0  0  0  0  0  0  0  0  0  0  0  0
   61.8320   31.1934   50.6598 H   0  0  0  0  0  0  0  0  0  0  0  0
   57.7259   30.7489   47.4937 H   0  0  0  0  0  0  0  0  0  0  0  0
  1  2  1  0
  2  3  1  0
  3  4  2  0
  4  5  1  0
  5  6  2  0
  6  7  1  0
  7  8  1  0
  8  9  1  0
  9 10  1  0
 10 11  1  0
 11 12  1  0
 12 13  1  0
 13 14  1  0
 14 15  2  0
 13 16  1  0
 16 17  1  0
  7 18  2  0
 18  3  1  0
 17  9  1  0
  1 19  1  0
  1 20  1  0
  1 21  1  0
  4 22  1  0
  5 23  1  0
  6 24  1  0
  8 25  1  0
  8 26  1  0
  9 27  1  6
 10 28  1  0
 10 29  1  0
 11 30  1  0
 11 31  1  0
 12 32  1  0
 12 33  1  0
 14 34  1  0
 16 35  1  0
 16 36  1  0
 17 37  1  0
 17 38  1  0
 18 39  1  0
M  CHG  1   9   1
M  END
>  <UniqueID>  (43) 
43

>  <SMILES>  (43) 
COc1cccc(C[N@H+]2CCCN(C=O)CC2)c1

>  <Energy>  (43) 
48.266297858318076

>  <Genealogy>  (43) 
COc1cccc(C[NH+]2CCCN(C=O)CC2)c1 (protonated)
COc1cccc(C[N@H+]2CCCN(C=O)CC2)c1 (chirality)
COc1cccc(C[N@H+]2CCCN(C=O)CC2)c1 (3D coordinates assigned)
COc1cccc(C[N@H+]2CCCN(C=O)CC2)c1 (nonaromatic ring conformer: 48.266297858318076 kcal/mol)

>  <smiles>  (43) 
COc1cccc(CN2CCCN(C=O)CC2)c1

>  <score_type>  (43) 
oracle

>  <origin>  (43) 
adg

>  <m_score__min__energy>  (43) 
-2.8500000000000001

>  <m_primary>  (43) 
energy

$$$$
43:0
     RDKit          3D

 40 41  0  0  0  0  0  0  0  0999 V2000
   63.7270   32.7060   47.1340 C   0  0  0  0  0  0  0  0  0  0  0  0
   63.8580   33.1510   48.5890 C   0  0  0  0  0  0  0  0  0  0  0  0
   62.7090   34.0760   49.0130 C   0  0  0  0  0  0  0  0  0  0  0  0
   61.5730   33.3140   49.5370 N   0  0  0  0  0  0  0  0  0  0  0  0
   60.2000   33.7530   49.5040 C   0  0  0  0  0  0  0  0  0  0  0  0
   59.8150   34.7040   48.6900 N   0  0  0  0  0  0  0  0  0  0  0  0
   59.9910   34.6580   46.9580 S   0  0  0  0  0  0  0  0  0  0  0  0
   61.4200   34.3430   46.6190 O   0  0  0  0  0  0  0  0  0  0  0  0
   59.6490   36.0060   46.3870 O   0  0  0  0  0  0  0  0  0  0  0  0
   58.9700   33.4030   46.2620 C   0  0  0  0  0  0  0  0  0  0  0  0
   57.8420   33.7620   45.5140 C   0  0  0  0  0  0  0  0  0  0  0  0
   57.0580   32.7770   44.9060 C   0  0  0  0  0  0  0  0  0  0  0  0
   57.3970   31.4270   45.0450 C   0  0  0  0  0  0  0  0  0  0  0  0
   56.3370   30.0830   44.2000 Br  0  0  0  0  0  0  0  0  0  0  0  0
   58.5170   31.0630   45.8000 C   0  0  0  0  0  0  0  0  0  0  0  0
   59.3020   32.0470   46.4090 C   0  0  0  0  0  0  0  0  0  0  0  0
   59.2440   33.0540   50.3840 C   0  0  0  0  0  0  0  0  0  0  0  0
   58.6700   31.8360   49.9900 C   0  0  0  0  0  0  0  0  0  0  0  0
   57.7730   31.1760   50.8360 C   0  0  0  0  0  0  0  0  0  0  0  0
   57.4350   31.7360   52.0710 C   0  0  0  0  0  0  0  0  0  0  0  0
   57.9830   32.9610   52.4580 C   0  0  0  0  0  0  0  0  0  0  0  0
   58.8770   33.6260   51.6130 C   0  0  0  0  0  0  0  0  0  0  0  0
   63.4165   31.6513   47.0997 H   0  0  0  0  0  0  0  0  0  0  0  0
   62.9735   33.3267   46.6271 H   0  0  0  0  0  0  0  0  0  0  0  0
   64.6967   32.8195   46.6271 H   0  0  0  0  0  0  0  0  0  0  0  0
   63.8536   32.2604   49.2345 H   0  0  0  0  0  0  0  0  0  0  0  0
   64.7996   33.7107   48.6897 H   0  0  0  0  0  0  0  0  0  0  0  0
   63.0709   34.7609   49.7940 H   0  0  0  0  0  0  0  0  0  0  0  0
   62.3712   34.6353   48.1281 H   0  0  0  0  0  0  0  0  0  0  0  0
   61.7900   32.4200   50.0330 H   0  0  0  0  0  0  0  0  0  0  0  0
   59.4040   35.5840   49.0670 H   0  0  0  0  0  0  0  0  0  0  0  0
   57.5718   34.8227   45.4044 H   0  0  0  0  0  0  0  0  0  0  0  0
   56.1738   33.0638   44.3178 H   0  0  0  0  0  0  0  0  0  0  0  0
   58.7805   30.0012   45.9148 H   0  0  0  0  0  0  0  0  0  0  0  0
   60.1809   31.7581   47.0041 H   0  0  0  0  0  0  0  0  0  0  0  0
   58.9260   31.3991   49.0135 H   0  0  0  0  0  0  0  0  0  0  0  0
   57.3333   30.2155   50.5291 H   0  0  0  0  0  0  0  0  0  0  0  0
   56.7364   31.2112   52.7392 H   0  0  0  0  0  0  0  0  0  0  0  0
   57.7112   33.4029   53.4280 H   0  0  0  0  0  0  0  0  0  0  0  0
   59.2937   34.5993   51.9116 H   0  0  0  0  0  0  0  0  0  0  0  0
  1  2  1  0
  2  3  1  0
  3  4  1  0
  4  5  1  0
  5  6  2  3
  6  7  1  0
  7  8  2  0
  7  9  2  0
  7 10  1  0
 10 11  2  0
 11 12  1  0
 12 13  2  0
 13 14  1  0
 13 15  1  0
 15 16  2  0
  5 17  1  0
 17 18  2  0
 18 19  1  0
 19 20  2  0
 20 21  1  0
 21 22  2  0
 16 10  1  0
 22 17  1  0
  1 23  1  0
  1 24  1  0
  1 25  1  0
  2 26  1  0
  2 27  1  0
  3 28  1  0
  3 29  1  0
  4 30  1  0
  6 31  1  0
 11 32  1  0
 12 33  1  0
 15 34  1  0
 16 35  1  0
 18 36  1  0
 19 37  1  0
 20 38  1  0
 21 39  1  0
 22 40  1  0
M  CHG  1   6   1
M  END
>  <UniqueID>  (44) 
44

>  <SMILES>  (44) 
CCCNC(=[NH+]S(=O)(=O)c1ccc(Br)cc1)c1ccccc1

>  <Energy>  (44) 
41.94923819579357

>  <Genealogy>  (44) 
CCCNC(=[NH+]S(=O)(=O)c1ccc(Br)cc1)c1ccccc1 (protonated)
CCCNC(=[NH+]S(=O)(=O)c1ccc(Br)cc1)c1ccccc1 (3D coordinates assigned)
CCCNC(=[NH+]S(=O)(=O)c1ccc(Br)cc1)c1ccccc1 (optimized conformer: 41.94923819579357 kcal/mol)

>  <smiles>  (44) 
CCCNC(=NS(=O)(=O)c1ccc(Br)cc1)c1ccccc1

>  <score_type>  (44) 
oracle

>  <origin>  (44) 
adg

>  <m_score__min__energy>  (44) 
-6.6699999999999999

>  <m_primary>  (44) 
energy

$$$$
44:0
     RDKit          3D

 31 32  0  0  0  0  0  0  0  0999 V2000
   58.3670   33.4050   44.2020 C   0  0  0  0  0  0  0  0  0  0  0  0
   59.2750   34.4410   44.8600 C   0  0  0  0  0  0  0  0  0  0  0  0
   58.8150   34.7290   46.2380 N   0  0  0  0  0  0  0  0  0  0  0  0
   57.6950   33.8440   46.6620 C   0  0  0  0  0  0  0  0  0  0  0  0
   58.1260   32.6890   47.5880 C   0  0  0  0  0  0  0  0  0  0  0  0
   59.5130   32.3020   47.3170 N   0  0  0  0  0  0  0  0  0  0  0  0
   59.8590   30.9320   47.0500 C   0  0  0  0  0  0  0  0  0  0  0  0
   61.1500   30.2550   47.8050 S   0  0  0  0  0  0  0  0  0  0  0  0
   59.1150   30.1700   46.0260 C   0  0  0  0  0  0  0  0  0  0  0  0
   59.5360   29.0190   45.3790 C   0  0  0  0  0  0  0  0  0  0  0  0
   58.5190   28.6830   44.5110 C   0  0  0  0  0  0  0  0  0  0  0  0
   57.5470   29.6450   44.6800 C   0  0  0  0  0  0  0  0  0  0  0  0
   55.8870   29.7250   43.7490 Br  0  0  0  0  0  0  0  0  0  0  0  0
   57.9270   30.5160   45.5840 O   0  0  0  0  0  0  0  0  0  0  0  0
   60.5540   33.3340   47.3520 C   0  0  0  0  0  0  0  0  0  0  0  0
   59.9330   34.7330   47.2070 C   0  0  0  0  0  0  0  0  0  0  0  0
   57.8543   32.8200   44.9798 H   0  0  0  0  0  0  0  0  0  0  0  0
   57.6208   33.9162   43.5761 H   0  0  0  0  0  0  0  0  0  0  0  0
   58.9717   32.7323   43.5761 H   0  0  0  0  0  0  0  0  0  0  0  0
   60.3033   34.0518   44.8949 H   0  0  0  0  0  0  0  0  0  0  0  0
   59.2424   35.3696   44.2713 H   0  0  0  0  0  0  0  0  0  0  0  0
   56.9527   34.4564   47.1950 H   0  0  0  0  0  0  0  0  0  0  0  0
   57.2878   33.3854   45.7488 H   0  0  0  0  0  0  0  0  0  0  0  0
   58.0391   33.0135   48.6354 H   0  0  0  0  0  0  0  0  0  0  0  0
   57.4732   31.8232   47.4030 H   0  0  0  0  0  0  0  0  0  0  0  0
   60.4856   28.4840   45.5274 H   0  0  0  0  0  0  0  0  0  0  0  0
   58.4895   27.8238   43.8248 H   0  0  0  0  0  0  0  0  0  0  0  0
   61.0906   33.2741   48.3104 H   0  0  0  0  0  0  0  0  0  0  0  0
   61.2489   33.1657   46.5161 H   0  0  0  0  0  0  0  0  0  0  0  0
   59.5561   35.0607   48.1871 H   0  0  0  0  0  0  0  0  0  0  0  0
   60.7089   35.4199   46.8379 H   0  0  0  0  0  0  0  0  0  0  0  0
  1  2  1  0
  2  3  1  0
  3  4  1  0
  4  5  1  0
  5  6  1  0
  6  7  1  0
  7  8  2  0
  7  9  1  0
  9 10  2  0
 10 11  1  0
 11 12  2  0
 12 13  1  0
 12 14  1  0
  6 15  1  0
 15 16  1  0
 16  3  1  0
 14  9  1  0
  1 17  1  0
  1 18  1  0
  1 19  1  0
  2 20  1  0
  2 21  1  0
  4 22  1  0
  4 23  1  0
  5 24  1  0
  5 25  1  0
 10 26  1  0
 11 27  1  0
 15 28  1  0
 15 29  1  0
 16 30  1  0
 16 31  1  0
M  END
>  <UniqueID>  (45) 
45

>  <SMILES>  (45) 
CCN1CCN(C(=S)c2ccc(Br)o2)CC1

>  <Energy>  (45) 
64.75742457397727

>  <Genealogy>  (45) 
CCN1CCN(C(=S)c2ccc(Br)o2)CC1 (3D coordinates assigned)
CCN1CCN(C(=S)c2ccc(Br)o2)CC1 (nonaromatic ring conformer: 64.75742457397727 kcal/mol)

>  <smiles>  (45) 
CCN1CCN(C(=S)c2ccc(Br)o2)CC1

>  <score_type>  (45) 
oracle

>  <origin>  (45) 
adg

>  <m_score__min__energy>  (45) 
-6.0099999999999998

>  <m_primary>  (45) 
energy

$$$$
45:0
     RDKit          3D

 48 52  0  0  0  0  0  0  0  0999 V2000
   63.3000   33.8370   47.2620 C   0  0  0  0  0  0  0  0  0  0  0  0
   63.5520   33.3920   48.6790 C   0  0  0  0  0  0  0  0  0  0  0  0
   64.7490   32.8070   48.9880 N   0  0  0  0  0  0  0  0  0  0  0  0
   65.0380   32.3790   50.2460 C   0  0  0  0  0  0  0  0  0  0  0  0
   64.1060   32.5250   51.2680 C   0  0  0  0  0  0  0  0  0  0  0  0
   62.8760   33.1150   50.9910 C   0  0  0  0  0  0  0  0  0  0  0  0
   62.5750   33.5580   49.6940 C   0  0  0  0  0  0  0  0  0  0  0  0
   61.2280   34.2060   49.4530 C   0  0  0  0  0  0  0  0  0  0  0  0
   60.6160   33.6860   48.2120 N   0  0  0  0  0  0  0  0  0  0  0  0
   60.0400   34.7860   47.4150 C   0  0  0  0  0  0  0  0  0  0  0  0
   59.7080   34.2930   45.9970 C   0  0  0  0  0  0  0  0  0  0  0  0
   59.3700   32.7870   45.9620 C   0  0  0  0  0  0  0  0  0  0  0  0
   58.5280   32.4220   44.7660 C   0  0  0  0  0  0  0  0  0  0  0  0
   58.2710   33.2950   43.7600 N   0  0  0  0  0  0  0  0  0  0  0  0
   57.5320   32.6690   42.8510 N   0  0  0  0  0  0  0  0  0  0  0  0
   57.3120   31.4280   43.2420 N   0  0  0  0  0  0  0  0  0  0  0  0
   56.6010   30.4710   42.5800 C   0  0  0  0  0  0  0  0  0  0  0  0
   56.4810   29.2300   43.1440 N   0  0  0  0  0  0  0  0  0  0  0  0
   57.0800   28.9990   44.3480 C   0  0  0  0  0  0  0  0  0  0  0  0
   57.0490   27.8470   45.0300 N   0  0  0  0  0  0  0  0  0  0  0  0
   57.7570   28.0750   46.1600 C   0  0  0  0  0  0  0  0  0  0  0  0
   58.2390   29.3810   46.1910 C   0  0  0  0  0  0  0  0  0  0  0  0
   57.7970   29.9620   45.0180 C   0  0  0  0  0  0  0  0  0  0  0  0
   57.9090   31.2220   44.4280 C   0  0  0  0  0  0  0  0  0  0  0  0
   58.7510   32.2680   47.2730 C   0  0  0  0  0  0  0  0  0  0  0  0
   59.5730   32.6770   48.5170 C   0  0  0  0  0  0  0  0  0  0  0  0
   62.7580   34.7942   47.2692 H   0  0  0  0  0  0  0  0  0  0  0  0
   64.2605   33.9635   46.7411 H   0  0  0  0  0  0  0  0  0  0  0  0
   62.6975   33.0783   46.7411 H   0  0  0  0  0  0  0  0  0  0  0  0
   65.4750   32.6780   48.2480 H   0  0  0  0  0  0  0  0  0  0  0  0
   66.0131   31.9153   50.4562 H   0  0  0  0  0  0  0  0  0  0  0  0
   64.3386   32.1776   52.2854 H   0  0  0  0  0  0  0  0  0  0  0  0
   62.1346   33.2348   51.7947 H   0  0  0  0  0  0  0  0  0  0  0  0
   60.5644   33.9875   50.3026 H   0  0  0  0  0  0  0  0  0  0  0  0
   61.3697   35.2920   49.3509 H   0  0  0  0  0  0  0  0  0  0  0  0
   59.1202   35.1441   47.9004 H   0  0  0  0  0  0  0  0  0  0  0  0
   60.7716   35.6048   47.3496 H   0  0  0  0  0  0  0  0  0  0  0  0
   58.8429   34.8581   45.6200 H   0  0  0  0  0  0  0  0  0  0  0  0
   60.5975   34.4519   45.3697 H   0  0  0  0  0  0  0  0  0  0  0  0
   60.3357   32.2709   45.8569 H   0  0  0  0  0  0  0  0  0  0  0  0
   56.1323   30.6927   41.6099 H   0  0  0  0  0  0  0  0  0  0  0  0
   56.5740   26.9580   44.7540 H   0  0  0  0  0  0  0  0  0  0  0  0
   57.9290   27.3282   46.9491 H   0  0  0  0  0  0  0  0  0  0  0  0
   58.8432   29.8503   46.9814 H   0  0  0  0  0  0  0  0  0  0  0  0
   57.7352   32.6786   47.3705 H   0  0  0  0  0  0  0  0  0  0  0  0
   58.7396   31.1691   47.2258 H   0  0  0  0  0  0  0  0  0  0  0  0
   58.8878   33.0963   49.2684 H   0  0  0  0  0  0  0  0  0  0  0  0
   60.0833   31.7755   48.8870 H   0  0  0  0  0  0  0  0  0  0  0  0
  1  2  1  0
  2  3  2  0
  3  4  1  0
  4  5  2  0
  5  6  1  0
  6  7  2  0
  7  8  1  0
  8  9  1  0
  9 10  1  0
 10 11  1  0
 11 12  1  0
 12 13  1  0
 13 14  1  0
 14 15  2  0
 15 16  1  0
 16 17  1  0
 17 18  2  0
 18 19  1  0
 19 20  1  0
 20 21  1  0
 21 22  2  0
 22 23  1  0
 23 24  1  0
 12 25  1  0
 25 26  1  0
  7  2  1  0
 26  9  1  0
 24 13  2  0
 24 16  1  0
 23 19  2  0
  1 27  1  0
  1 28  1  0
  1 29  1  0
  3 30  1  0
  4 31  1  0
  5 32  1  0
  6 33  1  0
  8 34  1  0
  8 35  1  0
 10 36  1  0
 10 37  1  0
 11 38  1  0
 11 39  1  0
 12 40  1  0
 17 41  1  0
 20 42  1  0
 21 43  1  0
 22 44  1  0
 25 45  1  0
 25 46  1  0
 26 47  1  0
 26 48  1  0
M  CHG  1   3   1
M  END
>  <UniqueID>  (46) 
46

>  <SMILES>  (46) 
Cc1[nH+]cccc1CN1CCC(c2nnn3cnc4[nH]ccc4c23)CC1

>  <Energy>  (46) 
141.19651347165

>  <Genealogy>  (46) 
Cc1[nH+]cccc1CN1CCC(c2nnn3cnc4[nH]ccc4c23)CC1 (protonated)
Cc1[nH+]cccc1CN1CCC(c2nnn3cnc4[nH]ccc4c23)CC1 (3D coordinates assigned)
Cc1[nH+]cccc1CN1CCC(c2nnn3cnc4[nH]ccc4c23)CC1 (nonaromatic ring conformer: 141.19651347165 kcal/mol)

>  <smiles>  (46) 
Cc1ncccc1CN1CCC(c2nnn3cnc4[nH]ccc4c23)CC1

>  <score_type>  (46) 
oracle

>  <origin>  (46) 
adg

>  <m_score__min__energy>  (46) 
-7.8799999999999999

>  <m_primary>  (46) 
energy

$$$$
46:0
     RDKit          3D

 37 39  0  0  0  0  0  0  0  0999 V2000
   59.5170   32.9680   49.5680 C   0  0  0  0  0  0  0  0  0  0  0  0
   58.5530   32.4690   48.4970 C   0  0  0  0  0  0  0  0  0  0  0  0
   58.7480   33.2120   47.1970 C   0  0  0  0  0  0  0  0  0  0  0  0
   59.4610   34.4230   47.1970 C   0  0  0  0  0  0  0  0  0  0  0  0
   59.6460   35.1360   46.0120 C   0  0  0  0  0  0  0  0  0  0  0  0
   59.1090   34.6580   44.8180 C   0  0  0  0  0  0  0  0  0  0  0  0
   58.3860   33.4630   44.8020 C   0  0  0  0  0  0  0  0  0  0  0  0
   58.2090   32.7210   45.9860 C   0  0  0  0  0  0  0  0  0  0  0  0
   57.4230   31.5170   45.9990 N   0  0  0  0  0  0  0  0  0  0  0  0
   57.2180   30.6130   44.9050 C   0  0  0  0  0  0  0  0  0  0  0  0
   56.0580   30.3700   44.4760 O   0  0  0  0  0  0  0  0  0  0  0  0
   58.4030   30.0090   44.2240 C   0  0  0  0  0  0  0  0  0  0  0  0
   58.9980   28.5200   45.1000 S   0  0  0  0  0  0  0  0  0  0  0  0
   59.9760   29.4270   46.2940 C   0  0  0  0  0  0  0  0  0  0  0  0
   60.0840   29.0840   47.5910 N   0  0  0  0  0  0  0  0  0  0  0  0
   60.8940   29.9760   48.1400 N   0  0  0  0  0  0  0  0  0  0  0  0
   61.2510   30.8190   47.1530 C   0  0  0  0  0  0  0  0  0  0  0  0
   62.1800   31.9370   47.3280 C   0  0  0  0  0  0  0  0  0  0  0  0
   63.1980   32.0010   48.2570 C   0  0  0  0  0  0  0  0  0  0  0  0
   63.7920   33.2300   48.0670 C   0  0  0  0  0  0  0  0  0  0  0  0
   63.1010   33.8360   47.0370 C   0  0  0  0  0  0  0  0  0  0  0  0
   62.1450   33.0390   46.6160 O   0  0  0  0  0  0  0  0  0  0  0  0
   60.6850   30.4930   46.0160 O   0  0  0  0  0  0  0  0  0  0  0  0
   59.1019   32.7531   50.5638 H   0  0  0  0  0  0  0  0  0  0  0  0
   60.4851   32.4578   49.4564 H   0  0  0  0  0  0  0  0  0  0  0  0
   59.6594   34.0530   49.4564 H   0  0  0  0  0  0  0  0  0  0  0  0
   58.7294   31.3966   48.3272 H   0  0  0  0  0  0  0  0  0  0  0  0
   57.5245   32.6427   48.8463 H   0  0  0  0  0  0  0  0  0  0  0  0
   59.8764   34.8118   48.1384 H   0  0  0  0  0  0  0  0  0  0  0  0
   60.2164   36.0765   46.0202 H   0  0  0  0  0  0  0  0  0  0  0  0
   59.2549   35.2233   43.8857 H   0  0  0  0  0  0  0  0  0  0  0  0
   57.9522   33.0992   43.8589 H   0  0  0  0  0  0  0  0  0  0  0  0
   58.1211   29.7304   43.1979 H   0  0  0  0  0  0  0  0  0  0  0  0
   59.2135   30.7527   44.2214 H   0  0  0  0  0  0  0  0  0  0  0  0
   63.4767   31.2332   48.9938 H   0  0  0  0  0  0  0  0  0  0  0  0
   64.6451   33.6446   48.6240 H   0  0  0  0  0  0  0  0  0  0  0  0
   63.3179   34.8348   46.6303 H   0  0  0  0  0  0  0  0  0  0  0  0
  1  2  1  0
  2  3  1  0
  3  4  2  0
  4  5  1  0
  5  6  2  0
  6  7  1  0
  7  8  2  0
  8  9  1  0
  9 10  1  0
 10 11  2  0
 10 12  1  0
 12 13  1  0
 13 14  1  0
 14 15  2  0
 15 16  1  0
 16 17  2  0
 17 18  1  0
 18 19  2  0
 19 20  1  0
 20 21  2  0
 21 22  1  0
 17 23  1  0
  8  3  1  0
 23 14  1  0
 22 18  1  0
  1 24  1  0
  1 25  1  0
  1 26  1  0
  2 27  1  0
  2 28  1  0
  4 29  1  0
  5 30  1  0
  6 31  1  0
  7 32  1  0
 12 33  1  0
 12 34  1  0
 19 35  1  0
 20 36  1  0
 21 37  1  0
M  CHG  1   9  -1
M  END
>  <UniqueID>  (47) 
47

>  <SMILES>  (47) 
CCc1ccccc1[N-]C(=O)CSc1nnc(-c2ccco2)o1

>  <Energy>  (47) 
92.98006803181002

>  <Genealogy>  (47) 
CCc1ccccc1[N-]C(=O)CSc1nnc(-c2ccco2)o1 (protonated)
CCc1ccccc1[N-]C(=O)CSc1nnc(-c2ccco2)o1 (3D coordinates assigned)
CCc1ccccc1[N-]C(=O)CSc1nnc(-c2ccco2)o1 (optimized conformer: 92.98006803181002 kcal/mol)

>  <smiles>  (47) 
CCc1ccccc1NC(=O)CSc1nnc(-c2ccco2)o1

>  <score_type>  (47) 
oracle

>  <origin>  (47) 
adg

>  <m_score__min__energy>  (47) 
-9.4100000000000001

>  <m_primary>  (47) 
energy

$$$$
47:0
     RDKit          3D

 21 21  0  0  0  0  0  0  0  0999 V2000
   56.8181   22.9951   44.8025 H   0  0  0  0  0  0  0  0  0  0  0  0
   57.2120   21.9740   44.9130 C   0  0  0  0  0  0  0  0  0  0  0  0
   58.2000   21.9083   44.4339 H   0  0  0  0  0  0  0  0  0  0  0  0
   56.5241   21.2618   44.4339 H   0  0  0  0  0  0  0  0  0  0  0  0
   57.3420   21.6370   46.3940 C   0  0  0  0  0  0  0  0  0  0  0  0
   56.5695   20.9026   46.6659 H   0  0  0  0  0  0  0  0  0  0  0  0
   58.3448   21.2226   46.5745 H   0  0  0  0  0  0  0  0  0  0  0  0
   57.1750   22.8350   47.2160 N   0  0  0  0  0  0  0  0  0  0  0  0
   56.9870   24.0300   46.7410 C   0  0  0  0  0  0  0  0  0  0  0  0
   55.7820   24.6420   46.6900 N   0  0  0  0  0  0  0  0  0  0  0  0
   55.8880   25.8860   46.1530 C   0  0  0  0  0  0  0  0  0  0  0  0
   54.7820   26.7150   46.0110 O   0  0  0  0  0  0  0  0  0  0  0  0
   57.1720   26.2600   45.7660 C   0  0  0  0  0  0  0  0  0  0  0  0
   57.5820   27.5880   45.2110 C   0  0  0  0  0  0  0  0  0  0  0  0
   56.7066   28.2535   45.1827 H   0  0  0  0  0  0  0  0  0  0  0  0
   58.3646   28.0146   45.8556 H   0  0  0  0  0  0  0  0  0  0  0  0
   58.1390   27.4330   43.8000 C   0  0  0  0  0  0  0  0  0  0  0  0
   59.1975   27.1385   43.8539 H   0  0  0  0  0  0  0  0  0  0  0  0
   57.5699   26.6591   43.2641 H   0  0  0  0  0  0  0  0  0  0  0  0
   58.0515   28.3896   43.2641 H   0  0  0  0  0  0  0  0  0  0  0  0
   58.2230   24.9940   46.1350 S   0  0  0  0  0  0  0  0  0  0  0  0
  1  2  1  0
  2  3  1  0
  2  4  1  0
  2  5  1  0
  5  6  1  0
  5  7  1  0
  5  8  1  0
  8  9  2  0
  9 10  1  0
 10 11  1  0
 11 12  1  0
 11 13  2  0
 13 14  1  0
 14 15  1  0
 14 16  1  0
 14 17  1  0
 17 18  1  0
 17 19  1  0
 17 20  1  0
 13 21  1  0
 21  9  1  0
M  CHG  2  10  -1  12  -1
M  END
>  <UniqueID>  (48) 
48

>  <SMILES>  (48) 
CC/N=c1\[n-]c([O-])c(CC)s1

>  <Energy>  (48) 
42.31881450948391

>  <Genealogy>  (48) 
CCN=c1[n-]c([O-])c(CC)s1 (protonated)
CC/N=c1\[n-]c([O-])c(CC)s1 (cis-trans isomerization)
CC/N=c1\[n-]c([O-])c(CC)s1 (3D coordinates assigned)
CC/N=c1\[n-]c([O-])c(CC)s1 (optimized conformer: 42.31881450948391 kcal/mol)

>  <smiles>  (48) 
CCN=c1[nH]c(O)c(CC)s1

>  <score_type>  (48) 
oracle

>  <origin>  (48) 
adg

>  <m_score__min__energy>  (48) 
-10.279999999999999

>  <m_primary>  (48) 
energy

$$$$
48:0
     RDKit          3D

 55 58  0  0  0  0  0  0  0  0999 V2000
   53.0840   31.1950   51.5380 C   0  0  0  0  0  0  0  0  0  0  0  0
   54.5420   30.7510   51.6220 C   0  0  0  0  0  0  0  0  0  0  0  0
   54.8720   30.3150   52.9940 N   0  0  0  0  0  0  0  0  0  0  0  0
   53.7140   29.7520   53.7290 C   0  0  0  0  0  0  0  0  0  0  0  0
   53.6240   28.2540   53.4690 C   0  0  0  0  0  0  0  0  0  0  0  0
   56.0640   29.4360   53.0530 C   0  0  0  0  0  0  0  0  0  0  0  0
   57.3230   30.1350   53.6290 C   0  0  0  0  0  0  0  0  0  0  0  0
   57.2920   31.5930   53.4190 N   0  0  0  0  0  0  0  0  0  0  0  0
   57.9650   31.9660   52.1950 C   0  0  0  0  0  0  0  0  0  0  0  0
   58.0500   31.0570   51.1250 C   0  0  0  0  0  0  0  0  0  0  0  0
   58.7440   31.3970   49.9620 C   0  0  0  0  0  0  0  0  0  0  0  0
   59.3560   32.6510   49.8470 C   0  0  0  0  0  0  0  0  0  0  0  0
   60.1000   32.9870   48.6650 N   0  0  0  0  0  0  0  0  0  0  0  0
   59.4600   33.4170   47.4400 C   0  0  0  0  0  0  0  0  0  0  0  0
   58.0560   33.3990   47.3080 C   0  0  0  0  0  0  0  0  0  0  0  0
   57.4480   33.8110   46.1210 C   0  0  0  0  0  0  0  0  0  0  0  0
   58.2250   34.2400   45.0460 C   0  0  0  0  0  0  0  0  0  0  0  0
   59.6160   34.2540   45.1490 C   0  0  0  0  0  0  0  0  0  0  0  0
   60.2470   33.8390   46.3320 C   0  0  0  0  0  0  0  0  0  0  0  0
   61.7630   33.8650   46.3860 C   0  0  0  0  0  0  0  0  0  0  0  0
   62.2700   33.3410   47.6500 N   0  0  0  0  0  0  0  0  0  0  0  0
   63.5490   33.2080   48.0500 C   0  0  0  0  0  0  0  0  0  0  0  0
   63.6440   32.7430   49.3170 N   0  0  0  0  0  0  0  0  0  0  0  0
   62.3640   32.5840   49.7220 C   0  0  0  0  0  0  0  0  0  0  0  0
   61.5310   32.9510   48.6880 C   0  0  0  0  0  0  0  0  0  0  0  0
   59.2600   33.5690   50.9020 C   0  0  0  0  0  0  0  0  0  0  0  0
   58.5670   33.2310   52.0670 C   0  0  0  0  0  0  0  0  0  0  0  0
   52.6792   31.3183   52.5533 H   0  0  0  0  0  0  0  0  0  0  0  0
   53.0227   32.1525   51.0001 H   0  0  0  0  0  0  0  0  0  0  0  0
   52.4994   30.4342   51.0001 H   0  0  0  0  0  0  0  0  0  0  0  0
   54.7062   29.9143   50.9270 H   0  0  0  0  0  0  0  0  0  0  0  0
   55.1882   31.5997   51.3534 H   0  0  0  0  0  0  0  0  0  0  0  0
   53.8430   29.9295   54.8069 H   0  0  0  0  0  0  0  0  0  0  0  0
   52.7901   30.2391   53.3839 H   0  0  0  0  0  0  0  0  0  0  0  0
   53.5917   27.7166   54.4283 H   0  0  0  0  0  0  0  0  0  0  0  0
   52.7111   28.0356   52.8955 H   0  0  0  0  0  0  0  0  0  0  0  0
   54.5042   27.9279   52.8955 H   0  0  0  0  0  0  0  0  0  0  0  0
   55.8262   28.5697   53.6878 H   0  0  0  0  0  0  0  0  0  0  0  0
   56.3014   29.1446   52.0192 H   0  0  0  0  0  0  0  0  0  0  0  0
   57.3780   29.9332   54.7089 H   0  0  0  0  0  0  0  0  0  0  0  0
   58.2028   29.7355   53.1032 H   0  0  0  0  0  0  0  0  0  0  0  0
   56.2940   31.9030   53.3570 H   0  0  0  0  0  0  0  0  0  0  0  0
   57.7170   32.0800   54.2440 H   0  0  0  0  0  0  0  0  0  0  0  0
   57.5667   30.0721   51.2049 H   0  0  0  0  0  0  0  0  0  0  0  0
   58.8101   30.6769   49.1331 H   0  0  0  0  0  0  0  0  0  0  0  0
   57.4341   33.0570   48.1484 H   0  0  0  0  0  0  0  0  0  0  0  0
   56.3516   33.7971   46.0335 H   0  0  0  0  0  0  0  0  0  0  0  0
   57.7402   34.5681   44.1147 H   0  0  0  0  0  0  0  0  0  0  0  0
   60.2230   34.5929   44.2965 H   0  0  0  0  0  0  0  0  0  0  0  0
   62.1590   33.2527   45.5624 H   0  0  0  0  0  0  0  0  0  0  0  0
   62.0902   34.9112   46.2941 H   0  0  0  0  0  0  0  0  0  0  0  0
   64.4170   33.4497   47.4190 H   0  0  0  0  0  0  0  0  0  0  0  0
   62.0422   32.2228   50.7099 H   0  0  0  0  0  0  0  0  0  0  0  0
   59.7318   34.5586   50.8123 H   0  0  0  0  0  0  0  0  0  0  0  0
   58.4916   33.9582   52.8889 H   0  0  0  0  0  0  0  0  0  0  0  0
  1  2  1  0
  2  3  1  0
  3  4  1  0
  4  5  1  0
  3  6  1  0
  6  7  1  0
  7  8  1  0
  8  9  1  0
  9 10  2  0
 10 11  1  0
 11 12  2  0
 12 13  1  0
 13 14  1  0
 14 15  2  0
 15 16  1  0
 16 17  2  0
 17 18  1  0
 18 19  2  0
 19 20  1  0
 20 21  1  0
 21 22  1  0
 22 23  2  0
 23 24  1  0
 24 25  2  0
 12 26  1  0
 26 27  2  0
 27  9  1  0
 25 13  1  0
 19 14  1  0
 25 21  1  0
  1 28  1  0
  1 29  1  0
  1 30  1  0
  2 31  1  0
  2 32  1  0
  4 33  1  0
  4 34  1  0
  5 35  1  0
  5 36  1  0
  5 37  1  0
  6 38  1  0
  6 39  1  0
  7 40  1  0
  7 41  1  0
  8 42  1  0
  8 43  1  0
 10 44  1  0
 11 45  1  0
 15 46  1  0
 16 47  1  0
 17 48  1  0
 18 49  1  0
 20 50  1  0
 20 51  1  0
 22 52  1  0
 24 53  1  0
 26 54  1  0
 27 55  1  0
M  CHG  1   8   1
M  END
>  <UniqueID>  (49) 
49

>  <SMILES>  (49) 
CCN(CC)CC[NH2+]c1ccc(N2c3ccccc3Cn3cncc32)cc1

>  <Energy>  (49) 
101.84586792045921

>  <Genealogy>  (49) 
CCN(CC)CC[NH2+]c1ccc(N2c3ccccc3Cn3cncc32)cc1 (protonated)
CCN(CC)CC[NH2+]c1ccc(N2c3ccccc3Cn3cncc32)cc1 (3D coordinates assigned)
CCN(CC)CC[NH2+]c1ccc(N2c3ccccc3Cn3cncc32)cc1 (nonaromatic ring conformer: 101.84586792045921 kcal/mol)

>  <smiles>  (49) 
CCN(CC)CCNc1ccc(N2c3ccccc3Cn3cncc32)cc1

>  <score_type>  (49) 
oracle

>  <origin>  (49) 
adg

>  <m_score__min__energy>  (49) 
-5.8099999999999996

>  <m_primary>  (49) 
energy

$$$$
