1:0
     RDKit          3D

 59 63  0  0  0  0  0  0  0  0999 V2000
   65.8780   30.4760   51.3050 C   0  0  0  0  0  0  0  0  0  0  0  0
   65.9750   31.9380   50.8370 C   0  0  0  0  0  0  0  0  0  0  0  0
   64.6920   32.5620   50.3910 N   0  0  2  0  0  0  0  0  0  0  0  0
   64.3710   33.7870   51.1670 C   0  0  0  0  0  0  0  0  0  0  0  0
   62.9960   34.3490   50.7320 C   0  0  0  0  0  0  0  0  0  0  0  0
   62.3960   33.5230   49.6410 N   0  0  2  0  0  0  0  0  0  0  0  0
   61.0890   34.1550   49.2600 C   0  0  0  0  0  0  0  0  0  0  0  0
   60.7550   34.2590   47.7480 C   0  0  0  0  0  0  0  0  0  0  0  0
   59.9460   33.1070   47.2070 C   0  0  0  0  0  0  0  0  0  0  0  0
   58.5550   33.2160   47.0850 C   0  0  0  0  0  0  0  0  0  0  0  0
   57.8080   32.1540   46.5770 C   0  0  0  0  0  0  0  0  0  0  0  0
   58.4300   30.9510   46.1930 C   0  0  0  0  0  0  0  0  0  0  0  0
   59.8280   30.8390   46.3120 C   0  0  0  0  0  0  0  0  0  0  0  0
   60.5740   31.9100   46.8370 C   0  0  0  0  0  0  0  0  0  0  0  0
   60.5250   29.5670   45.9410 C   0  0  0  0  0  0  0  0  0  0  0  0
   60.0930   28.4650   46.9040 C   0  0  0  0  0  0  0  0  0  0  0  0
   58.8250   27.7650   46.4770 C   0  0  0  0  0  0  0  0  0  0  0  0
   58.7450   26.4180   46.7080 N   0  0  0  0  0  0  0  0  0  0  0  0
   57.6570   25.6900   46.3510 C   0  0  0  0  0  0  0  0  0  0  0  0
   56.5840   26.3200   45.7420 C   0  0  0  0  0  0  0  0  0  0  0  0
   56.6340   27.6570   45.5290 N   0  0  0  0  0  0  0  0  0  0  0  0
   57.7070   28.4200   45.8830 C   0  0  0  0  0  0  0  0  0  0  0  0
   57.5880   29.8810   45.6000 C   0  0  0  0  0  0  0  0  0  0  0  0
   56.6470   30.2450   44.8430 O   0  0  0  0  0  0  0  0  0  0  0  0
   62.2340   32.1370   50.1520 C   0  0  0  0  0  0  0  0  0  0  0  0
   63.5990   31.5720   50.6160 C   0  0  0  0  0  0  0  0  0  0  0  0
   63.3550   33.4990   48.5000 C   0  0  0  0  0  0  0  0  0  0  0  0
   64.7210   32.9140   48.9450 C   0  0  0  0  0  0  0  0  0  0  0  0
   65.8758   30.4423   52.4045 H   0  0  0  0  0  0  0  0  0  0  0  0
   64.9483   30.0295   50.9226 H   0  0  0  0  0  0  0  0  0  0  0  0
   66.7406   29.9106   50.9226 H   0  0  0  0  0  0  0  0  0  0  0  0
   66.3686   32.5351   51.6728 H   0  0  0  0  0  0  0  0  0  0  0  0
   66.6270   31.9267   49.9511 H   0  0  0  0  0  0  0  0  0  0  0  0
   64.3406   33.5409   52.2387 H   0  0  0  0  0  0  0  0  0  0  0  0
   65.1452   34.5452   50.9781 H   0  0  0  0  0  0  0  0  0  0  0  0
   62.3175   34.3476   51.5978 H   0  0  0  0  0  0  0  0  0  0  0  0
   63.1411   35.3721   50.3550 H   0  0  0  0  0  0  0  0  0  0  0  0
   60.2888   33.5677   49.7342 H   0  0  0  0  0  0  0  0  0  0  0  0
   61.1734   35.1978   49.5998 H   0  0  0  0  0  0  0  0  0  0  0  0
   60.1855   35.1858   47.5846 H   0  0  0  0  0  0  0  0  0  0  0  0
   61.7161   34.2457   47.2130 H   0  0  0  0  0  0  0  0  0  0  0  0
   58.0496   34.1437   47.3914 H   0  0  0  0  0  0  0  0  0  0  0  0
   56.7177   32.2576   46.4749 H   0  0  0  0  0  0  0  0  0  0  0  0
   61.6624   31.8067   46.9584 H   0  0  0  0  0  0  0  0  0  0  0  0
   60.2551   29.2849   44.9126 H   0  0  0  0  0  0  0  0  0  0  0  0
   61.6142   29.7084   46.0023 H   0  0  0  0  0  0  0  0  0  0  0  0
   60.8996   27.7197   46.9668 H   0  0  0  0  0  0  0  0  0  0  0  0
   59.8927   28.9401   47.8757 H   0  0  0  0  0  0  0  0  0  0  0  0
   59.5370   25.9150   47.1660 H   0  0  0  0  0  0  0  0  0  0  0  0
   57.6272   24.6074   46.5438 H   0  0  0  0  0  0  0  0  0  0  0  0
   55.7008   25.7408   45.4346 H   0  0  0  0  0  0  0  0  0  0  0  0
   61.5359   32.1430   51.0021 H   0  0  0  0  0  0  0  0  0  0  0  0
   61.8398   31.5020   49.3449 H   0  0  0  0  0  0  0  0  0  0  0  0
   63.5441   31.3345   51.6886 H   0  0  0  0  0  0  0  0  0  0  0  0
   63.8204   30.6668   50.0315 H   0  0  0  0  0  0  0  0  0  0  0  0
   62.9410   32.8764   47.6932 H   0  0  0  0  0  0  0  0  0  0  0  0
   63.5095   34.5289   48.1458 H   0  0  0  0  0  0  0  0  0  0  0  0
   64.9363   32.0098   48.3567 H   0  0  0  0  0  0  0  0  0  0  0  0
   65.5025   33.6700   48.7788 H   0  0  0  0  0  0  0  0  0  0  0  0
  1  2  1  0
  3  2  1  1
  3  4  1  0
  4  5  1  0
  5  6  1  0
  6  7  1  6
  7  8  1  0
  8  9  1  0
  9 10  2  0
 10 11  1  0
 11 12  2  0
 12 13  1  0
 13 14  2  0
 13 15  1  0
 15 16  1  0
 16 17  1  0
 17 18  2  0
 18 19  1  0
 19 20  2  0
 20 21  1  0
 21 22  2  0
 22 23  1  0
 23 24  2  0
  6 25  1  0
 25 26  1  0
  6 27  1  0
 27 28  1  0
 26  3  1  0
 28  3  1  0
 14  9  1  0
 22 17  1  0
 23 12  1  0
  1 29  1  0
  1 30  1  0
  1 31  1  0
  2 32  1  0
  2 33  1  0
  4 34  1  0
  4 35  1  0
  5 36  1  0
  5 37  1  0
  7 38  1  0
  7 39  1  0
  8 40  1  0
  8 41  1  0
 10 42  1  0
 11 43  1  0
 14 44  1  0
 15 45  1  0
 15 46  1  0
 16 47  1  0
 16 48  1  0
 18 49  1  0
 19 50  1  0
 20 51  1  0
 25 52  1  0
 25 53  1  0
 26 54  1  0
 26 55  1  0
 27 56  1  0
 27 57  1  0
 28 58  1  0
 28 59  1  0
M  CHG  3   3   1   6   1  18   1
M  END
>  <UniqueID>  (1) 
1

>  <SMILES>  (1) 
CC[N+]12CC[N+](CCc3ccc4c(c3)CCc3[nH+]ccnc3C4=O)(CC1)CC2

>  <Energy>  (1) 
107.97723725379421

>  <Genealogy>  (1) 
CC[N+]12CC[N+](CCc3ccc4c(c3)CCc3[nH+]ccnc3C4=O)(CC1)CC2 (protonated)
CC[N+]12CC[N+](CCc3ccc4c(c3)CCc3[nH+]ccnc3C4=O)(CC1)CC2 (3D coordinates assigned)
CC[N+]12CC[N+](CCc3ccc4c(c3)CCc3[nH+]ccnc3C4=O)(CC1)CC2 (nonaromatic ring conformer: 107.97723725379421 kcal/mol)

>  <smiles>  (1) 
CC[N+]12CC[N+](CCc3ccc4c(c3)CCc3nccnc3C4=O)(CC1)CC2

>  <score_type>  (1) 
oracle

>  <origin>  (1) 
adg

>  <m_score__min__energy>  (1) 
-2.3999999999999999

>  <m_primary>  (1) 
energy

$$$$
2:0
     RDKit          3D

 50 53  0  0  0  0  0  0  0  0999 V2000
   63.3800   33.8890   46.3660 C   0  0  0  0  0  0  0  0  0  0  0  0
   63.9970   33.3780   47.6580 C   0  0  0  0  0  0  0  0  0  0  0  0
   63.1990   32.3160   48.1640 O   0  0  0  0  0  0  0  0  0  0  0  0
   62.9570   32.4590   49.5130 N   0  0  0  0  0  0  0  0  0  0  0  0
   63.1210   31.2100   50.2790 C   0  0  0  0  0  0  0  0  0  0  0  0
   61.7110   33.2020   49.7930 C   0  0  0  0  0  0  0  0  0  0  0  0
   60.4890   32.3830   49.3700 C   0  0  0  0  0  0  0  0  0  0  0  0
   60.7920   31.5340   48.2200 N   0  0  0  0  0  0  0  0  0  0  0  0
   59.8120   31.3420   47.1920 C   0  0  0  0  0  0  0  0  0  0  0  0
   59.2560   30.0850   46.9810 C   0  0  0  0  0  0  0  0  0  0  0  0
   58.3220   29.8710   45.9820 C   0  0  0  0  0  0  0  0  0  0  0  0
   57.9270   30.8650   45.1250 N   0  0  0  0  0  0  0  0  0  0  0  0
   57.0500   30.5460   43.9850 C   0  0  0  0  0  0  0  0  0  0  0  0
   58.3690   32.1570   45.3670 C   0  0  0  0  0  0  0  0  0  0  0  0
   57.8660   33.2640   44.6390 C   0  0  0  0  0  0  0  0  0  0  0  0
   58.3300   34.5560   44.8830 C   0  0  0  0  0  0  0  0  0  0  0  0
   59.2890   34.7870   45.8640 C   0  0  0  0  0  0  0  0  0  0  0  0
   59.7840   33.7280   46.6220 C   0  0  0  0  0  0  0  0  0  0  0  0
   59.3400   32.4100   46.3950 C   0  0  0  0  0  0  0  0  0  0  0  0
   57.9170   28.4550   46.0530 C   0  0  0  0  0  0  0  0  0  0  0  0
   56.9490   27.8000   45.3610 N   0  0  0  0  0  0  0  0  0  0  0  0
   56.6960   26.4850   45.6310 C   0  0  0  0  0  0  0  0  0  0  0  0
   57.4160   25.8100   46.6400 C   0  0  0  0  0  0  0  0  0  0  0  0
   58.3940   26.4970   47.3770 C   0  0  0  0  0  0  0  0  0  0  0  0
   58.6230   27.8320   47.0600 C   0  0  0  0  0  0  0  0  0  0  0  0
   59.4990   28.8170   47.6770 C   0  0  0  0  0  0  0  0  0  0  0  0
   60.3030   28.6110   48.6230 O   0  0  0  0  0  0  0  0  0  0  0  0
   62.5524   34.5744   46.6009 H   0  0  0  0  0  0  0  0  0  0  0  0
   64.1435   34.4229   45.7811 H   0  0  0  0  0  0  0  0  0  0  0  0
   62.9977   33.0394   45.7811 H   0  0  0  0  0  0  0  0  0  0  0  0
   65.0155   33.0123   47.4608 H   0  0  0  0  0  0  0  0  0  0  0  0
   64.0423   34.1927   48.3957 H   0  0  0  0  0  0  0  0  0  0  0  0
   63.0916   31.4336   51.3556 H   0  0  0  0  0  0  0  0  0  0  0  0
   62.3064   30.5153   50.0264 H   0  0  0  0  0  0  0  0  0  0  0  0
   64.0874   30.7492   50.0264 H   0  0  0  0  0  0  0  0  0  0  0  0
   61.6499   33.4122   50.8710 H   0  0  0  0  0  0  0  0  0  0  0  0
   61.7228   34.1422   49.2222 H   0  0  0  0  0  0  0  0  0  0  0  0
   60.1743   31.7480   50.2113 H   0  0  0  0  0  0  0  0  0  0  0  0
   59.6856   33.0787   49.0863 H   0  0  0  0  0  0  0  0  0  0  0  0
   61.7960   31.4430   47.9440 H   0  0  0  0  0  0  0  0  0  0  0  0
   56.0776   30.1923   44.3582 H   0  0  0  0  0  0  0  0  0  0  0  0
   56.9018   31.4478   43.3728 H   0  0  0  0  0  0  0  0  0  0  0  0
   57.5158   29.7597   43.3728 H   0  0  0  0  0  0  0  0  0  0  0  0
   57.0973   33.1014   43.8692 H   0  0  0  0  0  0  0  0  0  0  0  0
   57.9352   35.3983   44.2959 H   0  0  0  0  0  0  0  0  0  0  0  0
   59.6573   35.8082   46.0416 H   0  0  0  0  0  0  0  0  0  0  0  0
   60.5299   33.9229   47.4066 H   0  0  0  0  0  0  0  0  0  0  0  0
   55.9256   25.9483   45.0579 H   0  0  0  0  0  0  0  0  0  0  0  0
   57.2117   24.7494   46.8483 H   0  0  0  0  0  0  0  0  0  0  0  0
   58.9594   25.9970   48.1772 H   0  0  0  0  0  0  0  0  0  0  0  0
  1  2  1  0
  2  3  1  0
  3  4  1  0
  4  5  1  0
  4  6  1  0
  6  7  1  0
  7  8  1  0
  8  9  1  0
  9 10  2  0
 10 11  1  0
 11 12  2  0
 12 13  1  0
 12 14  1  0
 14 15  2  0
 15 16  1  0
 16 17  2  0
 17 18  1  0
 18 19  2  0
 11 20  1  0
 20 21  2  0
 21 22  1  0
 22 23  2  0
 23 24  1  0
 24 25  2  0
 25 26  1  0
 26 27  2  0
 19  9  1  0
 25 20  1  0
 26 10  1  0
 19 14  1  0
  1 28  1  0
  1 29  1  0
  1 30  1  0
  2 31  1  0
  2 32  1  0
  5 33  1  0
  5 34  1  0
  5 35  1  0
  6 36  1  0
  6 37  1  0
  7 38  1  0
  7 39  1  0
  8 40  1  0
 13 41  1  0
 13 42  1  0
 13 43  1  0
 15 44  1  0
 16 45  1  0
 17 46  1  0
 18 47  1  0
 22 48  1  0
 23 49  1  0
 24 50  1  0
M  CHG  1  12   1
M  END
>  <UniqueID>  (2) 
2

>  <SMILES>  (2) 
CCON(C)CCNc1c2c([n+](C)c3ccccc13)-c1ncccc1C2=O

>  <Energy>  (2) 
114.32295666388002

>  <Genealogy>  (2) 
CCON(C)CCNc1c2c([n+](C)c3ccccc13)-c1ncccc1C2=O (3D coordinates assigned)
CCON(C)CCNc1c2c([n+](C)c3ccccc13)-c1ncccc1C2=O (nonaromatic ring conformer: 114.32295666388002 kcal/mol)

>  <smiles>  (2) 
CCON(C)CCNc1c2c([n+](C)c3ccccc13)-c1ncccc1C2=O

>  <score_type>  (2) 
oracle

>  <origin>  (2) 
adg

>  <m_score__min__energy>  (2) 
-5.9400000000000004

>  <m_primary>  (2) 
energy

$$$$
3:0
     RDKit          3D

 47 48  0  0  0  0  0  0  0  0999 V2000
   63.2740   33.8170   46.3170 C   0  0  0  0  0  0  0  0  0  0  0  0
   62.7890   33.7260   47.7600 C   0  0  0  0  0  0  0  0  0  0  0  0
   61.4150   33.3440   47.8100 O   0  0  0  0  0  0  0  0  0  0  0  0
   60.9360   32.0250   47.8780 C   0  0  0  0  0  0  0  0  0  0  0  0
   61.4240   31.1990   48.8970 C   0  0  0  0  0  0  0  0  0  0  0  0
   60.9850   29.8770   49.0150 C   0  0  0  0  0  0  0  0  0  0  0  0
   60.0470   29.3600   48.1080 C   0  0  0  0  0  0  0  0  0  0  0  0
   59.5550   27.9360   48.2420 C   0  0  0  0  0  0  0  0  0  0  0  0
   58.9530   27.4300   46.9820 N   0  0  2  0  0  0  0  0  0  0  0  0
   58.3030   26.1240   47.2120 C   0  0  0  0  0  0  0  0  0  0  0  0
   59.9890   27.3100   45.9120 C   0  0  0  0  0  0  0  0  0  0  0  0
   59.5480   27.9400   44.5740 C   0  0  0  0  0  0  0  0  0  0  0  0
   58.0760   27.6940   44.2250 C   0  0  0  0  0  0  0  0  0  0  0  0
   57.2080   28.3770   45.1770 N   0  0  0  0  0  0  0  0  0  0  0  0
   56.3830   29.4860   44.8130 C   0  0  0  0  0  0  0  0  0  0  0  0
   55.1260   29.3820   44.8430 O   0  0  0  0  0  0  0  0  0  0  0  0
   57.0070   30.7490   44.4090 C   0  0  0  0  0  0  0  0  0  0  0  0
   57.3150   31.1300   43.1150 C   0  0  0  0  0  0  0  0  0  0  0  0
   57.8790   32.3830   43.2200 C   0  0  0  0  0  0  0  0  0  0  0  0
   57.8780   32.6840   44.5660 C   0  0  0  0  0  0  0  0  0  0  0  0
   58.5350   34.2970   45.3420 Br  0  0  0  0  0  0  0  0  0  0  0  0
   57.3540   31.6950   45.2510 O   0  0  0  0  0  0  0  0  0  0  0  0
   59.5570   30.1830   47.0830 C   0  0  0  0  0  0  0  0  0  0  0  0
   59.9980   31.5040   46.9650 C   0  0  0  0  0  0  0  0  0  0  0  0
   64.3551   34.0198   46.3056 H   0  0  0  0  0  0  0  0  0  0  0  0
   63.0740   32.8657   45.8023 H   0  0  0  0  0  0  0  0  0  0  0  0
   62.7427   34.6311   45.8023 H   0  0  0  0  0  0  0  0  0  0  0  0
   63.3910   32.9777   48.2962 H   0  0  0  0  0  0  0  0  0  0  0  0
   62.8975   34.7140   48.2312 H   0  0  0  0  0  0  0  0  0  0  0  0
   62.1604   31.5940   49.6123 H   0  0  0  0  0  0  0  0  0  0  0  0
   61.3762   29.2396   49.8217 H   0  0  0  0  0  0  0  0  0  0  0  0
   60.4044   27.2916   48.5126 H   0  0  0  0  0  0  0  0  0  0  0  0
   58.7766   27.9192   49.0190 H   0  0  0  0  0  0  0  0  0  0  0  0
   58.2000   28.0900   46.6740 H   0  0  0  0  0  0  0  0  0  0  0  0
   58.2136   25.9444   48.2935 H   0  0  0  0  0  0  0  0  0  0  0  0
   57.3016   26.1276   46.7569 H   0  0  0  0  0  0  0  0  0  0  0  0
   58.9097   25.3273   46.7569 H   0  0  0  0  0  0  0  0  0  0  0  0
   60.9050   27.8150   46.2524 H   0  0  0  0  0  0  0  0  0  0  0  0
   60.1547   26.2375   45.7325 H   0  0  0  0  0  0  0  0  0  0  0  0
   59.7131   29.0260   44.6319 H   0  0  0  0  0  0  0  0  0  0  0  0
   60.1467   27.4624   43.7844 H   0  0  0  0  0  0  0  0  0  0  0  0
   57.8747   28.0748   43.2128 H   0  0  0  0  0  0  0  0  0  0  0  0
   57.8741   26.6136   44.2688 H   0  0  0  0  0  0  0  0  0  0  0  0
   57.1450   30.5529   42.1941 H   0  0  0  0  0  0  0  0  0  0  0  0
   58.2529   33.0131   42.3995 H   0  0  0  0  0  0  0  0  0  0  0  0
   58.8213   29.7863   46.3679 H   0  0  0  0  0  0  0  0  0  0  0  0
   59.6108   32.1400   46.1553 H   0  0  0  0  0  0  0  0  0  0  0  0
  1  2  1  0
  2  3  1  0
  3  4  1  0
  4  5  2  0
  5  6  1  0
  6  7  2  0
  7  8  1  0
  8  9  1  0
  9 10  1  0
  9 11  1  0
 11 12  1  0
 12 13  1  0
 13 14  1  0
 14 15  1  0
 15 16  2  0
 15 17  1  0
 17 18  2  0
 18 19  1  0
 19 20  2  0
 20 21  1  0
 20 22  1  0
  7 23  1  0
 23 24  2  0
 24  4  1  0
 22 17  1  0
  1 25  1  0
  1 26  1  0
  1 27  1  0
  2 28  1  0
  2 29  1  0
  5 30  1  0
  6 31  1  0
  8 32  1  0
  8 33  1  0
  9 34  1  6
 10 35  1  0
 10 36  1  0
 10 37  1  0
 11 38  1  0
 11 39  1  0
 12 40  1  0
 12 41  1  0
 13 42  1  0
 13 43  1  0
 18 44  1  0
 19 45  1  0
 23 46  1  0
 24 47  1  0
M  CHG  2   9   1  14  -1
M  END
>  <UniqueID>  (3) 
3

>  <SMILES>  (3) 
CCOc1ccc(C[N@H+](C)CCC[N-]C(=O)c2ccc(Br)o2)cc1

>  <Energy>  (3) 
68.27994659121391

>  <Genealogy>  (3) 
CCOc1ccc(C[NH+](C)CCC[N-]C(=O)c2ccc(Br)o2)cc1 (protonated)
CCOc1ccc(C[N@H+](C)CCC[N-]C(=O)c2ccc(Br)o2)cc1 (chirality)
CCOc1ccc(C[N@H+](C)CCC[N-]C(=O)c2ccc(Br)o2)cc1 (3D coordinates assigned)
CCOc1ccc(C[N@H+](C)CCC[N-]C(=O)c2ccc(Br)o2)cc1 (optimized conformer: 68.27994659121391 kcal/mol)

>  <smiles>  (3) 
CCOc1ccc(CN(C)CCCNC(=O)c2ccc(Br)o2)cc1

>  <score_type>  (3) 
oracle

>  <origin>  (3) 
adg

>  <m_score__min__energy>  (3) 
-6.8099999999999996

>  <m_primary>  (3) 
energy

$$$$
4:0
     RDKit          3D

 69 72  0  0  0  0  0  0  0  0999 V2000
   59.3340   33.4680   50.6720 C   0  0  0  0  0  0  0  0  0  0  0  0
   60.5980   32.6120   50.7590 C   0  0  0  0  0  0  0  0  0  0  0  0
   60.5010   31.4450   49.8460 N   0  0  0  0  0  0  0  0  0  0  0  0
   61.6840   30.5630   49.9670 C   0  0  0  0  0  0  0  0  0  0  0  0
   62.2060   30.6020   51.4000 C   0  0  0  0  0  0  0  0  0  0  0  0
   59.2510   30.6840   50.0780 C   0  0  0  0  0  0  0  0  0  0  0  0
   58.9150   29.8220   48.8560 C   0  0  0  0  0  0  0  0  0  0  0  0
   59.8820   30.0420   47.7760 N   0  0  0  0  0  0  0  0  0  0  0  0
   59.3980   30.3610   46.4630 C   0  0  0  0  0  0  0  0  0  0  0  0
   59.0200   29.3030   45.6180 C   0  0  0  0  0  0  0  0  0  0  0  0
   59.4320   27.9810   45.9000 C   0  0  0  0  0  0  0  0  0  0  0  0
   59.0060   26.9160   45.1120 C   0  0  0  0  0  0  0  0  0  0  0  0
   58.1480   27.1450   44.0440 C   0  0  0  0  0  0  0  0  0  0  0  0
   57.7380   28.4430   43.7380 C   0  0  0  0  0  0  0  0  0  0  0  0
   58.1930   29.5560   44.4950 C   0  0  0  0  0  0  0  0  0  0  0  0
   57.8130   30.8490   44.1940 N   0  0  0  0  0  0  0  0  0  0  0  0
   57.1250   31.1370   42.9130 C   0  0  0  0  0  0  0  0  0  0  0  0
   58.1040   31.8830   45.0680 C   0  0  0  0  0  0  0  0  0  0  0  0
   57.4820   33.1500   44.9380 C   0  0  0  0  0  0  0  0  0  0  0  0
   57.8540   34.2180   45.7420 C   0  0  0  0  0  0  0  0  0  0  0  0
   58.8860   34.0760   46.6550 C   0  0  0  0  0  0  0  0  0  0  0  0
   59.5130   32.8340   46.8540 C   0  0  0  0  0  0  0  0  0  0  0  0
   60.7570   32.8270   47.6000 N   0  0  0  0  0  0  0  0  0  0  0  0
   61.8350   33.5190   46.8730 C   0  0  0  0  0  0  0  0  0  0  0  0
   63.1890   32.8500   47.1430 C   0  0  0  0  0  0  0  0  0  0  0  0
   63.5880   33.0450   48.5340 N   0  0  0  0  0  0  0  0  0  0  0  0
   63.1470   34.0000   49.3780 C   0  0  0  0  0  0  0  0  0  0  0  0
   63.8160   33.8590   50.5780 C   0  0  0  0  0  0  0  0  0  0  0  0
   64.6620   32.8150   50.4700 N   0  0  0  0  0  0  0  0  0  0  0  0
   65.6350   32.3750   51.4640 C   0  0  0  0  0  0  0  0  0  0  0  0
   64.5180   32.3440   49.2150 C   0  0  0  0  0  0  0  0  0  0  0  0
   59.0250   31.6870   46.1410 C   0  0  0  0  0  0  0  0  0  0  0  0
   58.9820   33.7064   51.6866 H   0  0  0  0  0  0  0  0  0  0  0  0
   59.5589   34.4004   50.1334 H   0  0  0  0  0  0  0  0  0  0  0  0
   58.5517   32.9131   50.1334 H   0  0  0  0  0  0  0  0  0  0  0  0
   61.4683   33.2220   50.4752 H   0  0  0  0  0  0  0  0  0  0  0  0
   60.7099   32.2475   51.7908 H   0  0  0  0  0  0  0  0  0  0  0  0
   61.4002   29.5321   49.7085 H   0  0  0  0  0  0  0  0  0  0  0  0
   62.4710   30.9107   49.2816 H   0  0  0  0  0  0  0  0  0  0  0  0
   61.3600   30.5388   52.1002 H   0  0  0  0  0  0  0  0  0  0  0  0
   62.8841   29.7520   51.5665 H   0  0  0  0  0  0  0  0  0  0  0  0
   62.7503   31.5433   51.5665 H   0  0  0  0  0  0  0  0  0  0  0  0
   59.3803   30.0337   50.9557 H   0  0  0  0  0  0  0  0  0  0  0  0
   58.4284   31.3936   50.2509 H   0  0  0  0  0  0  0  0  0  0  0  0
   58.9360   28.7614   49.1471 H   0  0  0  0  0  0  0  0  0  0  0  0
   57.9150   30.1024   48.4936 H   0  0  0  0  0  0  0  0  0  0  0  0
   60.8560   29.6740   47.8690 H   0  0  0  0  0  0  0  0  0  0  0  0
   60.0986   27.7911   46.7542 H   0  0  0  0  0  0  0  0  0  0  0  0
   59.3482   25.8945   45.3346 H   0  0  0  0  0  0  0  0  0  0  0  0
   57.7905   26.3000   43.4373 H   0  0  0  0  0  0  0  0  0  0  0  0
   57.0501   28.6077   42.8955 H   0  0  0  0  0  0  0  0  0  0  0  0
   56.1281   31.5543   43.1180 H   0  0  0  0  0  0  0  0  0  0  0  0
   57.7150   31.8637   42.3352 H   0  0  0  0  0  0  0  0  0  0  0  0
   57.0214   30.2067   42.3352 H   0  0  0  0  0  0  0  0  0  0  0  0
   56.6907   33.2890   44.1867 H   0  0  0  0  0  0  0  0  0  0  0  0
   57.3279   35.1800   45.6541 H   0  0  0  0  0  0  0  0  0  0  0  0
   59.2203   34.9497   47.2338 H   0  0  0  0  0  0  0  0  0  0  0  0
   61.0360   31.8290   47.7470 H   0  0  0  0  0  0  0  0  0  0  0  0
   60.6370   33.2210   48.5580 H   0  0  0  0  0  0  0  0  0  0  0  0
   61.6235   33.4832   45.7941 H   0  0  0  0  0  0  0  0  0  0  0  0
   61.8812   34.5622   47.2190 H   0  0  0  0  0  0  0  0  0  0  0  0
   63.1076   31.7724   46.9375 H   0  0  0  0  0  0  0  0  0  0  0  0
   63.9471   33.3049   46.4886 H   0  0  0  0  0  0  0  0  0  0  0  0
   62.3855   34.7604   49.1499 H   0  0  0  0  0  0  0  0  0  0  0  0
   63.6816   34.4901   51.4688 H   0  0  0  0  0  0  0  0  0  0  0  0
   65.2357   32.5556   52.4729 H   0  0  0  0  0  0  0  0  0  0  0  0
   65.8314   31.3005   51.3343 H   0  0  0  0  0  0  0  0  0  0  0  0
   66.5715   32.9372   51.3343 H   0  0  0  0  0  0  0  0  0  0  0  0
   65.0853   31.4978   48.8001 H   0  0  0  0  0  0  0  0  0  0  0  0
  1  2  1  0
  2  3  1  0
  3  4  1  0
  4  5  1  0
  3  6  1  0
  6  7  1  0
  7  8  1  0
  8  9  1  0
  9 10  2  0
 10 11  1  0
 11 12  2  0
 12 13  1  0
 13 14  2  0
 14 15  1  0
 15 16  2  0
 16 17  1  0
 16 18  1  0
 18 19  2  0
 19 20  1  0
 20 21  2  0
 21 22  1  0
 22 23  1  0
 23 24  1  0
 24 25  1  0
 25 26  1  0
 26 27  1  0
 27 28  2  0
 28 29  1  0
 29 30  1  0
 29 31  1  0
 22 32  2  0
 32  9  1  0
 15 10  1  0
 32 18  1  0
 31 26  2  0
  1 33  1  0
  1 34  1  0
  1 35  1  0
  2 36  1  0
  2 37  1  0
  4 38  1  0
  4 39  1  0
  5 40  1  0
  5 41  1  0
  5 42  1  0
  6 43  1  0
  6 44  1  0
  7 45  1  0
  7 46  1  0
  8 47  1  0
 11 48  1  0
 12 49  1  0
 13 50  1  0
 14 51  1  0
 17 52  1  0
 17 53  1  0
 17 54  1  0
 19 55  1  0
 20 56  1  0
 21 57  1  0
 23 58  1  0
 23 59  1  0
 24 60  1  0
 24 61  1  0
 25 62  1  0
 25 63  1  0
 27 64  1  0
 28 65  1  0
 30 66  1  0
 30 67  1  0
 30 68  1  0
 31 69  1  0
M  CHG  3  16   1  23   1  26   1
M  END
>  <UniqueID>  (4) 
4

>  <SMILES>  (4) 
CCN(CC)CCNc1c2ccccc2[n+](C)c2cccc([NH2+]CC[n+]3ccn(C)c3)c12

>  <Energy>  (4) 
133.74209347613788

>  <Genealogy>  (4) 
CCN(CC)CCNc1c2ccccc2[n+](C)c2cccc([NH2+]CC[n+]3ccn(C)c3)c12 (protonated)
CCN(CC)CCNc1c2ccccc2[n+](C)c2cccc([NH2+]CC[n+]3ccn(C)c3)c12 (3D coordinates assigned)
CCN(CC)CCNc1c2ccccc2[n+](C)c2cccc([NH2+]CC[n+]3ccn(C)c3)c12 (optimized conformer: 133.74209347613788 kcal/mol)

>  <smiles>  (4) 
CCN(CC)CCNc1c2ccccc2[n+](C)c2cccc(NCC[n+]3ccn(C)c3)c12

>  <score_type>  (4) 
oracle

>  <origin>  (4) 
adg

>  <m_score__min__energy>  (4) 
-2.8500000000000001

>  <m_primary>  (4) 
energy

$$$$
5:0
     RDKit          3D

 85 88  0  0  0  0  0  0  0  0999 V2000
   52.5710   30.4800   50.7980 C   0  0  0  0  0  0  0  0  0  0  0  0
   53.5290   31.0530   51.8450 C   0  0  0  0  0  0  0  0  0  0  0  0
   54.8110   30.2180   51.9970 C   0  0  0  0  0  0  0  0  0  0  0  0
   55.7470   30.7830   53.0920 C   0  0  0  0  0  0  0  0  0  0  0  0
   57.2020   30.8340   52.7240 N   0  0  2  0  0  0  0  0  0  0  0  0
   57.5870   29.5700   52.0400 C   0  0  0  0  0  0  0  0  0  0  0  0
   58.0460   31.0240   53.9490 C   0  0  0  0  0  0  0  0  0  0  0  0
   59.3260   31.8410   53.6730 C   0  0  0  0  0  0  0  0  0  0  0  0
   59.0260   33.2420   53.2240 N   0  0  1  0  0  0  0  0  0  0  0  0
   58.9040   34.1420   54.4030 C   0  0  0  0  0  0  0  0  0  0  0  0
   60.0960   33.7800   52.3120 C   0  0  0  0  0  0  0  0  0  0  0  0
   60.8040   32.7990   51.3370 C   0  0  0  0  0  0  0  0  0  0  0  0
   59.9240   32.0190   50.5360 O   0  0  0  0  0  0  0  0  0  0  0  0
   59.5870   32.3160   49.2110 C   0  0  0  0  0  0  0  0  0  0  0  0
   59.6490   33.6150   48.7090 C   0  0  0  0  0  0  0  0  0  0  0  0
   59.3900   33.8560   47.3630 C   0  0  0  0  0  0  0  0  0  0  0  0
   59.0540   32.8000   46.4790 C   0  0  0  0  0  0  0  0  0  0  0  0
   58.9020   31.4910   47.0090 C   0  0  0  0  0  0  0  0  0  0  0  0
   59.2020   31.2730   48.3720 C   0  0  0  0  0  0  0  0  0  0  0  0
   58.4310   30.4450   46.1690 C   0  0  0  0  0  0  0  0  0  0  0  0
   58.3360   29.0800   46.6720 N   0  0  0  0  0  0  0  0  0  0  0  0
   59.2560   28.1890   45.9370 C   0  0  0  0  0  0  0  0  0  0  0  0
   58.5120   27.0500   45.2100 C   0  0  0  0  0  0  0  0  0  0  0  0
   57.0540   27.0740   45.4280 N   0  0  0  0  0  0  0  0  0  0  0  0
   56.5770   25.8900   46.1520 C   0  0  0  0  0  0  0  0  0  0  0  0
   57.6560   25.3940   47.1110 C   0  0  0  0  0  0  0  0  0  0  0  0
   57.9760   30.7790   44.8650 C   0  0  0  0  0  0  0  0  0  0  0  0
   57.2830   29.8440   44.0570 C   0  0  0  0  0  0  0  0  0  0  0  0
   56.8330   30.1900   42.7850 C   0  0  0  0  0  0  0  0  0  0  0  0
   57.0480   31.4690   42.2940 C   0  0  0  0  0  0  0  0  0  0  0  0
   57.7180   32.4110   43.0670 C   0  0  0  0  0  0  0  0  0  0  0  0
   58.2040   32.0890   44.3600 C   0  0  0  0  0  0  0  0  0  0  0  0
   58.8570   33.0280   45.1330 N   0  0  0  0  0  0  0  0  0  0  0  0
   59.3640   34.2710   44.5080 C   0  0  0  0  0  0  0  0  0  0  0  0
   57.7190   33.2910   52.4810 C   0  0  0  0  0  0  0  0  0  0  0  0
   57.4050   31.9630   51.7590 C   0  0  0  0  0  0  0  0  0  0  0  0
   51.7326   29.9785   51.3036 H   0  0  0  0  0  0  0  0  0  0  0  0
   52.1849   31.2956   50.1689 H   0  0  0  0  0  0  0  0  0  0  0  0
   53.1069   29.7540   50.1689 H   0  0  0  0  0  0  0  0  0  0  0  0
   53.8076   32.0741   51.5455 H   0  0  0  0  0  0  0  0  0  0  0  0
   53.0080   31.0408   52.8137 H   0  0  0  0  0  0  0  0  0  0  0  0
   54.5336   29.1877   52.2644 H   0  0  0  0  0  0  0  0  0  0  0  0
   55.3517   30.2499   51.0396 H   0  0  0  0  0  0  0  0  0  0  0  0
   55.4188   31.8066   53.3256 H   0  0  0  0  0  0  0  0  0  0  0  0
   55.6714   30.0925   53.9449 H   0  0  0  0  0  0  0  0  0  0  0  0
   57.8208   28.8024   52.7924 H   0  0  0  0  0  0  0  0  0  0  0  0
   56.7532   29.2248   51.4109 H   0  0  0  0  0  0  0  0  0  0  0  0
   58.4716   29.7482   51.4109 H   0  0  0  0  0  0  0  0  0  0  0  0
   58.3364   30.0348   54.3325 H   0  0  0  0  0  0  0  0  0  0  0  0
   57.4462   31.5855   54.6804 H   0  0  0  0  0  0  0  0  0  0  0  0
   59.9054   31.3347   52.8869 H   0  0  0  0  0  0  0  0  0  0  0  0
   59.8922   31.9047   54.6139 H   0  0  0  0  0  0  0  0  0  0  0  0
   58.9843   33.5496   55.3264 H   0  0  0  0  0  0  0  0  0  0  0  0
   59.7088   34.8914   54.3770 H   0  0  0  0  0  0  0  0  0  0  0  0
   57.9288   34.6502   54.3770 H   0  0  0  0  0  0  0  0  0  0  0  0
   59.6341   34.5686   51.6999 H   0  0  0  0  0  0  0  0  0  0  0  0
   60.8950   34.1017   52.9962 H   0  0  0  0  0  0  0  0  0  0  0  0
   61.4474   33.3872   50.6661 H   0  0  0  0  0  0  0  0  0  0  0  0
   61.3655   32.0898   51.9629 H   0  0  0  0  0  0  0  0  0  0  0  0
   59.9030   34.4507   49.3777 H   0  0  0  0  0  0  0  0  0  0  0  0
   59.4471   34.8848   46.9780 H   0  0  0  0  0  0  0  0  0  0  0  0
   59.1298   30.2544   48.7809 H   0  0  0  0  0  0  0  0  0  0  0  0
   58.5370   29.0420   47.6950 H   0  0  0  0  0  0  0  0  0  0  0  0
   57.3490   28.7430   46.6090 H   0  0  0  0  0  0  0  0  0  0  0  0
   59.8055   28.7841   45.1928 H   0  0  0  0  0  0  0  0  0  0  0  0
   59.9381   27.7319   46.6690 H   0  0  0  0  0  0  0  0  0  0  0  0
   58.7053   27.1396   44.1308 H   0  0  0  0  0  0  0  0  0  0  0  0
   58.8875   26.1011   45.6207 H   0  0  0  0  0  0  0  0  0  0  0  0
   56.5340   27.1660   44.5230 H   0  0  0  0  0  0  0  0  0  0  0  0
   55.6743   26.1517   46.7234 H   0  0  0  0  0  0  0  0  0  0  0  0
   56.3436   25.0946   45.4289 H   0  0  0  0  0  0  0  0  0  0  0  0
   57.3232   25.5470   48.1482 H   0  0  0  0  0  0  0  0  0  0  0  0
   57.8361   24.3227   46.9379 H   0  0  0  0  0  0  0  0  0  0  0  0
   58.5863   25.9548   46.9379 H   0  0  0  0  0  0  0  0  0  0  0  0
   57.0975   28.8296   44.4399 H   0  0  0  0  0  0  0  0  0  0  0  0
   56.3059   29.4470   42.1685 H   0  0  0  0  0  0  0  0  0  0  0  0
   56.6876   31.7391   41.2904 H   0  0  0  0  0  0  0  0  0  0  0  0
   57.8739   33.4243   42.6684 H   0  0  0  0  0  0  0  0  0  0  0  0
   59.6549   34.9841   45.2934 H   0  0  0  0  0  0  0  0  0  0  0  0
   60.2385   34.0369   43.8831 H   0  0  0  0  0  0  0  0  0  0  0  0
   58.5753   34.7153   43.8831 H   0  0  0  0  0  0  0  0  0  0  0  0
   57.7668   34.0970   51.7340 H   0  0  0  0  0  0  0  0  0  0  0  0
   56.9207   33.4712   53.2161 H   0  0  0  0  0  0  0  0  0  0  0  0
   58.2439   31.7141   51.0925 H   0  0  0  0  0  0  0  0  0  0  0  0
   56.4723   32.0969   51.1914 H   0  0  0  0  0  0  0  0  0  0  0  0
  1  2  1  0
  2  3  1  0
  3  4  1  0
  5  4  1  1
  5  6  1  0
  5  7  1  0
  7  8  1  0
  8  9  1  0
  9 10  1  1
  9 11  1  0
 11 12  1  0
 12 13  1  0
 13 14  1  0
 14 15  2  0
 15 16  1  0
 16 17  2  0
 17 18  1  0
 18 19  2  0
 18 20  1  0
 20 21  1  0
 21 22  1  0
 22 23  1  0
 23 24  1  0
 24 25  1  0
 25 26  1  0
 20 27  2  0
 27 28  1  0
 28 29  2  0
 29 30  1  0
 30 31  2  0
 31 32  1  0
 32 33  2  0
 33 34  1  0
  9 35  1  0
 35 36  1  0
 36  5  1  0
 19 14  1  0
 32 27  1  0
 33 17  1  0
  1 37  1  0
  1 38  1  0
  1 39  1  0
  2 40  1  0
  2 41  1  0
  3 42  1  0
  3 43  1  0
  4 44  1  0
  4 45  1  0
  6 46  1  0
  6 47  1  0
  6 48  1  0
  7 49  1  0
  7 50  1  0
  8 51  1  0
  8 52  1  0
 10 53  1  0
 10 54  1  0
 10 55  1  0
 11 56  1  0
 11 57  1  0
 12 58  1  0
 12 59  1  0
 15 60  1  0
 16 61  1  0
 19 62  1  0
 21 63  1  0
 21 64  1  0
 22 65  1  0
 22 66  1  0
 23 67  1  0
 23 68  1  0
 24 69  1  0
 25 70  1  0
 25 71  1  0
 26 72  1  0
 26 73  1  0
 26 74  1  0
 28 75  1  0
 29 76  1  0
 30 77  1  0
 31 78  1  0
 34 79  1  0
 34 80  1  0
 34 81  1  0
 35 82  1  0
 35 83  1  0
 36 84  1  0
 36 85  1  0
M  CHG  4   5   1   9   1  21   1  33   1
M  END
>  <UniqueID>  (5) 
5

>  <SMILES>  (5) 
CCCC[N+]1(C)CC[N+](C)(CCOc2ccc3c(c2)c([NH2+]CCNCC)c2ccccc2[n+]3C)CC1

>  <Energy>  (5) 
148.99467074040336

>  <Genealogy>  (5) 
CCCC[N+]1(C)CC[N+](C)(CCOc2ccc3c(c2)c([NH2+]CCNCC)c2ccccc2[n+]3C)CC1 (protonated)
CCCC[N+]1(C)CC[N+](C)(CCOc2ccc3c(c2)c([NH2+]CCNCC)c2ccccc2[n+]3C)CC1 (3D coordinates assigned)
CCCC[N+]1(C)CC[N+](C)(CCOc2ccc3c(c2)c([NH2+]CCNCC)c2ccccc2[n+]3C)CC1 (nonaromatic ring conformer: 148.99467074040336 kcal/mol)

>  <smiles>  (5) 
CCCC[N+]1(C)CC[N+](C)(CCOc2ccc3c(c2)c(NCCNCC)c2ccccc2[n+]3C)CC1

>  <score_type>  (5) 
oracle

>  <origin>  (5) 
adg

>  <m_score__min__energy>  (5) 
-2.8999999999999999

>  <m_primary>  (5) 
energy

$$$$
6:0
     RDKit          3D

 49 51  0  0  0  0  0  0  0  0999 V2000
   62.4270   33.8410   46.5300 C   0  0  0  0  0  0  0  0  0  0  0  0
   63.7750   33.1960   46.8230 C   0  0  0  0  0  0  0  0  0  0  0  0
   63.5720   31.8540   47.3870 N   0  0  0  0  0  0  0  0  0  0  0  0
   62.6090   31.8570   48.4980 C   0  0  0  0  0  0  0  0  0  0  0  0
   61.3100   31.0900   48.1580 C   0  0  0  0  0  0  0  0  0  0  0  0
   61.2460   30.7150   46.7310 N   0  0  0  0  0  0  0  0  0  0  0  0
   59.8740   30.6680   46.2350 C   0  0  0  0  0  0  0  0  0  0  0  0
   59.1420   31.8600   46.0360 C   0  0  0  0  0  0  0  0  0  0  0  0
   59.4210   33.0300   46.7750 C   0  0  0  0  0  0  0  0  0  0  0  0
   58.6790   34.1920   46.5750 C   0  0  0  0  0  0  0  0  0  0  0  0
   57.6420   34.2070   45.6500 C   0  0  0  0  0  0  0  0  0  0  0  0
   57.3520   33.0660   44.9050 C   0  0  0  0  0  0  0  0  0  0  0  0
   58.1090   31.8790   45.0640 C   0  0  0  0  0  0  0  0  0  0  0  0
   57.8740   30.7600   44.2920 N   0  0  0  0  0  0  0  0  0  0  0  0
   57.0980   30.8740   43.0380 C   0  0  0  0  0  0  0  0  0  0  0  0
   58.3520   29.5310   44.7080 C   0  0  0  0  0  0  0  0  0  0  0  0
   57.8980   28.3260   44.1220 C   0  0  0  0  0  0  0  0  0  0  0  0
   58.3600   27.0930   44.5660 C   0  0  0  0  0  0  0  0  0  0  0  0
   59.2120   27.0180   45.6580 C   0  0  0  0  0  0  0  0  0  0  0  0
   59.6470   28.1820   46.3090 C   0  0  0  0  0  0  0  0  0  0  0  0
   60.2490   28.0700   47.6150 N   0  0  0  0  0  0  0  0  0  0  0  0
   59.5660   28.4600   48.8440 C   0  0  0  0  0  0  0  0  0  0  0  0
   59.3060   29.4560   45.7640 C   0  0  0  0  0  0  0  0  0  0  0  0
   61.9224   34.0824   47.4772 H   0  0  0  0  0  0  0  0  0  0  0  0
   62.5801   34.7634   45.9506 H   0  0  0  0  0  0  0  0  0  0  0  0
   61.8048   33.1431   45.9506 H   0  0  0  0  0  0  0  0  0  0  0  0
   64.3525   33.1167   45.8901 H   0  0  0  0  0  0  0  0  0  0  0  0
   64.3245   33.8153   47.5472 H   0  0  0  0  0  0  0  0  0  0  0  0
   64.4910   31.4820   47.7240 H   0  0  0  0  0  0  0  0  0  0  0  0
   63.0788   31.3845   49.3733 H   0  0  0  0  0  0  0  0  0  0  0  0
   62.3360   32.9031   48.7008 H   0  0  0  0  0  0  0  0  0  0  0  0
   61.2677   30.1754   48.7677 H   0  0  0  0  0  0  0  0  0  0  0  0
   60.4584   31.7519   48.3738 H   0  0  0  0  0  0  0  0  0  0  0  0
   61.7110   29.7910   46.5840 H   0  0  0  0  0  0  0  0  0  0  0  0
   61.8260   31.4230   46.2320 H   0  0  0  0  0  0  0  0  0  0  0  0
   60.2332   33.0241   47.5169 H   0  0  0  0  0  0  0  0  0  0  0  0
   58.9144   35.0995   47.1504 H   0  0  0  0  0  0  0  0  0  0  0  0
   57.0487   35.1220   45.5057 H   0  0  0  0  0  0  0  0  0  0  0  0
   56.5228   33.0870   44.1825 H   0  0  0  0  0  0  0  0  0  0  0  0
   56.0357   31.0301   43.2771 H   0  0  0  0  0  0  0  0  0  0  0  0
   57.4711   31.7270   42.4522 H   0  0  0  0  0  0  0  0  0  0  0  0
   57.2101   29.9498   42.4522 H   0  0  0  0  0  0  0  0  0  0  0  0
   57.1669   28.3658   43.3010 H   0  0  0  0  0  0  0  0  0  0  0  0
   58.0489   26.1730   44.0495 H   0  0  0  0  0  0  0  0  0  0  0  0
   59.5503   26.0350   46.0175 H   0  0  0  0  0  0  0  0  0  0  0  0
   61.2030   27.6530   47.7040 H   0  0  0  0  0  0  0  0  0  0  0  0
   60.1529   28.1248   49.7119 H   0  0  0  0  0  0  0  0  0  0  0  0
   59.4604   29.5545   48.8733 H   0  0  0  0  0  0  0  0  0  0  0  0
   58.5697   27.9946   48.8733 H   0  0  0  0  0  0  0  0  0  0  0  0
  1  2  1  0
  2  3  1  0
  3  4  1  0
  4  5  1  0
  5  6  1  0
  6  7  1  0
  7  8  2  0
  8  9  1  0
  9 10  2  0
 10 11  1  0
 11 12  2  0
 12 13  1  0
 13 14  2  0
 14 15  1  0
 14 16  1  0
 16 17  2  0
 17 18  1  0
 18 19  2  0
 19 20  1  0
 20 21  1  0
 21 22  1  0
 20 23  2  0
 23  7  1  0
 13  8  1  0
 23 16  1  0
  1 24  1  0
  1 25  1  0
  1 26  1  0
  2 27  1  0
  2 28  1  0
  3 29  1  0
  4 30  1  0
  4 31  1  0
  5 32  1  0
  5 33  1  0
  6 34  1  0
  6 35  1  0
  9 36  1  0
 10 37  1  0
 11 38  1  0
 12 39  1  0
 15 40  1  0
 15 41  1  0
 15 42  1  0
 17 43  1  0
 18 44  1  0
 19 45  1  0
 21 46  1  0
 22 47  1  0
 22 48  1  0
 22 49  1  0
M  CHG  2   6   1  14   1
M  END
>  <UniqueID>  (6) 
6

>  <SMILES>  (6) 
CCNCC[NH2+]c1c2ccccc2[n+](C)c2cccc(NC)c12

>  <Energy>  (6) 
86.02754179940528

>  <Genealogy>  (6) 
CCNCC[NH2+]c1c2ccccc2[n+](C)c2cccc(NC)c12 (protonated)
CCNCC[NH2+]c1c2ccccc2[n+](C)c2cccc(NC)c12 (3D coordinates assigned)
CCNCC[NH2+]c1c2ccccc2[n+](C)c2cccc(NC)c12 (optimized conformer: 86.02754179940528 kcal/mol)

>  <smiles>  (6) 
CCNCCNc1c2ccccc2[n+](C)c2cccc(NC)c12

>  <score_type>  (6) 
oracle

>  <origin>  (6) 
adg

>  <m_score__min__energy>  (6) 
-3.96

>  <m_primary>  (6) 
energy

$$$$
7:0
     RDKit          3D

 60 63  0  0  0  0  0  0  0  0999 V2000
   58.5930   34.2520   52.8770 C   0  0  0  0  0  0  0  0  0  0  0  0
   58.5680   33.0520   51.9370 C   0  0  0  0  0  0  0  0  0  0  0  0
   59.4130   33.2740   50.8080 O   0  0  0  0  0  0  0  0  0  0  0  0
   59.7060   32.3450   49.7920 C   0  0  0  0  0  0  0  0  0  0  0  0
   58.9240   31.1960   49.5900 C   0  0  0  0  0  0  0  0  0  0  0  0
   59.2450   30.2830   48.5900 C   0  0  0  0  0  0  0  0  0  0  0  0
   60.3470   30.4880   47.7480 C   0  0  0  0  0  0  0  0  0  0  0  0
   60.6800   29.4240   46.7230 C   0  0  0  0  0  0  0  0  0  0  0  0
   60.0550   29.7520   45.4320 N   0  0  0  0  0  0  0  0  0  0  0  0
   60.0640   28.6140   44.4940 C   0  0  0  0  0  0  0  0  0  0  0  0
   59.1420   27.5030   45.0060 C   0  0  0  0  0  0  0  0  0  0  0  0
   58.1430   28.0400   46.0390 C   0  0  0  0  0  0  0  0  0  0  0  0
   56.7050   28.0450   45.4960 C   0  0  0  0  0  0  0  0  0  0  0  0
   56.6300   28.6800   44.1660 N   0  0  0  0  0  0  0  0  0  0  0  0
   57.0660   30.0540   44.2240 C   0  0  0  0  0  0  0  0  0  0  0  0
   57.4010   30.7470   43.0480 C   0  0  0  0  0  0  0  0  0  0  0  0
   57.8560   32.0660   43.1240 C   0  0  0  0  0  0  0  0  0  0  0  0
   58.1430   32.6830   42.0620 O   0  0  0  0  0  0  0  0  0  0  0  0
   57.9940   32.6860   44.3790 C   0  0  0  0  0  0  0  0  0  0  0  0
   58.4590   34.0080   44.5120 C   0  0  0  0  0  0  0  0  0  0  0  0
   58.5960   34.5790   45.7800 C   0  0  0  0  0  0  0  0  0  0  0  0
   58.2770   33.8410   46.9230 C   0  0  0  0  0  0  0  0  0  0  0  0
   57.8150   32.5270   46.8050 C   0  0  0  0  0  0  0  0  0  0  0  0
   57.6630   31.9480   45.5400 C   0  0  0  0  0  0  0  0  0  0  0  0
   57.2100   30.6700   45.4290 N   0  0  0  0  0  0  0  0  0  0  0  0
   61.1490   31.6480   47.9280 C   0  0  0  0  0  0  0  0  0  0  0  0
   62.2830   31.9010   47.1230 C   0  0  0  0  0  0  0  0  0  0  0  0
   63.0700   33.0350   47.3350 C   0  0  0  0  0  0  0  0  0  0  0  0
   62.7460   33.9350   48.3460 C   0  0  0  0  0  0  0  0  0  0  0  0
   61.6330   33.7090   49.1550 C   0  0  0  0  0  0  0  0  0  0  0  0
   60.8230   32.5720   48.9620 C   0  0  0  0  0  0  0  0  0  0  0  0
   58.5857   33.9013   53.9196 H   0  0  0  0  0  0  0  0  0  0  0  0
   59.5036   34.8416   52.6948 H   0  0  0  0  0  0  0  0  0  0  0  0
   57.7077   34.8790   52.6948 H   0  0  0  0  0  0  0  0  0  0  0  0
   58.9180   32.1615   52.4797 H   0  0  0  0  0  0  0  0  0  0  0  0
   57.5374   32.9039   51.5820 H   0  0  0  0  0  0  0  0  0  0  0  0
   58.0475   31.0156   50.2297 H   0  0  0  0  0  0  0  0  0  0  0  0
   58.6234   29.3851   48.4580 H   0  0  0  0  0  0  0  0  0  0  0  0
   61.7713   29.3704   46.5957 H   0  0  0  0  0  0  0  0  0  0  0  0
   60.2958   28.4545   47.0728 H   0  0  0  0  0  0  0  0  0  0  0  0
   59.0600   30.0260   45.6120 H   0  0  0  0  0  0  0  0  0  0  0  0
   59.7132   28.9524   43.5079 H   0  0  0  0  0  0  0  0  0  0  0  0
   61.0888   28.2226   44.4124 H   0  0  0  0  0  0  0  0  0  0  0  0
   58.5862   27.0788   44.1568 H   0  0  0  0  0  0  0  0  0  0  0  0
   59.7612   26.7330   45.4893 H   0  0  0  0  0  0  0  0  0  0  0  0
   58.1824   27.4043   46.9359 H   0  0  0  0  0  0  0  0  0  0  0  0
   58.4218   29.0773   46.2760 H   0  0  0  0  0  0  0  0  0  0  0  0
   56.3495   27.0071   45.4168 H   0  0  0  0  0  0  0  0  0  0  0  0
   56.0767   28.6230   46.1897 H   0  0  0  0  0  0  0  0  0  0  0  0
   57.2360   28.1470   43.5010 H   0  0  0  0  0  0  0  0  0  0  0  0
   55.6530   28.6420   43.7890 H   0  0  0  0  0  0  0  0  0  0  0  0
   57.3052   30.2523   42.0702 H   0  0  0  0  0  0  0  0  0  0  0  0
   58.7150   34.5926   43.6161 H   0  0  0  0  0  0  0  0  0  0  0  0
   58.9564   35.6136   45.8788 H   0  0  0  0  0  0  0  0  0  0  0  0
   58.3898   34.2954   47.9184 H   0  0  0  0  0  0  0  0  0  0  0  0
   57.5706   31.9474   47.7074 H   0  0  0  0  0  0  0  0  0  0  0  0
   62.5485   31.1969   46.3207 H   0  0  0  0  0  0  0  0  0  0  0  0
   63.9496   33.2177   46.7003 H   0  0  0  0  0  0  0  0  0  0  0  0
   63.3695   34.8268   48.5072 H   0  0  0  0  0  0  0  0  0  0  0  0
   61.3847   34.4254   49.9519 H   0  0  0  0  0  0  0  0  0  0  0  0
  1  2  1  0
  2  3  1  0
  3  4  1  0
  4  5  2  0
  5  6  1  0
  6  7  2  0
  7  8  1  0
  8  9  1  0
  9 10  1  0
 10 11  1  0
 11 12  1  0
 12 13  1  0
 13 14  1  0
 14 15  1  0
 15 16  2  0
 16 17  1  0
 17 18  2  0
 17 19  1  0
 19 20  2  0
 20 21  1  0
 21 22  2  0
 22 23  1  0
 23 24  2  0
 24 25  1  0
  7 26  1  0
 26 27  2  0
 27 28  1  0
 28 29  2  0
 29 30  1  0
 30 31  2  0
 31  4  1  0
 25 15  1  0
 31 26  1  0
 24 19  1  0
  1 32  1  0
  1 33  1  0
  1 34  1  0
  2 35  1  0
  2 36  1  0
  5 37  1  0
  6 38  1  0
  8 39  1  0
  8 40  1  0
  9 41  1  0
 10 42  1  0
 10 43  1  0
 11 44  1  0
 11 45  1  0
 12 46  1  0
 12 47  1  0
 13 48  1  0
 13 49  1  0
 14 50  1  0
 14 51  1  0
 16 52  1  0
 20 53  1  0
 21 54  1  0
 22 55  1  0
 23 56  1  0
 27 57  1  0
 28 58  1  0
 29 59  1  0
 30 60  1  0
M  CHG  2  14   1  25  -1
M  END
>  <UniqueID>  (7) 
7

>  <SMILES>  (7) 
CCOc1ccc(CNCCCC[NH2+]c2cc(=O)c3ccccc3[n-]2)c2ccccc12

>  <Energy>  (7) 
64.81819589717199

>  <Genealogy>  (7) 
CCOc1ccc(CNCCCC[NH2+]c2cc(=O)c3ccccc3[n-]2)c2ccccc12 (protonated)
CCOc1ccc(CNCCCC[NH2+]c2cc(=O)c3ccccc3[n-]2)c2ccccc12 (3D coordinates assigned)
CCOc1ccc(CNCCCC[NH2+]c2cc(=O)c3ccccc3[n-]2)c2ccccc12 (optimized conformer: 64.81819589717199 kcal/mol)

>  <smiles>  (7) 
CCOc1ccc(CNCCCCNc2cc(=O)c3ccccc3[nH]2)c2ccccc12

>  <score_type>  (7) 
oracle

>  <origin>  (7) 
adg

>  <m_score__min__energy>  (7) 
-8.4299999999999997

>  <m_primary>  (7) 
energy

$$$$
8:0
     RDKit          3D

 54 56  0  0  0  0  0  0  0  0999 V2000
   59.4540   27.7490   46.1100 C   0  0  0  0  0  0  0  0  0  0  0  0
   58.8880   29.1130   46.2210 N   0  0  0  0  0  0  0  0  0  0  0  0
   59.1710   29.8880   47.3300 C   0  0  0  0  0  0  0  0  0  0  0  0
   59.7500   29.3320   48.5000 C   0  0  0  0  0  0  0  0  0  0  0  0
   60.1230   30.1390   49.5730 C   0  0  0  0  0  0  0  0  0  0  0  0
   59.9360   31.5140   49.5090 C   0  0  0  0  0  0  0  0  0  0  0  0
   59.3210   32.0820   48.3990 C   0  0  0  0  0  0  0  0  0  0  0  0
   58.8710   31.2770   47.3290 C   0  0  0  0  0  0  0  0  0  0  0  0
   58.1400   31.8300   46.2580 C   0  0  0  0  0  0  0  0  0  0  0  0
   57.6980   33.2030   46.3010 N   0  0  0  0  0  0  0  0  0  0  0  0
   58.0510   34.1770   45.2640 C   0  0  0  0  0  0  0  0  0  0  0  0
   59.3490   34.9230   45.6010 C   0  0  0  0  0  0  0  0  0  0  0  0
   59.6310   35.0430   47.1090 C   0  0  0  0  0  0  0  0  0  0  0  0
   60.8620   34.4580   47.4930 O   0  0  0  0  0  0  0  0  0  0  0  0
   61.4890   33.8230   46.3960 C   0  0  0  0  0  0  0  0  0  0  0  0
   63.0230   33.8720   46.5490 C   0  0  0  0  0  0  0  0  0  0  0  0
   63.6130   32.8750   47.4780 N   0  0  0  0  0  0  0  0  0  0  0  0
   63.8050   33.3990   48.8420 C   0  0  0  0  0  0  0  0  0  0  0  0
   62.8750   31.6000   47.5030 C   0  0  0  0  0  0  0  0  0  0  0  0
   57.7830   31.0090   45.1700 C   0  0  0  0  0  0  0  0  0  0  0  0
   57.0730   31.5320   44.0660 C   0  0  0  0  0  0  0  0  0  0  0  0
   56.6470   30.7040   43.0320 C   0  0  0  0  0  0  0  0  0  0  0  0
   56.9080   29.3400   43.0820 C   0  0  0  0  0  0  0  0  0  0  0  0
   57.6270   28.8030   44.1470 C   0  0  0  0  0  0  0  0  0  0  0  0
   58.1210   29.6270   45.1920 C   0  0  0  0  0  0  0  0  0  0  0  0
   59.6239   27.3395   47.1167 H   0  0  0  0  0  0  0  0  0  0  0  0
   58.7497   27.1030   45.5654 H   0  0  0  0  0  0  0  0  0  0  0  0
   60.4088   27.7914   45.5654 H   0  0  0  0  0  0  0  0  0  0  0  0
   59.9072   28.2450   48.5611 H   0  0  0  0  0  0  0  0  0  0  0  0
   60.5663   29.6865   50.4723 H   0  0  0  0  0  0  0  0  0  0  0  0
   60.2748   32.1539   50.3371 H   0  0  0  0  0  0  0  0  0  0  0  0
   59.1830   33.1724   48.3534 H   0  0  0  0  0  0  0  0  0  0  0  0
   57.2110   33.5530   47.1560 H   0  0  0  0  0  0  0  0  0  0  0  0
   58.1821   33.6480   44.3085 H   0  0  0  0  0  0  0  0  0  0  0  0
   57.2390   34.9161   45.1985 H   0  0  0  0  0  0  0  0  0  0  0  0
   60.1876   34.3854   45.1344 H   0  0  0  0  0  0  0  0  0  0  0  0
   59.2350   35.9475   45.2170 H   0  0  0  0  0  0  0  0  0  0  0  0
   59.6517   36.1096   47.3773 H   0  0  0  0  0  0  0  0  0  0  0  0
   58.8321   34.5007   47.6359 H   0  0  0  0  0  0  0  0  0  0  0  0
   61.1630   32.7734   46.3504 H   0  0  0  0  0  0  0  0  0  0  0  0
   61.2064   34.3480   45.4716 H   0  0  0  0  0  0  0  0  0  0  0  0
   63.4664   33.7108   45.5553 H   0  0  0  0  0  0  0  0  0  0  0  0
   63.2479   34.8562   46.9857 H   0  0  0  0  0  0  0  0  0  0  0  0
   64.5700   32.6610   47.1060 H   0  0  0  0  0  0  0  0  0  0  0  0
   63.5225   32.6281   49.5741 H   0  0  0  0  0  0  0  0  0  0  0  0
   64.8612   33.6710   48.9850 H   0  0  0  0  0  0  0  0  0  0  0  0
   63.1746   34.2890   48.9850 H   0  0  0  0  0  0  0  0  0  0  0  0
   62.7002   31.2979   48.5462 H   0  0  0  0  0  0  0  0  0  0  0  0
   61.9096   31.7250   46.9907 H   0  0  0  0  0  0  0  0  0  0  0  0
   63.4643   30.8252   46.9907 H   0  0  0  0  0  0  0  0  0  0  0  0
   56.8539   32.6091   44.0233 H   0  0  0  0  0  0  0  0  0  0  0  0
   56.1037   31.1291   42.1752 H   0  0  0  0  0  0  0  0  0  0  0  0
   56.5456   28.6825   42.2780 H   0  0  0  0  0  0  0  0  0  0  0  0
   57.8157   27.7198   44.1790 H   0  0  0  0  0  0  0  0  0  0  0  0
  1  2  1  0
  2  3  2  0
  3  4  1  0
  4  5  2  0
  5  6  1  0
  6  7  2  0
  7  8  1  0
  8  9  2  0
  9 10  1  0
 10 11  1  0
 11 12  1  0
 12 13  1  0
 13 14  1  0
 14 15  1  0
 15 16  1  0
 16 17  1  0
 17 18  1  0
 17 19  1  0
  9 20  1  0
 20 21  2  0
 21 22  1  0
 22 23  2  0
 23 24  1  0
 24 25  2  0
 25  2  1  0
  8  3  1  0
 25 20  1  0
  1 26  1  0
  1 27  1  0
  1 28  1  0
  4 29  1  0
  5 30  1  0
  6 31  1  0
  7 32  1  0
 10 33  1  0
 11 34  1  0
 11 35  1  0
 12 36  1  0
 12 37  1  0
 13 38  1  0
 13 39  1  0
 15 40  1  0
 15 41  1  0
 16 42  1  0
 16 43  1  0
 17 44  1  0
 18 45  1  0
 18 46  1  0
 18 47  1  0
 19 48  1  0
 19 49  1  0
 19 50  1  0
 21 51  1  0
 22 52  1  0
 23 53  1  0
 24 54  1  0
M  CHG  2   2   1  17   1
M  END
>  <UniqueID>  (8) 
8

>  <SMILES>  (8) 
C[n+]1c2ccccc2c(NCCCOCC[NH+](C)C)c2ccccc21

>  <Energy>  (8) 
80.98640251177979

>  <Genealogy>  (8) 
C[n+]1c2ccccc2c(NCCCOCC[NH+](C)C)c2ccccc21 (protonated)
C[n+]1c2ccccc2c(NCCCOCC[NH+](C)C)c2ccccc21 (3D coordinates assigned)
C[n+]1c2ccccc2c(NCCCOCC[NH+](C)C)c2ccccc21 (optimized conformer: 80.98640251177979 kcal/mol)

>  <smiles>  (8) 
CN(C)CCOCCCNc1c2ccccc2[n+](C)c2ccccc12

>  <score_type>  (8) 
oracle

>  <origin>  (8) 
adg

>  <m_score__min__energy>  (8) 
-4.4900000000000002

>  <m_primary>  (8) 
energy

$$$$
9:0
     RDKit          3D

 41 42  0  0  0  0  0  0  0  0999 V2000
   58.1390   26.8340   42.6150 C   0  0  0  0  0  0  0  0  0  0  0  0
   57.8980   27.8820   43.7010 C   0  0  0  0  0  0  0  0  0  0  0  0
   57.0280   29.0460   43.2100 C   0  0  0  0  0  0  0  0  0  0  0  0
   57.2820   30.3000   43.9990 C   0  0  0  0  0  0  0  0  0  0  0  0
   57.3630   30.3210   45.3430 N   0  0  0  0  0  0  0  0  0  0  0  0
   57.5920   31.5770   45.7000 N   0  0  0  0  0  0  0  0  0  0  0  0
   57.6420   32.3010   44.5680 C   0  0  0  0  0  0  0  0  0  0  0  0
   57.9720   34.0650   44.5400 S   0  0  0  0  0  0  0  0  0  0  0  0
   57.8010   34.2380   46.3440 C   0  0  0  0  0  0  0  0  0  0  0  0
   59.1570   34.2150   46.9730 C   0  0  0  0  0  0  0  0  0  0  0  0
   59.6200   35.2690   47.4890 O   0  0  0  0  0  0  0  0  0  0  0  0
   59.9390   33.0130   46.9470 N   0  0  0  0  0  0  0  0  0  0  0  0
   61.2810   32.9470   47.5340 C   0  0  0  0  0  0  0  0  0  0  0  0
   62.2740   33.8310   46.7900 C   0  0  0  0  0  0  0  0  0  0  0  0
   63.6340   33.2070   47.0560 C   0  0  0  0  0  0  0  0  0  0  0  0
   63.3810   31.7280   47.3410 C   0  0  0  0  0  0  0  0  0  0  0  0
   61.8690   31.5440   47.4400 C   0  0  0  0  0  0  0  0  0  0  0  0
   57.4320   31.5370   43.4780 N   0  0  0  0  0  0  0  0  0  0  0  0
   57.5030   31.9300   42.0730 C   0  0  0  0  0  0  0  0  0  0  0  0
   58.3620   25.8644   43.0842 H   0  0  0  0  0  0  0  0  0  0  0  0
   57.2389   26.7404   41.9896 H   0  0  0  0  0  0  0  0  0  0  0  0
   58.9895   27.1430   41.9896 H   0  0  0  0  0  0  0  0  0  0  0  0
   57.3945   27.3994   44.5517 H   0  0  0  0  0  0  0  0  0  0  0  0
   58.8757   28.2942   43.9912 H   0  0  0  0  0  0  0  0  0  0  0  0
   57.2548   29.2388   42.1510 H   0  0  0  0  0  0  0  0  0  0  0  0
   55.9726   28.7653   43.3418 H   0  0  0  0  0  0  0  0  0  0  0  0
   57.3043   35.1916   46.5763 H   0  0  0  0  0  0  0  0  0  0  0  0
   57.1976   33.4072   46.7384 H   0  0  0  0  0  0  0  0  0  0  0  0
   59.5490   32.1820   46.4470 H   0  0  0  0  0  0  0  0  0  0  0  0
   61.1468   33.2709   48.5766 H   0  0  0  0  0  0  0  0  0  0  0  0
   62.0551   33.8356   45.7120 H   0  0  0  0  0  0  0  0  0  0  0  0
   62.2272   34.8774   47.1258 H   0  0  0  0  0  0  0  0  0  0  0  0
   64.2830   33.3192   46.1750 H   0  0  0  0  0  0  0  0  0  0  0  0
   64.1386   33.6958   47.9025 H   0  0  0  0  0  0  0  0  0  0  0  0
   63.7837   31.1117   46.5237 H   0  0  0  0  0  0  0  0  0  0  0  0
   63.8757   31.4180   48.2733 H   0  0  0  0  0  0  0  0  0  0  0  0
   61.4873   31.0286   46.5464 H   0  0  0  0  0  0  0  0  0  0  0  0
   61.5935   30.9322   48.3116 H   0  0  0  0  0  0  0  0  0  0  0  0
   57.6982   33.0103   42.0039 H   0  0  0  0  0  0  0  0  0  0  0  0
   58.3160   31.3781   41.5785 H   0  0  0  0  0  0  0  0  0  0  0  0
   56.5483   31.6975   41.5785 H   0  0  0  0  0  0  0  0  0  0  0  0
  1  2  1  0
  2  3  1  0
  3  4  1  0
  4  5  2  0
  5  6  1  0
  6  7  2  0
  7  8  1  0
  8  9  1  0
  9 10  1  0
 10 11  2  0
 10 12  1  0
 12 13  1  0
 13 14  1  0
 14 15  1  0
 15 16  1  0
 16 17  1  0
  7 18  1  0
 18 19  1  0
 18  4  1  0
 17 13  1  0
  1 20  1  0
  1 21  1  0
  1 22  1  0
  2 23  1  0
  2 24  1  0
  3 25  1  0
  3 26  1  0
  9 27  1  0
  9 28  1  0
 12 29  1  0
 13 30  1  0
 14 31  1  0
 14 32  1  0
 15 33  1  0
 15 34  1  0
 16 35  1  0
 16 36  1  0
 17 37  1  0
 17 38  1  0
 19 39  1  0
 19 40  1  0
 19 41  1  0
M  END
>  <UniqueID>  (9) 
9

>  <SMILES>  (9) 
CCCc1nnc(SCC(=O)NC2CCCC2)n1C

>  <Energy>  (9) 
60.83926571347412

>  <Genealogy>  (9) 
CCCc1nnc(SCC(=O)NC2CCCC2)n1C (3D coordinates assigned)
CCCc1nnc(SCC(=O)NC2CCCC2)n1C (nonaromatic ring conformer: 60.83926571347412 kcal/mol)

>  <smiles>  (9) 
CCCc1nnc(SCC(=O)NC2CCCC2)n1C

>  <score_type>  (9) 
oracle

>  <origin>  (9) 
adg

>  <m_score__min__energy>  (9) 
-7.0999999999999996

>  <m_primary>  (9) 
energy

$$$$
10:0
     RDKit          3D

 67 70  0  0  0  0  0  0  0  0999 V2000
   60.3870   28.8580   50.9150 C   0  0  0  0  0  0  0  0  0  0  0  0
   61.0830   30.2160   50.9600 C   0  0  0  0  0  0  0  0  0  0  0  0
   60.1670   31.2820   50.5060 N   0  0  0  0  0  0  0  0  0  0  0  0
   58.8340   30.7870   50.0900 C   0  0  0  0  0  0  0  0  0  0  0  0
   57.7880   31.2470   51.0960 C   0  0  0  0  0  0  0  0  0  0  0  0
   60.0980   32.4310   51.4400 C   0  0  0  0  0  0  0  0  0  0  0  0
   60.0000   33.8030   50.7420 C   0  0  0  0  0  0  0  0  0  0  0  0
   60.5690   33.7210   49.4480 O   0  0  0  0  0  0  0  0  0  0  0  0
   61.7940   34.4250   49.3980 C   0  0  0  0  0  0  0  0  0  0  0  0
   62.8410   33.6660   50.2040 C   0  0  0  0  0  0  0  0  0  0  0  0
   62.9300   32.3350   49.7350 O   0  0  0  0  0  0  0  0  0  0  0  0
   63.5000   32.2980   48.4420 C   0  0  0  0  0  0  0  0  0  0  0  0
   62.4790   31.7400   47.4500 C   0  0  0  0  0  0  0  0  0  0  0  0
   61.1760   31.5170   48.0970 N   0  0  0  0  0  0  0  0  0  0  0  0
   60.1370   31.3580   47.0990 C   0  0  0  0  0  0  0  0  0  0  0  0
   59.6630   30.0830   46.7680 C   0  0  0  0  0  0  0  0  0  0  0  0
   58.6370   29.9120   45.8530 C   0  0  0  0  0  0  0  0  0  0  0  0
   58.0040   30.9670   45.2550 N   0  0  0  0  0  0  0  0  0  0  0  0
   56.8010   30.7330   44.4370 C   0  0  0  0  0  0  0  0  0  0  0  0
   58.5280   32.2380   45.4360 C   0  0  0  0  0  0  0  0  0  0  0  0
   58.0490   33.3430   44.6890 C   0  0  0  0  0  0  0  0  0  0  0  0
   58.5670   34.6210   44.8810 C   0  0  0  0  0  0  0  0  0  0  0  0
   59.5870   34.8340   45.8000 C   0  0  0  0  0  0  0  0  0  0  0  0
   60.1070   33.7700   46.5320 C   0  0  0  0  0  0  0  0  0  0  0  0
   59.5970   32.4600   46.3730 C   0  0  0  0  0  0  0  0  0  0  0  0
   58.4200   28.4640   45.6810 C   0  0  0  0  0  0  0  0  0  0  0  0
   57.6160   27.8130   44.8000 N   0  0  0  0  0  0  0  0  0  0  0  0
   57.6300   26.4480   44.7540 C   0  0  0  0  0  0  0  0  0  0  0  0
   58.4930   25.7120   45.5930 C   0  0  0  0  0  0  0  0  0  0  0  0
   59.3500   26.3880   46.4750 C   0  0  0  0  0  0  0  0  0  0  0  0
   59.2920   27.7780   46.4980 C   0  0  0  0  0  0  0  0  0  0  0  0
   60.1010   28.7490   47.2150 C   0  0  0  0  0  0  0  0  0  0  0  0
   61.0310   28.4800   48.0200 O   0  0  0  0  0  0  0  0  0  0  0  0
   60.2059   28.5046   51.9408 H   0  0  0  0  0  0  0  0  0  0  0  0
   59.4275   28.9551   50.3859 H   0  0  0  0  0  0  0  0  0  0  0  0
   61.0261   28.1358   50.3859 H   0  0  0  0  0  0  0  0  0  0  0  0
   61.3999   30.4263   51.9921 H   0  0  0  0  0  0  0  0  0  0  0  0
   61.9571   30.1900   50.2928 H   0  0  0  0  0  0  0  0  0  0  0  0
   58.5878   31.1872   49.0954 H   0  0  0  0  0  0  0  0  0  0  0  0
   58.8463   29.6878   50.0489 H   0  0  0  0  0  0  0  0  0  0  0  0
   58.1634   31.0819   52.1167 H   0  0  0  0  0  0  0  0  0  0  0  0
   57.5840   32.3179   50.9491 H   0  0  0  0  0  0  0  0  0  0  0  0
   56.8609   30.6736   50.9491 H   0  0  0  0  0  0  0  0  0  0  0  0
   59.2118   32.3042   52.0792 H   0  0  0  0  0  0  0  0  0  0  0  0
   61.0372   32.4320   52.0126 H   0  0  0  0  0  0  0  0  0  0  0  0
   58.9431   34.0965   50.6589 H   0  0  0  0  0  0  0  0  0  0  0  0
   60.5458   34.5528   51.3335 H   0  0  0  0  0  0  0  0  0  0  0  0
   62.1260   34.5120   48.3529 H   0  0  0  0  0  0  0  0  0  0  0  0
   61.6596   35.4313   49.8213 H   0  0  0  0  0  0  0  0  0  0  0  0
   63.8176   34.1595   50.0915 H   0  0  0  0  0  0  0  0  0  0  0  0
   62.5505   33.6600   51.2649 H   0  0  0  0  0  0  0  0  0  0  0  0
   63.7874   33.3156   48.1388 H   0  0  0  0  0  0  0  0  0  0  0  0
   64.3909   31.6529   48.4526 H   0  0  0  0  0  0  0  0  0  0  0  0
   62.3520   32.4561   46.6247 H   0  0  0  0  0  0  0  0  0  0  0  0
   62.8505   30.7758   47.0728 H   0  0  0  0  0  0  0  0  0  0  0  0
   60.9450   32.2930   48.7560 H   0  0  0  0  0  0  0  0  0  0  0  0
   61.2230   30.6620   48.6970 H   0  0  0  0  0  0  0  0  0  0  0  0
   55.9365   30.5648   45.0960 H   0  0  0  0  0  0  0  0  0  0  0  0
   56.6127   31.6114   43.8021 H   0  0  0  0  0  0  0  0  0  0  0  0
   56.9557   29.8481   43.8021 H   0  0  0  0  0  0  0  0  0  0  0  0
   57.2541   33.1883   43.9445 H   0  0  0  0  0  0  0  0  0  0  0  0
   58.1667   35.4664   44.3021 H   0  0  0  0  0  0  0  0  0  0  0  0
   59.9856   35.8482   45.9500 H   0  0  0  0  0  0  0  0  0  0  0  0
   60.9259   33.9504   47.2440 H   0  0  0  0  0  0  0  0  0  0  0  0
   56.9633   25.9185   44.0575 H   0  0  0  0  0  0  0  0  0  0  0  0
   58.4941   24.6126   45.5560 H   0  0  0  0  0  0  0  0  0  0  0  0
   60.0445   25.8373   47.1265 H   0  0  0  0  0  0  0  0  0  0  0  0
  1  2  1  0
  2  3  1  0
  3  4  1  0
  4  5  1  0
  3  6  1  0
  6  7  1  0
  7  8  1  0
  8  9  1  0
  9 10  1  0
 10 11  1  0
 11 12  1  0
 12 13  1  0
 13 14  1  0
 14 15  1  0
 15 16  2  0
 16 17  1  0
 17 18  2  0
 18 19  1  0
 18 20  1  0
 20 21  2  0
 21 22  1  0
 22 23  2  0
 23 24  1  0
 24 25  2  0
 17 26  1  0
 26 27  2  0
 27 28  1  0
 28 29  2  0
 29 30  1  0
 30 31  2  0
 31 32  1  0
 32 33  2  0
 25 15  1  0
 31 26  1  0
 32 16  1  0
 25 20  1  0
  1 34  1  0
  1 35  1  0
  1 36  1  0
  2 37  1  0
  2 38  1  0
  4 39  1  0
  4 40  1  0
  5 41  1  0
  5 42  1  0
  5 43  1  0
  6 44  1  0
  6 45  1  0
  7 46  1  0
  7 47  1  0
  9 48  1  0
  9 49  1  0
 10 50  1  0
 10 51  1  0
 12 52  1  0
 12 53  1  0
 13 54  1  0
 13 55  1  0
 14 56  1  0
 14 57  1  0
 19 58  1  0
 19 59  1  0
 19 60  1  0
 21 61  1  0
 22 62  1  0
 23 63  1  0
 24 64  1  0
 28 65  1  0
 29 66  1  0
 30 67  1  0
M  CHG  2  14   1  18   1
M  END
>  <UniqueID>  (10) 
10

>  <SMILES>  (10) 
CCN(CC)CCOCCOCC[NH2+]c1c2c([n+](C)c3ccccc13)-c1ncccc1C2=O

>  <Energy>  (10) 
122.72247447267374

>  <Genealogy>  (10) 
CCN(CC)CCOCCOCC[NH2+]c1c2c([n+](C)c3ccccc13)-c1ncccc1C2=O (protonated)
CCN(CC)CCOCCOCC[NH2+]c1c2c([n+](C)c3ccccc13)-c1ncccc1C2=O (3D coordinates assigned)
CCN(CC)CCOCCOCC[NH2+]c1c2c([n+](C)c3ccccc13)-c1ncccc1C2=O (nonaromatic ring conformer: 122.72247447267374 kcal/mol)

>  <smiles>  (10) 
CCN(CC)CCOCCOCCNc1c2c([n+](C)c3ccccc13)-c1ncccc1C2=O

>  <score_type>  (10) 
oracle

>  <origin>  (10) 
adg

>  <m_score__min__energy>  (10) 
-4.5599999999999996

>  <m_primary>  (10) 
energy

$$$$
11:0
     RDKit          3D

 35 37  0  0  0  0  0  0  0  0999 V2000
   63.3990   34.0220   46.3470 C   0  0  0  0  0  0  0  0  0  0  0  0
   63.3810   33.3920   47.7420 C   0  0  0  0  0  0  0  0  0  0  0  0
   63.5430   31.9250   47.6910 N   0  0  0  0  0  0  0  0  0  0  0  0
   62.3600   31.2270   47.1370 C   0  0  0  0  0  0  0  0  0  0  0  0
   61.0410   31.6200   47.8360 C   0  0  0  0  0  0  0  0  0  0  0  0
   59.8730   31.7270   46.8700 C   0  0  0  0  0  0  0  0  0  0  0  0
   59.0470   30.5980   46.5680 C   0  0  0  0  0  0  0  0  0  0  0  0
   59.2780   29.3130   47.1030 C   0  0  0  0  0  0  0  0  0  0  0  0
   58.4340   28.2560   46.7730 C   0  0  0  0  0  0  0  0  0  0  0  0
   57.3630   28.4860   45.9090 C   0  0  0  0  0  0  0  0  0  0  0  0
   56.5910   27.5410   45.5990 O   0  0  0  0  0  0  0  0  0  0  0  0
   57.1530   29.6970   45.4090 O   0  0  0  0  0  0  0  0  0  0  0  0
   57.9290   30.7390   45.6930 C   0  0  0  0  0  0  0  0  0  0  0  0
   57.6300   31.9780   45.1220 C   0  0  0  0  0  0  0  0  0  0  0  0
   58.4400   33.0610   45.4230 C   0  0  0  0  0  0  0  0  0  0  0  0
   58.2690   34.6330   44.8660 S   0  0  0  0  0  0  0  0  0  0  0  0
   59.6050   35.2360   45.6940 C   0  0  0  0  0  0  0  0  0  0  0  0
   60.1960   34.2040   46.4180 C   0  0  0  0  0  0  0  0  0  0  0  0
   59.5370   32.9660   46.2680 C   0  0  0  0  0  0  0  0  0  0  0  0
   63.4303   35.1176   46.4399 H   0  0  0  0  0  0  0  0  0  0  0  0
   64.2876   33.6749   45.7994 H   0  0  0  0  0  0  0  0  0  0  0  0
   62.4920   33.7262   45.7994 H   0  0  0  0  0  0  0  0  0  0  0  0
   64.2032   33.8193   48.3348 H   0  0  0  0  0  0  0  0  0  0  0  0
   62.4045   33.6093   48.1993 H   0  0  0  0  0  0  0  0  0  0  0  0
   63.7280   31.5640   48.6570 H   0  0  0  0  0  0  0  0  0  0  0  0
   64.3950   31.6970   47.1290 H   0  0  0  0  0  0  0  0  0  0  0  0
   62.2767   31.4741   46.0683 H   0  0  0  0  0  0  0  0  0  0  0  0
   62.5090   30.1495   47.3010 H   0  0  0  0  0  0  0  0  0  0  0  0
   60.8031   30.8575   48.5923 H   0  0  0  0  0  0  0  0  0  0  0  0
   61.1885   32.6114   48.2891 H   0  0  0  0  0  0  0  0  0  0  0  0
   60.1268   29.1459   47.7824 H   0  0  0  0  0  0  0  0  0  0  0  0
   58.6093   27.2525   47.1881 H   0  0  0  0  0  0  0  0  0  0  0  0
   56.7689   32.0917   44.4470 H   0  0  0  0  0  0  0  0  0  0  0  0
   59.9550   36.2785   45.6673 H   0  0  0  0  0  0  0  0  0  0  0  0
   61.0891   34.3407   47.0454 H   0  0  0  0  0  0  0  0  0  0  0  0
  1  2  1  0
  2  3  1  0
  3  4  1  0
  4  5  1  0
  5  6  1  0
  6  7  2  0
  7  8  1  0
  8  9  2  0
  9 10  1  0
 10 11  2  0
 10 12  1  0
 12 13  1  0
 13 14  2  0
 14 15  1  0
 15 16  1  0
 16 17  1  0
 17 18  2  0
 18 19  1  0
 19  6  1  0
 13  7  1  0
 19 15  2  0
  1 20  1  0
  1 21  1  0
  1 22  1  0
  2 23  1  0
  2 24  1  0
  3 25  1  0
  3 26  1  0
  4 27  1  0
  4 28  1  0
  5 29  1  0
  5 30  1  0
  8 31  1  0
  9 32  1  0
 14 33  1  0
 17 34  1  0
 18 35  1  0
M  CHG  1   3   1
M  END
>  <UniqueID>  (11) 
11

>  <SMILES>  (11) 
CC[NH2+]CCc1c2ccc(=O)oc2cc2sccc12

>  <Energy>  (11) 
73.87820894700297

>  <Genealogy>  (11) 
CC[NH2+]CCc1c2ccc(=O)oc2cc2sccc12 (protonated)
CC[NH2+]CCc1c2ccc(=O)oc2cc2sccc12 (3D coordinates assigned)
CC[NH2+]CCc1c2ccc(=O)oc2cc2sccc12 (optimized conformer: 73.87820894700297 kcal/mol)

>  <smiles>  (11) 
CCNCCc1c2ccc(=O)oc2cc2sccc12

>  <score_type>  (11) 
oracle

>  <origin>  (11) 
adg

>  <m_score__min__energy>  (11) 
-5.4900000000000002

>  <m_primary>  (11) 
energy

$$$$
12:0
     RDKit          3D

 66 68  0  0  0  0  0  0  0  0999 V2000
   63.3290   32.5280   47.8470 C   0  0  0  0  0  0  0  0  0  0  0  0
   63.2050   31.9910   49.2760 C   0  0  0  0  0  0  0  0  0  0  0  0
   61.8270   31.5860   49.6160 N   0  0  0  0  0  0  0  0  0  0  0  0
   61.6750   30.1550   49.9430 C   0  0  0  0  0  0  0  0  0  0  0  0
   60.5240   29.4900   49.1790 C   0  0  0  0  0  0  0  0  0  0  0  0
   59.4400   30.4470   48.9520 N   0  0  0  0  0  0  0  0  0  0  0  0
   59.1280   30.9670   47.6460 C   0  0  0  0  0  0  0  0  0  0  0  0
   58.8860   30.0700   46.5800 C   0  0  0  0  0  0  0  0  0  0  0  0
   59.0500   28.6760   46.7450 C   0  0  0  0  0  0  0  0  0  0  0  0
   58.8120   27.7950   45.6950 C   0  0  0  0  0  0  0  0  0  0  0  0
   58.4320   28.2820   44.4510 C   0  0  0  0  0  0  0  0  0  0  0  0
   58.1410   27.0710   43.0020 Br  0  0  0  0  0  0  0  0  0  0  0  0
   58.2970   29.6560   44.2490 C   0  0  0  0  0  0  0  0  0  0  0  0
   58.5110   30.5770   45.3090 C   0  0  0  0  0  0  0  0  0  0  0  0
   58.4060   31.9360   45.1120 N   0  0  0  0  0  0  0  0  0  0  0  0
   57.7520   32.4600   43.8920 C   0  0  0  0  0  0  0  0  0  0  0  0
   58.9060   32.8100   46.0560 C   0  0  0  0  0  0  0  0  0  0  0  0
   59.1730   34.1590   45.7260 C   0  0  0  0  0  0  0  0  0  0  0  0
   59.6470   35.0510   46.6780 C   0  0  0  0  0  0  0  0  0  0  0  0
   59.8190   34.6430   47.9900 C   0  0  0  0  0  0  0  0  0  0  0  0
   59.5410   33.3210   48.3770 C   0  0  0  0  0  0  0  0  0  0  0  0
   59.5950   32.9480   49.7320 O   0  0  0  0  0  0  0  0  0  0  0  0
   59.5730   33.8270   50.8610 C   0  0  0  0  0  0  0  0  0  0  0  0
   58.6860   33.3020   52.0040 C   0  0  0  0  0  0  0  0  0  0  0  0
   57.6150   32.3080   51.4990 C   0  0  0  0  0  0  0  0  0  0  0  0
   57.3180   31.1710   52.4240 N   0  0  0  0  0  0  0  0  0  0  0  0
   57.6930   31.5910   53.7970 C   0  0  0  0  0  0  0  0  0  0  0  0
   58.1120   29.9700   52.0730 C   0  0  0  0  0  0  0  0  0  0  0  0
   55.8730   30.8340   52.4210 C   0  0  0  0  0  0  0  0  0  0  0  0
   59.1900   32.3600   47.3790 C   0  0  0  0  0  0  0  0  0  0  0  0
   63.5764   33.5994   47.8781 H   0  0  0  0  0  0  0  0  0  0  0  0
   64.1250   31.9831   47.3183 H   0  0  0  0  0  0  0  0  0  0  0  0
   62.3747   32.3872   47.3183 H   0  0  0  0  0  0  0  0  0  0  0  0
   63.8646   31.1171   49.3818 H   0  0  0  0  0  0  0  0  0  0  0  0
   63.4909   32.8026   49.9613 H   0  0  0  0  0  0  0  0  0  0  0  0
   61.4980   32.1510   50.4350 H   0  0  0  0  0  0  0  0  0  0  0  0
   61.2000   31.8240   48.8130 H   0  0  0  0  0  0  0  0  0  0  0  0
   62.6111   29.6354   49.6904 H   0  0  0  0  0  0  0  0  0  0  0  0
   61.4453   30.0831   51.0163 H   0  0  0  0  0  0  0  0  0  0  0  0
   60.8952   29.1265   48.2094 H   0  0  0  0  0  0  0  0  0  0  0  0
   60.1385   28.6503   49.7759 H   0  0  0  0  0  0  0  0  0  0  0  0
   58.8720   30.7620   49.7720 H   0  0  0  0  0  0  0  0  0  0  0  0
   59.3712   28.2810   47.7201 H   0  0  0  0  0  0  0  0  0  0  0  0
   58.9249   26.7119   45.8501 H   0  0  0  0  0  0  0  0  0  0  0  0
   58.0204   30.0320   43.2529 H   0  0  0  0  0  0  0  0  0  0  0  0
   56.9229   33.1243   44.1770 H   0  0  0  0  0  0  0  0  0  0  0  0
   58.4851   33.0235   43.2962 H   0  0  0  0  0  0  0  0  0  0  0  0
   57.3620   31.6216   43.2962 H   0  0  0  0  0  0  0  0  0  0  0  0
   59.0020   34.5075   44.6968 H   0  0  0  0  0  0  0  0  0  0  0  0
   59.8867   36.0850   46.3894 H   0  0  0  0  0  0  0  0  0  0  0  0
   60.1781   35.3636   48.7395 H   0  0  0  0  0  0  0  0  0  0  0  0
   60.6002   33.9428   51.2372 H   0  0  0  0  0  0  0  0  0  0  0  0
   59.1520   34.7869   50.5272 H   0  0  0  0  0  0  0  0  0  0  0  0
   59.3230   32.7925   52.7420 H   0  0  0  0  0  0  0  0  0  0  0  0
   58.1661   34.1618   52.4517 H   0  0  0  0  0  0  0  0  0  0  0  0
   56.6817   32.8668   51.3353 H   0  0  0  0  0  0  0  0  0  0  0  0
   58.0230   31.8581   50.5819 H   0  0  0  0  0  0  0  0  0  0  0  0
   57.1466   30.9790   54.5297 H   0  0  0  0  0  0  0  0  0  0  0  0
   58.7752   31.4545   53.9395 H   0  0  0  0  0  0  0  0  0  0  0  0
   57.4352   32.6508   53.9395 H   0  0  0  0  0  0  0  0  0  0  0  0
   58.4439   29.4679   52.9937 H   0  0  0  0  0  0  0  0  0  0  0  0
   57.4915   29.2800   51.4824 H   0  0  0  0  0  0  0  0  0  0  0  0
   58.9899   30.2706   51.4824 H   0  0  0  0  0  0  0  0  0  0  0  0
   55.5139   30.7502   53.4573 H   0  0  0  0  0  0  0  0  0  0  0  0
   55.3129   31.6256   51.9017 H   0  0  0  0  0  0  0  0  0  0  0  0
   55.7209   29.8763   51.9017 H   0  0  0  0  0  0  0  0  0  0  0  0
  1  2  1  0
  2  3  1  0
  3  4  1  0
  4  5  1  0
  5  6  1  0
  6  7  1  0
  7  8  2  0
  8  9  1  0
  9 10  2  0
 10 11  1  0
 11 12  1  0
 11 13  2  0
 13 14  1  0
 14 15  2  0
 15 16  1  0
 15 17  1  0
 17 18  2  0
 18 19  1  0
 19 20  2  0
 20 21  1  0
 21 22  1  0
 22 23  1  0
 23 24  1  0
 24 25  1  0
 25 26  1  0
 26 27  1  0
 26 28  1  0
 26 29  1  0
 21 30  2  0
 30  7  1  0
 14  8  1  0
 30 17  1  0
  1 31  1  0
  1 32  1  0
  1 33  1  0
  2 34  1  0
  2 35  1  0
  3 36  1  0
  3 37  1  0
  4 38  1  0
  4 39  1  0
  5 40  1  0
  5 41  1  0
  6 42  1  0
  9 43  1  0
 10 44  1  0
 13 45  1  0
 16 46  1  0
 16 47  1  0
 16 48  1  0
 18 49  1  0
 19 50  1  0
 20 51  1  0
 23 52  1  0
 23 53  1  0
 24 54  1  0
 24 55  1  0
 25 56  1  0
 25 57  1  0
 27 58  1  0
 27 59  1  0
 27 60  1  0
 28 61  1  0
 28 62  1  0
 28 63  1  0
 29 64  1  0
 29 65  1  0
 29 66  1  0
M  CHG  3   3   1  15   1  26   1
M  END
>  <UniqueID>  (12) 
12

>  <SMILES>  (12) 
CC[NH2+]CCNc1c2ccc(Br)cc2[n+](C)c2cccc(OCCC[N+](C)(C)C)c12

>  <Energy>  (12) 
97.54205434795996

>  <Genealogy>  (12) 
CC[NH2+]CCNc1c2ccc(Br)cc2[n+](C)c2cccc(OCCC[N+](C)(C)C)c12 (protonated)
CC[NH2+]CCNc1c2ccc(Br)cc2[n+](C)c2cccc(OCCC[N+](C)(C)C)c12 (3D coordinates assigned)
CC[NH2+]CCNc1c2ccc(Br)cc2[n+](C)c2cccc(OCCC[N+](C)(C)C)c12 (optimized conformer: 97.54205434795996 kcal/mol)

>  <smiles>  (12) 
CCNCCNc1c2ccc(Br)cc2[n+](C)c2cccc(OCCC[N+](C)(C)C)c12

>  <score_type>  (12) 
oracle

>  <origin>  (12) 
adg

>  <m_score__min__energy>  (12) 
-2.8300000000000001

>  <m_primary>  (12) 
energy

$$$$
13:0
     RDKit          3D

 61 63  0  0  0  0  0  0  0  0999 V2000
   61.4680   30.3590   51.3040 C   0  0  0  0  0  0  0  0  0  0  0  0
   61.7980   30.0220   49.8530 C   0  0  0  0  0  0  0  0  0  0  0  0
   62.5190   31.0710   49.2490 O   0  0  0  0  0  0  0  0  0  0  0  0
   62.1560   31.0930   47.9380 N   0  0  0  0  0  0  0  0  0  0  0  0
   63.2520   31.6700   47.1500 C   0  0  0  0  0  0  0  0  0  0  0  0
   63.2920   33.2140   47.1790 C   0  0  0  0  0  0  0  0  0  0  0  0
   63.6980   33.8370   48.5260 C   0  0  0  0  0  0  0  0  0  0  0  0
   62.4870   34.2460   49.3870 C   0  0  0  0  0  0  0  0  0  0  0  0
   61.2720   33.4920   49.0390 N   0  0  0  0  0  0  0  0  0  0  0  0
   60.0550   34.0980   49.5970 C   0  0  0  0  0  0  0  0  0  0  0  0
   59.3450   33.1080   50.5310 C   0  0  0  0  0  0  0  0  0  0  0  0
   58.6030   31.9930   49.7800 C   0  0  0  0  0  0  0  0  0  0  0  0
   59.4160   31.4500   48.6900 N   0  0  0  0  0  0  0  0  0  0  0  0
   58.8430   31.1370   47.4070 C   0  0  0  0  0  0  0  0  0  0  0  0
   58.4720   32.1700   46.5280 C   0  0  0  0  0  0  0  0  0  0  0  0
   58.6620   33.5240   46.8810 C   0  0  0  0  0  0  0  0  0  0  0  0
   58.2270   34.5480   46.0430 C   0  0  0  0  0  0  0  0  0  0  0  0
   57.5850   34.2440   44.8500 C   0  0  0  0  0  0  0  0  0  0  0  0
   57.4010   32.9150   44.4700 C   0  0  0  0  0  0  0  0  0  0  0  0
   57.8740   31.8490   45.2790 C   0  0  0  0  0  0  0  0  0  0  0  0
   57.7460   30.5280   44.8890 N   0  0  0  0  0  0  0  0  0  0  0  0
   57.3880   30.2040   43.4890 C   0  0  0  0  0  0  0  0  0  0  0  0
   57.9920   29.5110   45.7920 C   0  0  0  0  0  0  0  0  0  0  0  0
   57.6490   28.1640   45.5110 C   0  0  0  0  0  0  0  0  0  0  0  0
   57.9810   27.1360   46.3930 C   0  0  0  0  0  0  0  0  0  0  0  0
   58.6540   27.4200   47.5750 C   0  0  0  0  0  0  0  0  0  0  0  0
   58.9610   28.7380   47.9030 C   0  0  0  0  0  0  0  0  0  0  0  0
   58.5980   29.7990   47.0450 C   0  0  0  0  0  0  0  0  0  0  0  0
   62.0788   29.7353   51.9733 H   0  0  0  0  0  0  0  0  0  0  0  0
   61.6854   31.4207   51.4924 H   0  0  0  0  0  0  0  0  0  0  0  0
   60.4020   30.1639   51.4924 H   0  0  0  0  0  0  0  0  0  0  0  0
   62.4038   29.1043   49.8244 H   0  0  0  0  0  0  0  0  0  0  0  0
   60.8575   29.8762   49.3014 H   0  0  0  0  0  0  0  0  0  0  0  0
   61.3040   31.6900   47.8480 H   0  0  0  0  0  0  0  0  0  0  0  0
   64.2041   31.2904   47.5494 H   0  0  0  0  0  0  0  0  0  0  0  0
   63.0871   31.3724   46.1040 H   0  0  0  0  0  0  0  0  0  0  0  0
   64.0127   33.5494   46.4187 H   0  0  0  0  0  0  0  0  0  0  0  0
   62.2615   33.5482   46.9881 H   0  0  0  0  0  0  0  0  0  0  0  0
   64.2952   33.1027   49.0865 H   0  0  0  0  0  0  0  0  0  0  0  0
   64.2713   34.7501   48.3079 H   0  0  0  0  0  0  0  0  0  0  0  0
   62.7268   34.0613   50.4446 H   0  0  0  0  0  0  0  0  0  0  0  0
   62.2863   35.3112   49.1997 H   0  0  0  0  0  0  0  0  0  0  0  0
   61.3580   32.5080   49.3890 H   0  0  0  0  0  0  0  0  0  0  0  0
   60.3266   35.0005   50.1642 H   0  0  0  0  0  0  0  0  0  0  0  0
   59.3762   34.3604   48.7721 H   0  0  0  0  0  0  0  0  0  0  0  0
   60.0970   32.6465   51.1879 H   0  0  0  0  0  0  0  0  0  0  0  0
   58.5931   33.6760   51.0985 H   0  0  0  0  0  0  0  0  0  0  0  0
   58.3643   31.1837   50.4858 H   0  0  0  0  0  0  0  0  0  0  0  0
   57.6849   32.4182   49.3483 H   0  0  0  0  0  0  0  0  0  0  0  0
   60.4560   31.4570   48.7850 H   0  0  0  0  0  0  0  0  0  0  0  0
   59.1598   33.7732   47.8297 H   0  0  0  0  0  0  0  0  0  0  0  0
   58.3921   35.5979   46.3264 H   0  0  0  0  0  0  0  0  0  0  0  0
   57.2201   35.0546   44.2021 H   0  0  0  0  0  0  0  0  0  0  0  0
   56.8806   32.6890   43.5276 H   0  0  0  0  0  0  0  0  0  0  0  0
   56.5724   29.4659   43.4805 H   0  0  0  0  0  0  0  0  0  0  0  0
   57.0601   31.1186   42.9733 H   0  0  0  0  0  0  0  0  0  0  0  0
   58.2655   29.7868   42.9733 H   0  0  0  0  0  0  0  0  0  0  0  0
   57.1117   27.9258   44.5812 H   0  0  0  0  0  0  0  0  0  0  0  0
   57.7094   26.0976   46.1523 H   0  0  0  0  0  0  0  0  0  0  0  0
   58.9444   26.6031   48.2520 H   0  0  0  0  0  0  0  0  0  0  0  0
   59.4924   28.9551   48.8413 H   0  0  0  0  0  0  0  0  0  0  0  0
  1  2  1  0
  2  3  1  0
  3  4  1  0
  4  5  1  0
  5  6  1  0
  6  7  1  0
  7  8  1  0
  8  9  1  0
  9 10  1  0
 10 11  1  0
 11 12  1  0
 12 13  1  0
 13 14  1  0
 14 15  2  0
 15 16  1  0
 16 17  2  0
 17 18  1  0
 18 19  2  0
 19 20  1  0
 20 21  2  0
 21 22  1  0
 21 23  1  0
 23 24  2  0
 24 25  1  0
 25 26  2  0
 26 27  1  0
 27 28  2  0
 28 14  1  0
 20 15  1  0
 28 23  1  0
  1 29  1  0
  1 30  1  0
  1 31  1  0
  2 32  1  0
  2 33  1  0
  4 34  1  0
  5 35  1  0
  5 36  1  0
  6 37  1  0
  6 38  1  0
  7 39  1  0
  7 40  1  0
  8 41  1  0
  8 42  1  0
  9 43  1  0
 10 44  1  0
 10 45  1  0
 11 46  1  0
 11 47  1  0
 12 48  1  0
 12 49  1  0
 13 50  1  0
 16 51  1  0
 17 52  1  0
 18 53  1  0
 19 54  1  0
 22 55  1  0
 22 56  1  0
 22 57  1  0
 24 58  1  0
 25 59  1  0
 26 60  1  0
 27 61  1  0
M  CHG  1  21   1
M  END
>  <UniqueID>  (13) 
13

>  <SMILES>  (13) 
CCONCCCCNCCCNc1c2ccccc2[n+](C)c2ccccc12

>  <Energy>  (13) 
78.50558352248785

>  <Genealogy>  (13) 
CCONCCCCNCCCNc1c2ccccc2[n+](C)c2ccccc12 (3D coordinates assigned)
CCONCCCCNCCCNc1c2ccccc2[n+](C)c2ccccc12 (optimized conformer: 78.50558352248785 kcal/mol)

>  <smiles>  (13) 
CCONCCCCNCCCNc1c2ccccc2[n+](C)c2ccccc12

>  <score_type>  (13) 
oracle

>  <origin>  (13) 
adg

>  <m_score__min__energy>  (13) 
-5.5499999999999998

>  <m_primary>  (13) 
energy

$$$$
14:0
     RDKit          3D

 50 52  0  0  0  0  0  0  0  0999 V2000
   56.8044   25.0279   43.3206 H   0  0  0  0  0  0  0  0  0  0  0  0
   56.9970   24.9180   44.3980 C   0  0  0  0  0  0  0  0  0  0  0  0
   56.6340   23.7730   44.9900 C   0  0  0  0  0  0  0  0  0  0  0  0
   56.5819   23.7301   46.0879 H   0  0  0  0  0  0  0  0  0  0  0  0
   56.2960   22.5450   44.1920 C   0  0  0  0  0  0  0  0  0  0  0  0
   55.7972   22.8490   43.2599 H   0  0  0  0  0  0  0  0  0  0  0  0
   55.6337   21.9083   44.7970 H   0  0  0  0  0  0  0  0  0  0  0  0
   57.5600   21.7410   43.8450 C   0  0  0  0  0  0  0  0  0  0  0  0
   58.4380   22.3910   43.9743 H   0  0  0  0  0  0  0  0  0  0  0  0
   57.4614   21.3960   42.8052 H   0  0  0  0  0  0  0  0  0  0  0  0
   57.7250   20.5430   44.7030 N   0  0  0  0  0  0  0  0  0  0  0  0
   57.4460   19.7020   44.1450 H   0  0  0  0  0  0  0  0  0  0  0  0
   58.7230   20.3960   44.9830 H   0  0  0  0  0  0  0  0  0  0  0  0
   56.8780   20.5670   45.9080 C   0  0  0  0  0  0  0  0  0  0  0  0
   56.1748   21.4092   45.8286 H   0  0  0  0  0  0  0  0  0  0  0  0
   57.5395   20.6744   46.7803 H   0  0  0  0  0  0  0  0  0  0  0  0
   56.0780   19.2740   46.0860 C   0  0  0  0  0  0  0  0  0  0  0  0
   55.9498   19.0669   47.1587 H   0  0  0  0  0  0  0  0  0  0  0  0
   55.0909   19.3856   45.6136 H   0  0  0  0  0  0  0  0  0  0  0  0
   56.6184   18.4405   45.6136 H   0  0  0  0  0  0  0  0  0  0  0  0
   57.6440   26.0470   45.1110 C   0  0  0  0  0  0  0  0  0  0  0  0
   57.5830   26.0800   46.5130 C   0  0  0  0  0  0  0  0  0  0  0  0
   57.0590   25.2787   47.0547 H   0  0  0  0  0  0  0  0  0  0  0  0
   58.1810   27.1200   47.2260 C   0  0  0  0  0  0  0  0  0  0  0  0
   58.1221   27.1358   48.3243 H   0  0  0  0  0  0  0  0  0  0  0  0
   58.8560   28.1440   46.5490 C   0  0  0  0  0  0  0  0  0  0  0  0
   58.9600   28.1040   45.1560 C   0  0  0  0  0  0  0  0  0  0  0  0
   58.3500   27.0640   44.4360 C   0  0  0  0  0  0  0  0  0  0  0  0
   58.4234   27.0426   43.3387 H   0  0  0  0  0  0  0  0  0  0  0  0
   59.6950   29.2070   44.4550 C   0  0  0  0  0  0  0  0  0  0  0  0
   60.6638   29.3722   44.9491 H   0  0  0  0  0  0  0  0  0  0  0  0
   59.8587   28.9247   43.4045 H   0  0  0  0  0  0  0  0  0  0  0  0
   58.8720   30.4920   44.5100 C   0  0  0  0  0  0  0  0  0  0  0  0
   59.3272   31.2096   43.8116 H   0  0  0  0  0  0  0  0  0  0  0  0
   57.8459   30.1895   44.2537 H   0  0  0  0  0  0  0  0  0  0  0  0
   58.7610   31.1750   45.8660 C   0  0  0  0  0  0  0  0  0  0  0  0
   58.3020   32.5070   45.8370 C   0  0  0  0  0  0  0  0  0  0  0  0
   58.0710   32.9765   44.8694 H   0  0  0  0  0  0  0  0  0  0  0  0
   58.1350   33.2410   47.0090 C   0  0  0  0  0  0  0  0  0  0  0  0
   57.7843   34.2824   46.9599 H   0  0  0  0  0  0  0  0  0  0  0  0
   58.4110   32.6590   48.2400 C   0  0  0  0  0  0  0  0  0  0  0  0
   58.2820   33.2409   49.1645 H   0  0  0  0  0  0  0  0  0  0  0  0
   58.8510   31.3390   48.3040 C   0  0  0  0  0  0  0  0  0  0  0  0
   59.0605   30.8872   49.2848 H   0  0  0  0  0  0  0  0  0  0  0  0
   59.0330   30.5710   47.1360 C   0  0  0  0  0  0  0  0  0  0  0  0
   59.4900   29.2060   47.2770 N   0  0  0  0  0  0  0  0  0  0  0  0
   60.4790   28.8540   48.3000 C   0  0  0  0  0  0  0  0  0  0  0  0
   60.0445   29.0086   49.2986 H   0  0  0  0  0  0  0  0  0  0  0  0
   60.7662   27.7984   48.1845 H   0  0  0  0  0  0  0  0  0  0  0  0
   61.3685   29.4907   48.1845 H   0  0  0  0  0  0  0  0  0  0  0  0
  1  2  1  0
  2  3  2  0
  3  4  1  0
  3  5  1  0
  5  6  1  0
  5  7  1  0
  5  8  1  0
  8  9  1  0
  8 10  1  0
  8 11  1  0
 11 12  1  0
 11 13  1  0
 11 14  1  0
 14 15  1  0
 14 16  1  0
 14 17  1  0
 17 18  1  0
 17 19  1  0
 17 20  1  0
  2 21  1  0
 21 22  2  0
 22 23  1  0
 22 24  1  0
 24 25  1  0
 24 26  2  0
 26 27  1  0
 27 28  2  0
 28 29  1  0
 27 30  1  0
 30 31  1  0
 30 32  1  0
 30 33  1  0
 33 34  1  0
 33 35  1  0
 33 36  1  0
 36 37  2  0
 37 38  1  0
 37 39  1  0
 39 40  1  0
 39 41  2  0
 41 42  1  0
 41 43  1  0
 43 44  1  0
 43 45  2  0
 45 46  1  0
 46 47  1  0
 47 48  1  0
 47 49  1  0
 47 50  1  0
 28 21  1  0
 45 36  1  0
 46 26  1  0
M  CHG  1  11   1
M  END
>  <UniqueID>  (14) 
14

>  <SMILES>  (14) 
CC[NH2+]CC/C=C/c1ccc2c(c1)CCc1ccccc1N2C

>  <Energy>  (14) 
67.80280873140129

>  <Genealogy>  (14) 
CC[NH2+]CCC=Cc1ccc2c(c1)CCc1ccccc1N2C (protonated)
CC[NH2+]CC/C=C/c1ccc2c(c1)CCc1ccccc1N2C (cis-trans isomerization)
CC[NH2+]CC/C=C/c1ccc2c(c1)CCc1ccccc1N2C (3D coordinates assigned)
CC[NH2+]CC/C=C/c1ccc2c(c1)CCc1ccccc1N2C (nonaromatic ring conformer: 67.80280873140129 kcal/mol)

>  <smiles>  (14) 
CCNCCC=Cc1ccc2c(c1)CCc1ccccc1N2C

>  <score_type>  (14) 
oracle

>  <origin>  (14) 
adg

>  <m_score__min__energy>  (14) 
-5.0800000000000001

>  <m_primary>  (14) 
energy

$$$$
15:0
     RDKit          3D

 47 49  0  0  0  0  0  0  0  0999 V2000
   61.0330   34.5890   48.5580 C   0  0  0  0  0  0  0  0  0  0  0  0
   60.2410   35.0170   47.4560 O   0  0  0  0  0  0  0  0  0  0  0  0
   59.3380   34.1960   46.7650 C   0  0  0  0  0  0  0  0  0  0  0  0
   59.5160   34.0260   45.3870 C   0  0  0  0  0  0  0  0  0  0  0  0
   58.6530   33.2070   44.6550 C   0  0  0  0  0  0  0  0  0  0  0  0
   57.5850   32.5580   45.2910 C   0  0  0  0  0  0  0  0  0  0  0  0
   56.6840   31.6350   44.5150 C   0  0  0  0  0  0  0  0  0  0  0  0
   57.2210   30.2760   44.5470 N   0  0  0  0  0  0  0  0  0  0  0  0
   58.5250   29.9430   44.5100 C   0  0  0  0  0  0  0  0  0  0  0  0
   58.6570   28.5770   44.6830 C   0  0  0  0  0  0  0  0  0  0  0  0
   59.9530   27.8370   44.8720 C   0  0  0  0  0  0  0  0  0  0  0  0
   60.1830   27.4870   46.2840 N   0  0  0  0  0  0  0  0  0  0  0  0
   60.0210   28.6300   47.1530 C   0  0  0  0  0  0  0  0  0  0  0  0
   60.7660   29.8020   46.9350 C   0  0  0  0  0  0  0  0  0  0  0  0
   60.5820   30.9210   47.7540 C   0  0  0  0  0  0  0  0  0  0  0  0
   59.6500   30.8830   48.8080 C   0  0  0  0  0  0  0  0  0  0  0  0
   59.4320   31.9740   49.6610 O   0  0  0  0  0  0  0  0  0  0  0  0
   58.4530   32.0060   50.6930 C   0  0  0  0  0  0  0  0  0  0  0  0
   58.9070   29.7170   49.0220 C   0  0  0  0  0  0  0  0  0  0  0  0
   59.0850   28.6010   48.2010 C   0  0  0  0  0  0  0  0  0  0  0  0
   57.3860   28.0540   44.8430 C   0  0  0  0  0  0  0  0  0  0  0  0
   56.5350   29.1350   44.7590 C   0  0  0  0  0  0  0  0  0  0  0  0
   55.1530   29.0710   44.9040 O   0  0  0  0  0  0  0  0  0  0  0  0
   57.4080   32.7170   46.6730 C   0  0  0  0  0  0  0  0  0  0  0  0
   58.2740   33.5340   47.4060 C   0  0  0  0  0  0  0  0  0  0  0  0
   60.5305   34.8606   49.4981 H   0  0  0  0  0  0  0  0  0  0  0  0
   61.1634   33.4976   48.5139 H   0  0  0  0  0  0  0  0  0  0  0  0
   62.0174   35.0779   48.5139 H   0  0  0  0  0  0  0  0  0  0  0  0
   60.3425   34.5417   44.8762 H   0  0  0  0  0  0  0  0  0  0  0  0
   58.8119   33.0706   43.5751 H   0  0  0  0  0  0  0  0  0  0  0  0
   55.6801   31.6416   44.9645 H   0  0  0  0  0  0  0  0  0  0  0  0
   56.6252   31.9777   43.4714 H   0  0  0  0  0  0  0  0  0  0  0  0
   59.3567   30.6481   44.3647 H   0  0  0  0  0  0  0  0  0  0  0  0
   59.9253   26.9127   44.2762 H   0  0  0  0  0  0  0  0  0  0  0  0
   60.7723   28.4941   44.5452 H   0  0  0  0  0  0  0  0  0  0  0  0
   59.5320   26.7160   46.5630 H   0  0  0  0  0  0  0  0  0  0  0  0
   61.1590   27.1200   46.3820 H   0  0  0  0  0  0  0  0  0  0  0  0
   61.4984   29.8394   46.1151 H   0  0  0  0  0  0  0  0  0  0  0  0
   61.1680   31.8342   47.5736 H   0  0  0  0  0  0  0  0  0  0  0  0
   58.9525   31.9897   51.6729 H   0  0  0  0  0  0  0  0  0  0  0  0
   57.8541   32.9242   50.6020 H   0  0  0  0  0  0  0  0  0  0  0  0
   57.7955   31.1289   50.6020 H   0  0  0  0  0  0  0  0  0  0  0  0
   58.1766   29.6788   49.8436 H   0  0  0  0  0  0  0  0  0  0  0  0
   58.4886   27.6934   48.3759 H   0  0  0  0  0  0  0  0  0  0  0  0
   57.1130   27.0005   45.0031 H   0  0  0  0  0  0  0  0  0  0  0  0
   56.5839   32.1964   47.1828 H   0  0  0  0  0  0  0  0  0  0  0  0
   58.1232   33.6600   48.4883 H   0  0  0  0  0  0  0  0  0  0  0  0
  1  2  1  0
  2  3  1  0
  3  4  2  0
  4  5  1  0
  5  6  2  0
  6  7  1  0
  7  8  1  0
  8  9  1  0
  9 10  2  0
 10 11  1  0
 11 12  1  0
 12 13  1  0
 13 14  2  0
 14 15  1  0
 15 16  2  0
 16 17  1  0
 17 18  1  0
 16 19  1  0
 19 20  2  0
 10 21  1  0
 21 22  2  0
 22 23  1  0
  6 24  1  0
 24 25  2  0
 25  3  1  0
 22  8  1  0
 20 13  1  0
  1 26  1  0
  1 27  1  0
  1 28  1  0
  4 29  1  0
  5 30  1  0
  7 31  1  0
  7 32  1  0
  9 33  1  0
 11 34  1  0
 11 35  1  0
 12 36  1  0
 12 37  1  0
 14 38  1  0
 15 39  1  0
 18 40  1  0
 18 41  1  0
 18 42  1  0
 19 43  1  0
 20 44  1  0
 21 45  1  0
 24 46  1  0
 25 47  1  0
M  CHG  2  12   1  23  -1
M  END
>  <UniqueID>  (15) 
15

>  <SMILES>  (15) 
COc1ccc(Cn2cc(C[NH2+]c3ccc(OC)cc3)cc2[O-])cc1

>  <Energy>  (15) 
68.12986839726976

>  <Genealogy>  (15) 
COc1ccc(Cn2cc(C[NH2+]c3ccc(OC)cc3)cc2[O-])cc1 (protonated)
COc1ccc(Cn2cc(C[NH2+]c3ccc(OC)cc3)cc2[O-])cc1 (3D coordinates assigned)
COc1ccc(Cn2cc(C[NH2+]c3ccc(OC)cc3)cc2[O-])cc1 (optimized conformer: 68.12986839726976 kcal/mol)

>  <smiles>  (15) 
COc1ccc(Cn2cc(CNc3ccc(OC)cc3)cc2O)cc1

>  <score_type>  (15) 
oracle

>  <origin>  (15) 
adg

>  <m_score__min__energy>  (15) 
-8.8200000000000003

>  <m_primary>  (15) 
energy

$$$$
16:0
     RDKit          3D

 47 49  0  0  0  0  0  0  0  0999 V2000
   60.0180   36.2340   45.6780 C   0  0  0  0  0  0  0  0  0  0  0  0
   59.3870   34.8860   45.8620 C   0  0  0  0  0  0  0  0  0  0  0  0
   58.9640   34.1450   44.7480 C   0  0  0  0  0  0  0  0  0  0  0  0
   58.4100   32.8740   44.9170 C   0  0  0  0  0  0  0  0  0  0  0  0
   58.3030   32.3120   46.1980 C   0  0  0  0  0  0  0  0  0  0  0  0
   57.7120   31.0190   46.3830 N   0  0  0  0  0  0  0  0  0  0  0  0
   57.4180   30.0780   45.3420 C   0  0  0  0  0  0  0  0  0  0  0  0
   56.3450   30.2230   44.6960 O   0  0  0  0  0  0  0  0  0  0  0  0
   58.3240   28.8860   45.0640 C   0  0  2  0  0  0  0  0  0  0  0  0
   58.3800   27.8900   46.2410 C   0  0  0  0  0  0  0  0  0  0  0  0
   59.1740   28.4240   47.4570 C   0  0  0  0  0  0  0  0  0  0  0  0
   60.1280   29.5120   47.1140 N   0  0  1  0  0  0  0  0  0  0  0  0
   61.1350   29.6530   48.1940 C   0  0  0  0  0  0  0  0  0  0  0  0
   61.7180   31.0470   48.2480 C   0  0  0  0  0  0  0  0  0  0  0  0
   61.8660   31.8060   47.0730 C   0  0  0  0  0  0  0  0  0  0  0  0
   62.3900   33.1020   47.1340 C   0  0  0  0  0  0  0  0  0  0  0  0
   62.7690   33.6480   48.3630 C   0  0  0  0  0  0  0  0  0  0  0  0
   62.6260   32.9000   49.5350 C   0  0  0  0  0  0  0  0  0  0  0  0
   62.1020   31.6040   49.4800 C   0  0  0  0  0  0  0  0  0  0  0  0
   60.7730   29.2510   45.8100 C   0  0  0  0  0  0  0  0  0  0  0  0
   59.7520   29.3320   44.6570 C   0  0  0  0  0  0  0  0  0  0  0  0
   58.7140   33.0560   47.3160 C   0  0  0  0  0  0  0  0  0  0  0  0
   58.5690   32.3340   49.0830 Br  0  0  0  0  0  0  0  0  0  0  0  0
   59.2690   34.3290   47.1450 C   0  0  0  0  0  0  0  0  0  0  0  0
   60.2262   36.6788   46.6623 H   0  0  0  0  0  0  0  0  0  0  0  0
   60.9587   36.1252   45.1184 H   0  0  0  0  0  0  0  0  0  0  0  0
   59.3319   36.8867   45.1184 H   0  0  0  0  0  0  0  0  0  0  0  0
   59.0691   34.5668   43.7375 H   0  0  0  0  0  0  0  0  0  0  0  0
   58.0557   32.3107   44.0411 H   0  0  0  0  0  0  0  0  0  0  0  0
   57.8721   28.3562   44.2125 H   0  0  0  0  0  0  0  0  0  0  0  0
   57.3511   27.6728   46.5639 H   0  0  0  0  0  0  0  0  0  0  0  0
   58.9003   26.9899   45.8818 H   0  0  0  0  0  0  0  0  0  0  0  0
   58.4580   28.8100   48.1975 H   0  0  0  0  0  0  0  0  0  0  0  0
   59.7685   27.5850   47.8476 H   0  0  0  0  0  0  0  0  0  0  0  0
   59.5900   30.4100   47.0510 H   0  0  0  0  0  0  0  0  0  0  0  0
   60.6545   29.4317   49.1584 H   0  0  0  0  0  0  0  0  0  0  0  0
   61.9553   28.9500   47.9869 H   0  0  0  0  0  0  0  0  0  0  0  0
   61.5690   31.3795   46.1035 H   0  0  0  0  0  0  0  0  0  0  0  0
   62.5038   33.6921   46.2127 H   0  0  0  0  0  0  0  0  0  0  0  0
   63.1802   34.6672   48.4082 H   0  0  0  0  0  0  0  0  0  0  0  0
   62.9258   33.3308   50.5017 H   0  0  0  0  0  0  0  0  0  0  0  0
   61.9901   31.0186   50.4046 H   0  0  0  0  0  0  0  0  0  0  0  0
   61.5621   29.9991   45.6438 H   0  0  0  0  0  0  0  0  0  0  0  0
   61.1981   28.2366   45.8284 H   0  0  0  0  0  0  0  0  0  0  0  0
   59.7049   30.3734   44.3060 H   0  0  0  0  0  0  0  0  0  0  0  0
   60.0951   28.6426   43.8715 H   0  0  0  0  0  0  0  0  0  0  0  0
   59.6150   34.8967   48.0214 H   0  0  0  0  0  0  0  0  0  0  0  0
  1  2  1  0
  2  3  2  0
  3  4  1  0
  4  5  2  0
  5  6  1  0
  6  7  1  0
  7  8  2  0
  7  9  1  0
  9 10  1  0
 10 11  1  0
 11 12  1  0
 12 13  1  0
 13 14  1  0
 14 15  2  0
 15 16  1  0
 16 17  2  0
 17 18  1  0
 18 19  2  0
 12 20  1  0
 20 21  1  0
  5 22  1  0
 22 23  1  0
 22 24  2  0
 24  2  1  0
 21  9  1  0
 19 14  1  0
  1 25  1  0
  1 26  1  0
  1 27  1  0
  3 28  1  0
  4 29  1  0
  9 30  1  6
 10 31  1  0
 10 32  1  0
 11 33  1  0
 11 34  1  0
 12 35  1  6
 13 36  1  0
 13 37  1  0
 15 38  1  0
 16 39  1  0
 17 40  1  0
 18 41  1  0
 19 42  1  0
 20 43  1  0
 20 44  1  0
 21 45  1  0
 21 46  1  0
 24 47  1  0
M  CHG  2   6  -1  12   1
M  END
>  <UniqueID>  (16) 
16

>  <SMILES>  (16) 
Cc1ccc([N-]C(=O)C2CC[NH+](Cc3ccccc3)CC2)c(Br)c1

>  <Energy>  (16) 
62.780457463980454

>  <Genealogy>  (16) 
Cc1ccc([N-]C(=O)C2CC[NH+](Cc3ccccc3)CC2)c(Br)c1 (protonated)
Cc1ccc([N-]C(=O)C2CC[NH+](Cc3ccccc3)CC2)c(Br)c1 (3D coordinates assigned)
Cc1ccc([N-]C(=O)C2CC[NH+](Cc3ccccc3)CC2)c(Br)c1 (nonaromatic ring conformer: 62.780457463980454 kcal/mol)

>  <smiles>  (16) 
Cc1ccc(NC(=O)C2CCN(Cc3ccccc3)CC2)c(Br)c1

>  <score_type>  (16) 
oracle

>  <origin>  (16) 
adg

>  <m_score__min__energy>  (16) 
-8.8399999999999999

>  <m_primary>  (16) 
energy

$$$$
17:0
     RDKit          3D

 60 60  0  0  0  0  0  0  0  0999 V2000
   58.5590   34.2480   45.9720 C   0  0  0  0  0  0  0  0  0  0  0  0
   58.9050   34.2620   47.4600 C   0  0  0  0  0  0  0  0  0  0  0  0
   60.4100   34.4750   47.7300 C   0  0  0  0  0  0  0  0  0  0  0  0
   60.9200   33.8580   48.9850 N   0  0  0  0  0  0  0  0  0  0  0  0
   59.8910   33.7140   50.0530 C   0  0  0  0  0  0  0  0  0  0  0  0
   59.6290   32.2630   50.5070 C   0  0  0  0  0  0  0  0  0  0  0  0
   58.1320   31.9890   50.5990 C   0  0  0  0  0  0  0  0  0  0  0  0
   62.1300   34.5960   49.4360 C   0  0  0  0  0  0  0  0  0  0  0  0
   63.4170   33.7380   49.4020 C   0  0  0  0  0  0  0  0  0  0  0  0
   63.8510   33.3750   47.9730 C   0  0  0  0  0  0  0  0  0  0  0  0
   63.4160   31.9730   47.5180 C   0  0  0  0  0  0  0  0  0  0  0  0
   62.2710   31.5300   48.2480 O   0  0  0  0  0  0  0  0  0  0  0  0
   61.1210   30.9200   47.7220 C   0  0  0  0  0  0  0  0  0  0  0  0
   60.4220   31.4250   46.6100 C   0  0  0  0  0  0  0  0  0  0  0  0
   59.2790   30.7720   46.1360 C   0  0  0  0  0  0  0  0  0  0  0  0
   58.8190   29.6030   46.7640 C   0  0  0  0  0  0  0  0  0  0  0  0
   57.5820   28.8990   46.2590 C   0  0  0  0  0  0  0  0  0  0  0  0
   56.6410   29.8030   45.5710 N   0  0  0  0  0  0  0  0  0  0  0  0
   56.5750   29.7220   44.0930 C   0  0  0  0  0  0  0  0  0  0  0  0
   56.9210   31.0490   43.4050 C   0  0  0  0  0  0  0  0  0  0  0  0
   57.3920   28.5530   43.5180 C   0  0  0  0  0  0  0  0  0  0  0  0
   59.4990   29.1180   47.8910 C   0  0  0  0  0  0  0  0  0  0  0  0
   60.6400   29.7720   48.3610 C   0  0  0  0  0  0  0  0  0  0  0  0
   57.4667   34.2038   45.8499 H   0  0  0  0  0  0  0  0  0  0  0  0
   58.9443   35.1625   45.4973 H   0  0  0  0  0  0  0  0  0  0  0  0
   59.0169   33.3676   45.4973 H   0  0  0  0  0  0  0  0  0  0  0  0
   58.3442   35.0763   47.9421 H   0  0  0  0  0  0  0  0  0  0  0  0
   58.6347   33.2772   47.8688 H   0  0  0  0  0  0  0  0  0  0  0  0
   60.9715   34.0462   46.8869 H   0  0  0  0  0  0  0  0  0  0  0  0
   60.5503   35.5601   47.8432 H   0  0  0  0  0  0  0  0  0  0  0  0
   61.2390   32.8920   48.7380 H   0  0  0  0  0  0  0  0  0  0  0  0
   60.2229   34.2918   50.9282 H   0  0  0  0  0  0  0  0  0  0  0  0
   58.9463   34.0799   49.6244 H   0  0  0  0  0  0  0  0  0  0  0  0
   60.0788   31.5705   49.7803 H   0  0  0  0  0  0  0  0  0  0  0  0
   60.0769   32.1172   51.5010 H   0  0  0  0  0  0  0  0  0  0  0  0
   57.8335   31.9344   51.6563 H   0  0  0  0  0  0  0  0  0  0  0  0
   57.5795   32.8009   50.1035 H   0  0  0  0  0  0  0  0  0  0  0  0
   57.9029   31.0340   50.1035 H   0  0  0  0  0  0  0  0  0  0  0  0
   62.2732   35.4667   48.7792 H   0  0  0  0  0  0  0  0  0  0  0  0
   61.9616   34.8901   50.4825 H   0  0  0  0  0  0  0  0  0  0  0  0
   64.2290   34.3026   49.8836 H   0  0  0  0  0  0  0  0  0  0  0  0
   63.2038   32.7985   49.9330 H   0  0  0  0  0  0  0  0  0  0  0  0
   63.4151   34.1121   47.2826 H   0  0  0  0  0  0  0  0  0  0  0  0
   64.9510   33.3818   47.9660 H   0  0  0  0  0  0  0  0  0  0  0  0
   63.1698   32.0029   46.4463 H   0  0  0  0  0  0  0  0  0  0  0  0
   64.2430   31.2720   47.7042 H   0  0  0  0  0  0  0  0  0  0  0  0
   60.7764   32.3387   46.1104 H   0  0  0  0  0  0  0  0  0  0  0  0
   58.7382   31.1760   45.2675 H   0  0  0  0  0  0  0  0  0  0  0  0
   57.8901   28.1124   45.5544 H   0  0  0  0  0  0  0  0  0  0  0  0
   57.0593   28.4865   47.1346 H   0  0  0  0  0  0  0  0  0  0  0  0
   55.6810   29.7160   45.9810 H   0  0  0  0  0  0  0  0  0  0  0  0
   55.5201   29.5122   43.8624 H   0  0  0  0  0  0  0  0  0  0  0  0
   57.1210   31.8161   44.1676 H   0  0  0  0  0  0  0  0  0  0  0  0
   57.8141   30.9145   42.7771 H   0  0  0  0  0  0  0  0  0  0  0  0
   56.0759   31.3677   42.7771 H   0  0  0  0  0  0  0  0  0  0  0  0
   57.8089   27.9564   44.3428 H   0  0  0  0  0  0  0  0  0  0  0  0
   56.7396   27.9187   42.9000 H   0  0  0  0  0  0  0  0  0  0  0  0
   58.2119   28.9477   42.9000 H   0  0  0  0  0  0  0  0  0  0  0  0
   59.1319   28.2185   48.4069 H   0  0  0  0  0  0  0  0  0  0  0  0
   61.1666   29.3801   49.2437 H   0  0  0  0  0  0  0  0  0  0  0  0
  1  2  1  0
  2  3  1  0
  3  4  1  0
  4  5  1  0
  5  6  1  0
  6  7  1  0
  4  8  1  0
  8  9  1  0
  9 10  1  0
 10 11  1  0
 11 12  1  0
 12 13  1  0
 13 14  2  0
 14 15  1  0
 15 16  2  0
 16 17  1  0
 17 18  1  0
 18 19  1  0
 19 20  1  0
 19 21  1  0
 16 22  1  0
 22 23  2  0
 23 13  1  0
  1 24  1  0
  1 25  1  0
  1 26  1  0
  2 27  1  0
  2 28  1  0
  3 29  1  0
  3 30  1  0
  4 31  1  0
  5 32  1  0
  5 33  1  0
  6 34  1  0
  6 35  1  0
  7 36  1  0
  7 37  1  0
  7 38  1  0
  8 39  1  0
  8 40  1  0
  9 41  1  0
  9 42  1  0
 10 43  1  0
 10 44  1  0
 11 45  1  0
 11 46  1  0
 14 47  1  0
 15 48  1  0
 17 49  1  0
 17 50  1  0
 18 51  1  0
 19 52  1  0
 20 53  1  0
 20 54  1  0
 20 55  1  0
 21 56  1  0
 21 57  1  0
 21 58  1  0
 22 59  1  0
 23 60  1  0
M  CHG  1   4   1
M  END
>  <UniqueID>  (17) 
17

>  <SMILES>  (17) 
CCC[NH+](CCC)CCCCOc1ccc(CNC(C)C)cc1

>  <Energy>  (17) 
54.394597435181126

>  <Genealogy>  (17) 
CCC[NH+](CCC)CCCCOc1ccc(CNC(C)C)cc1 (protonated)
CCC[NH+](CCC)CCCCOc1ccc(CNC(C)C)cc1 (3D coordinates assigned)
CCC[NH+](CCC)CCCCOc1ccc(CNC(C)C)cc1 (optimized conformer: 54.394597435181126 kcal/mol)

>  <smiles>  (17) 
CCCN(CCC)CCCCOc1ccc(CNC(C)C)cc1

>  <score_type>  (17) 
oracle

>  <origin>  (17) 
adg

>  <m_score__min__energy>  (17) 
-4.8099999999999996

>  <m_primary>  (17) 
energy

$$$$
18:0
     RDKit          3D

 79 82  0  0  0  0  0  0  0  0999 V2000
   57.9380   29.3390   53.6930 C   0  0  0  0  0  0  0  0  0  0  0  0
   57.4830   29.7210   52.2750 C   0  0  0  0  0  0  0  0  0  0  0  0
   56.1680   30.5100   52.3470 C   0  0  0  0  0  0  0  0  0  0  0  0
   58.5170   30.5110   51.5700 N   0  0  0  0  0  0  0  0  0  0  0  0
   58.1870   31.9520   51.5150 C   0  0  0  0  0  0  0  0  0  0  0  0
   58.5160   32.5810   50.1430 C   0  0  0  0  0  0  0  0  0  0  0  0
   59.6080   31.9120   49.4170 N   0  0  0  0  0  0  0  0  0  0  0  0
   59.4370   31.1270   48.2230 C   0  0  0  0  0  0  0  0  0  0  0  0
   58.7580   31.6940   47.1270 C   0  0  0  0  0  0  0  0  0  0  0  0
   58.1450   32.9630   47.2290 C   0  0  0  0  0  0  0  0  0  0  0  0
   57.4930   33.5300   46.1380 C   0  0  0  0  0  0  0  0  0  0  0  0
   57.4200   32.8400   44.9340 C   0  0  0  0  0  0  0  0  0  0  0  0
   57.9950   31.5750   44.8170 C   0  0  0  0  0  0  0  0  0  0  0  0
   58.6800   30.9790   45.9060 C   0  0  0  0  0  0  0  0  0  0  0  0
   59.2310   29.7190   45.8120 N   0  0  0  0  0  0  0  0  0  0  0  0
   59.4100   29.0860   44.4870 C   0  0  0  0  0  0  0  0  0  0  0  0
   59.6070   29.0480   46.9570 C   0  0  0  0  0  0  0  0  0  0  0  0
   59.7610   27.6430   46.9540 C   0  0  0  0  0  0  0  0  0  0  0  0
   60.1190   26.9600   48.1080 C   0  0  0  0  0  0  0  0  0  0  0  0
   60.3930   27.6560   49.2750 C   0  0  0  0  0  0  0  0  0  0  0  0
   60.3130   29.0600   49.3140 C   0  0  0  0  0  0  0  0  0  0  0  0
   60.7480   29.7700   50.4510 O   0  0  0  0  0  0  0  0  0  0  0  0
   62.1050   30.0290   50.8250 C   0  0  0  0  0  0  0  0  0  0  0  0
   62.3720   31.4580   51.3870 C   0  0  0  0  0  0  0  0  0  0  0  0
   63.2900   32.3490   50.5990 N   0  0  0  0  0  0  0  0  0  0  0  0
   64.5120   32.6400   51.3920 C   0  0  0  0  0  0  0  0  0  0  0  0
   63.7160   31.6120   49.3580 C   0  0  0  0  0  0  0  0  0  0  0  0
   62.7690   31.8640   48.1670 C   0  0  0  0  0  0  0  0  0  0  0  0
   62.7580   33.3040   47.7530 N   0  0  0  0  0  0  0  0  0  0  0  0
   63.7630   33.5230   46.6840 C   0  0  0  0  0  0  0  0  0  0  0  0
   61.4230   33.6370   47.1990 C   0  0  0  0  0  0  0  0  0  0  0  0
   63.0660   34.2140   48.9000 C   0  0  0  0  0  0  0  0  0  0  0  0
   62.5930   33.6280   50.2430 C   0  0  0  0  0  0  0  0  0  0  0  0
   59.8060   29.7580   48.1780 C   0  0  0  0  0  0  0  0  0  0  0  0
   57.3139   29.8629   54.4319 H   0  0  0  0  0  0  0  0  0  0  0  0
   57.8353   28.2525   53.8308 H   0  0  0  0  0  0  0  0  0  0  0  0
   58.9903   29.6282   53.8308 H   0  0  0  0  0  0  0  0  0  0  0  0
   57.3230   28.7947   51.7038 H   0  0  0  0  0  0  0  0  0  0  0  0
   55.8956   30.6734   53.4001 H   0  0  0  0  0  0  0  0  0  0  0  0
   56.2952   31.4811   51.8462 H   0  0  0  0  0  0  0  0  0  0  0  0
   55.3710   29.9408   51.8462 H   0  0  0  0  0  0  0  0  0  0  0  0
   59.4280   30.3680   52.0580 H   0  0  0  0  0  0  0  0  0  0  0  0
   58.6320   30.1490   50.5930 H   0  0  0  0  0  0  0  0  0  0  0  0
   57.1117   32.0756   51.7113 H   0  0  0  0  0  0  0  0  0  0  0  0
   58.7974   32.4644   52.2732 H   0  0  0  0  0  0  0  0  0  0  0  0
   57.6111   32.5396   49.5190 H   0  0  0  0  0  0  0  0  0  0  0  0
   58.8521   33.6097   50.3401 H   0  0  0  0  0  0  0  0  0  0  0  0
   60.5490   31.8900   49.8690 H   0  0  0  0  0  0  0  0  0  0  0  0
   58.1836   33.5097   48.1828 H   0  0  0  0  0  0  0  0  0  0  0  0
   57.0348   34.5259   46.2289 H   0  0  0  0  0  0  0  0  0  0  0  0
   56.9079   33.2923   44.0720 H   0  0  0  0  0  0  0  0  0  0  0  0
   57.9159   31.0307   43.8644 H   0  0  0  0  0  0  0  0  0  0  0  0
   59.7071   28.0352   44.6198 H   0  0  0  0  0  0  0  0  0  0  0  0
   58.4637   29.1316   43.9280 H   0  0  0  0  0  0  0  0  0  0  0  0
   60.1922   29.6204   43.9280 H   0  0  0  0  0  0  0  0  0  0  0  0
   59.5945   27.0821   46.0225 H   0  0  0  0  0  0  0  0  0  0  0  0
   60.1855   25.8621   48.0965 H   0  0  0  0  0  0  0  0  0  0  0  0
   60.6768   27.1032   50.1827 H   0  0  0  0  0  0  0  0  0  0  0  0
   62.3913   29.2997   51.5971 H   0  0  0  0  0  0  0  0  0  0  0  0
   62.6993   29.9452   49.9032 H   0  0  0  0  0  0  0  0  0  0  0  0
   61.4011   31.9694   51.4638 H   0  0  0  0  0  0  0  0  0  0  0  0
   62.8912   31.2927   52.3426 H   0  0  0  0  0  0  0  0  0  0  0  0
   64.2751   32.5836   52.4647 H   0  0  0  0  0  0  0  0  0  0  0  0
   65.2910   31.9022   51.1492 H   0  0  0  0  0  0  0  0  0  0  0  0
   64.8748   33.6497   51.1492 H   0  0  0  0  0  0  0  0  0  0  0  0
   64.7275   31.9434   49.0806 H   0  0  0  0  0  0  0  0  0  0  0  0
   63.6906   30.5356   49.5832 H   0  0  0  0  0  0  0  0  0  0  0  0
   63.0997   31.2521   47.3148 H   0  0  0  0  0  0  0  0  0  0  0  0
   61.7500   31.5929   48.4802 H   0  0  0  0  0  0  0  0  0  0  0  0
   64.7416   33.7362   47.1389 H   0  0  0  0  0  0  0  0  0  0  0  0
   63.8375   32.6200   46.0602 H   0  0  0  0  0  0  0  0  0  0  0  0
   63.4551   34.3751   46.0602 H   0  0  0  0  0  0  0  0  0  0  0  0
   60.7171   33.8131   48.0241 H   0  0  0  0  0  0  0  0  0  0  0  0
   61.4983   34.5439   46.5810 H   0  0  0  0  0  0  0  0  0  0  0  0
   61.0635   32.8010   46.5810 H   0  0  0  0  0  0  0  0  0  0  0  0
   64.1535   34.3733   48.9451 H   0  0  0  0  0  0  0  0  0  0  0  0
   62.5321   35.1616   48.7354 H   0  0  0  0  0  0  0  0  0  0  0  0
   62.7867   34.3657   51.0356 H   0  0  0  0  0  0  0  0  0  0  0  0
   61.5205   33.4037   50.1460 H   0  0  0  0  0  0  0  0  0  0  0  0
  1  2  1  0
  2  3  1  0
  2  4  1  0
  4  5  1  0
  5  6  1  0
  6  7  1  0
  7  8  1  0
  8  9  2  0
  9 10  1  0
 10 11  2  0
 11 12  1  0
 12 13  2  0
 13 14  1  0
 14 15  2  0
 15 16  1  0
 15 17  1  0
 17 18  2  0
 18 19  1  0
 19 20  2  0
 20 21  1  0
 21 22  1  0
 22 23  1  0
 23 24  1  0
 24 25  1  0
 25 26  1  0
 25 27  1  0
 27 28  1  0
 28 29  1  0
 29 30  1  0
 29 31  1  0
 29 32  1  0
 32 33  1  0
 21 34  2  0
 34  8  1  0
 14  9  1  0
 34 17  1  0
 33 25  1  0
  1 35  1  0
  1 36  1  0
  1 37  1  0
  2 38  1  0
  3 39  1  0
  3 40  1  0
  3 41  1  0
  4 42  1  0
  4 43  1  0
  5 44  1  0
  5 45  1  0
  6 46  1  0
  6 47  1  0
  7 48  1  0
 10 49  1  0
 11 50  1  0
 12 51  1  0
 13 52  1  0
 16 53  1  0
 16 54  1  0
 16 55  1  0
 18 56  1  0
 19 57  1  0
 20 58  1  0
 23 59  1  0
 23 60  1  0
 24 61  1  0
 24 62  1  0
 26 63  1  0
 26 64  1  0
 26 65  1  0
 27 66  1  0
 27 67  1  0
 28 68  1  0
 28 69  1  0
 30 70  1  0
 30 71  1  0
 30 72  1  0
 31 73  1  0
 31 74  1  0
 31 75  1  0
 32 76  1  0
 32 77  1  0
 33 78  1  0
 33 79  1  0
M  CHG  4   4   1  15   1  25   1  29   1
M  END
>  <UniqueID>  (18) 
18

>  <SMILES>  (18) 
CC(C)[NH2+]CCNc1c2ccccc2[n+](C)c2cccc(OCC[N+]3(C)CC[N+](C)(C)CC3)c12

>  <Energy>  (18) 
135.03996804270133

>  <Genealogy>  (18) 
CC(C)[NH2+]CCNc1c2ccccc2[n+](C)c2cccc(OCC[N+]3(C)CC[N+](C)(C)CC3)c12 (protonated)
CC(C)[NH2+]CCNc1c2ccccc2[n+](C)c2cccc(OCC[N+]3(C)CC[N+](C)(C)CC3)c12 (3D coordinates assigned)
CC(C)[NH2+]CCNc1c2ccccc2[n+](C)c2cccc(OCC[N+]3(C)CC[N+](C)(C)CC3)c12 (nonaromatic ring conformer: 135.03996804270133 kcal/mol)

>  <smiles>  (18) 
CC(C)NCCNc1c2ccccc2[n+](C)c2cccc(OCC[N+]3(C)CC[N+](C)(C)CC3)c12

>  <score_type>  (18) 
oracle

>  <origin>  (18) 
adg

>  <m_score__min__energy>  (18) 
-2.9199999999999999

>  <m_primary>  (18) 
energy

$$$$
19:0
     RDKit          3D

 64 66  0  0  0  0  0  0  0  0999 V2000
   56.4343   30.7642   51.7522 H   0  0  0  0  0  0  0  0  0  0  0  0
   57.3990   30.9230   51.2480 C   0  0  0  0  0  0  0  0  0  0  0  0
   58.1120   29.8830   50.9620 N   0  0  0  0  0  0  0  0  0  0  0  0
   59.1550   29.3290   51.7980 C   0  0  0  0  0  0  0  0  0  0  0  0
   58.8901   29.4697   52.8563 H   0  0  0  0  0  0  0  0  0  0  0  0
   59.2626   28.2549   51.5866 H   0  0  0  0  0  0  0  0  0  0  0  0
   60.1052   29.8413   51.5866 H   0  0  0  0  0  0  0  0  0  0  0  0
   57.8080   32.3420   50.9330 C   0  0  0  0  0  0  0  0  0  0  0  0
   57.8680   32.9154   51.8698 H   0  0  0  0  0  0  0  0  0  0  0  0
   57.0577   32.7815   50.2593 H   0  0  0  0  0  0  0  0  0  0  0  0
   59.1110   32.3770   50.2660 N   0  0  0  0  0  0  0  0  0  0  0  0
   59.9010   31.8760   50.7140 H   0  0  0  0  0  0  0  0  0  0  0  0
   59.3220   32.9350   48.9570 C   0  0  0  0  0  0  0  0  0  0  0  0
   59.7650   34.2660   48.8780 C   0  0  0  0  0  0  0  0  0  0  0  0
   60.1535   34.7609   49.7803 H   0  0  0  0  0  0  0  0  0  0  0  0
   59.7210   34.9640   47.6860 C   0  0  0  0  0  0  0  0  0  0  0  0
   60.1344   35.9817   47.6275 H   0  0  0  0  0  0  0  0  0  0  0  0
   59.1550   34.3790   46.5650 C   0  0  0  0  0  0  0  0  0  0  0  0
   59.0606   34.9653   45.6391 H   0  0  0  0  0  0  0  0  0  0  0  0
   58.6960   33.0400   46.5900 C   0  0  0  0  0  0  0  0  0  0  0  0
   58.9240   32.2500   47.7560 C   0  0  0  0  0  0  0  0  0  0  0  0
   58.8110   30.8220   47.6400 C   0  0  0  0  0  0  0  0  0  0  0  0
   59.2820   29.9330   48.6950 N   0  0  0  0  0  0  0  0  0  0  0  0
   58.6370   29.1260   48.8320 H   0  0  0  0  0  0  0  0  0  0  0  0
   59.2140   30.4150   49.6190 H   0  0  0  0  0  0  0  0  0  0  0  0
   60.6750   29.4900   48.4580 C   0  0  0  0  0  0  0  0  0  0  0  0
   60.8098   29.3041   47.3822 H   0  0  0  0  0  0  0  0  0  0  0  0
   60.8440   28.5755   49.0455 H   0  0  0  0  0  0  0  0  0  0  0  0
   61.7040   30.5430   48.9130 C   0  0  0  0  0  0  0  0  0  0  0  0
   62.5199   30.0287   49.4420 H   0  0  0  0  0  0  0  0  0  0  0  0
   61.1758   31.2569   49.5622 H   0  0  0  0  0  0  0  0  0  0  0  0
   62.3050   31.3430   47.7500 C   0  0  0  0  0  0  0  0  0  0  0  0
   61.4995   31.8615   47.2094 H   0  0  0  0  0  0  0  0  0  0  0  0
   62.8272   30.6548   47.0690 H   0  0  0  0  0  0  0  0  0  0  0  0
   63.2700   32.3410   48.2690 N   0  0  0  0  0  0  0  0  0  0  0  0
   63.4920   32.2200   49.7320 C   0  0  0  0  0  0  0  0  0  0  0  0
   64.5693   32.0856   49.9093 H   0  0  0  0  0  0  0  0  0  0  0  0
   62.8980   31.3604   50.0759 H   0  0  0  0  0  0  0  0  0  0  0  0
   63.0170   33.4430   50.5360 C   0  0  0  0  0  0  0  0  0  0  0  0
   63.1000   33.2293   51.6118 H   0  0  0  0  0  0  0  0  0  0  0  0
   63.6429   34.3122   50.2855 H   0  0  0  0  0  0  0  0  0  0  0  0
   61.9685   33.6618   50.2855 H   0  0  0  0  0  0  0  0  0  0  0  0
   62.9760   33.7130   47.7940 C   0  0  0  0  0  0  0  0  0  0  0  0
   61.9026   33.9143   47.9256 H   0  0  0  0  0  0  0  0  0  0  0  0
   63.5821   34.4185   48.3813 H   0  0  0  0  0  0  0  0  0  0  0  0
   63.3360   33.8850   46.3190 C   0  0  0  0  0  0  0  0  0  0  0  0
   64.3257   34.3578   46.2359 H   0  0  0  0  0  0  0  0  0  0  0  0
   63.3579   32.9001   45.8297 H   0  0  0  0  0  0  0  0  0  0  0  0
   62.5835   34.5209   45.8297 H   0  0  0  0  0  0  0  0  0  0  0  0
   58.3830   30.2710   46.3930 C   0  0  0  0  0  0  0  0  0  0  0  0
   58.3380   28.8720   46.1680 C   0  0  0  0  0  0  0  0  0  0  0  0
   58.6111   28.1865   46.9838 H   0  0  0  0  0  0  0  0  0  0  0  0
   57.9560   28.3480   44.9380 C   0  0  0  0  0  0  0  0  0  0  0  0
   57.9277   27.2581   44.7918 H   0  0  0  0  0  0  0  0  0  0  0  0
   57.6110   29.1930   43.8960 C   0  0  0  0  0  0  0  0  0  0  0  0
   57.3162   28.7735   42.9228 H   0  0  0  0  0  0  0  0  0  0  0  0
   57.6370   30.5690   44.0790 C   0  0  0  0  0  0  0  0  0  0  0  0
   57.3634   31.2305   43.2438 H   0  0  0  0  0  0  0  0  0  0  0  0
   58.0110   31.1380   45.3270 C   0  0  0  0  0  0  0  0  0  0  0  0
   58.0670   32.5030   45.4900 N   0  0  0  0  0  0  0  0  0  0  0  0
   57.4250   33.3940   44.4990 C   0  0  0  0  0  0  0  0  0  0  0  0
   56.8597   34.1786   45.0233 H   0  0  0  0  0  0  0  0  0  0  0  0
   58.1976   33.8581   43.8684 H   0  0  0  0  0  0  0  0  0  0  0  0
   56.7403   32.8080   43.8684 H   0  0  0  0  0  0  0  0  0  0  0  0
  1  2  1  0
  2  3  2  0
  3  4  1  0
  4  5  1  0
  4  6  1  0
  4  7  1  0
  2  8  1  0
  8  9  1  0
  8 10  1  0
  8 11  1  0
 11 12  1  0
 11 13  1  0
 13 14  2  0
 14 15  1  0
 14 16  1  0
 16 17  1  0
 16 18  2  0
 18 19  1  0
 18 20  1  0
 20 21  2  0
 21 22  1  0
 22 23  1  0
 23 24  1  0
 23 25  1  0
 23 26  1  0
 26 27  1  0
 26 28  1  0
 26 29  1  0
 29 30  1  0
 29 31  1  0
 29 32  1  0
 32 33  1  0
 32 34  1  0
 32 35  1  0
 35 36  1  0
 36 37  1  0
 36 38  1  0
 36 39  1  0
 39 40  1  0
 39 41  1  0
 39 42  1  0
 35 43  1  0
 43 44  1  0
 43 45  1  0
 43 46  1  0
 46 47  1  0
 46 48  1  0
 46 49  1  0
 22 50  2  0
 50 51  1  0
 51 52  1  0
 51 53  2  0
 53 54  1  0
 53 55  1  0
 55 56  1  0
 55 57  2  0
 57 58  1  0
 57 59  1  0
 59 60  2  0
 60 61  1  0
 61 62  1  0
 61 63  1  0
 61 64  1  0
 21 13  1  0
 59 50  1  0
 60 20  1  0
M  CHG  2  23   1  60   1
M  END
>  <UniqueID>  (19) 
19

>  <SMILES>  (19) 
CCN(CC)CCC[NH2+]c1c2ccccc2[n+](C)c2cccc(NC/C=N\C)c12

>  <Energy>  (19) 
105.3956309154319

>  <Genealogy>  (19) 
CCN(CC)CCC[NH2+]c1c2ccccc2[n+](C)c2cccc(NCC=NC)c12 (protonated)
CCN(CC)CCC[NH2+]c1c2ccccc2[n+](C)c2cccc(NC/C=N\C)c12 (cis-trans isomerization)
CCN(CC)CCC[NH2+]c1c2ccccc2[n+](C)c2cccc(NC/C=N\C)c12 (3D coordinates assigned)
CCN(CC)CCC[NH2+]c1c2ccccc2[n+](C)c2cccc(NC/C=N\C)c12 (optimized conformer: 105.3956309154319 kcal/mol)

>  <smiles>  (19) 
CCN(CC)CCCNc1c2ccccc2[n+](C)c2cccc(NCC=NC)c12

>  <score_type>  (19) 
oracle

>  <origin>  (19) 
adg

>  <m_score__min__energy>  (19) 
-3.77

>  <m_primary>  (19) 
energy

$$$$
20:0
     RDKit          3D

 76 79  0  0  0  0  0  0  0  0999 V2000
   58.9140   36.3560   54.5890 C   0  0  0  0  0  0  0  0  0  0  0  0
   58.9240   34.9000   54.1150 C   0  0  0  0  0  0  0  0  0  0  0  0
   58.6290   34.7780   52.6760 N   0  0  0  0  0  0  0  0  0  0  0  0
   58.3420   33.3920   52.2680 C   0  0  0  0  0  0  0  0  0  0  0  0
   59.5730   32.7380   51.6220 C   0  0  0  0  0  0  0  0  0  0  0  0
   60.7440   33.6400   51.5410 N   0  0  0  0  0  0  0  0  0  0  0  0
   61.4580   33.5190   50.2730 C   0  0  0  0  0  0  0  0  0  0  0  0
   62.8310   33.1420   50.2600 C   0  0  0  0  0  0  0  0  0  0  0  0
   63.5180   32.7890   51.4490 C   0  0  0  0  0  0  0  0  0  0  0  0
   64.8460   32.3610   51.4320 C   0  0  0  0  0  0  0  0  0  0  0  0
   65.4430   32.0110   52.6560 O   0  0  0  0  0  0  0  0  0  0  0  0
   64.8510   31.2030   53.6730 C   0  0  0  0  0  0  0  0  0  0  0  0
   65.5990   29.8510   53.7810 C   0  0  0  0  0  0  0  0  0  0  0  0
   65.6120   28.9980   52.5450 N   0  0  0  0  0  0  0  0  0  0  0  0
   64.2660   29.1480   51.9230 C   0  0  0  0  0  0  0  0  0  0  0  0
   66.6340   29.4670   51.5480 C   0  0  0  0  0  0  0  0  0  0  0  0
   67.9380   28.6380   51.5860 C   0  0  0  0  0  0  0  0  0  0  0  0
   67.7070   27.1880   51.2880 N   0  0  0  0  0  0  0  0  0  0  0  0
   67.8470   26.9530   49.8290 C   0  0  0  0  0  0  0  0  0  0  0  0
   68.7510   26.3880   51.9780 C   0  0  0  0  0  0  0  0  0  0  0  0
   66.3530   26.7260   51.7300 C   0  0  0  0  0  0  0  0  0  0  0  0
   65.8010   27.5560   52.9070 C   0  0  0  0  0  0  0  0  0  0  0  0
   65.5240   32.2920   50.2120 C   0  0  0  0  0  0  0  0  0  0  0  0
   64.8810   32.6520   49.0310 C   0  0  0  0  0  0  0  0  0  0  0  0
   63.5410   33.1140   49.0300 C   0  0  0  0  0  0  0  0  0  0  0  0
   62.9280   33.5170   47.8630 N   0  0  0  0  0  0  0  0  0  0  0  0
   63.7460   33.8030   46.6600 C   0  0  0  0  0  0  0  0  0  0  0  0
   61.5590   33.6830   47.8200 C   0  0  0  0  0  0  0  0  0  0  0  0
   60.8750   33.7910   46.5810 C   0  0  0  0  0  0  0  0  0  0  0  0
   59.5060   34.0300   46.5310 C   0  0  0  0  0  0  0  0  0  0  0  0
   58.6200   34.1770   44.8440 Br  0  0  0  0  0  0  0  0  0  0  0  0
   58.7820   34.1570   47.7070 C   0  0  0  0  0  0  0  0  0  0  0  0
   59.4140   34.0100   48.9380 C   0  0  0  0  0  0  0  0  0  0  0  0
   60.8030   33.7390   49.0270 C   0  0  0  0  0  0  0  0  0  0  0  0
   58.9138   36.3836   55.6887 H   0  0  0  0  0  0  0  0  0  0  0  0
   59.8086   36.8713   54.2094 H   0  0  0  0  0  0  0  0  0  0  0  0
   58.0124   36.8590   54.2094 H   0  0  0  0  0  0  0  0  0  0  0  0
   59.9181   34.4714   54.3099 H   0  0  0  0  0  0  0  0  0  0  0  0
   58.1391   34.3613   54.6662 H   0  0  0  0  0  0  0  0  0  0  0  0
   57.8080   35.3820   52.4340 H   0  0  0  0  0  0  0  0  0  0  0  0
   58.0499   32.8100   53.1545 H   0  0  0  0  0  0  0  0  0  0  0  0
   57.5272   33.4075   51.5292 H   0  0  0  0  0  0  0  0  0  0  0  0
   59.8525   31.8566   52.2178 H   0  0  0  0  0  0  0  0  0  0  0  0
   59.2960   32.4725   50.5911 H   0  0  0  0  0  0  0  0  0  0  0  0
   60.4810   34.6200   51.7700 H   0  0  0  0  0  0  0  0  0  0  0  0
   61.4030   33.4130   52.3190 H   0  0  0  0  0  0  0  0  0  0  0  0
   62.9895   32.8544   52.4115 H   0  0  0  0  0  0  0  0  0  0  0  0
   64.9105   31.7298   54.6368 H   0  0  0  0  0  0  0  0  0  0  0  0
   63.7988   31.0128   53.4149 H   0  0  0  0  0  0  0  0  0  0  0  0
   66.6434   30.0663   54.0508 H   0  0  0  0  0  0  0  0  0  0  0  0
   65.0466   29.2691   54.5335 H   0  0  0  0  0  0  0  0  0  0  0  0
   63.5047   29.2328   52.7124 H   0  0  0  0  0  0  0  0  0  0  0  0
   64.2494   30.0536   51.2987 H   0  0  0  0  0  0  0  0  0  0  0  0
   64.0505   28.2683   51.2987 H   0  0  0  0  0  0  0  0  0  0  0  0
   66.2004   29.3926   50.5398 H   0  0  0  0  0  0  0  0  0  0  0  0
   66.8950   30.5038   51.8066 H   0  0  0  0  0  0  0  0  0  0  0  0
   68.6359   29.0444   50.8392 H   0  0  0  0  0  0  0  0  0  0  0  0
   68.3481   28.7079   52.6043 H   0  0  0  0  0  0  0  0  0  0  0  0
   68.4033   26.0192   49.6597 H   0  0  0  0  0  0  0  0  0  0  0  0
   66.8491   26.8731   49.3731 H   0  0  0  0  0  0  0  0  0  0  0  0
   68.3923   27.7925   49.3731 H   0  0  0  0  0  0  0  0  0  0  0  0
   68.6263   26.4836   53.0667 H   0  0  0  0  0  0  0  0  0  0  0  0
   68.6537   25.3311   51.6891 H   0  0  0  0  0  0  0  0  0  0  0  0
   69.7462   26.7569   51.6891 H   0  0  0  0  0  0  0  0  0  0  0  0
   65.6573   26.8102   50.8821 H   0  0  0  0  0  0  0  0  0  0  0  0
   66.4500   25.6849   52.0716 H   0  0  0  0  0  0  0  0  0  0  0  0
   64.8304   27.1372   53.2110 H   0  0  0  0  0  0  0  0  0  0  0  0
   66.5332   27.5073   53.7265 H   0  0  0  0  0  0  0  0  0  0  0  0
   66.5698   31.9519   50.1848 H   0  0  0  0  0  0  0  0  0  0  0  0
   65.4247   32.5763   48.0778 H   0  0  0  0  0  0  0  0  0  0  0  0
   64.7426   34.1515   46.9686 H   0  0  0  0  0  0  0  0  0  0  0  0
   63.8476   32.8870   46.0594 H   0  0  0  0  0  0  0  0  0  0  0  0
   63.2547   34.5827   46.0594 H   0  0  0  0  0  0  0  0  0  0  0  0
   61.4386   33.6836   45.6425 H   0  0  0  0  0  0  0  0  0  0  0  0
   57.7045   34.3747   47.6666 H   0  0  0  0  0  0  0  0  0  0  0  0
   58.8238   34.1060   49.8613 H   0  0  0  0  0  0  0  0  0  0  0  0
  1  2  1  0
  2  3  1  0
  3  4  1  0
  4  5  1  0
  5  6  1  0
  6  7  1  0
  7  8  2  0
  8  9  1  0
  9 10  2  0
 10 11  1  0
 11 12  1  0
 12 13  1  0
 13 14  1  0
 14 15  1  0
 14 16  1  0
 16 17  1  0
 17 18  1  0
 18 19  1  0
 18 20  1  0
 18 21  1  0
 21 22  1  0
 10 23  1  0
 23 24  2  0
 24 25  1  0
 25 26  2  0
 26 27  1  0
 26 28  1  0
 28 29  2  0
 29 30  1  0
 30 31  1  0
 30 32  2  0
 32 33  1  0
 33 34  2  0
 34  7  1  0
 25  8  1  0
 34 28  1  0
 22 14  1  0
  1 35  1  0
  1 36  1  0
  1 37  1  0
  2 38  1  0
  2 39  1  0
  3 40  1  0
  4 41  1  0
  4 42  1  0
  5 43  1  0
  5 44  1  0
  6 45  1  0
  6 46  1  0
  9 47  1  0
 12 48  1  0
 12 49  1  0
 13 50  1  0
 13 51  1  0
 15 52  1  0
 15 53  1  0
 15 54  1  0
 16 55  1  0
 16 56  1  0
 17 57  1  0
 17 58  1  0
 19 59  1  0
 19 60  1  0
 19 61  1  0
 20 62  1  0
 20 63  1  0
 20 64  1  0
 21 65  1  0
 21 66  1  0
 22 67  1  0
 22 68  1  0
 23 69  1  0
 24 70  1  0
 27 71  1  0
 27 72  1  0
 27 73  1  0
 29 74  1  0
 32 75  1  0
 33 76  1  0
M  CHG  4   6   1  14   1  18   1  26   1
M  END
>  <UniqueID>  (20) 
20

>  <SMILES>  (20) 
CCNCC[NH2+]c1c2cc(OCC[N+]3(C)CC[N+](C)(C)CC3)ccc2[n+](C)c2cc(Br)ccc12

>  <Energy>  (20) 
133.17787004180343

>  <Genealogy>  (20) 
CCNCC[NH2+]c1c2cc(OCC[N+]3(C)CC[N+](C)(C)CC3)ccc2[n+](C)c2cc(Br)ccc12 (protonated)
CCNCC[NH2+]c1c2cc(OCC[N+]3(C)CC[N+](C)(C)CC3)ccc2[n+](C)c2cc(Br)ccc12 (3D coordinates assigned)
CCNCC[NH2+]c1c2cc(OCC[N+]3(C)CC[N+](C)(C)CC3)ccc2[n+](C)c2cc(Br)ccc12 (nonaromatic ring conformer: 133.17787004180343 kcal/mol)

>  <smiles>  (20) 
CCNCCNc1c2cc(OCC[N+]3(C)CC[N+](C)(C)CC3)ccc2[n+](C)c2cc(Br)ccc12

>  <score_type>  (20) 
oracle

>  <origin>  (20) 
adg

>  <m_score__min__energy>  (20) 
-2.6800000000000002

>  <m_primary>  (20) 
energy

$$$$
21:0
     RDKit          3D

 54 56  0  0  0  0  0  0  0  0999 V2000
   57.8970   32.2780   42.5120 C   0  0  0  0  0  0  0  0  0  0  0  0
   57.3970   32.3970   43.9490 C   0  0  0  0  0  0  0  0  0  0  0  0
   57.5560   33.8190   44.5040 C   0  0  0  0  0  0  0  0  0  0  0  0
   58.4540   33.8440   45.7020 C   0  0  0  0  0  0  0  0  0  0  0  0
   57.9930   33.8160   46.9790 N   0  0  0  0  0  0  0  0  0  0  0  0
   59.1490   33.8140   47.6620 C   0  0  0  0  0  0  0  0  0  0  0  0
   59.2630   33.8080   49.0050 N   0  0  0  0  0  0  0  0  0  0  0  0
   60.5010   33.8350   49.5750 C   0  0  0  0  0  0  0  0  0  0  0  0
   60.5700   33.8250   51.0770 C   0  0  0  0  0  0  0  0  0  0  0  0
   61.6750   33.8710   48.7520 C   0  0  0  0  0  0  0  0  0  0  0  0
   63.0610   34.0230   49.3690 C   0  0  0  0  0  0  0  0  0  0  0  0
   63.8310   32.6930   49.4410 C   0  0  0  0  0  0  0  0  0  0  0  0
   63.1270   31.5900   48.7040 C   0  0  0  0  0  0  0  0  0  0  0  0
   63.5270   31.2620   47.5550 O   0  0  0  0  0  0  0  0  0  0  0  0
   61.9690   30.9690   49.2870 N   0  0  0  0  0  0  0  0  0  0  0  0
   61.1070   30.0570   48.5870 C   0  0  0  0  0  0  0  0  0  0  0  0
   60.7040   28.8390   49.1610 C   0  0  0  0  0  0  0  0  0  0  0  0
   59.8500   27.9810   48.4620 C   0  0  0  0  0  0  0  0  0  0  0  0
   59.3730   28.3390   47.1980 C   0  0  0  0  0  0  0  0  0  0  0  0
   59.7310   29.5720   46.6300 C   0  0  0  0  0  0  0  0  0  0  0  0
   59.2120   29.9630   45.2710 C   0  0  0  0  0  0  0  0  0  0  0  0
   57.9170   29.2230   44.9490 C   0  0  0  0  0  0  0  0  0  0  0  0
   60.6050   30.4220   47.3260 C   0  0  0  0  0  0  0  0  0  0  0  0
   61.4930   33.8360   47.3360 C   0  0  0  0  0  0  0  0  0  0  0  0
   62.6390   33.8930   46.3540 C   0  0  0  0  0  0  0  0  0  0  0  0
   60.2150   33.8270   46.8700 N   0  0  0  0  0  0  0  0  0  0  0  0
   59.8050   33.8460   45.6190 N   0  0  0  0  0  0  0  0  0  0  0  0
   58.9671   32.0233   42.5160 H   0  0  0  0  0  0  0  0  0  0  0  0
   57.3342   31.4887   41.9921 H   0  0  0  0  0  0  0  0  0  0  0  0
   57.7501   33.2362   41.9921 H   0  0  0  0  0  0  0  0  0  0  0  0
   56.3320   32.1231   43.9770 H   0  0  0  0  0  0  0  0  0  0  0  0
   58.0013   31.7222   44.5730 H   0  0  0  0  0  0  0  0  0  0  0  0
   57.9859   34.4619   43.7218 H   0  0  0  0  0  0  0  0  0  0  0  0
   56.5638   34.1830   44.8091 H   0  0  0  0  0  0  0  0  0  0  0  0
   59.5616   33.9711   51.4914 H   0  0  0  0  0  0  0  0  0  0  0  0
   60.9707   32.8594   51.4192 H   0  0  0  0  0  0  0  0  0  0  0  0
   61.2283   34.6371   51.4192 H   0  0  0  0  0  0  0  0  0  0  0  0
   63.6409   34.7322   48.7601 H   0  0  0  0  0  0  0  0  0  0  0  0
   62.9269   34.3841   50.3994 H   0  0  0  0  0  0  0  0  0  0  0  0
   64.8274   32.8359   48.9974 H   0  0  0  0  0  0  0  0  0  0  0  0
   63.9024   32.4007   50.4990 H   0  0  0  0  0  0  0  0  0  0  0  0
   61.6250   31.3520   50.1960 H   0  0  0  0  0  0  0  0  0  0  0  0
   61.0616   28.5601   50.1632 H   0  0  0  0  0  0  0  0  0  0  0  0
   59.5524   27.0207   48.9084 H   0  0  0  0  0  0  0  0  0  0  0  0
   58.7146   27.6521   46.6461 H   0  0  0  0  0  0  0  0  0  0  0  0
   59.0210   31.0462   45.2564 H   0  0  0  0  0  0  0  0  0  0  0  0
   59.9664   29.6957   44.5165 H   0  0  0  0  0  0  0  0  0  0  0  0
   57.4158   28.9366   45.8854 H   0  0  0  0  0  0  0  0  0  0  0  0
   57.2552   29.8793   44.3648 H   0  0  0  0  0  0  0  0  0  0  0  0
   58.1464   28.3197   44.3648 H   0  0  0  0  0  0  0  0  0  0  0  0
   60.8999   31.3833   46.8800 H   0  0  0  0  0  0  0  0  0  0  0  0
   63.5907   33.9403   46.9035 H   0  0  0  0  0  0  0  0  0  0  0  0
   62.6251   32.9931   45.7216 H   0  0  0  0  0  0  0  0  0  0  0  0
   62.5359   34.7871   45.7216 H   0  0  0  0  0  0  0  0  0  0  0  0
  1  2  1  0
  2  3  1  0
  3  4  1  0
  4  5  1  0
  5  6  2  0
  6  7  1  0
  7  8  2  0
  8  9  1  0
  8 10  1  0
 10 11  1  0
 11 12  1  0
 12 13  1  0
 13 14  2  0
 13 15  1  0
 15 16  1  0
 16 17  2  0
 17 18  1  0
 18 19  2  0
 19 20  1  0
 20 21  1  0
 21 22  1  0
 20 23  2  0
 10 24  2  0
 24 25  1  0
 24 26  1  0
 26 27  1  0
 27  4  2  0
 26  6  1  0
 23 16  1  0
  1 28  1  0
  1 29  1  0
  1 30  1  0
  2 31  1  0
  2 32  1  0
  3 33  1  0
  3 34  1  0
  9 35  1  0
  9 36  1  0
  9 37  1  0
 11 38  1  0
 11 39  1  0
 12 40  1  0
 12 41  1  0
 15 42  1  0
 17 43  1  0
 18 44  1  0
 19 45  1  0
 21 46  1  0
 21 47  1  0
 22 48  1  0
 22 49  1  0
 22 50  1  0
 23 51  1  0
 25 52  1  0
 25 53  1  0
 25 54  1  0
M  END
>  <UniqueID>  (21) 
21

>  <SMILES>  (21) 
CCCc1nc2nc(C)c(CCC(=O)Nc3cccc(CC)c3)c(C)n2n1

>  <Energy>  (21) 
86.38604738294804

>  <Genealogy>  (21) 
CCCc1nc2nc(C)c(CCC(=O)Nc3cccc(CC)c3)c(C)n2n1 (3D coordinates assigned)
CCCc1nc2nc(C)c(CCC(=O)Nc3cccc(CC)c3)c(C)n2n1 (optimized conformer: 86.38604738294804 kcal/mol)

>  <smiles>  (21) 
CCCc1nc2nc(C)c(CCC(=O)Nc3cccc(CC)c3)c(C)n2n1

>  <score_type>  (21) 
oracle

>  <origin>  (21) 
adg

>  <m_score__min__energy>  (21) 
-7.9500000000000002

>  <m_primary>  (21) 
energy

$$$$
22:0
     RDKit          3D

 61 64  0  0  0  0  0  0  0  0999 V2000
   63.3970   33.8410   46.5290 C   0  0  0  0  0  0  0  0  0  0  0  0
   63.4260   32.4430   47.1440 C   0  0  0  0  0  0  0  0  0  0  0  0
   63.7870   32.5000   48.6340 C   0  0  0  0  0  0  0  0  0  0  0  0
   62.6550   33.1520   49.4470 C   0  0  0  0  0  0  0  0  0  0  0  0
   61.6790   32.1640   49.9410 N   0  0  0  0  0  0  0  0  0  0  0  0
   60.4790   32.0990   49.0930 C   0  0  0  0  0  0  0  0  0  0  0  0
   60.6030   30.9680   48.0630 C   0  0  0  0  0  0  0  0  0  0  0  0
   59.7050   31.2130   46.8820 C   0  0  0  0  0  0  0  0  0  0  0  0
   58.9570   30.2750   46.1620 C   0  0  0  0  0  0  0  0  0  0  0  0
   58.8890   28.8280   46.4560 C   0  0  0  0  0  0  0  0  0  0  0  0
   60.0420   28.1190   46.8250 C   0  0  0  0  0  0  0  0  0  0  0  0
   59.9640   26.7570   47.1210 C   0  0  0  0  0  0  0  0  0  0  0  0
   58.7390   26.0890   47.0370 C   0  0  0  0  0  0  0  0  0  0  0  0
   57.5860   26.7760   46.6450 C   0  0  0  0  0  0  0  0  0  0  0  0
   56.3740   26.0750   46.5720 O   0  0  0  0  0  0  0  0  0  0  0  0
   56.0210   25.1700   45.5590 C   0  0  0  0  0  0  0  0  0  0  0  0
   54.7510   24.5860   45.5910 C   0  0  0  0  0  0  0  0  0  0  0  0
   54.3700   23.6670   44.6070 C   0  0  0  0  0  0  0  0  0  0  0  0
   55.2630   23.3190   43.5910 C   0  0  0  0  0  0  0  0  0  0  0  0
   56.5390   23.8840   43.5590 C   0  0  0  0  0  0  0  0  0  0  0  0
   56.9240   24.8010   44.5430 C   0  0  0  0  0  0  0  0  0  0  0  0
   57.6610   28.1540   46.3750 C   0  0  0  0  0  0  0  0  0  0  0  0
   58.2330   30.8940   45.1900 N   0  0  0  0  0  0  0  0  0  0  0  0
   57.2980   30.2710   44.2510 C   0  0  0  0  0  0  0  0  0  0  0  0
   58.5000   32.2120   45.3050 C   0  0  0  0  0  0  0  0  0  0  0  0
   57.9670   33.2690   44.5590 C   0  0  0  0  0  0  0  0  0  0  0  0
   58.3820   34.5750   44.8710 C   0  0  0  0  0  0  0  0  0  0  0  0
   59.3050   34.8030   45.9130 C   0  0  0  0  0  0  0  0  0  0  0  0
   59.8220   33.7270   46.6540 C   0  0  0  0  0  0  0  0  0  0  0  0
   59.3990   32.4390   46.3190 C   0  0  0  0  0  0  0  0  0  0  0  0
   63.3814   34.5940   47.3307 H   0  0  0  0  0  0  0  0  0  0  0  0
   64.2923   33.9865   45.9067 H   0  0  0  0  0  0  0  0  0  0  0  0
   62.4964   33.9492   45.9067 H   0  0  0  0  0  0  0  0  0  0  0  0
   62.4338   31.9813   47.0326 H   0  0  0  0  0  0  0  0  0  0  0  0
   64.1909   31.8488   46.6227 H   0  0  0  0  0  0  0  0  0  0  0  0
   63.9536   31.4775   49.0039 H   0  0  0  0  0  0  0  0  0  0  0  0
   64.6987   33.1040   48.7526 H   0  0  0  0  0  0  0  0  0  0  0  0
   63.0948   33.6757   50.3085 H   0  0  0  0  0  0  0  0  0  0  0  0
   62.1218   33.8479   48.7826 H   0  0  0  0  0  0  0  0  0  0  0  0
   62.1420   31.2240   49.9330 H   0  0  0  0  0  0  0  0  0  0  0  0
   61.4100   32.3860   50.9290 H   0  0  0  0  0  0  0  0  0  0  0  0
   59.5987   31.9155   49.7265 H   0  0  0  0  0  0  0  0  0  0  0  0
   60.3719   33.0542   48.5581 H   0  0  0  0  0  0  0  0  0  0  0  0
   61.6453   30.9100   47.7163 H   0  0  0  0  0  0  0  0  0  0  0  0
   60.3026   30.0241   48.5415 H   0  0  0  0  0  0  0  0  0  0  0  0
   61.0103   28.6378   46.8812 H   0  0  0  0  0  0  0  0  0  0  0  0
   60.8688   26.2081   47.4211 H   0  0  0  0  0  0  0  0  0  0  0  0
   58.6818   25.0178   47.2804 H   0  0  0  0  0  0  0  0  0  0  0  0
   54.0475   24.8505   46.3942 H   0  0  0  0  0  0  0  0  0  0  0  0
   53.3661   23.2181   44.6336 H   0  0  0  0  0  0  0  0  0  0  0  0
   54.9607   22.5995   42.8158 H   0  0  0  0  0  0  0  0  0  0  0  0
   57.2424   23.6081   42.7595 H   0  0  0  0  0  0  0  0  0  0  0  0
   57.9346   25.2349   44.5231 H   0  0  0  0  0  0  0  0  0  0  0  0
   56.7512   28.7071   46.0985 H   0  0  0  0  0  0  0  0  0  0  0  0
   56.5104   29.7462   44.8116 H   0  0  0  0  0  0  0  0  0  0  0  0
   56.8426   31.0468   43.6180 H   0  0  0  0  0  0  0  0  0  0  0  0
   57.8386   29.5520   43.6180 H   0  0  0  0  0  0  0  0  0  0  0  0
   57.2438   33.0831   43.7513 H   0  0  0  0  0  0  0  0  0  0  0  0
   57.9841   35.4257   44.2983 H   0  0  0  0  0  0  0  0  0  0  0  0
   59.6221   35.8300   46.1470 H   0  0  0  0  0  0  0  0  0  0  0  0
   60.5377   33.8940   47.4725 H   0  0  0  0  0  0  0  0  0  0  0  0
  1  2  1  0
  2  3  1  0
  3  4  1  0
  4  5  1  0
  5  6  1  0
  6  7  1  0
  7  8  1  0
  8  9  2  0
  9 10  1  0
 10 11  2  0
 11 12  1  0
 12 13  2  0
 13 14  1  0
 14 15  1  0
 15 16  1  0
 16 17  2  0
 17 18  1  0
 18 19  2  0
 19 20  1  0
 20 21  2  0
 14 22  2  0
  9 23  1  0
 23 24  1  0
 23 25  1  0
 25 26  2  0
 26 27  1  0
 27 28  2  0
 28 29  1  0
 29 30  2  0
 30  8  1  0
 22 10  1  0
 30 25  1  0
 21 16  1  0
  1 31  1  0
  1 32  1  0
  1 33  1  0
  2 34  1  0
  2 35  1  0
  3 36  1  0
  3 37  1  0
  4 38  1  0
  4 39  1  0
  5 40  1  0
  5 41  1  0
  6 42  1  0
  6 43  1  0
  7 44  1  0
  7 45  1  0
 11 46  1  0
 12 47  1  0
 13 48  1  0
 17 49  1  0
 18 50  1  0
 19 51  1  0
 20 52  1  0
 21 53  1  0
 22 54  1  0
 24 55  1  0
 24 56  1  0
 24 57  1  0
 26 58  1  0
 27 59  1  0
 28 60  1  0
 29 61  1  0
M  CHG  1   5   1
M  END
>  <UniqueID>  (22) 
22

>  <SMILES>  (22) 
CCCC[NH2+]CCc1c(-c2cccc(Oc3ccccc3)c2)n(C)c2ccccc12

>  <Energy>  (22) 
100.42179550277098

>  <Genealogy>  (22) 
CCCC[NH2+]CCc1c(-c2cccc(Oc3ccccc3)c2)n(C)c2ccccc12 (protonated)
CCCC[NH2+]CCc1c(-c2cccc(Oc3ccccc3)c2)n(C)c2ccccc12 (3D coordinates assigned)
CCCC[NH2+]CCc1c(-c2cccc(Oc3ccccc3)c2)n(C)c2ccccc12 (optimized conformer: 100.42179550277098 kcal/mol)

>  <smiles>  (22) 
CCCCNCCc1c(-c2cccc(Oc3ccccc3)c2)n(C)c2ccccc12

>  <score_type>  (22) 
oracle

>  <origin>  (22) 
adg

>  <m_score__min__energy>  (22) 
-7.5599999999999996

>  <m_primary>  (22) 
energy

$$$$
23:0
     RDKit          3D

 74 77  0  0  0  0  0  0  0  0999 V2000
   62.6730   30.1540   50.8710 C   0  0  0  0  0  0  0  0  0  0  0  0
   62.8820   31.3450   49.9350 C   0  0  0  0  0  0  0  0  0  0  0  0
   61.9470   31.3170   48.7860 N   0  0  0  0  0  0  0  0  0  0  0  0
   62.6090   31.4110   47.4570 C   0  0  0  0  0  0  0  0  0  0  0  0
   63.2900   32.7570   47.1620 C   0  0  0  0  0  0  0  0  0  0  0  0
   61.0160   30.1730   48.8790 C   0  0  0  0  0  0  0  0  0  0  0  0
   59.6420   30.6060   48.6230 N   0  0  0  0  0  0  0  0  0  0  0  0
   59.1340   30.6390   47.2820 C   0  0  0  0  0  0  0  0  0  0  0  0
   58.8600   29.4230   46.6310 C   0  0  0  0  0  0  0  0  0  0  0  0
   59.2140   28.1910   47.2250 C   0  0  0  0  0  0  0  0  0  0  0  0
   58.9050   26.9840   46.6040 C   0  0  0  0  0  0  0  0  0  0  0  0
   58.2240   26.9810   45.3940 C   0  0  0  0  0  0  0  0  0  0  0  0
   57.8670   28.1840   44.7860 C   0  0  0  0  0  0  0  0  0  0  0  0
   58.2010   29.4310   45.3740 C   0  0  0  0  0  0  0  0  0  0  0  0
   57.8640   30.6290   44.7770 N   0  0  0  0  0  0  0  0  0  0  0  0
   57.4080   30.6520   43.3690 C   0  0  0  0  0  0  0  0  0  0  0  0
   57.9860   31.8140   45.4800 C   0  0  0  0  0  0  0  0  0  0  0  0
   57.3550   32.9990   45.0340 C   0  0  0  0  0  0  0  0  0  0  0  0
   57.5380   34.2050   45.6970 C   0  0  0  0  0  0  0  0  0  0  0  0
   58.3860   34.2770   46.7930 C   0  0  0  0  0  0  0  0  0  0  0  0
   59.0160   33.1270   47.2880 C   0  0  0  0  0  0  0  0  0  0  0  0
   60.0540   33.2780   48.2740 N   0  0  0  0  0  0  0  0  0  0  0  0
   59.9790   34.2170   49.3950 C   0  0  0  0  0  0  0  0  0  0  0  0
   60.5340   33.5840   50.6750 C   0  0  0  0  0  0  0  0  0  0  0  0
   59.5820   33.7870   51.8840 C   0  0  0  0  0  0  0  0  0  0  0  0
   59.0100   32.5330   52.4760 N   0  0  0  0  0  0  0  0  0  0  0  0
   59.1850   32.5300   53.9540 C   0  0  0  0  0  0  0  0  0  0  0  0
   57.5490   32.4140   52.1500 C   0  0  0  0  0  0  0  0  0  0  0  0
   57.3040   31.5880   50.8720 C   0  0  0  0  0  0  0  0  0  0  0  0
   57.7650   30.2490   50.9710 O   0  0  0  0  0  0  0  0  0  0  0  0
   58.9000   30.0990   51.8140 C   0  0  0  0  0  0  0  0  0  0  0  0
   59.7690   31.3690   51.9100 C   0  0  0  0  0  0  0  0  0  0  0  0
   58.7330   31.8600   46.6920 C   0  0  0  0  0  0  0  0  0  0  0  0
   62.7326   30.4937   51.9155 H   0  0  0  0  0  0  0  0  0  0  0  0
   61.6834   29.7110   50.6854 H   0  0  0  0  0  0  0  0  0  0  0  0
   63.4527   29.4005   50.6854 H   0  0  0  0  0  0  0  0  0  0  0  0
   62.7216   32.2744   50.5012 H   0  0  0  0  0  0  0  0  0  0  0  0
   63.9075   31.2921   49.5407 H   0  0  0  0  0  0  0  0  0  0  0  0
   63.3739   30.6225   47.4007 H   0  0  0  0  0  0  0  0  0  0  0  0
   61.8106   31.3009   46.7084 H   0  0  0  0  0  0  0  0  0  0  0  0
   63.5423   33.2557   48.1094 H   0  0  0  0  0  0  0  0  0  0  0  0
   64.2089   32.5838   46.5827 H   0  0  0  0  0  0  0  0  0  0  0  0
   62.6061   33.3948   46.5827 H   0  0  0  0  0  0  0  0  0  0  0  0
   61.3004   29.4139   48.1355 H   0  0  0  0  0  0  0  0  0  0  0  0
   61.0721   29.7513   49.8934 H   0  0  0  0  0  0  0  0  0  0  0  0
   59.0480   30.9900   49.3940 H   0  0  0  0  0  0  0  0  0  0  0  0
   59.7406   28.1854   48.1907 H   0  0  0  0  0  0  0  0  0  0  0  0
   59.2002   26.0331   47.0717 H   0  0  0  0  0  0  0  0  0  0  0  0
   57.9652   26.0261   44.9133 H   0  0  0  0  0  0  0  0  0  0  0  0
   57.3167   28.1657   43.8337 H   0  0  0  0  0  0  0  0  0  0  0  0
   56.3098   30.7074   43.3401 H   0  0  0  0  0  0  0  0  0  0  0  0
   57.8329   31.5299   42.8603 H   0  0  0  0  0  0  0  0  0  0  0  0
   57.7424   29.7358   42.8603 H   0  0  0  0  0  0  0  0  0  0  0  0
   56.7074   32.9642   44.1455 H   0  0  0  0  0  0  0  0  0  0  0  0
   57.0093   35.1060   45.3525 H   0  0  0  0  0  0  0  0  0  0  0  0
   58.5658   35.2474   47.2787 H   0  0  0  0  0  0  0  0  0  0  0  0
   60.8940   32.6590   48.2160 H   0  0  0  0  0  0  0  0  0  0  0  0
   60.5666   35.1148   49.1529 H   0  0  0  0  0  0  0  0  0  0  0  0
   58.9246   34.4821   49.5621 H   0  0  0  0  0  0  0  0  0  0  0  0
   60.6704   32.5054   50.5075 H   0  0  0  0  0  0  0  0  0  0  0  0
   61.4904   34.0743   50.9095 H   0  0  0  0  0  0  0  0  0  0  0  0
   60.1436   34.3083   52.6732 H   0  0  0  0  0  0  0  0  0  0  0  0
   58.7235   34.3568   51.4988 H   0  0  0  0  0  0  0  0  0  0  0  0
   58.1984   32.5469   54.4401 H   0  0  0  0  0  0  0  0  0  0  0  0
   59.7276   31.6224   54.2571 H   0  0  0  0  0  0  0  0  0  0  0  0
   59.7584   33.4184   54.2571 H   0  0  0  0  0  0  0  0  0  0  0  0
   57.0367   31.9250   52.9917 H   0  0  0  0  0  0  0  0  0  0  0  0
   57.1574   33.4274   51.9778 H   0  0  0  0  0  0  0  0  0  0  0  0
   56.2229   31.5708   50.6694 H   0  0  0  0  0  0  0  0  0  0  0  0
   57.8706   32.0681   50.0605 H   0  0  0  0  0  0  0  0  0  0  0  0
   58.5510   29.8391   52.8243 H   0  0  0  0  0  0  0  0  0  0  0  0
   59.5278   29.3108   51.3729 H   0  0  0  0  0  0  0  0  0  0  0  0
   60.6322   31.1595   52.5589 H   0  0  0  0  0  0  0  0  0  0  0  0
   60.0893   31.6371   50.8924 H   0  0  0  0  0  0  0  0  0  0  0  0
  1  2  1  0
  2  3  1  0
  3  4  1  0
  4  5  1  0
  3  6  1  0
  6  7  1  0
  7  8  1  0
  8  9  2  0
  9 10  1  0
 10 11  2  0
 11 12  1  0
 12 13  2  0
 13 14  1  0
 14 15  2  0
 15 16  1  0
 15 17  1  0
 17 18  2  0
 18 19  1  0
 19 20  2  0
 20 21  1  0
 21 22  1  0
 22 23  1  0
 23 24  1  0
 24 25  1  0
 25 26  1  0
 26 27  1  0
 26 28  1  0
 28 29  1  0
 29 30  1  0
 30 31  1  0
 31 32  1  0
 21 33  2  0
 33  8  1  0
 14  9  1  0
 33 17  1  0
 32 26  1  0
  1 34  1  0
  1 35  1  0
  1 36  1  0
  2 37  1  0
  2 38  1  0
  4 39  1  0
  4 40  1  0
  5 41  1  0
  5 42  1  0
  5 43  1  0
  6 44  1  0
  6 45  1  0
  7 46  1  0
 10 47  1  0
 11 48  1  0
 12 49  1  0
 13 50  1  0
 16 51  1  0
 16 52  1  0
 16 53  1  0
 18 54  1  0
 19 55  1  0
 20 56  1  0
 22 57  1  0
 23 58  1  0
 23 59  1  0
 24 60  1  0
 24 61  1  0
 25 62  1  0
 25 63  1  0
 27 64  1  0
 27 65  1  0
 27 66  1  0
 28 67  1  0
 28 68  1  0
 29 69  1  0
 29 70  1  0
 31 71  1  0
 31 72  1  0
 32 73  1  0
 32 74  1  0
M  CHG  2  15   1  26   1
M  END
>  <UniqueID>  (23) 
23

>  <SMILES>  (23) 
CCN(CC)CNc1c2ccccc2[n+](C)c2cccc(NCCC[N+]3(C)CCOCC3)c12

>  <Energy>  (23) 
132.70054362562004

>  <Genealogy>  (23) 
CCN(CC)CNc1c2ccccc2[n+](C)c2cccc(NCCC[N+]3(C)CCOCC3)c12 (3D coordinates assigned)
CCN(CC)CNc1c2ccccc2[n+](C)c2cccc(NCCC[N+]3(C)CCOCC3)c12 (nonaromatic ring conformer: 132.70054362562004 kcal/mol)

>  <smiles>  (23) 
CCN(CC)CNc1c2ccccc2[n+](C)c2cccc(NCCC[N+]3(C)CCOCC3)c12

>  <score_type>  (23) 
oracle

>  <origin>  (23) 
adg

>  <m_score__min__energy>  (23) 
-5.1500000000000004

>  <m_primary>  (23) 
energy

$$$$
