0:0
     RDKit          3D

 50 50  0  0  0  0  0  0  0  0999 V2000
   58.4590   28.0730   44.8750 C   0  0  0  0  0  0  0  0  0  0  0  0
   56.9980   28.4570   45.0970 C   0  0  0  0  0  0  0  0  0  0  0  0
   56.8590   29.9300   45.1810 N   0  0  0  0  0  0  0  0  0  0  0  0
   55.9620   30.4400   44.1190 C   0  0  0  0  0  0  0  0  0  0  0  0
   56.2920   29.7840   42.7800 C   0  0  0  0  0  0  0  0  0  0  0  0
   58.1810   30.6070   45.1490 C   0  0  0  0  0  0  0  0  0  0  0  0
   58.2470   31.6920   46.2290 C   0  0  0  0  0  0  0  0  0  0  0  0
   57.2960   32.7270   45.9850 O   0  0  0  0  0  0  0  0  0  0  0  0
   57.6480   34.0100   45.5440 C   0  0  0  0  0  0  0  0  0  0  0  0
   56.8490   34.6860   44.8400 O   0  0  0  0  0  0  0  0  0  0  0  0
   58.9850   34.5980   45.8980 C   0  0  0  0  0  0  0  0  0  0  0  0
   59.2400   34.6190   47.4190 C   0  0  0  0  0  0  0  0  0  0  0  0
   60.6240   34.1830   47.7610 N   0  0  0  0  0  0  0  0  0  0  0  0
   60.7190   33.4860   49.0710 C   0  0  0  0  0  0  0  0  0  0  0  0
   62.1330   33.3270   49.7050 C   0  0  0  0  0  0  0  0  0  0  0  0
   63.3300   33.9910   49.0050 C   0  0  0  0  0  0  0  0  0  0  0  0
   63.7040   33.4140   47.6230 C   0  0  0  0  0  0  0  0  0  0  0  0
   62.8210   33.8650   46.4560 C   0  0  0  0  0  0  0  0  0  0  0  0
   61.3310   33.5150   46.6250 C   0  0  0  0  0  0  0  0  0  0  0  0
   58.9557   27.9425   45.8478 H   0  0  0  0  0  0  0  0  0  0  0  0
   58.5086   27.1313   44.3087 H   0  0  0  0  0  0  0  0  0  0  0  0
   58.9652   28.8686   44.3087 H   0  0  0  0  0  0  0  0  0  0  0  0
   56.3932   28.0830   44.2578 H   0  0  0  0  0  0  0  0  0  0  0  0
   56.6509   28.0110   46.0407 H   0  0  0  0  0  0  0  0  0  0  0  0
   54.9193   30.2133   44.3860 H   0  0  0  0  0  0  0  0  0  0  0  0
   56.1018   31.5272   44.0267 H   0  0  0  0  0  0  0  0  0  0  0  0
   56.7799   28.8142   42.9572 H   0  0  0  0  0  0  0  0  0  0  0  0
   55.3646   29.6290   42.2092 H   0  0  0  0  0  0  0  0  0  0  0  0
   56.9693   30.4363   42.2092 H   0  0  0  0  0  0  0  0  0  0  0  0
   58.9732   29.8656   45.3300 H   0  0  0  0  0  0  0  0  0  0  0  0
   58.3211   31.0737   44.1628 H   0  0  0  0  0  0  0  0  0  0  0  0
   58.0368   31.2361   47.2078 H   0  0  0  0  0  0  0  0  0  0  0  0
   59.2535   32.1356   46.2134 H   0  0  0  0  0  0  0  0  0  0  0  0
   59.7720   33.9984   45.4171 H   0  0  0  0  0  0  0  0  0  0  0  0
   58.9950   35.6395   45.5442 H   0  0  0  0  0  0  0  0  0  0  0  0
   59.0889   35.6435   47.7900 H   0  0  0  0  0  0  0  0  0  0  0  0
   58.5370   33.9164   47.8903 H   0  0  0  0  0  0  0  0  0  0  0  0
   61.1730   35.0620   47.9320 H   0  0  0  0  0  0  0  0  0  0  0  0
   60.0989   34.0456   49.7868 H   0  0  0  0  0  0  0  0  0  0  0  0
   60.3898   32.4572   48.8634 H   0  0  0  0  0  0  0  0  0  0  0  0
   62.0811   33.7416   50.7225 H   0  0  0  0  0  0  0  0  0  0  0  0
   62.3416   32.2495   49.6308 H   0  0  0  0  0  0  0  0  0  0  0  0
   63.0950   35.0575   48.8732 H   0  0  0  0  0  0  0  0  0  0  0  0
   64.1983   33.8013   49.6531 H   0  0  0  0  0  0  0  0  0  0  0  0
   64.7386   33.7138   47.4000 H   0  0  0  0  0  0  0  0  0  0  0  0
   63.5633   32.3260   47.7034 H   0  0  0  0  0  0  0  0  0  0  0  0
   62.9105   34.9568   46.3566 H   0  0  0  0  0  0  0  0  0  0  0  0
   63.1745   33.3275   45.5638 H   0  0  0  0  0  0  0  0  0  0  0  0
   60.8126   33.7938   45.6957 H   0  0  0  0  0  0  0  0  0  0  0  0
   61.3036   32.4389   46.8512 H   0  0  0  0  0  0  0  0  0  0  0  0
  1  2  1  0
  2  3  1  0
  3  4  1  0
  4  5  1  0
  3  6  1  0
  6  7  1  0
  7  8  1  0
  8  9  1  0
  9 10  2  0
  9 11  1  0
 11 12  1  0
 12 13  1  0
 13 14  1  0
 14 15  1  0
 15 16  1  0
 16 17  1  0
 17 18  1  0
 18 19  1  0
 19 13  1  0
  1 20  1  0
  1 21  1  0
  1 22  1  0
  2 23  1  0
  2 24  1  0
  4 25  1  0
  4 26  1  0
  5 27  1  0
  5 28  1  0
  5 29  1  0
  6 30  1  0
  6 31  1  0
  7 32  1  0
  7 33  1  0
 11 34  1  0
 11 35  1  0
 12 36  1  0
 12 37  1  0
 13 38  1  0
 14 39  1  0
 14 40  1  0
 15 41  1  0
 15 42  1  0
 16 43  1  0
 16 44  1  0
 17 45  1  0
 17 46  1  0
 18 47  1  0
 18 48  1  0
 19 49  1  0
 19 50  1  0
M  CHG  1  13   1
M  END
>  <UniqueID>  (1) 
1

>  <SMILES>  (1) 
CCN(CC)CCOC(=O)CC[NH+]1CCCCCC1

>  <Energy>  (1) 
61.93586767698818

>  <Genealogy>  (1) 
CCN(CC)CCOC(=O)CC[NH+]1CCCCCC1 (protonated)
CCN(CC)CCOC(=O)CC[NH+]1CCCCCC1 (3D coordinates assigned)
CCN(CC)CCOC(=O)CC[NH+]1CCCCCC1 (nonaromatic ring conformer: 61.93586767698818 kcal/mol)

>  <smiles>  (1) 
CCN(CC)CCOC(=O)CCN1CCCCCC1

>  <score_type>  (1) 
oracle

>  <origin>  (1) 
adg

>  <m_score__min__energy>  (1) 
-2.1499999999999999

>  <m_primary>  (1) 
energy

$$$$
1:0
     RDKit          3D

 55 57  0  0  0  0  0  0  0  0999 V2000
   56.7390   31.4630   52.1440 C   0  0  0  0  0  0  0  0  0  0  0  0
   57.2110   30.3990   51.3220 O   0  0  0  0  0  0  0  0  0  0  0  0
   58.3400   30.4790   50.4930 C   0  0  0  0  0  0  0  0  0  0  0  0
   58.8880   31.7390   50.2400 C   0  0  0  0  0  0  0  0  0  0  0  0
   60.0080   31.8770   49.4200 C   0  0  0  0  0  0  0  0  0  0  0  0
   60.6060   30.7460   48.8340 C   0  0  0  0  0  0  0  0  0  0  0  0
   61.7340   30.8500   48.0010 O   0  0  0  0  0  0  0  0  0  0  0  0
   62.2970   32.0780   47.5540 C   0  0  0  0  0  0  0  0  0  0  0  0
   60.0620   29.4700   49.0850 C   0  0  0  0  0  0  0  0  0  0  0  0
   60.6770   28.2420   48.4580 C   0  0  0  0  0  0  0  0  0  0  0  0
   60.0230   27.9380   47.1690 N   0  0  0  0  0  0  0  0  0  0  0  0
   58.5580   27.8130   47.3400 C   0  0  0  0  0  0  0  0  0  0  0  0
   57.8230   28.0590   46.0170 C   0  0  0  0  0  0  0  0  0  0  0  0
   58.0090   29.4570   45.5520 N   0  0  0  0  0  0  0  0  0  0  0  0
   57.7170   29.5560   44.0960 C   0  0  0  0  0  0  0  0  0  0  0  0
   56.9010   30.8070   43.7370 C   0  0  0  0  0  0  0  0  0  0  0  0
   56.6470   31.5950   44.8960 O   0  0  0  0  0  0  0  0  0  0  0  0
   57.4950   32.6030   45.3750 C   0  0  0  0  0  0  0  0  0  0  0  0
   58.1610   33.4100   44.4440 C   0  0  0  0  0  0  0  0  0  0  0  0
   59.0180   34.4280   44.8720 C   0  0  0  0  0  0  0  0  0  0  0  0
   59.2160   34.6470   46.2380 C   0  0  0  0  0  0  0  0  0  0  0  0
   58.5580   33.8490   47.1760 C   0  0  0  0  0  0  0  0  0  0  0  0
   57.6990   32.8290   46.7520 C   0  0  0  0  0  0  0  0  0  0  0  0
   59.3580   30.0000   45.8920 C   0  0  0  0  0  0  0  0  0  0  0  0
   60.4110   28.8960   46.1010 C   0  0  0  0  0  0  0  0  0  0  0  0
   58.9330   29.3440   49.9120 C   0  0  0  0  0  0  0  0  0  0  0  0
   56.8601   31.1899   53.2027 H   0  0  0  0  0  0  0  0  0  0  0  0
   57.3172   32.3744   51.9319 H   0  0  0  0  0  0  0  0  0  0  0  0
   55.6753   31.6460   51.9319 H   0  0  0  0  0  0  0  0  0  0  0  0
   58.4314   32.6317   50.6923 H   0  0  0  0  0  0  0  0  0  0  0  0
   60.4265   32.8764   49.2302 H   0  0  0  0  0  0  0  0  0  0  0  0
   62.5778   32.6906   48.4234 H   0  0  0  0  0  0  0  0  0  0  0  0
   63.1906   31.8721   46.9465 H   0  0  0  0  0  0  0  0  0  0  0  0
   61.5578   32.6207   46.9465 H   0  0  0  0  0  0  0  0  0  0  0  0
   61.7488   28.4208   48.2871 H   0  0  0  0  0  0  0  0  0  0  0  0
   60.5392   27.3880   49.1375 H   0  0  0  0  0  0  0  0  0  0  0  0
   58.3236   26.7996   47.6978 H   0  0  0  0  0  0  0  0  0  0  0  0
   58.2264   28.5675   48.0685 H   0  0  0  0  0  0  0  0  0  0  0  0
   58.2173   27.3715   45.2541 H   0  0  0  0  0  0  0  0  0  0  0  0
   56.7488   27.8850   46.1774 H   0  0  0  0  0  0  0  0  0  0  0  0
   57.3030   30.0340   46.0700 H   0  0  0  0  0  0  0  0  0  0  0  0
   58.6700   29.5886   43.5477 H   0  0  0  0  0  0  0  0  0  0  0  0
   57.1165   28.6774   43.8178 H   0  0  0  0  0  0  0  0  0  0  0  0
   57.4646   31.4084   43.0085 H   0  0  0  0  0  0  0  0  0  0  0  0
   55.9388   30.4894   43.3087 H   0  0  0  0  0  0  0  0  0  0  0  0
   58.0085   33.2414   43.3677 H   0  0  0  0  0  0  0  0  0  0  0  0
   59.5367   35.0569   44.1334 H   0  0  0  0  0  0  0  0  0  0  0  0
   59.8904   35.4483   46.5743 H   0  0  0  0  0  0  0  0  0  0  0  0
   58.7153   34.0226   48.2508 H   0  0  0  0  0  0  0  0  0  0  0  0
   57.1821   32.2025   47.4938 H   0  0  0  0  0  0  0  0  0  0  0  0
   59.6911   30.6525   45.0714 H   0  0  0  0  0  0  0  0  0  0  0  0
   59.2638   30.5510   46.8393 H   0  0  0  0  0  0  0  0  0  0  0  0
   60.5349   28.3429   45.1583 H   0  0  0  0  0  0  0  0  0  0  0  0
   61.3487   29.3810   46.4099 H   0  0  0  0  0  0  0  0  0  0  0  0
   58.5089   28.3479   50.1068 H   0  0  0  0  0  0  0  0  0  0  0  0
  1  2  1  0
  2  3  1  0
  3  4  2  0
  4  5  1  0
  5  6  2  0
  6  7  1  0
  7  8  1  0
  6  9  1  0
  9 10  1  0
 10 11  1  0
 11 12  1  0
 12 13  1  0
 13 14  1  0
 14 15  1  0
 15 16  1  0
 16 17  1  0
 17 18  1  0
 18 19  2  0
 19 20  1  0
 20 21  2  0
 21 22  1  0
 22 23  2  0
 14 24  1  0
 24 25  1  0
  9 26  2  0
 26  3  1  0
 25 11  1  0
 23 18  1  0
  1 27  1  0
  1 28  1  0
  1 29  1  0
  4 30  1  0
  5 31  1  0
  8 32  1  0
  8 33  1  0
  8 34  1  0
 10 35  1  0
 10 36  1  0
 12 37  1  0
 12 38  1  0
 13 39  1  0
 13 40  1  0
 14 41  1  0
 15 42  1  0
 15 43  1  0
 16 44  1  0
 16 45  1  0
 19 46  1  0
 20 47  1  0
 21 48  1  0
 22 49  1  0
 23 50  1  0
 24 51  1  0
 24 52  1  0
 25 53  1  0
 25 54  1  0
 26 55  1  0
M  CHG  1  14   1
M  END
>  <UniqueID>  (2) 
2

>  <SMILES>  (2) 
COc1ccc(OC)c(CN2CC[NH+](CCOc3ccccc3)CC2)c1

>  <Energy>  (2) 
68.46491823847892

>  <Genealogy>  (2) 
COc1ccc(OC)c(CN2CC[NH+](CCOc3ccccc3)CC2)c1 (protonated)
COc1ccc(OC)c(CN2CC[NH+](CCOc3ccccc3)CC2)c1 (3D coordinates assigned)
COc1ccc(OC)c(CN2CC[NH+](CCOc3ccccc3)CC2)c1 (nonaromatic ring conformer: 68.46491823847892 kcal/mol)

>  <smiles>  (2) 
COc1ccc(OC)c(CN2CCN(CCOc3ccccc3)CC2)c1

>  <score_type>  (2) 
oracle

>  <origin>  (2) 
adg

>  <m_score__min__energy>  (2) 
-5.5099999999999998

>  <m_primary>  (2) 
energy

$$$$
2:0
     RDKit          3D

 59 62  0  0  0  0  0  0  0  0999 V2000
   59.7360   33.6640   50.4410 C   0  0  0  0  0  0  0  0  0  0  0  0
   59.9610   32.8320   51.7120 C   0  0  0  0  0  0  0  0  0  0  0  0
   59.4000   31.4570   51.6220 N   0  0  0  0  0  0  0  0  0  0  0  0
   58.2160   31.2510   52.5040 C   0  0  0  0  0  0  0  0  0  0  0  0
   56.8630   31.6200   51.8750 C   0  0  0  0  0  0  0  0  0  0  0  0
   60.4860   30.4620   51.8340 C   0  0  0  0  0  0  0  0  0  0  0  0
   60.4520   29.2790   50.8460 C   0  0  0  0  0  0  0  0  0  0  0  0
   61.4310   29.4430   49.7670 N   0  0  0  0  0  0  0  0  0  0  0  0
   61.7430   30.7380   49.2190 C   0  0  0  0  0  0  0  0  0  0  0  0
   62.8960   31.4240   49.6390 C   0  0  0  0  0  0  0  0  0  0  0  0
   63.6190   31.0170   50.7780 C   0  0  0  0  0  0  0  0  0  0  0  0
   64.8060   31.6550   51.1330 C   0  0  0  0  0  0  0  0  0  0  0  0
   65.2840   32.7140   50.3660 C   0  0  0  0  0  0  0  0  0  0  0  0
   64.5720   33.1460   49.2470 C   0  0  0  0  0  0  0  0  0  0  0  0
   63.3610   32.5170   48.8680 C   0  0  0  0  0  0  0  0  0  0  0  0
   62.6510   32.9320   47.7620 N   0  0  0  0  0  0  0  0  0  0  0  0
   63.3820   33.6080   46.6680 C   0  0  0  0  0  0  0  0  0  0  0  0
   61.3420   32.5170   47.5910 C   0  0  0  0  0  0  0  0  0  0  0  0
   60.9180   31.3260   48.2390 C   0  0  0  0  0  0  0  0  0  0  0  0
   59.6710   30.7660   47.9180 C   0  0  0  0  0  0  0  0  0  0  0  0
   58.8470   31.3510   46.9670 C   0  0  0  0  0  0  0  0  0  0  0  0
   59.1750   32.5920   46.3990 C   0  0  0  0  0  0  0  0  0  0  0  0
   58.2790   33.2490   45.5120 C   0  0  0  0  0  0  0  0  0  0  0  0
   57.0140   32.5930   45.0180 C   0  0  0  0  0  0  0  0  0  0  0  0
   58.5520   34.5640   45.1110 C   0  0  0  0  0  0  0  0  0  0  0  0
   59.6710   35.2320   45.5930 C   0  0  0  0  0  0  0  0  0  0  0  0
   60.5720   34.5800   46.4310 C   0  0  0  0  0  0  0  0  0  0  0  0
   60.3950   33.2230   46.7770 C   0  0  0  0  0  0  0  0  0  0  0  0
   59.4582   34.6912   50.7196 H   0  0  0  0  0  0  0  0  0  0  0  0
   60.6613   33.6828   49.8465 H   0  0  0  0  0  0  0  0  0  0  0  0
   58.9273   33.2139   49.8465 H   0  0  0  0  0  0  0  0  0  0  0  0
   61.0434   32.7564   51.8928 H   0  0  0  0  0  0  0  0  0  0  0  0
   59.4385   33.3440   52.5334 H   0  0  0  0  0  0  0  0  0  0  0  0
   59.0620   31.3360   50.6420 H   0  0  0  0  0  0  0  0  0  0  0  0
   58.1821   30.1884   52.7865 H   0  0  0  0  0  0  0  0  0  0  0  0
   58.3505   31.9277   53.3608 H   0  0  0  0  0  0  0  0  0  0  0  0
   56.1308   31.8197   52.6712 H   0  0  0  0  0  0  0  0  0  0  0  0
   56.9813   32.5187   51.2518 H   0  0  0  0  0  0  0  0  0  0  0  0
   56.5086   30.7857   51.2518 H   0  0  0  0  0  0  0  0  0  0  0  0
   61.4525   30.9760   51.7255 H   0  0  0  0  0  0  0  0  0  0  0  0
   60.3414   30.0415   52.8401 H   0  0  0  0  0  0  0  0  0  0  0  0
   60.6769   28.3516   51.3930 H   0  0  0  0  0  0  0  0  0  0  0  0
   59.4495   29.2386   50.3951 H   0  0  0  0  0  0  0  0  0  0  0  0
   61.8750   28.5920   49.3530 H   0  0  0  0  0  0  0  0  0  0  0  0
   63.2424   30.1868   51.3935 H   0  0  0  0  0  0  0  0  0  0  0  0
   65.3655   31.3218   52.0195 H   0  0  0  0  0  0  0  0  0  0  0  0
   66.2253   33.2112   50.6431 H   0  0  0  0  0  0  0  0  0  0  0  0
   64.9564   33.9867   48.6508 H   0  0  0  0  0  0  0  0  0  0  0  0
   64.1263   34.2963   47.0949 H   0  0  0  0  0  0  0  0  0  0  0  0
   63.8914   32.8558   46.0478 H   0  0  0  0  0  0  0  0  0  0  0  0
   62.6718   34.1746   46.0478 H   0  0  0  0  0  0  0  0  0  0  0  0
   59.3420   29.8489   48.4286 H   0  0  0  0  0  0  0  0  0  0  0  0
   57.9263   30.8364   46.6547 H   0  0  0  0  0  0  0  0  0  0  0  0
   56.4049   32.2771   45.8778 H   0  0  0  0  0  0  0  0  0  0  0  0
   56.4438   33.3090   44.4080 H   0  0  0  0  0  0  0  0  0  0  0  0
   57.2707   31.7144   44.4080 H   0  0  0  0  0  0  0  0  0  0  0  0
   57.8745   35.0716   44.4086 H   0  0  0  0  0  0  0  0  0  0  0  0
   59.8460   36.2808   45.3113 H   0  0  0  0  0  0  0  0  0  0  0  0
   61.4360   35.1316   46.8300 H   0  0  0  0  0  0  0  0  0  0  0  0
  1  2  1  0
  2  3  1  0
  3  4  1  0
  4  5  1  0
  3  6  1  0
  6  7  1  0
  7  8  1  0
  8  9  1  0
  9 10  2  0
 10 11  1  0
 11 12  2  0
 12 13  1  0
 13 14  2  0
 14 15  1  0
 15 16  2  0
 16 17  1  0
 16 18  1  0
 18 19  2  0
 19 20  1  0
 20 21  2  0
 21 22  1  0
 22 23  2  0
 23 24  1  0
 23 25  1  0
 25 26  2  0
 26 27  1  0
 27 28  2  0
 19  9  1  0
 28 22  1  0
 15 10  1  0
 28 18  1  0
  1 29  1  0
  1 30  1  0
  1 31  1  0
  2 32  1  0
  2 33  1  0
  3 34  1  0
  4 35  1  0
  4 36  1  0
  5 37  1  0
  5 38  1  0
  5 39  1  0
  6 40  1  0
  6 41  1  0
  7 42  1  0
  7 43  1  0
  8 44  1  0
 11 45  1  0
 12 46  1  0
 13 47  1  0
 14 48  1  0
 17 49  1  0
 17 50  1  0
 17 51  1  0
 20 52  1  0
 21 53  1  0
 24 54  1  0
 24 55  1  0
 24 56  1  0
 25 57  1  0
 26 58  1  0
 27 59  1  0
M  CHG  2   3   1  16   1
M  END
>  <UniqueID>  (3) 
3

>  <SMILES>  (3) 
CC[NH+](CC)CCNc1c2ccccc2[n+](C)c2c1ccc1c(C)cccc12

>  <Energy>  (3) 
109.9653854895873

>  <Genealogy>  (3) 
CC[NH+](CC)CCNc1c2ccccc2[n+](C)c2c1ccc1c(C)cccc12 (protonated)
CC[NH+](CC)CCNc1c2ccccc2[n+](C)c2c1ccc1c(C)cccc12 (3D coordinates assigned)
CC[NH+](CC)CCNc1c2ccccc2[n+](C)c2c1ccc1c(C)cccc12 (optimized conformer: 109.9653854895873 kcal/mol)

>  <smiles>  (3) 
CCN(CC)CCNc1c2ccccc2[n+](C)c2c1ccc1c(C)cccc12

>  <score_type>  (3) 
oracle

>  <origin>  (3) 
adg

>  <m_score__min__energy>  (3) 
-5.1100000000000003

>  <m_primary>  (3) 
energy

$$$$
3:0
     RDKit          3D

 46 48  0  0  0  0  0  0  0  0999 V2000
   57.4051   33.8589   44.0353 H   0  0  0  0  0  0  0  0  0  0  0  0
   57.9140   33.7030   44.9980 C   0  0  0  0  0  0  0  0  0  0  0  0
   59.0150   34.6150   45.3690 C   0  0  0  0  0  0  0  0  0  0  0  0
   59.2250   35.6180   44.6340 O   0  0  0  0  0  0  0  0  0  0  0  0
   59.8880   34.3950   46.5470 C   0  0  0  0  0  0  0  0  0  0  0  0
   59.4010   34.5770   47.8530 C   0  0  0  0  0  0  0  0  0  0  0  0
   58.3609   34.9008   48.0058 H   0  0  0  0  0  0  0  0  0  0  0  0
   60.2240   34.3510   48.9590 C   0  0  0  0  0  0  0  0  0  0  0  0
   59.8332   34.5110   49.9747 H   0  0  0  0  0  0  0  0  0  0  0  0
   61.5460   33.9210   48.7790 C   0  0  0  0  0  0  0  0  0  0  0  0
   62.3810   33.6880   49.8830 C   0  0  0  0  0  0  0  0  0  0  0  0
   62.0007   33.8483   50.9026 H   0  0  0  0  0  0  0  0  0  0  0  0
   63.6940   33.2530   49.6890 C   0  0  0  0  0  0  0  0  0  0  0  0
   64.3449   33.0719   50.5570 H   0  0  0  0  0  0  0  0  0  0  0  0
   64.1840   33.0470   48.3970 C   0  0  0  0  0  0  0  0  0  0  0  0
   65.2191   32.7043   48.2513 H   0  0  0  0  0  0  0  0  0  0  0  0
   63.3630   33.2750   47.2890 C   0  0  0  0  0  0  0  0  0  0  0  0
   63.7530   33.1100   46.2738 H   0  0  0  0  0  0  0  0  0  0  0  0
   62.0420   33.7140   47.4690 C   0  0  0  0  0  0  0  0  0  0  0  0
   61.2090   33.9470   46.3650 C   0  0  0  0  0  0  0  0  0  0  0  0
   61.5920   33.7779   45.3478 H   0  0  0  0  0  0  0  0  0  0  0  0
   57.5070   32.6950   45.7800 C   0  0  0  0  0  0  0  0  0  0  0  0
   56.6381   32.8524   46.4359 H   0  0  0  0  0  0  0  0  0  0  0  0
   58.1810   31.3770   45.7960 C   0  0  0  0  0  0  0  0  0  0  0  0
   59.4090   31.2850   46.4510 C   0  0  0  0  0  0  0  0  0  0  0  0
   59.8332   32.1744   46.9400 H   0  0  0  0  0  0  0  0  0  0  0  0
   60.1010   30.0830   46.4920 C   0  0  0  0  0  0  0  0  0  0  0  0
   61.0704   30.0326   47.0095 H   0  0  0  0  0  0  0  0  0  0  0  0
   59.5810   28.9300   45.8820 C   0  0  0  0  0  0  0  0  0  0  0  0
   60.2940   27.7210   45.9150 O   0  0  0  0  0  0  0  0  0  0  0  0
   60.2580   26.7750   46.9810 C   0  0  0  0  0  0  0  0  0  0  0  0
   60.2782   27.3066   47.9438 H   0  0  0  0  0  0  0  0  0  0  0  0
   59.3365   26.1784   46.9108 H   0  0  0  0  0  0  0  0  0  0  0  0
   61.1315   26.1101   46.9108 H   0  0  0  0  0  0  0  0  0  0  0  0
   58.3160   28.9930   45.2320 C   0  0  0  0  0  0  0  0  0  0  0  0
   57.7390   27.8780   44.5950 O   0  0  0  0  0  0  0  0  0  0  0  0
   58.1660   27.2540   43.3900 C   0  0  0  0  0  0  0  0  0  0  0  0
   58.7722   26.3682   43.6306 H   0  0  0  0  0  0  0  0  0  0  0  0
   57.2868   26.9484   42.8038 H   0  0  0  0  0  0  0  0  0  0  0  0
   58.7692   27.9629   42.8038 H   0  0  0  0  0  0  0  0  0  0  0  0
   57.6010   30.2250   45.2180 C   0  0  0  0  0  0  0  0  0  0  0  0
   56.3080   30.3630   44.6700 O   0  0  0  0  0  0  0  0  0  0  0  0
   55.9000   30.0740   43.3370 C   0  0  0  0  0  0  0  0  0  0  0  0
   55.0025   29.4383   43.3579 H   0  0  0  0  0  0  0  0  0  0  0  0
   55.6720   31.0131   42.8116 H   0  0  0  0  0  0  0  0  0  0  0  0
   56.7103   29.5473   42.8116 H   0  0  0  0  0  0  0  0  0  0  0  0
  1  2  1  0
  2  3  1  0
  3  4  2  0
  3  5  1  0
  5  6  2  0
  6  7  1  0
  6  8  1  0
  8  9  1  0
  8 10  2  0
 10 11  1  0
 11 12  1  0
 11 13  2  0
 13 14  1  0
 13 15  1  0
 15 16  1  0
 15 17  2  0
 17 18  1  0
 17 19  1  0
 19 20  2  0
 20 21  1  0
  2 22  2  0
 22 23  1  0
 22 24  1  0
 24 25  2  0
 25 26  1  0
 25 27  1  0
 27 28  1  0
 27 29  2  0
 29 30  1  0
 30 31  1  0
 31 32  1  0
 31 33  1  0
 31 34  1  0
 29 35  1  0
 35 36  1  0
 36 37  1  0
 37 38  1  0
 37 39  1  0
 37 40  1  0
 35 41  2  0
 41 42  1  0
 42 43  1  0
 43 44  1  0
 43 45  1  0
 43 46  1  0
 20  5  1  0
 41 24  1  0
 19 10  1  0
M  END
>  <UniqueID>  (4) 
4

>  <SMILES>  (4) 
COc1ccc(/C=C/C(=O)c2ccc3ccccc3c2)c(OC)c1OC

>  <Energy>  (4) 
66.26015360745782

>  <Genealogy>  (4) 
COc1ccc(/C=C/C(=O)c2ccc3ccccc3c2)c(OC)c1OC (cis-trans isomerization)
COc1ccc(/C=C/C(=O)c2ccc3ccccc3c2)c(OC)c1OC (3D coordinates assigned)
COc1ccc(/C=C/C(=O)c2ccc3ccccc3c2)c(OC)c1OC (optimized conformer: 66.26015360745782 kcal/mol)

>  <smiles>  (4) 
COc1ccc(C=CC(=O)c2ccc3ccccc3c2)c(OC)c1OC

>  <score_type>  (4) 
oracle

>  <origin>  (4) 
adg

>  <m_score__min__energy>  (4) 
-8.7599999999999998

>  <m_primary>  (4) 
energy

$$$$
4:0
     RDKit          3D

 47 49  0  0  0  0  0  0  0  0999 V2000
   63.6430   32.8170   47.2250 C   0  0  0  0  0  0  0  0  0  0  0  0
   62.2490   32.7820   46.9400 O   0  0  0  0  0  0  0  0  0  0  0  0
   61.3570   31.8140   47.4310 C   0  0  0  0  0  0  0  0  0  0  0  0
   61.1340   30.6000   46.7520 C   0  0  0  0  0  0  0  0  0  0  0  0
   60.2330   29.6600   47.2580 C   0  0  0  0  0  0  0  0  0  0  0  0
   59.5340   29.9240   48.4340 C   0  0  0  0  0  0  0  0  0  0  0  0
   59.7420   31.1230   49.1190 C   0  0  0  0  0  0  0  0  0  0  0  0
   60.6620   32.0700   48.6350 C   0  0  0  0  0  0  0  0  0  0  0  0
   60.8360   33.3760   49.3760 C   0  0  0  0  0  0  0  0  0  0  0  0
   59.6600   34.3300   49.1310 C   0  0  0  0  0  0  0  0  0  0  0  0
   59.2940   34.3650   47.7150 N   0  0  0  0  0  0  0  0  0  0  0  0
   59.9900   34.9630   46.7270 C   0  0  0  0  0  0  0  0  0  0  0  0
   59.4020   34.6890   45.5070 C   0  0  0  0  0  0  0  0  0  0  0  0
   58.3020   33.8980   45.7800 C   0  0  0  0  0  0  0  0  0  0  0  0
   57.4070   33.2400   44.7810 C   0  0  0  0  0  0  0  0  0  0  0  0
   58.1790   32.9360   43.5700 N   0  0  0  0  0  0  0  0  0  0  0  0
   57.5400   31.8800   42.7730 C   0  0  0  0  0  0  0  0  0  0  0  0
   57.2270   30.6940   43.6460 C   0  0  0  0  0  0  0  0  0  0  0  0
   58.2630   29.8970   44.1520 C   0  0  0  0  0  0  0  0  0  0  0  0
   57.9700   28.8240   44.9960 C   0  0  0  0  0  0  0  0  0  0  0  0
   56.6410   28.5560   45.3260 C   0  0  0  0  0  0  0  0  0  0  0  0
   55.6460   29.3390   44.8310 N   0  0  0  0  0  0  0  0  0  0  0  0
   55.9060   30.3910   44.0070 C   0  0  0  0  0  0  0  0  0  0  0  0
   58.2690   33.7030   47.1450 C   0  0  0  0  0  0  0  0  0  0  0  0
   63.7945   32.8208   48.3145 H   0  0  0  0  0  0  0  0  0  0  0  0
   64.1285   31.9308   46.7904 H   0  0  0  0  0  0  0  0  0  0  0  0
   64.0834   33.7265   46.7904 H   0  0  0  0  0  0  0  0  0  0  0  0
   61.6734   30.3907   45.8164 H   0  0  0  0  0  0  0  0  0  0  0  0
   60.0751   28.7097   46.7270 H   0  0  0  0  0  0  0  0  0  0  0  0
   58.8169   29.1865   48.8236 H   0  0  0  0  0  0  0  0  0  0  0  0
   59.1824   31.3281   50.0435 H   0  0  0  0  0  0  0  0  0  0  0  0
   60.9069   33.1674   50.4537 H   0  0  0  0  0  0  0  0  0  0  0  0
   61.7521   33.8599   49.0063 H   0  0  0  0  0  0  0  0  0  0  0  0
   58.7937   33.9898   49.7173 H   0  0  0  0  0  0  0  0  0  0  0  0
   59.9624   35.3421   49.4380 H   0  0  0  0  0  0  0  0  0  0  0  0
   60.8912   35.5772   46.8708 H   0  0  0  0  0  0  0  0  0  0  0  0
   59.7410   35.0313   44.5181 H   0  0  0  0  0  0  0  0  0  0  0  0
   57.0046   32.3081   45.2047 H   0  0  0  0  0  0  0  0  0  0  0  0
   56.5743   33.9134   44.5299 H   0  0  0  0  0  0  0  0  0  0  0  0
   58.2140   33.8050   42.9860 H   0  0  0  0  0  0  0  0  0  0  0  0
   56.6075   32.2670   42.3363 H   0  0  0  0  0  0  0  0  0  0  0  0
   58.2257   31.5675   41.9717 H   0  0  0  0  0  0  0  0  0  0  0  0
   59.3070   30.1169   43.8842 H   0  0  0  0  0  0  0  0  0  0  0  0
   58.7792   28.1959   45.3970 H   0  0  0  0  0  0  0  0  0  0  0  0
   56.3983   27.7109   45.9869 H   0  0  0  0  0  0  0  0  0  0  0  0
   55.0779   31.0050   43.6233 H   0  0  0  0  0  0  0  0  0  0  0  0
   57.5224   33.1010   47.6837 H   0  0  0  0  0  0  0  0  0  0  0  0
  1  2  1  0
  2  3  1  0
  3  4  2  0
  4  5  1  0
  5  6  2  0
  6  7  1  0
  7  8  2  0
  8  9  1  0
  9 10  1  0
 10 11  1  0
 11 12  1  0
 12 13  2  0
 13 14  1  0
 14 15  1  0
 15 16  1  0
 16 17  1  0
 17 18  1  0
 18 19  2  0
 19 20  1  0
 20 21  2  0
 21 22  1  0
 22 23  2  0
 14 24  2  0
  8  3  1  0
 24 11  1  0
 23 18  1  0
  1 25  1  0
  1 26  1  0
  1 27  1  0
  4 28  1  0
  5 29  1  0
  6 30  1  0
  7 31  1  0
  9 32  1  0
  9 33  1  0
 10 34  1  0
 10 35  1  0
 12 36  1  0
 13 37  1  0
 15 38  1  0
 15 39  1  0
 16 40  1  0
 17 41  1  0
 17 42  1  0
 19 43  1  0
 20 44  1  0
 21 45  1  0
 23 46  1  0
 24 47  1  0
M  END
>  <UniqueID>  (5) 
5

>  <SMILES>  (5) 
COc1ccccc1CCn1ccc(CNCc2cccnc2)c1

>  <Energy>  (5) 
64.81273270444666

>  <Genealogy>  (5) 
COc1ccccc1CCn1ccc(CNCc2cccnc2)c1 (3D coordinates assigned)
COc1ccccc1CCn1ccc(CNCc2cccnc2)c1 (optimized conformer: 64.81273270444666 kcal/mol)

>  <smiles>  (5) 
COc1ccccc1CCn1ccc(CNCc2cccnc2)c1

>  <score_type>  (5) 
oracle

>  <origin>  (5) 
adg

>  <m_score__min__energy>  (5) 
-7.0499999999999998

>  <m_primary>  (5) 
energy

$$$$
5:0
     RDKit          3D

 42 43  0  0  0  0  0  0  0  0999 V2000
   57.7970   33.3700   45.1200 C   0  0  0  0  0  0  0  0  0  0  0  0
   57.0330   32.0710   44.8160 C   0  0  0  0  0  0  0  0  0  0  0  0
   57.4710   31.3780   43.5790 N   0  0  0  0  0  0  0  0  0  0  0  0
   58.1320   32.2970   42.6240 C   0  0  0  0  0  0  0  0  0  0  0  0
   57.4120   32.2770   41.2780 C   0  0  0  0  0  0  0  0  0  0  0  0
   56.4050   30.5770   42.9310 C   0  0  0  0  0  0  0  0  0  0  0  0
   55.3490   30.1210   43.9500 C   0  0  0  0  0  0  0  0  0  0  0  0
   55.8270   28.9740   44.7170 N   0  0  0  0  0  0  0  0  0  0  0  0
   57.1800   28.7750   45.1560 C   0  0  0  0  0  0  0  0  0  0  0  0
   57.6710   29.3380   46.2370 O   0  0  0  0  0  0  0  0  0  0  0  0
   58.9260   28.9540   46.3450 C   0  0  0  0  0  0  0  0  0  0  0  0
   59.8140   29.3910   47.4480 C   0  0  0  0  0  0  0  0  0  0  0  0
   59.8540   28.7060   48.6780 C   0  0  0  0  0  0  0  0  0  0  0  0
   60.6970   29.1440   49.7030 C   0  0  0  0  0  0  0  0  0  0  0  0
   61.5090   30.2670   49.5160 C   0  0  0  0  0  0  0  0  0  0  0  0
   62.6700   30.8530   50.9140 Br  0  0  0  0  0  0  0  0  0  0  0  0
   61.4760   30.9530   48.2990 C   0  0  0  0  0  0  0  0  0  0  0  0
   60.6340   30.5190   47.2710 C   0  0  0  0  0  0  0  0  0  0  0  0
   59.2870   28.1340   45.3320 N   0  0  0  0  0  0  0  0  0  0  0  0
   58.1830   28.0180   44.5720 C   0  0  0  0  0  0  0  0  0  0  0  0
   58.1460   27.2840   43.3350 C   0  0  0  0  0  0  0  0  0  0  0  0
   58.1130   26.6900   42.3440 N   0  0  0  0  0  0  0  0  0  0  0  0
   57.8753   33.5030   46.2091 H   0  0  0  0  0  0  0  0  0  0  0  0
   58.8054   33.3129   44.6842 H   0  0  0  0  0  0  0  0  0  0  0  0
   57.2570   34.2235   44.6842 H   0  0  0  0  0  0  0  0  0  0  0  0
   57.1723   31.3835   45.6633 H   0  0  0  0  0  0  0  0  0  0  0  0
   55.9812   32.3538   44.6620 H   0  0  0  0  0  0  0  0  0  0  0  0
   58.1106   33.3187   43.0309 H   0  0  0  0  0  0  0  0  0  0  0  0
   59.1717   31.9695   42.4764 H   0  0  0  0  0  0  0  0  0  0  0  0
   56.3250   32.2468   41.4440 H   0  0  0  0  0  0  0  0  0  0  0  0
   57.6711   33.1827   40.7101 H   0  0  0  0  0  0  0  0  0  0  0  0
   57.7210   31.3871   40.7101 H   0  0  0  0  0  0  0  0  0  0  0  0
   55.9164   31.1894   42.1589 H   0  0  0  0  0  0  0  0  0  0  0  0
   56.8658   29.6828   42.4860 H   0  0  0  0  0  0  0  0  0  0  0  0
   55.1319   30.9502   44.6394 H   0  0  0  0  0  0  0  0  0  0  0  0
   54.4396   29.8260   43.4060 H   0  0  0  0  0  0  0  0  0  0  0  0
   55.1450   28.2110   44.9230 H   0  0  0  0  0  0  0  0  0  0  0  0
   59.2184   27.8216   48.8327 H   0  0  0  0  0  0  0  0  0  0  0  0
   60.7219   28.6033   50.6606 H   0  0  0  0  0  0  0  0  0  0  0  0
   62.1140   31.8365   48.1496 H   0  0  0  0  0  0  0  0  0  0  0  0
   60.6129   31.0645   46.3160 H   0  0  0  0  0  0  0  0  0  0  0  0
   60.2170   27.6970   45.1460 H   0  0  0  0  0  0  0  0  0  0  0  0
  1  2  1  0
  2  3  1  0
  3  4  1  0
  4  5  1  0
  3  6  1  0
  6  7  1  0
  7  8  1  0
  8  9  1  0
  9 10  1  0
 10 11  1  0
 11 12  1  0
 12 13  2  0
 13 14  1  0
 14 15  2  0
 15 16  1  0
 15 17  1  0
 17 18  2  0
 11 19  2  0
 19 20  1  0
 20 21  1  0
 21 22  3  0
 20  9  2  0
 18 12  1  0
  1 23  1  0
  1 24  1  0
  1 25  1  0
  2 26  1  0
  2 27  1  0
  4 28  1  0
  4 29  1  0
  5 30  1  0
  5 31  1  0
  5 32  1  0
  6 33  1  0
  6 34  1  0
  7 35  1  0
  7 36  1  0
  8 37  1  0
 13 38  1  0
 14 39  1  0
 17 40  1  0
 18 41  1  0
 19 42  1  0
M  CHG  1  19   1
M  END
>  <UniqueID>  (6) 
6

>  <SMILES>  (6) 
CCN(CC)CCNc1oc(-c2ccc(Br)cc2)[nH+]c1C#N

>  <Energy>  (6) 
74.0715829924509

>  <Genealogy>  (6) 
CCN(CC)CCNc1oc(-c2ccc(Br)cc2)[nH+]c1C#N (protonated)
CCN(CC)CCNc1oc(-c2ccc(Br)cc2)[nH+]c1C#N (3D coordinates assigned)
CCN(CC)CCNc1oc(-c2ccc(Br)cc2)[nH+]c1C#N (optimized conformer: 74.0715829924509 kcal/mol)

>  <smiles>  (6) 
CCN(CC)CCNc1oc(-c2ccc(Br)cc2)nc1C#N

>  <score_type>  (6) 
oracle

>  <origin>  (6) 
adg

>  <m_score__min__energy>  (6) 
-4.8600000000000003

>  <m_primary>  (6) 
energy

$$$$
6:0
     RDKit          3D

 34 36  0  0  0  0  0  0  0  0999 V2000
   57.4090   31.9770   41.5460 C   0  0  0  0  0  0  0  0  0  0  0  0
   57.5420   31.9590   43.0000 N   0  0  0  0  0  0  0  0  0  0  0  0
   58.1700   32.8790   43.7080 N   0  0  0  0  0  0  0  0  0  0  0  0
   58.0710   32.5120   45.0030 C   0  0  0  0  0  0  0  0  0  0  0  0
   58.6390   33.2640   46.1510 C   0  0  0  0  0  0  0  0  0  0  0  0
   59.1260   34.5780   46.0020 C   0  0  0  0  0  0  0  0  0  0  0  0
   59.6560   35.2650   47.0990 C   0  0  0  0  0  0  0  0  0  0  0  0
   59.7080   34.6530   48.3520 C   0  0  0  0  0  0  0  0  0  0  0  0
   59.2280   33.3530   48.5130 C   0  0  0  0  0  0  0  0  0  0  0  0
   58.6970   32.6600   47.4210 C   0  0  0  0  0  0  0  0  0  0  0  0
   57.3790   31.3570   45.1400 N   0  0  0  0  0  0  0  0  0  0  0  0
   57.0680   31.0410   43.8650 C   0  0  0  0  0  0  0  0  0  0  0  0
   56.2830   29.8150   43.4930 C   0  0  0  0  0  0  0  0  0  0  0  0
   57.0560   28.6040   43.8220 N   0  0  0  0  0  0  0  0  0  0  0  0
   56.9080   28.2180   45.2340 C   0  0  0  0  0  0  0  0  0  0  0  0
   58.3510   28.5450   45.5620 C   0  0  0  0  0  0  0  0  0  0  0  0
   58.4640   28.9260   44.0990 C   0  0  0  0  0  0  0  0  0  0  0  0
   56.3522   32.1200   41.2762 H   0  0  0  0  0  0  0  0  0  0  0  0
   58.0077   32.8023   41.1332 H   0  0  0  0  0  0  0  0  0  0  0  0
   57.7668   31.0222   41.1332 H   0  0  0  0  0  0  0  0  0  0  0  0
   58.6440   33.7180   43.3060 H   0  0  0  0  0  0  0  0  0  0  0  0
   59.0891   35.0663   45.0170 H   0  0  0  0  0  0  0  0  0  0  0  0
   60.0329   36.2908   46.9737 H   0  0  0  0  0  0  0  0  0  0  0  0
   60.1272   35.1953   49.2123 H   0  0  0  0  0  0  0  0  0  0  0  0
   59.2674   32.8721   49.5015 H   0  0  0  0  0  0  0  0  0  0  0  0
   58.3216   31.6348   47.5554 H   0  0  0  0  0  0  0  0  0  0  0  0
   55.3354   29.8055   44.0516 H   0  0  0  0  0  0  0  0  0  0  0  0
   56.0782   29.8308   42.4124 H   0  0  0  0  0  0  0  0  0  0  0  0
   56.1842   28.8387   45.7826 H   0  0  0  0  0  0  0  0  0  0  0  0
   56.5274   27.2132   45.4697 H   0  0  0  0  0  0  0  0  0  0  0  0
   58.4929   29.3724   46.2729 H   0  0  0  0  0  0  0  0  0  0  0  0
   59.0308   27.8297   46.0480 H   0  0  0  0  0  0  0  0  0  0  0  0
   58.7082   29.9870   43.9419 H   0  0  0  0  0  0  0  0  0  0  0  0
   59.2448   28.4495   43.4880 H   0  0  0  0  0  0  0  0  0  0  0  0
  1  2  1  0
  2  3  1  0
  3  4  2  0
  4  5  1  0
  5  6  2  0
  6  7  1  0
  7  8  2  0
  8  9  1  0
  9 10  2  0
  4 11  1  0
 11 12  2  0
 12 13  1  0
 13 14  1  0
 14 15  1  0
 15 16  1  0
 16 17  1  0
 12  2  1  0
 17 14  1  0
 10  5  1  0
  1 18  1  0
  1 19  1  0
  1 20  1  0
  3 21  1  0
  6 22  1  0
  7 23  1  0
  8 24  1  0
  9 25  1  0
 10 26  1  0
 13 27  1  0
 13 28  1  0
 15 29  1  0
 15 30  1  0
 16 31  1  0
 16 32  1  0
 17 33  1  0
 17 34  1  0
M  CHG  1   3   1
M  END
>  <UniqueID>  (7) 
7

>  <SMILES>  (7) 
Cn1[nH+]c(-c2ccccc2)nc1CN1CCC1

>  <Energy>  (7) 
137.56572422440155

>  <Genealogy>  (7) 
Cn1[nH+]c(-c2ccccc2)nc1CN1CCC1 (protonated)
Cn1[nH+]c(-c2ccccc2)nc1CN1CCC1 (3D coordinates assigned)
Cn1[nH+]c(-c2ccccc2)nc1CN1CCC1 (nonaromatic ring conformer: 137.56572422440155 kcal/mol)

>  <smiles>  (7) 
Cn1nc(-c2ccccc2)nc1CN1CCC1

>  <score_type>  (7) 
oracle

>  <origin>  (7) 
adg

>  <m_score__min__energy>  (7) 
-5.1399999999999997

>  <m_primary>  (7) 
energy

$$$$
7:0
     RDKit          3D

 32 34  0  0  0  0  0  0  0  0999 V2000
   57.6870   31.6300   42.8750 C   0  0  0  0  0  0  0  0  0  0  0  0
   56.9160   30.7740   43.2240 C   0  0  0  0  0  0  0  0  0  0  0  0
   55.9890   29.7400   43.6720 C   0  0  0  0  0  0  0  0  0  0  0  0
   56.0420   29.5350   45.1340 N   0  0  0  0  0  0  0  0  0  0  0  0
   56.9940   28.6520   45.6460 C   0  0  0  0  0  0  0  0  0  0  0  0
   56.6690   27.2900   45.6060 C   0  0  0  0  0  0  0  0  0  0  0  0
   57.4680   26.3170   46.1610 C   0  0  0  0  0  0  0  0  0  0  0  0
   58.6190   26.7280   46.7690 C   0  0  0  0  0  0  0  0  0  0  0  0
   58.9380   28.0510   46.8070 C   0  0  0  0  0  0  0  0  0  0  0  0
   58.1440   29.0670   46.2470 C   0  0  0  0  0  0  0  0  0  0  0  0
   58.6710   30.4110   46.2700 C   0  0  0  0  0  0  0  0  0  0  0  0
   57.8560   31.4890   46.0550 N   0  0  0  0  0  0  0  0  0  0  0  0
   58.5080   32.6440   46.1670 C   0  0  0  0  0  0  0  0  0  0  0  0
   58.0740   33.9460   46.0290 C   0  0  0  0  0  0  0  0  0  0  0  0
   58.9870   34.9580   46.2040 C   0  0  0  0  0  0  0  0  0  0  0  0
   60.3040   34.6340   46.5110 C   0  0  0  0  0  0  0  0  0  0  0  0
   60.7290   33.3240   46.6470 C   0  0  0  0  0  0  0  0  0  0  0  0
   59.8030   32.3200   46.4690 C   0  0  0  0  0  0  0  0  0  0  0  0
   59.8530   30.9600   46.5220 N   0  0  0  0  0  0  0  0  0  0  0  0
   58.3916   32.4122   42.5561 H   0  0  0  0  0  0  0  0  0  0  0  0
   54.9670   30.0362   43.3931 H   0  0  0  0  0  0  0  0  0  0  0  0
   56.2794   28.7954   43.1889 H   0  0  0  0  0  0  0  0  0  0  0  0
   55.3150   30.0680   45.6330 H   0  0  0  0  0  0  0  0  0  0  0  0
   55.7356   26.9855   45.1099 H   0  0  0  0  0  0  0  0  0  0  0  0
   57.1911   25.2533   46.1167 H   0  0  0  0  0  0  0  0  0  0  0  0
   59.2905   25.9883   47.2294 H   0  0  0  0  0  0  0  0  0  0  0  0
   59.8738   28.3427   47.3062 H   0  0  0  0  0  0  0  0  0  0  0  0
   57.0246   34.1684   45.7853 H   0  0  0  0  0  0  0  0  0  0  0  0
   58.6804   36.0095   46.1027 H   0  0  0  0  0  0  0  0  0  0  0  0
   61.0325   35.4463   46.6504 H   0  0  0  0  0  0  0  0  0  0  0  0
   61.7762   33.0913   46.8903 H   0  0  0  0  0  0  0  0  0  0  0  0
   60.7230   30.4920   46.7570 H   0  0  0  0  0  0  0  0  0  0  0  0
  1  2  3  0
  2  3  1  0
  3  4  1  0
  4  5  1  0
  5  6  2  0
  6  7  1  0
  7  8  2  0
  8  9  1  0
  9 10  2  0
 10 11  1  0
 11 12  2  0
 12 13  1  0
 13 14  2  0
 14 15  1  0
 15 16  2  0
 16 17  1  0
 17 18  2  0
 18 19  1  0
 10  5  1  0
 19 11  1  0
 18 13  1  0
  1 20  1  0
  3 21  1  0
  3 22  1  0
  4 23  1  0
  6 24  1  0
  7 25  1  0
  8 26  1  0
  9 27  1  0
 14 28  1  0
 15 29  1  0
 16 30  1  0
 17 31  1  0
 19 32  1  0
M  END
>  <smiles>  (8) 
C#CCNc1ccccc1-c1nc2ccccc2[nH]1

>  <score_type>  (8) 
oracle

>  <origin>  (8) 
adg

>  <m_score__min__energy>  (8) 
-6.5999999999999996

>  <m_primary>  (8) 
energy

$$$$
8:0
     RDKit          3D

 54 57  0  0  0  0  0  0  0  0999 V2000
   63.1690   31.8230   47.1500 C   0  0  0  0  0  0  0  0  0  0  0  0
   63.7350   33.1100   47.7620 C   0  0  0  0  0  0  0  0  0  0  0  0
   63.9510   33.0000   49.2270 N   0  0  2  0  0  0  0  0  0  0  0  0
   63.6800   31.6250   49.7000 C   0  0  0  0  0  0  0  0  0  0  0  0
   63.0890   33.9740   49.9540 C   0  0  0  0  0  0  0  0  0  0  0  0
   61.9630   34.5500   49.0700 C   0  0  0  0  0  0  0  0  0  0  0  0
   60.6660   33.9330   49.3730 N   0  0  0  0  0  0  0  0  0  0  0  0
   60.0310   33.0020   48.4790 C   0  0  0  0  0  0  0  0  0  0  0  0
   59.8860   31.6560   48.8570 C   0  0  0  0  0  0  0  0  0  0  0  0
   60.2060   31.2330   50.1640 C   0  0  0  0  0  0  0  0  0  0  0  0
   60.1070   29.8910   50.5220 C   0  0  0  0  0  0  0  0  0  0  0  0
   59.6860   28.9500   49.5910 C   0  0  0  0  0  0  0  0  0  0  0  0
   59.3530   29.3460   48.2960 C   0  0  0  0  0  0  0  0  0  0  0  0
   59.4400   30.7060   47.9020 C   0  0  0  0  0  0  0  0  0  0  0  0
   59.1170   31.1080   46.6220 N   0  0  0  0  0  0  0  0  0  0  0  0
   58.6970   30.1260   45.6520 C   0  0  0  0  0  0  0  0  0  0  0  0
   57.3610   30.0830   45.2240 C   0  0  0  0  0  0  0  0  0  0  0  0
   56.9580   29.1290   44.2850 C   0  0  0  0  0  0  0  0  0  0  0  0
   57.8840   28.2170   43.7690 C   0  0  0  0  0  0  0  0  0  0  0  0
   59.2170   28.2580   44.1930 C   0  0  0  0  0  0  0  0  0  0  0  0
   59.6230   29.2100   45.1320 C   0  0  0  0  0  0  0  0  0  0  0  0
   59.1830   32.4380   46.2610 C   0  0  0  0  0  0  0  0  0  0  0  0
   58.8140   32.8730   44.9620 C   0  0  0  0  0  0  0  0  0  0  0  0
   58.8690   34.2210   44.6130 C   0  0  0  0  0  0  0  0  0  0  0  0
   59.2800   35.1690   45.5430 C   0  0  0  0  0  0  0  0  0  0  0  0
   59.6540   34.7700   46.8260 C   0  0  0  0  0  0  0  0  0  0  0  0
   59.6310   33.4100   47.1940 C   0  0  0  0  0  0  0  0  0  0  0  0
   62.8670   31.1364   47.9546 H   0  0  0  0  0  0  0  0  0  0  0  0
   62.2948   32.0663   46.5282 H   0  0  0  0  0  0  0  0  0  0  0  0
   63.9391   31.3431   46.5282 H   0  0  0  0  0  0  0  0  0  0  0  0
   64.6978   33.3352   47.2801 H   0  0  0  0  0  0  0  0  0  0  0  0
   62.9992   33.9101   47.5934 H   0  0  0  0  0  0  0  0  0  0  0  0
   64.9570   33.2030   49.4210 H   0  0  0  0  0  0  0  0  0  0  0  0
   63.6770   31.6095   50.7999 H   0  0  0  0  0  0  0  0  0  0  0  0
   62.6996   31.2951   49.3259 H   0  0  0  0  0  0  0  0  0  0  0  0
   64.4619   30.9478   49.3259 H   0  0  0  0  0  0  0  0  0  0  0  0
   62.6336   33.4653   50.8165 H   0  0  0  0  0  0  0  0  0  0  0  0
   63.7276   34.8133   50.2666 H   0  0  0  0  0  0  0  0  0  0  0  0
   61.8918   35.6337   49.2445 H   0  0  0  0  0  0  0  0  0  0  0  0
   62.2079   34.3354   48.0193 H   0  0  0  0  0  0  0  0  0  0  0  0
   60.2220   34.1200   50.2990 H   0  0  0  0  0  0  0  0  0  0  0  0
   60.5375   31.9715   50.9088 H   0  0  0  0  0  0  0  0  0  0  0  0
   60.3627   29.5754   51.5442 H   0  0  0  0  0  0  0  0  0  0  0  0
   59.6151   27.8899   49.8759 H   0  0  0  0  0  0  0  0  0  0  0  0
   59.0176   28.5920   47.5687 H   0  0  0  0  0  0  0  0  0  0  0  0
   56.6309   30.8001   45.6275 H   0  0  0  0  0  0  0  0  0  0  0  0
   55.9104   29.0957   43.9513 H   0  0  0  0  0  0  0  0  0  0  0  0
   57.5647   27.4675   43.0299 H   0  0  0  0  0  0  0  0  0  0  0  0
   59.9454   27.5407   43.7870 H   0  0  0  0  0  0  0  0  0  0  0  0
   60.6712   29.2410   45.4640 H   0  0  0  0  0  0  0  0  0  0  0  0
   58.4792   32.1346   44.2186 H   0  0  0  0  0  0  0  0  0  0  0  0
   58.5861   34.5361   43.5978 H   0  0  0  0  0  0  0  0  0  0  0  0
   59.3102   36.2334   45.2671 H   0  0  0  0  0  0  0  0  0  0  0  0
   59.9707   35.5261   47.5595 H   0  0  0  0  0  0  0  0  0  0  0  0
  1  2  1  0
  2  3  1  0
  3  4  1  0
  3  5  1  0
  5  6  1  0
  6  7  1  0
  7  8  1  0
  8  9  2  0
  9 10  1  0
 10 11  2  0
 11 12  1  0
 12 13  2  0
 13 14  1  0
 14 15  2  0
 15 16  1  0
 16 17  2  0
 17 18  1  0
 18 19  2  0
 19 20  1  0
 20 21  2  0
 15 22  1  0
 22 23  2  0
 23 24  1  0
 24 25  2  0
 25 26  1  0
 26 27  2  0
 27  8  1  0
 14  9  1  0
 21 16  1  0
 27 22  1  0
  1 28  1  0
  1 29  1  0
  1 30  1  0
  2 31  1  0
  2 32  1  0
  3 33  1  6
  4 34  1  0
  4 35  1  0
  4 36  1  0
  5 37  1  0
  5 38  1  0
  6 39  1  0
  6 40  1  0
  7 41  1  0
 10 42  1  0
 11 43  1  0
 12 44  1  0
 13 45  1  0
 17 46  1  0
 18 47  1  0
 19 48  1  0
 20 49  1  0
 21 50  1  0
 23 51  1  0
 24 52  1  0
 25 53  1  0
 26 54  1  0
M  CHG  2   3   1  15   1
M  END
>  <UniqueID>  (9) 
8

>  <SMILES>  (9) 
CC[N@H+](C)CCNc1c2ccccc2[n+](-c2ccccc2)c2ccccc12

>  <Energy>  (9) 
85.03942081203841

>  <Genealogy>  (9) 
CC[NH+](C)CCNc1c2ccccc2[n+](-c2ccccc2)c2ccccc12 (protonated)
CC[N@H+](C)CCNc1c2ccccc2[n+](-c2ccccc2)c2ccccc12 (chirality)
CC[N@H+](C)CCNc1c2ccccc2[n+](-c2ccccc2)c2ccccc12 (3D coordinates assigned)
CC[N@H+](C)CCNc1c2ccccc2[n+](-c2ccccc2)c2ccccc12 (optimized conformer: 85.03942081203841 kcal/mol)

>  <smiles>  (9) 
CCN(C)CCNc1c2ccccc2[n+](-c2ccccc2)c2ccccc12

>  <score_type>  (9) 
oracle

>  <origin>  (9) 
adg

>  <m_score__min__energy>  (9) 
-5.8799999999999999

>  <m_primary>  (9) 
energy

$$$$
9:0
     RDKit          3D

 41 43  0  0  0  0  0  0  0  0999 V2000
   63.8200   33.0770   47.2660 C   0  0  0  0  0  0  0  0  0  0  0  0
   63.6260   33.1680   48.7750 C   0  0  0  0  0  0  0  0  0  0  0  0
   62.2000   33.2030   49.1130 N   0  0  0  0  0  0  0  0  0  0  0  0
   61.7580   33.4840   50.4790 C   0  0  0  0  0  0  0  0  0  0  0  0
   61.2130   33.0750   48.0770 C   0  0  0  0  0  0  0  0  0  0  0  0
   60.8220   34.2200   47.3910 C   0  0  0  0  0  0  0  0  0  0  0  0
   59.8870   34.1650   46.3550 C   0  0  0  0  0  0  0  0  0  0  0  0
   59.5870   35.4500   45.6200 C   0  0  0  0  0  0  0  0  0  0  0  0
   59.2640   32.9260   46.0350 C   0  0  0  0  0  0  0  0  0  0  0  0
   59.6320   31.7520   46.7540 C   0  0  0  0  0  0  0  0  0  0  0  0
   60.6500   31.8230   47.7530 C   0  0  0  0  0  0  0  0  0  0  0  0
   61.1370   30.5860   48.4800 C   0  0  0  0  0  0  0  0  0  0  0  0
   58.9290   30.4680   46.4310 C   0  0  0  0  0  0  0  0  0  0  0  0
   58.9470   29.4980   47.2360 O   0  0  0  0  0  0  0  0  0  0  0  0
   58.1520   30.3370   45.1840 C   0  0  0  0  0  0  0  0  0  0  0  0
   57.7240   29.0760   44.7290 C   0  0  0  0  0  0  0  0  0  0  0  0
   56.9680   28.9660   43.5590 C   0  0  0  0  0  0  0  0  0  0  0  0
   56.6290   30.1110   42.8370 C   0  0  0  0  0  0  0  0  0  0  0  0
   57.0420   31.3680   43.2830 C   0  0  0  0  0  0  0  0  0  0  0  0
   57.8090   31.4890   44.4590 C   0  0  0  0  0  0  0  0  0  0  0  0
   58.2330   32.8150   44.9530 C   0  0  0  0  0  0  0  0  0  0  0  0
   57.6900   33.8420   44.4640 O   0  0  0  0  0  0  0  0  0  0  0  0
   64.7963   32.6191   47.0488 H   0  0  0  0  0  0  0  0  0  0  0  0
   63.0205   32.4600   46.8301 H   0  0  0  0  0  0  0  0  0  0  0  0
   63.7833   34.0863   46.8301 H   0  0  0  0  0  0  0  0  0  0  0  0
   64.0887   32.2915   49.2520 H   0  0  0  0  0  0  0  0  0  0  0  0
   64.0980   34.0933   49.1371 H   0  0  0  0  0  0  0  0  0  0  0  0
   62.4644   33.0349   51.1927 H   0  0  0  0  0  0  0  0  0  0  0  0
   61.7205   34.5721   50.6357 H   0  0  0  0  0  0  0  0  0  0  0  0
   60.7568   33.0563   50.6357 H   0  0  0  0  0  0  0  0  0  0  0  0
   61.2587   35.1901   47.6705 H   0  0  0  0  0  0  0  0  0  0  0  0
   59.3994   36.2534   46.3476 H   0  0  0  0  0  0  0  0  0  0  0  0
   60.4462   35.7204   44.9886 H   0  0  0  0  0  0  0  0  0  0  0  0
   58.6969   35.3120   44.9886 H   0  0  0  0  0  0  0  0  0  0  0  0
   61.0726   30.7497   49.5658 H   0  0  0  0  0  0  0  0  0  0  0  0
   60.5103   29.7261   48.2010 H   0  0  0  0  0  0  0  0  0  0  0  0
   62.1817   30.3842   48.2010 H   0  0  0  0  0  0  0  0  0  0  0  0
   57.9861   28.1716   45.2977 H   0  0  0  0  0  0  0  0  0  0  0  0
   56.6401   27.9768   43.2071 H   0  0  0  0  0  0  0  0  0  0  0  0
   56.0355   30.0232   41.9150 H   0  0  0  0  0  0  0  0  0  0  0  0
   56.7673   32.2682   42.7136 H   0  0  0  0  0  0  0  0  0  0  0  0
  1  2  1  0
  2  3  1  0
  3  4  1  0
  3  5  1  0
  5  6  2  0
  6  7  1  0
  7  8  1  0
  7  9  2  0
  9 10  1  0
 10 11  2  0
 11 12  1  0
 10 13  1  0
 13 14  2  0
 13 15  1  0
 15 16  2  0
 16 17  1  0
 17 18  2  0
 18 19  1  0
 19 20  2  0
 20 21  1  0
 21 22  2  0
 11  5  1  0
 20 15  1  0
 21  9  1  0
  1 23  1  0
  1 24  1  0
  1 25  1  0
  2 26  1  0
  2 27  1  0
  4 28  1  0
  4 29  1  0
  4 30  1  0
  6 31  1  0
  8 32  1  0
  8 33  1  0
  8 34  1  0
 12 35  1  0
 12 36  1  0
 12 37  1  0
 16 38  1  0
 17 39  1  0
 18 40  1  0
 19 41  1  0
M  END
>  <UniqueID>  (10) 
9

>  <SMILES>  (10) 
CCN(C)c1cc(C)c2c(c1C)C(=O)c1ccccc1C2=O

>  <Energy>  (10) 
60.00480507334849

>  <Genealogy>  (10) 
CCN(C)c1cc(C)c2c(c1C)C(=O)c1ccccc1C2=O (3D coordinates assigned)
CCN(C)c1cc(C)c2c(c1C)C(=O)c1ccccc1C2=O (nonaromatic ring conformer: 60.00480507334849 kcal/mol)

>  <smiles>  (10) 
CCN(C)c1cc(C)c2c(c1C)C(=O)c1ccccc1C2=O

>  <score_type>  (10) 
oracle

>  <origin>  (10) 
adg

>  <m_score__min__energy>  (10) 
-7.6900000000000004

>  <m_primary>  (10) 
energy

$$$$
10:0
     RDKit          3D

 40 41  0  0  0  0  0  0  0  0999 V2000
   55.9550   24.5100   44.6580 C   0  0  0  0  0  0  0  0  0  0  0  0
   55.1610   25.0330   45.8440 C   0  0  0  0  0  0  0  0  0  0  0  0
   55.3710   26.4370   45.9690 O   0  0  0  0  0  0  0  0  0  0  0  0
   56.6150   27.0810   45.8770 C   0  0  0  0  0  0  0  0  0  0  0  0
   57.7900   26.4390   46.3110 C   0  0  0  0  0  0  0  0  0  0  0  0
   59.0250   27.0690   46.2030 C   0  0  0  0  0  0  0  0  0  0  0  0
   59.1100   28.3560   45.6830 C   0  0  0  0  0  0  0  0  0  0  0  0
   57.9550   29.0420   45.2780 C   0  0  0  0  0  0  0  0  0  0  0  0
   58.0840   30.4560   44.7360 C   0  0  0  0  0  0  0  0  0  0  0  0
   57.6510   31.5070   45.6850 N   0  0  0  0  0  0  0  0  0  0  0  0
   58.5270   31.7420   46.8500 C   0  0  0  0  0  0  0  0  0  0  0  0
   59.5800   32.8460   46.6050 C   0  0  0  0  0  0  0  0  0  0  0  0
   59.1770   33.8460   45.6010 N   0  0  0  0  0  0  0  0  0  0  0  0
   57.7240   34.0150   45.5490 C   0  0  0  0  0  0  0  0  0  0  0  0
   57.0410   32.7160   45.0910 C   0  0  0  0  0  0  0  0  0  0  0  0
   56.6970   28.3930   45.3370 C   0  0  0  0  0  0  0  0  0  0  0  0
   55.5790   29.0950   44.8470 O   0  0  0  0  0  0  0  0  0  0  0  0
   55.4470   29.7090   43.5700 C   0  0  0  0  0  0  0  0  0  0  0  0
   56.8223   23.9387   45.0206 H   0  0  0  0  0  0  0  0  0  0  0  0
   55.3146   23.8563   44.0476 H   0  0  0  0  0  0  0  0  0  0  0  0
   56.3027   25.3564   44.0476 H   0  0  0  0  0  0  0  0  0  0  0  0
   54.0907   24.8342   45.6861 H   0  0  0  0  0  0  0  0  0  0  0  0
   55.4941   24.5273   46.7623 H   0  0  0  0  0  0  0  0  0  0  0  0
   57.7307   25.4280   46.7403 H   0  0  0  0  0  0  0  0  0  0  0  0
   59.9370   26.5480   46.5297 H   0  0  0  0  0  0  0  0  0  0  0  0
   60.0927   28.8411   45.5882 H   0  0  0  0  0  0  0  0  0  0  0  0
   59.1392   30.6337   44.4810 H   0  0  0  0  0  0  0  0  0  0  0  0
   57.4196   30.5234   43.8619 H   0  0  0  0  0  0  0  0  0  0  0  0
   57.9009   32.0390   47.7043 H   0  0  0  0  0  0  0  0  0  0  0  0
   59.0722   30.8065   47.0438 H   0  0  0  0  0  0  0  0  0  0  0  0
   59.7639   33.3660   47.5567 H   0  0  0  0  0  0  0  0  0  0  0  0
   60.4792   32.3472   46.2143 H   0  0  0  0  0  0  0  0  0  0  0  0
   59.5170   33.5480   44.6580 H   0  0  0  0  0  0  0  0  0  0  0  0
   57.3557   34.2828   46.5503 H   0  0  0  0  0  0  0  0  0  0  0  0
   57.4866   34.8119   44.8288 H   0  0  0  0  0  0  0  0  0  0  0  0
   55.9812   32.7545   45.3830 H   0  0  0  0  0  0  0  0  0  0  0  0
   57.1617   32.6456   43.9999 H   0  0  0  0  0  0  0  0  0  0  0  0
   55.2174   30.7770   43.6987 H   0  0  0  0  0  0  0  0  0  0  0  0
   56.3889   29.6011   43.0121 H   0  0  0  0  0  0  0  0  0  0  0  0
   54.6327   29.2235   43.0121 H   0  0  0  0  0  0  0  0  0  0  0  0
  1  2  1  0
  2  3  1  0
  3  4  1  0
  4  5  2  0
  5  6  1  0
  6  7  2  0
  7  8  1  0
  8  9  1  0
  9 10  1  0
 10 11  1  0
 11 12  1  0
 12 13  1  0
 13 14  1  0
 14 15  1  0
  8 16  2  0
 16 17  1  0
 17 18  1  0
 16  4  1  0
 15 10  1  0
  1 19  1  0
  1 20  1  0
  1 21  1  0
  2 22  1  0
  2 23  1  0
  5 24  1  0
  6 25  1  0
  7 26  1  0
  9 27  1  0
  9 28  1  0
 11 29  1  0
 11 30  1  0
 12 31  1  0
 12 32  1  0
 13 33  1  0
 14 34  1  0
 14 35  1  0
 15 36  1  0
 15 37  1  0
 18 38  1  0
 18 39  1  0
 18 40  1  0
M  END
>  <UniqueID>  (11) 
10

>  <SMILES>  (11) 
CCOc1cccc(CN2CCNCC2)c1OC

>  <Energy>  (11) 
52.64627766811618

>  <Genealogy>  (11) 
CCOc1cccc(CN2CCNCC2)c1OC (3D coordinates assigned)
CCOc1cccc(CN2CCNCC2)c1OC (nonaromatic ring conformer: 52.64627766811618 kcal/mol)

>  <smiles>  (11) 
CCOc1cccc(CN2CCNCC2)c1OC

>  <score_type>  (11) 
oracle

>  <origin>  (11) 
adg

>  <m_score__min__energy>  (11) 
-6.7999999999999998

>  <m_primary>  (11) 
energy

$$$$
11:0
     RDKit          3D

 53 56  0  0  0  0  0  0  0  0999 V2000
   63.3710   33.9280   46.2850 C   0  0  0  0  0  0  0  0  0  0  0  0
   63.6870   33.6160   47.7570 C   0  0  0  0  0  0  0  0  0  0  0  0
   63.7140   32.1650   48.0830 N   0  0  0  0  0  0  0  0  0  0  0  0
   63.8370   31.9630   49.5510 C   0  0  0  0  0  0  0  0  0  0  0  0
   65.2070   32.3720   50.0970 C   0  0  0  0  0  0  0  0  0  0  0  0
   62.5400   31.4490   47.4960 C   0  0  0  0  0  0  0  0  0  0  0  0
   61.6100   30.8290   48.5630 C   0  0  0  0  0  0  0  0  0  0  0  0
   60.1950   31.1100   48.2980 N   0  0  0  0  0  0  0  0  0  0  0  0
   59.6850   31.3170   46.9750 C   0  0  0  0  0  0  0  0  0  0  0  0
   59.5490   32.6290   46.4590 C   0  0  0  0  0  0  0  0  0  0  0  0
   60.1000   33.7330   47.1430 C   0  0  0  0  0  0  0  0  0  0  0  0
   59.9510   35.0250   46.6480 C   0  0  0  0  0  0  0  0  0  0  0  0
   59.2660   35.2420   45.4580 C   0  0  0  0  0  0  0  0  0  0  0  0
   58.7350   34.1680   44.7460 C   0  0  0  0  0  0  0  0  0  0  0  0
   58.8680   32.8400   45.2220 C   0  0  0  0  0  0  0  0  0  0  0  0
   58.3620   31.7650   44.5130 N   0  0  0  0  0  0  0  0  0  0  0  0
   57.6150   31.9710   43.2570 C   0  0  0  0  0  0  0  0  0  0  0  0
   58.5910   30.4990   44.9840 C   0  0  0  0  0  0  0  0  0  0  0  0
   58.1210   29.0450   44.2530 S   0  0  0  0  0  0  0  0  0  0  0  0
   58.7710   28.0660   45.4460 C   0  0  0  0  0  0  0  0  0  0  0  0
   58.7490   26.6760   45.4860 C   0  0  0  0  0  0  0  0  0  0  0  0
   59.3610   26.0300   46.5660 C   0  0  0  0  0  0  0  0  0  0  0  0
   59.9860   26.7810   47.5740 C   0  0  0  0  0  0  0  0  0  0  0  0
   60.0020   28.1840   47.5160 C   0  0  0  0  0  0  0  0  0  0  0  0
   59.3720   28.8410   46.4400 C   0  0  0  0  0  0  0  0  0  0  0  0
   59.2590   30.2360   46.1840 C   0  0  0  0  0  0  0  0  0  0  0  0
   62.5891   34.7000   46.2335 H   0  0  0  0  0  0  0  0  0  0  0  0
   64.2799   34.2927   45.7842 H   0  0  0  0  0  0  0  0  0  0  0  0
   63.0179   33.0145   45.7842 H   0  0  0  0  0  0  0  0  0  0  0  0
   64.6732   34.0410   47.9952 H   0  0  0  0  0  0  0  0  0  0  0  0
   62.8756   34.0579   48.3539 H   0  0  0  0  0  0  0  0  0  0  0  0
   64.5940   31.8060   47.6450 H   0  0  0  0  0  0  0  0  0  0  0  0
   63.0653   32.5644   50.0537 H   0  0  0  0  0  0  0  0  0  0  0  0
   63.7115   30.8880   49.7474 H   0  0  0  0  0  0  0  0  0  0  0  0
   65.1807   32.3641   51.1967 H   0  0  0  0  0  0  0  0  0  0  0  0
   65.9694   31.6623   49.7434 H   0  0  0  0  0  0  0  0  0  0  0  0
   65.4556   33.3835   49.7434 H   0  0  0  0  0  0  0  0  0  0  0  0
   61.9573   32.1648   46.8976 H   0  0  0  0  0  0  0  0  0  0  0  0
   62.9328   30.6231   46.8847 H   0  0  0  0  0  0  0  0  0  0  0  0
   61.7587   29.7391   48.5719 H   0  0  0  0  0  0  0  0  0  0  0  0
   61.8662   31.2769   49.5344 H   0  0  0  0  0  0  0  0  0  0  0  0
   59.5070   30.9980   49.0780 H   0  0  0  0  0  0  0  0  0  0  0  0
   60.6542   33.5705   48.0792 H   0  0  0  0  0  0  0  0  0  0  0  0
   60.3762   35.8764   47.1996 H   0  0  0  0  0  0  0  0  0  0  0  0
   59.1425   36.2663   45.0765 H   0  0  0  0  0  0  0  0  0  0  0  0
   58.2047   34.3540   43.8004 H   0  0  0  0  0  0  0  0  0  0  0  0
   56.5785   32.2568   43.4895 H   0  0  0  0  0  0  0  0  0  0  0  0
   58.0936   32.7707   42.6727 H   0  0  0  0  0  0  0  0  0  0  0  0
   57.6161   31.0390   42.6727 H   0  0  0  0  0  0  0  0  0  0  0  0
   58.2618   26.0977   44.6871 H   0  0  0  0  0  0  0  0  0  0  0  0
   59.3523   24.9316   46.6252 H   0  0  0  0  0  0  0  0  0  0  0  0
   60.4680   26.2654   48.4177 H   0  0  0  0  0  0  0  0  0  0  0  0
   60.5023   28.7657   48.3042 H   0  0  0  0  0  0  0  0  0  0  0  0
  1  2  1  0
  2  3  1  0
  3  4  1  0
  4  5  1  0
  3  6  1  0
  6  7  1  0
  7  8  1  0
  8  9  1  0
  9 10  2  0
 10 11  1  0
 11 12  2  0
 12 13  1  0
 13 14  2  0
 14 15  1  0
 15 16  2  0
 16 17  1  0
 16 18  1  0
 18 19  1  0
 19 20  1  0
 20 21  2  0
 21 22  1  0
 22 23  2  0
 23 24  1  0
 24 25  2  0
 25 26  1  0
 26  9  1  0
 15 10  1  0
 26 18  2  0
 25 20  1  0
  1 27  1  0
  1 28  1  0
  1 29  1  0
  2 30  1  0
  2 31  1  0
  3 32  1  0
  4 33  1  0
  4 34  1  0
  5 35  1  0
  5 36  1  0
  5 37  1  0
  6 38  1  0
  6 39  1  0
  7 40  1  0
  7 41  1  0
  8 42  1  0
 11 43  1  0
 12 44  1  0
 13 45  1  0
 14 46  1  0
 17 47  1  0
 17 48  1  0
 17 49  1  0
 21 50  1  0
 22 51  1  0
 23 52  1  0
 24 53  1  0
M  CHG  2   3   1  16   1
M  END
>  <UniqueID>  (12) 
11

>  <SMILES>  (12) 
CC[NH+](CC)CCNc1c2ccccc2[n+](C)c2sc3ccccc3c12

>  <Energy>  (12) 
113.33783469198548

>  <Genealogy>  (12) 
CC[NH+](CC)CCNc1c2ccccc2[n+](C)c2sc3ccccc3c12 (protonated)
CC[NH+](CC)CCNc1c2ccccc2[n+](C)c2sc3ccccc3c12 (3D coordinates assigned)
CC[NH+](CC)CCNc1c2ccccc2[n+](C)c2sc3ccccc3c12 (optimized conformer: 113.33783469198548 kcal/mol)

>  <smiles>  (12) 
CCN(CC)CCNc1c2ccccc2[n+](C)c2sc3ccccc3c12

>  <score_type>  (12) 
oracle

>  <origin>  (12) 
adg

>  <m_score__min__energy>  (12) 
-5.4900000000000002

>  <m_primary>  (12) 
energy

$$$$
12:0
     RDKit          3D

 33 35  0  0  0  0  0  0  0  0999 V2000
   58.2380   22.4100   44.9950 C   0  0  0  0  0  0  0  0  0  0  0  0
   57.8410   23.3420   45.9960 O   0  0  0  0  0  0  0  0  0  0  0  0
   57.7420   24.7270   45.7930 C   0  0  0  0  0  0  0  0  0  0  0  0
   57.8770   25.3160   44.5230 C   0  0  0  0  0  0  0  0  0  0  0  0
   57.7700   26.7020   44.3730 C   0  0  0  0  0  0  0  0  0  0  0  0
   57.5270   27.5280   45.4870 C   0  0  0  0  0  0  0  0  0  0  0  0
   57.4130   28.9600   45.3510 N   0  0  0  0  0  0  0  0  0  0  0  0
   58.3190   29.9030   45.6800 C   0  0  0  0  0  0  0  0  0  0  0  0
   57.7480   31.1230   45.3710 C   0  0  0  0  0  0  0  0  0  0  0  0
   58.3340   32.4730   45.5450 C   0  0  0  0  0  0  0  0  0  0  0  0
   58.7200   32.9100   46.8260 C   0  0  0  0  0  0  0  0  0  0  0  0
   59.2740   34.1800   47.0050 C   0  0  0  0  0  0  0  0  0  0  0  0
   59.4500   35.0330   45.9130 C   0  0  0  0  0  0  0  0  0  0  0  0
   60.0030   36.2960   46.1070 O   0  0  0  0  0  0  0  0  0  0  0  0
   59.0690   34.6080   44.6320 C   0  0  0  0  0  0  0  0  0  0  0  0
   58.5140   33.3370   44.4490 C   0  0  0  0  0  0  0  0  0  0  0  0
   56.5180   30.8880   44.8670 N   0  0  0  0  0  0  0  0  0  0  0  0
   56.3430   29.5750   44.8680 N   0  0  0  0  0  0  0  0  0  0  0  0
   57.3910   26.9290   46.7530 C   0  0  0  0  0  0  0  0  0  0  0  0
   57.4980   25.5450   46.9010 C   0  0  0  0  0  0  0  0  0  0  0  0
   58.6259   21.4994   45.4750 H   0  0  0  0  0  0  0  0  0  0  0  0
   57.3711   22.1534   44.3684 H   0  0  0  0  0  0  0  0  0  0  0  0
   59.0237   22.8573   44.3684 H   0  0  0  0  0  0  0  0  0  0  0  0
   58.0677   24.6833   43.6436 H   0  0  0  0  0  0  0  0  0  0  0  0
   57.8767   27.1515   43.3747 H   0  0  0  0  0  0  0  0  0  0  0  0
   59.3172   29.7342   46.1102 H   0  0  0  0  0  0  0  0  0  0  0  0
   58.5845   32.2465   47.6929 H   0  0  0  0  0  0  0  0  0  0  0  0
   59.5731   34.5098   48.0109 H   0  0  0  0  0  0  0  0  0  0  0  0
   59.6090   36.9500   46.7730 H   0  0  0  0  0  0  0  0  0  0  0  0
   59.2069   35.2758   43.7689 H   0  0  0  0  0  0  0  0  0  0  0  0
   58.2163   33.0108   43.4416 H   0  0  0  0  0  0  0  0  0  0  0  0
   57.1984   27.5576   47.6349 H   0  0  0  0  0  0  0  0  0  0  0  0
   57.3894   25.0936   47.8982 H   0  0  0  0  0  0  0  0  0  0  0  0
  1  2  1  0
  2  3  1  0
  3  4  2  0
  4  5  1  0
  5  6  2  0
  6  7  1  0
  7  8  1  0
  8  9  2  0
  9 10  1  0
 10 11  2  0
 11 12  1  0
 12 13  2  0
 13 14  1  0
 13 15  1  0
 15 16  2  0
  9 17  1  0
 17 18  2  0
  6 19  1  0
 19 20  2  0
 20  3  1  0
 18  7  1  0
 16 10  1  0
  1 21  1  0
  1 22  1  0
  1 23  1  0
  4 24  1  0
  5 25  1  0
  8 26  1  0
 11 27  1  0
 12 28  1  0
 14 29  1  0
 15 30  1  0
 16 31  1  0
 19 32  1  0
 20 33  1  0
M  END
>  <UniqueID>  (13) 
12

>  <SMILES>  (13) 
COc1ccc(-n2cc(-c3ccc(O)cc3)nn2)cc1

>  <Energy>  (13) 
73.34885894357056

>  <Genealogy>  (13) 
COc1ccc(-n2cc(-c3ccc(O)cc3)nn2)cc1 (3D coordinates assigned)
COc1ccc(-n2cc(-c3ccc(O)cc3)nn2)cc1 (optimized conformer: 73.34885894357056 kcal/mol)

>  <smiles>  (13) 
COc1ccc(-n2cc(-c3ccc(O)cc3)nn2)cc1

>  <score_type>  (13) 
oracle

>  <origin>  (13) 
adg

>  <m_score__min__energy>  (13) 
-6.9000000000000004

>  <m_primary>  (13) 
energy

$$$$
13:0
     RDKit          3D

 42 44  0  0  0  0  0  0  0  0999 V2000
   55.0140   25.3090   45.6310 C   0  0  0  0  0  0  0  0  0  0  0  0
   55.5350   26.6200   45.8170 O   0  0  0  0  0  0  0  0  0  0  0  0
   56.8820   26.9150   46.0890 C   0  0  0  0  0  0  0  0  0  0  0  0
   57.6660   26.0840   46.9150 C   0  0  0  0  0  0  0  0  0  0  0  0
   58.9880   26.4220   47.2100 C   0  0  0  0  0  0  0  0  0  0  0  0
   59.5440   27.5900   46.6900 C   0  0  0  0  0  0  0  0  0  0  0  0
   58.7840   28.4190   45.8650 C   0  0  0  0  0  0  0  0  0  0  0  0
   57.4570   28.0840   45.5440 C   0  0  0  0  0  0  0  0  0  0  0  0
   56.6920   28.9740   44.6440 C   0  0  0  0  0  0  0  0  0  0  0  0
   55.5160   29.3050   44.9610 O   0  0  0  0  0  0  0  0  0  0  0  0
   57.2940   29.5100   43.4540 N   0  0  0  0  0  0  0  0  0  0  0  0
   56.6480   30.5440   42.6450 C   0  0  0  0  0  0  0  0  0  0  0  0
   57.4870   31.8250   42.6300 C   0  0  0  0  0  0  0  0  0  0  0  0
   57.8180   32.2770   44.0210 C   0  0  0  0  0  0  0  0  0  0  0  0
   57.4800   33.5370   44.5100 C   0  0  0  0  0  0  0  0  0  0  0  0
   58.1240   33.6710   46.0560 S   0  0  0  0  0  0  0  0  0  0  0  0
   58.8070   32.1290   46.0420 C   0  0  0  0  0  0  0  0  0  0  0  0
   59.5950   31.5190   47.1370 C   0  0  0  0  0  0  0  0  0  0  0  0
   58.9640   30.8000   48.1690 C   0  0  0  0  0  0  0  0  0  0  0  0
   59.7200   30.2290   49.1980 C   0  0  0  0  0  0  0  0  0  0  0  0
   61.1090   30.3690   49.2080 C   0  0  0  0  0  0  0  0  0  0  0  0
   61.7460   31.0800   48.1900 C   0  0  0  0  0  0  0  0  0  0  0  0
   60.9960   31.6540   47.1590 C   0  0  0  0  0  0  0  0  0  0  0  0
   58.5570   31.5080   44.8660 N   0  0  0  0  0  0  0  0  0  0  0  0
   54.8297   24.8452   46.6113 H   0  0  0  0  0  0  0  0  0  0  0  0
   54.0701   25.3659   45.0690 H   0  0  0  0  0  0  0  0  0  0  0  0
   55.7394   24.7025   45.0690 H   0  0  0  0  0  0  0  0  0  0  0  0
   57.2327   25.1621   47.3303 H   0  0  0  0  0  0  0  0  0  0  0  0
   59.5920   25.7657   47.8538 H   0  0  0  0  0  0  0  0  0  0  0  0
   60.5833   27.8581   46.9307 H   0  0  0  0  0  0  0  0  0  0  0  0
   59.2264   29.3421   45.4624 H   0  0  0  0  0  0  0  0  0  0  0  0
   58.3060   29.3240   43.2730 H   0  0  0  0  0  0  0  0  0  0  0  0
   56.5325   30.1763   41.6147 H   0  0  0  0  0  0  0  0  0  0  0  0
   55.6647   30.7713   43.0825 H   0  0  0  0  0  0  0  0  0  0  0  0
   58.4223   31.6342   42.0834 H   0  0  0  0  0  0  0  0  0  0  0  0
   56.9027   32.6165   42.1380 H   0  0  0  0  0  0  0  0  0  0  0  0
   56.8972   34.3048   43.9801 H   0  0  0  0  0  0  0  0  0  0  0  0
   57.8699   30.6863   48.1665 H   0  0  0  0  0  0  0  0  0  0  0  0
   59.2191   29.6685   50.0010 H   0  0  0  0  0  0  0  0  0  0  0  0
   61.7013   29.9189   50.0183 H   0  0  0  0  0  0  0  0  0  0  0  0
   62.8405   31.1891   48.1987 H   0  0  0  0  0  0  0  0  0  0  0  0
   61.5038   32.2145   46.3602 H   0  0  0  0  0  0  0  0  0  0  0  0
  1  2  1  0
  2  3  1  0
  3  4  2  0
  4  5  1  0
  5  6  2  0
  6  7  1  0
  7  8  2  0
  8  9  1  0
  9 10  2  0
  9 11  1  0
 11 12  1  0
 12 13  1  0
 13 14  1  0
 14 15  2  0
 15 16  1  0
 16 17  1  0
 17 18  1  0
 18 19  2  0
 19 20  1  0
 20 21  2  0
 21 22  1  0
 22 23  2  0
 17 24  2  0
  8  3  1  0
 24 14  1  0
 23 18  1  0
  1 25  1  0
  1 26  1  0
  1 27  1  0
  4 28  1  0
  5 29  1  0
  6 30  1  0
  7 31  1  0
 11 32  1  0
 12 33  1  0
 12 34  1  0
 13 35  1  0
 13 36  1  0
 15 37  1  0
 19 38  1  0
 20 39  1  0
 21 40  1  0
 22 41  1  0
 23 42  1  0
M  END
>  <UniqueID>  (14) 
13

>  <SMILES>  (14) 
COc1ccccc1C(=O)NCCc1csc(-c2ccccc2)n1

>  <Energy>  (14) 
72.63730725086097

>  <Genealogy>  (14) 
COc1ccccc1C(=O)NCCc1csc(-c2ccccc2)n1 (3D coordinates assigned)
COc1ccccc1C(=O)NCCc1csc(-c2ccccc2)n1 (optimized conformer: 72.63730725086097 kcal/mol)

>  <smiles>  (14) 
COc1ccccc1C(=O)NCCc1csc(-c2ccccc2)n1

>  <score_type>  (14) 
oracle

>  <origin>  (14) 
adg

>  <m_score__min__energy>  (14) 
-8.4399999999999995

>  <m_primary>  (14) 
energy

$$$$
14:0
     RDKit          3D

 60 63  0  0  0  0  0  0  0  0999 V2000
   66.0300   32.6290   50.0540 C   0  0  0  0  0  0  0  0  0  0  0  0
   64.5870   33.1020   49.8440 C   0  0  0  0  0  0  0  0  0  0  0  0
   64.1440   32.9460   48.4320 N   0  0  0  0  0  0  0  0  0  0  0  0
   63.1540   34.0020   48.0810 C   0  0  0  0  0  0  0  0  0  0  0  0
   62.1750   34.2860   49.2280 C   0  0  0  0  0  0  0  0  0  0  0  0
   63.5520   31.5970   48.2230 C   0  0  0  0  0  0  0  0  0  0  0  0
   62.4820   31.5990   47.1190 C   0  0  0  0  0  0  0  0  0  0  0  0
   61.1450   31.5520   47.7100 N   0  0  0  0  0  0  0  0  0  0  0  0
   60.0060   31.1390   46.9330 C   0  0  0  0  0  0  0  0  0  0  0  0
   59.2190   32.0960   46.2690 C   0  0  0  0  0  0  0  0  0  0  0  0
   59.4370   33.4770   46.4510 C   0  0  0  0  0  0  0  0  0  0  0  0
   58.6760   34.4150   45.7570 C   0  0  0  0  0  0  0  0  0  0  0  0
   57.6830   33.9950   44.8780 C   0  0  0  0  0  0  0  0  0  0  0  0
   57.4410   32.6340   44.6930 C   0  0  0  0  0  0  0  0  0  0  0  0
   58.1970   31.6580   45.3870 C   0  0  0  0  0  0  0  0  0  0  0  0
   57.9650   30.3110   45.2130 N   0  0  0  0  0  0  0  0  0  0  0  0
   57.3430   29.8620   43.9480 C   0  0  0  0  0  0  0  0  0  0  0  0
   58.5080   29.3960   46.0990 C   0  0  0  0  0  0  0  0  0  0  0  0
   59.6410   29.7800   46.8670 C   0  0  0  0  0  0  0  0  0  0  0  0
   60.3980   28.7950   47.5290 C   0  0  0  0  0  0  0  0  0  0  0  0
   60.0120   27.4610   47.5000 C   0  0  0  0  0  0  0  0  0  0  0  0
   58.8040   27.0900   46.9100 C   0  0  0  0  0  0  0  0  0  0  0  0
   58.3610   25.7640   47.0110 C   0  0  0  0  0  0  0  0  0  0  0  0
   57.0990   25.4060   46.5470 C   0  0  0  0  0  0  0  0  0  0  0  0
   56.2410   26.3690   46.0160 C   0  0  0  0  0  0  0  0  0  0  0  0
   54.9540   25.9690   45.6260 O   0  0  0  0  0  0  0  0  0  0  0  0
   54.5710   24.6210   45.3730 C   0  0  0  0  0  0  0  0  0  0  0  0
   56.6870   27.6990   45.8990 C   0  0  0  0  0  0  0  0  0  0  0  0
   58.0040   28.0650   46.2590 C   0  0  0  0  0  0  0  0  0  0  0  0
   66.2401   32.5601   51.1315 H   0  0  0  0  0  0  0  0  0  0  0  0
   66.1629   31.6403   49.5906 H   0  0  0  0  0  0  0  0  0  0  0  0
   66.7224   33.3472   49.5906 H   0  0  0  0  0  0  0  0  0  0  0  0
   63.9226   32.5105   50.4911 H   0  0  0  0  0  0  0  0  0  0  0  0
   64.5424   34.1719   50.0956 H   0  0  0  0  0  0  0  0  0  0  0  0
   64.9780   33.0490   47.8060 H   0  0  0  0  0  0  0  0  0  0  0  0
   63.6955   34.9287   47.8403 H   0  0  0  0  0  0  0  0  0  0  0  0
   62.5699   33.6434   47.2207 H   0  0  0  0  0  0  0  0  0  0  0  0
   62.6856   34.1379   50.1910 H   0  0  0  0  0  0  0  0  0  0  0  0
   61.8190   35.3244   49.1576 H   0  0  0  0  0  0  0  0  0  0  0  0
   61.3186   33.5993   49.1576 H   0  0  0  0  0  0  0  0  0  0  0  0
   64.3529   30.8984   47.9393 H   0  0  0  0  0  0  0  0  0  0  0  0
   63.0686   31.2903   49.1623 H   0  0  0  0  0  0  0  0  0  0  0  0
   62.5816   32.5152   46.5184 H   0  0  0  0  0  0  0  0  0  0  0  0
   62.6233   30.7140   46.4812 H   0  0  0  0  0  0  0  0  0  0  0  0
   61.0730   31.5420   48.7510 H   0  0  0  0  0  0  0  0  0  0  0  0
   60.2164   33.8175   47.1485 H   0  0  0  0  0  0  0  0  0  0  0  0
   58.8606   35.4894   45.9043 H   0  0  0  0  0  0  0  0  0  0  0  0
   57.0873   34.7380   44.3276 H   0  0  0  0  0  0  0  0  0  0  0  0
   56.6511   32.3138   43.9976 H   0  0  0  0  0  0  0  0  0  0  0  0
   56.4698   29.2317   44.1722 H   0  0  0  0  0  0  0  0  0  0  0  0
   57.0227   30.7385   43.3656 H   0  0  0  0  0  0  0  0  0  0  0  0
   58.0740   29.2820   43.3656 H   0  0  0  0  0  0  0  0  0  0  0  0
   61.3069   29.0854   48.0763 H   0  0  0  0  0  0  0  0  0  0  0  0
   60.6624   26.6933   47.9446 H   0  0  0  0  0  0  0  0  0  0  0  0
   59.0150   25.0018   47.4598 H   0  0  0  0  0  0  0  0  0  0  0  0
   56.7756   24.3559   46.5993 H   0  0  0  0  0  0  0  0  0  0  0  0
   54.4220   24.0967   46.3284 H   0  0  0  0  0  0  0  0  0  0  0  0
   53.6336   24.6080   44.7976 H   0  0  0  0  0  0  0  0  0  0  0  0
   55.3615   24.1171   44.7976 H   0  0  0  0  0  0  0  0  0  0  0  0
   55.9976   28.4680   45.5203 H   0  0  0  0  0  0  0  0  0  0  0  0
  1  2  1  0
  2  3  1  0
  3  4  1  0
  4  5  1  0
  3  6  1  0
  6  7  1  0
  7  8  1  0
  8  9  1  0
  9 10  2  0
 10 11  1  0
 11 12  2  0
 12 13  1  0
 13 14  2  0
 14 15  1  0
 15 16  2  0
 16 17  1  0
 16 18  1  0
 18 19  2  0
 19 20  1  0
 20 21  2  0
 21 22  1  0
 22 23  2  0
 23 24  1  0
 24 25  2  0
 25 26  1  0
 26 27  1  0
 25 28  1  0
 28 29  2  0
 19  9  1  0
 29 22  1  0
 15 10  1  0
 29 18  1  0
  1 30  1  0
  1 31  1  0
  1 32  1  0
  2 33  1  0
  2 34  1  0
  3 35  1  0
  4 36  1  0
  4 37  1  0
  5 38  1  0
  5 39  1  0
  5 40  1  0
  6 41  1  0
  6 42  1  0
  7 43  1  0
  7 44  1  0
  8 45  1  0
 11 46  1  0
 12 47  1  0
 13 48  1  0
 14 49  1  0
 17 50  1  0
 17 51  1  0
 17 52  1  0
 20 53  1  0
 21 54  1  0
 23 55  1  0
 24 56  1  0
 27 57  1  0
 27 58  1  0
 27 59  1  0
 28 60  1  0
M  CHG  2   3   1  16   1
M  END
>  <UniqueID>  (15) 
14

>  <SMILES>  (15) 
CC[NH+](CC)CCNc1c2ccccc2[n+](C)c2c1ccc1ccc(OC)cc12

>  <Energy>  (15) 
103.76820803243639

>  <Genealogy>  (15) 
CC[NH+](CC)CCNc1c2ccccc2[n+](C)c2c1ccc1ccc(OC)cc12 (protonated)
CC[NH+](CC)CCNc1c2ccccc2[n+](C)c2c1ccc1ccc(OC)cc12 (3D coordinates assigned)
CC[NH+](CC)CCNc1c2ccccc2[n+](C)c2c1ccc1ccc(OC)cc12 (optimized conformer: 103.76820803243639 kcal/mol)

>  <smiles>  (15) 
CCN(CC)CCNc1c2ccccc2[n+](C)c2c1ccc1ccc(OC)cc12

>  <score_type>  (15) 
oracle

>  <origin>  (15) 
adg

>  <m_score__min__energy>  (15) 
-6.3700000000000001

>  <m_primary>  (15) 
energy

$$$$
15:0
     RDKit          3D

 47 47  0  0  0  0  0  0  0  0999 V2000
   56.6430   26.6000   45.9940 C   0  0  0  0  0  0  0  0  0  0  0  0
   55.9130   27.7630   45.6140 O   0  0  0  0  0  0  0  0  0  0  0  0
   56.5000   28.9470   45.1440 C   0  0  0  0  0  0  0  0  0  0  0  0
   57.7090   29.4480   45.6600 C   0  0  0  0  0  0  0  0  0  0  0  0
   58.2510   30.6340   45.1580 C   0  0  0  0  0  0  0  0  0  0  0  0
   57.6010   31.3420   44.1410 C   0  0  0  0  0  0  0  0  0  0  0  0
   58.1900   32.5300   43.6800 O   0  0  0  0  0  0  0  0  0  0  0  0
   58.8760   33.4880   44.4880 C   0  0  0  0  0  0  0  0  0  0  0  0
   58.0530   33.8660   45.7280 C   0  0  0  0  0  0  0  0  0  0  0  0
   58.9090   34.6510   46.7570 C   0  0  0  0  0  0  0  0  0  0  0  0
   59.8510   33.8420   47.6060 N   0  0  0  0  0  0  0  0  0  0  0  0
   59.4430   32.4170   47.5620 C   0  0  0  0  0  0  0  0  0  0  0  0
   59.8030   34.3300   49.0090 C   0  0  0  0  0  0  0  0  0  0  0  0
   61.2290   34.0500   47.0260 C   0  0  0  0  0  0  0  0  0  0  0  0
   62.4930   33.3810   47.6740 C   0  0  0  0  0  0  0  0  0  0  0  0
   62.9620   34.0220   48.9920 C   0  0  0  0  0  0  0  0  0  0  0  0
   63.6670   33.0870   46.7340 C   0  0  0  0  0  0  0  0  0  0  0  0
   56.3950   30.8360   43.6200 C   0  0  0  0  0  0  0  0  0  0  0  0
   55.8520   29.6500   44.1230 C   0  0  0  0  0  0  0  0  0  0  0  0
   56.6838   26.5350   47.0913 H   0  0  0  0  0  0  0  0  0  0  0  0
   56.1437   25.7061   45.5920 H   0  0  0  0  0  0  0  0  0  0  0  0
   57.6651   26.6610   45.5920 H   0  0  0  0  0  0  0  0  0  0  0  0
   58.2297   28.9040   46.4618 H   0  0  0  0  0  0  0  0  0  0  0  0
   59.1986   31.0151   45.5665 H   0  0  0  0  0  0  0  0  0  0  0  0
   59.8363   33.0607   44.8123 H   0  0  0  0  0  0  0  0  0  0  0  0
   59.0359   34.3961   43.8882 H   0  0  0  0  0  0  0  0  0  0  0  0
   57.2038   34.4921   45.4169 H   0  0  0  0  0  0  0  0  0  0  0  0
   57.7004   32.9398   46.2054 H   0  0  0  0  0  0  0  0  0  0  0  0
   59.5089   35.3861   46.2004 H   0  0  0  0  0  0  0  0  0  0  0  0
   58.1865   35.0886   47.4617 H   0  0  0  0  0  0  0  0  0  0  0  0
   59.3336   32.0351   48.5878 H   0  0  0  0  0  0  0  0  0  0  0  0
   58.4829   32.3267   47.0328 H   0  0  0  0  0  0  0  0  0  0  0  0
   60.2098   31.8322   47.0328 H   0  0  0  0  0  0  0  0  0  0  0  0
   59.8870   33.4761   49.6973 H   0  0  0  0  0  0  0  0  0  0  0  0
   60.6371   35.0255   49.1840 H   0  0  0  0  0  0  0  0  0  0  0  0
   58.8494   34.8496   49.1840 H   0  0  0  0  0  0  0  0  0  0  0  0
   61.1866   33.6944   45.9859 H   0  0  0  0  0  0  0  0  0  0  0  0
   61.4057   35.1208   47.2053 H   0  0  0  0  0  0  0  0  0  0  0  0
   62.0886   32.3911   47.9320 H   0  0  0  0  0  0  0  0  0  0  0  0
   62.5492   33.4579   49.8413 H   0  0  0  0  0  0  0  0  0  0  0  0
   64.0609   34.0028   49.0384 H   0  0  0  0  0  0  0  0  0  0  0  0
   62.6112   35.0635   49.0384 H   0  0  0  0  0  0  0  0  0  0  0  0
   64.5650   32.8621   47.3281 H   0  0  0  0  0  0  0  0  0  0  0  0
   63.4212   32.2227   46.0996 H   0  0  0  0  0  0  0  0  0  0  0  0
   63.8575   33.9652   46.0996 H   0  0  0  0  0  0  0  0  0  0  0  0
   55.8776   31.3762   42.8135 H   0  0  0  0  0  0  0  0  0  0  0  0
   54.9066   29.2662   43.7121 H   0  0  0  0  0  0  0  0  0  0  0  0
  1  2  1  0
  2  3  1  0
  3  4  2  0
  4  5  1  0
  5  6  2  0
  6  7  1  0
  7  8  1  0
  8  9  1  0
  9 10  1  0
 10 11  1  0
 11 12  1  0
 11 13  1  0
 11 14  1  0
 14 15  1  0
 15 16  1  0
 15 17  1  0
  6 18  1  0
 18 19  2  0
 19  3  1  0
  1 20  1  0
  1 21  1  0
  1 22  1  0
  4 23  1  0
  5 24  1  0
  8 25  1  0
  8 26  1  0
  9 27  1  0
  9 28  1  0
 10 29  1  0
 10 30  1  0
 12 31  1  0
 12 32  1  0
 12 33  1  0
 13 34  1  0
 13 35  1  0
 13 36  1  0
 14 37  1  0
 14 38  1  0
 15 39  1  0
 16 40  1  0
 16 41  1  0
 16 42  1  0
 17 43  1  0
 17 44  1  0
 17 45  1  0
 18 46  1  0
 19 47  1  0
M  CHG  1  11   1
M  END
>  <UniqueID>  (16) 
15

>  <SMILES>  (16) 
COc1ccc(OCCC[N+](C)(C)CC(C)C)cc1

>  <Energy>  (16) 
61.10410074647701

>  <Genealogy>  (16) 
COc1ccc(OCCC[N+](C)(C)CC(C)C)cc1 (3D coordinates assigned)
COc1ccc(OCCC[N+](C)(C)CC(C)C)cc1 (optimized conformer: 61.10410074647701 kcal/mol)

>  <smiles>  (16) 
COc1ccc(OCCC[N+](C)(C)CC(C)C)cc1

>  <score_type>  (16) 
oracle

>  <origin>  (16) 
adg

>  <m_score__min__energy>  (16) 
-4.3200000000000003

>  <m_primary>  (16) 
energy

$$$$
16:0
     RDKit          3D

 43 46  0  0  0  0  0  0  0  0999 V2000
   63.3770   33.0880   46.8680 C   0  0  0  0  0  0  0  0  0  0  0  0
   62.5490   32.6490   48.0440 C   0  0  0  0  0  0  0  0  0  0  0  0
   62.5910   33.4250   49.2170 C   0  0  0  0  0  0  0  0  0  0  0  0
   61.8780   33.0400   50.3530 C   0  0  0  0  0  0  0  0  0  0  0  0
   61.1190   31.8750   50.3380 C   0  0  0  0  0  0  0  0  0  0  0  0
   61.0500   31.0990   49.1800 C   0  0  0  0  0  0  0  0  0  0  0  0
   61.7210   31.4890   48.0020 C   0  0  0  0  0  0  0  0  0  0  0  0
   61.6150   30.6550   46.8190 N   0  0  0  0  0  0  0  0  0  0  0  0
   60.2400   30.3540   46.4730 C   0  0  0  0  0  0  0  0  0  0  0  0
   59.2350   31.3310   46.3440 C   0  0  0  0  0  0  0  0  0  0  0  0
   59.3860   32.7990   46.3920 C   0  0  0  0  0  0  0  0  0  0  0  0
   59.3420   33.4680   47.6260 C   0  0  0  0  0  0  0  0  0  0  0  0
   59.4640   34.8600   47.6770 C   0  0  0  0  0  0  0  0  0  0  0  0
   59.6130   35.5940   46.4970 C   0  0  0  0  0  0  0  0  0  0  0  0
   59.6340   34.9380   45.2640 C   0  0  0  0  0  0  0  0  0  0  0  0
   59.5150   33.5460   45.2090 C   0  0  0  0  0  0  0  0  0  0  0  0
   57.7600   30.5640   46.0650 S   0  0  0  0  0  0  0  0  0  0  0  0
   58.3640   28.9970   46.0430 C   0  0  0  0  0  0  0  0  0  0  0  0
   57.6790   27.7860   45.8130 C   0  0  0  0  0  0  0  0  0  0  0  0
   56.2530   27.7250   45.6090 N   0  0  0  0  0  0  0  0  0  0  0  0
   55.5840   26.7450   45.9950 O   0  0  0  0  0  0  0  0  0  0  0  0
   55.6060   28.7350   44.9330 O   0  0  0  0  0  0  0  0  0  0  0  0
   58.4470   26.6050   45.7810 C   0  0  0  0  0  0  0  0  0  0  0  0
   59.8390   26.6470   45.9620 C   0  0  0  0  0  0  0  0  0  0  0  0
   60.4920   27.8640   46.1900 C   0  0  0  0  0  0  0  0  0  0  0  0
   59.7420   29.0450   46.2490 C   0  0  0  0  0  0  0  0  0  0  0  0
   64.2955   33.5750   47.2276 H   0  0  0  0  0  0  0  0  0  0  0  0
   63.6413   32.2116   46.2581 H   0  0  0  0  0  0  0  0  0  0  0  0
   62.7999   33.7986   46.2581 H   0  0  0  0  0  0  0  0  0  0  0  0
   63.1927   34.3456   49.2387 H   0  0  0  0  0  0  0  0  0  0  0  0
   61.9164   33.6589   51.2616 H   0  0  0  0  0  0  0  0  0  0  0  0
   60.5720   31.5645   51.2404 H   0  0  0  0  0  0  0  0  0  0  0  0
   60.4632   30.1686   49.1860 H   0  0  0  0  0  0  0  0  0  0  0  0
   62.1140   29.7440   46.9560 H   0  0  0  0  0  0  0  0  0  0  0  0
   62.1080   31.1500   46.0440 H   0  0  0  0  0  0  0  0  0  0  0  0
   59.2111   32.8949   48.5557 H   0  0  0  0  0  0  0  0  0  0  0  0
   59.4427   35.3781   48.6471 H   0  0  0  0  0  0  0  0  0  0  0  0
   59.7138   36.6886   46.5393 H   0  0  0  0  0  0  0  0  0  0  0  0
   59.7443   35.5171   44.3353 H   0  0  0  0  0  0  0  0  0  0  0  0
   59.5224   33.0336   44.2357 H   0  0  0  0  0  0  0  0  0  0  0  0
   57.9501   25.6383   45.6122 H   0  0  0  0  0  0  0  0  0  0  0  0
   60.4217   25.7148   45.9243 H   0  0  0  0  0  0  0  0  0  0  0  0
   61.5837   27.8923   46.3215 H   0  0  0  0  0  0  0  0  0  0  0  0
  1  2  1  0
  2  3  2  0
  3  4  1  0
  4  5  2  0
  5  6  1  0
  6  7  2  0
  7  8  1  0
  8  9  1  0
  9 10  2  0
 10 11  1  0
 11 12  2  0
 12 13  1  0
 13 14  2  0
 14 15  1  0
 15 16  2  0
 10 17  1  0
 17 18  1  0
 18 19  2  0
 19 20  1  0
 20 21  2  0
 20 22  1  0
 19 23  1  0
 23 24  2  0
 24 25  1  0
 25 26  2  0
  7  2  1  0
 26  9  1  0
 16 11  1  0
 26 18  1  0
  1 27  1  0
  1 28  1  0
  1 29  1  0
  3 30  1  0
  4 31  1  0
  5 32  1  0
  6 33  1  0
  8 34  1  0
  8 35  1  0
 12 36  1  0
 13 37  1  0
 14 38  1  0
 15 39  1  0
 16 40  1  0
 23 41  1  0
 24 42  1  0
 25 43  1  0
M  CHG  3   8   1  20   1  22  -1
M  END
>  <UniqueID>  (17) 
16

>  <SMILES>  (17) 
Cc1ccccc1[NH2+]c1c(-c2ccccc2)sc2c([N+](=O)[O-])cccc12

>  <Energy>  (17) 
92.28147099004325

>  <Genealogy>  (17) 
Cc1ccccc1[NH2+]c1c(-c2ccccc2)sc2c([N+](=O)[O-])cccc12 (protonated)
Cc1ccccc1[NH2+]c1c(-c2ccccc2)sc2c([N+](=O)[O-])cccc12 (3D coordinates assigned)
Cc1ccccc1[NH2+]c1c(-c2ccccc2)sc2c([N+](=O)[O-])cccc12 (optimized conformer: 92.28147099004325 kcal/mol)

>  <smiles>  (17) 
Cc1ccccc1Nc1c(-c2ccccc2)sc2c([N+](=O)[O-])cccc12

>  <score_type>  (17) 
oracle

>  <origin>  (17) 
adg

>  <m_score__min__energy>  (17) 
-7.3799999999999999

>  <m_primary>  (17) 
energy

$$$$
17:0
     RDKit          3D

 59 61  0  0  0  0  0  0  0  0999 V2000
   61.7000   28.6100   51.1660 C   0  0  0  0  0  0  0  0  0  0  0  0
   61.1390   29.2490   50.0230 O   0  0  0  0  0  0  0  0  0  0  0  0
   60.3260   28.6130   49.0700 C   0  0  0  0  0  0  0  0  0  0  0  0
   60.5010   27.2550   48.7370 C   0  0  0  0  0  0  0  0  0  0  0  0
   59.6930   26.6540   47.7680 C   0  0  0  0  0  0  0  0  0  0  0  0
   58.7100   27.3990   47.1130 C   0  0  0  0  0  0  0  0  0  0  0  0
   57.6460   26.5850   45.7530 Br  0  0  0  0  0  0  0  0  0  0  0  0
   58.5170   28.7420   47.4440 C   0  0  0  0  0  0  0  0  0  0  0  0
   59.3120   29.3560   48.4280 C   0  0  0  0  0  0  0  0  0  0  0  0
   59.1160   30.8210   48.7410 C   0  0  0  0  0  0  0  0  0  0  0  0
   59.5000   31.6430   47.5840 N   0  0  0  0  0  0  0  0  0  0  0  0
   58.6680   32.7860   47.1800 C   0  0  0  0  0  0  0  0  0  0  0  0
   59.4510   34.1080   47.2270 C   0  0  0  0  0  0  0  0  0  0  0  0
   60.7270   34.1450   46.3610 C   0  0  0  0  0  0  0  0  0  0  0  0
   61.9800   33.6070   47.0820 C   0  0  0  0  0  0  0  0  0  0  0  0
   62.0270   32.0550   47.2710 C   0  0  1  0  0  0  0  0  0  0  0  0
   62.4070   31.6910   48.6450 N   0  0  0  0  0  0  0  0  0  0  0  0
   63.6020   32.1820   49.2770 C   0  0  0  0  0  0  0  0  0  0  0  0
   64.3930   32.9300   48.6430 O   0  0  0  0  0  0  0  0  0  0  0  0
   63.9490   31.7580   50.6780 C   0  0  0  0  0  0  0  0  0  0  0  0
   62.8250   32.0850   51.6770 C   0  0  0  0  0  0  0  0  0  0  0  0
   61.5000   32.1940   51.0220 N   0  0  0  0  0  0  0  0  0  0  0  0
   61.1680   33.5990   50.6870 C   0  0  0  0  0  0  0  0  0  0  0  0
   59.6520   33.7780   50.4970 C   0  0  0  0  0  0  0  0  0  0  0  0
   58.8760   33.4400   51.6400 O   0  0  0  0  0  0  0  0  0  0  0  0
   59.5320   32.5560   52.5360 C   0  0  0  0  0  0  0  0  0  0  0  0
   60.4380   31.5350   51.8240 C   0  0  0  0  0  0  0  0  0  0  0  0
   60.7340   31.3620   46.8920 C   0  0  0  0  0  0  0  0  0  0  0  0
   60.7510   30.5180   45.9560 O   0  0  0  0  0  0  0  0  0  0  0  0
   61.2954   29.0708   52.0792 H   0  0  0  0  0  0  0  0  0  0  0  0
   61.4439   27.5403   51.1507 H   0  0  0  0  0  0  0  0  0  0  0  0
   62.7938   28.7254   51.1507 H   0  0  0  0  0  0  0  0  0  0  0  0
   61.2787   26.6641   49.2431 H   0  0  0  0  0  0  0  0  0  0  0  0
   59.8317   25.5912   47.5205 H   0  0  0  0  0  0  0  0  0  0  0  0
   57.7371   29.3239   46.9310 H   0  0  0  0  0  0  0  0  0  0  0  0
   58.0580   31.0030   48.9809 H   0  0  0  0  0  0  0  0  0  0  0  0
   59.7477   31.0923   49.5997 H   0  0  0  0  0  0  0  0  0  0  0  0
   58.3104   32.6205   46.1530 H   0  0  0  0  0  0  0  0  0  0  0  0
   57.8267   32.8621   47.8846 H   0  0  0  0  0  0  0  0  0  0  0  0
   58.7831   34.9118   46.8839 H   0  0  0  0  0  0  0  0  0  0  0  0
   59.7843   34.2293   48.2682 H   0  0  0  0  0  0  0  0  0  0  0  0
   60.5546   33.5351   45.4620 H   0  0  0  0  0  0  0  0  0  0  0  0
   60.9223   35.2004   46.1202 H   0  0  0  0  0  0  0  0  0  0  0  0
   62.8629   33.9052   46.4975 H   0  0  0  0  0  0  0  0  0  0  0  0
   61.9566   34.0364   48.0945 H   0  0  0  0  0  0  0  0  0  0  0  0
   62.8005   31.6993   46.5745 H   0  0  0  0  0  0  0  0  0  0  0  0
   61.7880   31.0640   49.2070 H   0  0  0  0  0  0  0  0  0  0  0  0
   64.1263   30.6724   50.6864 H   0  0  0  0  0  0  0  0  0  0  0  0
   64.8481   32.3116   50.9866 H   0  0  0  0  0  0  0  0  0  0  0  0
   62.7808   31.2867   52.4325 H   0  0  0  0  0  0  0  0  0  0  0  0
   63.0547   33.0595   52.1326 H   0  0  0  0  0  0  0  0  0  0  0  0
   61.5078   34.2532   51.5034 H   0  0  0  0  0  0  0  0  0  0  0  0
   61.6723   33.8630   49.7457 H   0  0  0  0  0  0  0  0  0  0  0  0
   59.4579   34.8317   50.2478 H   0  0  0  0  0  0  0  0  0  0  0  0
   59.3507   33.0873   49.6956 H   0  0  0  0  0  0  0  0  0  0  0  0
   60.1495   33.1509   53.2251 H   0  0  0  0  0  0  0  0  0  0  0  0
   58.7525   31.9887   53.0657 H   0  0  0  0  0  0  0  0  0  0  0  0
   60.9121   30.8930   52.5810 H   0  0  0  0  0  0  0  0  0  0  0  0
   59.8112   30.9468   51.1377 H   0  0  0  0  0  0  0  0  0  0  0  0
  1  2  1  0
  2  3  1  0
  3  4  2  0
  4  5  1  0
  5  6  2  0
  6  7  1  0
  6  8  1  0
  8  9  2  0
  9 10  1  0
 10 11  1  0
 11 12  1  0
 12 13  1  0
 13 14  1  0
 14 15  1  0
 15 16  1  0
 16 17  1  0
 17 18  1  0
 18 19  2  0
 18 20  1  0
 20 21  1  0
 21 22  1  0
 22 23  1  0
 23 24  1  0
 24 25  1  0
 25 26  1  0
 26 27  1  0
 16 28  1  0
 28 29  2  0
  9  3  1  0
 28 11  1  0
 27 22  1  0
  1 30  1  0
  1 31  1  0
  1 32  1  0
  4 33  1  0
  5 34  1  0
  8 35  1  0
 10 36  1  0
 10 37  1  0
 12 38  1  0
 12 39  1  0
 13 40  1  0
 13 41  1  0
 14 42  1  0
 14 43  1  0
 15 44  1  0
 15 45  1  0
 16 46  1  6
 17 47  1  0
 20 48  1  0
 20 49  1  0
 21 50  1  0
 21 51  1  0
 23 52  1  0
 23 53  1  0
 24 54  1  0
 24 55  1  0
 26 56  1  0
 26 57  1  0
 27 58  1  0
 27 59  1  0
M  END
>  <UniqueID>  (18) 
17

>  <SMILES>  (18) 
COc1ccc(Br)cc1CN1CCCC[C@@H](NC(=O)CCN2CCOCC2)C1=O

>  <Energy>  (18) 
70.77955796327021

>  <Genealogy>  (18) 
COc1ccc(Br)cc1CN1CCCC[C@@H](NC(=O)CCN2CCOCC2)C1=O (chirality)
COc1ccc(Br)cc1CN1CCCC[C@@H](NC(=O)CCN2CCOCC2)C1=O (3D coordinates assigned)
COc1ccc(Br)cc1CN1CCCC[C@@H](NC(=O)CCN2CCOCC2)C1=O (nonaromatic ring conformer: 70.77955796327021 kcal/mol)

>  <smiles>  (18) 
COc1ccc(Br)cc1CN1CCCCC(NC(=O)CCN2CCOCC2)C1=O

>  <score_type>  (18) 
oracle

>  <origin>  (18) 
adg

>  <m_score__min__energy>  (18) 
-6.2599999999999998

>  <m_primary>  (18) 
energy

$$$$
18:0
     RDKit          3D

 45 47  0  0  0  0  0  0  0  0999 V2000
   61.5570   32.5340   48.4400 C   0  0  0  0  0  0  0  0  0  0  0  0
   60.6460   33.2110   47.4610 C   0  0  0  0  0  0  0  0  0  0  0  0
   60.5300   34.6100   47.4560 C   0  0  0  0  0  0  0  0  0  0  0  0
   59.6520   35.2390   46.5710 C   0  0  0  0  0  0  0  0  0  0  0  0
   58.8750   34.4800   45.6930 C   0  0  0  0  0  0  0  0  0  0  0  0
   58.9660   33.0770   45.6950 C   0  0  0  0  0  0  0  0  0  0  0  0
   58.1400   32.2670   44.7790 C   0  0  0  0  0  0  0  0  0  0  0  0
   57.2170   31.3710   45.1950 N   0  0  0  0  0  0  0  0  0  0  0  0
   56.7260   30.8820   44.0400 C   0  0  0  0  0  0  0  0  0  0  0  0
   55.7200   29.7780   43.9590 C   0  0  0  0  0  0  0  0  0  0  0  0
   55.6590   29.0320   45.2250 N   0  0  0  0  0  0  0  0  0  0  0  0
   56.6450   27.9370   45.2890 C   0  0  0  0  0  0  0  0  0  0  0  0
   57.9340   28.4170   45.9830 C   0  0  1  0  0  0  0  0  0  0  0  0
   58.6180   27.3070   46.7830 C   0  0  0  0  0  0  0  0  0  0  0  0
   60.1250   27.5540   46.6710 C   0  0  0  0  0  0  0  0  0  0  0  0
   60.3050   28.7670   45.7540 C   0  0  1  0  0  0  0  0  0  0  0  0
   61.5050   28.6250   44.8120 C   0  0  0  0  0  0  0  0  0  0  0  0
   58.9890   28.9090   44.9990 C   0  0  0  0  0  0  0  0  0  0  0  0
   57.3660   31.4750   42.9770 C   0  0  0  0  0  0  0  0  0  0  0  0
   58.2270   32.3300   43.4670 O   0  0  0  0  0  0  0  0  0  0  0  0
   59.8510   32.4490   46.5890 C   0  0  0  0  0  0  0  0  0  0  0  0
   61.2362   32.7724   49.4648 H   0  0  0  0  0  0  0  0  0  0  0  0
   61.5160   31.4455   48.2868 H   0  0  0  0  0  0  0  0  0  0  0  0
   62.5874   32.8873   48.2868 H   0  0  0  0  0  0  0  0  0  0  0  0
   61.1327   35.2126   48.1515 H   0  0  0  0  0  0  0  0  0  0  0  0
   59.5720   36.3361   46.5653 H   0  0  0  0  0  0  0  0  0  0  0  0
   58.1881   34.9826   44.9962 H   0  0  0  0  0  0  0  0  0  0  0  0
   54.7300   30.2074   43.7455 H   0  0  0  0  0  0  0  0  0  0  0  0
   56.0191   29.0870   43.1571 H   0  0  0  0  0  0  0  0  0  0  0  0
   55.8760   29.7100   45.9930 H   0  0  0  0  0  0  0  0  0  0  0  0
   56.2182   27.0973   45.8572 H   0  0  0  0  0  0  0  0  0  0  0  0
   56.8885   27.6150   44.2658 H   0  0  0  0  0  0  0  0  0  0  0  0
   57.5889   29.2317   46.6365 H   0  0  0  0  0  0  0  0  0  0  0  0
   58.3035   27.3489   47.8363 H   0  0  0  0  0  0  0  0  0  0  0  0
   58.3483   26.3137   46.3950 H   0  0  0  0  0  0  0  0  0  0  0  0
   60.5497   27.7630   47.6639 H   0  0  0  0  0  0  0  0  0  0  0  0
   60.6416   26.6715   46.2657 H   0  0  0  0  0  0  0  0  0  0  0  0
   60.5311   29.6712   46.3381 H   0  0  0  0  0  0  0  0  0  0  0  0
   62.4254   28.5161   45.4045 H   0  0  0  0  0  0  0  0  0  0  0  0
   61.3700   27.7366   44.1776 H   0  0  0  0  0  0  0  0  0  0  0  0
   61.5811   29.5204   44.1776 H   0  0  0  0  0  0  0  0  0  0  0  0
   58.8077   29.9592   44.7264 H   0  0  0  0  0  0  0  0  0  0  0  0
   58.9820   28.3409   44.0571 H   0  0  0  0  0  0  0  0  0  0  0  0
   57.1872   31.2687   41.9114 H   0  0  0  0  0  0  0  0  0  0  0  0
   59.9214   31.3514   46.6057 H   0  0  0  0  0  0  0  0  0  0  0  0
  1  2  1  0
  2  3  2  0
  3  4  1  0
  4  5  2  0
  5  6  1  0
  6  7  1  0
  7  8  2  0
  8  9  1  0
  9 10  1  0
 10 11  1  0
 11 12  1  0
 12 13  1  0
 13 14  1  0
 14 15  1  0
 15 16  1  0
 16 17  1  0
 16 18  1  0
  9 19  2  0
 19 20  1  0
  6 21  2  0
 21  2  1  0
 20  7  1  0
 18 13  1  0
  1 22  1  0
  1 23  1  0
  1 24  1  0
  3 25  1  0
  4 26  1  0
  5 27  1  0
 10 28  1  0
 10 29  1  0
 11 30  1  0
 12 31  1  0
 12 32  1  0
 13 33  1  1
 14 34  1  0
 14 35  1  0
 15 36  1  0
 15 37  1  0
 16 38  1  1
 17 39  1  0
 17 40  1  0
 17 41  1  0
 18 42  1  0
 18 43  1  0
 19 44  1  0
 21 45  1  0
M  END
>  <UniqueID>  (19) 
18

>  <SMILES>  (19) 
Cc1cccc(-c2nc(CNC[C@H]3CC[C@@H](C)C3)co2)c1

>  <Energy>  (19) 
70.85570471429958

>  <Genealogy>  (19) 
Cc1cccc(-c2nc(CNC[C@H]3CC[C@@H](C)C3)co2)c1 (chirality)
Cc1cccc(-c2nc(CNC[C@H]3CC[C@@H](C)C3)co2)c1 (3D coordinates assigned)
Cc1cccc(-c2nc(CNC[C@H]3CC[C@@H](C)C3)co2)c1 (nonaromatic ring conformer: 70.85570471429958 kcal/mol)

>  <smiles>  (19) 
Cc1cccc(-c2nc(CNCC3CCC(C)C3)co2)c1

>  <score_type>  (19) 
oracle

>  <origin>  (19) 
adg

>  <m_score__min__energy>  (19) 
-8.1600000000000001

>  <m_primary>  (19) 
energy

$$$$
19:0
     RDKit          3D

 44 45  0  0  0  0  0  0  0  0999 V2000
   65.7640   32.0430   50.4740 C   0  0  0  0  0  0  0  0  0  0  0  0
   65.1760   33.0500   49.4910 C   0  0  0  0  0  0  0  0  0  0  0  0
   63.7270   32.8850   49.3940 N   0  0  0  0  0  0  0  0  0  0  0  0
   63.0390   32.8610   48.1330 C   0  0  0  0  0  0  0  0  0  0  0  0
   63.6990   32.9650   47.0630 O   0  0  0  0  0  0  0  0  0  0  0  0
   61.6040   32.7370   48.0710 N   0  0  0  0  0  0  0  0  0  0  0  0
   60.9440   31.9870   46.9960 C   0  0  0  0  0  0  0  0  0  0  0  0
   59.7790   32.7670   46.4420 C   0  0  0  0  0  0  0  0  0  0  0  0
   58.4640   32.3480   46.7080 C   0  0  0  0  0  0  0  0  0  0  0  0
   57.3790   33.0750   46.2090 C   0  0  0  0  0  0  0  0  0  0  0  0
   57.5970   34.2220   45.4400 C   0  0  0  0  0  0  0  0  0  0  0  0
   58.9020   34.6420   45.1680 C   0  0  0  0  0  0  0  0  0  0  0  0
   59.9910   33.9180   45.6650 C   0  0  0  0  0  0  0  0  0  0  0  0
   60.6410   33.5800   49.2540 S   0  0  0  0  0  0  0  0  0  0  0  0
   61.5550   34.2110   50.2650 O   0  0  0  0  0  0  0  0  0  0  0  0
   59.8140   34.6510   48.5970 O   0  0  0  0  0  0  0  0  0  0  0  0
   59.5450   32.4450   50.0370 C   0  0  0  0  0  0  0  0  0  0  0  0
   58.6530   32.9030   51.0160 C   0  0  0  0  0  0  0  0  0  0  0  0
   57.7640   32.0170   51.6310 C   0  0  0  0  0  0  0  0  0  0  0  0
   57.7630   30.6540   51.2750 C   0  0  0  0  0  0  0  0  0  0  0  0
   56.8900   29.7250   51.8600 O   0  0  0  0  0  0  0  0  0  0  0  0
   55.9820   30.0290   52.9150 C   0  0  0  0  0  0  0  0  0  0  0  0
   58.6610   30.2020   50.3010 C   0  0  0  0  0  0  0  0  0  0  0  0
   59.5480   31.0890   49.6850 C   0  0  0  0  0  0  0  0  0  0  0  0
   65.5683   32.3781   51.5033 H   0  0  0  0  0  0  0  0  0  0  0  0
   65.2983   31.0594   50.3139 H   0  0  0  0  0  0  0  0  0  0  0  0
   66.8495   31.9652   50.3139 H   0  0  0  0  0  0  0  0  0  0  0  0
   65.4018   34.0690   49.8383 H   0  0  0  0  0  0  0  0  0  0  0  0
   65.6205   32.8800   48.4993 H   0  0  0  0  0  0  0  0  0  0  0  0
   63.1900   32.8030   50.2850 H   0  0  0  0  0  0  0  0  0  0  0  0
   61.6682   31.7978   46.1900 H   0  0  0  0  0  0  0  0  0  0  0  0
   60.5716   31.0359   47.4044 H   0  0  0  0  0  0  0  0  0  0  0  0
   58.2879   31.4449   47.3109 H   0  0  0  0  0  0  0  0  0  0  0  0
   56.3519   32.7439   46.4219 H   0  0  0  0  0  0  0  0  0  0  0  0
   56.7421   34.7935   45.0493 H   0  0  0  0  0  0  0  0  0  0  0  0
   59.0732   35.5438   44.5618 H   0  0  0  0  0  0  0  0  0  0  0  0
   61.0164   34.2510   45.4467 H   0  0  0  0  0  0  0  0  0  0  0  0
   58.6525   33.9652   51.3019 H   0  0  0  0  0  0  0  0  0  0  0  0
   57.0633   32.3850   52.3950 H   0  0  0  0  0  0  0  0  0  0  0  0
   56.4765   29.8634   53.8835 H   0  0  0  0  0  0  0  0  0  0  0  0
   55.6694   31.0808   52.8380 H   0  0  0  0  0  0  0  0  0  0  0  0
   55.0991   29.3775   52.8380 H   0  0  0  0  0  0  0  0  0  0  0  0
   58.6686   29.1391   50.0179 H   0  0  0  0  0  0  0  0  0  0  0  0
   60.2501   30.7216   48.9220 H   0  0  0  0  0  0  0  0  0  0  0  0
  1  2  1  0
  2  3  1  0
  3  4  1  0
  4  5  2  0
  4  6  1  0
  6  7  1  0
  7  8  1  0
  8  9  2  0
  9 10  1  0
 10 11  2  0
 11 12  1  0
 12 13  2  0
  6 14  1  0
 14 15  2  0
 14 16  2  0
 14 17  1  0
 17 18  2  0
 18 19  1  0
 19 20  2  0
 20 21  1  0
 21 22  1  0
 20 23  1  0
 23 24  2  0
 13  8  1  0
 24 17  1  0
  1 25  1  0
  1 26  1  0
  1 27  1  0
  2 28  1  0
  2 29  1  0
  3 30  1  0
  7 31  1  0
  7 32  1  0
  9 33  1  0
 10 34  1  0
 11 35  1  0
 12 36  1  0
 13 37  1  0
 18 38  1  0
 19 39  1  0
 22 40  1  0
 22 41  1  0
 22 42  1  0
 23 43  1  0
 24 44  1  0
M  END
>  <UniqueID>  (20) 
19

>  <SMILES>  (20) 
CCNC(=O)N(Cc1ccccc1)S(=O)(=O)c1ccc(OC)cc1

>  <Energy>  (20) 
39.77309401475107

>  <Genealogy>  (20) 
CCNC(=O)N(Cc1ccccc1)S(=O)(=O)c1ccc(OC)cc1 (3D coordinates assigned)
CCNC(=O)N(Cc1ccccc1)S(=O)(=O)c1ccc(OC)cc1 (optimized conformer: 39.77309401475107 kcal/mol)

>  <smiles>  (20) 
CCNC(=O)N(Cc1ccccc1)S(=O)(=O)c1ccc(OC)cc1

>  <score_type>  (20) 
oracle

>  <origin>  (20) 
adg

>  <m_score__min__energy>  (20) 
-7.2300000000000004

>  <m_primary>  (20) 
energy

$$$$
20:0
     RDKit          3D

 59 62  0  0  0  0  0  0  0  0999 V2000
   62.1490   33.8640   46.5870 C   0  0  0  0  0  0  0  0  0  0  0  0
   60.6480   33.8220   46.6640 C   0  0  0  0  0  0  0  0  0  0  0  0
   59.9080   33.7930   45.4670 C   0  0  0  0  0  0  0  0  0  0  0  0
   58.5020   33.7340   45.4890 C   0  0  0  0  0  0  0  0  0  0  0  0
   57.7230   33.7220   44.2780 N   0  0  0  0  0  0  0  0  0  0  0  0
   57.8120   32.6620   43.2730 C   0  0  0  0  0  0  0  0  0  0  0  0
   57.7070   31.3070   43.9230 C   0  0  0  0  0  0  0  0  0  0  0  0
   56.5030   30.5860   43.8610 C   0  0  0  0  0  0  0  0  0  0  0  0
   56.3870   29.3520   44.5070 C   0  0  0  0  0  0  0  0  0  0  0  0
   57.4690   28.8260   45.2260 C   0  0  0  0  0  0  0  0  0  0  0  0
   57.3160   27.2840   46.0600 S   0  0  0  0  0  0  0  0  0  0  0  0
   55.6730   26.7540   45.9900 N   0  0  0  0  0  0  0  0  0  0  0  0
   57.7320   27.4400   47.4970 O   0  0  0  0  0  0  0  0  0  0  0  0
   58.2050   26.2600   45.4090 O   0  0  0  0  0  0  0  0  0  0  0  0
   58.6650   29.5550   45.3060 C   0  0  0  0  0  0  0  0  0  0  0  0
   58.7830   30.7900   44.6620 C   0  0  0  0  0  0  0  0  0  0  0  0
   57.8430   33.6900   46.7250 C   0  0  0  0  0  0  0  0  0  0  0  0
   58.5690   33.6950   47.9160 C   0  0  0  0  0  0  0  0  0  0  0  0
   59.9670   33.7440   47.8990 C   0  0  0  0  0  0  0  0  0  0  0  0
   60.8340   33.7250   49.4780 S   0  0  0  0  0  0  0  0  0  0  0  0
   59.5500   32.7780   50.3000 C   0  0  0  0  0  0  0  0  0  0  0  0
   59.2830   31.4630   49.9040 C   0  0  0  0  0  0  0  0  0  0  0  0
   58.2910   30.7220   50.5530 C   0  0  0  0  0  0  0  0  0  0  0  0
   57.5420   31.2970   51.5940 C   0  0  0  0  0  0  0  0  0  0  0  0
   56.5170   30.5430   52.2660 N   0  0  0  0  0  0  0  0  0  0  0  0
   55.1030   30.8760   52.0620 C   0  0  0  0  0  0  0  0  0  0  0  0
   54.2460   29.6260   52.2890 C   0  0  0  0  0  0  0  0  0  0  0  0
   54.5340   29.0440   53.5480 O   0  0  0  0  0  0  0  0  0  0  0  0
   55.8650   28.5640   53.5600 C   0  0  0  0  0  0  0  0  0  0  0  0
   56.8640   29.7180   53.4270 C   0  0  0  0  0  0  0  0  0  0  0  0
   57.8050   32.6230   51.9750 C   0  0  0  0  0  0  0  0  0  0  0  0
   58.8040   33.3580   51.3310 C   0  0  0  0  0  0  0  0  0  0  0  0
   62.5681   33.8757   47.6040 H   0  0  0  0  0  0  0  0  0  0  0  0
   62.5136   32.9757   46.0504 H   0  0  0  0  0  0  0  0  0  0  0  0
   62.4634   34.7713   46.0504 H   0  0  0  0  0  0  0  0  0  0  0  0
   60.4354   33.8168   44.5020 H   0  0  0  0  0  0  0  0  0  0  0  0
   57.0590   34.5140   44.1140 H   0  0  0  0  0  0  0  0  0  0  0  0
   56.9925   32.7803   42.5488 H   0  0  0  0  0  0  0  0  0  0  0  0
   58.7836   32.7369   42.7627 H   0  0  0  0  0  0  0  0  0  0  0  0
   55.6482   30.9942   43.3019 H   0  0  0  0  0  0  0  0  0  0  0  0
   55.4424   28.7912   44.4509 H   0  0  0  0  0  0  0  0  0  0  0  0
   55.2960   26.7960   46.9630 H   0  0  0  0  0  0  0  0  0  0  0  0
   55.1460   27.4630   45.4320 H   0  0  0  0  0  0  0  0  0  0  0  0
   59.5140   29.1528   45.8783 H   0  0  0  0  0  0  0  0  0  0  0  0
   59.7218   31.3586   44.7344 H   0  0  0  0  0  0  0  0  0  0  0  0
   56.7441   33.6512   46.7562 H   0  0  0  0  0  0  0  0  0  0  0  0
   58.0370   33.6601   48.8782 H   0  0  0  0  0  0  0  0  0  0  0  0
   59.8549   31.0111   49.0801 H   0  0  0  0  0  0  0  0  0  0  0  0
   58.0956   29.6835   50.2473 H   0  0  0  0  0  0  0  0  0  0  0  0
   54.8044   31.6596   52.7740 H   0  0  0  0  0  0  0  0  0  0  0  0
   54.9564   31.2394   51.0342 H   0  0  0  0  0  0  0  0  0  0  0  0
   53.1828   29.9060   52.2552 H   0  0  0  0  0  0  0  0  0  0  0  0
   54.4727   28.8935   51.5003 H   0  0  0  0  0  0  0  0  0  0  0  0
   56.0488   28.0360   54.5073 H   0  0  0  0  0  0  0  0  0  0  0  0
   56.0003   27.8823   52.7074 H   0  0  0  0  0  0  0  0  0  0  0  0
   56.8319   30.3356   54.3367 H   0  0  0  0  0  0  0  0  0  0  0  0
   57.8762   29.3088   53.2927 H   0  0  0  0  0  0  0  0  0  0  0  0
   57.2215   33.0855   52.7847 H   0  0  0  0  0  0  0  0  0  0  0  0
   59.0042   34.3958   51.6359 H   0  0  0  0  0  0  0  0  0  0  0  0
  1  2  1  0
  2  3  2  0
  3  4  1  0
  4  5  1  0
  5  6  1  0
  6  7  1  0
  7  8  2  0
  8  9  1  0
  9 10  2  0
 10 11  1  0
 11 12  1  0
 11 13  2  0
 11 14  2  0
 10 15  1  0
 15 16  2  0
  4 17  2  0
 17 18  1  0
 18 19  2  0
 19 20  1  0
 20 21  1  0
 21 22  2  0
 22 23  1  0
 23 24  2  0
 24 25  1  0
 25 26  1  0
 26 27  1  0
 27 28  1  0
 28 29  1  0
 29 30  1  0
 24 31  1  0
 31 32  2  0
 19  2  1  0
 32 21  1  0
 16  7  1  0
 30 25  1  0
  1 33  1  0
  1 34  1  0
  1 35  1  0
  3 36  1  0
  5 37  1  0
  6 38  1  0
  6 39  1  0
  8 40  1  0
  9 41  1  0
 12 42  1  0
 12 43  1  0
 15 44  1  0
 16 45  1  0
 17 46  1  0
 18 47  1  0
 22 48  1  0
 23 49  1  0
 26 50  1  0
 26 51  1  0
 27 52  1  0
 27 53  1  0
 29 54  1  0
 29 55  1  0
 30 56  1  0
 30 57  1  0
 31 58  1  0
 32 59  1  0
M  END
>  <UniqueID>  (21) 
20

>  <SMILES>  (21) 
Cc1cc(NCc2ccc(S(N)(=O)=O)cc2)ccc1Sc1ccc(N2CCOCC2)cc1

>  <Energy>  (21) 
61.77930312873337

>  <Genealogy>  (21) 
Cc1cc(NCc2ccc(S(N)(=O)=O)cc2)ccc1Sc1ccc(N2CCOCC2)cc1 (3D coordinates assigned)
Cc1cc(NCc2ccc(S(N)(=O)=O)cc2)ccc1Sc1ccc(N2CCOCC2)cc1 (nonaromatic ring conformer: 61.77930312873337 kcal/mol)

>  <smiles>  (21) 
Cc1cc(NCc2ccc(S(N)(=O)=O)cc2)ccc1Sc1ccc(N2CCOCC2)cc1

>  <score_type>  (21) 
oracle

>  <origin>  (21) 
adg

>  <m_score__min__energy>  (21) 
-10.67

>  <m_primary>  (21) 
energy

$$$$
21:0
     RDKit          3D

 30 32  0  0  0  0  0  0  0  0999 V2000
   59.6290   35.3720   45.5910 C   0  0  0  0  0  0  0  0  0  0  0  0
   58.7220   34.5650   44.8470 O   0  0  0  0  0  0  0  0  0  0  0  0
   58.5040   33.1980   45.0780 C   0  0  0  0  0  0  0  0  0  0  0  0
   58.9540   32.5490   46.2390 C   0  0  0  0  0  0  0  0  0  0  0  0
   58.7210   31.1860   46.4180 C   0  0  0  0  0  0  0  0  0  0  0  0
   58.0350   30.4380   45.4460 C   0  0  0  0  0  0  0  0  0  0  0  0
   57.8420   29.0260   45.6500 N   0  0  0  0  0  0  0  0  0  0  0  0
   58.8310   28.0980   45.7520 C   0  0  0  0  0  0  0  0  0  0  0  0
   58.2140   26.8840   45.9010 C   0  0  0  0  0  0  0  0  0  0  0  0
   58.7300   25.6410   46.0480 N   0  0  0  0  0  0  0  0  0  0  0  0
   57.8550   24.5970   46.1740 C   0  0  0  0  0  0  0  0  0  0  0  0
   56.4990   24.8160   46.1510 N   0  0  0  0  0  0  0  0  0  0  0  0
   55.9860   26.0740   46.0020 C   0  0  0  0  0  0  0  0  0  0  0  0
   54.7420   26.2630   45.9810 O   0  0  0  0  0  0  0  0  0  0  0  0
   56.8810   27.1260   45.8750 C   0  0  0  0  0  0  0  0  0  0  0  0
   56.6460   28.4400   45.7170 N   0  0  0  0  0  0  0  0  0  0  0  0
   57.5560   31.0930   44.2840 C   0  0  0  0  0  0  0  0  0  0  0  0
   56.7750   30.3590   43.2260 C   0  0  0  0  0  0  0  0  0  0  0  0
   57.8120   32.4650   44.1100 C   0  0  0  0  0  0  0  0  0  0  0  0
   59.4577   35.2196   46.6668 H   0  0  0  0  0  0  0  0  0  0  0  0
   60.6620   35.0889   45.3405 H   0  0  0  0  0  0  0  0  0  0  0  0
   59.4680   36.4309   45.3405 H   0  0  0  0  0  0  0  0  0  0  0  0
   59.4927   33.1184   47.0107 H   0  0  0  0  0  0  0  0  0  0  0  0
   59.0789   30.6897   47.3321 H   0  0  0  0  0  0  0  0  0  0  0  0
   59.9144   28.2856   45.7209 H   0  0  0  0  0  0  0  0  0  0  0  0
   58.2403   23.5738   46.2947 H   0  0  0  0  0  0  0  0  0  0  0  0
   56.0540   29.6813   43.7065 H   0  0  0  0  0  0  0  0  0  0  0  0
   56.2352   31.0842   42.5994 H   0  0  0  0  0  0  0  0  0  0  0  0
   57.4654   29.7753   42.5994 H   0  0  0  0  0  0  0  0  0  0  0  0
   57.4619   32.9693   43.1972 H   0  0  0  0  0  0  0  0  0  0  0  0
  1  2  1  0
  2  3  1  0
  3  4  2  0
  4  5  1  0
  5  6  2  0
  6  7  1  0
  7  8  1  0
  8  9  2  0
  9 10  1  0
 10 11  1  0
 11 12  2  0
 12 13  1  0
 13 14  2  0
 13 15  1  0
 15 16  2  0
  6 17  1  0
 17 18  1  0
 17 19  2  0
 19  3  1  0
 16  7  1  0
 15  9  1  0
  1 20  1  0
  1 21  1  0
  1 22  1  0
  4 23  1  0
  5 24  1  0
  8 25  1  0
 11 26  1  0
 18 27  1  0
 18 28  1  0
 18 29  1  0
 19 30  1  0
M  CHG  1  10  -1
M  END
>  <UniqueID>  (22) 
21

>  <SMILES>  (22) 
COc1ccc(-n2cc3[n-]cnc(=O)c3n2)c(C)c1

>  <Energy>  (22) 
79.90025725107013

>  <Genealogy>  (22) 
COc1ccc(-n2cc3[n-]cnc(=O)c3n2)c(C)c1 (protonated)
COc1ccc(-n2cc3[n-]cnc(=O)c3n2)c(C)c1 (3D coordinates assigned)
COc1ccc(-n2cc3[n-]cnc(=O)c3n2)c(C)c1 (optimized conformer: 79.90025725107013 kcal/mol)

>  <smiles>  (22) 
COc1ccc(-n2cc3[nH]cnc(=O)c3n2)c(C)c1

>  <score_type>  (22) 
oracle

>  <origin>  (22) 
adg

>  <m_score__min__energy>  (22) 
-8.0600000000000005

>  <m_primary>  (22) 
energy

$$$$
22:0
     RDKit          3D

 72 75  0  0  0  0  0  0  0  0999 V2000
   54.2040   30.6910   51.6800 C   0  0  0  0  0  0  0  0  0  0  0  0
   55.5220   31.0400   52.3660 C   0  0  0  0  0  0  0  0  0  0  0  0
   56.5510   30.1680   51.9350 O   0  0  0  0  0  0  0  0  0  0  0  0
   56.8220   29.1690   52.9020 C   0  0  0  0  0  0  0  0  0  0  0  0
   57.5100   29.7730   54.1300 C   0  0  0  0  0  0  0  0  0  0  0  0
   58.3210   30.8730   53.7580 O   0  0  0  0  0  0  0  0  0  0  0  0
   59.4970   30.4310   53.1110 C   0  0  0  0  0  0  0  0  0  0  0  0
   59.6980   31.2530   51.8320 C   0  0  0  0  0  0  0  0  0  0  0  0
   58.5600   32.1710   51.5660 N   0  0  1  0  0  0  0  0  0  0  0  0
   58.9160   33.5780   51.8420 C   0  0  0  0  0  0  0  0  0  0  0  0
   58.0220   32.0060   50.1910 C   0  0  0  0  0  0  0  0  0  0  0  0
   59.0510   31.5100   49.1600 C   0  0  0  0  0  0  0  0  0  0  0  0
   58.3660   31.1550   47.9690 O   0  0  0  0  0  0  0  0  0  0  0  0
   59.2070   30.8870   46.8390 C   0  0  0  0  0  0  0  0  0  0  0  0
   59.7450   29.4330   46.8770 C   0  0  0  0  0  0  0  0  0  0  0  0
   60.2470   28.8550   45.6900 C   0  0  0  0  0  0  0  0  0  0  0  0
   60.7240   27.5420   45.6770 C   0  0  0  0  0  0  0  0  0  0  0  0
   60.6890   26.7730   46.8410 C   0  0  0  0  0  0  0  0  0  0  0  0
   60.1630   27.3130   48.0160 C   0  0  0  0  0  0  0  0  0  0  0  0
   59.6810   28.6250   48.0350 C   0  0  0  0  0  0  0  0  0  0  0  0
   60.4230   31.8840   46.8040 C   0  0  0  0  0  0  0  0  0  0  0  0
   61.7010   31.4730   47.2810 C   0  0  0  0  0  0  0  0  0  0  0  0
   62.7590   32.3710   47.4190 C   0  0  0  0  0  0  0  0  0  0  0  0
   62.5750   33.7140   47.1290 C   0  0  0  0  0  0  0  0  0  0  0  0
   61.3300   34.1650   46.7060 C   0  0  0  0  0  0  0  0  0  0  0  0
   60.2510   33.2710   46.5650 C   0  0  0  0  0  0  0  0  0  0  0  0
   58.9780   33.7910   45.9980 C   0  0  0  0  0  0  0  0  0  0  0  0
   58.8450   33.2260   44.5920 C   0  0  0  0  0  0  0  0  0  0  0  0
   58.1330   31.9000   44.5850 C   0  0  0  0  0  0  0  0  0  0  0  0
   57.2710   31.6810   43.4880 C   0  0  0  0  0  0  0  0  0  0  0  0
   56.4200   30.5850   43.4470 C   0  0  0  0  0  0  0  0  0  0  0  0
   56.3950   29.6920   44.5060 C   0  0  0  0  0  0  0  0  0  0  0  0
   57.2690   29.8590   45.5770 C   0  0  0  0  0  0  0  0  0  0  0  0
   58.2300   30.9080   45.6180 C   0  0  0  0  0  0  0  0  0  0  0  0
   53.4368   30.4878   52.4416 H   0  0  0  0  0  0  0  0  0  0  0  0
   53.8828   31.5350   51.0520 H   0  0  0  0  0  0  0  0  0  0  0  0
   54.3426   29.7986   51.0520 H   0  0  0  0  0  0  0  0  0  0  0  0
   55.7969   32.0755   52.1167 H   0  0  0  0  0  0  0  0  0  0  0  0
   55.3966   30.9325   53.4535 H   0  0  0  0  0  0  0  0  0  0  0  0
   55.8759   28.7013   53.2123 H   0  0  0  0  0  0  0  0  0  0  0  0
   57.4917   28.4190   52.4559 H   0  0  0  0  0  0  0  0  0  0  0  0
   56.7440   30.1135   54.8423 H   0  0  0  0  0  0  0  0  0  0  0  0
   58.1464   29.0045   54.5930 H   0  0  0  0  0  0  0  0  0  0  0  0
   60.3602   30.5694   53.7786 H   0  0  0  0  0  0  0  0  0  0  0  0
   59.4055   29.3643   52.8584 H   0  0  0  0  0  0  0  0  0  0  0  0
   60.6166   31.8493   51.9356 H   0  0  0  0  0  0  0  0  0  0  0  0
   59.7676   30.5505   50.9884 H   0  0  0  0  0  0  0  0  0  0  0  0
   57.7750   31.9230   52.2120 H   0  0  0  0  0  0  0  0  0  0  0  0
   58.9568   33.7394   52.9293 H   0  0  0  0  0  0  0  0  0  0  0  0
   59.8988   33.8008   51.4011 H   0  0  0  0  0  0  0  0  0  0  0  0
   58.1574   34.2414   51.4011 H   0  0  0  0  0  0  0  0  0  0  0  0
   57.1965   31.2800   50.2296 H   0  0  0  0  0  0  0  0  0  0  0  0
   57.7008   33.0040   49.8582 H   0  0  0  0  0  0  0  0  0  0  0  0
   59.7757   32.3094   48.9461 H   0  0  0  0  0  0  0  0  0  0  0  0
   59.5893   30.6370   49.5575 H   0  0  0  0  0  0  0  0  0  0  0  0
   60.2626   29.4469   44.7630 H   0  0  0  0  0  0  0  0  0  0  0  0
   61.1278   27.1136   44.7478 H   0  0  0  0  0  0  0  0  0  0  0  0
   61.0752   25.7431   46.8327 H   0  0  0  0  0  0  0  0  0  0  0  0
   60.1277   26.7034   48.9309 H   0  0  0  0  0  0  0  0  0  0  0  0
   59.2476   29.0326   48.9602 H   0  0  0  0  0  0  0  0  0  0  0  0
   61.8577   30.4175   47.5480 H   0  0  0  0  0  0  0  0  0  0  0  0
   63.7419   32.0127   47.7588 H   0  0  0  0  0  0  0  0  0  0  0  0
   63.4116   34.4206   47.2333 H   0  0  0  0  0  0  0  0  0  0  0  0
   61.1860   35.2316   46.4790 H   0  0  0  0  0  0  0  0  0  0  0  0
   58.1292   33.4645   46.6168 H   0  0  0  0  0  0  0  0  0  0  0  0
   58.9815   34.8908   45.9771 H   0  0  0  0  0  0  0  0  0  0  0  0
   58.2771   33.9378   43.9749 H   0  0  0  0  0  0  0  0  0  0  0  0
   59.8570   33.0717   44.1895 H   0  0  0  0  0  0  0  0  0  0  0  0
   57.2740   32.3929   42.6495 H   0  0  0  0  0  0  0  0  0  0  0  0
   55.7672   30.4260   42.5760 H   0  0  0  0  0  0  0  0  0  0  0  0
   55.6852   28.8517   44.5007 H   0  0  0  0  0  0  0  0  0  0  0  0
   57.2148   29.1556   46.4209 H   0  0  0  0  0  0  0  0  0  0  0  0
  1  2  1  0
  2  3  1  0
  3  4  1  0
  4  5  1  0
  5  6  1  0
  6  7  1  0
  7  8  1  0
  8  9  1  0
  9 10  1  0
  9 11  1  0
 11 12  1  0
 12 13  1  0
 13 14  1  0
 14 15  1  0
 15 16  2  0
 16 17  1  0
 17 18  2  0
 18 19  1  0
 19 20  2  0
 14 21  1  0
 21 22  2  0
 22 23  1  0
 23 24  2  0
 24 25  1  0
 25 26  2  0
 26 27  1  0
 27 28  1  0
 28 29  1  0
 29 30  2  0
 30 31  1  0
 31 32  2  0
 32 33  1  0
 33 34  2  0
 34 14  1  0
 20 15  1  0
 26 21  1  0
 34 29  1  0
  1 35  1  0
  1 36  1  0
  1 37  1  0
  2 38  1  0
  2 39  1  0
  4 40  1  0
  4 41  1  0
  5 42  1  0
  5 43  1  0
  7 44  1  0
  7 45  1  0
  8 46  1  0
  8 47  1  0
  9 48  1  1
 10 49  1  0
 10 50  1  0
 10 51  1  0
 11 52  1  0
 11 53  1  0
 12 54  1  0
 12 55  1  0
 16 56  1  0
 17 57  1  0
 18 58  1  0
 19 59  1  0
 20 60  1  0
 22 61  1  0
 23 62  1  0
 24 63  1  0
 25 64  1  0
 27 65  1  0
 27 66  1  0
 28 67  1  0
 28 68  1  0
 30 69  1  0
 31 70  1  0
 32 71  1  0
 33 72  1  0
M  CHG  1   9   1
M  END
>  <UniqueID>  (23) 
22

>  <SMILES>  (23) 
CCOCCOCC[N@@H+](C)CCOC1(c2ccccc2)c2ccccc2CCc2ccccc21

>  <Energy>  (23) 
116.69145733644935

>  <Genealogy>  (23) 
CCOCCOCC[NH+](C)CCOC1(c2ccccc2)c2ccccc2CCc2ccccc21 (protonated)
CCOCCOCC[N@@H+](C)CCOC1(c2ccccc2)c2ccccc2CCc2ccccc21 (chirality)
CCOCCOCC[N@@H+](C)CCOC1(c2ccccc2)c2ccccc2CCc2ccccc21 (3D coordinates assigned)
CCOCCOCC[N@@H+](C)CCOC1(c2ccccc2)c2ccccc2CCc2ccccc21 (nonaromatic ring conformer: 116.69145733644935 kcal/mol)

>  <smiles>  (23) 
CCOCCOCCN(C)CCOC1(c2ccccc2)c2ccccc2CCc2ccccc21

>  <score_type>  (23) 
oracle

>  <origin>  (23) 
adg

>  <m_score__min__energy>  (23) 
-5.6299999999999999

>  <m_primary>  (23) 
energy

$$$$
23:0
     RDKit          3D

 56 58  0  0  0  0  0  0  0  0999 V2000
   59.6530   33.1560   49.8870 C   0  0  0  0  0  0  0  0  0  0  0  0
   59.9720   31.9920   48.9540 C   0  0  0  0  0  0  0  0  0  0  0  0
   60.9630   31.0940   49.5950 N   0  0  0  0  0  0  0  0  0  0  0  0
   62.3550   31.5630   49.4070 C   0  0  0  0  0  0  0  0  0  0  0  0
   62.6970   31.9110   47.9490 C   0  0  0  0  0  0  0  0  0  0  0  0
   60.6650   30.7920   51.0140 C   0  0  0  0  0  0  0  0  0  0  0  0
   61.7320   29.8910   51.6450 C   0  0  0  0  0  0  0  0  0  0  0  0
   61.2850   28.5530   51.6480 O   0  0  0  0  0  0  0  0  0  0  0  0
   60.3710   28.3490   50.5920 C   0  0  0  0  0  0  0  0  0  0  0  0
   60.8980   27.2500   49.6660 C   0  0  0  0  0  0  0  0  0  0  0  0
   60.6630   27.5790   48.2580 N   0  0  0  0  0  0  0  0  0  0  0  0
   59.4250   27.2740   47.5980 C   0  0  0  0  0  0  0  0  0  0  0  0
   58.8590   26.0230   47.8330 C   0  0  0  0  0  0  0  0  0  0  0  0
   57.6520   25.6680   47.2600 C   0  0  0  0  0  0  0  0  0  0  0  0
   56.9480   26.5610   46.4450 C   0  0  0  0  0  0  0  0  0  0  0  0
   55.6460   26.0630   45.8610 C   0  0  0  0  0  0  0  0  0  0  0  0
   57.4780   27.8700   46.2050 C   0  0  0  0  0  0  0  0  0  0  0  0
   56.7770   28.8480   45.4420 C   0  0  0  0  0  0  0  0  0  0  0  0
   55.5230   28.5790   44.8980 O   0  0  0  0  0  0  0  0  0  0  0  0
   57.3240   30.1250   45.2290 C   0  0  0  0  0  0  0  0  0  0  0  0
   56.6160   31.0980   44.4930 C   0  0  0  0  0  0  0  0  0  0  0  0
   57.1570   32.3670   44.2870 C   0  0  0  0  0  0  0  0  0  0  0  0
   58.4100   32.6850   44.8050 C   0  0  0  0  0  0  0  0  0  0  0  0
   59.1280   31.7330   45.5290 C   0  0  0  0  0  0  0  0  0  0  0  0
   58.5930   30.4480   45.7540 C   0  0  0  0  0  0  0  0  0  0  0  0
   59.3050   29.4980   46.5000 C   0  0  0  0  0  0  0  0  0  0  0  0
   60.5680   29.8460   46.9700 O   0  0  0  0  0  0  0  0  0  0  0  0
   58.7540   28.2150   46.7650 C   0  0  0  0  0  0  0  0  0  0  0  0
   59.7440   32.8240   50.9318 H   0  0  0  0  0  0  0  0  0  0  0  0
   60.3587   33.9790   49.7010 H   0  0  0  0  0  0  0  0  0  0  0  0
   58.6263   33.5043   49.7010 H   0  0  0  0  0  0  0  0  0  0  0  0
   59.0507   31.4289   48.7438 H   0  0  0  0  0  0  0  0  0  0  0  0
   60.3891   32.3826   48.0141 H   0  0  0  0  0  0  0  0  0  0  0  0
   62.5051   32.4618   50.0232 H   0  0  0  0  0  0  0  0  0  0  0  0
   63.0164   30.7359   49.7043 H   0  0  0  0  0  0  0  0  0  0  0  0
   63.4679   32.6954   47.9304 H   0  0  0  0  0  0  0  0  0  0  0  0
   63.0745   31.0137   47.4367 H   0  0  0  0  0  0  0  0  0  0  0  0
   61.7933   32.2728   47.4367 H   0  0  0  0  0  0  0  0  0  0  0  0
   60.6198   31.7364   51.5762 H   0  0  0  0  0  0  0  0  0  0  0  0
   59.7034   30.2592   51.0535 H   0  0  0  0  0  0  0  0  0  0  0  0
   62.6626   29.9641   51.0631 H   0  0  0  0  0  0  0  0  0  0  0  0
   61.9162   30.2153   52.6798 H   0  0  0  0  0  0  0  0  0  0  0  0
   59.3970   28.0458   51.0036 H   0  0  0  0  0  0  0  0  0  0  0  0
   60.2540   29.2830   50.0229 H   0  0  0  0  0  0  0  0  0  0  0  0
   61.9792   27.1317   49.8302 H   0  0  0  0  0  0  0  0  0  0  0  0
   60.3635   26.3168   49.8973 H   0  0  0  0  0  0  0  0  0  0  0  0
   61.4380   28.0120   47.7080 H   0  0  0  0  0  0  0  0  0  0  0  0
   59.3806   25.3065   48.4846 H   0  0  0  0  0  0  0  0  0  0  0  0
   57.2381   24.6663   47.4481 H   0  0  0  0  0  0  0  0  0  0  0  0
   54.9558   25.7990   46.6759 H   0  0  0  0  0  0  0  0  0  0  0  0
   55.1964   26.8526   45.2410 H   0  0  0  0  0  0  0  0  0  0  0  0
   55.8381   25.1749   45.2410 H   0  0  0  0  0  0  0  0  0  0  0  0
   55.6273   30.8535   44.0773 H   0  0  0  0  0  0  0  0  0  0  0  0
   56.5929   33.1180   43.7144 H   0  0  0  0  0  0  0  0  0  0  0  0
   58.8337   33.6872   44.6432 H   0  0  0  0  0  0  0  0  0  0  0  0
   60.1210   31.9872   45.9282 H   0  0  0  0  0  0  0  0  0  0  0  0
  1  2  1  0
  2  3  1  0
  3  4  1  0
  4  5  1  0
  3  6  1  0
  6  7  1  0
  7  8  1  0
  8  9  1  0
  9 10  1  0
 10 11  1  0
 11 12  1  0
 12 13  2  0
 13 14  1  0
 14 15  2  0
 15 16  1  0
 15 17  1  0
 17 18  2  0
 18 19  1  0
 18 20  1  0
 20 21  2  0
 21 22  1  0
 22 23  2  0
 23 24  1  0
 24 25  2  0
 25 26  1  0
 26 27  1  0
 26 28  2  0
 28 12  1  0
 28 17  1  0
 25 20  1  0
  1 29  1  0
  1 30  1  0
  1 31  1  0
  2 32  1  0
  2 33  1  0
  4 34  1  0
  4 35  1  0
  5 36  1  0
  5 37  1  0
  5 38  1  0
  6 39  1  0
  6 40  1  0
  7 41  1  0
  7 42  1  0
  9 43  1  0
  9 44  1  0
 10 45  1  0
 10 46  1  0
 11 47  1  0
 13 48  1  0
 14 49  1  0
 16 50  1  0
 16 51  1  0
 16 52  1  0
 21 53  1  0
 22 54  1  0
 23 55  1  0
 24 56  1  0
M  CHG  2  19  -1  27  -1
M  END
>  <UniqueID>  (24) 
23

>  <SMILES>  (24) 
CCN(CC)CCOCCNc1ccc(C)c2c([O-])c3ccccc3c([O-])c12

>  <Energy>  (24) 
76.84301164857435

>  <Genealogy>  (24) 
CCN(CC)CCOCCNc1ccc(C)c2c([O-])c3ccccc3c([O-])c12 (protonated)
CCN(CC)CCOCCNc1ccc(C)c2c([O-])c3ccccc3c([O-])c12 (3D coordinates assigned)
CCN(CC)CCOCCNc1ccc(C)c2c([O-])c3ccccc3c([O-])c12 (optimized conformer: 76.84301164857435 kcal/mol)

>  <smiles>  (24) 
CCN(CC)CCOCCNc1ccc(C)c2c(O)c3ccccc3c(O)c12

>  <score_type>  (24) 
oracle

>  <origin>  (24) 
adg

>  <m_score__min__energy>  (24) 
-11.32

>  <m_primary>  (24) 
energy

$$$$
24:0
     RDKit          3D

 20 20  0  0  0  0  0  0  0  0999 V2000
   57.0230   20.9510   42.9240 C   0  0  0  0  0  0  0  0  0  0  0  0
   55.9200   21.8490   42.9890 O   0  0  0  0  0  0  0  0  0  0  0  0
   55.8550   22.9620   43.8400 C   0  0  0  0  0  0  0  0  0  0  0  0
   57.0200   23.7080   44.0500 C   0  0  0  0  0  0  0  0  0  0  0  0
   57.0060   24.8250   44.8900 C   0  0  0  0  0  0  0  0  0  0  0  0
   55.8260   25.2160   45.5330 C   0  0  0  0  0  0  0  0  0  0  0  0
   55.8630   26.3450   46.3660 O   0  0  0  0  0  0  0  0  0  0  0  0
   57.0400   27.0900   46.6580 C   0  0  0  0  0  0  0  0  0  0  0  0
   54.6510   24.4700   45.3250 C   0  0  0  0  0  0  0  0  0  0  0  0
   54.6660   23.3510   44.4850 C   0  0  0  0  0  0  0  0  0  0  0  0
   57.3438   20.6899   43.9433 H   0  0  0  0  0  0  0  0  0  0  0  0
   56.7216   20.0382   42.3893 H   0  0  0  0  0  0  0  0  0  0  0  0
   57.8557   21.4312   42.3893 H   0  0  0  0  0  0  0  0  0  0  0  0
   57.9543   23.4130   43.5500 H   0  0  0  0  0  0  0  0  0  0  0  0
   57.9297   25.4013   45.0470 H   0  0  0  0  0  0  0  0  0  0  0  0
   57.1634   27.1681   47.7483 H   0  0  0  0  0  0  0  0  0  0  0  0
   57.9135   26.5799   46.2257 H   0  0  0  0  0  0  0  0  0  0  0  0
   56.9528   28.0977   46.2257 H   0  0  0  0  0  0  0  0  0  0  0  0
   53.7173   24.7677   45.8246 H   0  0  0  0  0  0  0  0  0  0  0  0
   53.7438   22.7723   44.3279 H   0  0  0  0  0  0  0  0  0  0  0  0
  1  2  1  0
  2  3  1  0
  3  4  2  0
  4  5  1  0
  5  6  2  0
  6  7  1  0
  7  8  1  0
  6  9  1  0
  9 10  2  0
 10  3  1  0
  1 11  1  0
  1 12  1  0
  1 13  1  0
  4 14  1  0
  5 15  1  0
  8 16  1  0
  8 17  1  0
  8 18  1  0
  9 19  1  0
 10 20  1  0
M  END
>  <UniqueID>  (25) 
24

>  <SMILES>  (25) 
COc1ccc(OC)cc1

>  <Energy>  (25) 
16.960367743343546

>  <Genealogy>  (25) 
COc1ccc(OC)cc1 (3D coordinates assigned)
COc1ccc(OC)cc1 (optimized conformer: 16.960367743343546 kcal/mol)

>  <smiles>  (25) 
COc1ccc(OC)cc1

>  <score_type>  (25) 
oracle

>  <origin>  (25) 
adg

>  <m_score__min__energy>  (25) 
-3.7599999999999998

>  <m_primary>  (25) 
energy

$$$$
25:0
     RDKit          3D

 58 60  0  0  0  0  0  0  0  0999 V2000
   57.0270   21.5010   43.0550 C   0  0  0  0  0  0  0  0  0  0  0  0
   57.5780   22.4160   44.1480 C   0  0  0  0  0  0  0  0  0  0  0  0
   57.0850   23.8600   43.9630 C   0  0  0  0  0  0  0  0  0  0  0  0
   55.8020   24.1610   44.7540 C   0  0  0  0  0  0  0  0  0  0  0  0
   56.0270   25.4400   45.9860 S   0  0  0  0  0  0  0  0  0  0  0  0
   56.2060   24.8230   47.3480 O   0  0  0  0  0  0  0  0  0  0  0  0
   54.8070   26.3220   45.9970 O   0  0  0  0  0  0  0  0  0  0  0  0
   57.4270   26.3840   45.5760 N   0  0  0  0  0  0  0  0  0  0  0  0
   57.3860   27.6700   46.2700 C   0  0  0  0  0  0  0  0  0  0  0  0
   57.3940   28.8180   45.2410 C   0  0  1  0  0  0  0  0  0  0  0  0
   55.9610   29.0930   44.7360 C   0  0  0  0  0  0  0  0  0  0  0  0
   55.8760   30.2490   43.7060 C   0  0  0  0  0  0  0  0  0  0  0  0
   57.1590   31.0940   43.5720 C   0  0  0  0  0  0  0  0  0  0  0  0
   57.8600   31.2530   44.8950 C   0  0  0  0  0  0  0  0  0  0  0  0
   58.4290   32.4820   45.2610 C   0  0  0  0  0  0  0  0  0  0  0  0
   59.1110   32.6100   46.4770 C   0  0  0  0  0  0  0  0  0  0  0  0
   59.8410   34.1520   46.9100 S   0  0  0  0  0  0  0  0  0  0  0  0
   59.9730   35.0080   45.6810 O   0  0  0  0  0  0  0  0  0  0  0  0
   58.9760   34.8840   47.8990 O   0  0  0  0  0  0  0  0  0  0  0  0
   61.4250   33.8550   47.6180 C   0  0  0  0  0  0  0  0  0  0  0  0
   61.6390   34.0530   48.9880 C   0  0  0  0  0  0  0  0  0  0  0  0
   62.9050   33.8410   49.5410 C   0  0  0  0  0  0  0  0  0  0  0  0
   63.9730   33.4340   48.7340 C   0  0  0  0  0  0  0  0  0  0  0  0
   65.2260   33.2360   49.3350 O   0  0  0  0  0  0  0  0  0  0  0  0
   65.5190   32.1940   50.2590 C   0  0  0  0  0  0  0  0  0  0  0  0
   63.7580   33.2400   47.3540 C   0  0  0  0  0  0  0  0  0  0  0  0
   62.4910   33.4540   46.8030 C   0  0  0  0  0  0  0  0  0  0  0  0
   59.2390   31.5020   47.3210 C   0  0  0  0  0  0  0  0  0  0  0  0
   58.6840   30.2720   46.9580 C   0  0  0  0  0  0  0  0  0  0  0  0
   57.9950   30.1300   45.7360 C   0  0  0  0  0  0  0  0  0  0  0  0
   56.5122   20.6460   43.5176 H   0  0  0  0  0  0  0  0  0  0  0  0
   56.3167   22.0625   42.4303 H   0  0  0  0  0  0  0  0  0  0  0  0
   57.8555   21.1358   42.4303 H   0  0  0  0  0  0  0  0  0  0  0  0
   57.2442   22.0455   45.1285 H   0  0  0  0  0  0  0  0  0  0  0  0
   58.6762   22.4116   44.0858 H   0  0  0  0  0  0  0  0  0  0  0  0
   57.8750   24.5465   44.3015 H   0  0  0  0  0  0  0  0  0  0  0  0
   56.8539   23.9953   42.8961 H   0  0  0  0  0  0  0  0  0  0  0  0
   55.0230   24.4862   44.0487 H   0  0  0  0  0  0  0  0  0  0  0  0
   55.5166   23.2397   45.2830 H   0  0  0  0  0  0  0  0  0  0  0  0
   56.4700   27.7290   46.8761 H   0  0  0  0  0  0  0  0  0  0  0  0
   58.2675   27.7597   46.9218 H   0  0  0  0  0  0  0  0  0  0  0  0
   58.0495   28.4613   44.4329 H   0  0  0  0  0  0  0  0  0  0  0  0
   55.5774   28.1770   44.2629 H   0  0  0  0  0  0  0  0  0  0  0  0
   55.3640   29.3949   45.6092 H   0  0  0  0  0  0  0  0  0  0  0  0
   55.6490   29.8137   42.7216 H   0  0  0  0  0  0  0  0  0  0  0  0
   55.0939   30.9309   44.0710 H   0  0  0  0  0  0  0  0  0  0  0  0
   57.8402   30.5986   42.8646 H   0  0  0  0  0  0  0  0  0  0  0  0
   56.8758   32.0937   43.2109 H   0  0  0  0  0  0  0  0  0  0  0  0
   58.3389   33.3488   44.5897 H   0  0  0  0  0  0  0  0  0  0  0  0
   60.8074   34.3766   49.6312 H   0  0  0  0  0  0  0  0  0  0  0  0
   63.0629   33.9953   50.6186 H   0  0  0  0  0  0  0  0  0  0  0  0
   65.4122   32.5737   51.2858 H   0  0  0  0  0  0  0  0  0  0  0  0
   64.8210   31.3583   50.1027 H   0  0  0  0  0  0  0  0  0  0  0  0
   66.5502   31.8446   50.1027 H   0  0  0  0  0  0  0  0  0  0  0  0
   64.5895   32.9194   46.7091 H   0  0  0  0  0  0  0  0  0  0  0  0
   62.3307   33.3068   45.7247 H   0  0  0  0  0  0  0  0  0  0  0  0
   59.7788   31.5993   48.2745 H   0  0  0  0  0  0  0  0  0  0  0  0
   58.7854   29.4077   47.6309 H   0  0  0  0  0  0  0  0  0  0  0  0
  1  2  1  0
  2  3  1  0
  3  4  1  0
  4  5  1  0
  5  6  2  0
  5  7  2  0
  5  8  1  0
  8  9  1  0
  9 10  1  0
 10 11  1  0
 11 12  1  0
 12 13  1  0
 13 14  1  0
 14 15  2  0
 15 16  1  0
 16 17  1  0
 17 18  2  0
 17 19  2  0
 17 20  1  0
 20 21  2  0
 21 22  1  0
 22 23  2  0
 23 24  1  0
 24 25  1  0
 23 26  1  0
 26 27  2  0
 16 28  2  0
 28 29  1  0
 29 30  2  0
 30 10  1  0
 30 14  1  0
 27 20  1  0
  1 31  1  0
  1 32  1  0
  1 33  1  0
  2 34  1  0
  2 35  1  0
  3 36  1  0
  3 37  1  0
  4 38  1  0
  4 39  1  0
  9 40  1  0
  9 41  1  0
 10 42  1  6
 11 43  1  0
 11 44  1  0
 12 45  1  0
 12 46  1  0
 13 47  1  0
 13 48  1  0
 15 49  1  0
 21 50  1  0
 22 51  1  0
 25 52  1  0
 25 53  1  0
 25 54  1  0
 26 55  1  0
 27 56  1  0
 28 57  1  0
 29 58  1  0
M  CHG  1   8  -1
M  END
>  <UniqueID>  (26) 
25

>  <SMILES>  (26) 
CCCCS(=O)(=O)[N-]C[C@H]1CCCc2cc(S(=O)(=O)c3ccc(OC)cc3)ccc21

>  <Energy>  (26) 
54.153825156712834

>  <Genealogy>  (26) 
CCCCS(=O)(=O)[N-]CC1CCCc2cc(S(=O)(=O)c3ccc(OC)cc3)ccc21 (protonated)
CCCCS(=O)(=O)[N-]C[C@H]1CCCc2cc(S(=O)(=O)c3ccc(OC)cc3)ccc21 (chirality)
CCCCS(=O)(=O)[N-]C[C@H]1CCCc2cc(S(=O)(=O)c3ccc(OC)cc3)ccc21 (3D coordinates assigned)
CCCCS(=O)(=O)[N-]C[C@H]1CCCc2cc(S(=O)(=O)c3ccc(OC)cc3)ccc21 (nonaromatic ring conformer: 54.153825156712834 kcal/mol)

>  <smiles>  (26) 
CCCCS(=O)(=O)NCC1CCCc2cc(S(=O)(=O)c3ccc(OC)cc3)ccc21

>  <score_type>  (26) 
oracle

>  <origin>  (26) 
adg

>  <m_score__min__energy>  (26) 
-12.699999999999999

>  <m_primary>  (26) 
energy

$$$$
26:0
     RDKit          3D

 57 59  0  0  0  0  0  0  0  0999 V2000
   58.3590   31.4551   42.5632 H   0  0  0  0  0  0  0  0  0  0  0  0
   57.6570   31.4590   43.4100 C   0  0  0  0  0  0  0  0  0  0  0  0
   56.5020   30.7950   43.2770 C   0  0  0  0  0  0  0  0  0  0  0  0
   55.6257   31.3180   42.8665 H   0  0  0  0  0  0  0  0  0  0  0  0
   56.3750   29.3470   43.6770 C   0  0  0  0  0  0  0  0  0  0  0  0
   55.4836   28.9234   43.1912 H   0  0  0  0  0  0  0  0  0  0  0  0
   57.2923   28.8300   43.3587 H   0  0  0  0  0  0  0  0  0  0  0  0
   56.2460   29.1750   45.1340 N   0  0  0  0  0  0  0  0  0  0  0  0
   56.2200   30.1140   45.5970 H   0  0  0  0  0  0  0  0  0  0  0  0
   57.3430   28.3850   45.7170 C   0  0  0  0  0  0  0  0  0  0  0  0
   57.7527   28.9251   46.5833 H   0  0  0  0  0  0  0  0  0  0  0  0
   56.9428   27.4070   46.0225 H   0  0  0  0  0  0  0  0  0  0  0  0
   58.4720   28.1510   44.6900 C   0  0  0  0  0  0  0  0  0  0  0  0
   58.2174   27.2682   44.0851 H   0  0  0  0  0  0  0  0  0  0  0  0
   58.5517   29.0614   44.0777 H   0  0  0  0  0  0  0  0  0  0  0  0
   59.7970   27.9250   45.3210 N   0  0  0  0  0  0  0  0  0  0  0  0
   60.1400   26.9650   45.0760 H   0  0  0  0  0  0  0  0  0  0  0  0
   60.7960   28.9110   44.8690 C   0  0  0  0  0  0  0  0  0  0  0  0
   61.2707   29.3795   45.7438 H   0  0  0  0  0  0  0  0  0  0  0  0
   61.5622   28.4053   44.2630 H   0  0  0  0  0  0  0  0  0  0  0  0
   60.3004   29.6837   44.2630 H   0  0  0  0  0  0  0  0  0  0  0  0
   59.6680   27.9910   46.7870 C   0  0  0  0  0  0  0  0  0  0  0  0
   60.5547   27.5374   47.2539 H   0  0  0  0  0  0  0  0  0  0  0  0
   59.5856   29.0420   47.1009 H   0  0  0  0  0  0  0  0  0  0  0  0
   58.7674   27.4429   47.1009 H   0  0  0  0  0  0  0  0  0  0  0  0
   58.0420   32.1990   44.6350 C   0  0  0  0  0  0  0  0  0  0  0  0
   58.2880   31.5530   45.8620 C   0  0  0  0  0  0  0  0  0  0  0  0
   58.1812   30.4607   45.9355 H   0  0  0  0  0  0  0  0  0  0  0  0
   58.6670   32.2910   46.9870 C   0  0  0  0  0  0  0  0  0  0  0  0
   58.8597   31.7743   47.9388 H   0  0  0  0  0  0  0  0  0  0  0  0
   58.8040   33.6890   46.9120 C   0  0  0  0  0  0  0  0  0  0  0  0
   59.1930   34.4750   48.0560 N   0  0  0  0  0  0  0  0  0  0  0  0
   58.8590   35.4630   48.1160 H   0  0  0  0  0  0  0  0  0  0  0  0
   60.1820   34.0560   49.0100 C   0  0  0  0  0  0  0  0  0  0  0  0
   59.8110   33.9450   50.3470 C   0  0  0  0  0  0  0  0  0  0  0  0
   58.7734   34.1516   50.6481 H   0  0  0  0  0  0  0  0  0  0  0  0
   60.7510   33.5730   51.3030 C   0  0  0  0  0  0  0  0  0  0  0  0
   60.4478   33.4971   52.3577 H   0  0  0  0  0  0  0  0  0  0  0  0
   62.0450   33.3000   50.9550 N   0  0  0  0  0  0  0  0  0  0  0  0
   62.9850   32.9290   52.0250 C   0  0  0  0  0  0  0  0  0  0  0  0
   62.5179   33.1134   53.0037 H   0  0  0  0  0  0  0  0  0  0  0  0
   63.2401   31.8627   51.9355 H   0  0  0  0  0  0  0  0  0  0  0  0
   63.8996   33.5336   51.9355 H   0  0  0  0  0  0  0  0  0  0  0  0
   62.4400   33.3650   49.6340 C   0  0  0  0  0  0  0  0  0  0  0  0
   63.7660   33.0630   49.2390 C   0  0  0  0  0  0  0  0  0  0  0  0
   64.5098   32.7863   50.0007 H   0  0  0  0  0  0  0  0  0  0  0  0
   64.1410   33.1120   47.8960 C   0  0  0  0  0  0  0  0  0  0  0  0
   65.1774   32.8816   47.6082 H   0  0  0  0  0  0  0  0  0  0  0  0
   63.2100   33.4510   46.9190 C   0  0  0  0  0  0  0  0  0  0  0  0
   63.5103   33.4783   45.8611 H   0  0  0  0  0  0  0  0  0  0  0  0
   61.8980   33.7560   47.2770 C   0  0  0  0  0  0  0  0  0  0  0  0
   61.1661   34.0145   46.4975 H   0  0  0  0  0  0  0  0  0  0  0  0
   61.5010   33.7360   48.6290 C   0  0  0  0  0  0  0  0  0  0  0  0
   58.5800   34.3280   45.6850 C   0  0  0  0  0  0  0  0  0  0  0  0
   58.6979   35.4190   45.6089 H   0  0  0  0  0  0  0  0  0  0  0  0
   58.2080   33.5910   44.5570 C   0  0  0  0  0  0  0  0  0  0  0  0
   58.0438   34.1065   43.5992 H   0  0  0  0  0  0  0  0  0  0  0  0
  1  2  1  0
  2  3  2  0
  3  4  1  0
  3  5  1  0
  5  6  1  0
  5  7  1  0
  5  8  1  0
  8  9  1  0
  8 10  1  0
 10 11  1  0
 10 12  1  0
 10 13  1  0
 13 14  1  0
 13 15  1  0
 13 16  1  0
 16 17  1  0
 16 18  1  0
 18 19  1  0
 18 20  1  0
 18 21  1  0
 16 22  1  0
 22 23  1  0
 22 24  1  0
 22 25  1  0
  2 26  1  0
 26 27  2  0
 27 28  1  0
 27 29  1  0
 29 30  1  0
 29 31  2  0
 31 32  1  0
 32 33  1  0
 32 34  1  0
 34 35  2  0
 35 36  1  0
 35 37  1  0
 37 38  1  0
 37 39  2  0
 39 40  1  0
 40 41  1  0
 40 42  1  0
 40 43  1  0
 39 44  1  0
 44 45  2  0
 45 46  1  0
 45 47  1  0
 47 48  1  0
 47 49  2  0
 49 50  1  0
 49 51  1  0
 51 52  1  0
 51 53  2  0
 31 54  1  0
 54 55  1  0
 54 56  2  0
 56 57  1  0
 56 26  1  0
 53 34  1  0
 53 44  1  0
M  CHG  2  16   1  39   1
M  END
>  <UniqueID>  (27) 
26

>  <SMILES>  (27) 
C[n+]1ccc(Nc2ccc(/C=C/CNCC[NH+](C)C)cc2)c2ccccc21

>  <Energy>  (27) 
76.15411273749228

>  <Genealogy>  (27) 
C[n+]1ccc(Nc2ccc(C=CCNCC[NH+](C)C)cc2)c2ccccc21 (protonated)
C[n+]1ccc(Nc2ccc(/C=C/CNCC[NH+](C)C)cc2)c2ccccc21 (cis-trans isomerization)
C[n+]1ccc(Nc2ccc(/C=C/CNCC[NH+](C)C)cc2)c2ccccc21 (3D coordinates assigned)
C[n+]1ccc(Nc2ccc(/C=C/CNCC[NH+](C)C)cc2)c2ccccc21 (optimized conformer: 76.15411273749228 kcal/mol)

>  <smiles>  (27) 
CN(C)CCNCC=Cc1ccc(Nc2cc[n+](C)c3ccccc23)cc1

>  <score_type>  (27) 
oracle

>  <origin>  (27) 
adg

>  <m_score__min__energy>  (27) 
-6.3899999999999997

>  <m_primary>  (27) 
energy

$$$$
27:0
     RDKit          3D

 50 52  0  0  0  0  0  0  0  0999 V2000
   59.3790   26.7370   47.8020 C   0  0  0  0  0  0  0  0  0  0  0  0
   59.7210   26.5610   46.3250 C   0  0  0  0  0  0  0  0  0  0  0  0
   59.1270   27.6530   45.5210 N   0  0  0  0  0  0  0  0  0  0  0  0
   57.8700   27.2250   44.8700 C   0  0  0  0  0  0  0  0  0  0  0  0
   58.0860   27.0170   43.3720 C   0  0  0  0  0  0  0  0  0  0  0  0
   60.0970   28.2200   44.5480 C   0  0  0  0  0  0  0  0  0  0  0  0
   61.1200   29.0950   45.2810 C   0  0  0  0  0  0  0  0  0  0  0  0
   60.6460   29.4810   46.6200 N   0  0  0  0  0  0  0  0  0  0  0  0
   60.4030   30.9150   46.6790 C   0  0  0  0  0  0  0  0  0  0  0  0
   61.3300   31.7850   47.3110 C   0  0  0  0  0  0  0  0  0  0  0  0
   62.4480   31.2900   48.0270 C   0  0  0  0  0  0  0  0  0  0  0  0
   63.4050   32.1530   48.5530 C   0  0  0  0  0  0  0  0  0  0  0  0
   63.2760   33.5230   48.3810 C   0  0  0  0  0  0  0  0  0  0  0  0
   62.1610   34.0410   47.7290 C   0  0  0  0  0  0  0  0  0  0  0  0
   61.1360   33.1930   47.2340 C   0  0  0  0  0  0  0  0  0  0  0  0
   59.9820   33.7100   46.6780 N   0  0  0  0  0  0  0  0  0  0  0  0
   59.6510   35.1420   46.8690 C   0  0  0  0  0  0  0  0  0  0  0  0
   59.1070   32.8880   45.9970 C   0  0  0  0  0  0  0  0  0  0  0  0
   58.0440   33.4210   45.2230 C   0  0  0  0  0  0  0  0  0  0  0  0
   57.1020   32.5910   44.6200 C   0  0  0  0  0  0  0  0  0  0  0  0
   57.1920   31.2140   44.7650 C   0  0  0  0  0  0  0  0  0  0  0  0
   55.8710   30.0800   43.9800 Br  0  0  0  0  0  0  0  0  0  0  0  0
   58.2570   30.6580   45.4690 C   0  0  0  0  0  0  0  0  0  0  0  0
   59.2600   31.4750   46.0490 C   0  0  0  0  0  0  0  0  0  0  0  0
   60.1892   26.3200   48.4182 H   0  0  0  0  0  0  0  0  0  0  0  0
   59.2616   27.8075   48.0262 H   0  0  0  0  0  0  0  0  0  0  0  0
   58.4397   26.2103   48.0262 H   0  0  0  0  0  0  0  0  0  0  0  0
   60.8141   26.5748   46.2025 H   0  0  0  0  0  0  0  0  0  0  0  0
   59.3123   25.6007   45.9774 H   0  0  0  0  0  0  0  0  0  0  0  0
   57.5321   26.2805   45.3214 H   0  0  0  0  0  0  0  0  0  0  0  0
   57.1107   28.0078   45.0142 H   0  0  0  0  0  0  0  0  0  0  0  0
   58.8703   26.2617   43.2160 H   0  0  0  0  0  0  0  0  0  0  0  0
   57.1486   26.6728   42.9107 H   0  0  0  0  0  0  0  0  0  0  0  0
   58.3946   27.9667   42.9107 H   0  0  0  0  0  0  0  0  0  0  0  0
   60.6200   27.3999   44.0343 H   0  0  0  0  0  0  0  0  0  0  0  0
   59.5558   28.8339   43.8130 H   0  0  0  0  0  0  0  0  0  0  0  0
   62.0605   28.5338   45.3838 H   0  0  0  0  0  0  0  0  0  0  0  0
   61.2706   30.0123   44.6929 H   0  0  0  0  0  0  0  0  0  0  0  0
   59.7950   28.9330   46.8730 H   0  0  0  0  0  0  0  0  0  0  0  0
   61.3250   29.2020   47.3600 H   0  0  0  0  0  0  0  0  0  0  0  0
   62.5616   30.2052   48.1696 H   0  0  0  0  0  0  0  0  0  0  0  0
   64.2651   31.7476   49.1061 H   0  0  0  0  0  0  0  0  0  0  0  0
   64.0553   34.2005   48.7601 H   0  0  0  0  0  0  0  0  0  0  0  0
   62.0722   35.1291   47.5946 H   0  0  0  0  0  0  0  0  0  0  0  0
   59.5992   35.3660   47.9447 H   0  0  0  0  0  0  0  0  0  0  0  0
   60.4291   35.7636   46.4020 H   0  0  0  0  0  0  0  0  0  0  0  0
   58.6790   35.3591   46.4020 H   0  0  0  0  0  0  0  0  0  0  0  0
   57.9623   34.5107   45.0967 H   0  0  0  0  0  0  0  0  0  0  0  0
   56.2848   33.0281   44.0275 H   0  0  0  0  0  0  0  0  0  0  0  0
   58.3212   29.5652   45.5771 H   0  0  0  0  0  0  0  0  0  0  0  0
  1  2  1  0
  2  3  1  0
  3  4  1  0
  4  5  1  0
  3  6  1  0
  6  7  1  0
  7  8  1  0
  8  9  1  0
  9 10  2  0
 10 11  1  0
 11 12  2  0
 12 13  1  0
 13 14  2  0
 14 15  1  0
 15 16  2  0
 16 17  1  0
 16 18  1  0
 18 19  2  0
 19 20  1  0
 20 21  2  0
 21 22  1  0
 21 23  1  0
 23 24  2  0
 24  9  1  0
 15 10  1  0
 24 18  1  0
  1 25  1  0
  1 26  1  0
  1 27  1  0
  2 28  1  0
  2 29  1  0
  4 30  1  0
  4 31  1  0
  5 32  1  0
  5 33  1  0
  5 34  1  0
  6 35  1  0
  6 36  1  0
  7 37  1  0
  7 38  1  0
  8 39  1  0
  8 40  1  0
 11 41  1  0
 12 42  1  0
 13 43  1  0
 14 44  1  0
 17 45  1  0
 17 46  1  0
 17 47  1  0
 19 48  1  0
 20 49  1  0
 23 50  1  0
M  CHG  2   8   1  16   1
M  END
>  <UniqueID>  (28) 
27

>  <SMILES>  (28) 
CCN(CC)CC[NH2+]c1c2ccccc2[n+](C)c2ccc(Br)cc12

>  <Energy>  (28) 
77.29500092563495

>  <Genealogy>  (28) 
CCN(CC)CC[NH2+]c1c2ccccc2[n+](C)c2ccc(Br)cc12 (protonated)
CCN(CC)CC[NH2+]c1c2ccccc2[n+](C)c2ccc(Br)cc12 (3D coordinates assigned)
CCN(CC)CC[NH2+]c1c2ccccc2[n+](C)c2ccc(Br)cc12 (optimized conformer: 77.29500092563495 kcal/mol)

>  <smiles>  (28) 
CCN(CC)CCNc1c2ccccc2[n+](C)c2ccc(Br)cc12

>  <score_type>  (28) 
oracle

>  <origin>  (28) 
adg

>  <m_score__min__energy>  (28) 
-4.6100000000000003

>  <m_primary>  (28) 
energy

$$$$
28:0
     RDKit          3D

 59 61  0  0  0  0  0  0  0  0999 V2000
   55.5830   29.7250   43.7870 C   0  0  0  0  0  0  0  0  0  0  0  0
   56.6220   30.8410   43.7840 C   0  0  0  0  0  0  0  0  0  0  0  0
   56.3550   31.7790   44.8240 O   0  0  0  0  0  0  0  0  0  0  0  0
   57.2320   32.8120   45.1800 C   0  0  0  0  0  0  0  0  0  0  0  0
   56.9230   34.0100   44.9280 O   0  0  0  0  0  0  0  0  0  0  0  0
   58.5300   32.5050   45.8420 C   0  0  0  0  0  0  0  0  0  0  0  0
   59.0060   31.1860   45.8550 C   0  0  0  0  0  0  0  0  0  0  0  0
   60.1890   30.8470   46.4550 N   0  0  0  0  0  0  0  0  0  0  0  0
   60.5840   29.4220   46.4220 C   0  0  0  0  0  0  0  0  0  0  0  0
   59.3720   28.5220   46.3770 C   0  0  0  0  0  0  0  0  0  0  0  0
   58.7520   28.2290   45.1520 C   0  0  0  0  0  0  0  0  0  0  0  0
   57.6390   27.3850   45.1060 C   0  0  0  0  0  0  0  0  0  0  0  0
   57.1360   26.8080   46.2870 C   0  0  0  0  0  0  0  0  0  0  0  0
   56.0220   25.9560   46.2950 O   0  0  0  0  0  0  0  0  0  0  0  0
   55.9220   24.7570   45.5330 C   0  0  0  0  0  0  0  0  0  0  0  0
   57.7690   27.0850   47.5040 C   0  0  0  0  0  0  0  0  0  0  0  0
   58.8820   27.9290   47.5500 C   0  0  0  0  0  0  0  0  0  0  0  0
   60.9550   31.8140   47.0790 C   0  0  0  0  0  0  0  0  0  0  0  0
   62.1790   31.5020   47.7200 C   0  0  0  0  0  0  0  0  0  0  0  0
   62.9430   32.4940   48.3490 C   0  0  0  0  0  0  0  0  0  0  0  0
   64.2550   32.1460   49.0180 C   0  0  0  0  0  0  0  0  0  0  0  0
   64.0530   31.5950   50.3820 N   0  0  2  0  0  0  0  0  0  0  0  0
   63.1920   32.4940   51.1760 C   0  0  0  0  0  0  0  0  0  0  0  0
   65.3520   31.4110   51.0780 C   0  0  0  0  0  0  0  0  0  0  0  0
   66.4570   32.3020   50.4970 C   0  0  0  0  0  0  0  0  0  0  0  0
   62.4990   33.8180   48.3360 C   0  0  0  0  0  0  0  0  0  0  0  0
   61.2990   34.1530   47.7160 C   0  0  0  0  0  0  0  0  0  0  0  0
   60.5170   33.1650   47.0860 C   0  0  0  0  0  0  0  0  0  0  0  0
   59.3020   33.5020   46.4630 C   0  0  0  0  0  0  0  0  0  0  0  0
   58.9100   34.7020   46.4600 O   0  0  0  0  0  0  0  0  0  0  0  0
   55.3345   29.4581   44.8248 H   0  0  0  0  0  0  0  0  0  0  0  0
   54.6751   30.0679   43.2692 H   0  0  0  0  0  0  0  0  0  0  0  0
   55.9898   28.8439   43.2692 H   0  0  0  0  0  0  0  0  0  0  0  0
   57.6204   30.4056   43.9376 H   0  0  0  0  0  0  0  0  0  0  0  0
   56.5787   31.3628   42.8166 H   0  0  0  0  0  0  0  0  0  0  0  0
   58.4106   30.3996   45.3682 H   0  0  0  0  0  0  0  0  0  0  0  0
   61.1994   29.2405   45.5285 H   0  0  0  0  0  0  0  0  0  0  0  0
   61.1527   29.1962   47.3361 H   0  0  0  0  0  0  0  0  0  0  0  0
   59.1448   28.6666   44.2223 H   0  0  0  0  0  0  0  0  0  0  0  0
   57.1539   27.1707   44.1423 H   0  0  0  0  0  0  0  0  0  0  0  0
   55.8501   23.8953   46.2130 H   0  0  0  0  0  0  0  0  0  0  0  0
   55.0243   24.7994   44.8987 H   0  0  0  0  0  0  0  0  0  0  0  0
   56.8144   24.6501   44.8987 H   0  0  0  0  0  0  0  0  0  0  0  0
   57.3873   26.6346   48.4322 H   0  0  0  0  0  0  0  0  0  0  0  0
   59.3767   28.1295   48.5118 H   0  0  0  0  0  0  0  0  0  0  0  0
   62.5364   30.4617   47.7241 H   0  0  0  0  0  0  0  0  0  0  0  0
   64.7784   31.3967   48.4059 H   0  0  0  0  0  0  0  0  0  0  0  0
   64.8468   33.0689   49.1078 H   0  0  0  0  0  0  0  0  0  0  0  0
   63.5660   30.6690   50.3200 H   0  0  0  0  0  0  0  0  0  0  0  0
   63.3639   32.3145   52.2475 H   0  0  0  0  0  0  0  0  0  0  0  0
   63.4339   33.5399   50.9360 H   0  0  0  0  0  0  0  0  0  0  0  0
   62.1367   32.2974   50.9360 H   0  0  0  0  0  0  0  0  0  0  0  0
   65.2212   31.6585   52.1418 H   0  0  0  0  0  0  0  0  0  0  0  0
   65.6597   30.3635   50.9433 H   0  0  0  0  0  0  0  0  0  0  0  0
   67.0270   32.7616   51.3179 H   0  0  0  0  0  0  0  0  0  0  0  0
   67.1320   31.6925   49.8782 H   0  0  0  0  0  0  0  0  0  0  0  0
   66.0045   33.0909   49.8782 H   0  0  0  0  0  0  0  0  0  0  0  0
   63.1018   34.6012   48.8190 H   0  0  0  0  0  0  0  0  0  0  0  0
   60.9580   35.1988   47.7179 H   0  0  0  0  0  0  0  0  0  0  0  0
  1  2  1  0
  2  3  1  0
  3  4  1  0
  4  5  2  0
  4  6  1  0
  6  7  2  0
  7  8  1  0
  8  9  1  0
  9 10  1  0
 10 11  2  0
 11 12  1  0
 12 13  2  0
 13 14  1  0
 14 15  1  0
 13 16  1  0
 16 17  2  0
  8 18  1  0
 18 19  2  0
 19 20  1  0
 20 21  1  0
 21 22  1  0
 22 23  1  0
 22 24  1  0
 24 25  1  0
 20 26  2  0
 26 27  1  0
 27 28  2  0
 28 29  1  0
 29 30  2  0
 29  6  1  0
 17 10  1  0
 28 18  1  0
  1 31  1  0
  1 32  1  0
  1 33  1  0
  2 34  1  0
  2 35  1  0
  7 36  1  0
  9 37  1  0
  9 38  1  0
 11 39  1  0
 12 40  1  0
 15 41  1  0
 15 42  1  0
 15 43  1  0
 16 44  1  0
 17 45  1  0
 19 46  1  0
 21 47  1  0
 21 48  1  0
 22 49  1  6
 23 50  1  0
 23 51  1  0
 23 52  1  0
 24 53  1  0
 24 54  1  0
 25 55  1  0
 25 56  1  0
 25 57  1  0
 26 58  1  0
 27 59  1  0
M  CHG  1  22   1
M  END
>  <UniqueID>  (29) 
28

>  <SMILES>  (29) 
CCOC(=O)c1cn(Cc2ccc(OC)cc2)c2cc(C[N@H+](C)CC)ccc2c1=O

>  <Energy>  (29) 
67.91426117053082

>  <Genealogy>  (29) 
CCOC(=O)c1cn(Cc2ccc(OC)cc2)c2cc(C[NH+](C)CC)ccc2c1=O (protonated)
CCOC(=O)c1cn(Cc2ccc(OC)cc2)c2cc(C[N@H+](C)CC)ccc2c1=O (chirality)
CCOC(=O)c1cn(Cc2ccc(OC)cc2)c2cc(C[N@H+](C)CC)ccc2c1=O (3D coordinates assigned)
CCOC(=O)c1cn(Cc2ccc(OC)cc2)c2cc(C[N@H+](C)CC)ccc2c1=O (optimized conformer: 67.91426117053082 kcal/mol)

>  <smiles>  (29) 
CCOC(=O)c1cn(Cc2ccc(OC)cc2)c2cc(CN(C)CC)ccc2c1=O

>  <score_type>  (29) 
oracle

>  <origin>  (29) 
adg

>  <m_score__min__energy>  (29) 
-6.7699999999999996

>  <m_primary>  (29) 
energy

$$$$
29:0
     RDKit          3D

 53 56  0  0  0  0  0  0  0  0999 V2000
   60.2890   33.8160   49.5200 C   0  0  0  0  0  0  0  0  0  0  0  0
   61.7560   33.4020   49.4400 C   0  0  0  0  0  0  0  0  0  0  0  0
   61.8980   32.1630   48.6410 N   0  0  0  0  0  0  0  0  0  0  0  0
   63.2790   32.0060   48.1310 C   0  0  0  0  0  0  0  0  0  0  0  0
   63.5860   33.0900   47.1020 C   0  0  0  0  0  0  0  0  0  0  0  0
   61.4730   30.9730   49.4150 C   0  0  0  0  0  0  0  0  0  0  0  0
   60.5130   30.1040   48.5890 C   0  0  0  0  0  0  0  0  0  0  0  0
   60.8880   30.0960   47.1640 N   0  0  0  0  0  0  0  0  0  0  0  0
   59.7250   29.8750   46.3330 C   0  0  0  0  0  0  0  0  0  0  0  0
   59.2810   28.5580   46.0270 C   0  0  0  0  0  0  0  0  0  0  0  0
   60.0380   27.4100   46.3620 C   0  0  0  0  0  0  0  0  0  0  0  0
   59.5750   26.1320   46.0590 C   0  0  0  0  0  0  0  0  0  0  0  0
   58.3570   25.9650   45.4130 C   0  0  0  0  0  0  0  0  0  0  0  0
   57.5930   27.0730   45.0580 C   0  0  0  0  0  0  0  0  0  0  0  0
   58.0320   28.3890   45.3510 C   0  0  0  0  0  0  0  0  0  0  0  0
   57.2780   29.4890   44.9980 N   0  0  0  0  0  0  0  0  0  0  0  0
   55.9670   29.3430   44.3360 C   0  0  0  0  0  0  0  0  0  0  0  0
   57.7800   30.7350   45.2440 C   0  0  0  0  0  0  0  0  0  0  0  0
   57.1540   31.8850   44.8890 N   0  0  0  0  0  0  0  0  0  0  0  0
   58.0130   32.8330   45.2950 C   0  0  0  0  0  0  0  0  0  0  0  0
   57.8630   34.2070   45.1350 C   0  0  0  0  0  0  0  0  0  0  0  0
   58.9060   35.0390   45.5680 C   0  0  0  0  0  0  0  0  0  0  0  0
   60.0710   34.4810   46.1280 C   0  0  0  0  0  0  0  0  0  0  0  0
   60.2020   33.0880   46.2750 C   0  0  0  0  0  0  0  0  0  0  0  0
   59.1280   32.2720   45.8720 C   0  0  0  0  0  0  0  0  0  0  0  0
   58.9760   30.9220   45.8600 N   0  0  0  0  0  0  0  0  0  0  0  0
   59.9889   33.9007   50.5749 H   0  0  0  0  0  0  0  0  0  0  0  0
   60.1544   34.7872   49.0214 H   0  0  0  0  0  0  0  0  0  0  0  0
   59.6665   33.0585   49.0214 H   0  0  0  0  0  0  0  0  0  0  0  0
   62.3351   34.2080   48.9656 H   0  0  0  0  0  0  0  0  0  0  0  0
   62.1313   33.2166   50.4572 H   0  0  0  0  0  0  0  0  0  0  0  0
   63.9874   32.0886   48.9685 H   0  0  0  0  0  0  0  0  0  0  0  0
   63.3759   31.0197   47.6537 H   0  0  0  0  0  0  0  0  0  0  0  0
   63.8504   34.0234   47.6205 H   0  0  0  0  0  0  0  0  0  0  0  0
   64.4286   32.7693   46.4718 H   0  0  0  0  0  0  0  0  0  0  0  0
   62.7003   33.2588   46.4718 H   0  0  0  0  0  0  0  0  0  0  0  0
   62.3600   30.3791   49.6807 H   0  0  0  0  0  0  0  0  0  0  0  0
   60.9530   31.3091   50.3242 H   0  0  0  0  0  0  0  0  0  0  0  0
   60.5425   29.0736   48.9729 H   0  0  0  0  0  0  0  0  0  0  0  0
   59.5005   30.5245   48.6787 H   0  0  0  0  0  0  0  0  0  0  0  0
   61.6190   29.3850   46.9540 H   0  0  0  0  0  0  0  0  0  0  0  0
   61.3520   30.9970   46.9090 H   0  0  0  0  0  0  0  0  0  0  0  0
   61.0067   27.5290   46.8694 H   0  0  0  0  0  0  0  0  0  0  0  0
   60.1759   25.2521   46.3322 H   0  0  0  0  0  0  0  0  0  0  0  0
   57.9945   24.9527   45.1809 H   0  0  0  0  0  0  0  0  0  0  0  0
   56.6330   26.9253   44.5417 H   0  0  0  0  0  0  0  0  0  0  0  0
   55.1790   29.2552   45.0984 H   0  0  0  0  0  0  0  0  0  0  0  0
   55.7731   30.2251   43.7081 H   0  0  0  0  0  0  0  0  0  0  0  0
   55.9719   28.4398   43.7081 H   0  0  0  0  0  0  0  0  0  0  0  0
   56.9533   34.6284   44.6823 H   0  0  0  0  0  0  0  0  0  0  0  0
   58.8134   36.1307   45.4697 H   0  0  0  0  0  0  0  0  0  0  0  0
   60.8879   35.1415   46.4542 H   0  0  0  0  0  0  0  0  0  0  0  0
   61.1192   32.6482   46.6937 H   0  0  0  0  0  0  0  0  0  0  0  0
  1  2  1  0
  2  3  1  0
  3  4  1  0
  4  5  1  0
  3  6  1  0
  6  7  1  0
  7  8  1  0
  8  9  1  0
  9 10  2  0
 10 11  1  0
 11 12  2  0
 12 13  1  0
 13 14  2  0
 14 15  1  0
 15 16  2  0
 16 17  1  0
 16 18  1  0
 18 19  2  0
 19 20  1  0
 20 21  2  0
 21 22  1  0
 22 23  2  0
 23 24  1  0
 24 25  2  0
 25 26  1  0
 26  9  1  0
 15 10  1  0
 26 18  1  0
 25 20  1  0
  1 27  1  0
  1 28  1  0
  1 29  1  0
  2 30  1  0
  2 31  1  0
  4 32  1  0
  4 33  1  0
  5 34  1  0
  5 35  1  0
  5 36  1  0
  6 37  1  0
  6 38  1  0
  7 39  1  0
  7 40  1  0
  8 41  1  0
  8 42  1  0
 11 43  1  0
 12 44  1  0
 13 45  1  0
 14 46  1  0
 17 47  1  0
 17 48  1  0
 17 49  1  0
 21 50  1  0
 22 51  1  0
 23 52  1  0
 24 53  1  0
M  CHG  2   8   1  16   1
M  END
>  <UniqueID>  (30) 
29

>  <SMILES>  (30) 
CCN(CC)CC[NH2+]c1c2ccccc2[n+](C)c2nc3ccccc3n12

>  <Energy>  (30) 
113.29607930463091

>  <Genealogy>  (30) 
CCN(CC)CC[NH2+]c1c2ccccc2[n+](C)c2nc3ccccc3n12 (protonated)
CCN(CC)CC[NH2+]c1c2ccccc2[n+](C)c2nc3ccccc3n12 (3D coordinates assigned)
CCN(CC)CC[NH2+]c1c2ccccc2[n+](C)c2nc3ccccc3n12 (optimized conformer: 113.29607930463091 kcal/mol)

>  <smiles>  (30) 
CCN(CC)CCNc1c2ccccc2[n+](C)c2nc3ccccc3n12

>  <score_type>  (30) 
oracle

>  <origin>  (30) 
adg

>  <m_score__min__energy>  (30) 
-4.5800000000000001

>  <m_primary>  (30) 
energy

$$$$
30:0
     RDKit          3D

 55 56  0  0  0  0  0  0  0  0999 V2000
   56.6540   22.0980   43.0820 C   0  0  0  0  0  0  0  0  0  0  0  0
   56.5160   23.6230   43.0160 C   0  0  0  0  0  0  0  0  0  0  0  0
   56.5250   24.3330   44.3260 N   0  0  0  0  0  0  0  0  0  0  0  0
   55.2140   24.3890   45.0330 C   0  0  0  0  0  0  0  0  0  0  0  0
   55.1790   23.7350   46.4200 C   0  0  0  0  0  0  0  0  0  0  0  0
   57.7400   24.1320   45.1760 C   0  0  0  0  0  0  0  0  0  0  0  0
   58.4870   25.3960   45.6450 C   0  0  0  0  0  0  0  0  0  0  0  0
   57.7370   26.5760   45.3830 O   0  0  0  0  0  0  0  0  0  0  0  0
   57.8570   27.2980   44.1890 C   0  0  0  0  0  0  0  0  0  0  0  0
   58.0510   26.6880   43.1020 O   0  0  0  0  0  0  0  0  0  0  0  0
   57.7480   28.7770   44.2130 C   0  0  0  0  0  0  0  0  0  0  0  0
   56.6720   29.3910   43.5510 C   0  0  0  0  0  0  0  0  0  0  0  0
   56.5440   30.7780   43.5280 C   0  0  0  0  0  0  0  0  0  0  0  0
   57.4910   31.5910   44.1690 C   0  0  0  0  0  0  0  0  0  0  0  0
   57.3960   33.0270   44.1400 N   0  0  0  0  0  0  0  0  0  0  0  0
   57.2190   33.8600   45.3300 C   0  0  0  0  0  0  0  0  0  0  0  0
   58.4760   33.8640   46.1600 C   0  0  0  0  0  0  0  0  0  0  0  0
   58.4320   33.4480   47.5000 C   0  0  0  0  0  0  0  0  0  0  0  0
   59.6000   33.4160   48.2680 C   0  0  0  0  0  0  0  0  0  0  0  0
   60.8200   33.7990   47.7040 C   0  0  0  0  0  0  0  0  0  0  0  0
   62.4180   33.7440   48.7500 Br  0  0  0  0  0  0  0  0  0  0  0  0
   60.8710   34.2210   46.3710 C   0  0  0  0  0  0  0  0  0  0  0  0
   59.7040   34.2560   45.6020 C   0  0  0  0  0  0  0  0  0  0  0  0
   58.5530   30.9870   44.8550 C   0  0  0  0  0  0  0  0  0  0  0  0
   58.7010   29.5840   44.8780 C   0  0  0  0  0  0  0  0  0  0  0  0
   59.7850   28.9740   45.5320 O   0  0  0  0  0  0  0  0  0  0  0  0
   61.0100   28.6060   44.9040 C   0  0  0  0  0  0  0  0  0  0  0  0
   56.6830   21.7776   44.1339 H   0  0  0  0  0  0  0  0  0  0  0  0
   55.7945   21.6300   42.5797 H   0  0  0  0  0  0  0  0  0  0  0  0
   57.5835   21.7919   42.5797 H   0  0  0  0  0  0  0  0  0  0  0  0
   57.3519   24.0117   42.4159 H   0  0  0  0  0  0  0  0  0  0  0  0
   55.5245   23.8143   42.5797 H   0  0  0  0  0  0  0  0  0  0  0  0
   56.6380   25.3310   44.0210 H   0  0  0  0  0  0  0  0  0  0  0  0
   54.9384   25.4474   45.1511 H   0  0  0  0  0  0  0  0  0  0  0  0
   54.5128   23.8128   44.4115 H   0  0  0  0  0  0  0  0  0  0  0  0
   55.2208   24.5151   47.1944 H   0  0  0  0  0  0  0  0  0  0  0  0
   54.2487   23.1584   46.5301 H   0  0  0  0  0  0  0  0  0  0  0  0
   56.0424   23.0624   46.5301 H   0  0  0  0  0  0  0  0  0  0  0  0
   57.4279   23.5793   46.0744 H   0  0  0  0  0  0  0  0  0  0  0  0
   58.4551   23.6031   44.5288 H   0  0  0  0  0  0  0  0  0  0  0  0
   58.6691   25.3219   46.7273 H   0  0  0  0  0  0  0  0  0  0  0  0
   59.4347   25.4609   45.0903 H   0  0  0  0  0  0  0  0  0  0  0  0
   55.9203   28.7683   43.0439 H   0  0  0  0  0  0  0  0  0  0  0  0
   55.6942   31.2392   43.0034 H   0  0  0  0  0  0  0  0  0  0  0  0
   57.3300   33.5040   43.2110 H   0  0  0  0  0  0  0  0  0  0  0  0
   56.9859   34.8895   45.0204 H   0  0  0  0  0  0  0  0  0  0  0  0
   56.3948   33.4507   45.9327 H   0  0  0  0  0  0  0  0  0  0  0  0
   57.4739   33.1457   47.9480 H   0  0  0  0  0  0  0  0  0  0  0  0
   59.5586   33.0890   49.3174 H   0  0  0  0  0  0  0  0  0  0  0  0
   61.8305   34.5256   45.9275 H   0  0  0  0  0  0  0  0  0  0  0  0
   59.7476   34.5920   44.5555 H   0  0  0  0  0  0  0  0  0  0  0  0
   59.2832   31.6168   45.3842 H   0  0  0  0  0  0  0  0  0  0  0  0
   61.7630   28.3798   45.6733 H   0  0  0  0  0  0  0  0  0  0  0  0
   60.8479   27.7169   44.2769 H   0  0  0  0  0  0  0  0  0  0  0  0
   61.3647   29.4372   44.2769 H   0  0  0  0  0  0  0  0  0  0  0  0
  1  2  1  0
  2  3  1  0
  3  4  1  0
  4  5  1  0
  3  6  1  0
  6  7  1  0
  7  8  1  0
  8  9  1  0
  9 10  2  0
  9 11  1  0
 11 12  2  0
 12 13  1  0
 13 14  2  0
 14 15  1  0
 15 16  1  0
 16 17  1  0
 17 18  2  0
 18 19  1  0
 19 20  2  0
 20 21  1  0
 20 22  1  0
 22 23  2  0
 14 24  1  0
 24 25  2  0
 25 26  1  0
 26 27  1  0
 25 11  1  0
 23 17  1  0
  1 28  1  0
  1 29  1  0
  1 30  1  0
  2 31  1  0
  2 32  1  0
  3 33  1  0
  4 34  1  0
  4 35  1  0
  5 36  1  0
  5 37  1  0
  5 38  1  0
  6 39  1  0
  6 40  1  0
  7 41  1  0
  7 42  1  0
 12 43  1  0
 13 44  1  0
 15 45  1  0
 16 46  1  0
 16 47  1  0
 18 48  1  0
 19 49  1  0
 22 50  1  0
 23 51  1  0
 24 52  1  0
 27 53  1  0
 27 54  1  0
 27 55  1  0
M  CHG  1   3   1
M  END
>  <UniqueID>  (31) 
30

>  <SMILES>  (31) 
CC[NH+](CC)CCOC(=O)c1ccc(NCc2ccc(Br)cc2)cc1OC

>  <Energy>  (31) 
68.51146268863111

>  <Genealogy>  (31) 
CC[NH+](CC)CCOC(=O)c1ccc(NCc2ccc(Br)cc2)cc1OC (protonated)
CC[NH+](CC)CCOC(=O)c1ccc(NCc2ccc(Br)cc2)cc1OC (3D coordinates assigned)
CC[NH+](CC)CCOC(=O)c1ccc(NCc2ccc(Br)cc2)cc1OC (optimized conformer: 68.51146268863111 kcal/mol)

>  <smiles>  (31) 
CCN(CC)CCOC(=O)c1ccc(NCc2ccc(Br)cc2)cc1OC

>  <score_type>  (31) 
oracle

>  <origin>  (31) 
adg

>  <m_score__min__energy>  (31) 
-5.5899999999999999

>  <m_primary>  (31) 
energy

$$$$
31:0
     RDKit          3D

 49 51  0  0  0  0  0  0  0  0999 V2000
   57.3790   31.2510   43.0900 C   0  0  0  0  0  0  0  0  0  0  0  0
   56.6680   30.3640   44.1260 C   0  0  0  0  0  0  0  0  0  0  0  0
   57.5710   29.5630   44.9930 N   0  0  0  0  0  0  0  0  0  0  0  0
   57.4040   28.0950   44.9560 C   0  0  0  0  0  0  0  0  0  0  0  0
   58.1350   27.4860   43.7610 C   0  0  0  0  0  0  0  0  0  0  0  0
   58.9830   30.0110   45.0090 C   0  0  0  0  0  0  0  0  0  0  0  0
   59.7190   29.6890   46.3200 C   0  0  0  0  0  0  0  0  0  0  0  0
   58.8070   29.8160   47.4670 N   0  0  0  0  0  0  0  0  0  0  0  0
   59.1710   30.9120   48.3850 C   0  0  0  0  0  0  0  0  0  0  0  0
   59.8710   32.0750   47.6690 C   0  0  0  0  0  0  0  0  0  0  0  0
   61.2600   32.3580   47.8840 C   0  0  0  0  0  0  0  0  0  0  0  0
   62.0730   31.6060   48.7680 C   0  0  0  0  0  0  0  0  0  0  0  0
   63.4270   31.9050   48.9390 C   0  0  0  0  0  0  0  0  0  0  0  0
   64.0050   32.9620   48.2460 C   0  0  0  0  0  0  0  0  0  0  0  0
   63.2330   33.7260   47.3760 C   0  0  0  0  0  0  0  0  0  0  0  0
   61.8720   33.4360   47.1870 C   0  0  0  0  0  0  0  0  0  0  0  0
   61.1300   34.2200   46.3050 C   0  0  0  0  0  0  0  0  0  0  0  0
   59.7790   33.9630   46.0830 C   0  0  0  0  0  0  0  0  0  0  0  0
   59.0660   34.7770   45.1860 C   0  0  0  0  0  0  0  0  0  0  0  0
   57.7160   34.5450   44.9420 C   0  0  0  0  0  0  0  0  0  0  0  0
   57.0630   33.5000   45.5870 C   0  0  0  0  0  0  0  0  0  0  0  0
   57.7550   32.6820   46.4820 C   0  0  0  0  0  0  0  0  0  0  0  0
   59.1310   32.8930   46.7540 C   0  0  0  0  0  0  0  0  0  0  0  0
   57.9854   32.0075   43.6096 H   0  0  0  0  0  0  0  0  0  0  0  0
   58.0308   30.6282   42.4598 H   0  0  0  0  0  0  0  0  0  0  0  0
   56.6293   31.7517   42.4598 H   0  0  0  0  0  0  0  0  0  0  0  0
   56.0619   31.0146   44.7736 H   0  0  0  0  0  0  0  0  0  0  0  0
   56.0709   29.6399   43.5523 H   0  0  0  0  0  0  0  0  0  0  0  0
   57.8105   27.6641   45.8829 H   0  0  0  0  0  0  0  0  0  0  0  0
   56.3318   27.8686   44.8608 H   0  0  0  0  0  0  0  0  0  0  0  0
   58.9338   26.8205   44.1201 H   0  0  0  0  0  0  0  0  0  0  0  0
   57.4239   26.9094   43.1512 H   0  0  0  0  0  0  0  0  0  0  0  0
   58.5737   28.2895   43.1512 H   0  0  0  0  0  0  0  0  0  0  0  0
   59.5137   29.5161   44.1823 H   0  0  0  0  0  0  0  0  0  0  0  0
   58.9739   31.1061   44.9062 H   0  0  0  0  0  0  0  0  0  0  0  0
   60.1038   28.6595   46.2757 H   0  0  0  0  0  0  0  0  0  0  0  0
   60.5497   30.3991   46.4455 H   0  0  0  0  0  0  0  0  0  0  0  0
   57.8400   29.9740   47.1000 H   0  0  0  0  0  0  0  0  0  0  0  0
   58.2548   31.2917   48.8608 H   0  0  0  0  0  0  0  0  0  0  0  0
   59.8750   30.5054   49.1260 H   0  0  0  0  0  0  0  0  0  0  0  0
   61.6297   30.7710   49.3303 H   0  0  0  0  0  0  0  0  0  0  0  0
   64.0385   31.3009   49.6254 H   0  0  0  0  0  0  0  0  0  0  0  0
   65.0712   33.1943   48.3850 H   0  0  0  0  0  0  0  0  0  0  0  0
   63.6927   34.5641   46.8318 H   0  0  0  0  0  0  0  0  0  0  0  0
   61.6178   35.0528   45.7772 H   0  0  0  0  0  0  0  0  0  0  0  0
   59.5792   35.6037   44.6730 H   0  0  0  0  0  0  0  0  0  0  0  0
   57.1654   35.1877   44.2393 H   0  0  0  0  0  0  0  0  0  0  0  0
   55.9962   33.3172   45.3910 H   0  0  0  0  0  0  0  0  0  0  0  0
   57.2242   31.8601   46.9847 H   0  0  0  0  0  0  0  0  0  0  0  0
  1  2  1  0
  2  3  1  0
  3  4  1  0
  4  5  1  0
  3  6  1  0
  6  7  1  0
  7  8  1  0
  8  9  1  0
  9 10  1  0
 10 11  2  0
 11 12  1  0
 12 13  2  0
 13 14  1  0
 14 15  2  0
 15 16  1  0
 16 17  2  0
 17 18  1  0
 18 19  2  0
 19 20  1  0
 20 21  2  0
 21 22  1  0
 22 23  2  0
 23 10  1  0
 16 11  1  0
 23 18  1  0
  1 24  1  0
  1 25  1  0
  1 26  1  0
  2 27  1  0
  2 28  1  0
  4 29  1  0
  4 30  1  0
  5 31  1  0
  5 32  1  0
  5 33  1  0
  6 34  1  0
  6 35  1  0
  7 36  1  0
  7 37  1  0
  8 38  1  0
  9 39  1  0
  9 40  1  0
 12 41  1  0
 13 42  1  0
 14 43  1  0
 15 44  1  0
 17 45  1  0
 19 46  1  0
 20 47  1  0
 21 48  1  0
 22 49  1  0
M  END
>  <UniqueID>  (32) 
31

>  <SMILES>  (32) 
CCN(CC)CCNCc1c2ccccc2cc2ccccc12

>  <Energy>  (32) 
70.7751891149985

>  <Genealogy>  (32) 
CCN(CC)CCNCc1c2ccccc2cc2ccccc12 (3D coordinates assigned)
CCN(CC)CCNCc1c2ccccc2cc2ccccc12 (optimized conformer: 70.7751891149985 kcal/mol)

>  <smiles>  (32) 
CCN(CC)CCNCc1c2ccccc2cc2ccccc12

>  <score_type>  (32) 
oracle

>  <origin>  (32) 
adg

>  <m_score__min__energy>  (32) 
-7.4000000000000004

>  <m_primary>  (32) 
energy

$$$$
32:0
     RDKit          3D

 38 39  0  0  0  0  0  0  0  0999 V2000
   58.0690   34.4020   45.1460 C   0  0  0  0  0  0  0  0  0  0  0  0
   58.1890   32.9040   45.1680 C   0  0  0  0  0  0  0  0  0  0  0  0
   57.3900   32.1430   44.3040 C   0  0  0  0  0  0  0  0  0  0  0  0
   57.4610   30.7480   44.3060 C   0  0  0  0  0  0  0  0  0  0  0  0
   56.3230   29.7830   43.1020 Br  0  0  0  0  0  0  0  0  0  0  0  0
   58.3440   30.0900   45.1790 C   0  0  0  0  0  0  0  0  0  0  0  0
   58.4340   28.1670   45.1920 Br  0  0  0  0  0  0  0  0  0  0  0  0
   59.1660   30.8460   46.0360 C   0  0  0  0  0  0  0  0  0  0  0  0
   60.4000   29.9880   47.2350 Br  0  0  0  0  0  0  0  0  0  0  0  0
   59.1060   32.2480   46.0180 C   0  0  0  0  0  0  0  0  0  0  0  0
   59.9510   32.9710   46.8660 O   0  0  0  0  0  0  0  0  0  0  0  0
   60.9580   33.8450   46.3680 C   0  0  0  0  0  0  0  0  0  0  0  0
   62.1910   33.8200   47.2880 C   0  0  0  0  0  0  0  0  0  0  0  0
   62.0980   32.8050   48.3720 N   0  0  2  0  0  0  0  0  0  0  0  0
   61.7310   33.4260   49.6670 C   0  0  0  0  0  0  0  0  0  0  0  0
   62.8770   34.2550   50.2720 C   0  0  0  0  0  0  0  0  0  0  0  0
   64.1400   33.4040   50.4230 C   0  0  2  0  0  0  0  0  0  0  0  0
   65.1870   34.2010   50.8510 F   0  0  0  0  0  0  0  0  0  0  0  0
   64.5110   32.7410   49.0960 C   0  0  0  0  0  0  0  0  0  0  0  0
   63.3130   31.9660   48.5220 C   0  0  0  0  0  0  0  0  0  0  0  0
   58.0385   34.7826   46.1776 H   0  0  0  0  0  0  0  0  0  0  0  0
   58.9356   34.8316   44.6221 H   0  0  0  0  0  0  0  0  0  0  0  0
   57.1451   34.6882   44.6221 H   0  0  0  0  0  0  0  0  0  0  0  0
   56.6983   32.6506   43.6156 H   0  0  0  0  0  0  0  0  0  0  0  0
   61.2521   33.5216   45.3586 H   0  0  0  0  0  0  0  0  0  0  0  0
   60.5578   34.8691   46.3346 H   0  0  0  0  0  0  0  0  0  0  0  0
   63.0779   33.5972   46.6767 H   0  0  0  0  0  0  0  0  0  0  0  0
   62.2564   34.8062   47.7708 H   0  0  0  0  0  0  0  0  0  0  0  0
   61.3090   32.1590   48.1280 H   0  0  0  0  0  0  0  0  0  0  0  0
   60.8649   34.0854   49.5085 H   0  0  0  0  0  0  0  0  0  0  0  0
   61.4994   32.6139   50.3719 H   0  0  0  0  0  0  0  0  0  0  0  0
   63.0932   35.1078   49.6117 H   0  0  0  0  0  0  0  0  0  0  0  0
   62.5693   34.6103   51.2665 H   0  0  0  0  0  0  0  0  0  0  0  0
   63.9436   32.6157   51.1647 H   0  0  0  0  0  0  0  0  0  0  0  0
   64.8170   33.5162   48.3781 H   0  0  0  0  0  0  0  0  0  0  0  0
   65.3370   32.0361   49.2716 H   0  0  0  0  0  0  0  0  0  0  0  0
   63.5914   31.5722   47.5333 H   0  0  0  0  0  0  0  0  0  0  0  0
   63.0714   31.1608   49.2314 H   0  0  0  0  0  0  0  0  0  0  0  0
  1  2  1  0
  2  3  2  0
  3  4  1  0
  4  5  1  0
  4  6  2  0
  6  7  1  0
  6  8  1  0
  8  9  1  0
  8 10  2  0
 10 11  1  0
 11 12  1  0
 12 13  1  0
 13 14  1  0
 14 15  1  0
 15 16  1  0
 16 17  1  0
 17 18  1  0
 17 19  1  0
 19 20  1  0
 10  2  1  0
 20 14  1  0
  1 21  1  0
  1 22  1  0
  1 23  1  0
  3 24  1  0
 12 25  1  0
 12 26  1  0
 13 27  1  0
 13 28  1  0
 14 29  1  6
 15 30  1  0
 15 31  1  0
 16 32  1  0
 16 33  1  0
 17 34  1  1
 19 35  1  0
 19 36  1  0
 20 37  1  0
 20 38  1  0
M  CHG  1  14   1
M  END
>  <UniqueID>  (33) 
32

>  <SMILES>  (33) 
Cc1cc(Br)c(Br)c(Br)c1OCC[NH+]1CCC(F)CC1

>  <Energy>  (33) 
46.260422974042626

>  <Genealogy>  (33) 
Cc1cc(Br)c(Br)c(Br)c1OCC[NH+]1CCC(F)CC1 (protonated)
Cc1cc(Br)c(Br)c(Br)c1OCC[NH+]1CCC(F)CC1 (3D coordinates assigned)
Cc1cc(Br)c(Br)c(Br)c1OCC[NH+]1CCC(F)CC1 (nonaromatic ring conformer: 46.260422974042626 kcal/mol)

>  <smiles>  (33) 
Cc1cc(Br)c(Br)c(Br)c1OCCN1CCC(F)CC1

>  <score_type>  (33) 
oracle

>  <origin>  (33) 
adg

>  <m_score__min__energy>  (33) 
-5.5300000000000002

>  <m_primary>  (33) 
energy

$$$$
33:0
     RDKit          3D

 27 29  0  0  0  0  0  0  0  0999 V2000
   68.2690   32.7060   51.2810 C   0  0  0  0  0  0  0  0  0  0  0  0
   66.8370   33.0480   51.0010 C   0  0  0  0  0  0  0  0  0  0  0  0
   66.0730   33.7600   51.9640 C   0  0  0  0  0  0  0  0  0  0  0  0
   64.7390   34.1200   51.6990 C   0  0  0  0  0  0  0  0  0  0  0  0
   64.2090   33.7650   50.4640 C   0  0  0  0  0  0  0  0  0  0  0  0
   63.0080   33.9870   49.9880 O   0  0  0  0  0  0  0  0  0  0  0  0
   63.0010   33.4600   48.7740 C   0  0  0  0  0  0  0  0  0  0  0  0
   61.8590   33.4890   47.9030 C   0  0  0  0  0  0  0  0  0  0  0  0
   60.9010   33.5130   47.1720 C   0  0  0  0  0  0  0  0  0  0  0  0
   59.7580   33.5430   46.3010 C   0  0  0  0  0  0  0  0  0  0  0  0
   59.3110   34.7100   45.6680 C   0  0  0  0  0  0  0  0  0  0  0  0
   58.1910   34.5090   44.8730 C   0  0  0  0  0  0  0  0  0  0  0  0
   57.7700   32.8840   44.9660 S   0  0  0  0  0  0  0  0  0  0  0  0
   58.9990   32.4160   46.0120 C   0  0  0  0  0  0  0  0  0  0  0  0
   64.1840   32.8890   48.4400 N   0  0  0  0  0  0  0  0  0  0  0  0
   64.9400   33.0930   49.5290 C   0  0  0  0  0  0  0  0  0  0  0  0
   66.2620   32.7190   49.7520 C   0  0  0  0  0  0  0  0  0  0  0  0
   68.4309   32.6673   52.3683 H   0  0  0  0  0  0  0  0  0  0  0  0
   68.5050   31.7262   50.8401 H   0  0  0  0  0  0  0  0  0  0  0  0
   68.9222   33.4734   50.8401 H   0  0  0  0  0  0  0  0  0  0  0  0
   66.5292   34.0327   52.9271 H   0  0  0  0  0  0  0  0  0  0  0  0
   64.1370   34.6629   52.4425 H   0  0  0  0  0  0  0  0  0  0  0  0
   59.7990   35.6884   45.7889 H   0  0  0  0  0  0  0  0  0  0  0  0
   57.6698   35.2787   44.2848 H   0  0  0  0  0  0  0  0  0  0  0  0
   59.1714   31.4005   46.3982 H   0  0  0  0  0  0  0  0  0  0  0  0
   64.4450   32.4070   47.5510 H   0  0  0  0  0  0  0  0  0  0  0  0
   66.8397   32.1857   48.9827 H   0  0  0  0  0  0  0  0  0  0  0  0
  1  2  1  0
  2  3  2  0
  3  4  1  0
  4  5  2  0
  5  6  1  0
  6  7  1  0
  7  8  1  0
  8  9  3  0
  9 10  1  0
 10 11  1  0
 11 12  2  0
 12 13  1  0
 13 14  1  0
  7 15  2  0
 15 16  1  0
 16 17  2  0
 17  2  1  0
 16  5  1  0
 14 10  2  0
  1 18  1  0
  1 19  1  0
  1 20  1  0
  3 21  1  0
  4 22  1  0
 11 23  1  0
 12 24  1  0
 14 25  1  0
 15 26  1  0
 17 27  1  0
M  CHG  1  15   1
M  END
>  <UniqueID>  (34) 
33

>  <SMILES>  (34) 
Cc1ccc2oc(C#Cc3ccsc3)[nH+]c2c1

>  <Energy>  (34) 
89.34754643795962

>  <Genealogy>  (34) 
Cc1ccc2oc(C#Cc3ccsc3)[nH+]c2c1 (protonated)
Cc1ccc2oc(C#Cc3ccsc3)[nH+]c2c1 (3D coordinates assigned)
Cc1ccc2oc(C#Cc3ccsc3)[nH+]c2c1 (optimized conformer: 89.34754643795962 kcal/mol)

>  <smiles>  (34) 
Cc1ccc2oc(C#Cc3ccsc3)nc2c1

>  <score_type>  (34) 
oracle

>  <origin>  (34) 
adg

>  <m_score__min__energy>  (34) 
-4.3600000000000003

>  <m_primary>  (34) 
energy

$$$$
34:0
     RDKit          3D

 53 55  0  0  0  0  0  0  0  0999 V2000
   57.4980   34.1130   44.0020 H   0  0  0  0  0  0  0  0  0  0  0  0
   57.4000   33.0760   44.0270 N   0  0  0  0  0  0  0  0  0  0  0  0
   58.0530   32.2590   44.8050 C   0  0  0  0  0  0  0  0  0  0  0  0
   59.0070   32.8340   45.6860 C   0  0  0  0  0  0  0  0  0  0  0  0
   59.0480   34.3230   45.7960 C   0  0  0  0  0  0  0  0  0  0  0  0
   58.5460   35.0340   44.8810 O   0  0  0  0  0  0  0  0  0  0  0  0
   59.6630   34.9330   46.8960 O   0  0  0  0  0  0  0  0  0  0  0  0
   59.3420   34.5990   48.2410 C   0  0  0  0  0  0  0  0  0  0  0  0
   58.8682   35.4631   48.7298 H   0  0  0  0  0  0  0  0  0  0  0  0
   58.6485   33.7452   48.2501 H   0  0  0  0  0  0  0  0  0  0  0  0
   60.6110   34.2270   48.9900 C   0  0  0  0  0  0  0  0  0  0  0  0
   60.4267   34.2810   50.0731 H   0  0  0  0  0  0  0  0  0  0  0  0
   60.9097   33.2035   48.7195 H   0  0  0  0  0  0  0  0  0  0  0  0
   61.4151   34.9272   48.7195 H   0  0  0  0  0  0  0  0  0  0  0  0
   59.9270   32.1570   46.4450 N   0  0  0  0  0  0  0  0  0  0  0  0
   60.5210   32.7660   47.0520 H   0  0  0  0  0  0  0  0  0  0  0  0
   60.2400   30.8350   46.5720 C   0  0  0  0  0  0  0  0  0  0  0  0
   61.3600   30.4690   47.3340 O   0  0  0  0  0  0  0  0  0  0  0  0
   62.2810   31.3610   47.9020 C   0  0  0  0  0  0  0  0  0  0  0  0
   62.9370   32.3450   47.1370 C   0  0  0  0  0  0  0  0  0  0  0  0
   62.7245   32.4358   46.0615 H   0  0  0  0  0  0  0  0  0  0  0  0
   63.8590   33.2080   47.7420 C   0  0  0  0  0  0  0  0  0  0  0  0
   64.3640   33.9802   47.1430 H   0  0  0  0  0  0  0  0  0  0  0  0
   64.1380   33.0890   49.1060 C   0  0  0  0  0  0  0  0  0  0  0  0
   64.8582   33.7711   49.5814 H   0  0  0  0  0  0  0  0  0  0  0  0
   63.5020   32.1030   49.8670 C   0  0  0  0  0  0  0  0  0  0  0  0
   63.7263   32.0063   50.9395 H   0  0  0  0  0  0  0  0  0  0  0  0
   62.5810   31.2400   49.2650 C   0  0  0  0  0  0  0  0  0  0  0  0
   62.0888   30.4610   49.8657 H   0  0  0  0  0  0  0  0  0  0  0  0
   59.5030   29.8180   46.0820 N   0  0  0  0  0  0  0  0  0  0  0  0
   58.4010   29.8140   45.3130 C   0  0  0  0  0  0  0  0  0  0  0  0
   57.7680   30.8850   44.7250 C   0  0  0  0  0  0  0  0  0  0  0  0
   56.7290   30.2860   44.0040 C   0  0  0  0  0  0  0  0  0  0  0  0
   55.9918   30.8285   43.3939 H   0  0  0  0  0  0  0  0  0  0  0  0
   56.7620   28.9500   44.1650 N   0  0  0  0  0  0  0  0  0  0  0  0
   57.7860   28.6710   44.9480 N   0  0  0  0  0  0  0  0  0  0  0  0
   58.1220   27.3160   45.3820 C   0  0  0  0  0  0  0  0  0  0  0  0
   58.1343   26.6469   44.5090 H   0  0  0  0  0  0  0  0  0  0  0  0
   59.1128   27.3263   45.8597 H   0  0  0  0  0  0  0  0  0  0  0  0
   57.0850   26.8140   46.3900 C   0  0  0  0  0  0  0  0  0  0  0  0
   57.6044   26.4592   47.2924 H   0  0  0  0  0  0  0  0  0  0  0  0
   56.4063   27.6445   46.6341 H   0  0  0  0  0  0  0  0  0  0  0  0
   56.2560   25.6660   45.8070 C   0  0  0  0  0  0  0  0  0  0  0  0
   56.4939   25.5517   44.7391 H   0  0  0  0  0  0  0  0  0  0  0  0
   56.4975   24.7384   46.3467 H   0  0  0  0  0  0  0  0  0  0  0  0
   54.8730   25.9390   45.9520 O   0  0  0  0  0  0  0  0  0  0  0  0
   54.0860   24.8100   45.6190 C   0  0  0  0  0  0  0  0  0  0  0  0
   53.6784   24.3678   46.5400 H   0  0  0  0  0  0  0  0  0  0  0  0
   53.2664   25.1285   44.9581 H   0  0  0  0  0  0  0  0  0  0  0  0
   54.9310   23.7690   44.8930 C   0  0  0  0  0  0  0  0  0  0  0  0
   55.4454   23.1353   45.6304 H   0  0  0  0  0  0  0  0  0  0  0  0
   54.2813   23.1443   44.2624 H   0  0  0  0  0  0  0  0  0  0  0  0
   55.6759   24.2764   44.2624 H   0  0  0  0  0  0  0  0  0  0  0  0
  1  2  1  0
  2  3  2  0
  3  4  1  0
  4  5  1  0
  5  6  2  0
  5  7  1  0
  7  8  1  0
  8  9  1  0
  8 10  1  0
  8 11  1  0
 11 12  1  0
 11 13  1  0
 11 14  1  0
  4 15  2  0
 15 16  1  0
 15 17  1  0
 17 18  1  0
 18 19  1  0
 19 20  2  0
 20 21  1  0
 20 22  1  0
 22 23  1  0
 22 24  2  0
 24 25  1  0
 24 26  1  0
 26 27  1  0
 26 28  2  0
 28 29  1  0
 17 30  2  0
 30 31  1  0
 31 32  2  0
 32 33  1  0
 33 34  1  0
 33 35  2  0
 35 36  1  0
 36 37  1  0
 37 38  1  0
 37 39  1  0
 37 40  1  0
 40 41  1  0
 40 42  1  0
 40 43  1  0
 43 44  1  0
 43 45  1  0
 43 46  1  0
 46 47  1  0
 47 48  1  0
 47 49  1  0
 47 50  1  0
 50 51  1  0
 50 52  1  0
 50 53  1  0
 32  3  1  0
 28 19  1  0
 36 31  1  0
M  CHG  1  15   1
M  END
>  <UniqueID>  (35) 
34

>  <SMILES>  (35) 
[H]/N=c1/c(C(=O)OCC)[nH+]c(Oc2ccccc2)nc2c1cnn2CCCOCC

>  <Energy>  (35) 
113.86933351191395

>  <Genealogy>  (35) 
CCOCCCn1ncc2c(=N)c(C(=O)OCC)[nH+]c(Oc3ccccc3)nc21 (protonated)
[H]/N=c1/c(C(=O)OCC)[nH+]c(Oc2ccccc2)nc2c1cnn2CCCOCC (cis-trans isomerization)
[H]/N=c1/c(C(=O)OCC)[nH+]c(Oc2ccccc2)nc2c1cnn2CCCOCC (3D coordinates assigned)
[H]/N=c1/c(C(=O)OCC)[nH+]c(Oc2ccccc2)nc2c1cnn2CCCOCC (optimized conformer: 113.86933351191395 kcal/mol)

>  <smiles>  (35) 
CCOCCCn1ncc2c(=N)c(C(=O)OCC)nc(Oc3ccccc3)nc21

>  <score_type>  (35) 
oracle

>  <origin>  (35) 
adg

>  <m_score__min__energy>  (35) 
-5.5700000000000003

>  <m_primary>  (35) 
energy

$$$$
35:0
     RDKit          3D

 44 45  0  0  0  0  0  0  0  0999 V2000
   50.4650   24.6370   43.7190 C   0  0  0  0  0  0  0  0  0  0  0  0
   50.6220   23.3600   44.5470 C   0  0  0  0  0  0  0  0  0  0  0  0
   52.0260   23.0130   44.8610 N   0  0  0  0  0  0  0  0  0  0  0  0
   52.2070   22.3620   46.1690 C   0  0  0  0  0  0  0  0  0  0  0  0
   53.0310   24.0430   44.5100 C   0  0  0  0  0  0  0  0  0  0  0  0
   54.0260   24.3810   45.6340 C   0  0  0  0  0  0  0  0  0  0  0  0
   54.2800   25.8150   45.6410 N   0  0  0  0  0  0  0  0  0  0  0  0
   55.5430   26.3800   46.0070 C   0  0  0  0  0  0  0  0  0  0  0  0
   56.3340   25.7350   46.7430 O   0  0  0  0  0  0  0  0  0  0  0  0
   55.9470   27.6560   45.4970 N   0  0  0  0  0  0  0  0  0  0  0  0
   57.1530   28.3570   45.8320 C   0  0  0  0  0  0  0  0  0  0  0  0
   57.8140   28.1560   47.0580 C   0  0  0  0  0  0  0  0  0  0  0  0
   59.0010   28.8420   47.3370 C   0  0  0  0  0  0  0  0  0  0  0  0
   59.5490   29.7150   46.3910 C   0  0  0  0  0  0  0  0  0  0  0  0
   61.0730   30.5920   46.7460 S   0  0  0  0  0  0  0  0  0  0  0  0
   60.2490   32.1820   46.9040 C   0  0  0  0  0  0  0  0  0  0  0  0
   58.8520   32.2120   47.0170 C   0  0  0  0  0  0  0  0  0  0  0  0
   58.1800   33.4320   47.1330 C   0  0  0  0  0  0  0  0  0  0  0  0
   58.9010   34.6290   47.1450 C   0  0  0  0  0  0  0  0  0  0  0  0
   60.2950   34.6070   47.0470 C   0  0  0  0  0  0  0  0  0  0  0  0
   60.9770   33.3890   46.9300 C   0  0  0  0  0  0  0  0  0  0  0  0
   62.8910   33.4230   46.8400 Br  0  0  0  0  0  0  0  0  0  0  0  0
   58.9020   29.9050   45.1650 C   0  0  0  0  0  0  0  0  0  0  0  0
   57.7160   29.2190   44.8830 C   0  0  0  0  0  0  0  0  0  0  0  0
   50.3589   25.5001   44.3927 H   0  0  0  0  0  0  0  0  0  0  0  0
   51.3531   24.7741   43.0845 H   0  0  0  0  0  0  0  0  0  0  0  0
   49.5702   24.5549   43.0845 H   0  0  0  0  0  0  0  0  0  0  0  0
   50.0789   23.4934   45.4942 H   0  0  0  0  0  0  0  0  0  0  0  0
   50.2196   22.5361   43.9393 H   0  0  0  0  0  0  0  0  0  0  0  0
   52.0053   23.0876   46.9707 H   0  0  0  0  0  0  0  0  0  0  0  0
   51.5102   21.5154   46.2568 H   0  0  0  0  0  0  0  0  0  0  0  0
   53.2408   21.9966   46.2568 H   0  0  0  0  0  0  0  0  0  0  0  0
   53.6035   23.6815   43.6431 H   0  0  0  0  0  0  0  0  0  0  0  0
   52.4700   24.9665   44.3041 H   0  0  0  0  0  0  0  0  0  0  0  0
   53.6016   24.0789   46.6028 H   0  0  0  0  0  0  0  0  0  0  0  0
   54.9695   23.8418   45.4635 H   0  0  0  0  0  0  0  0  0  0  0  0
   57.3965   27.4580   47.7986 H   0  0  0  0  0  0  0  0  0  0  0  0
   59.5051   28.6945   48.3035 H   0  0  0  0  0  0  0  0  0  0  0  0
   58.2821   31.2711   47.0144 H   0  0  0  0  0  0  0  0  0  0  0  0
   57.0832   33.4500   47.2149 H   0  0  0  0  0  0  0  0  0  0  0  0
   58.3711   35.5891   47.2316 H   0  0  0  0  0  0  0  0  0  0  0  0
   60.8595   35.5510   47.0618 H   0  0  0  0  0  0  0  0  0  0  0  0
   59.3269   30.5953   44.4214 H   0  0  0  0  0  0  0  0  0  0  0  0
   57.2226   29.3576   43.9097 H   0  0  0  0  0  0  0  0  0  0  0  0
  1  2  1  0
  2  3  1  0
  3  4  1  0
  3  5  1  0
  5  6  1  0
  6  7  1  0
  7  8  1  0
  8  9  2  0
  8 10  1  0
 10 11  1  0
 11 12  2  0
 12 13  1  0
 13 14  2  0
 14 15  1  0
 15 16  1  0
 16 17  2  0
 17 18  1  0
 18 19  2  0
 19 20  1  0
 20 21  2  0
 21 22  1  0
 14 23  1  0
 23 24  2  0
 24 11  1  0
 21 16  1  0
  1 25  1  0
  1 26  1  0
  1 27  1  0
  2 28  1  0
  2 29  1  0
  4 30  1  0
  4 31  1  0
  4 32  1  0
  5 33  1  0
  5 34  1  0
  6 35  1  0
  6 36  1  0
 12 37  1  0
 13 38  1  0
 17 39  1  0
 18 40  1  0
 19 41  1  0
 20 42  1  0
 23 43  1  0
 24 44  1  0
M  CHG  2   7  -1  10  -1
M  END
>  <UniqueID>  (36) 
35

>  <SMILES>  (36) 
CCN(C)CC[N-]C(=O)[N-]c1ccc(Sc2ccccc2Br)cc1

>  <Energy>  (36) 
46.36415982070894

>  <Genealogy>  (36) 
CCN(C)CC[N-]C(=O)[N-]c1ccc(Sc2ccccc2Br)cc1 (protonated)
CCN(C)CC[N-]C(=O)[N-]c1ccc(Sc2ccccc2Br)cc1 (3D coordinates assigned)
CCN(C)CC[N-]C(=O)[N-]c1ccc(Sc2ccccc2Br)cc1 (optimized conformer: 46.36415982070894 kcal/mol)

>  <smiles>  (36) 
CCN(C)CCNC(=O)Nc1ccc(Sc2ccccc2Br)cc1

>  <score_type>  (36) 
oracle

>  <origin>  (36) 
adg

>  <m_score__min__energy>  (36) 
-11.82

>  <m_primary>  (36) 
energy

$$$$
36:0
     RDKit          3D

 50 52  0  0  0  0  0  0  0  0999 V2000
   58.7870   32.3680   50.4630 C   0  0  0  0  0  0  0  0  0  0  0  0
   59.7080   33.5820   50.4050 C   0  0  0  0  0  0  0  0  0  0  0  0
   60.0760   33.8810   49.0140 N   0  0  0  0  0  0  0  0  0  0  0  0
   59.2760   34.8230   48.2180 C   0  0  0  0  0  0  0  0  0  0  0  0
   58.8950   34.1910   46.9070 C   0  0  0  0  0  0  0  0  0  0  0  0
   57.7350   33.4090   46.8080 C   0  0  0  0  0  0  0  0  0  0  0  0
   57.3540   32.8650   45.5780 C   0  0  0  0  0  0  0  0  0  0  0  0
   58.1320   33.0890   44.4300 C   0  0  0  0  0  0  0  0  0  0  0  0
   57.7190   32.4930   43.1040 C   0  0  0  0  0  0  0  0  0  0  0  0
   57.7790   31.0150   43.0710 N   0  0  0  0  0  0  0  0  0  0  0  0
   56.5070   30.3220   42.7880 C   0  0  0  0  0  0  0  0  0  0  0  0
   55.7330   29.9110   44.0640 C   0  0  0  0  0  0  0  0  0  0  0  0
   56.5840   29.7080   45.2470 N   0  0  0  0  0  0  0  0  0  0  0  0
   57.9360   29.2810   44.8810 C   0  0  0  0  0  0  0  0  0  0  0  0
   58.6510   30.3850   44.0880 C   0  0  0  0  0  0  0  0  0  0  0  0
   59.2710   33.9060   44.5250 C   0  0  0  0  0  0  0  0  0  0  0  0
   59.6500   34.4510   45.7560 C   0  0  0  0  0  0  0  0  0  0  0  0
   61.1950   33.2090   48.4040 C   0  0  0  0  0  0  0  0  0  0  0  0
   62.4250   33.8720   48.2570 C   0  0  0  0  0  0  0  0  0  0  0  0
   63.5060   33.2260   47.6490 C   0  0  0  0  0  0  0  0  0  0  0  0
   63.3660   31.9160   47.1840 C   0  0  0  0  0  0  0  0  0  0  0  0
   62.1480   31.2490   47.3260 C   0  0  0  0  0  0  0  0  0  0  0  0
   61.0640   31.8920   47.9320 C   0  0  0  0  0  0  0  0  0  0  0  0
   58.5894   32.1075   51.5133 H   0  0  0  0  0  0  0  0  0  0  0  0
   57.8381   32.6032   49.9588 H   0  0  0  0  0  0  0  0  0  0  0  0
   59.2692   31.5175   49.9588 H   0  0  0  0  0  0  0  0  0  0  0  0
   59.1900   34.4507   50.8374 H   0  0  0  0  0  0  0  0  0  0  0  0
   60.6222   33.3635   50.9764 H   0  0  0  0  0  0  0  0  0  0  0  0
   58.3644   35.0876   48.7738 H   0  0  0  0  0  0  0  0  0  0  0  0
   59.8697   35.7286   48.0244 H   0  0  0  0  0  0  0  0  0  0  0  0
   57.1222   33.2229   47.7023 H   0  0  0  0  0  0  0  0  0  0  0  0
   56.4394   32.2578   45.5086 H   0  0  0  0  0  0  0  0  0  0  0  0
   56.6854   32.8033   42.8908 H   0  0  0  0  0  0  0  0  0  0  0  0
   58.4317   32.8603   42.3509 H   0  0  0  0  0  0  0  0  0  0  0  0
   55.8690   30.9932   42.1943 H   0  0  0  0  0  0  0  0  0  0  0  0
   56.7549   29.3970   42.2468 H   0  0  0  0  0  0  0  0  0  0  0  0
   55.0042   30.7019   44.2950 H   0  0  0  0  0  0  0  0  0  0  0  0
   55.2575   28.9431   43.8470 H   0  0  0  0  0  0  0  0  0  0  0  0
   56.6470   30.6020   45.7860 H   0  0  0  0  0  0  0  0  0  0  0  0
   58.5074   29.0639   45.7956 H   0  0  0  0  0  0  0  0  0  0  0  0
   57.8676   28.3795   44.2545 H   0  0  0  0  0  0  0  0  0  0  0  0
   58.9887   31.1607   44.7911 H   0  0  0  0  0  0  0  0  0  0  0  0
   59.4956   29.9196   43.5587 H   0  0  0  0  0  0  0  0  0  0  0  0
   59.8682   34.1183   43.6259 H   0  0  0  0  0  0  0  0  0  0  0  0
   60.5453   35.0869   45.8207 H   0  0  0  0  0  0  0  0  0  0  0  0
   62.5381   34.9036   48.6217 H   0  0  0  0  0  0  0  0  0  0  0  0
   64.4669   33.7495   47.5368 H   0  0  0  0  0  0  0  0  0  0  0  0
   64.2169   31.4094   46.7052 H   0  0  0  0  0  0  0  0  0  0  0  0
   62.0408   30.2169   46.9610 H   0  0  0  0  0  0  0  0  0  0  0  0
   60.1047   31.3645   48.0396 H   0  0  0  0  0  0  0  0  0  0  0  0
  1  2  1  0
  2  3  1  0
  3  4  1  0
  4  5  1  0
  5  6  2  0
  6  7  1  0
  7  8  2  0
  8  9  1  0
  9 10  1  0
 10 11  1  0
 11 12  1  0
 12 13  1  0
 13 14  1  0
 14 15  1  0
  8 16  1  0
 16 17  2  0
  3 18  1  0
 18 19  2  0
 19 20  1  0
 20 21  2  0
 21 22  1  0
 22 23  2  0
 17  5  1  0
 23 18  1  0
 15 10  1  0
  1 24  1  0
  1 25  1  0
  1 26  1  0
  2 27  1  0
  2 28  1  0
  4 29  1  0
  4 30  1  0
  6 31  1  0
  7 32  1  0
  9 33  1  0
  9 34  1  0
 11 35  1  0
 11 36  1  0
 12 37  1  0
 12 38  1  0
 13 39  1  0
 14 40  1  0
 14 41  1  0
 15 42  1  0
 15 43  1  0
 16 44  1  0
 17 45  1  0
 19 46  1  0
 20 47  1  0
 21 48  1  0
 22 49  1  0
 23 50  1  0
M  END
>  <UniqueID>  (37) 
36

>  <SMILES>  (37) 
CCN(Cc1ccc(CN2CCNCC2)cc1)c1ccccc1

>  <Energy>  (37) 
63.697896003674785

>  <Genealogy>  (37) 
CCN(Cc1ccc(CN2CCNCC2)cc1)c1ccccc1 (3D coordinates assigned)
CCN(Cc1ccc(CN2CCNCC2)cc1)c1ccccc1 (nonaromatic ring conformer: 63.697896003674785 kcal/mol)

>  <smiles>  (37) 
CCN(Cc1ccc(CN2CCNCC2)cc1)c1ccccc1

>  <score_type>  (37) 
oracle

>  <origin>  (37) 
adg

>  <m_score__min__energy>  (37) 
-8.0600000000000005

>  <m_primary>  (37) 
energy

$$$$
37:0
     RDKit          3D

 69 73  0  0  0  0  0  0  0  0999 V2000
   56.6360   29.9090   43.7010 C   0  0  0  0  0  0  0  0  0  0  0  0
   56.8530   31.2820   43.3850 O   0  0  0  0  0  0  0  0  0  0  0  0
   57.4800   32.2020   44.2410 C   0  0  0  0  0  0  0  0  0  0  0  0
   58.4580   33.0480   43.7050 C   0  0  0  0  0  0  0  0  0  0  0  0
   59.1000   33.9930   44.5120 C   0  0  0  0  0  0  0  0  0  0  0  0
   58.7830   34.0930   45.8770 C   0  0  0  0  0  0  0  0  0  0  0  0
   59.4670   35.1200   46.7420 C   0  0  0  0  0  0  0  0  0  0  0  0
   60.5770   34.5400   47.6540 C   0  0  0  0  0  0  0  0  0  0  0  0
   60.4060   33.1310   48.1040 N   0  0  0  0  0  0  0  0  0  0  0  0
   61.6230   32.3030   47.9690 C   0  0  0  0  0  0  0  0  0  0  0  0
   61.3040   30.8090   48.2020 C   0  0  0  0  0  0  0  0  0  0  0  0
   60.0120   30.6310   48.8980 N   0  0  0  0  0  0  0  0  0  0  0  0
   59.8270   29.2310   49.3360 C   0  0  0  0  0  0  0  0  0  0  0  0
   60.7700   28.2960   48.5720 C   0  0  0  0  0  0  0  0  0  0  0  0
   59.9880   27.4660   47.6300 N   0  0  0  0  0  0  0  0  0  0  0  0
   60.7400   26.8930   46.4930 C   0  0  2  0  0  0  0  0  0  0  0  0
   60.8790   27.8790   45.2930 C   0  0  0  0  0  0  0  0  0  0  0  0
   60.3320   29.2800   45.5910 C   0  0  0  0  0  0  0  0  0  0  0  0
   58.9200   29.2320   46.2000 C   0  0  0  0  0  0  0  0  0  0  0  0
   58.7090   28.0480   47.1840 C   0  0  1  0  0  0  0  0  0  0  0  0
   57.8800   26.9550   46.5310 C   0  0  0  0  0  0  0  0  0  0  0  0
   56.4840   27.0880   46.4480 C   0  0  0  0  0  0  0  0  0  0  0  0
   55.7180   26.1100   45.8050 C   0  0  0  0  0  0  0  0  0  0  0  0
   54.3370   26.2480   45.7280 O   0  0  0  0  0  0  0  0  0  0  0  0
   56.3400   24.9950   45.2390 C   0  0  0  0  0  0  0  0  0  0  0  0
   57.7290   24.8520   45.3090 C   0  0  0  0  0  0  0  0  0  0  0  0
   58.5120   25.8290   45.9410 C   0  0  0  0  0  0  0  0  0  0  0  0
   60.0060   25.6080   46.0700 C   0  0  0  0  0  0  0  0  0  0  0  0
   59.8910   31.5850   50.0150 C   0  0  0  0  0  0  0  0  0  0  0  0
   59.8250   33.0260   49.4670 C   0  0  0  0  0  0  0  0  0  0  0  0
   57.8020   33.2450   46.4180 C   0  0  0  0  0  0  0  0  0  0  0  0
   57.1550   32.3070   45.6080 C   0  0  0  0  0  0  0  0  0  0  0  0
   56.6161   29.7829   44.7936 H   0  0  0  0  0  0  0  0  0  0  0  0
   55.6751   29.5825   43.2766 H   0  0  0  0  0  0  0  0  0  0  0  0
   57.4494   29.3021   43.2766 H   0  0  0  0  0  0  0  0  0  0  0  0
   58.7238   32.9690   42.6405 H   0  0  0  0  0  0  0  0  0  0  0  0
   59.8570   34.6613   44.0757 H   0  0  0  0  0  0  0  0  0  0  0  0
   59.9198   35.8780   46.0859 H   0  0  0  0  0  0  0  0  0  0  0  0
   58.6970   35.5389   47.4065 H   0  0  0  0  0  0  0  0  0  0  0  0
   61.5268   34.6005   47.1024 H   0  0  0  0  0  0  0  0  0  0  0  0
   60.5395   35.1430   48.5732 H   0  0  0  0  0  0  0  0  0  0  0  0
   59.6930   32.7250   47.4490 H   0  0  0  0  0  0  0  0  0  0  0  0
   62.0339   32.4296   46.9565 H   0  0  0  0  0  0  0  0  0  0  0  0
   62.3537   32.6276   48.7244 H   0  0  0  0  0  0  0  0  0  0  0  0
   61.2589   30.2976   47.2292 H   0  0  0  0  0  0  0  0  0  0  0  0
   62.0970   30.3821   48.8336 H   0  0  0  0  0  0  0  0  0  0  0  0
   60.0403   29.1582   50.4127 H   0  0  0  0  0  0  0  0  0  0  0  0
   58.7887   28.9306   49.1317 H   0  0  0  0  0  0  0  0  0  0  0  0
   61.5037   28.8938   48.0114 H   0  0  0  0  0  0  0  0  0  0  0  0
   61.2953   27.6437   49.2851 H   0  0  0  0  0  0  0  0  0  0  0  0
   61.7716   26.6802   46.8101 H   0  0  0  0  0  0  0  0  0  0  0  0
   61.9449   27.9680   45.0362 H   0  0  0  0  0  0  0  0  0  0  0  0
   60.2850   27.4676   44.4636 H   0  0  0  0  0  0  0  0  0  0  0  0
   61.0073   29.7811   46.3001 H   0  0  0  0  0  0  0  0  0  0  0  0
   60.2725   29.8299   44.6402 H   0  0  0  0  0  0  0  0  0  0  0  0
   58.7431   30.1720   46.7433 H   0  0  0  0  0  0  0  0  0  0  0  0
   58.2137   29.0913   45.3685 H   0  0  0  0  0  0  0  0  0  0  0  0
   58.1818   28.4537   48.0600 H   0  0  0  0  0  0  0  0  0  0  0  0
   55.9907   27.9658   46.8909 H   0  0  0  0  0  0  0  0  0  0  0  0
   55.7347   24.2263   44.7362 H   0  0  0  0  0  0  0  0  0  0  0  0
   58.2106   23.9679   44.8657 H   0  0  0  0  0  0  0  0  0  0  0  0
   60.1867   24.8296   46.8259 H   0  0  0  0  0  0  0  0  0  0  0  0
   60.3923   25.3018   45.0866 H   0  0  0  0  0  0  0  0  0  0  0  0
   58.9743   31.3680   50.5829 H   0  0  0  0  0  0  0  0  0  0  0  0
   60.7669   31.4865   50.6732 H   0  0  0  0  0  0  0  0  0  0  0  0
   58.7726   33.3437   49.4297 H   0  0  0  0  0  0  0  0  0  0  0  0
   60.4124   33.6711   50.1369 H   0  0  0  0  0  0  0  0  0  0  0  0
   57.5417   33.3195   47.4842 H   0  0  0  0  0  0  0  0  0  0  0  0
   56.3881   31.6474   46.0402 H   0  0  0  0  0  0  0  0  0  0  0  0
  1  2  1  0
  2  3  1  0
  3  4  2  0
  4  5  1  0
  5  6  2  0
  6  7  1  0
  7  8  1  0
  8  9  1  0
  9 10  1  0
 10 11  1  0
 11 12  1  0
 12 13  1  0
 13 14  1  0
 14 15  1  0
 15 16  1  0
 16 17  1  0
 17 18  1  0
 18 19  1  0
 19 20  1  0
 20 21  1  0
 21 22  2  0
 22 23  1  0
 23 24  1  0
 23 25  2  0
 25 26  1  0
 26 27  2  0
 27 28  1  0
 12 29  1  0
 29 30  1  0
  6 31  1  0
 31 32  2  0
 32  3  1  0
 30  9  1  0
 20 15  1  0
 27 21  1  0
 28 16  1  0
  1 33  1  0
  1 34  1  0
  1 35  1  0
  4 36  1  0
  5 37  1  0
  7 38  1  0
  7 39  1  0
  8 40  1  0
  8 41  1  0
  9 42  1  0
 10 43  1  0
 10 44  1  0
 11 45  1  0
 11 46  1  0
 13 47  1  0
 13 48  1  0
 14 49  1  0
 14 50  1  0
 16 51  1  1
 17 52  1  0
 17 53  1  0
 18 54  1  0
 18 55  1  0
 19 56  1  0
 19 57  1  0
 20 58  1  1
 22 59  1  0
 25 60  1  0
 26 61  1  0
 28 62  1  0
 28 63  1  0
 29 64  1  0
 29 65  1  0
 30 66  1  0
 30 67  1  0
 31 68  1  0
 32 69  1  0
M  CHG  2   9   1  24  -1
M  END
>  <UniqueID>  (38) 
37

>  <SMILES>  (38) 
COc1ccc(CC[NH+]2CCN(CCN3[C@@H]4CCC[C@H]3c3cc([O-])ccc3C4)CC2)cc1

>  <Energy>  (38) 
99.56410796768886

>  <Genealogy>  (38) 
COc1ccc(CC[NH+]2CCN(CCN3C4CCCC3c3cc([O-])ccc3C4)CC2)cc1 (protonated)
COc1ccc(CC[NH+]2CCN(CCN3[C@@H]4CCC[C@H]3c3cc([O-])ccc3C4)CC2)cc1 (chirality)
COc1ccc(CC[NH+]2CCN(CCN3[C@@H]4CCC[C@H]3c3cc([O-])ccc3C4)CC2)cc1 (3D coordinates assigned)
COc1ccc(CC[NH+]2CCN(CCN3[C@@H]4CCC[C@H]3c3cc([O-])ccc3C4)CC2)cc1 (nonaromatic ring conformer: 99.56410796768886 kcal/mol)

>  <smiles>  (38) 
COc1ccc(CCN2CCN(CCN3C4CCCC3c3cc(O)ccc3C4)CC2)cc1

>  <score_type>  (38) 
oracle

>  <origin>  (38) 
adg

>  <m_score__min__energy>  (38) 
-10.859999999999999

>  <m_primary>  (38) 
energy

$$$$
38:0
     RDKit          3D

 38 39  0  0  0  0  0  0  0  0999 V2000
   59.2380   33.4660   51.4140 C   0  0  0  0  0  0  0  0  0  0  0  0
   59.7250   33.8610   50.0210 C   0  0  0  0  0  0  0  0  0  0  0  0
   59.7270   32.7000   49.1160 N   0  0  0  0  0  0  0  0  0  0  0  0
   60.0710   31.3790   49.6500 C   0  0  0  0  0  0  0  0  0  0  0  0
   59.2790   32.8190   47.7470 C   0  0  0  0  0  0  0  0  0  0  0  0
   59.5050   33.9970   47.0200 C   0  0  0  0  0  0  0  0  0  0  0  0
   59.0390   34.0800   45.7070 C   0  0  0  0  0  0  0  0  0  0  0  0
   59.2650   35.3180   44.8980 C   0  0  0  0  0  0  0  0  0  0  0  0
   58.4000   33.0190   45.1540 N   0  0  0  0  0  0  0  0  0  0  0  0
   58.1970   31.8700   45.8520 C   0  0  0  0  0  0  0  0  0  0  0  0
   57.5010   30.7730   45.2310 N   0  0  0  0  0  0  0  0  0  0  0  0
   57.9380   29.3870   45.4520 C   0  0  0  0  0  0  0  0  0  0  0  0
   56.7520   28.3980   45.3510 C   0  0  0  0  0  0  0  0  0  0  0  0
   55.5550   28.9850   44.8660 O   0  0  0  0  0  0  0  0  0  0  0  0
   55.8250   29.7760   43.7290 C   0  0  0  0  0  0  0  0  0  0  0  0
   56.5360   31.0580   44.1620 C   0  0  0  0  0  0  0  0  0  0  0  0
   58.6240   31.7820   47.1450 N   0  0  0  0  0  0  0  0  0  0  0  0
   59.8556   33.9669   52.1741 H   0  0  0  0  0  0  0  0  0  0  0  0
   58.1881   33.7709   51.5355 H   0  0  0  0  0  0  0  0  0  0  0  0
   59.3196   32.3758   51.5355 H   0  0  0  0  0  0  0  0  0  0  0  0
   59.0584   34.6348   49.6125 H   0  0  0  0  0  0  0  0  0  0  0  0
   60.7530   34.2437   50.1037 H   0  0  0  0  0  0  0  0  0  0  0  0
   60.0618   31.4142   50.7494 H   0  0  0  0  0  0  0  0  0  0  0  0
   59.3355   30.6394   49.3007 H   0  0  0  0  0  0  0  0  0  0  0  0
   61.0738   31.0921   49.3007 H   0  0  0  0  0  0  0  0  0  0  0  0
   60.0409   34.8418   47.4773 H   0  0  0  0  0  0  0  0  0  0  0  0
   59.4211   36.1731   45.5721 H   0  0  0  0  0  0  0  0  0  0  0  0
   60.1536   35.1843   44.2635 H   0  0  0  0  0  0  0  0  0  0  0  0
   58.3865   35.5069   44.2635 H   0  0  0  0  0  0  0  0  0  0  0  0
   58.6894   29.1234   44.6932 H   0  0  0  0  0  0  0  0  0  0  0  0
   58.3633   29.3153   46.4639 H   0  0  0  0  0  0  0  0  0  0  0  0
   57.0381   27.5821   44.6710 H   0  0  0  0  0  0  0  0  0  0  0  0
   56.5437   28.0433   46.3712 H   0  0  0  0  0  0  0  0  0  0  0  0
   56.4690   29.2150   43.0357 H   0  0  0  0  0  0  0  0  0  0  0  0
   54.8810   30.0307   43.2250 H   0  0  0  0  0  0  0  0  0  0  0  0
   57.0671   31.4868   43.2994 H   0  0  0  0  0  0  0  0  0  0  0  0
   55.7876   31.7710   44.5382 H   0  0  0  0  0  0  0  0  0  0  0  0
   58.4020   30.9290   47.7020 H   0  0  0  0  0  0  0  0  0  0  0  0
  1  2  1  0
  2  3  1  0
  3  4  1  0
  3  5  1  0
  5  6  2  0
  6  7  1  0
  7  8  1  0
  7  9  2  0
  9 10  1  0
 10 11  1  0
 11 12  1  0
 12 13  1  0
 13 14  1  0
 14 15  1  0
 15 16  1  0
 10 17  2  0
 17  5  1  0
 16 11  1  0
  1 18  1  0
  1 19  1  0
  1 20  1  0
  2 21  1  0
  2 22  1  0
  4 23  1  0
  4 24  1  0
  4 25  1  0
  6 26  1  0
  8 27  1  0
  8 28  1  0
  8 29  1  0
 12 30  1  0
 12 31  1  0
 13 32  1  0
 13 33  1  0
 15 34  1  0
 15 35  1  0
 16 36  1  0
 16 37  1  0
 17 38  1  0
M  CHG  1  17   1
M  END
>  <UniqueID>  (39) 
38

>  <SMILES>  (39) 
CCN(C)c1cc(C)nc(N2CCOCC2)[nH+]1

>  <Energy>  (39) 
44.20384464380585

>  <Genealogy>  (39) 
CCN(C)c1cc(C)nc(N2CCOCC2)[nH+]1 (protonated)
CCN(C)c1cc(C)nc(N2CCOCC2)[nH+]1 (3D coordinates assigned)
CCN(C)c1cc(C)nc(N2CCOCC2)[nH+]1 (nonaromatic ring conformer: 44.20384464380585 kcal/mol)

>  <smiles>  (39) 
CCN(C)c1cc(C)nc(N2CCOCC2)n1

>  <score_type>  (39) 
oracle

>  <origin>  (39) 
adg

>  <m_score__min__energy>  (39) 
-4.4400000000000004

>  <m_primary>  (39) 
energy

$$$$
39:0
     RDKit          3D

 46 48  0  0  0  0  0  0  0  0999 V2000
   50.5420   32.0070   52.8190 C   0  0  0  0  0  0  0  0  0  0  0  0
   51.4160   32.5680   51.7030 C   0  0  0  0  0  0  0  0  0  0  0  0
   51.5090   31.6100   50.5990 N   0  0  0  0  0  0  0  0  0  0  0  0
   51.9820   30.3470   50.6120 C   0  0  0  0  0  0  0  0  0  0  0  0
   52.6400   29.7030   51.7610 C   0  0  0  0  0  0  0  0  0  0  0  0
   51.9970   28.6160   52.3730 C   0  0  0  0  0  0  0  0  0  0  0  0
   52.5700   27.9860   53.4780 C   0  0  0  0  0  0  0  0  0  0  0  0
   53.7960   28.4280   53.9760 C   0  0  0  0  0  0  0  0  0  0  0  0
   54.4540   29.4990   53.3690 C   0  0  0  0  0  0  0  0  0  0  0  0
   53.8960   30.1490   52.2510 C   0  0  0  0  0  0  0  0  0  0  0  0
   54.6330   31.2160   51.6070 N   0  0  0  0  0  0  0  0  0  0  0  0
   55.8100   31.6250   52.3900 C   0  0  0  0  0  0  0  0  0  0  0  0
   57.1040   31.3100   51.6720 C   0  0  0  0  0  0  0  0  0  0  0  0
   57.2250   30.1760   51.1330 O   0  0  0  0  0  0  0  0  0  0  0  0
   58.1470   32.2940   51.5000 N   0  0  0  0  0  0  0  0  0  0  0  0
   58.3230   33.4000   52.4550 C   0  0  0  0  0  0  0  0  0  0  0  0
   59.7990   33.8440   52.5830 C   0  0  0  0  0  0  0  0  0  0  0  0
   60.6430   33.5510   51.4090 N   0  0  0  0  0  0  0  0  0  0  0  0
   59.8700   33.4630   50.1680 C   0  0  0  0  0  0  0  0  0  0  0  0
   58.9040   32.2820   50.2410 C   0  0  0  0  0  0  0  0  0  0  0  0
   51.7150   29.7050   49.4550 N   0  0  0  0  0  0  0  0  0  0  0  0
   51.0680   30.5600   48.6760 N   0  0  0  0  0  0  0  0  0  0  0  0
   50.9430   31.6980   49.3820 C   0  0  0  0  0  0  0  0  0  0  0  0
   50.3420   32.7190   48.9540 O   0  0  0  0  0  0  0  0  0  0  0  0
   50.9707   32.2822   53.7939 H   0  0  0  0  0  0  0  0  0  0  0  0
   49.5272   32.4229   52.7342 H   0  0  0  0  0  0  0  0  0  0  0  0
   50.4975   30.9112   52.7342 H   0  0  0  0  0  0  0  0  0  0  0  0
   50.9751   33.5056   51.3335 H   0  0  0  0  0  0  0  0  0  0  0  0
   52.4248   32.7560   52.0992 H   0  0  0  0  0  0  0  0  0  0  0  0
   51.0345   28.2582   51.9786 H   0  0  0  0  0  0  0  0  0  0  0  0
   52.0549   27.1403   53.9569 H   0  0  0  0  0  0  0  0  0  0  0  0
   54.2450   27.9315   54.8488 H   0  0  0  0  0  0  0  0  0  0  0  0
   55.4205   29.8396   53.7688 H   0  0  0  0  0  0  0  0  0  0  0  0
   54.0160   32.0490   51.4550 H   0  0  0  0  0  0  0  0  0  0  0  0
   54.9490   30.9070   50.6610 H   0  0  0  0  0  0  0  0  0  0  0  0
   55.7581   32.7090   52.5698 H   0  0  0  0  0  0  0  0  0  0  0  0
   55.8007   31.0645   53.3365 H   0  0  0  0  0  0  0  0  0  0  0  0
   57.7249   34.2582   52.1147 H   0  0  0  0  0  0  0  0  0  0  0  0
   57.9947   33.0437   53.4426 H   0  0  0  0  0  0  0  0  0  0  0  0
   59.8148   34.9309   52.7518 H   0  0  0  0  0  0  0  0  0  0  0  0
   60.2223   33.2658   53.4176 H   0  0  0  0  0  0  0  0  0  0  0  0
   61.1350   32.6370   51.5650 H   0  0  0  0  0  0  0  0  0  0  0  0
   59.2995   34.3928   50.0267 H   0  0  0  0  0  0  0  0  0  0  0  0
   60.5578   33.3171   49.3220 H   0  0  0  0  0  0  0  0  0  0  0  0
   58.1998   32.3414   49.3980 H   0  0  0  0  0  0  0  0  0  0  0  0
   59.4872   31.3506   50.1932 H   0  0  0  0  0  0  0  0  0  0  0  0
  1  2  1  0
  2  3  1  0
  3  4  1  0
  4  5  1  0
  5  6  2  0
  6  7  1  0
  7  8  2  0
  8  9  1  0
  9 10  2  0
 10 11  1  0
 11 12  1  0
 12 13  1  0
 13 14  2  0
 13 15  1  0
 15 16  1  0
 16 17  1  0
 17 18  1  0
 18 19  1  0
 19 20  1  0
  4 21  2  0
 21 22  1  0
 22 23  1  0
 23 24  2  0
 23  3  1  0
 10  5  1  0
 20 15  1  0
  1 25  1  0
  1 26  1  0
  1 27  1  0
  2 28  1  0
  2 29  1  0
  6 30  1  0
  7 31  1  0
  8 32  1  0
  9 33  1  0
 11 34  1  0
 11 35  1  0
 12 36  1  0
 12 37  1  0
 16 38  1  0
 16 39  1  0
 17 40  1  0
 17 41  1  0
 18 42  1  0
 19 43  1  0
 19 44  1  0
 20 45  1  0
 20 46  1  0
M  CHG  2  11   1  22  -1
M  END
>  <UniqueID>  (40) 
39

>  <SMILES>  (40) 
CCn1c(-c2ccccc2[NH2+]CC(=O)N2CCNCC2)n[n-]c1=O

>  <Energy>  (40) 
91.96422567868646

>  <Genealogy>  (40) 
CCn1c(-c2ccccc2[NH2+]CC(=O)N2CCNCC2)n[n-]c1=O (protonated)
CCn1c(-c2ccccc2[NH2+]CC(=O)N2CCNCC2)n[n-]c1=O (3D coordinates assigned)
CCn1c(-c2ccccc2[NH2+]CC(=O)N2CCNCC2)n[n-]c1=O (nonaromatic ring conformer: 91.96422567868646 kcal/mol)

>  <smiles>  (40) 
CCn1c(-c2ccccc2NCC(=O)N2CCNCC2)n[nH]c1=O

>  <score_type>  (40) 
oracle

>  <origin>  (40) 
adg

>  <m_score__min__energy>  (40) 
-9.0099999999999998

>  <m_primary>  (40) 
energy

$$$$
