0:0
     RDKit          3D

 41 43  0  0  0  0  0  0  0  0999 V2000
   55.5230   29.7360   44.4130 C   0  0  0  0  0  0  0  0  0  0  0  0
   56.2510   29.9640   43.0930 C   0  0  0  0  0  0  0  0  0  0  0  0
   57.6010   30.4800   43.3260 N   0  0  0  0  0  0  0  0  0  0  0  0
   57.9750   31.2740   44.4690 C   0  0  0  0  0  0  0  0  0  0  0  0
   57.8660   32.6750   44.4430 C   0  0  0  0  0  0  0  0  0  0  0  0
   58.3170   33.4360   45.5220 C   0  0  0  0  0  0  0  0  0  0  0  0
   58.8830   32.7950   46.6210 C   0  0  0  0  0  0  0  0  0  0  0  0
   58.9730   31.4400   46.6450 N   0  0  0  0  0  0  0  0  0  0  0  0
   58.5310   30.6640   45.6170 C   0  0  0  0  0  0  0  0  0  0  0  0
   58.6100   29.2340   45.7430 N   0  0  0  0  0  0  0  0  0  0  0  0
   59.0410   28.4100   44.6040 C   0  0  0  0  0  0  0  0  0  0  0  0
   58.0480   27.2640   44.3790 C   0  0  0  0  0  0  0  0  0  0  0  0
   57.7130   26.5870   45.6410 N   0  0  0  0  0  0  0  0  0  0  0  0
   56.7160   25.5540   45.6460 C   0  0  0  0  0  0  0  0  0  0  0  0
   55.6910   25.6870   46.3670 O   0  0  0  0  0  0  0  0  0  0  0  0
   56.8660   24.3400   44.8260 C   0  0  0  0  0  0  0  0  0  0  0  0
   56.0280   24.0220   43.7580 C   0  0  0  0  0  0  0  0  0  0  0  0
   56.5860   22.5860   43.0860 S   0  0  0  0  0  0  0  0  0  0  0  0
   57.8630   22.4310   44.1650 C   0  0  0  0  0  0  0  0  0  0  0  0
   57.8830   23.4600   45.0390 N   0  0  0  0  0  0  0  0  0  0  0  0
   58.2580   27.0780   46.9140 C   0  0  0  0  0  0  0  0  0  0  0  0
   58.1340   28.6030   46.9810 C   0  0  0  0  0  0  0  0  0  0  0  0
   56.2048   29.9495   45.2494 H   0  0  0  0  0  0  0  0  0  0  0  0
   54.6510   30.4041   44.4710 H   0  0  0  0  0  0  0  0  0  0  0  0
   55.1879   28.6899   44.4710 H   0  0  0  0  0  0  0  0  0  0  0  0
   56.3184   29.0103   42.5490 H   0  0  0  0  0  0  0  0  0  0  0  0
   55.6883   30.7025   42.5031 H   0  0  0  0  0  0  0  0  0  0  0  0
   58.3320   30.2410   42.6210 H   0  0  0  0  0  0  0  0  0  0  0  0
   57.4232   33.1737   43.5682 H   0  0  0  0  0  0  0  0  0  0  0  0
   58.2263   34.5321   45.5047 H   0  0  0  0  0  0  0  0  0  0  0  0
   59.2573   33.3861   47.4698 H   0  0  0  0  0  0  0  0  0  0  0  0
   59.0872   29.0345   43.6997 H   0  0  0  0  0  0  0  0  0  0  0  0
   60.0345   27.9894   44.8187 H   0  0  0  0  0  0  0  0  0  0  0  0
   57.1270   27.6706   43.9358 H   0  0  0  0  0  0  0  0  0  0  0  0
   58.5145   26.5295   43.7060 H   0  0  0  0  0  0  0  0  0  0  0  0
   55.1596   24.6049   43.4172 H   0  0  0  0  0  0  0  0  0  0  0  0
   58.5863   21.6023   44.1605 H   0  0  0  0  0  0  0  0  0  0  0  0
   57.6977   26.6296   47.7477 H   0  0  0  0  0  0  0  0  0  0  0  0
   59.3193   26.7976   46.9855 H   0  0  0  0  0  0  0  0  0  0  0  0
   57.0781   28.8698   47.1357 H   0  0  0  0  0  0  0  0  0  0  0  0
   58.7540   28.9646   47.8146 H   0  0  0  0  0  0  0  0  0  0  0  0
  1  2  1  0
  2  3  1  0
  3  4  1  0
  4  5  2  0
  5  6  1  0
  6  7  2  0
  7  8  1  0
  8  9  2  0
  9 10  1  0
 10 11  1  0
 11 12  1  0
 12 13  1  0
 13 14  1  0
 14 15  2  0
 14 16  1  0
 16 17  2  0
 17 18  1  0
 18 19  1  0
 19 20  2  0
 13 21  1  0
 21 22  1  0
  9  4  1  0
 22 10  1  0
 20 16  1  0
  1 23  1  0
  1 24  1  0
  1 25  1  0
  2 26  1  0
  2 27  1  0
  3 28  1  0
  5 29  1  0
  6 30  1  0
  7 31  1  0
 11 32  1  0
 11 33  1  0
 12 34  1  0
 12 35  1  0
 17 36  1  0
 19 37  1  0
 21 38  1  0
 21 39  1  0
 22 40  1  0
 22 41  1  0
M  END
>  <UniqueID>  (1) 
1

>  <SMILES>  (1) 
CCNc1cccnc1N1CCN(C(=O)c2cscn2)CC1

>  <Energy>  (1) 
79.06209507497309

>  <Genealogy>  (1) 
CCNc1cccnc1N1CCN(C(=O)c2cscn2)CC1 (3D coordinates assigned)
CCNc1cccnc1N1CCN(C(=O)c2cscn2)CC1 (nonaromatic ring conformer: 79.06209507497309 kcal/mol)

>  <smiles>  (1) 
CCNc1cccnc1N1CCN(C(=O)c2cscn2)CC1

>  <score_type>  (1) 
oracle

>  <origin>  (1) 
adg

>  <m_score__min__energy>  (1) 
-7.1900000000000004

>  <m_primary>  (1) 
energy

$$$$
1:0
     RDKit          3D

 44 46  0  0  0  0  0  0  0  0999 V2000
   59.6660   29.2560   48.9540 C   0  0  0  0  0  0  0  0  0  0  0  0
   59.5880   29.8160   47.5370 C   0  0  0  0  0  0  0  0  0  0  0  0
   59.4420   31.2360   47.5620 O   0  0  0  0  0  0  0  0  0  0  0  0
   58.8090   32.0180   46.5790 C   0  0  0  0  0  0  0  0  0  0  0  0
   58.0350   31.4400   45.5510 C   0  0  0  0  0  0  0  0  0  0  0  0
   57.4040   32.2440   44.6020 C   0  0  0  0  0  0  0  0  0  0  0  0
   57.5350   33.6300   44.6620 C   0  0  0  0  0  0  0  0  0  0  0  0
   58.2980   34.2190   45.6710 C   0  0  0  0  0  0  0  0  0  0  0  0
   58.9370   33.4260   46.6430 C   0  0  0  0  0  0  0  0  0  0  0  0
   59.7720   34.0460   47.7060 C   0  0  0  0  0  0  0  0  0  0  0  0
   59.2770   34.9930   48.3760 O   0  0  0  0  0  0  0  0  0  0  0  0
   61.1990   33.6200   48.0240 C   0  0  2  0  0  0  0  0  0  0  0  0
   61.9820   33.2330   46.7540 C   0  0  0  0  0  0  0  0  0  0  0  0
   63.7880   33.2010   47.0530 S   0  0  0  0  0  0  0  0  0  0  0  0
   63.7480   32.6930   48.8110 C   0  0  0  0  0  0  0  0  0  0  0  0
   62.5310   31.8140   49.1290 C   0  0  0  0  0  0  0  0  0  0  0  0
   61.2350   32.5440   49.0590 N   0  0  1  0  0  0  0  0  0  0  0  0
   60.8860   33.0870   50.3610 C   0  0  0  0  0  0  0  0  0  0  0  0
   61.7050   33.8210   50.9780 O   0  0  0  0  0  0  0  0  0  0  0  0
   59.5680   32.8400   50.9870 C   0  0  0  0  0  0  0  0  0  0  0  0
   59.0440   33.4470   52.1160 C   0  0  0  0  0  0  0  0  0  0  0  0
   57.8050   32.8750   52.3060 C   0  0  0  0  0  0  0  0  0  0  0  0
   57.6450   31.9590   51.2890 C   0  0  0  0  0  0  0  0  0  0  0  0
   58.7100   31.9590   50.5220 O   0  0  0  0  0  0  0  0  0  0  0  0
   59.5519   30.0754   49.6789 H   0  0  0  0  0  0  0  0  0  0  0  0
   58.8616   28.5205   49.1024 H   0  0  0  0  0  0  0  0  0  0  0  0
   60.6407   28.7683   49.1024 H   0  0  0  0  0  0  0  0  0  0  0  0
   60.5099   29.5574   46.9955 H   0  0  0  0  0  0  0  0  0  0  0  0
   58.7133   29.3798   47.0324 H   0  0  0  0  0  0  0  0  0  0  0  0
   57.9283   30.3465   45.4974 H   0  0  0  0  0  0  0  0  0  0  0  0
   56.8020   31.7833   43.8049 H   0  0  0  0  0  0  0  0  0  0  0  0
   57.0358   34.2613   43.9122 H   0  0  0  0  0  0  0  0  0  0  0  0
   58.4012   35.3136   45.7073 H   0  0  0  0  0  0  0  0  0  0  0  0
   61.7107   34.4941   48.4532 H   0  0  0  0  0  0  0  0  0  0  0  0
   61.6575   32.2344   46.4260 H   0  0  0  0  0  0  0  0  0  0  0  0
   61.7764   33.9887   45.9816 H   0  0  0  0  0  0  0  0  0  0  0  0
   64.6636   32.1271   49.0378 H   0  0  0  0  0  0  0  0  0  0  0  0
   63.6793   33.6027   49.4256 H   0  0  0  0  0  0  0  0  0  0  0  0
   62.5026   30.9846   48.4070 H   0  0  0  0  0  0  0  0  0  0  0  0
   62.6482   31.4625   50.1647 H   0  0  0  0  0  0  0  0  0  0  0  0
   60.5310   31.8180   48.8100 H   0  0  0  0  0  0  0  0  0  0  0  0
   59.5184   34.2244   52.7330 H   0  0  0  0  0  0  0  0  0  0  0  0
   57.0878   33.1036   53.1081 H   0  0  0  0  0  0  0  0  0  0  0  0
   56.7589   31.3240   51.1423 H   0  0  0  0  0  0  0  0  0  0  0  0
  1  2  1  0
  2  3  1  0
  3  4  1  0
  4  5  2  0
  5  6  1  0
  6  7  2  0
  7  8  1  0
  8  9  2  0
  9 10  1  0
 10 11  2  0
 10 12  1  0
 12 13  1  0
 13 14  1  0
 14 15  1  0
 15 16  1  0
 16 17  1  0
 17 18  1  0
 18 19  2  0
 18 20  1  0
 20 21  2  0
 21 22  1  0
 22 23  2  0
 23 24  1  0
  9  4  1  0
 17 12  1  0
 24 20  1  0
  1 25  1  0
  1 26  1  0
  1 27  1  0
  2 28  1  0
  2 29  1  0
  5 30  1  0
  6 31  1  0
  7 32  1  0
  8 33  1  0
 12 34  1  1
 13 35  1  0
 13 36  1  0
 15 37  1  0
 15 38  1  0
 16 39  1  0
 16 40  1  0
 17 41  1  6
 21 42  1  0
 22 43  1  0
 23 44  1  0
M  CHG  1  17   1
M  END
>  <UniqueID>  (2) 
2

>  <SMILES>  (2) 
CCOc1ccccc1C(=O)[C@@H]1CSCC[N@H+]1C(=O)c1ccco1

>  <Energy>  (2) 
84.71262014442325

>  <Genealogy>  (2) 
CCOc1ccccc1C(=O)C1CSCC[NH+]1C(=O)c1ccco1 (protonated)
CCOc1ccccc1C(=O)[C@@H]1CSCC[N@H+]1C(=O)c1ccco1 (chirality)
CCOc1ccccc1C(=O)[C@@H]1CSCC[N@H+]1C(=O)c1ccco1 (3D coordinates assigned)
CCOc1ccccc1C(=O)[C@@H]1CSCC[N@H+]1C(=O)c1ccco1 (nonaromatic ring conformer: 84.71262014442325 kcal/mol)

>  <smiles>  (2) 
CCOc1ccccc1C(=O)C1CSCCN1C(=O)c1ccco1

>  <score_type>  (2) 
oracle

>  <origin>  (2) 
adg

>  <m_score__min__energy>  (2) 
-5.5899999999999999

>  <m_primary>  (2) 
energy

$$$$
2:0
     RDKit          3D

 53 55  0  0  0  0  0  0  0  0999 V2000
   59.9530   34.5740   48.6680 C   0  0  0  0  0  0  0  0  0  0  0  0
   59.3460   34.7830   47.2790 C   0  0  0  0  0  0  0  0  0  0  0  0
   58.3230   33.7820   46.9070 N   0  0  0  0  0  0  0  0  0  0  0  0
   58.2450   32.6310   47.8210 C   0  0  0  0  0  0  0  0  0  0  0  0
   58.2330   33.4650   45.4630 C   0  0  0  0  0  0  0  0  0  0  0  0
   57.1380   32.4410   45.0980 C   0  0  0  0  0  0  0  0  0  0  0  0
   57.6440   31.1140   45.2160 O   0  0  0  0  0  0  0  0  0  0  0  0
   56.9150   29.9720   44.8630 C   0  0  0  0  0  0  0  0  0  0  0  0
   55.6880   30.0550   44.5860 O   0  0  0  0  0  0  0  0  0  0  0  0
   57.5890   28.6220   44.8640 C   0  0  0  0  0  0  0  0  0  0  0  0
   59.0240   28.7000   44.2760 C   0  0  0  0  0  0  0  0  0  0  0  0
   60.1350   28.5840   45.3360 C   0  0  0  0  0  0  0  0  0  0  0  0
   59.7240   29.2210   46.5920 N   0  0  0  0  0  0  0  0  0  0  0  0
   60.6360   30.0570   47.3280 C   0  0  0  0  0  0  0  0  0  0  0  0
   61.0930   31.2020   46.7520 N   0  0  0  0  0  0  0  0  0  0  0  0
   61.9670   32.0220   47.3880 C   0  0  0  0  0  0  0  0  0  0  0  0
   62.4140   33.1970   46.7740 C   0  0  0  0  0  0  0  0  0  0  0  0
   63.3150   34.0340   47.4410 C   0  0  0  0  0  0  0  0  0  0  0  0
   63.7700   33.6990   48.7210 C   0  0  0  0  0  0  0  0  0  0  0  0
   63.3270   32.5240   49.3400 C   0  0  0  0  0  0  0  0  0  0  0  0
   62.4230   31.6800   48.6770 C   0  0  0  0  0  0  0  0  0  0  0  0
   61.9820   30.5280   49.2550 N   0  0  0  0  0  0  0  0  0  0  0  0
   61.1050   29.7040   48.6120 C   0  0  0  0  0  0  0  0  0  0  0  0
   60.7140   28.4680   49.2450 C   0  0  0  0  0  0  0  0  0  0  0  0
   60.4060   27.4750   49.7540 N   0  0  0  0  0  0  0  0  0  0  0  0
   58.4830   28.7870   47.2470 C   0  0  0  0  0  0  0  0  0  0  0  0
   57.5720   28.0120   46.2790 C   0  0  0  0  0  0  0  0  0  0  0  0
   59.2083   34.8304   49.4359 H   0  0  0  0  0  0  0  0  0  0  0  0
   60.2511   33.5215   48.7833 H   0  0  0  0  0  0  0  0  0  0  0  0
   60.8359   35.2199   48.7833 H   0  0  0  0  0  0  0  0  0  0  0  0
   58.8796   35.7789   47.2528 H   0  0  0  0  0  0  0  0  0  0  0  0
   60.1683   34.6780   46.5559 H   0  0  0  0  0  0  0  0  0  0  0  0
   58.2691   32.9868   48.8616 H   0  0  0  0  0  0  0  0  0  0  0  0
   57.3077   32.0837   47.6423 H   0  0  0  0  0  0  0  0  0  0  0  0
   59.0999   31.9623   47.6423 H   0  0  0  0  0  0  0  0  0  0  0  0
   58.0253   34.3982   44.9190 H   0  0  0  0  0  0  0  0  0  0  0  0
   59.1936   33.0077   45.1834 H   0  0  0  0  0  0  0  0  0  0  0  0
   56.2831   32.5654   45.7789 H   0  0  0  0  0  0  0  0  0  0  0  0
   56.8197   32.6119   44.0590 H   0  0  0  0  0  0  0  0  0  0  0  0
   57.0187   27.9507   44.2051 H   0  0  0  0  0  0  0  0  0  0  0  0
   59.1477   27.8808   43.5523 H   0  0  0  0  0  0  0  0  0  0  0  0
   59.1268   29.6911   43.8100 H   0  0  0  0  0  0  0  0  0  0  0  0
   60.3458   27.5207   45.5228 H   0  0  0  0  0  0  0  0  0  0  0  0
   61.0355   29.0922   44.9606 H   0  0  0  0  0  0  0  0  0  0  0  0
   62.0574   33.4624   45.7678 H   0  0  0  0  0  0  0  0  0  0  0  0
   63.6665   34.9576   46.9580 H   0  0  0  0  0  0  0  0  0  0  0  0
   64.4776   34.3605   49.2423 H   0  0  0  0  0  0  0  0  0  0  0  0
   63.6875   32.2625   50.3458 H   0  0  0  0  0  0  0  0  0  0  0  0
   62.3290   30.2620   50.2060 H   0  0  0  0  0  0  0  0  0  0  0  0
   58.7367   28.1361   48.0966 H   0  0  0  0  0  0  0  0  0  0  0  0
   57.9417   29.6826   47.5858 H   0  0  0  0  0  0  0  0  0  0  0  0
   57.9187   26.9697   46.2214 H   0  0  0  0  0  0  0  0  0  0  0  0
   56.5422   28.0659   46.6619 H   0  0  0  0  0  0  0  0  0  0  0  0
  1  2  1  0
  2  3  1  0
  3  4  1  0
  3  5  1  0
  5  6  1  0
  6  7  1  0
  7  8  1  0
  8  9  2  0
  8 10  1  0
 10 11  1  0
 11 12  1  0
 12 13  1  0
 13 14  1  0
 14 15  2  0
 15 16  1  0
 16 17  2  0
 17 18  1  0
 18 19  2  0
 19 20  1  0
 20 21  2  0
 21 22  1  0
 22 23  2  0
 23 24  1  0
 24 25  3  0
 13 26  1  0
 26 27  1  0
 27 10  1  0
 23 14  1  0
 21 16  1  0
  1 28  1  0
  1 29  1  0
  1 30  1  0
  2 31  1  0
  2 32  1  0
  4 33  1  0
  4 34  1  0
  4 35  1  0
  5 36  1  0
  5 37  1  0
  6 38  1  0
  6 39  1  0
 10 40  1  0
 11 41  1  0
 11 42  1  0
 12 43  1  0
 12 44  1  0
 17 45  1  0
 18 46  1  0
 19 47  1  0
 20 48  1  0
 22 49  1  0
 26 50  1  0
 26 51  1  0
 27 52  1  0
 27 53  1  0
M  CHG  1  22   1
M  END
>  <UniqueID>  (3) 
3

>  <SMILES>  (3) 
CCN(C)CCOC(=O)C1CCN(c2nc3ccccc3[nH+]c2C#N)CC1

>  <Energy>  (3) 
65.89253003224518

>  <Genealogy>  (3) 
CCN(C)CCOC(=O)C1CCN(c2nc3ccccc3[nH+]c2C#N)CC1 (protonated)
CCN(C)CCOC(=O)C1CCN(c2nc3ccccc3[nH+]c2C#N)CC1 (3D coordinates assigned)
CCN(C)CCOC(=O)C1CCN(c2nc3ccccc3[nH+]c2C#N)CC1 (nonaromatic ring conformer: 65.89253003224518 kcal/mol)

>  <smiles>  (3) 
CCN(C)CCOC(=O)C1CCN(c2nc3ccccc3nc2C#N)CC1

>  <score_type>  (3) 
oracle

>  <origin>  (3) 
adg

>  <m_score__min__energy>  (3) 
-6.6299999999999999

>  <m_primary>  (3) 
energy

$$$$
3:0
     RDKit          3D

 50 53  0  0  0  0  0  0  0  0999 V2000
   60.0700   28.6480   44.7760 C   0  0  0  0  0  0  0  0  0  0  0  0
   59.0660   28.8490   45.7670 O   0  0  0  0  0  0  0  0  0  0  0  0
   59.1760   29.7610   46.8270 C   0  0  0  0  0  0  0  0  0  0  0  0
   58.8450   29.4240   48.1440 C   0  0  0  0  0  0  0  0  0  0  0  0
   59.0160   30.3520   49.1660 C   0  0  0  0  0  0  0  0  0  0  0  0
   59.5130   31.6330   48.9090 C   0  0  0  0  0  0  0  0  0  0  0  0
   59.7660   32.0290   47.5580 C   0  0  0  0  0  0  0  0  0  0  0  0
   59.6340   31.0480   46.5440 C   0  0  0  0  0  0  0  0  0  0  0  0
   60.2330   33.4520   47.2260 C   0  0  2  0  0  0  0  0  0  0  0  0
   59.3590   34.3770   47.8260 O   0  0  0  0  0  0  0  0  0  0  0  0
   60.1800   33.7890   45.6880 C   0  0  0  0  0  0  0  0  0  0  0  0
   59.2610   34.9010   45.3810 N   0  0  0  0  0  0  0  0  0  0  0  0
   57.8520   34.4930   45.3520 C   0  0  0  0  0  0  0  0  0  0  0  0
   57.7180   33.1980   44.5990 C   0  0  0  0  0  0  0  0  0  0  0  0
   57.0130   32.1170   45.1550 C   0  0  0  0  0  0  0  0  0  0  0  0
   56.8580   30.9320   44.4300 C   0  0  0  0  0  0  0  0  0  0  0  0
   57.3940   30.8200   43.1440 C   0  0  0  0  0  0  0  0  0  0  0  0
   58.0870   31.8950   42.5780 C   0  0  0  0  0  0  0  0  0  0  0  0
   58.2460   33.0830   43.3000 C   0  0  0  0  0  0  0  0  0  0  0  0
   61.6290   33.5650   47.8650 C   0  0  0  0  0  0  0  0  0  0  0  0
   62.8160   33.3880   47.1090 C   0  0  0  0  0  0  0  0  0  0  0  0
   64.0690   33.3930   47.7230 C   0  0  0  0  0  0  0  0  0  0  0  0
   64.1730   33.5210   49.1030 C   0  0  0  0  0  0  0  0  0  0  0  0
   63.0230   33.6190   49.8790 C   0  0  0  0  0  0  0  0  0  0  0  0
   61.7510   33.6210   49.2810 C   0  0  0  0  0  0  0  0  0  0  0  0
   60.5390   33.6150   50.1820 C   0  0  0  0  0  0  0  0  0  0  0  0
   59.7580   32.4250   50.0500 O   0  0  0  0  0  0  0  0  0  0  0  0
   61.0356   28.4547   45.2662 H   0  0  0  0  0  0  0  0  0  0  0  0
   59.7984   27.7864   44.1484 H   0  0  0  0  0  0  0  0  0  0  0  0
   60.1510   29.5477   44.1484 H   0  0  0  0  0  0  0  0  0  0  0  0
   58.4488   28.4234   48.3716 H   0  0  0  0  0  0  0  0  0  0  0  0
   58.7548   30.0722   50.1973 H   0  0  0  0  0  0  0  0  0  0  0  0
   59.8991   31.3076   45.5085 H   0  0  0  0  0  0  0  0  0  0  0  0
   59.5840   35.2830   47.4850 H   0  0  0  0  0  0  0  0  0  0  0  0
   61.1908   34.0649   45.3530 H   0  0  0  0  0  0  0  0  0  0  0  0
   59.8080   32.8959   45.1645 H   0  0  0  0  0  0  0  0  0  0  0  0
   59.3690   35.6050   46.1500 H   0  0  0  0  0  0  0  0  0  0  0  0
   57.4887   34.3574   46.3814 H   0  0  0  0  0  0  0  0  0  0  0  0
   57.2564   35.2705   44.8512 H   0  0  0  0  0  0  0  0  0  0  0  0
   56.5820   32.2036   46.1633 H   0  0  0  0  0  0  0  0  0  0  0  0
   56.3128   30.0854   44.8727 H   0  0  0  0  0  0  0  0  0  0  0  0
   57.2707   29.8857   42.5766 H   0  0  0  0  0  0  0  0  0  0  0  0
   58.5071   31.8065   41.5652 H   0  0  0  0  0  0  0  0  0  0  0  0
   58.7855   33.9297   42.8505 H   0  0  0  0  0  0  0  0  0  0  0  0
   62.7476   33.2444   46.0206 H   0  0  0  0  0  0  0  0  0  0  0  0
   64.9785   33.2952   47.1121 H   0  0  0  0  0  0  0  0  0  0  0  0
   65.1635   33.5448   49.5808 H   0  0  0  0  0  0  0  0  0  0  0  0
   63.1099   33.6958   50.9729 H   0  0  0  0  0  0  0  0  0  0  0  0
   60.8761   33.7005   51.2256 H   0  0  0  0  0  0  0  0  0  0  0  0
   59.9032   34.4633   49.8885 H   0  0  0  0  0  0  0  0  0  0  0  0
  1  2  1  0
  2  3  1  0
  3  4  2  0
  4  5  1  0
  5  6  2  0
  6  7  1  0
  7  8  2  0
  7  9  1  0
  9 10  1  1
  9 11  1  0
 11 12  1  0
 12 13  1  0
 13 14  1  0
 14 15  2  0
 15 16  1  0
 16 17  2  0
 17 18  1  0
 18 19  2  0
  9 20  1  0
 20 21  2  0
 21 22  1  0
 22 23  2  0
 23 24  1  0
 24 25  2  0
 25 26  1  0
 26 27  1  0
  8  3  1  0
 19 14  1  0
 25 20  1  0
 27  6  1  0
  1 28  1  0
  1 29  1  0
  1 30  1  0
  4 31  1  0
  5 32  1  0
  8 33  1  0
 10 34  1  0
 11 35  1  0
 11 36  1  0
 12 37  1  0
 13 38  1  0
 13 39  1  0
 15 40  1  0
 16 41  1  0
 17 42  1  0
 18 43  1  0
 19 44  1  0
 21 45  1  0
 22 46  1  0
 23 47  1  0
 24 48  1  0
 26 49  1  0
 26 50  1  0
M  END
>  <UniqueID>  (4) 
4

>  <SMILES>  (4) 
COc1ccc2c(c1)[C@](O)(CNCc1ccccc1)c1ccccc1CO2

>  <Energy>  (4) 
82.88463503021197

>  <Genealogy>  (4) 
COc1ccc2c(c1)[C@](O)(CNCc1ccccc1)c1ccccc1CO2 (chirality)
COc1ccc2c(c1)[C@](O)(CNCc1ccccc1)c1ccccc1CO2 (3D coordinates assigned)
COc1ccc2c(c1)[C@](O)(CNCc1ccccc1)c1ccccc1CO2 (nonaromatic ring conformer: 82.88463503021197 kcal/mol)

>  <smiles>  (4) 
COc1ccc2c(c1)C(O)(CNCc1ccccc1)c1ccccc1CO2

>  <score_type>  (4) 
oracle

>  <origin>  (4) 
adg

>  <m_score__min__energy>  (4) 
-7.1600000000000001

>  <m_primary>  (4) 
energy

$$$$
4:0
     RDKit          3D

 45 48  0  0  0  0  0  0  0  0999 V2000
   58.1410   27.4680   43.7540 C   0  0  0  0  0  0  0  0  0  0  0  0
   57.5730   28.2820   44.7740 O   0  0  0  0  0  0  0  0  0  0  0  0
   57.7030   29.6770   44.8400 C   0  0  0  0  0  0  0  0  0  0  0  0
   56.8770   30.5430   44.1070 C   0  0  0  0  0  0  0  0  0  0  0  0
   57.0930   31.9190   44.1470 C   0  0  0  0  0  0  0  0  0  0  0  0
   58.1090   32.4550   44.9550 C   0  0  0  0  0  0  0  0  0  0  0  0
   58.4060   33.8180   44.8710 C   0  0  0  0  0  0  0  0  0  0  0  0
   59.4920   34.3400   45.5610 C   0  0  0  0  0  0  0  0  0  0  0  0
   60.2280   33.5360   46.4380 C   0  0  0  0  0  0  0  0  0  0  0  0
   61.3410   34.0660   47.0880 C   0  0  0  0  0  0  0  0  0  0  0  0
   62.0820   33.2730   47.9610 C   0  0  0  0  0  0  0  0  0  0  0  0
   63.2560   33.7750   48.5410 C   0  0  0  0  0  0  0  0  0  0  0  0
   64.0000   32.9940   49.4400 C   0  0  0  0  0  0  0  0  0  0  0  0
   65.1820   33.4640   50.0360 O   0  0  0  0  0  0  0  0  0  0  0  0
   66.3980   32.7260   50.1110 C   0  0  0  0  0  0  0  0  0  0  0  0
   63.5640   31.7030   49.7600 C   0  0  0  0  0  0  0  0  0  0  0  0
   64.3370   30.9450   50.6560 O   0  0  0  0  0  0  0  0  0  0  0  0
   63.8800   30.4650   51.9160 C   0  0  0  0  0  0  0  0  0  0  0  0
   62.3800   31.2020   49.1860 C   0  0  0  0  0  0  0  0  0  0  0  0
   61.6160   31.9800   48.2850 C   0  0  0  0  0  0  0  0  0  0  0  0
   60.4330   31.5150   47.7410 N   0  0  0  0  0  0  0  0  0  0  0  0
   59.6900   30.4670   48.4720 C   0  0  0  0  0  0  0  0  0  0  0  0
   59.8510   32.1890   46.6760 C   0  0  0  0  0  0  0  0  0  0  0  0
   58.8690   31.6080   45.8070 C   0  0  0  0  0  0  0  0  0  0  0  0
   58.7010   30.2130   45.6620 C   0  0  0  0  0  0  0  0  0  0  0  0
   58.7127   26.6488   44.2145 H   0  0  0  0  0  0  0  0  0  0  0  0
   57.3381   27.0491   43.1296 H   0  0  0  0  0  0  0  0  0  0  0  0
   58.8112   28.0770   43.1296 H   0  0  0  0  0  0  0  0  0  0  0  0
   56.0565   30.1343   43.4990 H   0  0  0  0  0  0  0  0  0  0  0  0
   56.4643   32.5891   43.5424 H   0  0  0  0  0  0  0  0  0  0  0  0
   57.7775   34.4793   44.2564 H   0  0  0  0  0  0  0  0  0  0  0  0
   59.7756   35.3930   45.4171 H   0  0  0  0  0  0  0  0  0  0  0  0
   61.6345   35.1113   46.9115 H   0  0  0  0  0  0  0  0  0  0  0  0
   63.5972   34.7900   48.2893 H   0  0  0  0  0  0  0  0  0  0  0  0
   66.6643   32.5644   51.1660 H   0  0  0  0  0  0  0  0  0  0  0  0
   66.2684   31.7541   49.6125 H   0  0  0  0  0  0  0  0  0  0  0  0
   67.2004   33.2897   49.6125 H   0  0  0  0  0  0  0  0  0  0  0  0
   64.3952   31.0061   52.7233 H   0  0  0  0  0  0  0  0  0  0  0  0
   62.7954   30.6283   51.9991 H   0  0  0  0  0  0  0  0  0  0  0  0
   64.0963   29.3897   51.9991 H   0  0  0  0  0  0  0  0  0  0  0  0
   62.0429   30.1869   49.4429 H   0  0  0  0  0  0  0  0  0  0  0  0
   59.8023   30.6254   49.5547 H   0  0  0  0  0  0  0  0  0  0  0  0
   58.6247   30.5173   48.2026 H   0  0  0  0  0  0  0  0  0  0  0  0
   60.0900   29.4784   48.2026 H   0  0  0  0  0  0  0  0  0  0  0  0
   59.3703   29.5319   46.2080 H   0  0  0  0  0  0  0  0  0  0  0  0
  1  2  1  0
  2  3  1  0
  3  4  2  0
  4  5  1  0
  5  6  2  0
  6  7  1  0
  7  8  2  0
  8  9  1  0
  9 10  2  0
 10 11  1  0
 11 12  2  0
 12 13  1  0
 13 14  1  0
 14 15  1  0
 13 16  2  0
 16 17  1  0
 17 18  1  0
 16 19  1  0
 19 20  2  0
 20 21  1  0
 21 22  1  0
 21 23  2  0
 23 24  1  0
 24 25  2  0
 25  3  1  0
 24  6  1  0
 23  9  1  0
 20 11  1  0
  1 26  1  0
  1 27  1  0
  1 28  1  0
  4 29  1  0
  5 30  1  0
  7 31  1  0
  8 32  1  0
 10 33  1  0
 12 34  1  0
 15 35  1  0
 15 36  1  0
 15 37  1  0
 18 38  1  0
 18 39  1  0
 18 40  1  0
 19 41  1  0
 22 42  1  0
 22 43  1  0
 22 44  1  0
 25 45  1  0
M  CHG  1  21   1
M  END
>  <UniqueID>  (5) 
5

>  <SMILES>  (5) 
COc1ccc2ccc3cc4cc(OC)c(OC)cc4[n+](C)c3c2c1

>  <Energy>  (5) 
81.27887541503422

>  <Genealogy>  (5) 
COc1ccc2ccc3cc4cc(OC)c(OC)cc4[n+](C)c3c2c1 (3D coordinates assigned)
COc1ccc2ccc3cc4cc(OC)c(OC)cc4[n+](C)c3c2c1 (optimized conformer: 81.27887541503422 kcal/mol)

>  <smiles>  (5) 
COc1ccc2ccc3cc4cc(OC)c(OC)cc4[n+](C)c3c2c1

>  <score_type>  (5) 
oracle

>  <origin>  (5) 
adg

>  <m_score__min__energy>  (5) 
-5.7400000000000002

>  <m_primary>  (5) 
energy

$$$$
5:0
     RDKit          3D

 51 54  0  0  0  0  0  0  0  0999 V2000
   60.1717   35.2583   46.7839 H   0  0  0  0  0  0  0  0  0  0  0  0
   59.5650   34.5710   46.1760 C   0  0  0  0  0  0  0  0  0  0  0  0
   59.4290   32.9130   46.4020 S   0  0  0  0  0  0  0  0  0  0  0  0
   58.3710   32.6230   45.1240 C   0  0  0  0  0  0  0  0  0  0  0  0
   57.8370   31.2900   44.7630 C   0  0  0  0  0  0  0  0  0  0  0  0
   57.2630   30.9610   43.5370 C   0  0  0  0  0  0  0  0  0  0  0  0
   57.1279   31.6359   42.6789 H   0  0  0  0  0  0  0  0  0  0  0  0
   56.8920   29.6210   43.5980 C   0  0  0  0  0  0  0  0  0  0  0  0
   56.4092   29.0269   42.8081 H   0  0  0  0  0  0  0  0  0  0  0  0
   57.2570   29.1960   44.8560 C   0  0  0  0  0  0  0  0  0  0  0  0
   57.1240   27.9460   45.4410 C   0  0  0  0  0  0  0  0  0  0  0  0
   56.6674   27.1079   44.8941 H   0  0  0  0  0  0  0  0  0  0  0  0
   57.5780   27.7910   46.7160 N   0  0  0  0  0  0  0  0  0  0  0  0
   58.1410   28.8340   47.4040 C   0  0  0  0  0  0  0  0  0  0  0  0
   58.5980   28.6820   48.6120 N   0  0  0  0  0  0  0  0  0  0  0  0
   59.4230   29.6110   49.3380 C   0  0  0  0  0  0  0  0  0  0  0  0
   60.7130   29.9490   48.8890 C   0  0  0  0  0  0  0  0  0  0  0  0
   61.0998   29.5064   47.9592 H   0  0  0  0  0  0  0  0  0  0  0  0
   61.5100   30.8450   49.6160 C   0  0  0  0  0  0  0  0  0  0  0  0
   62.8720   31.2390   49.0990 C   0  0  0  0  0  0  0  0  0  0  0  0
   63.2511   32.0762   49.7034 H   0  0  0  0  0  0  0  0  0  0  0  0
   63.5279   30.3592   49.1747 H   0  0  0  0  0  0  0  0  0  0  0  0
   62.8340   31.6730   47.6190 C   0  0  0  0  0  0  0  0  0  0  0  0
   63.1426   30.8186   46.9987 H   0  0  0  0  0  0  0  0  0  0  0  0
   61.8047   31.9969   47.4056 H   0  0  0  0  0  0  0  0  0  0  0  0
   63.7230   32.8220   47.3100 N   0  0  0  0  0  0  0  0  0  0  0  0
   64.5850   32.4860   46.8220 H   0  0  0  0  0  0  0  0  0  0  0  0
   64.1510   33.4670   48.5630 C   0  0  0  0  0  0  0  0  0  0  0  0
   63.7697   32.8924   49.4200 H   0  0  0  0  0  0  0  0  0  0  0  0
   65.2498   33.4986   48.6024 H   0  0  0  0  0  0  0  0  0  0  0  0
   63.7531   34.4918   48.6024 H   0  0  0  0  0  0  0  0  0  0  0  0
   63.0520   33.8150   46.4500 C   0  0  0  0  0  0  0  0  0  0  0  0
   62.5467   34.5628   47.0788 H   0  0  0  0  0  0  0  0  0  0  0  0
   63.7986   34.3142   45.8149 H   0  0  0  0  0  0  0  0  0  0  0  0
   62.3103   33.3085   45.8149 H   0  0  0  0  0  0  0  0  0  0  0  0
   61.0200   31.3870   50.8120 C   0  0  0  0  0  0  0  0  0  0  0  0
   61.6334   32.1009   51.3814 H   0  0  0  0  0  0  0  0  0  0  0  0
   59.7570   31.0250   51.2840 C   0  0  0  0  0  0  0  0  0  0  0  0
   59.3881   31.4428   52.2323 H   0  0  0  0  0  0  0  0  0  0  0  0
   58.9520   30.1290   50.5550 C   0  0  0  0  0  0  0  0  0  0  0  0
   57.6790   29.7400   51.0010 O   0  0  0  0  0  0  0  0  0  0  0  0
   56.9320   30.4220   52.0050 C   0  0  0  0  0  0  0  0  0  0  0  0
   57.2794   30.1049   52.9994 H   0  0  0  0  0  0  0  0  0  0  0  0
   57.0756   31.5071   51.8953 H   0  0  0  0  0  0  0  0  0  0  0  0
   55.8645   30.1805   51.8953 H   0  0  0  0  0  0  0  0  0  0  0  0
   58.2650   30.0460   46.7930 N   0  0  0  0  0  0  0  0  0  0  0  0
   57.8200   30.1940   45.5470 N   0  0  0  0  0  0  0  0  0  0  0  0
   58.1110   33.8420   44.4990 C   0  0  0  0  0  0  0  0  0  0  0  0
   57.4467   33.9444   43.6282 H   0  0  0  0  0  0  0  0  0  0  0  0
   58.7780   34.9230   45.0880 C   0  0  0  0  0  0  0  0  0  0  0  0
   58.6868   35.9564   44.7222 H   0  0  0  0  0  0  0  0  0  0  0  0
  1  2  1  0
  2  3  1  0
  3  4  1  0
  4  5  1  0
  5  6  2  0
  6  7  1  0
  6  8  1  0
  8  9  1  0
  8 10  2  0
 10 11  1  0
 11 12  1  0
 11 13  2  0
 13 14  1  0
 14 15  2  0
 15 16  1  0
 16 17  2  0
 17 18  1  0
 17 19  1  0
 19 20  1  0
 20 21  1  0
 20 22  1  0
 20 23  1  0
 23 24  1  0
 23 25  1  0
 23 26  1  0
 26 27  1  0
 26 28  1  0
 28 29  1  0
 28 30  1  0
 28 31  1  0
 26 32  1  0
 32 33  1  0
 32 34  1  0
 32 35  1  0
 19 36  2  0
 36 37  1  0
 36 38  1  0
 38 39  1  0
 38 40  2  0
 40 41  1  0
 41 42  1  0
 42 43  1  0
 42 44  1  0
 42 45  1  0
 14 46  1  0
 46 47  1  0
  4 48  2  0
 48 49  1  0
 48 50  1  0
 50 51  1  0
 50  2  2  0
 47  5  1  0
 47 10  1  0
 40 16  1  0
M  CHG  2  26   1  46  -1
M  END
>  <UniqueID>  (6) 
6

>  <SMILES>  (6) 
COc1ccc(CC[NH+](C)C)cc1/N=c1\ncc2ccc(-c3cccs3)n2[n-]1

>  <Energy>  (6) 
120.86500751491734

>  <Genealogy>  (6) 
COc1ccc(CC[NH+](C)C)cc1N=c1ncc2ccc(-c3cccs3)n2[n-]1 (protonated)
COc1ccc(CC[NH+](C)C)cc1/N=c1\ncc2ccc(-c3cccs3)n2[n-]1 (cis-trans isomerization)
COc1ccc(CC[NH+](C)C)cc1/N=c1\ncc2ccc(-c3cccs3)n2[n-]1 (3D coordinates assigned)
COc1ccc(CC[NH+](C)C)cc1/N=c1\ncc2ccc(-c3cccs3)n2[n-]1 (optimized conformer: 120.86500751491734 kcal/mol)

>  <smiles>  (6) 
COc1ccc(CCN(C)C)cc1N=c1ncc2ccc(-c3cccs3)n2[nH]1

>  <score_type>  (6) 
oracle

>  <origin>  (6) 
adg

>  <m_score__min__energy>  (6) 
-9.2599999999999998

>  <m_primary>  (6) 
energy

$$$$
6:0
     RDKit          3D

 36 37  0  0  0  0  0  0  0  0999 V2000
   59.8274   35.6067   46.7359 H   0  0  0  0  0  0  0  0  0  0  0  0
   59.2610   34.7780   46.2860 C   0  0  0  0  0  0  0  0  0  0  0  0
   58.5350   33.9050   47.1010 C   0  0  0  0  0  0  0  0  0  0  0  0
   58.5345   34.0446   48.1921 H   0  0  0  0  0  0  0  0  0  0  0  0
   57.8090   32.8540   46.5310 C   0  0  0  0  0  0  0  0  0  0  0  0
   57.2422   32.1659   47.1754 H   0  0  0  0  0  0  0  0  0  0  0  0
   57.8020   32.6750   45.1370 C   0  0  0  0  0  0  0  0  0  0  0  0
   57.0180   31.5570   44.5060 C   0  0  0  0  0  0  0  0  0  0  0  0
   57.4027   31.3726   43.4921 H   0  0  0  0  0  0  0  0  0  0  0  0
   55.9577   31.8466   44.4628 H   0  0  0  0  0  0  0  0  0  0  0  0
   57.1390   30.3620   45.2790 O   0  0  0  0  0  0  0  0  0  0  0  0
   58.2720   29.5330   45.3540 C   0  0  0  0  0  0  0  0  0  0  0  0
   59.5640   30.0780   45.4870 C   0  0  0  0  0  0  0  0  0  0  0  0
   59.6993   31.1696   45.4754 H   0  0  0  0  0  0  0  0  0  0  0  0
   60.6710   29.2470   45.6330 C   0  0  0  0  0  0  0  0  0  0  0  0
   61.6785   29.6767   45.7339 H   0  0  0  0  0  0  0  0  0  0  0  0
   60.4910   27.8690   45.6500 C   0  0  0  0  0  0  0  0  0  0  0  0
   61.3578   27.2046   45.7814 H   0  0  0  0  0  0  0  0  0  0  0  0
   59.2490   27.3400   45.5050 N   0  0  0  0  0  0  0  0  0  0  0  0
   59.1540   26.2990   45.5160 H   0  0  0  0  0  0  0  0  0  0  0  0
   58.1370   28.1150   45.3290 C   0  0  0  0  0  0  0  0  0  0  0  0
   56.9910   27.5020   45.1900 N   0  0  0  0  0  0  0  0  0  0  0  0
   56.3920   26.4950   46.0170 C   0  0  0  0  0  0  0  0  0  0  0  0
   55.1400   26.3450   46.0330 O   0  0  0  0  0  0  0  0  0  0  0  0
   57.2580   25.5010   46.7320 C   0  0  0  0  0  0  0  0  0  0  0  0
   56.6154   24.7642   47.2362 H   0  0  0  0  0  0  0  0  0  0  0  0
   57.8773   26.0438   47.4613 H   0  0  0  0  0  0  0  0  0  0  0  0
   58.1180   24.8240   45.8350 O   0  0  0  0  0  0  0  0  0  0  0  0
   57.4030   24.4070   44.6920 C   0  0  0  0  0  0  0  0  0  0  0  0
   56.4916   23.8755   45.0033 H   0  0  0  0  0  0  0  0  0  0  0  0
   57.1275   25.2861   44.0909 H   0  0  0  0  0  0  0  0  0  0  0  0
   58.0325   23.7344   44.0909 H   0  0  0  0  0  0  0  0  0  0  0  0
   58.5450   33.5490   44.3270 C   0  0  0  0  0  0  0  0  0  0  0  0
   58.5581   33.4066   43.2363 H   0  0  0  0  0  0  0  0  0  0  0  0
   59.2680   34.5990   44.9000 C   0  0  0  0  0  0  0  0  0  0  0  0
   59.8426   35.2846   44.2599 H   0  0  0  0  0  0  0  0  0  0  0  0
  1  2  1  0
  2  3  2  0
  3  4  1  0
  3  5  1  0
  5  6  1  0
  5  7  2  0
  7  8  1  0
  8  9  1  0
  8 10  1  0
  8 11  1  0
 11 12  1  0
 12 13  2  0
 13 14  1  0
 13 15  1  0
 15 16  1  0
 15 17  2  0
 17 18  1  0
 17 19  1  0
 19 20  1  0
 19 21  1  0
 21 22  2  0
 22 23  1  0
 23 24  2  0
 23 25  1  0
 25 26  1  0
 25 27  1  0
 25 28  1  0
 28 29  1  0
 29 30  1  0
 29 31  1  0
 29 32  1  0
  7 33  1  0
 33 34  1  0
 33 35  2  0
 35 36  1  0
 35  2  1  0
 21 12  1  0
M  END
>  <UniqueID>  (7) 
7

>  <SMILES>  (7) 
COCC(=O)/N=c1/[nH]cccc1OCc1ccccc1

>  <Energy>  (7) 
48.414668806841455

>  <Genealogy>  (7) 
COCC(=O)/N=c1/[nH]cccc1OCc1ccccc1 (cis-trans isomerization)
COCC(=O)/N=c1/[nH]cccc1OCc1ccccc1 (3D coordinates assigned)
COCC(=O)/N=c1/[nH]cccc1OCc1ccccc1 (optimized conformer: 48.414668806841455 kcal/mol)

>  <smiles>  (7) 
COCC(=O)N=c1[nH]cccc1OCc1ccccc1

>  <score_type>  (7) 
oracle

>  <origin>  (7) 
adg

>  <m_score__min__energy>  (7) 
-6.3899999999999997

>  <m_primary>  (7) 
energy

$$$$
7:0
     RDKit          3D

 40 42  0  0  0  0  0  0  0  0999 V2000
   62.2250   33.8340   46.3780 C   0  0  0  0  0  0  0  0  0  0  0  0
   60.8550   33.7630   47.0560 C   0  0  0  0  0  0  0  0  0  0  0  0
   59.8490   34.6100   46.3740 N   0  0  0  0  0  0  0  0  0  0  0  0
   59.7020   34.2430   44.9420 C   0  0  0  0  0  0  0  0  0  0  0  0
   58.5260   33.2840   44.6440 C   0  0  0  0  0  0  0  0  0  0  0  0
   58.0950   32.5650   45.8470 N   0  0  0  0  0  0  0  0  0  0  0  0
   57.7650   31.1740   45.7690 C   0  0  0  0  0  0  0  0  0  0  0  0
   56.7170   30.7890   44.9970 N   0  0  0  0  0  0  0  0  0  0  0  0
   56.3530   29.5120   44.8870 N   0  0  0  0  0  0  0  0  0  0  0  0
   57.0120   28.5180   45.5440 C   0  0  0  0  0  0  0  0  0  0  0  0
   56.6000   27.1880   45.4060 O   0  0  0  0  0  0  0  0  0  0  0  0
   57.3910   26.1960   44.7640 C   0  0  0  0  0  0  0  0  0  0  0  0
   58.1070   28.8450   46.3590 C   0  0  0  0  0  0  0  0  0  0  0  0
   58.8210   27.8530   47.0550 C   0  0  0  0  0  0  0  0  0  0  0  0
   59.9120   28.2030   47.8550 C   0  0  0  0  0  0  0  0  0  0  0  0
   60.3000   29.5390   47.9670 C   0  0  0  0  0  0  0  0  0  0  0  0
   59.6010   30.5350   47.2810 C   0  0  0  0  0  0  0  0  0  0  0  0
   58.4960   30.1990   46.4750 C   0  0  0  0  0  0  0  0  0  0  0  0
   57.8650   33.2850   47.1010 C   0  0  0  0  0  0  0  0  0  0  0  0
   58.5380   34.6620   47.0600 C   0  0  0  0  0  0  0  0  0  0  0  0
   63.0122   33.8748   47.1453 H   0  0  0  0  0  0  0  0  0  0  0  0
   62.3703   32.9422   45.7507 H   0  0  0  0  0  0  0  0  0  0  0  0
   62.2773   34.7361   45.7507 H   0  0  0  0  0  0  0  0  0  0  0  0
   60.5070   32.7196   47.0432 H   0  0  0  0  0  0  0  0  0  0  0  0
   60.9677   34.1346   48.0852 H   0  0  0  0  0  0  0  0  0  0  0  0
   59.5472   35.1664   44.3647 H   0  0  0  0  0  0  0  0  0  0  0  0
   60.6211   33.7086   44.6597 H   0  0  0  0  0  0  0  0  0  0  0  0
   57.6790   33.8684   44.2552 H   0  0  0  0  0  0  0  0  0  0  0  0
   58.8659   32.5435   43.9050 H   0  0  0  0  0  0  0  0  0  0  0  0
   57.8869   25.5741   45.5238 H   0  0  0  0  0  0  0  0  0  0  0  0
   56.7468   25.5633   44.1358 H   0  0  0  0  0  0  0  0  0  0  0  0
   58.1512   26.6832   44.1358 H   0  0  0  0  0  0  0  0  0  0  0  0
   58.5197   26.7985   46.9693 H   0  0  0  0  0  0  0  0  0  0  0  0
   60.4665   27.4234   48.3979 H   0  0  0  0  0  0  0  0  0  0  0  0
   61.1597   29.8087   48.5980 H   0  0  0  0  0  0  0  0  0  0  0  0
   59.9147   31.5855   47.3706 H   0  0  0  0  0  0  0  0  0  0  0  0
   56.7830   33.4151   47.2507 H   0  0  0  0  0  0  0  0  0  0  0  0
   58.2949   32.7031   47.9296 H   0  0  0  0  0  0  0  0  0  0  0  0
   57.8823   35.3635   46.5234 H   0  0  0  0  0  0  0  0  0  0  0  0
   58.7055   34.9930   48.0956 H   0  0  0  0  0  0  0  0  0  0  0  0
  1  2  1  0
  2  3  1  0
  3  4  1  0
  4  5  1  0
  5  6  1  0
  6  7  1  0
  7  8  2  0
  8  9  1  0
  9 10  2  0
 10 11  1  0
 11 12  1  0
 10 13  1  0
 13 14  2  0
 14 15  1  0
 15 16  2  0
 16 17  1  0
 17 18  2  0
  6 19  1  0
 19 20  1  0
 20  3  1  0
 18  7  1  0
 18 13  1  0
  1 21  1  0
  1 22  1  0
  1 23  1  0
  2 24  1  0
  2 25  1  0
  4 26  1  0
  4 27  1  0
  5 28  1  0
  5 29  1  0
 12 30  1  0
 12 31  1  0
 12 32  1  0
 14 33  1  0
 15 34  1  0
 16 35  1  0
 17 36  1  0
 19 37  1  0
 19 38  1  0
 20 39  1  0
 20 40  1  0
M  END
>  <UniqueID>  (8) 
8

>  <SMILES>  (8) 
CCN1CCN(c2nnc(OC)c3ccccc23)CC1

>  <Energy>  (8) 
58.199207390113074

>  <Genealogy>  (8) 
CCN1CCN(c2nnc(OC)c3ccccc23)CC1 (3D coordinates assigned)
CCN1CCN(c2nnc(OC)c3ccccc23)CC1 (nonaromatic ring conformer: 58.199207390113074 kcal/mol)

>  <smiles>  (8) 
CCN1CCN(c2nnc(OC)c3ccccc23)CC1

>  <score_type>  (8) 
oracle

>  <origin>  (8) 
adg

>  <m_score__min__energy>  (8) 
-7.0999999999999996

>  <m_primary>  (8) 
energy

$$$$
8:0
     RDKit          3D

 27 29  0  0  0  0  0  0  0  0999 V2000
   59.6620   27.8750   47.5430 Br  0  0  0  0  0  0  0  0  0  0  0  0
   60.2460   27.8610   45.6980 C   0  0  0  0  0  0  0  0  0  0  0  0
   59.0860   28.1410   44.8010 C   0  0  0  0  0  0  0  0  0  0  0  0
   58.3650   27.1900   44.1640 N   0  0  0  0  0  0  0  0  0  0  0  0
   57.4270   27.8310   43.4760 N   0  0  0  0  0  0  0  0  0  0  0  0
   57.5930   29.1480   43.6890 C   0  0  0  0  0  0  0  0  0  0  0  0
   58.6190   29.3660   44.5070 N   0  0  0  0  0  0  0  0  0  0  0  0
   58.9870   30.6060   45.0520 N   0  0  0  0  0  0  0  0  0  0  0  0
   58.1880   31.6380   45.0100 C   0  0  0  0  0  0  0  0  0  0  0  0
   58.6480   32.9120   45.6190 C   0  0  0  0  0  0  0  0  0  0  0  0
   58.9260   34.0230   44.8000 C   0  0  0  0  0  0  0  0  0  0  0  0
   59.3640   35.2270   45.3600 C   0  0  0  0  0  0  0  0  0  0  0  0
   59.5360   35.3360   46.7410 C   0  0  0  0  0  0  0  0  0  0  0  0
   59.2740   34.2390   47.5650 C   0  0  0  0  0  0  0  0  0  0  0  0
   58.8350   33.0320   47.0110 C   0  0  0  0  0  0  0  0  0  0  0  0
   56.7600   31.4890   44.4980 C   0  0  0  0  0  0  0  0  0  0  0  0
   56.6470   30.4750   42.9740 S   0  0  0  0  0  0  0  0  0  0  0  0
   61.0157   28.6332   45.5522 H   0  0  0  0  0  0  0  0  0  0  0  0
   60.6637   26.8727   45.4556 H   0  0  0  0  0  0  0  0  0  0  0  0
   56.7090   27.3750   42.8700 H   0  0  0  0  0  0  0  0  0  0  0  0
   58.7975   33.9431   43.7104 H   0  0  0  0  0  0  0  0  0  0  0  0
   59.5735   36.0901   44.7110 H   0  0  0  0  0  0  0  0  0  0  0  0
   59.8776   36.2850   47.1800 H   0  0  0  0  0  0  0  0  0  0  0  0
   59.4133   34.3245   48.6528 H   0  0  0  0  0  0  0  0  0  0  0  0
   58.6344   32.1711   47.6657 H   0  0  0  0  0  0  0  0  0  0  0  0
   56.1545   31.0115   45.2824 H   0  0  0  0  0  0  0  0  0  0  0  0
   56.3923   32.4959   44.2511 H   0  0  0  0  0  0  0  0  0  0  0  0
  1  2  1  0
  2  3  1  0
  3  4  2  0
  4  5  1  0
  5  6  2  0
  6  7  1  0
  7  8  1  0
  8  9  2  0
  9 10  1  0
 10 11  2  0
 11 12  1  0
 12 13  2  0
 13 14  1  0
 14 15  2  0
  9 16  1  0
 16 17  1  0
  7  3  1  0
 15 10  1  0
 17  6  1  0
  2 18  1  0
  2 19  1  0
  5 20  1  0
 11 21  1  0
 12 22  1  0
 13 23  1  0
 14 24  1  0
 15 25  1  0
 16 26  1  0
 16 27  1  0
M  CHG  1   5   1
M  END
>  <UniqueID>  (9) 
9

>  <SMILES>  (9) 
BrCc1n[nH+]c2n1N=C(c1ccccc1)CS2

>  <Energy>  (9) 
75.02105949763235

>  <Genealogy>  (9) 
BrCc1n[nH+]c2n1N=C(c1ccccc1)CS2 (protonated)
BrCc1n[nH+]c2n1N=C(c1ccccc1)CS2 (3D coordinates assigned)
BrCc1n[nH+]c2n1N=C(c1ccccc1)CS2 (nonaromatic ring conformer: 75.02105949763235 kcal/mol)

>  <smiles>  (9) 
BrCc1nnc2n1N=C(c1ccccc1)CS2

>  <score_type>  (9) 
oracle

>  <origin>  (9) 
adg

>  <m_score__min__energy>  (9) 
-6.2999999999999998

>  <m_primary>  (9) 
energy

$$$$
9:0
     RDKit          3D

 59 61  0  0  0  0  0  0  0  0999 V2000
   63.3910   33.8510   46.1440 C   0  0  0  0  0  0  0  0  0  0  0  0
   63.0770   32.8890   47.1430 O   0  0  0  0  0  0  0  0  0  0  0  0
   62.8690   33.1800   48.4970 C   0  0  0  0  0  0  0  0  0  0  0  0
   63.9240   33.1900   49.4300 C   0  0  0  0  0  0  0  0  0  0  0  0
   63.6840   33.5200   50.7660 C   0  0  0  0  0  0  0  0  0  0  0  0
   62.3900   33.8340   51.1870 C   0  0  0  0  0  0  0  0  0  0  0  0
   61.3350   33.8220   50.2740 C   0  0  0  0  0  0  0  0  0  0  0  0
   61.5640   33.4900   48.9320 C   0  0  0  0  0  0  0  0  0  0  0  0
   60.4660   33.5100   48.0070 N   0  0  0  0  0  0  0  0  0  0  0  0
   60.4290   34.5530   46.9830 C   0  0  0  0  0  0  0  0  0  0  0  0
   58.9790   34.8890   46.6300 C   0  0  0  0  0  0  0  0  0  0  0  0
   58.2060   33.6840   46.2810 N   0  0  0  0  0  0  0  0  0  0  0  0
   58.5960   33.1080   44.9740 C   0  0  0  0  0  0  0  0  0  0  0  0
   57.3980   32.4410   44.2850 C   0  0  0  0  0  0  0  0  0  0  0  0
   57.1460   31.0480   44.7960 C   0  0  0  0  0  0  0  0  0  0  0  0
   56.0630   30.4690   44.5150 O   0  0  0  0  0  0  0  0  0  0  0  0
   58.1650   30.3620   45.5410 N   0  0  0  0  0  0  0  0  0  0  0  0
   58.0480   28.9580   45.9520 C   0  0  2  0  0  0  0  0  0  0  0  0
   58.5020   28.8110   47.4240 C   0  0  0  0  0  0  0  0  0  0  0  0
   59.9810   28.4350   47.5310 C   0  0  0  0  0  0  0  0  0  0  0  0
   60.2690   27.0790   46.8600 C   0  0  0  0  0  0  0  0  0  0  0  0
   59.3370   26.7720   45.6720 C   0  0  0  0  0  0  0  0  0  0  0  0
   58.8580   28.0570   44.9750 C   0  0  1  0  0  0  0  0  0  0  0  0
   58.0340   27.7120   43.7300 C   0  0  0  0  0  0  0  0  0  0  0  0
   58.2170   32.7020   47.3870 C   0  0  0  0  0  0  0  0  0  0  0  0
   59.6350   32.3160   47.8360 C   0  0  0  0  0  0  0  0  0  0  0  0
   63.6980   34.7917   46.6244 H   0  0  0  0  0  0  0  0  0  0  0  0
   64.2127   33.4741   45.5174 H   0  0  0  0  0  0  0  0  0  0  0  0
   62.5051   34.0314   45.5174 H   0  0  0  0  0  0  0  0  0  0  0  0
   64.9437   32.9363   49.1045 H   0  0  0  0  0  0  0  0  0  0  0  0
   64.5148   33.5325   51.4869 H   0  0  0  0  0  0  0  0  0  0  0  0
   62.2022   34.0912   52.2399 H   0  0  0  0  0  0  0  0  0  0  0  0
   60.3182   34.0745   50.6094 H   0  0  0  0  0  0  0  0  0  0  0  0
   60.9296   35.4554   47.3640 H   0  0  0  0  0  0  0  0  0  0  0  0
   60.9456   34.1921   46.0814 H   0  0  0  0  0  0  0  0  0  0  0  0
   58.5061   35.3769   47.4951 H   0  0  0  0  0  0  0  0  0  0  0  0
   58.9864   35.5551   45.7547 H   0  0  0  0  0  0  0  0  0  0  0  0
   58.9808   33.9109   44.3280 H   0  0  0  0  0  0  0  0  0  0  0  0
   59.3699   32.3453   45.1451 H   0  0  0  0  0  0  0  0  0  0  0  0
   56.5011   33.0516   44.4662 H   0  0  0  0  0  0  0  0  0  0  0  0
   57.6256   32.3687   43.2112 H   0  0  0  0  0  0  0  0  0  0  0  0
   59.0760   30.8450   45.6980 H   0  0  0  0  0  0  0  0  0  0  0  0
   57.0004   28.6265   45.9010 H   0  0  0  0  0  0  0  0  0  0  0  0
   58.3399   29.7671   47.9431 H   0  0  0  0  0  0  0  0  0  0  0  0
   57.9116   28.0046   47.8835 H   0  0  0  0  0  0  0  0  0  0  0  0
   60.5839   29.2124   47.0389 H   0  0  0  0  0  0  0  0  0  0  0  0
   60.2402   28.3544   48.5970 H   0  0  0  0  0  0  0  0  0  0  0  0
   61.3071   27.0838   46.4962 H   0  0  0  0  0  0  0  0  0  0  0  0
   60.0964   26.2998   47.6170 H   0  0  0  0  0  0  0  0  0  0  0  0
   59.8811   26.1532   44.9432 H   0  0  0  0  0  0  0  0  0  0  0  0
   58.4534   26.2428   46.0583 H   0  0  0  0  0  0  0  0  0  0  0  0
   59.7430   28.6277   44.6570 H   0  0  0  0  0  0  0  0  0  0  0  0
   57.0596   27.3040   44.0367 H   0  0  0  0  0  0  0  0  0  0  0  0
   57.8786   28.6206   43.1298 H   0  0  0  0  0  0  0  0  0  0  0  0
   58.5723   26.9637   43.1298 H   0  0  0  0  0  0  0  0  0  0  0  0
   57.6838   33.1358   48.2457 H   0  0  0  0  0  0  0  0  0  0  0  0
   57.7291   31.7875   47.0187 H   0  0  0  0  0  0  0  0  0  0  0  0
   59.5766   31.7764   48.7928 H   0  0  0  0  0  0  0  0  0  0  0  0
   60.0888   31.6763   47.0647 H   0  0  0  0  0  0  0  0  0  0  0  0
  1  2  1  0
  2  3  1  0
  3  4  2  0
  4  5  1  0
  5  6  2  0
  6  7  1  0
  7  8  2  0
  8  9  1  0
  9 10  1  0
 10 11  1  0
 11 12  1  0
 12 13  1  0
 13 14  1  0
 14 15  1  0
 15 16  2  0
 15 17  1  0
 17 18  1  0
 18 19  1  0
 19 20  1  0
 20 21  1  0
 21 22  1  0
 22 23  1  0
 23 24  1  0
 12 25  1  0
 25 26  1  0
  8  3  1  0
 26  9  1  0
 23 18  1  0
  1 27  1  0
  1 28  1  0
  1 29  1  0
  4 30  1  0
  5 31  1  0
  6 32  1  0
  7 33  1  0
 10 34  1  0
 10 35  1  0
 11 36  1  0
 11 37  1  0
 13 38  1  0
 13 39  1  0
 14 40  1  0
 14 41  1  0
 17 42  1  0
 18 43  1  1
 19 44  1  0
 19 45  1  0
 20 46  1  0
 20 47  1  0
 21 48  1  0
 21 49  1  0
 22 50  1  0
 22 51  1  0
 23 52  1  6
 24 53  1  0
 24 54  1  0
 24 55  1  0
 25 56  1  0
 25 57  1  0
 26 58  1  0
 26 59  1  0
M  END
>  <UniqueID>  (10) 
10

>  <SMILES>  (10) 
COc1ccccc1N1CCN(CCC(=O)N[C@@H]2CCCC[C@H]2C)CC1

>  <Energy>  (10) 
63.929536602572384

>  <Genealogy>  (10) 
COc1ccccc1N1CCN(CCC(=O)N[C@@H]2CCCC[C@H]2C)CC1 (chirality)
COc1ccccc1N1CCN(CCC(=O)N[C@@H]2CCCC[C@H]2C)CC1 (3D coordinates assigned)
COc1ccccc1N1CCN(CCC(=O)N[C@@H]2CCCC[C@H]2C)CC1 (nonaromatic ring conformer: 63.929536602572384 kcal/mol)

>  <smiles>  (10) 
COc1ccccc1N1CCN(CCC(=O)NC2CCCCC2C)CC1

>  <score_type>  (10) 
oracle

>  <origin>  (10) 
adg

>  <m_score__min__energy>  (10) 
-8.8800000000000008

>  <m_primary>  (10) 
energy

$$$$
10:0
     RDKit          3D

 33 36  0  0  0  0  0  0  0  0999 V2000
   55.1390   22.1940   47.0420 C   0  0  0  0  0  0  0  0  0  0  0  0
   55.9950   23.3560   46.6640 C   0  0  0  0  0  0  0  0  0  0  0  0
   57.3450   23.2170   46.6140 N   0  0  0  0  0  0  0  0  0  0  0  0
   58.1500   24.2670   46.3110 C   0  0  0  0  0  0  0  0  0  0  0  0
   59.3980   24.0990   46.2750 O   0  0  0  0  0  0  0  0  0  0  0  0
   57.5880   25.5310   46.0510 C   0  0  0  0  0  0  0  0  0  0  0  0
   56.1890   25.6470   46.1080 C   0  0  0  0  0  0  0  0  0  0  0  0
   55.4290   24.5660   46.4210 N   0  0  0  0  0  0  0  0  0  0  0  0
   55.5640   26.8620   45.8250 O   0  0  0  0  0  0  0  0  0  0  0  0
   56.2720   27.9710   45.3590 C   0  0  0  0  0  0  0  0  0  0  0  0
   55.5890   29.0780   44.9670 N   0  0  0  0  0  0  0  0  0  0  0  0
   56.2380   30.1650   44.4770 C   0  0  0  0  0  0  0  0  0  0  0  0
   55.5840   31.1790   44.1200 O   0  0  0  0  0  0  0  0  0  0  0  0
   57.5910   30.1580   44.3710 N   0  0  0  0  0  0  0  0  0  0  0  0
   58.3200   29.0790   44.7540 C   0  0  0  0  0  0  0  0  0  0  0  0
   59.5750   29.1120   44.6460 O   0  0  0  0  0  0  0  0  0  0  0  0
   57.6740   27.9420   45.2730 C   0  0  0  0  0  0  0  0  0  0  0  0
   58.4590   26.7490   45.7880 C   0  0  1  0  0  0  0  0  0  0  0  0
   59.1990   27.1310   47.0550 C   0  0  0  0  0  0  0  0  0  0  0  0
   60.3290   26.4030   47.4770 C   0  0  0  0  0  0  0  0  0  0  0  0
   61.0060   26.7610   48.6460 C   0  0  0  0  0  0  0  0  0  0  0  0
   60.5640   27.8480   49.4070 C   0  0  0  0  0  0  0  0  0  0  0  0
   61.4900   28.3360   51.0040 Br  0  0  0  0  0  0  0  0  0  0  0  0
   59.4440   28.5770   48.9970 C   0  0  0  0  0  0  0  0  0  0  0  0
   58.7640   28.2230   47.8280 C   0  0  0  0  0  0  0  0  0  0  0  0
   55.0845   22.1200   48.1382 H   0  0  0  0  0  0  0  0  0  0  0  0
   54.1276   22.3353   46.6333 H   0  0  0  0  0  0  0  0  0  0  0  0
   55.5738   21.2699   46.6333 H   0  0  0  0  0  0  0  0  0  0  0  0
   59.1703   26.4694   44.9969 H   0  0  0  0  0  0  0  0  0  0  0  0
   60.6807   25.5471   46.8823 H   0  0  0  0  0  0  0  0  0  0  0  0
   61.8875   26.1872   48.9680 H   0  0  0  0  0  0  0  0  0  0  0  0
   59.0967   29.4317   49.5960 H   0  0  0  0  0  0  0  0  0  0  0  0
   57.8839   28.8015   47.5108 H   0  0  0  0  0  0  0  0  0  0  0  0
  1  2  1  0
  2  3  2  0
  3  4  1  0
  4  5  2  0
  4  6  1  0
  6  7  2  0
  7  8  1  0
  7  9  1  0
  9 10  1  0
 10 11  1  0
 11 12  1  0
 12 13  2  0
 12 14  1  0
 14 15  1  0
 15 16  2  0
 15 17  1  0
 17 18  1  0
 18 19  1  0
 19 20  2  0
 20 21  1  0
 21 22  2  0
 22 23  1  0
 22 24  1  0
 24 25  2  0
  8  2  1  0
 17 10  2  0
 25 19  1  0
 18  6  1  0
  1 26  1  0
  1 27  1  0
  1 28  1  0
 18 29  1  6
 20 30  1  0
 21 31  1  0
 24 32  1  0
 25 33  1  0
M  CHG  3   8  -1  11  -1  14  -1
M  END
>  <UniqueID>  (11) 
11

>  <SMILES>  (11) 
Cc1nc(=O)c2c([n-]1)Oc1[n-]c(=O)[n-]c(=O)c1[C@H]2c1ccc(Br)cc1

>  <Energy>  (11) 
43.4845588663899

>  <Genealogy>  (11) 
Cc1nc(=O)c2c([n-]1)Oc1[n-]c(=O)[n-]c(=O)c1C2c1ccc(Br)cc1 (protonated)
Cc1nc(=O)c2c([n-]1)Oc1[n-]c(=O)[n-]c(=O)c1[C@H]2c1ccc(Br)cc1 (chirality)
Cc1nc(=O)c2c([n-]1)Oc1[n-]c(=O)[n-]c(=O)c1[C@H]2c1ccc(Br)cc1 (3D coordinates assigned)
Cc1nc(=O)c2c([n-]1)Oc1[n-]c(=O)[n-]c(=O)c1[C@H]2c1ccc(Br)cc1 (nonaromatic ring conformer: 43.4845588663899 kcal/mol)

>  <smiles>  (11) 
Cc1nc(=O)c2c([nH]1)Oc1[nH]c(=O)[nH]c(=O)c1C2c1ccc(Br)cc1

>  <score_type>  (11) 
oracle

>  <origin>  (11) 
adg

>  <m_score__min__energy>  (11) 
-12.41

>  <m_primary>  (11) 
energy

$$$$
11:0
     RDKit          3D

 42 44  0  0  0  0  0  0  0  0999 V2000
   57.4790   32.0270   51.5560 C   0  0  0  0  0  0  0  0  0  0  0  0
   58.5410   32.9320   52.1690 C   0  0  0  0  0  0  0  0  0  0  0  0
   58.9650   33.9000   51.2270 O   0  0  0  0  0  0  0  0  0  0  0  0
   59.4150   33.2940   50.0280 C   0  0  0  0  0  0  0  0  0  0  0  0
   60.3500   34.2340   49.2550 C   0  0  0  0  0  0  0  0  0  0  0  0
   61.4290   33.4850   48.6040 N   0  0  0  0  0  0  0  0  0  0  0  0
   62.7430   33.6070   48.8850 C   0  0  0  0  0  0  0  0  0  0  0  0
   63.4570   32.8410   47.9890 C   0  0  0  0  0  0  0  0  0  0  0  0
   62.5930   32.2500   47.1450 N   0  0  0  0  0  0  0  0  0  0  0  0
   61.3660   32.6490   47.5370 C   0  0  0  0  0  0  0  0  0  0  0  0
   60.1310   32.2540   46.8240 C   0  0  0  0  0  0  0  0  0  0  0  0
   59.4420   33.1980   46.0530 C   0  0  0  0  0  0  0  0  0  0  0  0
   58.2890   32.8320   45.3560 C   0  0  0  0  0  0  0  0  0  0  0  0
   57.8000   31.5220   45.4190 C   0  0  0  0  0  0  0  0  0  0  0  0
   58.5030   30.5560   46.1780 C   0  0  0  0  0  0  0  0  0  0  0  0
   59.6690   30.9320   46.8580 C   0  0  0  0  0  0  0  0  0  0  0  0
   58.1360   29.2070   46.2290 O   0  0  0  0  0  0  0  0  0  0  0  0
   57.2680   28.5680   45.3010 C   0  0  0  0  0  0  0  0  0  0  0  0
   57.5010   29.0730   43.8800 C   0  0  0  0  0  0  0  0  0  0  0  0
   56.6340   30.2890   43.5850 C   0  0  0  0  0  0  0  0  0  0  0  0
   56.6650   31.2230   44.6560 O   0  0  0  0  0  0  0  0  0  0  0  0
   56.9060   31.5387   52.3580 H   0  0  0  0  0  0  0  0  0  0  0  0
   56.7997   32.6281   50.9338 H   0  0  0  0  0  0  0  0  0  0  0  0
   57.9648   31.2609   50.9338 H   0  0  0  0  0  0  0  0  0  0  0  0
   58.1200   33.4414   53.0483 H   0  0  0  0  0  0  0  0  0  0  0  0
   59.4050   32.3194   52.4661 H   0  0  0  0  0  0  0  0  0  0  0  0
   59.9573   32.3691   50.2738 H   0  0  0  0  0  0  0  0  0  0  0  0
   58.5412   33.0720   49.3977 H   0  0  0  0  0  0  0  0  0  0  0  0
   59.7695   34.7678   48.4882 H   0  0  0  0  0  0  0  0  0  0  0  0
   60.7968   34.9451   49.9654 H   0  0  0  0  0  0  0  0  0  0  0  0
   63.1726   34.2160   49.6940 H   0  0  0  0  0  0  0  0  0  0  0  0
   64.5513   32.7314   47.9678 H   0  0  0  0  0  0  0  0  0  0  0  0
   62.8320   31.6180   46.3490 H   0  0  0  0  0  0  0  0  0  0  0  0
   59.8108   34.2328   45.9962 H   0  0  0  0  0  0  0  0  0  0  0  0
   57.7588   33.5817   44.7504 H   0  0  0  0  0  0  0  0  0  0  0  0
   60.2306   30.1770   47.4277 H   0  0  0  0  0  0  0  0  0  0  0  0
   57.4499   27.4835   45.3295 H   0  0  0  0  0  0  0  0  0  0  0  0
   56.2301   28.7980   45.5837 H   0  0  0  0  0  0  0  0  0  0  0  0
   58.5595   29.3494   43.7653 H   0  0  0  0  0  0  0  0  0  0  0  0
   57.2337   28.2722   43.1749 H   0  0  0  0  0  0  0  0  0  0  0  0
   57.0043   30.7791   42.6725 H   0  0  0  0  0  0  0  0  0  0  0  0
   55.5961   29.9492   43.4533 H   0  0  0  0  0  0  0  0  0  0  0  0
  1  2  1  0
  2  3  1  0
  3  4  1  0
  4  5  1  0
  5  6  1  0
  6  7  1  0
  7  8  2  0
  8  9  1  0
  9 10  2  0
 10 11  1  0
 11 12  2  0
 12 13  1  0
 13 14  2  0
 14 15  1  0
 15 16  2  0
 15 17  1  0
 17 18  1  0
 18 19  1  0
 19 20  1  0
 20 21  1  0
 10  6  1  0
 16 11  1  0
 21 14  1  0
  1 22  1  0
  1 23  1  0
  1 24  1  0
  2 25  1  0
  2 26  1  0
  4 27  1  0
  4 28  1  0
  5 29  1  0
  5 30  1  0
  7 31  1  0
  8 32  1  0
  9 33  1  0
 12 34  1  0
 13 35  1  0
 16 36  1  0
 18 37  1  0
 18 38  1  0
 19 39  1  0
 19 40  1  0
 20 41  1  0
 20 42  1  0
M  CHG  1   9   1
M  END
>  <UniqueID>  (12) 
12

>  <SMILES>  (12) 
CCOCCn1cc[nH+]c1-c1ccc2c(c1)OCCCO2

>  <Energy>  (12) 
85.00092023828358

>  <Genealogy>  (12) 
CCOCCn1cc[nH+]c1-c1ccc2c(c1)OCCCO2 (protonated)
CCOCCn1cc[nH+]c1-c1ccc2c(c1)OCCCO2 (3D coordinates assigned)
CCOCCn1cc[nH+]c1-c1ccc2c(c1)OCCCO2 (nonaromatic ring conformer: 85.00092023828358 kcal/mol)

>  <smiles>  (12) 
CCOCCn1ccnc1-c1ccc2c(c1)OCCCO2

>  <score_type>  (12) 
oracle

>  <origin>  (12) 
adg

>  <m_score__min__energy>  (12) 
-3.1699999999999999

>  <m_primary>  (12) 
energy

$$$$
12:0
     RDKit          3D

 73 77  0  0  0  0  0  0  0  0999 V2000
   67.5360   28.4380   50.9520 C   0  0  0  0  0  0  0  0  0  0  0  0
   67.6550   29.6130   51.8820 C   0  0  0  0  0  0  0  0  0  0  0  0
   68.7050   29.7730   52.4920 O   0  0  0  0  0  0  0  0  0  0  0  0
   66.5570   30.5460   52.0600 N   0  0  2  0  0  0  0  0  0  0  0  0
   65.3080   29.9540   51.5190 C   0  0  0  0  0  0  0  0  0  0  0  0
   64.2360   31.0270   51.3010 C   0  0  0  0  0  0  0  0  0  0  0  0
   64.6830   32.0570   50.2350 C   0  0  1  0  0  0  0  0  0  0  0  0
   64.0390   33.4050   50.4910 C   0  0  0  0  0  0  0  0  0  0  0  0
   64.7090   34.3660   50.9490 O   0  0  0  0  0  0  0  0  0  0  0  0
   62.6620   33.6130   50.1620 N   0  0  0  0  0  0  0  0  0  0  0  0
   62.1770   33.5530   48.7940 C   0  0  0  0  0  0  0  0  0  0  0  0
   60.6870   33.2140   48.8970 C   0  0  2  0  0  0  0  0  0  0  0  0
   59.8570   33.9010   47.8270 C   0  0  0  0  0  0  0  0  0  0  0  0
   59.2480   34.9720   48.0930 O   0  0  0  0  0  0  0  0  0  0  0  0
   59.7600   33.3760   46.4940 N   0  0  0  0  0  0  0  0  0  0  0  0
   59.3890   32.0350   46.1540 C   0  0  0  0  0  0  0  0  0  0  0  0
   58.2460   31.8180   45.3760 C   0  0  0  0  0  0  0  0  0  0  0  0
   57.8690   30.5200   45.0200 C   0  0  0  0  0  0  0  0  0  0  0  0
   58.6180   29.4150   45.4610 C   0  0  0  0  0  0  0  0  0  0  0  0
   58.2050   28.0370   45.1000 C   0  0  0  0  0  0  0  0  0  0  0  0
   57.8190   27.1230   46.0950 C   0  0  0  0  0  0  0  0  0  0  0  0
   57.4090   25.8320   45.7530 C   0  0  0  0  0  0  0  0  0  0  0  0
   57.3660   25.4310   44.4090 C   0  0  0  0  0  0  0  0  0  0  0  0
   56.9760   24.0180   44.0520 C   0  0  0  0  0  0  0  0  0  0  0  0
   55.7860   23.6610   44.6630 F   0  0  0  0  0  0  0  0  0  0  0  0
   56.8230   23.9220   42.6810 F   0  0  0  0  0  0  0  0  0  0  0  0
   57.9560   23.1330   44.4600 F   0  0  0  0  0  0  0  0  0  0  0  0
   57.7830   26.3330   43.4160 C   0  0  0  0  0  0  0  0  0  0  0  0
   58.1890   27.6260   43.7570 C   0  0  0  0  0  0  0  0  0  0  0  0
   59.7460   29.6360   46.2710 C   0  0  0  0  0  0  0  0  0  0  0  0
   60.1250   30.9370   46.6200 C   0  0  0  0  0  0  0  0  0  0  0  0
   60.3070   33.6190   50.3390 C   0  0  1  0  0  0  0  0  0  0  0  0
   59.1590   32.8060   50.9080 C   0  0  0  0  0  0  0  0  0  0  0  0
   58.4030   33.3200   51.9760 C   0  0  0  0  0  0  0  0  0  0  0  0
   57.3330   32.5920   52.5040 C   0  0  0  0  0  0  0  0  0  0  0  0
   57.0040   31.3420   51.9700 C   0  0  0  0  0  0  0  0  0  0  0  0
   55.6550   30.4350   52.6270 Cl  0  0  0  0  0  0  0  0  0  0  0  0
   57.7480   30.8210   50.9080 C   0  0  0  0  0  0  0  0  0  0  0  0
   58.8190   31.5430   50.3790 C   0  0  0  0  0  0  0  0  0  0  0  0
   61.6020   33.4840   51.1430 C   0  0  0  0  0  0  0  0  0  0  0  0
   66.2290   32.1290   50.1220 C   0  0  0  0  0  0  0  0  0  0  0  0
   66.8940   31.8830   51.4860 C   0  0  0  0  0  0  0  0  0  0  0  0
   67.4423   27.5130   51.5399 H   0  0  0  0  0  0  0  0  0  0  0  0
   66.6457   28.5611   50.3178 H   0  0  0  0  0  0  0  0  0  0  0  0
   68.4329   28.3801   50.3178 H   0  0  0  0  0  0  0  0  0  0  0  0
   66.4050   30.6870   53.0890 H   0  0  0  0  0  0  0  0  0  0  0  0
   65.5288   29.4667   50.5578 H   0  0  0  0  0  0  0  0  0  0  0  0
   64.9258   29.2221   52.2458 H   0  0  0  0  0  0  0  0  0  0  0  0
   63.3071   30.5430   50.9649 H   0  0  0  0  0  0  0  0  0  0  0  0
   64.0755   31.5570   52.2515 H   0  0  0  0  0  0  0  0  0  0  0  0
   64.3283   31.7176   49.2506 H   0  0  0  0  0  0  0  0  0  0  0  0
   62.3159   34.5234   48.2949 H   0  0  0  0  0  0  0  0  0  0  0  0
   62.7237   32.8043   48.2019 H   0  0  0  0  0  0  0  0  0  0  0  0
   60.4818   32.1490   48.7135 H   0  0  0  0  0  0  0  0  0  0  0  0
   57.6408   32.6740   45.0427 H   0  0  0  0  0  0  0  0  0  0  0  0
   56.9806   30.3621   44.3908 H   0  0  0  0  0  0  0  0  0  0  0  0
   57.8398   27.4265   47.1521 H   0  0  0  0  0  0  0  0  0  0  0  0
   57.1177   25.1245   46.5433 H   0  0  0  0  0  0  0  0  0  0  0  0
   57.7900   26.0191   42.3618 H   0  0  0  0  0  0  0  0  0  0  0  0
   58.4983   28.3271   42.9678 H   0  0  0  0  0  0  0  0  0  0  0  0
   60.3346   28.7801   46.6328 H   0  0  0  0  0  0  0  0  0  0  0  0
   61.0034   31.0985   47.2621 H   0  0  0  0  0  0  0  0  0  0  0  0
   59.9176   34.6471   50.3771 H   0  0  0  0  0  0  0  0  0  0  0  0
   58.6556   34.3032   52.3996 H   0  0  0  0  0  0  0  0  0  0  0  0
   56.7489   33.0028   53.3407 H   0  0  0  0  0  0  0  0  0  0  0  0
   57.4886   29.8382   50.4874 H   0  0  0  0  0  0  0  0  0  0  0  0
   59.4014   31.1248   49.5448 H   0  0  0  0  0  0  0  0  0  0  0  0
   61.6740   34.2804   51.8983 H   0  0  0  0  0  0  0  0  0  0  0  0
   61.6547   32.5302   51.6884 H   0  0  0  0  0  0  0  0  0  0  0  0
   66.5736   31.3639   49.4108 H   0  0  0  0  0  0  0  0  0  0  0  0
   66.5080   33.1340   49.7727 H   0  0  0  0  0  0  0  0  0  0  0  0
   67.9851   31.9477   51.3621 H   0  0  0  0  0  0  0  0  0  0  0  0
   66.5170   32.6472   52.1816 H   0  0  0  0  0  0  0  0  0  0  0  0
  1  2  1  0
  2  3  2  0
  2  4  1  0
  4  5  1  0
  5  6  1  0
  6  7  1  0
  7  8  1  0
  8  9  2  0
  8 10  1  0
 10 11  1  0
 11 12  1  0
 12 13  1  0
 13 14  2  0
 13 15  1  0
 15 16  1  0
 16 17  2  0
 17 18  1  0
 18 19  2  0
 19 20  1  0
 20 21  2  0
 21 22  1  0
 22 23  2  0
 23 24  1  0
 24 25  1  0
 24 26  1  0
 24 27  1  0
 23 28  1  0
 28 29  2  0
 19 30  1  0
 30 31  2  0
 12 32  1  0
 32 33  1  0
 33 34  2  0
 34 35  1  0
 35 36  2  0
 36 37  1  0
 36 38  1  0
 38 39  2  0
 32 40  1  0
  7 41  1  0
 41 42  1  0
 42  4  1  0
 40 10  1  0
 31 16  1  0
 39 33  1  0
 29 20  1  0
  1 43  1  0
  1 44  1  0
  1 45  1  0
  4 46  1  1
  5 47  1  0
  5 48  1  0
  6 49  1  0
  6 50  1  0
  7 51  1  6
 11 52  1  0
 11 53  1  0
 12 54  1  1
 17 55  1  0
 18 56  1  0
 21 57  1  0
 22 58  1  0
 28 59  1  0
 29 60  1  0
 30 61  1  0
 31 62  1  0
 32 63  1  6
 34 64  1  0
 35 65  1  0
 38 66  1  0
 39 67  1  0
 40 68  1  0
 40 69  1  0
 41 70  1  0
 41 71  1  0
 42 72  1  0
 42 73  1  0
M  CHG  2   4   1  15  -1
M  END
>  <UniqueID>  (13) 
13

>  <SMILES>  (13) 
CC(=O)[NH+]1CCC(C(=O)N2C[C@H](C(=O)[N-]c3ccc(-c4ccc(C(F)(F)F)cc4)cc3)[C@@H](c3ccc(Cl)cc3)C2)CC1

>  <Energy>  (13) 
106.29877383080148

>  <Genealogy>  (13) 
CC(=O)[NH+]1CCC(C(=O)N2CC(C(=O)[N-]c3ccc(-c4ccc(C(F)(F)F)cc4)cc3)C(c3ccc(Cl)cc3)C2)CC1 (protonated)
CC(=O)[NH+]1CCC(C(=O)N2C[C@H](C(=O)[N-]c3ccc(-c4ccc(C(F)(F)F)cc4)cc3)[C@@H](c3ccc(Cl)cc3)C2)CC1 (chirality)
CC(=O)[NH+]1CCC(C(=O)N2C[C@H](C(=O)[N-]c3ccc(-c4ccc(C(F)(F)F)cc4)cc3)[C@@H](c3ccc(Cl)cc3)C2)CC1 (3D coordinates assigned)
CC(=O)[NH+]1CCC(C(=O)N2C[C@H](C(=O)[N-]c3ccc(-c4ccc(C(F)(F)F)cc4)cc3)[C@@H](c3ccc(Cl)cc3)C2)CC1 (nonaromatic ring conformer: 106.29877383080148 kcal/mol)

>  <smiles>  (13) 
CC(=O)N1CCC(C(=O)N2CC(C(=O)Nc3ccc(-c4ccc(C(F)(F)F)cc4)cc3)C(c3ccc(Cl)cc3)C2)CC1

>  <score_type>  (13) 
oracle

>  <origin>  (13) 
adg

>  <m_score__min__energy>  (13) 
-9.8000000000000007

>  <m_primary>  (13) 
energy

$$$$
13:0
     RDKit          3D

 46 49  0  0  0  0  0  0  0  0999 V2000
   58.7470   27.8310   44.2860 C   0  0  0  0  0  0  0  0  0  0  0  0
   59.8440   28.1320   45.2960 C   0  0  0  0  0  0  0  0  0  0  0  0
   59.2560   28.4280   46.5450 O   0  0  0  0  0  0  0  0  0  0  0  0
   60.2230   28.9520   47.4360 C   0  0  0  0  0  0  0  0  0  0  0  0
   61.1250   29.9490   46.7080 C   0  0  0  0  0  0  0  0  0  0  0  0
   60.5920   31.3050   46.8420 N   0  0  0  0  0  0  0  0  0  0  0  0
   59.4150   31.8010   46.3720 C   0  0  0  0  0  0  0  0  0  0  0  0
   58.4550   31.1470   45.5940 C   0  0  0  0  0  0  0  0  0  0  0  0
   57.2830   31.8590   45.2330 C   0  0  0  0  0  0  0  0  0  0  0  0
   56.2700   31.2820   44.4540 O   0  0  0  0  0  0  0  0  0  0  0  0
   56.4960   30.3270   43.4230 C   0  0  0  0  0  0  0  0  0  0  0  0
   57.1110   33.1970   45.6660 C   0  0  0  0  0  0  0  0  0  0  0  0
   58.0830   33.8340   46.4560 C   0  0  0  0  0  0  0  0  0  0  0  0
   59.2210   33.1080   46.7870 C   0  0  0  0  0  0  0  0  0  0  0  0
   60.3180   33.4160   47.5510 C   0  0  0  0  0  0  0  0  0  0  0  0
   60.6410   34.5270   48.2430 N   0  0  0  0  0  0  0  0  0  0  0  0
   61.7790   34.5220   48.9510 N   0  0  0  0  0  0  0  0  0  0  0  0
   62.6040   33.4210   48.9910 C   0  0  0  0  0  0  0  0  0  0  0  0
   63.8530   33.4490   49.7920 C   0  0  0  0  0  0  0  0  0  0  0  0
   63.9240   34.1940   50.9850 C   0  0  0  0  0  0  0  0  0  0  0  0
   65.1020   34.2180   51.7380 C   0  0  0  0  0  0  0  0  0  0  0  0
   66.2220   33.5000   51.3120 C   0  0  0  0  0  0  0  0  0  0  0  0
   67.6980   33.5310   52.2590 Cl  0  0  0  0  0  0  0  0  0  0  0  0
   66.1650   32.7560   50.1300 C   0  0  0  0  0  0  0  0  0  0  0  0
   64.9890   32.7290   49.3740 C   0  0  0  0  0  0  0  0  0  0  0  0
   62.2620   32.2950   48.2910 N   0  0  0  0  0  0  0  0  0  0  0  0
   61.1160   32.3150   47.5720 C   0  0  0  0  0  0  0  0  0  0  0  0
   57.8186   27.5762   44.8181 H   0  0  0  0  0  0  0  0  0  0  0  0
   58.5769   28.7157   43.6548 H   0  0  0  0  0  0  0  0  0  0  0  0
   59.0523   26.9834   43.6548 H   0  0  0  0  0  0  0  0  0  0  0  0
   60.5015   27.2560   45.3972 H   0  0  0  0  0  0  0  0  0  0  0  0
   60.4364   28.9930   44.9529 H   0  0  0  0  0  0  0  0  0  0  0  0
   59.7133   29.4622   48.2666 H   0  0  0  0  0  0  0  0  0  0  0  0
   60.8387   28.1271   47.8238 H   0  0  0  0  0  0  0  0  0  0  0  0
   62.1344   29.9108   47.1435 H   0  0  0  0  0  0  0  0  0  0  0  0
   61.1655   29.6834   45.6413 H   0  0  0  0  0  0  0  0  0  0  0  0
   58.6050   30.1065   45.2701 H   0  0  0  0  0  0  0  0  0  0  0  0
   56.7272   29.3500   43.8725 H   0  0  0  0  0  0  0  0  0  0  0  0
   55.5937   30.2397   42.7999 H   0  0  0  0  0  0  0  0  0  0  0  0
   57.3417   30.6533   42.7999 H   0  0  0  0  0  0  0  0  0  0  0  0
   56.2020   33.7460   45.3792 H   0  0  0  0  0  0  0  0  0  0  0  0
   57.9480   34.8700   46.8001 H   0  0  0  0  0  0  0  0  0  0  0  0
   63.0460   34.7614   51.3271 H   0  0  0  0  0  0  0  0  0  0  0  0
   65.1469   34.8037   52.6680 H   0  0  0  0  0  0  0  0  0  0  0  0
   67.0468   32.1908   49.7940 H   0  0  0  0  0  0  0  0  0  0  0  0
   64.9508   32.1407   48.4453 H   0  0  0  0  0  0  0  0  0  0  0  0
  1  2  1  0
  2  3  1  0
  3  4  1  0
  4  5  1  0
  5  6  1  0
  6  7  1  0
  7  8  2  0
  8  9  1  0
  9 10  1  0
 10 11  1  0
  9 12  2  0
 12 13  1  0
 13 14  2  0
 14 15  1  0
 15 16  2  0
 16 17  1  0
 17 18  2  0
 18 19  1  0
 19 20  2  0
 20 21  1  0
 21 22  2  0
 22 23  1  0
 22 24  1  0
 24 25  2  0
 18 26  1  0
 26 27  2  0
 27  6  1  0
 14  7  1  0
 27 15  1  0
 25 19  1  0
  1 28  1  0
  1 29  1  0
  1 30  1  0
  2 31  1  0
  2 32  1  0
  4 33  1  0
  4 34  1  0
  5 35  1  0
  5 36  1  0
  8 37  1  0
 11 38  1  0
 11 39  1  0
 11 40  1  0
 12 41  1  0
 13 42  1  0
 20 43  1  0
 21 44  1  0
 24 45  1  0
 25 46  1  0
M  END
>  <UniqueID>  (14) 
14

>  <SMILES>  (14) 
CCOCCn1c2cc(OC)ccc2c2nnc(-c3ccc(Cl)cc3)nc21

>  <Energy>  (14) 
94.57874223443618

>  <Genealogy>  (14) 
CCOCCn1c2cc(OC)ccc2c2nnc(-c3ccc(Cl)cc3)nc21 (3D coordinates assigned)
CCOCCn1c2cc(OC)ccc2c2nnc(-c3ccc(Cl)cc3)nc21 (optimized conformer: 94.57874223443618 kcal/mol)

>  <smiles>  (14) 
CCOCCn1c2cc(OC)ccc2c2nnc(-c3ccc(Cl)cc3)nc21

>  <score_type>  (14) 
oracle

>  <origin>  (14) 
adg

>  <m_score__min__energy>  (14) 
-7.0300000000000002

>  <m_primary>  (14) 
energy

$$$$
14:0
     RDKit          3D

 44 46  0  0  0  0  0  0  0  0999 V2000
   59.9910   31.0110   47.3700 C   0  0  0  0  0  0  0  0  0  0  0  0
   59.0310   32.1240   47.7820 C   0  0  0  0  0  0  0  0  0  0  0  0
   59.3080   33.3630   47.0470 N   0  0  0  0  0  0  0  0  0  0  0  0
   60.4590   34.0810   46.9860 C   0  0  0  0  0  0  0  0  0  0  0  0
   61.6820   33.8390   47.7810 C   0  0  0  0  0  0  0  0  0  0  0  0
   61.7480   34.1830   49.1400 C   0  0  0  0  0  0  0  0  0  0  0  0
   62.9300   33.9610   49.8510 C   0  0  0  0  0  0  0  0  0  0  0  0
   64.0140   33.4300   49.2250 N   0  0  0  0  0  0  0  0  0  0  0  0
   63.9850   33.1060   47.9050 C   0  0  0  0  0  0  0  0  0  0  0  0
   62.8230   33.3120   47.1580 C   0  0  0  0  0  0  0  0  0  0  0  0
   60.3890   35.0450   46.0430 N   0  0  0  0  0  0  0  0  0  0  0  0
   59.1850   34.9540   45.5040 N   0  0  0  0  0  0  0  0  0  0  0  0
   58.5350   33.9440   46.1050 C   0  0  0  0  0  0  0  0  0  0  0  0
   56.8810   33.4100   45.6470 S   0  0  0  0  0  0  0  0  0  0  0  0
   57.4140   32.5350   44.1330 C   0  0  0  0  0  0  0  0  0  0  0  0
   58.4060   31.4160   44.4790 C   0  0  0  0  0  0  0  0  0  0  0  0
   58.0240   30.0940   43.9370 N   0  0  0  0  0  0  0  0  0  0  0  0
   56.8070   30.0930   43.0970 C   0  0  0  0  0  0  0  0  0  0  0  0
   55.5190   29.7710   43.8930 C   0  0  0  0  0  0  0  0  0  0  0  0
   55.7670   29.3780   45.2280 O   0  0  0  0  0  0  0  0  0  0  0  0
   56.7540   28.3730   45.2480 C   0  0  0  0  0  0  0  0  0  0  0  0
   58.1240   28.9720   44.8980 C   0  0  0  0  0  0  0  0  0  0  0  0
   60.4044   30.5317   48.2696 H   0  0  0  0  0  0  0  0  0  0  0  0
   59.4501   30.2630   46.7717 H   0  0  0  0  0  0  0  0  0  0  0  0
   60.8103   31.4362   46.7717 H   0  0  0  0  0  0  0  0  0  0  0  0
   57.9997   31.8046   47.5710 H   0  0  0  0  0  0  0  0  0  0  0  0
   59.1647   32.3191   48.8563 H   0  0  0  0  0  0  0  0  0  0  0  0
   60.8746   34.6246   49.6422 H   0  0  0  0  0  0  0  0  0  0  0  0
   62.9838   34.2163   50.9196 H   0  0  0  0  0  0  0  0  0  0  0  0
   64.8784   32.6808   47.4244 H   0  0  0  0  0  0  0  0  0  0  0  0
   62.8027   33.0623   46.0869 H   0  0  0  0  0  0  0  0  0  0  0  0
   58.8330   35.5560   44.7280 H   0  0  0  0  0  0  0  0  0  0  0  0
   56.5338   32.0982   43.6386 H   0  0  0  0  0  0  0  0  0  0  0  0
   57.9083   33.2535   43.4626 H   0  0  0  0  0  0  0  0  0  0  0  0
   59.3911   31.6869   44.0714 H   0  0  0  0  0  0  0  0  0  0  0  0
   58.4163   31.3232   45.5750 H   0  0  0  0  0  0  0  0  0  0  0  0
   56.6965   31.0874   42.6399 H   0  0  0  0  0  0  0  0  0  0  0  0
   56.9311   29.3034   42.3413 H   0  0  0  0  0  0  0  0  0  0  0  0
   54.8838   30.6689   43.9063 H   0  0  0  0  0  0  0  0  0  0  0  0
   55.0305   28.9231   43.3906 H   0  0  0  0  0  0  0  0  0  0  0  0
   56.7981   27.9262   46.2522 H   0  0  0  0  0  0  0  0  0  0  0  0
   56.4980   27.6020   44.5063 H   0  0  0  0  0  0  0  0  0  0  0  0
   58.5945   29.3397   45.8218 H   0  0  0  0  0  0  0  0  0  0  0  0
   58.7240   28.1802   44.4257 H   0  0  0  0  0  0  0  0  0  0  0  0
  1  2  1  0
  2  3  1  0
  3  4  1  0
  4  5  1  0
  5  6  2  0
  6  7  1  0
  7  8  2  0
  8  9  1  0
  9 10  2  0
  4 11  2  0
 11 12  1  0
 12 13  2  0
 13 14  1  0
 14 15  1  0
 15 16  1  0
 16 17  1  0
 17 18  1  0
 18 19  1  0
 19 20  1  0
 20 21  1  0
 21 22  1  0
 13  3  1  0
 22 17  1  0
 10  5  1  0
  1 23  1  0
  1 24  1  0
  1 25  1  0
  2 26  1  0
  2 27  1  0
  6 28  1  0
  7 29  1  0
  9 30  1  0
 10 31  1  0
 12 32  1  0
 15 33  1  0
 15 34  1  0
 16 35  1  0
 16 36  1  0
 18 37  1  0
 18 38  1  0
 19 39  1  0
 19 40  1  0
 21 41  1  0
 21 42  1  0
 22 43  1  0
 22 44  1  0
M  CHG  1  12   1
M  END
>  <UniqueID>  (15) 
15

>  <SMILES>  (15) 
CCn1c(-c2ccncc2)n[nH+]c1SCCN1CCOCC1

>  <Energy>  (15) 
93.74725708194393

>  <Genealogy>  (15) 
CCn1c(-c2ccncc2)n[nH+]c1SCCN1CCOCC1 (protonated)
CCn1c(-c2ccncc2)n[nH+]c1SCCN1CCOCC1 (3D coordinates assigned)
CCn1c(-c2ccncc2)n[nH+]c1SCCN1CCOCC1 (nonaromatic ring conformer: 93.74725708194393 kcal/mol)

>  <smiles>  (15) 
CCn1c(SCCN2CCOCC2)nnc1-c1ccncc1

>  <score_type>  (15) 
oracle

>  <origin>  (15) 
adg

>  <m_score__min__energy>  (15) 
-6.0499999999999998

>  <m_primary>  (15) 
energy

$$$$
15:0
     RDKit          3D

 38 39  0  0  0  0  0  0  0  0999 V2000
   59.2900   33.0620   48.6440 C   0  0  0  0  0  0  0  0  0  0  0  0
   59.6710   34.5220   48.4160 C   0  0  0  0  0  0  0  0  0  0  0  0
   60.3800   34.6840   47.1260 N   0  0  0  0  0  0  0  0  0  0  0  0
   61.2480   33.5290   46.8280 C   0  0  0  0  0  0  0  0  0  0  0  0
   59.4480   34.9600   46.0100 C   0  0  0  0  0  0  0  0  0  0  0  0
   58.9100   33.7290   45.4000 C   0  0  0  0  0  0  0  0  0  0  0  0
   58.4720   32.7190   44.9110 C   0  0  0  0  0  0  0  0  0  0  0  0
   57.9560   31.5130   44.3200 C   0  0  0  0  0  0  0  0  0  0  0  0
   57.1300   31.5820   43.1920 C   0  0  0  0  0  0  0  0  0  0  0  0
   56.6340   30.4090   42.6180 C   0  0  0  0  0  0  0  0  0  0  0  0
   56.9590   29.1660   43.1680 C   0  0  0  0  0  0  0  0  0  0  0  0
   57.7870   29.0820   44.3020 C   0  0  0  0  0  0  0  0  0  0  0  0
   58.1330   27.7650   44.8940 C   0  0  0  0  0  0  0  0  0  0  0  0
   59.1310   27.6670   45.8800 C   0  0  0  0  0  0  0  0  0  0  0  0
   59.4360   26.4230   46.4300 C   0  0  0  0  0  0  0  0  0  0  0  0
   58.7530   25.2860   46.0010 C   0  0  0  0  0  0  0  0  0  0  0  0
   57.7680   25.4110   45.0210 C   0  0  0  0  0  0  0  0  0  0  0  0
   56.8270   23.8600   44.4180 Br  0  0  0  0  0  0  0  0  0  0  0  0
   57.4790   26.6330   44.4910 N   0  0  0  0  0  0  0  0  0  0  0  0
   58.2830   30.2680   44.8740 C   0  0  0  0  0  0  0  0  0  0  0  0
   59.2376   32.8611   49.7242 H   0  0  0  0  0  0  0  0  0  0  0  0
   58.3099   32.8630   48.1861 H   0  0  0  0  0  0  0  0  0  0  0  0
   60.0479   32.4094   48.1861 H   0  0  0  0  0  0  0  0  0  0  0  0
   58.7582   35.1357   48.4056 H   0  0  0  0  0  0  0  0  0  0  0  0
   60.3388   34.8437   49.2288 H   0  0  0  0  0  0  0  0  0  0  0  0
   61.5896   33.0744   47.7696 H   0  0  0  0  0  0  0  0  0  0  0  0
   60.6828   32.7861   46.2461 H   0  0  0  0  0  0  0  0  0  0  0  0
   62.1188   33.8652   46.2461 H   0  0  0  0  0  0  0  0  0  0  0  0
   58.6085   35.5592   46.3925 H   0  0  0  0  0  0  0  0  0  0  0  0
   60.0105   35.4977   45.2325 H   0  0  0  0  0  0  0  0  0  0  0  0
   56.8717   32.5592   42.7579 H   0  0  0  0  0  0  0  0  0  0  0  0
   55.9860   30.4638   41.7308 H   0  0  0  0  0  0  0  0  0  0  0  0
   56.5644   28.2466   42.7108 H   0  0  0  0  0  0  0  0  0  0  0  0
   59.6678   28.5667   46.2152 H   0  0  0  0  0  0  0  0  0  0  0  0
   60.2151   26.3386   47.2020 H   0  0  0  0  0  0  0  0  0  0  0  0
   58.9881   24.3010   46.4305 H   0  0  0  0  0  0  0  0  0  0  0  0
   56.7500   26.6880   43.7440 H   0  0  0  0  0  0  0  0  0  0  0  0
   58.9313   30.2176   45.7613 H   0  0  0  0  0  0  0  0  0  0  0  0
  1  2  1  0
  2  3  1  0
  3  4  1  0
  3  5  1  0
  5  6  1  0
  6  7  3  0
  7  8  1  0
  8  9  2  0
  9 10  1  0
 10 11  2  0
 11 12  1  0
 12 13  1  0
 13 14  2  0
 14 15  1  0
 15 16  2  0
 16 17  1  0
 17 18  1  0
 17 19  2  0
 12 20  2  0
 20  8  1  0
 19 13  1  0
  1 21  1  0
  1 22  1  0
  1 23  1  0
  2 24  1  0
  2 25  1  0
  4 26  1  0
  4 27  1  0
  4 28  1  0
  5 29  1  0
  5 30  1  0
  9 31  1  0
 10 32  1  0
 11 33  1  0
 14 34  1  0
 15 35  1  0
 16 36  1  0
 19 37  1  0
 20 38  1  0
M  CHG  1  19   1
M  END
>  <UniqueID>  (16) 
16

>  <SMILES>  (16) 
CCN(C)CC#Cc1cccc(-c2cccc(Br)[nH+]2)c1

>  <Energy>  (16) 
39.43986891818943

>  <Genealogy>  (16) 
CCN(C)CC#Cc1cccc(-c2cccc(Br)[nH+]2)c1 (protonated)
CCN(C)CC#Cc1cccc(-c2cccc(Br)[nH+]2)c1 (3D coordinates assigned)
CCN(C)CC#Cc1cccc(-c2cccc(Br)[nH+]2)c1 (optimized conformer: 39.43986891818943 kcal/mol)

>  <smiles>  (16) 
CCN(C)CC#Cc1cccc(-c2cccc(Br)n2)c1

>  <score_type>  (16) 
oracle

>  <origin>  (16) 
adg

>  <m_score__min__energy>  (16) 
-5.71

>  <m_primary>  (16) 
energy

$$$$
16:0
     RDKit          3D

 50 51  0  0  0  0  0  0  0  0999 V2000
   57.7440   28.5730   44.2520 C   0  0  0  0  0  0  0  0  0  0  0  0
   57.3970   29.5160   45.3990 C   0  0  0  0  0  0  0  0  0  0  0  0
   56.9740   30.8250   44.8480 N   0  0  0  0  0  0  0  0  0  0  0  0
   56.9480   30.8330   43.3630 C   0  0  0  0  0  0  0  0  0  0  0  0
   57.7770   31.9560   42.7240 C   0  0  0  0  0  0  0  0  0  0  0  0
   57.6800   31.9710   45.4670 C   0  0  0  0  0  0  0  0  0  0  0  0
   58.5140   31.5330   46.6750 C   0  0  0  0  0  0  0  0  0  0  0  0
   59.3110   32.6160   47.1200 O   0  0  0  0  0  0  0  0  0  0  0  0
   59.6910   33.4420   46.0390 C   0  0  0  0  0  0  0  0  0  0  0  0
   60.6270   34.5380   46.5480 C   0  0  0  0  0  0  0  0  0  0  0  0
   61.6800   33.9670   47.4000 N   0  0  0  0  0  0  0  0  0  0  0  0
   62.9050   33.4350   46.7490 C   0  0  0  0  0  0  0  0  0  0  0  0
   64.0220   33.2590   47.6910 N   0  0  0  0  0  0  0  0  0  0  0  0
   63.7600   33.0750   49.0780 C   0  0  0  0  0  0  0  0  0  0  0  0
   64.6200   32.8080   50.1230 C   0  0  0  0  0  0  0  0  0  0  0  0
   66.1020   32.6270   50.0470 C   0  0  0  0  0  0  0  0  0  0  0  0
   63.9110   32.8930   51.2720 N   0  0  0  0  0  0  0  0  0  0  0  0
   62.6490   33.1910   50.9770 N   0  0  0  0  0  0  0  0  0  0  0  0
   61.6100   33.4480   51.9690 C   0  0  0  0  0  0  0  0  0  0  0  0
   62.5480   33.3080   49.6360 C   0  0  0  0  0  0  0  0  0  0  0  0
   61.4400   33.7840   48.8150 C   0  0  0  0  0  0  0  0  0  0  0  0
   60.3190   34.0480   49.3280 O   0  0  0  0  0  0  0  0  0  0  0  0
   58.0968   27.6142   44.6596 H   0  0  0  0  0  0  0  0  0  0  0  0
   56.8499   28.4021   43.6345 H   0  0  0  0  0  0  0  0  0  0  0  0
   58.5356   29.0225   43.6345 H   0  0  0  0  0  0  0  0  0  0  0  0
   56.5774   29.0855   45.9931 H   0  0  0  0  0  0  0  0  0  0  0  0
   58.2795   29.6549   46.0408 H   0  0  0  0  0  0  0  0  0  0  0  0
   57.3401   29.8692   43.0061 H   0  0  0  0  0  0  0  0  0  0  0  0
   55.9027   31.0046   43.0666 H   0  0  0  0  0  0  0  0  0  0  0  0
   58.2314   32.5715   43.5144 H   0  0  0  0  0  0  0  0  0  0  0  0
   58.5694   31.5172   42.0999 H   0  0  0  0  0  0  0  0  0  0  0  0
   57.1242   32.5840   42.0999 H   0  0  0  0  0  0  0  0  0  0  0  0
   58.3462   32.4261   44.7193 H   0  0  0  0  0  0  0  0  0  0  0  0
   56.9262   32.6937   45.8128 H   0  0  0  0  0  0  0  0  0  0  0  0
   57.8434   31.2142   47.4866 H   0  0  0  0  0  0  0  0  0  0  0  0
   59.1652   30.6953   46.3849 H   0  0  0  0  0  0  0  0  0  0  0  0
   60.2099   32.8385   45.2797 H   0  0  0  0  0  0  0  0  0  0  0  0
   58.7963   33.8990   45.5911 H   0  0  0  0  0  0  0  0  0  0  0  0
   61.0921   35.0435   45.6889 H   0  0  0  0  0  0  0  0  0  0  0  0
   60.0417   35.2556   47.1417 H   0  0  0  0  0  0  0  0  0  0  0  0
   62.6682   32.4597   46.2987 H   0  0  0  0  0  0  0  0  0  0  0  0
   63.2225   34.1679   45.9927 H   0  0  0  0  0  0  0  0  0  0  0  0
   64.9860   33.1030   47.3190 H   0  0  0  0  0  0  0  0  0  0  0  0
   66.5178   32.5762   51.0641 H   0  0  0  0  0  0  0  0  0  0  0  0
   66.3304   31.6943   49.5105 H   0  0  0  0  0  0  0  0  0  0  0  0
   66.5482   33.4773   49.5105 H   0  0  0  0  0  0  0  0  0  0  0  0
   64.2900   32.7910   52.2410 H   0  0  0  0  0  0  0  0  0  0  0  0
   62.0333   33.3433   52.9789 H   0  0  0  0  0  0  0  0  0  0  0  0
   61.2224   34.4691   51.8379 H   0  0  0  0  0  0  0  0  0  0  0  0
   60.7911   32.7253   51.8379 H   0  0  0  0  0  0  0  0  0  0  0  0
  1  2  1  0
  2  3  1  0
  3  4  1  0
  4  5  1  0
  3  6  1  0
  6  7  1  0
  7  8  1  0
  8  9  1  0
  9 10  1  0
 10 11  1  0
 11 12  1  0
 12 13  1  0
 13 14  1  0
 14 15  1  0
 15 16  1  0
 15 17  2  0
 17 18  1  0
 18 19  1  0
 18 20  1  0
 20 21  1  0
 21 22  2  0
 21 11  1  0
 20 14  2  0
  1 23  1  0
  1 24  1  0
  1 25  1  0
  2 26  1  0
  2 27  1  0
  4 28  1  0
  4 29  1  0
  5 30  1  0
  5 31  1  0
  5 32  1  0
  6 33  1  0
  6 34  1  0
  7 35  1  0
  7 36  1  0
  9 37  1  0
  9 38  1  0
 10 39  1  0
 10 40  1  0
 12 41  1  0
 12 42  1  0
 13 43  1  0
 16 44  1  0
 16 45  1  0
 16 46  1  0
 17 47  1  0
 19 48  1  0
 19 49  1  0
 19 50  1  0
M  CHG  1  17   1
M  END
>  <UniqueID>  (17) 
17

>  <SMILES>  (17) 
CCN(CC)CCOCCN1CNc2c(C)[nH+]n(C)c2C1=O

>  <Energy>  (17) 
85.74054123595444

>  <Genealogy>  (17) 
CCN(CC)CCOCCN1CNc2c(C)[nH+]n(C)c2C1=O (protonated)
CCN(CC)CCOCCN1CNc2c(C)[nH+]n(C)c2C1=O (3D coordinates assigned)
CCN(CC)CCOCCN1CNc2c(C)[nH+]n(C)c2C1=O (nonaromatic ring conformer: 85.74054123595444 kcal/mol)

>  <smiles>  (17) 
CCN(CC)CCOCCN1CNc2c(C)nn(C)c2C1=O

>  <score_type>  (17) 
oracle

>  <origin>  (17) 
adg

>  <m_score__min__energy>  (17) 
-5

>  <m_primary>  (17) 
energy

$$$$
17:0
     RDKit          3D

 49 51  0  0  0  0  0  0  0  0999 V2000
   60.2350   32.5700   52.8350 C   0  0  0  0  0  0  0  0  0  0  0  0
   60.3220   33.0130   51.4050 C   0  0  0  0  0  0  0  0  0  0  0  0
   59.1880   33.0400   50.5880 C   0  0  0  0  0  0  0  0  0  0  0  0
   59.2890   33.4450   49.2940 N   0  0  0  0  0  0  0  0  0  0  0  0
   60.4750   33.8000   48.7260 C   0  0  0  0  0  0  0  0  0  0  0  0
   61.6450   33.7570   49.5120 C   0  0  0  0  0  0  0  0  0  0  0  0
   61.5540   33.3800   50.8540 C   0  0  0  0  0  0  0  0  0  0  0  0
   62.8980   34.0890   48.9900 O   0  0  0  0  0  0  0  0  0  0  0  0
   63.4850   33.3880   47.8980 C   0  0  0  0  0  0  0  0  0  0  0  0
   62.9210   33.8490   46.5550 C   0  0  0  0  0  0  0  0  0  0  0  0
   61.4360   33.5020   46.3850 C   0  0  0  0  0  0  0  0  0  0  0  0
   60.5150   34.3360   47.3040 C   0  0  1  0  0  0  0  0  0  0  0  0
   59.1760   34.5010   46.6960 N   0  0  0  0  0  0  0  0  0  0  0  0
   59.1040   34.3520   45.2310 C   0  0  0  0  0  0  0  0  0  0  0  0
   57.6750   33.9630   44.8460 C   0  0  0  0  0  0  0  0  0  0  0  0
   57.3030   32.5470   45.3130 C   0  0  0  0  0  0  0  0  0  0  0  0
   58.0750   31.5030   44.5940 N   0  0  0  0  0  0  0  0  0  0  0  0
   58.3560   30.3030   45.4210 C   0  0  0  0  0  0  0  0  0  0  0  0
   57.2920   29.2010   45.2560 C   0  0  0  0  0  0  0  0  0  0  0  0
   56.0550   29.7580   44.8670 O   0  0  0  0  0  0  0  0  0  0  0  0
   56.1510   30.2750   43.5490 C   0  0  0  0  0  0  0  0  0  0  0  0
   57.4280   31.1230   43.3190 C   0  0  0  0  0  0  0  0  0  0  0  0
   60.4043   33.4321   53.4969 H   0  0  0  0  0  0  0  0  0  0  0  0
   59.2371   32.1495   53.0285 H   0  0  0  0  0  0  0  0  0  0  0  0
   60.9998   31.8034   53.0285 H   0  0  0  0  0  0  0  0  0  0  0  0
   58.2123   32.7331   50.9927 H   0  0  0  0  0  0  0  0  0  0  0  0
   62.4574   33.3717   51.4816 H   0  0  0  0  0  0  0  0  0  0  0  0
   64.5711   33.5624   47.9062 H   0  0  0  0  0  0  0  0  0  0  0  0
   63.2538   32.3190   48.0157 H   0  0  0  0  0  0  0  0  0  0  0  0
   63.0381   34.9402   46.4802 H   0  0  0  0  0  0  0  0  0  0  0  0
   63.4771   33.3247   45.7639 H   0  0  0  0  0  0  0  0  0  0  0  0
   61.1496   33.6875   45.3393 H   0  0  0  0  0  0  0  0  0  0  0  0
   61.3099   32.4450   46.6624 H   0  0  0  0  0  0  0  0  0  0  0  0
   60.9475   35.3433   47.3945 H   0  0  0  0  0  0  0  0  0  0  0  0
   58.4880   33.8600   47.1580 H   0  0  0  0  0  0  0  0  0  0  0  0
   59.3710   35.3039   44.7487 H   0  0  0  0  0  0  0  0  0  0  0  0
   59.8063   33.5732   44.8990 H   0  0  0  0  0  0  0  0  0  0  0  0
   56.9786   34.6800   45.3053 H   0  0  0  0  0  0  0  0  0  0  0  0
   57.6088   33.9804   43.7481 H   0  0  0  0  0  0  0  0  0  0  0  0
   57.5096   32.4627   46.3901 H   0  0  0  0  0  0  0  0  0  0  0  0
   56.2359   32.3882   45.0986 H   0  0  0  0  0  0  0  0  0  0  0  0
   59.3338   29.8943   45.1263 H   0  0  0  0  0  0  0  0  0  0  0  0
   58.3459   30.6177   46.4750 H   0  0  0  0  0  0  0  0  0  0  0  0
   57.6255   28.4889   44.4868 H   0  0  0  0  0  0  0  0  0  0  0  0
   57.1617   28.6872   46.2199 H   0  0  0  0  0  0  0  0  0  0  0  0
   56.1587   29.4322   42.8422 H   0  0  0  0  0  0  0  0  0  0  0  0
   55.2860   30.9364   43.3927 H   0  0  0  0  0  0  0  0  0  0  0  0
   58.1405   30.5375   42.7193 H   0  0  0  0  0  0  0  0  0  0  0  0
   57.1349   32.0459   42.7971 H   0  0  0  0  0  0  0  0  0  0  0  0
  1  2  1  0
  2  3  2  0
  3  4  1  0
  4  5  2  0
  5  6  1  0
  6  7  2  0
  6  8  1  0
  8  9  1  0
  9 10  1  0
 10 11  1  0
 11 12  1  0
 12 13  1  0
 13 14  1  0
 14 15  1  0
 15 16  1  0
 16 17  1  0
 17 18  1  0
 18 19  1  0
 19 20  1  0
 20 21  1  0
 21 22  1  0
  7  2  1  0
 22 17  1  0
 12  5  1  0
  1 23  1  0
  1 24  1  0
  1 25  1  0
  3 26  1  0
  7 27  1  0
  9 28  1  0
  9 29  1  0
 10 30  1  0
 10 31  1  0
 11 32  1  0
 11 33  1  0
 12 34  1  1
 13 35  1  0
 14 36  1  0
 14 37  1  0
 15 38  1  0
 15 39  1  0
 16 40  1  0
 16 41  1  0
 18 42  1  0
 18 43  1  0
 19 44  1  0
 19 45  1  0
 21 46  1  0
 21 47  1  0
 22 48  1  0
 22 49  1  0
M  END
>  <UniqueID>  (18) 
18

>  <SMILES>  (18) 
Cc1cnc2c(c1)OCCC[C@H]2NCCCN1CCOCC1

>  <Energy>  (18) 
69.56879799003532

>  <Genealogy>  (18) 
Cc1cnc2c(c1)OCCC[C@H]2NCCCN1CCOCC1 (chirality)
Cc1cnc2c(c1)OCCC[C@H]2NCCCN1CCOCC1 (3D coordinates assigned)
Cc1cnc2c(c1)OCCC[C@H]2NCCCN1CCOCC1 (nonaromatic ring conformer: 69.56879799003532 kcal/mol)

>  <smiles>  (18) 
Cc1cnc2c(c1)OCCCC2NCCCN1CCOCC1

>  <score_type>  (18) 
oracle

>  <origin>  (18) 
adg

>  <m_score__min__energy>  (18) 
-5.6600000000000001

>  <m_primary>  (18) 
energy

$$$$
18:0
     RDKit          3D

 42 44  0  0  0  0  0  0  0  0999 V2000
   60.9430   34.1850   48.4280 C   0  0  0  0  0  0  0  0  0  0  0  0
   61.4510   33.7780   47.0470 C   0  0  0  0  0  0  0  0  0  0  0  0
   62.2150   32.5140   47.1300 N   0  0  0  0  0  0  0  0  0  0  0  0
   63.6600   32.7910   47.0500 C   0  0  0  0  0  0  0  0  0  0  0  0
   61.8960   31.7690   48.3710 C   0  0  0  0  0  0  0  0  0  0  0  0
   61.1160   30.4860   48.0330 C   0  0  0  0  0  0  0  0  0  0  0  0
   60.8460   30.3630   46.5910 N   0  0  0  0  0  0  0  0  0  0  0  0
   59.4850   29.9600   46.3310 C   0  0  0  0  0  0  0  0  0  0  0  0
   58.4090   30.7600   45.9150 C   0  0  0  0  0  0  0  0  0  0  0  0
   58.3580   32.2250   45.7690 C   0  0  0  0  0  0  0  0  0  0  0  0
   58.2000   33.1810   46.7680 C   0  0  0  0  0  0  0  0  0  0  0  0
   58.1470   34.4910   46.2770 C   0  0  0  0  0  0  0  0  0  0  0  0
   58.2480   34.5760   44.8970 C   0  0  0  0  0  0  0  0  0  0  0  0
   58.3970   33.0180   44.2860 S   0  0  0  0  0  0  0  0  0  0  0  0
   57.3810   29.9910   45.6030 O   0  0  0  0  0  0  0  0  0  0  0  0
   57.7320   28.7410   45.7920 C   0  0  0  0  0  0  0  0  0  0  0  0
   56.9600   27.6030   45.5720 C   0  0  0  0  0  0  0  0  0  0  0  0
   57.5530   26.3500   45.8090 C   0  0  0  0  0  0  0  0  0  0  0  0
   58.8930   26.2640   46.2500 C   0  0  0  0  0  0  0  0  0  0  0  0
   59.6490   27.4310   46.4650 C   0  0  0  0  0  0  0  0  0  0  0  0
   59.0270   28.6600   46.2350 C   0  0  0  0  0  0  0  0  0  0  0  0
   61.5531   33.6962   49.2018 H   0  0  0  0  0  0  0  0  0  0  0  0
   61.0165   35.2770   48.5386 H   0  0  0  0  0  0  0  0  0  0  0  0
   59.8934   33.8751   48.5386 H   0  0  0  0  0  0  0  0  0  0  0  0
   60.5937   33.6396   46.3718 H   0  0  0  0  0  0  0  0  0  0  0  0
   62.1113   34.5692   46.6625 H   0  0  0  0  0  0  0  0  0  0  0  0
   64.0749   32.8705   48.0657 H   0  0  0  0  0  0  0  0  0  0  0  0
   64.1610   31.9725   46.5123 H   0  0  0  0  0  0  0  0  0  0  0  0
   63.8228   33.7367   46.5123 H   0  0  0  0  0  0  0  0  0  0  0  0
   62.8310   31.5014   48.8850 H   0  0  0  0  0  0  0  0  0  0  0  0
   61.2784   32.4041   49.0231 H   0  0  0  0  0  0  0  0  0  0  0  0
   61.7061   29.6166   48.3583 H   0  0  0  0  0  0  0  0  0  0  0  0
   60.1488   30.5314   48.5550 H   0  0  0  0  0  0  0  0  0  0  0  0
   61.0520   31.2710   46.1150 H   0  0  0  0  0  0  0  0  0  0  0  0
   61.4970   29.6640   46.1750 H   0  0  0  0  0  0  0  0  0  0  0  0
   58.1243   32.9321   47.8368 H   0  0  0  0  0  0  0  0  0  0  0  0
   58.0355   35.3718   46.9264 H   0  0  0  0  0  0  0  0  0  0  0  0
   58.2332   35.5028   44.3047 H   0  0  0  0  0  0  0  0  0  0  0  0
   55.9195   27.6817   45.2239 H   0  0  0  0  0  0  0  0  0  0  0  0
   56.9700   25.4308   45.6501 H   0  0  0  0  0  0  0  0  0  0  0  0
   59.3479   25.2781   46.4263 H   0  0  0  0  0  0  0  0  0  0  0  0
   60.6945   27.3771   46.8028 H   0  0  0  0  0  0  0  0  0  0  0  0
  1  2  1  0
  2  3  1  0
  3  4  1  0
  3  5  1  0
  5  6  1  0
  6  7  1  0
  7  8  1  0
  8  9  2  0
  9 10  1  0
 10 11  2  0
 11 12  1  0
 12 13  2  0
 13 14  1  0
  9 15  1  0
 15 16  1  0
 16 17  2  0
 17 18  1  0
 18 19  2  0
 19 20  1  0
 20 21  2  0
 21  8  1  0
 14 10  1  0
 21 16  1  0
  1 22  1  0
  1 23  1  0
  1 24  1  0
  2 25  1  0
  2 26  1  0
  4 27  1  0
  4 28  1  0
  4 29  1  0
  5 30  1  0
  5 31  1  0
  6 32  1  0
  6 33  1  0
  7 34  1  0
  7 35  1  0
 11 36  1  0
 12 37  1  0
 13 38  1  0
 17 39  1  0
 18 40  1  0
 19 41  1  0
 20 42  1  0
M  CHG  1   7   1
M  END
>  <UniqueID>  (19) 
19

>  <SMILES>  (19) 
CCN(C)CC[NH2+]c1c(-c2cccs2)oc2ccccc12

>  <Energy>  (19) 
106.55910820574852

>  <Genealogy>  (19) 
CCN(C)CC[NH2+]c1c(-c2cccs2)oc2ccccc12 (protonated)
CCN(C)CC[NH2+]c1c(-c2cccs2)oc2ccccc12 (3D coordinates assigned)
CCN(C)CC[NH2+]c1c(-c2cccs2)oc2ccccc12 (optimized conformer: 106.55910820574852 kcal/mol)

>  <smiles>  (19) 
CCN(C)CCNc1c(-c2cccs2)oc2ccccc12

>  <score_type>  (19) 
oracle

>  <origin>  (19) 
adg

>  <m_score__min__energy>  (19) 
-4.7300000000000004

>  <m_primary>  (19) 
energy

$$$$
19:0
     RDKit          3D

 66 69  0  0  0  0  0  0  0  0999 V2000
   50.2230   25.2070   43.4200 C   0  0  0  0  0  0  0  0  0  0  0  0
   51.0100   24.1400   43.5860 C   0  0  0  0  0  0  0  0  0  0  0  0
   50.9990   23.3640   44.8730 C   0  0  0  0  0  0  0  0  0  0  0  0
   52.1970   22.6010   45.0100 O   0  0  0  0  0  0  0  0  0  0  0  0
   53.3780   23.0460   45.6300 C   0  0  0  0  0  0  0  0  0  0  0  0
   54.3250   23.8450   44.9580 C   0  0  0  0  0  0  0  0  0  0  0  0
   55.4850   24.2790   45.6140 C   0  0  0  0  0  0  0  0  0  0  0  0
   55.7170   23.8870   46.9430 C   0  0  0  0  0  0  0  0  0  0  0  0
   54.7810   23.0980   47.6150 C   0  0  0  0  0  0  0  0  0  0  0  0
   53.6060   22.6740   46.9650 C   0  0  0  0  0  0  0  0  0  0  0  0
   52.6420   21.8830   47.6100 O   0  0  0  0  0  0  0  0  0  0  0  0
   51.3690   22.3520   48.0400 C   0  0  0  0  0  0  0  0  0  0  0  0
   56.8760   24.3030   47.6090 O   0  0  0  0  0  0  0  0  0  0  0  0
   57.9510   24.9510   46.9320 C   0  0  0  0  0  0  0  0  0  0  0  0
   57.4070   25.9030   45.8520 C   0  0  1  0  0  0  0  0  0  0  0  0
   58.5700   26.6000   45.1150 C   0  0  0  0  0  0  0  0  0  0  0  0
   58.3720   28.0930   45.0370 C   0  0  0  0  0  0  0  0  0  0  0  0
   59.4070   28.9690   45.3960 C   0  0  0  0  0  0  0  0  0  0  0  0
   59.2280   30.3510   45.2940 C   0  0  0  0  0  0  0  0  0  0  0  0
   58.0180   30.8820   44.8340 C   0  0  0  0  0  0  0  0  0  0  0  0
   57.8950   32.2780   44.7570 O   0  0  0  0  0  0  0  0  0  0  0  0
   57.0030   33.0760   45.5360 C   0  0  0  0  0  0  0  0  0  0  0  0
   57.7750   33.8300   46.6340 C   0  0  0  0  0  0  0  0  0  0  0  0
   59.1120   33.2420   46.8970 N   0  0  0  0  0  0  0  0  0  0  0  0
   59.3320   33.0760   48.3600 C   0  0  0  0  0  0  0  0  0  0  0  0
   60.1920   34.2100   48.9420 C   0  0  0  0  0  0  0  0  0  0  0  0
   61.4860   34.2890   48.3600 O   0  0  0  0  0  0  0  0  0  0  0  0
   61.5280   33.8710   47.0010 C   0  0  0  0  0  0  0  0  0  0  0  0
   60.1900   34.0400   46.2590 C   0  0  0  0  0  0  0  0  0  0  0  0
   56.9820   30.0010   44.4610 C   0  0  0  0  0  0  0  0  0  0  0  0
   57.1610   28.6190   44.5620 C   0  0  0  0  0  0  0  0  0  0  0  0
   56.5050   25.1110   44.8790 C   0  0  0  0  0  0  0  0  0  0  0  0
   50.2437   25.7635   42.4714 H   0  0  0  0  0  0  0  0  0  0  0  0
   49.5544   25.5289   44.2320 H   0  0  0  0  0  0  0  0  0  0  0  0
   51.6756   23.8250   42.7688 H   0  0  0  0  0  0  0  0  0  0  0  0
   50.9183   24.0649   45.7170 H   0  0  0  0  0  0  0  0  0  0  0  0
   50.1400   22.6769   44.8653 H   0  0  0  0  0  0  0  0  0  0  0  0
   54.1521   24.1303   43.9098 H   0  0  0  0  0  0  0  0  0  0  0  0
   54.9629   22.8056   48.6597 H   0  0  0  0  0  0  0  0  0  0  0  0
   51.3351   22.3645   49.1394 H   0  0  0  0  0  0  0  0  0  0  0  0
   51.2045   23.3698   47.6565 H   0  0  0  0  0  0  0  0  0  0  0  0
   50.5835   21.6842   47.6565 H   0  0  0  0  0  0  0  0  0  0  0  0
   58.5425   25.5271   47.6587 H   0  0  0  0  0  0  0  0  0  0  0  0
   58.5820   24.1888   46.4515 H   0  0  0  0  0  0  0  0  0  0  0  0
   56.8002   26.6908   46.3222 H   0  0  0  0  0  0  0  0  0  0  0  0
   59.5068   26.3931   45.6531 H   0  0  0  0  0  0  0  0  0  0  0  0
   58.6073   26.2070   44.0883 H   0  0  0  0  0  0  0  0  0  0  0  0
   60.3639   28.5662   45.7595 H   0  0  0  0  0  0  0  0  0  0  0  0
   60.0467   31.0284   45.5782 H   0  0  0  0  0  0  0  0  0  0  0  0
   56.5019   33.8037   44.8807 H   0  0  0  0  0  0  0  0  0  0  0  0
   56.2594   32.4189   46.0106 H   0  0  0  0  0  0  0  0  0  0  0  0
   57.9057   34.8756   46.3182 H   0  0  0  0  0  0  0  0  0  0  0  0
   57.1901   33.7572   47.5628 H   0  0  0  0  0  0  0  0  0  0  0  0
   59.1250   32.2840   46.4730 H   0  0  0  0  0  0  0  0  0  0  0  0
   58.3565   33.0725   48.8683 H   0  0  0  0  0  0  0  0  0  0  0  0
   59.8652   32.1271   48.5194 H   0  0  0  0  0  0  0  0  0  0  0  0
   59.6732   35.1648   48.7709 H   0  0  0  0  0  0  0  0  0  0  0  0
   60.3286   33.9988   50.0129 H   0  0  0  0  0  0  0  0  0  0  0  0
   62.2921   34.4653   46.4785 H   0  0  0  0  0  0  0  0  0  0  0  0
   61.7605   32.7959   47.0029 H   0  0  0  0  0  0  0  0  0  0  0  0
   59.9048   35.1023   46.2727 H   0  0  0  0  0  0  0  0  0  0  0  0
   60.3194   33.6839   45.2263 H   0  0  0  0  0  0  0  0  0  0  0  0
   56.0284   30.4037   44.0888 H   0  0  0  0  0  0  0  0  0  0  0  0
   56.3478   27.9393   44.2674 H   0  0  0  0  0  0  0  0  0  0  0  0
   55.9798   25.8205   44.2227 H   0  0  0  0  0  0  0  0  0  0  0  0
   57.1442   24.4321   44.2955 H   0  0  0  0  0  0  0  0  0  0  0  0
  1  2  2  0
  2  3  1  0
  3  4  1  0
  4  5  1  0
  5  6  2  0
  6  7  1  0
  7  8  2  0
  8  9  1  0
  9 10  2  0
 10 11  1  0
 11 12  1  0
  8 13  1  0
 13 14  1  0
 14 15  1  0
 15 16  1  0
 16 17  1  0
 17 18  2  0
 18 19  1  0
 19 20  2  0
 20 21  1  0
 21 22  1  0
 22 23  1  0
 23 24  1  0
 24 25  1  0
 25 26  1  0
 26 27  1  0
 27 28  1  0
 28 29  1  0
 20 30  1  0
 30 31  2  0
 15 32  1  0
 10  5  1  0
 31 17  1  0
 32  7  1  0
 29 24  1  0
  1 33  1  0
  1 34  1  0
  2 35  1  0
  3 36  1  0
  3 37  1  0
  6 38  1  0
  9 39  1  0
 12 40  1  0
 12 41  1  0
 12 42  1  0
 14 43  1  0
 14 44  1  0
 15 45  1  1
 16 46  1  0
 16 47  1  0
 18 48  1  0
 19 49  1  0
 22 50  1  0
 22 51  1  0
 23 52  1  0
 23 53  1  0
 24 54  1  0
 25 55  1  0
 25 56  1  0
 26 57  1  0
 26 58  1  0
 28 59  1  0
 28 60  1  0
 29 61  1  0
 29 62  1  0
 30 63  1  0
 31 64  1  0
 32 65  1  0
 32 66  1  0
M  CHG  1  24   1
M  END
>  <UniqueID>  (20) 
20

>  <SMILES>  (20) 
C=CCOc1cc2c(cc1OC)OC[C@@H](Cc1ccc(OCC[NH+]3CCOCC3)cc1)C2

>  <Energy>  (20) 
77.02595816488049

>  <Genealogy>  (20) 
C=CCOc1cc2c(cc1OC)OCC(Cc1ccc(OCC[NH+]3CCOCC3)cc1)C2 (protonated)
C=CCOc1cc2c(cc1OC)OC[C@@H](Cc1ccc(OCC[NH+]3CCOCC3)cc1)C2 (chirality)
C=CCOc1cc2c(cc1OC)OC[C@@H](Cc1ccc(OCC[NH+]3CCOCC3)cc1)C2 (3D coordinates assigned)
C=CCOc1cc2c(cc1OC)OC[C@@H](Cc1ccc(OCC[NH+]3CCOCC3)cc1)C2 (nonaromatic ring conformer: 77.02595816488049 kcal/mol)

>  <smiles>  (20) 
C=CCOc1cc2c(cc1OC)OCC(Cc1ccc(OCCN3CCOCC3)cc1)C2

>  <score_type>  (20) 
oracle

>  <origin>  (20) 
adg

>  <m_score__min__energy>  (20) 
-6.2400000000000002

>  <m_primary>  (20) 
energy

$$$$
20:0
     RDKit          3D

 48 50  0  0  0  0  0  0  0  0999 V2000
   57.3930   31.9440   41.8570 C   0  0  0  0  0  0  0  0  0  0  0  0
   58.1440   32.3170   43.1300 C   0  0  0  0  0  0  0  0  0  0  0  0
   57.5180   31.9110   44.3020 N   0  0  0  0  0  0  0  0  0  0  0  0
   57.0060   32.8580   45.2060 C   0  0  0  0  0  0  0  0  0  0  0  0
   57.7850   34.1750   45.2280 C   0  0  0  0  0  0  0  0  0  0  0  0
   57.6350   30.3020   44.8230 S   0  0  0  0  0  0  0  0  0  0  0  0
   58.1310   29.3720   43.7490 O   0  0  0  0  0  0  0  0  0  0  0  0
   56.2090   29.9100   45.2210 O   0  0  0  0  0  0  0  0  0  0  0  0
   58.6040   30.1780   46.2680 C   0  0  0  0  0  0  0  0  0  0  0  0
   59.1640   31.2970   46.8730 C   0  0  0  0  0  0  0  0  0  0  0  0
   59.9360   31.2270   48.0120 C   0  0  0  0  0  0  0  0  0  0  0  0
   60.1940   30.0200   48.6140 C   0  0  0  0  0  0  0  0  0  0  0  0
   59.6500   28.8970   48.0350 C   0  0  0  0  0  0  0  0  0  0  0  0
   58.8620   28.9670   46.8730 C   0  0  0  0  0  0  0  0  0  0  0  0
   58.3500   27.6930   46.4030 C   0  0  0  0  0  0  0  0  0  0  0  0
   57.1750   27.1170   46.7250 C   0  0  0  0  0  0  0  0  0  0  0  0
   56.8090   25.8970   46.1630 C   0  0  0  0  0  0  0  0  0  0  0  0
   57.6630   25.2840   45.2710 C   0  0  0  0  0  0  0  0  0  0  0  0
   57.3160   24.0070   44.6600 C   0  0  0  0  0  0  0  0  0  0  0  0
   56.1930   23.8130   43.8850 C   0  0  0  0  0  0  0  0  0  0  0  0
   55.9270   22.6080   43.3470 N   0  0  0  0  0  0  0  0  0  0  0  0
   56.7380   21.5630   43.5450 C   0  0  0  0  0  0  0  0  0  0  0  0
   56.4660   20.4170   43.0210 N   0  0  0  0  0  0  0  0  0  0  0  0
   57.8520   21.7030   44.2970 N   0  0  0  0  0  0  0  0  0  0  0  0
   58.1300   22.8910   44.8380 C   0  0  0  0  0  0  0  0  0  0  0  0
   58.8370   25.8460   44.9420 N   0  0  0  0  0  0  0  0  0  0  0  0
   59.1700   27.0140   45.4910 C   0  0  0  0  0  0  0  0  0  0  0  0
   56.4367   31.4690   42.1213 H   0  0  0  0  0  0  0  0  0  0  0  0
   57.2007   32.8513   41.2655 H   0  0  0  0  0  0  0  0  0  0  0  0
   57.9997   31.2425   41.2655 H   0  0  0  0  0  0  0  0  0  0  0  0
   59.1397   31.8510   43.0918 H   0  0  0  0  0  0  0  0  0  0  0  0
   58.1875   33.4157   43.1600 H   0  0  0  0  0  0  0  0  0  0  0  0
   55.9644   33.0758   44.9273 H   0  0  0  0  0  0  0  0  0  0  0  0
   57.0899   32.4193   46.2113 H   0  0  0  0  0  0  0  0  0  0  0  0
   57.9641   34.4777   46.2703 H   0  0  0  0  0  0  0  0  0  0  0  0
   58.7485   34.0397   44.7148 H   0  0  0  0  0  0  0  0  0  0  0  0
   57.2024   34.9542   44.7148 H   0  0  0  0  0  0  0  0  0  0  0  0
   58.9825   32.2837   46.4218 H   0  0  0  0  0  0  0  0  0  0  0  0
   60.3509   32.1494   48.4445 H   0  0  0  0  0  0  0  0  0  0  0  0
   60.8107   29.9538   49.5224 H   0  0  0  0  0  0  0  0  0  0  0  0
   59.8371   27.9154   48.4948 H   0  0  0  0  0  0  0  0  0  0  0  0
   56.5001   27.6144   47.4371 H   0  0  0  0  0  0  0  0  0  0  0  0
   55.8499   25.4278   46.4275 H   0  0  0  0  0  0  0  0  0  0  0  0
   55.5059   24.6527   43.7039 H   0  0  0  0  0  0  0  0  0  0  0  0
   56.9890   19.5770   43.3750 H   0  0  0  0  0  0  0  0  0  0  0  0
   58.4590   20.8530   44.4250 H   0  0  0  0  0  0  0  0  0  0  0  0
   59.0389   22.9928   45.4492 H   0  0  0  0  0  0  0  0  0  0  0  0
   60.1339   27.4666   45.2154 H   0  0  0  0  0  0  0  0  0  0  0  0
  1  2  1  0
  2  3  1  0
  3  4  1  0
  4  5  1  0
  3  6  1  0
  6  7  2  0
  6  8  2  0
  6  9  1  0
  9 10  2  0
 10 11  1  0
 11 12  2  0
 12 13  1  0
 13 14  2  0
 14 15  1  0
 15 16  2  0
 16 17  1  0
 17 18  2  0
 18 19  1  0
 19 20  1  0
 20 21  2  0
 21 22  1  0
 22 23  2  3
 22 24  1  0
 24 25  1  0
 18 26  1  0
 26 27  2  0
 14  9  1  0
 27 15  1  0
 25 19  2  0
  1 28  1  0
  1 29  1  0
  1 30  1  0
  2 31  1  0
  2 32  1  0
  4 33  1  0
  4 34  1  0
  5 35  1  0
  5 36  1  0
  5 37  1  0
 10 38  1  0
 11 39  1  0
 12 40  1  0
 13 41  1  0
 16 42  1  0
 17 43  1  0
 20 44  1  0
 23 45  1  0
 24 46  1  0
 25 47  1  0
 27 48  1  0
M  END
>  <smiles>  (21) 
CCN(CC)S(=O)(=O)c1ccccc1-c1ccc(-c2cnc(=N)[nH]c2)nc1

>  <score_type>  (21) 
oracle

>  <origin>  (21) 
adg

>  <m_score__min__energy>  (21) 
-9.5199999999999996

>  <m_primary>  (21) 
energy

$$$$
21:0
     RDKit          3D

 50 53  0  0  0  0  0  0  0  0999 V2000
   58.4170   22.3530   44.3350 C   0  0  0  0  0  0  0  0  0  0  0  0
   57.4190   21.5420   43.5040 C   0  0  0  0  0  0  0  0  0  0  0  0
   56.3400   22.3820   42.9480 N   0  0  0  0  0  0  0  0  0  0  0  0
   56.1730   23.6610   43.6650 C   0  0  0  0  0  0  0  0  0  0  0  0
   55.4990   23.4750   45.0360 C   0  0  0  0  0  0  0  0  0  0  0  0
   55.3080   24.7370   45.6760 O   0  0  0  0  0  0  0  0  0  0  0  0
   56.3260   25.6390   46.0290 C   0  0  0  0  0  0  0  0  0  0  0  0
   57.4610   25.2570   46.7620 C   0  0  0  0  0  0  0  0  0  0  0  0
   58.4410   26.1930   47.0870 C   0  0  0  0  0  0  0  0  0  0  0  0
   58.3270   27.5420   46.6890 C   0  0  0  0  0  0  0  0  0  0  0  0
   57.1740   27.9270   45.9410 C   0  0  0  0  0  0  0  0  0  0  0  0
   56.1950   26.9680   45.6240 C   0  0  0  0  0  0  0  0  0  0  0  0
   56.9960   29.3270   45.4950 C   0  0  0  0  0  0  0  0  0  0  0  0
   55.9860   29.6850   44.8320 O   0  0  0  0  0  0  0  0  0  0  0  0
   58.0330   30.2860   45.8470 C   0  0  0  0  0  0  0  0  0  0  0  0
   59.1530   29.9390   46.5690 C   0  0  0  0  0  0  0  0  0  0  0  0
   59.9270   30.9960   46.7480 O   0  0  0  0  0  0  0  0  0  0  0  0
   59.3410   32.0160   46.1640 C   0  0  0  0  0  0  0  0  0  0  0  0
   59.7950   33.3310   46.0990 C   0  0  0  0  0  0  0  0  0  0  0  0
   58.9980   34.2680   45.4160 C   0  0  0  0  0  0  0  0  0  0  0  0
   57.7780   33.8740   44.8210 C   0  0  0  0  0  0  0  0  0  0  0  0
   57.3430   32.5370   44.9020 C   0  0  0  0  0  0  0  0  0  0  0  0
   58.1550   31.6330   45.5850 C   0  0  0  0  0  0  0  0  0  0  0  0
   59.4430   28.5430   47.0760 C   0  0  0  0  0  0  0  0  0  0  0  0
   59.5670   28.6200   48.6100 C   0  0  0  0  0  0  0  0  0  0  0  0
   60.7830   28.0930   46.4610 C   0  0  0  0  0  0  0  0  0  0  0  0
   58.2192   22.1922   45.4051 H   0  0  0  0  0  0  0  0  0  0  0  0
   59.4408   22.0277   44.0985 H   0  0  0  0  0  0  0  0  0  0  0  0
   58.3080   23.4217   44.0985 H   0  0  0  0  0  0  0  0  0  0  0  0
   57.9576   21.0624   42.6734 H   0  0  0  0  0  0  0  0  0  0  0  0
   56.9569   20.7959   44.1671 H   0  0  0  0  0  0  0  0  0  0  0  0
   55.4420   21.8430   42.9770 H   0  0  0  0  0  0  0  0  0  0  0  0
   56.5370   22.5820   41.9400 H   0  0  0  0  0  0  0  0  0  0  0  0
   57.1637   24.1145   43.8159 H   0  0  0  0  0  0  0  0  0  0  0  0
   55.5253   24.3080   43.0552 H   0  0  0  0  0  0  0  0  0  0  0  0
   54.5222   22.9889   44.8959 H   0  0  0  0  0  0  0  0  0  0  0  0
   56.1469   22.8504   45.6685 H   0  0  0  0  0  0  0  0  0  0  0  0
   57.5775   24.2111   47.0821 H   0  0  0  0  0  0  0  0  0  0  0  0
   59.3207   25.8739   47.6652 H   0  0  0  0  0  0  0  0  0  0  0  0
   55.3096   27.2713   45.0460 H   0  0  0  0  0  0  0  0  0  0  0  0
   60.7456   33.6274   46.5664 H   0  0  0  0  0  0  0  0  0  0  0  0
   59.3269   35.3152   45.3446 H   0  0  0  0  0  0  0  0  0  0  0  0
   57.1639   34.6169   44.2909 H   0  0  0  0  0  0  0  0  0  0  0  0
   56.3960   32.2174   44.4426 H   0  0  0  0  0  0  0  0  0  0  0  0
   58.7194   28.0937   49.0733 H   0  0  0  0  0  0  0  0  0  0  0  0
   60.5089   28.1476   48.9259 H   0  0  0  0  0  0  0  0  0  0  0  0
   59.5612   29.6736   48.9259 H   0  0  0  0  0  0  0  0  0  0  0  0
   61.4940   27.8542   47.2657 H   0  0  0  0  0  0  0  0  0  0  0  0
   60.6197   27.2004   45.8392 H   0  0  0  0  0  0  0  0  0  0  0  0
   61.1915   28.9032   45.8392 H   0  0  0  0  0  0  0  0  0  0  0  0
  1  2  1  0
  2  3  1  0
  3  4  1  0
  4  5  1  0
  5  6  1  0
  6  7  1  0
  7  8  2  0
  8  9  1  0
  9 10  2  0
 10 11  1  0
 11 12  2  0
 11 13  1  0
 13 14  2  0
 13 15  1  0
 15 16  2  0
 16 17  1  0
 17 18  1  0
 18 19  2  0
 19 20  1  0
 20 21  2  0
 21 22  1  0
 22 23  2  0
 16 24  1  0
 24 25  1  0
 24 26  1  0
 12  7  1  0
 23 15  1  0
 24 10  1  0
 23 18  1  0
  1 27  1  0
  1 28  1  0
  1 29  1  0
  2 30  1  0
  2 31  1  0
  3 32  1  0
  3 33  1  0
  4 34  1  0
  4 35  1  0
  5 36  1  0
  5 37  1  0
  8 38  1  0
  9 39  1  0
 12 40  1  0
 19 41  1  0
 20 42  1  0
 21 43  1  0
 22 44  1  0
 25 45  1  0
 25 46  1  0
 25 47  1  0
 26 48  1  0
 26 49  1  0
 26 50  1  0
M  CHG  1   3   1
M  END
>  <UniqueID>  (22) 
21

>  <SMILES>  (22) 
CC[NH2+]CCOc1ccc2c(c1)C(=O)c1c(oc3ccccc13)C2(C)C

>  <Energy>  (22) 
91.77580976979372

>  <Genealogy>  (22) 
CC[NH2+]CCOc1ccc2c(c1)C(=O)c1c(oc3ccccc13)C2(C)C (protonated)
CC[NH2+]CCOc1ccc2c(c1)C(=O)c1c(oc3ccccc13)C2(C)C (3D coordinates assigned)
CC[NH2+]CCOc1ccc2c(c1)C(=O)c1c(oc3ccccc13)C2(C)C (nonaromatic ring conformer: 91.77580976979372 kcal/mol)

>  <smiles>  (22) 
CCNCCOc1ccc2c(c1)C(=O)c1c(oc3ccccc13)C2(C)C

>  <score_type>  (22) 
oracle

>  <origin>  (22) 
adg

>  <m_score__min__energy>  (22) 
-6.6699999999999999

>  <m_primary>  (22) 
energy

$$$$
22:0
     RDKit          3D

 58 61  0  0  0  0  0  0  0  0999 V2000
   66.2690   32.3900   50.1530 C   0  0  0  0  0  0  0  0  0  0  0  0
   65.1270   33.1770   49.8600 O   0  0  0  0  0  0  0  0  0  0  0  0
   64.0480   32.7450   49.0760 C   0  0  0  0  0  0  0  0  0  0  0  0
   63.7930   33.4200   47.8660 C   0  0  0  0  0  0  0  0  0  0  0  0
   62.7220   33.0330   47.0430 C   0  0  0  0  0  0  0  0  0  0  0  0
   61.9200   31.9640   47.4450 C   0  0  0  0  0  0  0  0  0  0  0  0
   62.1680   31.2940   48.6160 C   0  0  0  0  0  0  0  0  0  0  0  0
   63.2200   31.6640   49.4600 C   0  0  0  0  0  0  0  0  0  0  0  0
   61.1730   30.2400   48.7640 C   0  0  0  0  0  0  0  0  0  0  0  0
   61.1260   29.2420   49.8890 C   0  0  0  0  0  0  0  0  0  0  0  0
   60.1730   29.7020   50.9940 C   0  0  0  0  0  0  0  0  0  0  0  0
   60.6910   30.9060   51.8160 C   0  0  0  0  0  0  0  0  0  0  0  0
   60.0370   32.2470   51.6360 N   0  0  0  0  0  0  0  0  0  0  0  0
   58.5830   32.1640   51.2950 C   0  0  0  0  0  0  0  0  0  0  0  0
   58.2760   32.3180   49.7970 C   0  0  0  0  0  0  0  0  0  0  0  0
   59.0500   33.4110   49.1980 N   0  0  0  0  0  0  0  0  0  0  0  0
   58.8840   33.7480   47.8060 C   0  0  0  0  0  0  0  0  0  0  0  0
   57.8920   33.1180   47.0350 C   0  0  0  0  0  0  0  0  0  0  0  0
   57.7610   33.4170   45.6750 C   0  0  0  0  0  0  0  0  0  0  0  0
   58.6110   34.3500   45.0740 C   0  0  0  0  0  0  0  0  0  0  0  0
   59.5950   34.9840   45.8330 C   0  0  0  0  0  0  0  0  0  0  0  0
   59.7280   34.6910   47.1930 C   0  0  0  0  0  0  0  0  0  0  0  0
   59.9270   34.2150   50.0570 C   0  0  0  0  0  0  0  0  0  0  0  0
   60.8160   33.2720   50.8720 C   0  0  0  0  0  0  0  0  0  0  0  0
   60.3540   30.2810   47.7010 C   0  0  0  0  0  0  0  0  0  0  0  0
   59.1840   29.3740   47.4760 C   0  0  0  0  0  0  0  0  0  0  0  0
   60.7380   31.3810   46.7460 C   0  0  0  0  0  0  0  0  0  0  0  0
   66.3879   32.3081   51.2435 H   0  0  0  0  0  0  0  0  0  0  0  0
   66.1430   31.3861   49.7214 H   0  0  0  0  0  0  0  0  0  0  0  0
   67.1623   32.8651   49.7214 H   0  0  0  0  0  0  0  0  0  0  0  0
   64.4383   34.2577   47.5628 H   0  0  0  0  0  0  0  0  0  0  0  0
   62.5196   33.5623   46.1002 H   0  0  0  0  0  0  0  0  0  0  0  0
   63.3998   31.1259   50.4024 H   0  0  0  0  0  0  0  0  0  0  0  0
   60.7805   28.2742   49.4965 H   0  0  0  0  0  0  0  0  0  0  0  0
   62.1357   29.1482   50.3152 H   0  0  0  0  0  0  0  0  0  0  0  0
   59.2175   29.9868   50.5293 H   0  0  0  0  0  0  0  0  0  0  0  0
   60.0712   28.8604   51.6950 H   0  0  0  0  0  0  0  0  0  0  0  0
   60.5902   30.6383   52.8782 H   0  0  0  0  0  0  0  0  0  0  0  0
   61.7142   31.0595   51.4425 H   0  0  0  0  0  0  0  0  0  0  0  0
   60.0130   32.6340   52.6110 H   0  0  0  0  0  0  0  0  0  0  0  0
   58.2069   31.1844   51.6250 H   0  0  0  0  0  0  0  0  0  0  0  0
   58.0907   33.0045   51.8060 H   0  0  0  0  0  0  0  0  0  0  0  0
   58.5271   31.3787   49.2825 H   0  0  0  0  0  0  0  0  0  0  0  0
   57.2069   32.5520   49.6866 H   0  0  0  0  0  0  0  0  0  0  0  0
   57.2161   32.3871   47.5029 H   0  0  0  0  0  0  0  0  0  0  0  0
   56.9862   32.9161   45.0760 H   0  0  0  0  0  0  0  0  0  0  0  0
   58.5042   34.5839   44.0045 H   0  0  0  0  0  0  0  0  0  0  0  0
   60.2670   35.7154   45.3604 H   0  0  0  0  0  0  0  0  0  0  0  0
   60.4989   35.2020   47.7885 H   0  0  0  0  0  0  0  0  0  0  0  0
   60.5548   34.8700   49.4350 H   0  0  0  0  0  0  0  0  0  0  0  0
   59.3215   34.8364   50.7332 H   0  0  0  0  0  0  0  0  0  0  0  0
   61.4987   32.7520   50.1838 H   0  0  0  0  0  0  0  0  0  0  0  0
   61.3601   33.8852   51.6054 H   0  0  0  0  0  0  0  0  0  0  0  0
   58.7743   29.0564   48.4462 H   0  0  0  0  0  0  0  0  0  0  0  0
   58.4088   29.9095   46.9082 H   0  0  0  0  0  0  0  0  0  0  0  0
   59.5094   28.4898   46.9082 H   0  0  0  0  0  0  0  0  0  0  0  0
   61.0094   30.9816   45.7577 H   0  0  0  0  0  0  0  0  0  0  0  0
   59.9336   32.1016   46.5368 H   0  0  0  0  0  0  0  0  0  0  0  0
  1  2  1  0
  2  3  1  0
  3  4  2  0
  4  5  1  0
  5  6  2  0
  6  7  1  0
  7  8  2  0
  7  9  1  0
  9 10  1  0
 10 11  1  0
 11 12  1  0
 12 13  1  0
 13 14  1  0
 14 15  1  0
 15 16  1  0
 16 17  1  0
 17 18  2  0
 18 19  1  0
 19 20  2  0
 20 21  1  0
 21 22  2  0
 16 23  1  0
 23 24  1  0
  9 25  2  0
 25 26  1  0
 25 27  1  0
  8  3  1  0
 24 13  1  0
 27  6  1  0
 22 17  1  0
  1 28  1  0
  1 29  1  0
  1 30  1  0
  4 31  1  0
  5 32  1  0
  8 33  1  0
 10 34  1  0
 10 35  1  0
 11 36  1  0
 11 37  1  0
 12 38  1  0
 12 39  1  0
 13 40  1  0
 14 41  1  0
 14 42  1  0
 15 43  1  0
 15 44  1  0
 18 45  1  0
 19 46  1  0
 20 47  1  0
 21 48  1  0
 22 49  1  0
 23 50  1  0
 23 51  1  0
 24 52  1  0
 24 53  1  0
 26 54  1  0
 26 55  1  0
 26 56  1  0
 27 57  1  0
 27 58  1  0
M  CHG  1  13   1
M  END
>  <UniqueID>  (23) 
22

>  <SMILES>  (23) 
COc1ccc2c(c1)C(CCC[NH+]1CCN(c3ccccc3)CC1)=C(C)C2

>  <Energy>  (23) 
94.73254455951304

>  <Genealogy>  (23) 
COc1ccc2c(c1)C(CCC[NH+]1CCN(c3ccccc3)CC1)=C(C)C2 (protonated)
COc1ccc2c(c1)C(CCC[NH+]1CCN(c3ccccc3)CC1)=C(C)C2 (3D coordinates assigned)
COc1ccc2c(c1)C(CCC[NH+]1CCN(c3ccccc3)CC1)=C(C)C2 (nonaromatic ring conformer: 94.73254455951304 kcal/mol)

>  <smiles>  (23) 
COc1ccc2c(c1)C(CCCN1CCN(c3ccccc3)CC1)=C(C)C2

>  <score_type>  (23) 
oracle

>  <origin>  (23) 
adg

>  <m_score__min__energy>  (23) 
-7.3600000000000003

>  <m_primary>  (23) 
energy

$$$$
23:0
     RDKit          3D

 47 49  0  0  0  0  0  0  0  0999 V2000
   58.7140   25.4740   45.7530 C   0  0  0  0  0  0  0  0  0  0  0  0
   59.9230   26.1820   46.3680 C   0  0  0  0  0  0  0  0  0  0  0  0
   59.7760   27.6550   46.3200 N   0  0  0  0  0  0  0  0  0  0  0  0
   59.9580   28.1790   44.9410 C   0  0  0  0  0  0  0  0  0  0  0  0
   59.2880   29.5420   44.7270 C   0  0  0  0  0  0  0  0  0  0  0  0
   57.8560   29.4610   45.0440 N   0  0  0  0  0  0  0  0  0  0  0  0
   56.9010   30.3700   44.4550 C   0  0  0  0  0  0  0  0  0  0  0  0
   55.6670   30.1170   44.5310 O   0  0  0  0  0  0  0  0  0  0  0  0
   57.3320   31.6080   43.7200 C   0  0  0  0  0  0  0  0  0  0  0  0
   57.9190   32.5730   44.6440 N   0  0  0  0  0  0  0  0  0  0  0  0
   58.9510   32.3250   45.4330 N   0  0  0  0  0  0  0  0  0  0  0  0
   59.1750   33.5010   46.0580 C   0  0  0  0  0  0  0  0  0  0  0  0
   60.2350   33.7220   47.0630 C   0  0  0  0  0  0  0  0  0  0  0  0
   61.5890   33.6280   46.7010 C   0  0  0  0  0  0  0  0  0  0  0  0
   62.5930   33.8310   47.6530 C   0  0  0  0  0  0  0  0  0  0  0  0
   62.2570   34.1330   48.9860 C   0  0  0  0  0  0  0  0  0  0  0  0
   63.2270   34.3420   49.9780 O   0  0  0  0  0  0  0  0  0  0  0  0
   64.2820   33.4340   50.2760 C   0  0  0  0  0  0  0  0  0  0  0  0
   60.9080   34.2290   49.3450 C   0  0  0  0  0  0  0  0  0  0  0  0
   59.9030   34.0250   48.3940 C   0  0  0  0  0  0  0  0  0  0  0  0
   58.3030   34.4500   45.6480 N   0  0  0  0  0  0  0  0  0  0  0  0
   57.5390   33.8330   44.7630 N   0  0  0  0  0  0  0  0  0  0  0  0
   57.3990   28.4240   45.9760 C   0  0  0  0  0  0  0  0  0  0  0  0
   58.5140   28.0910   46.9760 C   0  0  0  0  0  0  0  0  0  0  0  0
   58.0646   25.0937   46.5553 H   0  0  0  0  0  0  0  0  0  0  0  0
   58.1503   26.1847   45.1308 H   0  0  0  0  0  0  0  0  0  0  0  0
   59.0580   24.6346   45.1308 H   0  0  0  0  0  0  0  0  0  0  0  0
   60.0250   25.8676   47.4172 H   0  0  0  0  0  0  0  0  0  0  0  0
   60.8151   25.9065   45.7864 H   0  0  0  0  0  0  0  0  0  0  0  0
   61.0353   28.2827   44.7443 H   0  0  0  0  0  0  0  0  0  0  0  0
   59.4827   27.4657   44.2515 H   0  0  0  0  0  0  0  0  0  0  0  0
   59.7632   30.2869   45.3822 H   0  0  0  0  0  0  0  0  0  0  0  0
   59.4054   29.8372   43.6739 H   0  0  0  0  0  0  0  0  0  0  0  0
   58.0780   31.3358   42.9588 H   0  0  0  0  0  0  0  0  0  0  0  0
   56.4515   32.0629   43.2427 H   0  0  0  0  0  0  0  0  0  0  0  0
   61.8614   33.3931   45.6615 H   0  0  0  0  0  0  0  0  0  0  0  0
   63.6501   33.7543   47.3587 H   0  0  0  0  0  0  0  0  0  0  0  0
   64.3892   33.3417   51.3669 H   0  0  0  0  0  0  0  0  0  0  0  0
   64.0501   32.4486   49.8457 H   0  0  0  0  0  0  0  0  0  0  0  0
   65.2219   33.8100   49.8457 H   0  0  0  0  0  0  0  0  0  0  0  0
   60.6357   34.4669   50.3839 H   0  0  0  0  0  0  0  0  0  0  0  0
   58.8464   34.1023   48.6900 H   0  0  0  0  0  0  0  0  0  0  0  0
   56.7580   34.2820   44.2360 H   0  0  0  0  0  0  0  0  0  0  0  0
   56.5163   28.7881   46.5221 H   0  0  0  0  0  0  0  0  0  0  0  0
   57.1387   27.5177   45.4095 H   0  0  0  0  0  0  0  0  0  0  0  0
   58.7239   28.9877   47.5775 H   0  0  0  0  0  0  0  0  0  0  0  0
   58.1599   27.2533   47.5947 H   0  0  0  0  0  0  0  0  0  0  0  0
  1  2  1  0
  2  3  1  0
  3  4  1  0
  4  5  1  0
  5  6  1  0
  6  7  1  0
  7  8  2  0
  7  9  1  0
  9 10  1  0
 10 11  1  0
 11 12  2  0
 12 13  1  0
 13 14  2  0
 14 15  1  0
 15 16  2  0
 16 17  1  0
 17 18  1  0
 16 19  1  0
 19 20  2  0
 12 21  1  0
 21 22  2  0
  6 23  1  0
 23 24  1  0
 24  3  1  0
 22 10  1  0
 20 13  1  0
  1 25  1  0
  1 26  1  0
  1 27  1  0
  2 28  1  0
  2 29  1  0
  4 30  1  0
  4 31  1  0
  5 32  1  0
  5 33  1  0
  9 34  1  0
  9 35  1  0
 14 36  1  0
 15 37  1  0
 18 38  1  0
 18 39  1  0
 18 40  1  0
 19 41  1  0
 20 42  1  0
 22 43  1  0
 23 44  1  0
 23 45  1  0
 24 46  1  0
 24 47  1  0
M  CHG  1  22   1
M  END
>  <UniqueID>  (24) 
23

>  <SMILES>  (24) 
CCN1CCN(C(=O)Cn2nc(-c3ccc(OC)cc3)n[nH+]2)CC1

>  <Energy>  (24) 
91.08045320316235

>  <Genealogy>  (24) 
CCN1CCN(C(=O)Cn2nc(-c3ccc(OC)cc3)n[nH+]2)CC1 (protonated)
CCN1CCN(C(=O)Cn2nc(-c3ccc(OC)cc3)n[nH+]2)CC1 (3D coordinates assigned)
CCN1CCN(C(=O)Cn2nc(-c3ccc(OC)cc3)n[nH+]2)CC1 (nonaromatic ring conformer: 91.08045320316235 kcal/mol)

>  <smiles>  (24) 
CCN1CCN(C(=O)Cn2nnc(-c3ccc(OC)cc3)n2)CC1

>  <score_type>  (24) 
oracle

>  <origin>  (24) 
adg

>  <m_score__min__energy>  (24) 
-6.4900000000000002

>  <m_primary>  (24) 
energy

$$$$
24:0
     RDKit          3D

 56 60  0  0  0  0  0  0  0  0999 V2000
   56.2370   23.0310   43.0240 C   0  0  0  0  0  0  0  0  0  0  0  0
   57.1760   24.0120   43.7370 C   0  0  0  0  0  0  0  0  0  0  0  0
   56.4490   24.9220   44.6610 N   0  0  1  0  0  0  0  0  0  0  0  0
   55.1370   24.3480   45.0230 C   0  0  0  0  0  0  0  0  0  0  0  0
   57.2400   25.1650   45.8970 C   0  0  0  0  0  0  0  0  0  0  0  0
   58.1480   26.4070   45.7910 C   0  0  0  0  0  0  0  0  0  0  0  0
   57.4920   27.5940   46.3400 N   0  0  0  0  0  0  0  0  0  0  0  0
   58.0980   28.8950   46.2420 C   0  0  0  0  0  0  0  0  0  0  0  0
   57.8180   29.7300   45.1430 C   0  0  0  0  0  0  0  0  0  0  0  0
   57.0650   29.2670   44.0450 C   0  0  0  0  0  0  0  0  0  0  0  0
   56.7200   30.1290   43.0050 C   0  0  0  0  0  0  0  0  0  0  0  0
   57.1180   31.4620   43.0420 C   0  0  0  0  0  0  0  0  0  0  0  0
   57.8660   31.9410   44.1170 C   0  0  0  0  0  0  0  0  0  0  0  0
   58.2400   31.0850   45.1800 C   0  0  0  0  0  0  0  0  0  0  0  0
   58.9710   31.5520   46.2520 N   0  0  0  0  0  0  0  0  0  0  0  0
   58.8420   32.9770   46.6270 C   0  0  0  0  0  0  0  0  0  0  0  0
   59.5430   30.6520   47.1270 C   0  0  0  0  0  0  0  0  0  0  0  0
   58.9860   29.3460   47.2380 C   0  0  0  0  0  0  0  0  0  0  0  0
   59.3340   28.5240   48.3380 C   0  0  0  0  0  0  0  0  0  0  0  0
   60.2180   28.9770   49.3200 C   0  0  0  0  0  0  0  0  0  0  0  0
   60.8540   30.1930   49.1260 C   0  0  0  0  0  0  0  0  0  0  0  0
   62.1080   30.8210   50.0600 S   0  0  0  0  0  0  0  0  0  0  0  0
   62.4410   32.0700   48.9870 C   0  0  0  0  0  0  0  0  0  0  0  0
   63.4930   32.9790   49.0640 C   0  0  0  0  0  0  0  0  0  0  0  0
   63.7260   33.8220   47.9700 C   0  0  0  0  0  0  0  0  0  0  0  0
   62.9420   33.7060   46.8090 C   0  0  0  0  0  0  0  0  0  0  0  0
   61.8950   32.7750   46.7480 C   0  0  0  0  0  0  0  0  0  0  0  0
   61.5950   32.0000   47.8790 C   0  0  0  0  0  0  0  0  0  0  0  0
   60.6150   30.9860   48.0030 C   0  0  0  0  0  0  0  0  0  0  0  0
   55.6792   22.4482   43.7718 H   0  0  0  0  0  0  0  0  0  0  0  0
   55.5304   23.5917   42.3944 H   0  0  0  0  0  0  0  0  0  0  0  0
   56.8280   22.3496   42.3944 H   0  0  0  0  0  0  0  0  0  0  0  0
   57.9143   23.4373   44.3154 H   0  0  0  0  0  0  0  0  0  0  0  0
   57.6605   24.6317   42.9681 H   0  0  0  0  0  0  0  0  0  0  0  0
   56.2720   25.8350   44.1810 H   0  0  0  0  0  0  0  0  0  0  0  0
   55.0442   24.3074   46.1183 H   0  0  0  0  0  0  0  0  0  0  0  0
   54.3349   24.9774   44.6101 H   0  0  0  0  0  0  0  0  0  0  0  0
   55.0549   23.3317   44.6101 H   0  0  0  0  0  0  0  0  0  0  0  0
   56.5443   25.3089   46.7368 H   0  0  0  0  0  0  0  0  0  0  0  0
   57.8905   24.2914   46.0510 H   0  0  0  0  0  0  0  0  0  0  0  0
   59.0770   26.2204   46.3498 H   0  0  0  0  0  0  0  0  0  0  0  0
   58.3631   26.5899   44.7279 H   0  0  0  0  0  0  0  0  0  0  0  0
   56.6760   27.4660   46.9820 H   0  0  0  0  0  0  0  0  0  0  0  0
   56.7463   28.2148   44.0084 H   0  0  0  0  0  0  0  0  0  0  0  0
   56.1322   29.7549   42.1538 H   0  0  0  0  0  0  0  0  0  0  0  0
   56.8417   32.1398   42.2209 H   0  0  0  0  0  0  0  0  0  0  0  0
   58.1693   32.9981   44.1390 H   0  0  0  0  0  0  0  0  0  0  0  0
   58.8337   33.0684   47.7232 H   0  0  0  0  0  0  0  0  0  0  0  0
   59.6927   33.5421   46.2184 H   0  0  0  0  0  0  0  0  0  0  0  0
   57.9037   33.3802   46.2184 H   0  0  0  0  0  0  0  0  0  0  0  0
   58.9023   27.5156   48.4199 H   0  0  0  0  0  0  0  0  0  0  0  0
   60.4051   28.3824   50.2263 H   0  0  0  0  0  0  0  0  0  0  0  0
   64.1257   33.0337   49.9622 H   0  0  0  0  0  0  0  0  0  0  0  0
   64.5246   34.5768   48.0195 H   0  0  0  0  0  0  0  0  0  0  0  0
   63.1512   34.3501   45.9422 H   0  0  0  0  0  0  0  0  0  0  0  0
   61.3140   32.6532   45.8219 H   0  0  0  0  0  0  0  0  0  0  0  0
  1  2  1  0
  2  3  1  0
  3  4  1  0
  3  5  1  0
  5  6  1  0
  6  7  1  0
  7  8  1  0
  8  9  2  0
  9 10  1  0
 10 11  2  0
 11 12  1  0
 12 13  2  0
 13 14  1  0
 14 15  2  0
 15 16  1  0
 15 17  1  0
 17 18  2  0
 18 19  1  0
 19 20  2  0
 20 21  1  0
 21 22  1  0
 22 23  1  0
 23 24  2  0
 24 25  1  0
 25 26  2  0
 26 27  1  0
 27 28  2  0
 28 29  1  0
 18  8  1  0
 29 21  2  0
 14  9  1  0
 29 17  1  0
 28 23  1  0
  1 30  1  0
  1 31  1  0
  1 32  1  0
  2 33  1  0
  2 34  1  0
  3 35  1  6
  4 36  1  0
  4 37  1  0
  4 38  1  0
  5 39  1  0
  5 40  1  0
  6 41  1  0
  6 42  1  0
  7 43  1  0
 10 44  1  0
 11 45  1  0
 12 46  1  0
 13 47  1  0
 16 48  1  0
 16 49  1  0
 16 50  1  0
 19 51  1  0
 20 52  1  0
 24 53  1  0
 25 54  1  0
 26 55  1  0
 27 56  1  0
M  CHG  2   3   1  15   1
M  END
>  <UniqueID>  (25) 
24

>  <SMILES>  (25) 
CC[N@@H+](C)CCNc1c2ccccc2[n+](C)c2c1ccc1sc3ccccc3c12

>  <Energy>  (25) 
139.7279928430152

>  <Genealogy>  (25) 
CC[NH+](C)CCNc1c2ccccc2[n+](C)c2c1ccc1sc3ccccc3c12 (protonated)
CC[N@@H+](C)CCNc1c2ccccc2[n+](C)c2c1ccc1sc3ccccc3c12 (chirality)
CC[N@@H+](C)CCNc1c2ccccc2[n+](C)c2c1ccc1sc3ccccc3c12 (3D coordinates assigned)
CC[N@@H+](C)CCNc1c2ccccc2[n+](C)c2c1ccc1sc3ccccc3c12 (optimized conformer: 139.7279928430152 kcal/mol)

>  <smiles>  (25) 
CCN(C)CCNc1c2ccccc2[n+](C)c2c1ccc1sc3ccccc3c12

>  <score_type>  (25) 
oracle

>  <origin>  (25) 
adg

>  <m_score__min__energy>  (25) 
-5.6399999999999997

>  <m_primary>  (25) 
energy

$$$$
25:0
     RDKit          3D

 43 44  0  0  0  0  0  0  0  0999 V2000
   53.9390   24.4410   45.5930 C   0  0  0  0  0  0  0  0  0  0  0  0
   55.3400   23.8460   45.5760 C   0  0  0  0  0  0  0  0  0  0  0  0
   56.3170   24.8970   45.2010 N   0  0  0  0  0  0  0  0  0  0  0  0
   57.0210   24.6000   43.9320 C   0  0  0  0  0  0  0  0  0  0  0  0
   56.5200   23.3290   43.2270 C   0  0  0  0  0  0  0  0  0  0  0  0
   57.2350   25.2810   46.2970 C   0  0  0  0  0  0  0  0  0  0  0  0
   57.0510   26.7570   46.6810 C   0  0  0  0  0  0  0  0  0  0  0  0
   56.7850   27.6050   45.5090 N   0  0  0  0  0  0  0  0  0  0  0  0
   58.0040   28.1700   44.9020 C   0  0  0  0  0  0  0  0  0  0  0  0
   58.0520   29.6910   44.9900 C   0  0  0  0  0  0  0  0  0  0  0  0
   57.3060   30.4620   44.0700 C   0  0  0  0  0  0  0  0  0  0  0  0
   56.2620   29.7250   42.8550 Cl  0  0  0  0  0  0  0  0  0  0  0  0
   57.3580   31.8540   44.1060 C   0  0  0  0  0  0  0  0  0  0  0  0
   58.1420   32.5150   45.0540 C   0  0  0  0  0  0  0  0  0  0  0  0
   58.1840   33.9180   45.0680 C   0  0  0  0  0  0  0  0  0  0  0  0
   58.9590   34.5900   46.0130 C   0  0  0  0  0  0  0  0  0  0  0  0
   59.6970   33.8690   46.9500 C   0  0  0  0  0  0  0  0  0  0  0  0
   59.6660   32.4720   46.9490 C   0  0  0  0  0  0  0  0  0  0  0  0
   58.8890   31.7700   46.0010 C   0  0  0  0  0  0  0  0  0  0  0  0
   58.8370   30.3520   45.9740 C   0  0  0  0  0  0  0  0  0  0  0  0
   59.8210   29.3300   47.2930 Br  0  0  0  0  0  0  0  0  0  0  0  0
   53.6122   24.5798   46.6341 H   0  0  0  0  0  0  0  0  0  0  0  0
   53.9473   25.4133   45.0786 H   0  0  0  0  0  0  0  0  0  0  0  0
   53.2451   23.7599   45.0786 H   0  0  0  0  0  0  0  0  0  0  0  0
   55.5854   23.4564   46.5750 H   0  0  0  0  0  0  0  0  0  0  0  0
   55.3824   23.0266   44.8433 H   0  0  0  0  0  0  0  0  0  0  0  0
   56.8819   25.4522   43.2506 H   0  0  0  0  0  0  0  0  0  0  0  0
   58.0782   24.4307   44.1843 H   0  0  0  0  0  0  0  0  0  0  0  0
   56.2261   22.5834   43.9805 H   0  0  0  0  0  0  0  0  0  0  0  0
   55.6521   23.5765   42.5980 H   0  0  0  0  0  0  0  0  0  0  0  0
   57.3233   22.9177   42.5980 H   0  0  0  0  0  0  0  0  0  0  0  0
   57.0279   24.6527   47.1758 H   0  0  0  0  0  0  0  0  0  0  0  0
   58.2697   25.1359   45.9531 H   0  0  0  0  0  0  0  0  0  0  0  0
   56.2038   26.8392   47.3778 H   0  0  0  0  0  0  0  0  0  0  0  0
   57.9854   27.1050   47.1456 H   0  0  0  0  0  0  0  0  0  0  0  0
   56.2750   27.0320   44.7980 H   0  0  0  0  0  0  0  0  0  0  0  0
   58.8806   27.7591   45.4243 H   0  0  0  0  0  0  0  0  0  0  0  0
   58.0022   27.8979   43.8362 H   0  0  0  0  0  0  0  0  0  0  0  0
   56.7749   32.4389   43.3794 H   0  0  0  0  0  0  0  0  0  0  0  0
   57.6028   34.4903   44.3300 H   0  0  0  0  0  0  0  0  0  0  0  0
   58.9878   35.6896   46.0188 H   0  0  0  0  0  0  0  0  0  0  0  0
   60.3069   34.4023   47.6940 H   0  0  0  0  0  0  0  0  0  0  0  0
   60.2523   31.9136   47.6936 H   0  0  0  0  0  0  0  0  0  0  0  0
  1  2  1  0
  2  3  1  0
  3  4  1  0
  4  5  1  0
  3  6  1  0
  6  7  1  0
  7  8  1  0
  8  9  1  0
  9 10  1  0
 10 11  2  0
 11 12  1  0
 11 13  1  0
 13 14  2  0
 14 15  1  0
 15 16  2  0
 16 17  1  0
 17 18  2  0
 18 19  1  0
 19 20  2  0
 20 21  1  0
 20 10  1  0
 19 14  1  0
  1 22  1  0
  1 23  1  0
  1 24  1  0
  2 25  1  0
  2 26  1  0
  4 27  1  0
  4 28  1  0
  5 29  1  0
  5 30  1  0
  5 31  1  0
  6 32  1  0
  6 33  1  0
  7 34  1  0
  7 35  1  0
  8 36  1  0
  9 37  1  0
  9 38  1  0
 13 39  1  0
 15 40  1  0
 16 41  1  0
 17 42  1  0
 18 43  1  0
M  END
>  <UniqueID>  (26) 
25

>  <SMILES>  (26) 
CCN(CC)CCNCc1c(Cl)cc2ccccc2c1Br

>  <Energy>  (26) 
54.366482367899295

>  <Genealogy>  (26) 
CCN(CC)CCNCc1c(Cl)cc2ccccc2c1Br (3D coordinates assigned)
CCN(CC)CCNCc1c(Cl)cc2ccccc2c1Br (optimized conformer: 54.366482367899295 kcal/mol)

>  <smiles>  (26) 
CCN(CC)CCNCc1c(Cl)cc2ccccc2c1Br

>  <score_type>  (26) 
oracle

>  <origin>  (26) 
adg

>  <m_score__min__energy>  (26) 
-7.2699999999999996

>  <m_primary>  (26) 
energy

$$$$
26:0
     RDKit          3D

 52 55  0  0  0  0  0  0  0  0999 V2000
   57.4760   22.6380   43.7610 C   0  0  0  0  0  0  0  0  0  0  0  0
   56.9190   23.8090   44.5180 C   0  0  0  0  0  0  0  0  0  0  0  0
   57.7090   24.9490   44.7440 C   0  0  0  0  0  0  0  0  0  0  0  0
   57.2010   26.0420   45.4700 C   0  0  0  0  0  0  0  0  0  0  0  0
   58.0360   27.2480   45.7030 C   0  0  0  0  0  0  0  0  0  0  0  0
   57.5030   28.5350   45.5150 C   0  0  0  0  0  0  0  0  0  0  0  0
   58.2910   29.6690   45.7340 C   0  0  0  0  0  0  0  0  0  0  0  0
   59.6260   29.5430   46.1490 C   0  0  0  0  0  0  0  0  0  0  0  0
   60.4070   30.7350   46.3680 N   0  0  0  0  0  0  0  0  0  0  0  0
   61.2630   30.9510   47.5410 C   0  0  2  0  0  0  0  0  0  0  0  0
   60.5400   30.5860   48.8330 C   0  0  0  0  0  0  0  0  0  0  0  0
   60.0980   31.9120   49.4680 C   0  0  0  0  0  0  0  0  0  0  0  0
   60.8950   32.9990   48.8660 N   0  0  2  0  0  0  0  0  0  0  0  0
   60.1020   34.2090   48.5280 C   0  0  0  0  0  0  0  0  0  0  0  0
   59.2910   34.1010   47.2470 C   0  0  0  0  0  0  0  0  0  0  0  0
   58.1290   33.3080   47.2080 C   0  0  0  0  0  0  0  0  0  0  0  0
   57.3730   33.2160   46.0360 C   0  0  0  0  0  0  0  0  0  0  0  0
   57.7800   33.8960   44.8850 C   0  0  0  0  0  0  0  0  0  0  0  0
   58.9500   34.6580   44.9020 C   0  0  0  0  0  0  0  0  0  0  0  0
   59.7090   34.7520   46.0730 C   0  0  0  0  0  0  0  0  0  0  0  0
   61.5400   32.3960   47.7360 C   0  0  0  0  0  0  0  0  0  0  0  0
   62.3320   33.0110   47.0360 O   0  0  0  0  0  0  0  0  0  0  0  0
   60.1610   28.2550   46.3380 C   0  0  0  0  0  0  0  0  0  0  0  0
   59.3740   27.1220   46.1170 C   0  0  0  0  0  0  0  0  0  0  0  0
   55.8910   25.9740   45.9770 C   0  0  0  0  0  0  0  0  0  0  0  0
   55.1090   24.8360   45.7650 C   0  0  0  0  0  0  0  0  0  0  0  0
   55.6190   23.7550   45.0440 C   0  0  0  0  0  0  0  0  0  0  0  0
   54.8460   22.6540   44.8590 F   0  0  0  0  0  0  0  0  0  0  0  0
   57.8366   21.8799   44.4718 H   0  0  0  0  0  0  0  0  0  0  0  0
   56.6887   22.2023   43.1283 H   0  0  0  0  0  0  0  0  0  0  0  0
   58.3108   22.9739   43.1283 H   0  0  0  0  0  0  0  0  0  0  0  0
   58.7350   24.9873   44.3493 H   0  0  0  0  0  0  0  0  0  0  0  0
   56.4576   28.6509   45.1930 H   0  0  0  0  0  0  0  0  0  0  0  0
   57.8607   30.6695   45.5796 H   0  0  0  0  0  0  0  0  0  0  0  0
   60.3620   31.4800   45.6370 H   0  0  0  0  0  0  0  0  0  0  0  0
   62.1619   30.3448   47.3555 H   0  0  0  0  0  0  0  0  0  0  0  0
   59.6641   29.9574   48.6149 H   0  0  0  0  0  0  0  0  0  0  0  0
   61.1936   30.0164   49.5100 H   0  0  0  0  0  0  0  0  0  0  0  0
   59.0290   32.0811   49.2715 H   0  0  0  0  0  0  0  0  0  0  0  0
   60.2547   31.8834   50.5564 H   0  0  0  0  0  0  0  0  0  0  0  0
   61.6440   33.2760   49.5440 H   0  0  0  0  0  0  0  0  0  0  0  0
   59.4070   34.4057   49.3577 H   0  0  0  0  0  0  0  0  0  0  0  0
   60.8273   35.0205   48.3684 H   0  0  0  0  0  0  0  0  0  0  0  0
   57.8136   32.7568   48.1061 H   0  0  0  0  0  0  0  0  0  0  0  0
   56.4567   32.6077   46.0196 H   0  0  0  0  0  0  0  0  0  0  0  0
   57.1790   33.8310   43.9660 H   0  0  0  0  0  0  0  0  0  0  0  0
   59.2753   35.1852   43.9930 H   0  0  0  0  0  0  0  0  0  0  0  0
   60.6392   35.3392   46.0755 H   0  0  0  0  0  0  0  0  0  0  0  0
   61.2059   28.1396   46.6619 H   0  0  0  0  0  0  0  0  0  0  0  0
   59.8053   26.1214   46.2683 H   0  0  0  0  0  0  0  0  0  0  0  0
   55.4796   26.8221   46.5440 H   0  0  0  0  0  0  0  0  0  0  0  0
   54.0865   24.7916   46.1681 H   0  0  0  0  0  0  0  0  0  0  0  0
  1  2  1  0
  2  3  2  0
  3  4  1  0
  4  5  1  0
  5  6  2  0
  6  7  1  0
  7  8  2  0
  8  9  1  0
  9 10  1  0
 10 11  1  0
 11 12  1  0
 12 13  1  0
 13 14  1  0
 14 15  1  0
 15 16  2  0
 16 17  1  0
 17 18  2  0
 18 19  1  0
 19 20  2  0
 13 21  1  0
 21 22  2  0
  8 23  1  0
 23 24  2  0
  4 25  2  0
 25 26  1  0
 26 27  2  0
 27 28  1  0
 27  2  1  0
 24  5  1  0
 21 10  1  0
 20 15  1  0
  1 29  1  0
  1 30  1  0
  1 31  1  0
  3 32  1  0
  6 33  1  0
  7 34  1  0
  9 35  1  0
 10 36  1  6
 11 37  1  0
 11 38  1  0
 12 39  1  0
 12 40  1  0
 13 41  1  1
 14 42  1  0
 14 43  1  0
 16 44  1  0
 17 45  1  0
 18 46  1  0
 19 47  1  0
 20 48  1  0
 23 49  1  0
 24 50  1  0
 25 51  1  0
 26 52  1  0
M  CHG  1  13   1
M  END
>  <UniqueID>  (27) 
26

>  <SMILES>  (27) 
Cc1cc(-c2ccc(N[C@@H]3CC[N@H+](Cc4ccccc4)C3=O)cc2)ccc1F

>  <Energy>  (27) 
66.90676333234511

>  <Genealogy>  (27) 
Cc1cc(-c2ccc(NC3CC[NH+](Cc4ccccc4)C3=O)cc2)ccc1F (protonated)
Cc1cc(-c2ccc(N[C@@H]3CC[N@H+](Cc4ccccc4)C3=O)cc2)ccc1F (chirality)
Cc1cc(-c2ccc(N[C@@H]3CC[N@H+](Cc4ccccc4)C3=O)cc2)ccc1F (3D coordinates assigned)
Cc1cc(-c2ccc(N[C@@H]3CC[N@H+](Cc4ccccc4)C3=O)cc2)ccc1F (nonaromatic ring conformer: 66.90676333234511 kcal/mol)

>  <smiles>  (27) 
Cc1cc(-c2ccc(NC3CCN(Cc4ccccc4)C3=O)cc2)ccc1F

>  <score_type>  (27) 
oracle

>  <origin>  (27) 
adg

>  <m_score__min__energy>  (27) 
-7.46

>  <m_primary>  (27) 
energy

$$$$
27:0
     RDKit          3D

 49 52  0  0  0  0  0  0  0  0999 V2000
   56.5070   30.1160   42.8660 C   0  0  0  0  0  0  0  0  0  0  0  0
   55.5040   30.0490   44.0120 C   0  0  0  0  0  0  0  0  0  0  0  0
   55.8660   28.9620   44.9310 N   0  0  0  0  0  0  0  0  0  0  0  0
   57.2040   28.4140   44.6460 C   0  0  0  0  0  0  0  0  0  0  0  0
   58.2760   28.8860   45.6450 C   0  0  0  0  0  0  0  0  0  0  0  0
   57.7790   29.9680   46.4950 N   0  0  0  0  0  0  0  0  0  0  0  0
   58.6550   31.0370   46.8850 C   0  0  0  0  0  0  0  0  0  0  0  0
   58.6150   32.2660   46.2070 C   0  0  0  0  0  0  0  0  0  0  0  0
   57.7990   32.4450   45.0720 C   0  0  0  0  0  0  0  0  0  0  0  0
   57.7400   33.6800   44.4270 C   0  0  0  0  0  0  0  0  0  0  0  0
   58.4950   34.7480   44.8980 C   0  0  0  0  0  0  0  0  0  0  0  0
   59.3150   34.5900   46.0160 C   0  0  0  0  0  0  0  0  0  0  0  0
   59.3940   33.3470   46.6910 C   0  0  0  0  0  0  0  0  0  0  0  0
   60.1970   33.1800   47.8010 N   0  0  0  0  0  0  0  0  0  0  0  0
   60.5440   34.3740   48.6020 C   0  0  0  0  0  0  0  0  0  0  0  0
   60.4700   31.9060   48.2710 C   0  0  0  0  0  0  0  0  0  0  0  0
   59.5930   30.8450   47.9170 C   0  0  0  0  0  0  0  0  0  0  0  0
   59.6550   29.6240   48.6120 C   0  0  0  0  0  0  0  0  0  0  0  0
   60.6130   29.4130   49.5950 C   0  0  0  0  0  0  0  0  0  0  0  0
   61.6010   30.3690   49.8310 C   0  0  0  0  0  0  0  0  0  0  0  0
   62.6460   30.0800   50.7240 C   0  0  0  0  0  0  0  0  0  0  0  0
   63.7130   30.9640   50.8670 C   0  0  0  0  0  0  0  0  0  0  0  0
   63.7660   32.1210   50.0940 C   0  0  0  0  0  0  0  0  0  0  0  0
   62.7240   32.4290   49.2150 C   0  0  0  0  0  0  0  0  0  0  0  0
   61.5800   31.6030   49.1260 C   0  0  0  0  0  0  0  0  0  0  0  0
   57.5262   30.1841   43.2742 H   0  0  0  0  0  0  0  0  0  0  0  0
   56.4192   29.2100   42.2484 H   0  0  0  0  0  0  0  0  0  0  0  0
   56.2994   31.0023   42.2484 H   0  0  0  0  0  0  0  0  0  0  0  0
   55.5090   31.0043   44.5573 H   0  0  0  0  0  0  0  0  0  0  0  0
   54.5004   29.8587   43.6039 H   0  0  0  0  0  0  0  0  0  0  0  0
   55.1480   28.2020   44.8690 H   0  0  0  0  0  0  0  0  0  0  0  0
   57.1482   27.3161   44.6853 H   0  0  0  0  0  0  0  0  0  0  0  0
   57.5013   28.7762   43.6508 H   0  0  0  0  0  0  0  0  0  0  0  0
   58.5695   28.0380   46.2812 H   0  0  0  0  0  0  0  0  0  0  0  0
   59.1367   29.2641   45.0738 H   0  0  0  0  0  0  0  0  0  0  0  0
   56.7480   30.1190   46.5830 H   0  0  0  0  0  0  0  0  0  0  0  0
   57.2029   31.6025   44.6912 H   0  0  0  0  0  0  0  0  0  0  0  0
   57.0956   33.8092   43.5449 H   0  0  0  0  0  0  0  0  0  0  0  0
   58.4459   35.7212   44.3876 H   0  0  0  0  0  0  0  0  0  0  0  0
   59.9083   35.4425   46.3782 H   0  0  0  0  0  0  0  0  0  0  0  0
   60.4733   34.1307   49.6724 H   0  0  0  0  0  0  0  0  0  0  0  0
   61.5709   34.6890   48.3647 H   0  0  0  0  0  0  0  0  0  0  0  0
   59.8459   35.1903   48.3647 H   0  0  0  0  0  0  0  0  0  0  0  0
   58.9359   28.8263   48.3741 H   0  0  0  0  0  0  0  0  0  0  0  0
   60.5926   28.4881   50.1900 H   0  0  0  0  0  0  0  0  0  0  0  0
   62.6217   29.1514   51.3131 H   0  0  0  0  0  0  0  0  0  0  0  0
   64.5133   30.7482   51.5902 H   0  0  0  0  0  0  0  0  0  0  0  0
   64.6313   32.7952   50.1755 H   0  0  0  0  0  0  0  0  0  0  0  0
   62.7949   33.3268   48.5834 H   0  0  0  0  0  0  0  0  0  0  0  0
  1  2  1  0
  2  3  1  0
  3  4  1  0
  4  5  1  0
  5  6  1  0
  6  7  1  0
  7  8  2  0
  8  9  1  0
  9 10  2  0
 10 11  1  0
 11 12  2  0
 12 13  1  0
 13 14  2  0
 14 15  1  0
 14 16  1  0
 16 17  2  0
 17 18  1  0
 18 19  2  0
 19 20  1  0
 20 21  2  0
 21 22  1  0
 22 23  2  0
 23 24  1  0
 24 25  2  0
 17  7  1  0
 25 20  1  0
 13  8  1  0
 25 16  1  0
  1 26  1  0
  1 27  1  0
  1 28  1  0
  2 29  1  0
  2 30  1  0
  3 31  1  0
  4 32  1  0
  4 33  1  0
  5 34  1  0
  5 35  1  0
  6 36  1  0
  9 37  1  0
 10 38  1  0
 11 39  1  0
 12 40  1  0
 15 41  1  0
 15 42  1  0
 15 43  1  0
 18 44  1  0
 19 45  1  0
 21 46  1  0
 22 47  1  0
 23 48  1  0
 24 49  1  0
M  CHG  1  14   1
M  END
>  <UniqueID>  (28) 
27

>  <SMILES>  (28) 
CCNCCNc1c2ccccc2[n+](C)c2c1ccc1ccccc12

>  <Energy>  (28) 
89.7867414576251

>  <Genealogy>  (28) 
CCNCCNc1c2ccccc2[n+](C)c2c1ccc1ccccc12 (3D coordinates assigned)
CCNCCNc1c2ccccc2[n+](C)c2c1ccc1ccccc12 (optimized conformer: 89.7867414576251 kcal/mol)

>  <smiles>  (28) 
CCNCCNc1c2ccccc2[n+](C)c2c1ccc1ccccc12

>  <score_type>  (28) 
oracle

>  <origin>  (28) 
adg

>  <m_score__min__energy>  (28) 
-6.6500000000000004

>  <m_primary>  (28) 
energy

$$$$
28:0
     RDKit          3D

 30 32  0  0  0  0  0  0  0  0999 V2000
   55.1480   29.4020   44.8360 O   0  0  0  0  0  0  0  0  0  0  0  0
   56.3810   29.5420   44.9750 N   0  0  0  0  0  0  0  0  0  0  0  0
   57.0890   28.5590   45.6290 O   0  0  0  0  0  0  0  0  0  0  0  0
   57.0500   30.7130   44.4710 C   0  0  0  0  0  0  0  0  0  0  0  0
   57.1260   30.9470   43.0870 C   0  0  0  0  0  0  0  0  0  0  0  0
   57.7660   32.0870   42.5960 C   0  0  0  0  0  0  0  0  0  0  0  0
   58.3470   33.0010   43.4770 C   0  0  0  0  0  0  0  0  0  0  0  0
   58.3030   32.7750   44.8610 C   0  0  0  0  0  0  0  0  0  0  0  0
   58.9140   33.7590   45.7810 C   0  0  0  0  0  0  0  0  0  0  0  0
   58.9580   35.0820   45.5270 N   0  0  0  0  0  0  0  0  0  0  0  0
   59.4890   35.6140   46.6170 N   0  0  0  0  0  0  0  0  0  0  0  0
   59.7700   34.6810   47.5120 N   0  0  0  0  0  0  0  0  0  0  0  0
   59.4210   33.5090   47.0110 N   0  0  0  0  0  0  0  0  0  0  0  0
   59.6740   32.2550   47.6670 C   0  0  0  0  0  0  0  0  0  0  0  0
   60.6830   31.4070   47.1850 C   0  0  0  0  0  0  0  0  0  0  0  0
   60.9320   30.1790   47.8080 C   0  0  0  0  0  0  0  0  0  0  0  0
   60.1650   29.7830   48.9080 C   0  0  0  0  0  0  0  0  0  0  0  0
   60.4780   28.2450   49.6890 Cl  0  0  0  0  0  0  0  0  0  0  0  0
   59.1410   30.6130   49.3790 C   0  0  0  0  0  0  0  0  0  0  0  0
   58.8910   31.8390   48.7570 C   0  0  0  0  0  0  0  0  0  0  0  0
   57.6340   31.6420   45.3520 C   0  0  0  0  0  0  0  0  0  0  0  0
   56.6783   30.2272   42.3859 H   0  0  0  0  0  0  0  0  0  0  0  0
   57.8125   32.2654   41.5116 H   0  0  0  0  0  0  0  0  0  0  0  0
   58.8412   33.9019   43.0845 H   0  0  0  0  0  0  0  0  0  0  0  0
   59.6630   36.6330   46.7520 H   0  0  0  0  0  0  0  0  0  0  0  0
   61.2813   31.7093   46.3128 H   0  0  0  0  0  0  0  0  0  0  0  0
   61.7321   29.5244   47.4319 H   0  0  0  0  0  0  0  0  0  0  0  0
   58.5323   30.2997   50.2400 H   0  0  0  0  0  0  0  0  0  0  0  0
   58.0768   32.4819   49.1227 H   0  0  0  0  0  0  0  0  0  0  0  0
   57.5657   31.4789   46.4377 H   0  0  0  0  0  0  0  0  0  0  0  0
  1  2  2  0
  2  3  1  0
  2  4  1  0
  4  5  2  0
  5  6  1  0
  6  7  2  0
  7  8  1  0
  8  9  1  0
  9 10  2  0
 10 11  1  0
 11 12  2  0
 12 13  1  0
 13 14  1  0
 14 15  2  0
 15 16  1  0
 16 17  2  0
 17 18  1  0
 17 19  1  0
 19 20  2  0
  8 21  2  0
 21  4  1  0
 13  9  1  0
 20 14  1  0
  5 22  1  0
  6 23  1  0
  7 24  1  0
 11 25  1  0
 15 26  1  0
 16 27  1  0
 19 28  1  0
 20 29  1  0
 21 30  1  0
M  CHG  3   2   1   3  -1  11   1
M  END
>  <UniqueID>  (29) 
28

>  <SMILES>  (29) 
O=[N+]([O-])c1cccc(-c2n[nH+]nn2-c2ccc(Cl)cc2)c1

>  <Energy>  (29) 
82.36190380392843

>  <Genealogy>  (29) 
O=[N+]([O-])c1cccc(-c2n[nH+]nn2-c2ccc(Cl)cc2)c1 (protonated)
O=[N+]([O-])c1cccc(-c2n[nH+]nn2-c2ccc(Cl)cc2)c1 (3D coordinates assigned)
O=[N+]([O-])c1cccc(-c2n[nH+]nn2-c2ccc(Cl)cc2)c1 (optimized conformer: 82.36190380392843 kcal/mol)

>  <smiles>  (29) 
O=[N+]([O-])c1cccc(-c2nnnn2-c2ccc(Cl)cc2)c1

>  <score_type>  (29) 
oracle

>  <origin>  (29) 
adg

>  <m_score__min__energy>  (29) 
-6.9800000000000004

>  <m_primary>  (29) 
energy

$$$$
29:0
     RDKit          3D

 45 47  0  0  0  0  0  0  0  0999 V2000
   56.6630   30.7560   42.3260 C   0  0  0  0  0  0  0  0  0  0  0  0
   57.4430   31.8050   43.1240 C   0  0  0  0  0  0  0  0  0  0  0  0
   57.3700   31.6310   44.6580 C   0  0  1  0  0  0  0  0  0  0  0  0
   57.6940   30.2590   45.0660 N   0  0  0  0  0  0  0  0  0  0  0  0
   56.6850   29.2480   45.2120 C   0  0  0  0  0  0  0  0  0  0  0  0
   55.4930   29.4880   44.8810 O   0  0  0  0  0  0  0  0  0  0  0  0
   57.0560   27.8850   45.7170 C   0  0  2  0  0  0  0  0  0  0  0  0
   58.2460   27.3140   44.9270 C   0  0  0  0  0  0  0  0  0  0  0  0
   58.4620   25.9470   45.2840 O   0  0  0  0  0  0  0  0  0  0  0  0
   57.3860   25.0810   45.5060 C   0  0  0  0  0  0  0  0  0  0  0  0
   57.5830   23.6980   45.5830 C   0  0  0  0  0  0  0  0  0  0  0  0
   56.4880   22.8490   45.7760 C   0  0  0  0  0  0  0  0  0  0  0  0
   55.1980   23.3830   45.8950 C   0  0  0  0  0  0  0  0  0  0  0  0
   55.0020   24.7670   45.8330 C   0  0  0  0  0  0  0  0  0  0  0  0
   56.0990   25.6160   45.6550 C   0  0  0  0  0  0  0  0  0  0  0  0
   55.9320   27.0040   45.6210 O   0  0  0  0  0  0  0  0  0  0  0  0
   58.2160   32.6670   45.3910 C   0  0  0  0  0  0  0  0  0  0  0  0
   58.2960   33.9650   44.8520 C   0  0  0  0  0  0  0  0  0  0  0  0
   59.0670   34.9490   45.4690 C   0  0  0  0  0  0  0  0  0  0  0  0
   59.7790   34.6520   46.6300 C   0  0  0  0  0  0  0  0  0  0  0  0
   59.7290   33.3680   47.1740 C   0  0  0  0  0  0  0  0  0  0  0  0
   58.9560   32.3590   46.5610 C   0  0  0  0  0  0  0  0  0  0  0  0
   58.9110   31.0570   47.0850 O   0  0  0  0  0  0  0  0  0  0  0  0
   60.0070   30.3890   47.7000 C   0  0  0  0  0  0  0  0  0  0  0  0
   56.1538   30.0712   43.0201 H   0  0  0  0  0  0  0  0  0  0  0  0
   55.9167   31.2576   41.6924 H   0  0  0  0  0  0  0  0  0  0  0  0
   57.3582   30.1858   41.6924 H   0  0  0  0  0  0  0  0  0  0  0  0
   58.4994   31.7501   42.8223 H   0  0  0  0  0  0  0  0  0  0  0  0
   56.9799   32.7768   42.8979 H   0  0  0  0  0  0  0  0  0  0  0  0
   56.3264   31.8124   44.9547 H   0  0  0  0  0  0  0  0  0  0  0  0
   58.6900   29.9830   45.2180 H   0  0  0  0  0  0  0  0  0  0  0  0
   57.3539   27.9749   46.7721 H   0  0  0  0  0  0  0  0  0  0  0  0
   58.0326   27.3794   43.8499 H   0  0  0  0  0  0  0  0  0  0  0  0
   59.1488   27.8954   45.1657 H   0  0  0  0  0  0  0  0  0  0  0  0
   58.5961   23.2793   45.4920 H   0  0  0  0  0  0  0  0  0  0  0  0
   56.6398   21.7611   45.8344 H   0  0  0  0  0  0  0  0  0  0  0  0
   54.3375   22.7127   46.0375 H   0  0  0  0  0  0  0  0  0  0  0  0
   53.9889   25.1857   45.9239 H   0  0  0  0  0  0  0  0  0  0  0  0
   57.7430   34.2059   43.9321 H   0  0  0  0  0  0  0  0  0  0  0  0
   59.1135   35.9606   45.0394 H   0  0  0  0  0  0  0  0  0  0  0  0
   60.3818   35.4317   47.1185 H   0  0  0  0  0  0  0  0  0  0  0  0
   60.2968   33.1404   48.0882 H   0  0  0  0  0  0  0  0  0  0  0  0
   59.9067   30.4501   48.7937 H   0  0  0  0  0  0  0  0  0  0  0  0
   60.0133   29.3334   47.3908 H   0  0  0  0  0  0  0  0  0  0  0  0
   60.9481   30.8672   47.3908 H   0  0  0  0  0  0  0  0  0  0  0  0
  1  2  1  0
  2  3  1  0
  3  4  1  0
  4  5  1  0
  5  6  2  0
  5  7  1  0
  7  8  1  0
  8  9  1  0
  9 10  1  0
 10 11  2  0
 11 12  1  0
 12 13  2  0
 13 14  1  0
 14 15  2  0
 15 16  1  0
  3 17  1  0
 17 18  2  0
 18 19  1  0
 19 20  2  0
 20 21  1  0
 21 22  2  0
 22 23  1  0
 23 24  1  0
 16  7  1  0
 22 17  1  0
 15 10  1  0
  1 25  1  0
  1 26  1  0
  1 27  1  0
  2 28  1  0
  2 29  1  0
  3 30  1  1
  4 31  1  0
  7 32  1  1
  8 33  1  0
  8 34  1  0
 11 35  1  0
 12 36  1  0
 13 37  1  0
 14 38  1  0
 18 39  1  0
 19 40  1  0
 20 41  1  0
 21 42  1  0
 24 43  1  0
 24 44  1  0
 24 45  1  0
M  END
>  <UniqueID>  (30) 
29

>  <SMILES>  (30) 
CC[C@@H](NC(=O)[C@@H]1COc2ccccc2O1)c1ccccc1OC

>  <Energy>  (30) 
43.62553565621433

>  <Genealogy>  (30) 
CC[C@@H](NC(=O)[C@@H]1COc2ccccc2O1)c1ccccc1OC (chirality)
CC[C@@H](NC(=O)[C@@H]1COc2ccccc2O1)c1ccccc1OC (3D coordinates assigned)
CC[C@@H](NC(=O)[C@@H]1COc2ccccc2O1)c1ccccc1OC (nonaromatic ring conformer: 43.62553565621433 kcal/mol)

>  <smiles>  (30) 
CCC(NC(=O)C1COc2ccccc2O1)c1ccccc1OC

>  <score_type>  (30) 
oracle

>  <origin>  (30) 
adg

>  <m_score__min__energy>  (30) 
-7.5800000000000001

>  <m_primary>  (30) 
energy

$$$$
30:0
     RDKit          3D

 49 51  0  0  0  0  0  0  0  0999 V2000
   57.9250   24.3510   46.5100 C   0  0  0  0  0  0  0  0  0  0  0  0
   59.1850   24.9910   45.9370 C   0  0  0  0  0  0  0  0  0  0  0  0
   59.5780   26.1620   46.7550 N   0  0  0  0  0  0  0  0  0  0  0  0
   58.4190   26.8250   47.3840 C   0  0  0  0  0  0  0  0  0  0  0  0
   57.5060   27.5190   46.3510 C   0  0  0  0  0  0  0  0  0  0  0  0
   58.2170   27.7800   45.0820 N   0  0  0  0  0  0  0  0  0  0  0  0
   57.4570   28.6450   44.1540 C   0  0  0  0  0  0  0  0  0  0  0  0
   56.7540   29.8010   44.8350 C   0  0  0  0  0  0  0  0  0  0  0  0
   55.5540   30.0480   44.5440 O   0  0  0  0  0  0  0  0  0  0  0  0
   57.3930   30.5940   45.8450 N   0  0  0  0  0  0  0  0  0  0  0  0
   57.9150   31.9150   45.6580 C   0  0  0  0  0  0  0  0  0  0  0  0
   57.7470   32.5330   44.4110 C   0  0  0  0  0  0  0  0  0  0  0  0
   58.2410   33.8200   44.1880 C   0  0  0  0  0  0  0  0  0  0  0  0
   58.9290   34.4900   45.2020 C   0  0  0  0  0  0  0  0  0  0  0  0
   59.1370   33.8680   46.4350 C   0  0  0  0  0  0  0  0  0  0  0  0
   58.6500   32.5750   46.6660 C   0  0  0  0  0  0  0  0  0  0  0  0
   59.0370   31.7760   48.2320 S   0  0  0  0  0  0  0  0  0  0  0  0
   60.7530   32.2940   48.1850 C   0  0  0  0  0  0  0  0  0  0  0  0
   61.6870   31.5620   47.4390 C   0  0  0  0  0  0  0  0  0  0  0  0
   63.0260   31.9630   47.4070 C   0  0  0  0  0  0  0  0  0  0  0  0
   63.4340   33.0970   48.1160 C   0  0  0  0  0  0  0  0  0  0  0  0
   62.5030   33.8320   48.8560 C   0  0  0  0  0  0  0  0  0  0  0  0
   61.1630   33.4330   48.8900 C   0  0  0  0  0  0  0  0  0  0  0  0
   59.5960   28.2370   45.3090 C   0  0  0  0  0  0  0  0  0  0  0  0
   60.4170   27.1300   46.0050 C   0  0  0  0  0  0  0  0  0  0  0  0
   57.9695   24.3736   47.6089 H   0  0  0  0  0  0  0  0  0  0  0  0
   57.0416   24.9096   46.1672 H   0  0  0  0  0  0  0  0  0  0  0  0
   57.8551   23.3081   46.1672 H   0  0  0  0  0  0  0  0  0  0  0  0
   60.0015   24.2539   45.9408 H   0  0  0  0  0  0  0  0  0  0  0  0
   58.9845   25.3219   44.9073 H   0  0  0  0  0  0  0  0  0  0  0  0
   57.8302   26.0693   47.9245 H   0  0  0  0  0  0  0  0  0  0  0  0
   58.8039   27.5987   48.0647 H   0  0  0  0  0  0  0  0  0  0  0  0
   56.6404   26.8712   46.1481 H   0  0  0  0  0  0  0  0  0  0  0  0
   57.1859   28.4845   46.7698 H   0  0  0  0  0  0  0  0  0  0  0  0
   58.1561   29.0539   43.4096 H   0  0  0  0  0  0  0  0  0  0  0  0
   56.6764   28.0185   43.6979 H   0  0  0  0  0  0  0  0  0  0  0  0
   57.2229   32.0010   43.6033 H   0  0  0  0  0  0  0  0  0  0  0  0
   58.0882   34.3063   43.2132 H   0  0  0  0  0  0  0  0  0  0  0  0
   59.3073   35.5084   45.0294 H   0  0  0  0  0  0  0  0  0  0  0  0
   59.6859   34.3960   47.2287 H   0  0  0  0  0  0  0  0  0  0  0  0
   61.3663   30.6715   46.8784 H   0  0  0  0  0  0  0  0  0  0  0  0
   63.7589   31.3861   46.8238 H   0  0  0  0  0  0  0  0  0  0  0  0
   64.4880   33.4110   48.0915 H   0  0  0  0  0  0  0  0  0  0  0  0
   62.8247   34.7249   49.4120 H   0  0  0  0  0  0  0  0  0  0  0  0
   60.4309   34.0136   49.4704 H   0  0  0  0  0  0  0  0  0  0  0  0
   60.0614   28.4814   44.3428 H   0  0  0  0  0  0  0  0  0  0  0  0
   59.5772   29.1285   45.9531 H   0  0  0  0  0  0  0  0  0  0  0  0
   60.9834   26.5809   45.2385 H   0  0  0  0  0  0  0  0  0  0  0  0
   61.0773   27.6228   46.7338 H   0  0  0  0  0  0  0  0  0  0  0  0
  1  2  1  0
  2  3  1  0
  3  4  1  0
  4  5  1  0
  5  6  1  0
  6  7  1  0
  7  8  1  0
  8  9  2  0
  8 10  1  0
 10 11  1  0
 11 12  2  0
 12 13  1  0
 13 14  2  0
 14 15  1  0
 15 16  2  0
 16 17  1  0
 17 18  1  0
 18 19  2  0
 19 20  1  0
 20 21  2  0
 21 22  1  0
 22 23  2  0
  6 24  1  0
 24 25  1  0
 25  3  1  0
 16 11  1  0
 23 18  1  0
  1 26  1  0
  1 27  1  0
  1 28  1  0
  2 29  1  0
  2 30  1  0
  4 31  1  0
  4 32  1  0
  5 33  1  0
  5 34  1  0
  7 35  1  0
  7 36  1  0
 12 37  1  0
 13 38  1  0
 14 39  1  0
 15 40  1  0
 19 41  1  0
 20 42  1  0
 21 43  1  0
 22 44  1  0
 23 45  1  0
 24 46  1  0
 24 47  1  0
 25 48  1  0
 25 49  1  0
M  CHG  1  10  -1
M  END
>  <UniqueID>  (31) 
30

>  <SMILES>  (31) 
CCN1CCN(CC(=O)[N-]c2ccccc2Sc2ccccc2)CC1

>  <Energy>  (31) 
63.55295004461866

>  <Genealogy>  (31) 
CCN1CCN(CC(=O)[N-]c2ccccc2Sc2ccccc2)CC1 (protonated)
CCN1CCN(CC(=O)[N-]c2ccccc2Sc2ccccc2)CC1 (3D coordinates assigned)
CCN1CCN(CC(=O)[N-]c2ccccc2Sc2ccccc2)CC1 (nonaromatic ring conformer: 63.55295004461866 kcal/mol)

>  <smiles>  (31) 
CCN1CCN(CC(=O)Nc2ccccc2Sc2ccccc2)CC1

>  <score_type>  (31) 
oracle

>  <origin>  (31) 
adg

>  <m_score__min__energy>  (31) 
-10.31

>  <m_primary>  (31) 
energy

$$$$
31:0
     RDKit          3D

 36 38  0  0  0  0  0  0  0  0999 V2000
   54.5850   23.6440   44.9960 C   0  0  0  0  0  0  0  0  0  0  0  0
   55.4390   24.8070   45.3730 C   0  0  0  0  0  0  0  0  0  0  0  0
   54.9700   25.9050   45.9960 N   0  0  0  0  0  0  0  0  0  0  0  0
   55.9960   26.6940   46.0930 O   0  0  0  0  0  0  0  0  0  0  0  0
   57.0410   26.1240   45.5490 C   0  0  0  0  0  0  0  0  0  0  0  0
   58.4010   26.7440   45.4870 C   0  0  0  0  0  0  0  0  0  0  0  0
   58.2950   28.1850   45.1850 N   0  0  0  0  0  0  0  0  0  0  0  0
   57.3960   28.4070   44.0310 C   0  0  0  0  0  0  0  0  0  0  0  0
   56.8940   29.8650   43.9160 C   0  0  0  0  0  0  0  0  0  0  0  0
   57.7070   30.7950   44.7150 N   0  0  0  0  0  0  0  0  0  0  0  0
   58.0080   32.1180   44.2140 C   0  0  0  0  0  0  0  0  0  0  0  0
   57.7600   32.4090   43.0120 O   0  0  0  0  0  0  0  0  0  0  0  0
   58.6720   33.1500   45.0850 C   0  0  0  0  0  0  0  0  0  0  0  0
   57.7440   33.8120   46.0940 C   0  0  0  0  0  0  0  0  0  0  0  0
   58.2070   34.5850   44.8740 C   0  0  0  0  0  0  0  0  0  0  0  0
   58.0690   30.4330   46.0950 C   0  0  0  0  0  0  0  0  0  0  0  0
   57.8340   28.9470   46.3580 C   0  0  0  0  0  0  0  0  0  0  0  0
   56.7470   24.9040   45.0580 N   0  0  0  0  0  0  0  0  0  0  0  0
   54.2199   23.1467   45.9067 H   0  0  0  0  0  0  0  0  0  0  0  0
   53.7287   23.9953   44.4016 H   0  0  0  0  0  0  0  0  0  0  0  0
   55.1765   22.9321   44.4016 H   0  0  0  0  0  0  0  0  0  0  0  0
   58.9040   26.6127   46.4564 H   0  0  0  0  0  0  0  0  0  0  0  0
   58.9812   26.2539   44.6913 H   0  0  0  0  0  0  0  0  0  0  0  0
   57.9410   28.1521   43.1102 H   0  0  0  0  0  0  0  0  0  0  0  0
   56.5119   27.7697   44.1804 H   0  0  0  0  0  0  0  0  0  0  0  0
   56.9372   30.1728   42.8608 H   0  0  0  0  0  0  0  0  0  0  0  0
   55.8638   29.8998   44.3001 H   0  0  0  0  0  0  0  0  0  0  0  0
   59.6514   32.6508   45.1244 H   0  0  0  0  0  0  0  0  0  0  0  0
   56.6963   33.4863   46.1732 H   0  0  0  0  0  0  0  0  0  0  0  0
   57.7733   33.9842   47.1800 H   0  0  0  0  0  0  0  0  0  0  0  0
   57.4950   34.8194   44.0689 H   0  0  0  0  0  0  0  0  0  0  0  0
   58.7107   35.5490   44.7098 H   0  0  0  0  0  0  0  0  0  0  0  0
   59.1324   30.6622   46.2585 H   0  0  0  0  0  0  0  0  0  0  0  0
   57.4361   31.0121   46.7835 H   0  0  0  0  0  0  0  0  0  0  0  0
   58.3986   28.6342   47.2487 H   0  0  0  0  0  0  0  0  0  0  0  0
   56.7640   28.7601   46.5315 H   0  0  0  0  0  0  0  0  0  0  0  0
  1  2  1  0
  2  3  2  0
  3  4  1  0
  4  5  1  0
  5  6  1  0
  6  7  1  0
  7  8  1  0
  8  9  1  0
  9 10  1  0
 10 11  1  0
 11 12  2  0
 11 13  1  0
 13 14  1  0
 14 15  1  0
 10 16  1  0
 16 17  1  0
  5 18  2  0
 18  2  1  0
 17  7  1  0
 15 13  1  0
  1 19  1  0
  1 20  1  0
  1 21  1  0
  6 22  1  0
  6 23  1  0
  8 24  1  0
  8 25  1  0
  9 26  1  0
  9 27  1  0
 13 28  1  0
 14 29  1  0
 14 30  1  0
 15 31  1  0
 15 32  1  0
 16 33  1  0
 16 34  1  0
 17 35  1  0
 17 36  1  0
M  END
>  <UniqueID>  (32) 
31

>  <SMILES>  (32) 
Cc1noc(CN2CCN(C(=O)C3CC3)CC2)n1

>  <Energy>  (32) 
335.37111238250105

>  <Genealogy>  (32) 
Cc1noc(CN2CCN(C(=O)C3CC3)CC2)n1 (3D coordinates assigned)
Cc1noc(CN2CCN(C(=O)C3CC3)CC2)n1 (nonaromatic ring conformer: 335.37111238250105 kcal/mol)

>  <smiles>  (32) 
Cc1noc(CN2CCN(C(=O)C3CC3)CC2)n1

>  <score_type>  (32) 
oracle

>  <origin>  (32) 
adg

>  <m_score__min__energy>  (32) 
-7.1100000000000003

>  <m_primary>  (32) 
energy

$$$$
32:0
     RDKit          3D

 64 67  0  0  0  0  0  0  0  0999 V2000
   63.3730   33.5880   46.7710 C   0  0  0  0  0  0  0  0  0  0  0  0
   63.0380   32.4540   47.7400 C   0  0  0  0  0  0  0  0  0  0  0  0
   62.0490   31.4390   47.1450 C   0  0  0  0  0  0  0  0  0  0  0  0
   61.1760   30.7680   48.2170 C   0  0  0  0  0  0  0  0  0  0  0  0
   59.7390   30.8550   47.8680 N   0  0  0  0  0  0  0  0  0  0  0  0
   59.1570   32.2080   48.0450 C   0  0  0  0  0  0  0  0  0  0  0  0
   57.9170   32.4800   47.1680 C   0  0  0  0  0  0  0  0  0  0  0  0
   57.8470   33.9190   46.8200 N   0  0  0  0  0  0  0  0  0  0  0  0
   59.1270   34.6230   47.0540 C   0  0  0  0  0  0  0  0  0  0  0  0
   60.1420   34.3720   45.9200 C   0  0  0  0  0  0  0  0  0  0  0  0
   59.5890   34.6890   44.6580 O   0  0  0  0  0  0  0  0  0  0  0  0
   58.4670   33.8670   44.4140 C   0  0  0  0  0  0  0  0  0  0  0  0
   57.3650   34.1520   45.4430 C   0  0  0  0  0  0  0  0  0  0  0  0
   58.9450   29.8110   48.5550 C   0  0  0  0  0  0  0  0  0  0  0  0
   59.6880   28.5070   48.5920 C   0  0  0  0  0  0  0  0  0  0  0  0
   60.3590   28.1730   49.6040 O   0  0  0  0  0  0  0  0  0  0  0  0
   59.6010   27.6150   47.4820 N   0  0  0  0  0  0  0  0  0  0  0  0
   58.6230   26.6710   46.9130 C   0  0  1  0  0  0  0  0  0  0  0  0
   57.4210   27.4690   46.3470 C   0  0  0  0  0  0  0  0  0  0  0  0
   57.7140   28.3030   45.0590 C   0  0  1  0  0  0  0  0  0  0  0  0
   56.6430   29.3700   44.8130 C   0  0  0  0  0  0  0  0  0  0  0  0
   57.3830   30.5500   44.1890 C   0  0  0  0  0  0  0  0  0  0  0  0
   58.8370   30.4090   44.6220 C   0  0  0  0  0  0  0  0  0  0  0  0
   58.9840   29.0370   45.0800 N   0  0  0  0  0  0  0  0  0  0  0  0
   60.2760   28.4410   45.3270 C   0  0  0  0  0  0  0  0  0  0  0  0
   61.3130   28.9310   44.8100 O   0  0  0  0  0  0  0  0  0  0  0  0
   60.3940   27.2860   46.2850 C   0  0  2  0  0  0  0  0  0  0  0  0
   59.5480   26.1210   45.8630 C   0  0  0  0  0  0  0  0  0  0  0  0
   63.6396   34.4904   47.3407 H   0  0  0  0  0  0  0  0  0  0  0  0
   64.2216   33.2903   46.1375 H   0  0  0  0  0  0  0  0  0  0  0  0
   62.4989   33.7992   46.1375 H   0  0  0  0  0  0  0  0  0  0  0  0
   63.9680   31.9278   48.0011 H   0  0  0  0  0  0  0  0  0  0  0  0
   62.5624   32.9023   48.6248 H   0  0  0  0  0  0  0  0  0  0  0  0
   61.3934   31.9615   46.4328 H   0  0  0  0  0  0  0  0  0  0  0  0
   62.6364   30.6506   46.6516 H   0  0  0  0  0  0  0  0  0  0  0  0
   61.4615   29.7090   48.3012 H   0  0  0  0  0  0  0  0  0  0  0  0
   61.3349   31.2893   49.1725 H   0  0  0  0  0  0  0  0  0  0  0  0
   58.8664   32.3238   49.0996 H   0  0  0  0  0  0  0  0  0  0  0  0
   59.9286   32.9282   47.7354 H   0  0  0  0  0  0  0  0  0  0  0  0
   57.9860   31.8852   46.2453 H   0  0  0  0  0  0  0  0  0  0  0  0
   57.0117   32.1995   47.7263 H   0  0  0  0  0  0  0  0  0  0  0  0
   58.9306   35.7032   47.1218 H   0  0  0  0  0  0  0  0  0  0  0  0
   59.5603   34.2371   47.9885 H   0  0  0  0  0  0  0  0  0  0  0  0
   61.0308   34.9975   46.0894 H   0  0  0  0  0  0  0  0  0  0  0  0
   60.4111   33.3054   45.9238 H   0  0  0  0  0  0  0  0  0  0  0  0
   58.0815   34.0694   43.4038 H   0  0  0  0  0  0  0  0  0  0  0  0
   58.7705   32.8130   44.4970 H   0  0  0  0  0  0  0  0  0  0  0  0
   57.0467   35.2005   45.3468 H   0  0  0  0  0  0  0  0  0  0  0  0
   56.5226   33.4717   45.2489 H   0  0  0  0  0  0  0  0  0  0  0  0
   58.7379   30.1363   49.5852 H   0  0  0  0  0  0  0  0  0  0  0  0
   58.0061   29.6637   48.0012 H   0  0  0  0  0  0  0  0  0  0  0  0
   58.1440   25.9194   47.5577 H   0  0  0  0  0  0  0  0  0  0  0  0
   56.6194   26.7532   46.1122 H   0  0  0  0  0  0  0  0  0  0  0  0
   57.1502   28.1988   47.1242 H   0  0  0  0  0  0  0  0  0  0  0  0
   57.7384   27.5342   44.2727 H   0  0  0  0  0  0  0  0  0  0  0  0
   55.8730   28.9911   44.1248 H   0  0  0  0  0  0  0  0  0  0  0  0
   56.1281   29.6550   45.7424 H   0  0  0  0  0  0  0  0  0  0  0  0
   57.3053   30.5134   43.0924 H   0  0  0  0  0  0  0  0  0  0  0  0
   56.9568   31.5107   44.5138 H   0  0  0  0  0  0  0  0  0  0  0  0
   59.5097   30.6035   43.7736 H   0  0  0  0  0  0  0  0  0  0  0  0
   59.0951   31.1290   45.4126 H   0  0  0  0  0  0  0  0  0  0  0  0
   61.4722   27.0904   46.3810 H   0  0  0  0  0  0  0  0  0  0  0  0
   59.1715   26.1529   44.8299 H   0  0  0  0  0  0  0  0  0  0  0  0
   59.8982   25.0789   45.8270 H   0  0  0  0  0  0  0  0  0  0  0  0
  1  2  1  0
  2  3  1  0
  3  4  1  0
  4  5  1  0
  5  6  1  0
  6  7  1  0
  7  8  1  0
  8  9  1  0
  9 10  1  0
 10 11  1  0
 11 12  1  0
 12 13  1  0
  5 14  1  0
 14 15  1  0
 15 16  2  0
 15 17  1  0
 17 18  1  0
 18 19  1  0
 19 20  1  0
 20 21  1  0
 21 22  1  0
 22 23  1  0
 23 24  1  0
 24 25  1  0
 25 26  2  0
 25 27  1  0
 27 28  1  0
 13  8  1  0
 27 17  1  0
 28 18  1  0
 24 20  1  0
  1 29  1  0
  1 30  1  0
  1 31  1  0
  2 32  1  0
  2 33  1  0
  3 34  1  0
  3 35  1  0
  4 36  1  0
  4 37  1  0
  6 38  1  0
  6 39  1  0
  7 40  1  0
  7 41  1  0
  9 42  1  0
  9 43  1  0
 10 44  1  0
 10 45  1  0
 12 46  1  0
 12 47  1  0
 13 48  1  0
 13 49  1  0
 14 50  1  0
 14 51  1  0
 18 52  1  1
 19 53  1  0
 19 54  1  0
 20 55  1  6
 21 56  1  0
 21 57  1  0
 22 58  1  0
 22 59  1  0
 23 60  1  0
 23 61  1  0
 27 62  1  1
 28 63  1  0
 28 64  1  0
M  END
>  <UniqueID>  (33) 
32

>  <SMILES>  (33) 
CCCCN(CCN1CCOCC1)CC(=O)N1C2C[C@@H]1C[C@H]1CCCN1C2=O

>  <Energy>  (33) 
125.02230009332784

>  <Genealogy>  (33) 
CCCCN(CCN1CCOCC1)CC(=O)N1C2C[C@@H]1C[C@H]1CCCN1C2=O (chirality)
CCCCN(CCN1CCOCC1)CC(=O)N1C2C[C@@H]1C[C@H]1CCCN1C2=O (3D coordinates assigned)
CCCCN(CCN1CCOCC1)CC(=O)N1C2C[C@@H]1C[C@H]1CCCN1C2=O (nonaromatic ring conformer: 125.02230009332784 kcal/mol)

>  <smiles>  (33) 
CCCCN(CCN1CCOCC1)CC(=O)N1C2CC3CCCN3C(=O)C1C2

>  <score_type>  (33) 
oracle

>  <origin>  (33) 
adg

>  <m_score__min__energy>  (33) 
-6.21

>  <m_primary>  (33) 
energy

$$$$
33:0
     RDKit          3D

 48 50  0  0  0  0  0  0  0  0999 V2000
   63.7680   30.9610   50.9110 C   0  0  0  0  0  0  0  0  0  0  0  0
   62.9480   30.8670   49.7510 O   0  0  0  0  0  0  0  0  0  0  0  0
   62.8810   31.8420   48.7410 C   0  0  0  0  0  0  0  0  0  0  0  0
   63.8090   32.9010   48.6730 C   0  0  0  0  0  0  0  0  0  0  0  0
   63.6970   33.8760   47.6790 C   0  0  0  0  0  0  0  0  0  0  0  0
   62.6620   33.8100   46.7460 C   0  0  0  0  0  0  0  0  0  0  0  0
   61.7380   32.7660   46.7990 C   0  0  0  0  0  0  0  0  0  0  0  0
   61.8430   31.7710   47.7870 C   0  0  0  0  0  0  0  0  0  0  0  0
   60.8590   30.6690   47.8240 C   0  0  0  0  0  0  0  0  0  0  0  0
   59.8050   30.6760   48.7410 C   0  0  0  0  0  0  0  0  0  0  0  0
   58.9200   29.6050   48.7670 C   0  0  0  0  0  0  0  0  0  0  0  0
   59.0910   28.5540   47.8660 C   0  0  0  0  0  0  0  0  0  0  0  0
   58.2950   27.5750   47.9010 O   0  0  0  0  0  0  0  0  0  0  0  0
   60.1170   28.5970   46.9580 N   0  0  0  0  0  0  0  0  0  0  0  0
   60.3210   27.5180   45.9840 C   0  0  0  0  0  0  0  0  0  0  0  0
   59.1800   27.4820   44.9530 C   0  0  0  0  0  0  0  0  0  0  0  0
   58.8110   28.8780   44.4420 C   0  0  0  0  0  0  0  0  0  0  0  0
   57.6090   29.3510   45.1270 N   0  0  0  0  0  0  0  0  0  0  0  0
   57.0150   30.8000   44.3740 S   0  0  0  0  0  0  0  0  0  0  0  0
   55.5180   30.8430   44.5050 O   0  0  0  0  0  0  0  0  0  0  0  0
   57.3730   30.7760   42.9160 O   0  0  0  0  0  0  0  0  0  0  0  0
   57.7350   32.2300   45.1110 C   0  0  0  0  0  0  0  0  0  0  0  0
   58.2330   33.2590   44.3010 C   0  0  0  0  0  0  0  0  0  0  0  0
   58.8060   34.3950   44.8810 C   0  0  0  0  0  0  0  0  0  0  0  0
   58.8750   34.5120   46.2730 C   0  0  0  0  0  0  0  0  0  0  0  0
   59.4300   35.6150   46.8340 F   0  0  0  0  0  0  0  0  0  0  0  0
   58.3660   33.4950   47.0850 C   0  0  0  0  0  0  0  0  0  0  0  0
   57.7930   32.3580   46.5070 C   0  0  0  0  0  0  0  0  0  0  0  0
   60.9750   29.6240   46.9600 N   0  0  0  0  0  0  0  0  0  0  0  0
   63.1397   30.8890   51.8110 H   0  0  0  0  0  0  0  0  0  0  0  0
   64.5012   30.1410   50.9091 H   0  0  0  0  0  0  0  0  0  0  0  0
   64.2967   31.9256   50.9091 H   0  0  0  0  0  0  0  0  0  0  0  0
   64.6261   32.9599   49.4070 H   0  0  0  0  0  0  0  0  0  0  0  0
   64.4267   34.6978   47.6318 H   0  0  0  0  0  0  0  0  0  0  0  0
   62.5743   34.5821   45.9675 H   0  0  0  0  0  0  0  0  0  0  0  0
   60.9218   32.7210   46.0629 H   0  0  0  0  0  0  0  0  0  0  0  0
   59.6771   31.5200   49.4348 H   0  0  0  0  0  0  0  0  0  0  0  0
   58.0923   29.5862   49.4913 H   0  0  0  0  0  0  0  0  0  0  0  0
   61.2741   27.6821   45.4599 H   0  0  0  0  0  0  0  0  0  0  0  0
   60.3369   26.5588   46.5223 H   0  0  0  0  0  0  0  0  0  0  0  0
   59.4951   26.8649   44.0987 H   0  0  0  0  0  0  0  0  0  0  0  0
   58.2930   27.0608   45.4488 H   0  0  0  0  0  0  0  0  0  0  0  0
   59.6417   29.5714   44.6401 H   0  0  0  0  0  0  0  0  0  0  0  0
   58.6193   28.8312   43.3598 H   0  0  0  0  0  0  0  0  0  0  0  0
   58.1731   33.1730   43.2060 H   0  0  0  0  0  0  0  0  0  0  0  0
   59.2029   35.1975   44.2418 H   0  0  0  0  0  0  0  0  0  0  0  0
   58.4161   33.5890   48.1798 H   0  0  0  0  0  0  0  0  0  0  0  0
   57.3867   31.5620   47.1483 H   0  0  0  0  0  0  0  0  0  0  0  0
  1  2  1  0
  2  3  1  0
  3  4  2  0
  4  5  1  0
  5  6  2  0
  6  7  1  0
  7  8  2  0
  8  9  1  0
  9 10  1  0
 10 11  2  0
 11 12  1  0
 12 13  2  0
 12 14  1  0
 14 15  1  0
 15 16  1  0
 16 17  1  0
 17 18  1  0
 18 19  1  0
 19 20  2  0
 19 21  2  0
 19 22  1  0
 22 23  2  0
 23 24  1  0
 24 25  2  0
 25 26  1  0
 25 27  1  0
 27 28  2  0
 14 29  1  0
  8  3  1  0
 29  9  2  0
 28 22  1  0
  1 30  1  0
  1 31  1  0
  1 32  1  0
  4 33  1  0
  5 34  1  0
  6 35  1  0
  7 36  1  0
 10 37  1  0
 11 38  1  0
 15 39  1  0
 15 40  1  0
 16 41  1  0
 16 42  1  0
 17 43  1  0
 17 44  1  0
 23 45  1  0
 24 46  1  0
 27 47  1  0
 28 48  1  0
M  CHG  1  18  -1
M  END
>  <UniqueID>  (34) 
33

>  <SMILES>  (34) 
COc1ccccc1-c1ccc(=O)n(CCC[N-]S(=O)(=O)c2ccc(F)cc2)n1

>  <Energy>  (34) 
50.283733617423934

>  <Genealogy>  (34) 
COc1ccccc1-c1ccc(=O)n(CCC[N-]S(=O)(=O)c2ccc(F)cc2)n1 (protonated)
COc1ccccc1-c1ccc(=O)n(CCC[N-]S(=O)(=O)c2ccc(F)cc2)n1 (3D coordinates assigned)
COc1ccccc1-c1ccc(=O)n(CCC[N-]S(=O)(=O)c2ccc(F)cc2)n1 (optimized conformer: 50.283733617423934 kcal/mol)

>  <smiles>  (34) 
COc1ccccc1-c1ccc(=O)n(CCCNS(=O)(=O)c2ccc(F)cc2)n1

>  <score_type>  (34) 
oracle

>  <origin>  (34) 
adg

>  <m_score__min__energy>  (34) 
-10.449999999999999

>  <m_primary>  (34) 
energy

$$$$
34:0
     RDKit          3D

 36 37  0  0  0  0  0  0  0  0999 V2000
   63.3870   33.8370   46.3710 C   0  0  0  0  0  0  0  0  0  0  0  0
   63.2660   33.0560   47.2820 C   0  0  0  0  0  0  0  0  0  0  0  0
   63.1180   32.1010   48.3940 C   0  0  0  0  0  0  0  0  0  0  0  0
   61.7070   31.8480   48.7510 N   0  0  0  0  0  0  0  0  0  0  0  0
   61.0480   32.9110   49.5240 C   0  0  0  0  0  0  0  0  0  0  0  0
   61.3430   30.4580   49.1060 C   0  0  0  0  0  0  0  0  0  0  0  0
   60.6500   29.6320   47.9900 C   0  0  0  0  0  0  0  0  0  0  0  0
   60.7330   30.2270   46.6390 N   0  0  0  0  0  0  0  0  0  0  0  0
   59.4430   30.5720   46.0570 C   0  0  0  0  0  0  0  0  0  0  0  0
   58.5300   29.5430   45.7440 C   0  0  0  0  0  0  0  0  0  0  0  0
   57.3230   29.8330   45.1140 C   0  0  0  0  0  0  0  0  0  0  0  0
   56.9910   31.1150   44.8340 N   0  0  0  0  0  0  0  0  0  0  0  0
   57.7910   32.1550   45.1790 C   0  0  0  0  0  0  0  0  0  0  0  0
   57.3670   33.4580   44.8970 C   0  0  0  0  0  0  0  0  0  0  0  0
   58.1360   34.5500   45.2960 C   0  0  0  0  0  0  0  0  0  0  0  0
   59.3230   34.3460   45.9960 C   0  0  0  0  0  0  0  0  0  0  0  0
   59.7640   33.0500   46.2810 C   0  0  0  0  0  0  0  0  0  0  0  0
   59.0280   31.9230   45.8430 C   0  0  0  0  0  0  0  0  0  0  0  0
   63.4974   34.5493   45.5401 H   0  0  0  0  0  0  0  0  0  0  0  0
   63.5825   31.1476   48.1019 H   0  0  0  0  0  0  0  0  0  0  0  0
   63.6073   32.5420   49.2750 H   0  0  0  0  0  0  0  0  0  0  0  0
   61.1710   32.7127   50.5990 H   0  0  0  0  0  0  0  0  0  0  0  0
   61.5034   33.8810   49.2757 H   0  0  0  0  0  0  0  0  0  0  0  0
   59.9767   32.9346   49.2757 H   0  0  0  0  0  0  0  0  0  0  0  0
   62.2651   29.9308   49.3920 H   0  0  0  0  0  0  0  0  0  0  0  0
   60.6038   30.5419   49.9163 H   0  0  0  0  0  0  0  0  0  0  0  0
   61.1210   28.6385   47.9564 H   0  0  0  0  0  0  0  0  0  0  0  0
   59.5814   29.5958   48.2484 H   0  0  0  0  0  0  0  0  0  0  0  0
   61.2800   29.5650   46.0580 H   0  0  0  0  0  0  0  0  0  0  0  0
   61.2960   31.1060   46.7040 H   0  0  0  0  0  0  0  0  0  0  0  0
   58.7742   28.5015   46.0002 H   0  0  0  0  0  0  0  0  0  0  0  0
   56.6366   29.0174   44.8427 H   0  0  0  0  0  0  0  0  0  0  0  0
   56.4223   33.6216   44.3578 H   0  0  0  0  0  0  0  0  0  0  0  0
   57.8058   35.5720   45.0583 H   0  0  0  0  0  0  0  0  0  0  0  0
   59.9175   35.2104   46.3268 H   0  0  0  0  0  0  0  0  0  0  0  0
   60.6930   32.9047   46.8518 H   0  0  0  0  0  0  0  0  0  0  0  0
  1  2  3  0
  2  3  1  0
  3  4  1  0
  4  5  1  0
  4  6  1  0
  6  7  1  0
  7  8  1  0
  8  9  1  0
  9 10  2  0
 10 11  1  0
 11 12  2  0
 12 13  1  0
 13 14  2  0
 14 15  1  0
 15 16  2  0
 16 17  1  0
 17 18  2  0
 18  9  1  0
 18 13  1  0
  1 19  1  0
  3 20  1  0
  3 21  1  0
  5 22  1  0
  5 23  1  0
  5 24  1  0
  6 25  1  0
  6 26  1  0
  7 27  1  0
  7 28  1  0
  8 29  1  0
  8 30  1  0
 10 31  1  0
 11 32  1  0
 14 33  1  0
 15 34  1  0
 16 35  1  0
 17 36  1  0
M  CHG  1   8   1
M  END
>  <UniqueID>  (35) 
34

>  <SMILES>  (35) 
C#CCN(C)CC[NH2+]c1ccnc2ccccc12

>  <Energy>  (35) 
55.898073941213056

>  <Genealogy>  (35) 
C#CCN(C)CC[NH2+]c1ccnc2ccccc12 (protonated)
C#CCN(C)CC[NH2+]c1ccnc2ccccc12 (3D coordinates assigned)
C#CCN(C)CC[NH2+]c1ccnc2ccccc12 (optimized conformer: 55.898073941213056 kcal/mol)

>  <smiles>  (35) 
C#CCN(C)CCNc1ccnc2ccccc12

>  <score_type>  (35) 
oracle

>  <origin>  (35) 
adg

>  <m_score__min__energy>  (35) 
-4.7400000000000002

>  <m_primary>  (35) 
energy

$$$$
35:0
     RDKit          3D

 35 36  0  0  0  0  0  0  0  0999 V2000
   56.2370   29.7150   42.8480 C   0  0  0  0  0  0  0  0  0  0  0  0
   55.9740   30.4300   44.1810 C   0  0  0  0  0  0  0  0  0  0  0  0
   57.1960   30.9370   44.8570 N   0  0  0  0  0  0  0  0  0  0  0  0
   58.1940   29.8840   45.1480 C   0  0  0  0  0  0  0  0  0  0  0  0
   59.2860   30.4130   45.9750 C   0  0  0  0  0  0  0  0  0  0  0  0
   60.1820   30.8430   46.6560 C   0  0  0  0  0  0  0  0  0  0  0  0
   61.2510   31.3530   47.4670 C   0  0  0  0  0  0  0  0  0  0  0  0
   61.6360   30.9020   48.7150 C   0  0  0  0  0  0  0  0  0  0  0  0
   62.6950   31.6270   49.1310 N   0  0  0  0  0  0  0  0  0  0  0  0
   62.9660   32.5190   48.1870 N   0  0  0  0  0  0  0  0  0  0  0  0
   64.0900   33.4420   48.2420 C   0  0  0  0  0  0  0  0  0  0  0  0
   62.1180   32.3740   47.1530 C   0  0  0  0  0  0  0  0  0  0  0  0
   57.8010   32.0800   44.1420 C   0  0  0  0  0  0  0  0  0  0  0  0
   58.2770   33.1070   45.1210 C   0  0  0  0  0  0  0  0  0  0  0  0
   59.2170   34.0960   44.8650 C   0  0  0  0  0  0  0  0  0  0  0  0
   59.4530   34.9270   45.9670 C   0  0  0  0  0  0  0  0  0  0  0  0
   58.7000   34.5960   47.0870 C   0  0  0  0  0  0  0  0  0  0  0  0
   57.7400   33.2680   46.7050 S   0  0  0  0  0  0  0  0  0  0  0  0
   56.6106   28.6992   43.0443 H   0  0  0  0  0  0  0  0  0  0  0  0
   55.3015   29.6567   42.2724 H   0  0  0  0  0  0  0  0  0  0  0  0
   56.9873   30.2768   42.2724 H   0  0  0  0  0  0  0  0  0  0  0  0
   55.3082   31.2841   43.9878 H   0  0  0  0  0  0  0  0  0  0  0  0
   55.5291   29.6834   44.8553 H   0  0  0  0  0  0  0  0  0  0  0  0
   57.7020   29.0597   45.6850 H   0  0  0  0  0  0  0  0  0  0  0  0
   58.6146   29.5252   44.1970 H   0  0  0  0  0  0  0  0  0  0  0  0
   61.1578   30.0861   49.2769 H   0  0  0  0  0  0  0  0  0  0  0  0
   64.3429   33.6497   49.2922 H   0  0  0  0  0  0  0  0  0  0  0  0
   64.9583   32.9929   47.7377 H   0  0  0  0  0  0  0  0  0  0  0  0
   63.8183   34.3811   47.7377 H   0  0  0  0  0  0  0  0  0  0  0  0
   62.1178   32.9645   46.2249 H   0  0  0  0  0  0  0  0  0  0  0  0
   58.6534   31.7249   43.5442 H   0  0  0  0  0  0  0  0  0  0  0  0
   57.0449   32.5336   43.4843 H   0  0  0  0  0  0  0  0  0  0  0  0
   59.7242   34.2146   43.8962 H   0  0  0  0  0  0  0  0  0  0  0  0
   60.1674   35.7633   45.9479 H   0  0  0  0  0  0  0  0  0  0  0  0
   58.7269   35.1136   48.0573 H   0  0  0  0  0  0  0  0  0  0  0  0
  1  2  1  0
  2  3  1  0
  3  4  1  0
  4  5  1  0
  5  6  3  0
  6  7  1  0
  7  8  1  0
  8  9  2  0
  9 10  1  0
 10 11  1  0
 10 12  1  0
  3 13  1  0
 13 14  1  0
 14 15  2  0
 15 16  1  0
 16 17  2  0
 17 18  1  0
 12  7  2  0
 18 14  1  0
  1 19  1  0
  1 20  1  0
  1 21  1  0
  2 22  1  0
  2 23  1  0
  4 24  1  0
  4 25  1  0
  8 26  1  0
 11 27  1  0
 11 28  1  0
 11 29  1  0
 12 30  1  0
 13 31  1  0
 13 32  1  0
 15 33  1  0
 16 34  1  0
 17 35  1  0
M  END
>  <UniqueID>  (36) 
35

>  <SMILES>  (36) 
CCN(CC#Cc1cnn(C)c1)Cc1cccs1

>  <Energy>  (36) 
87.44437664532892

>  <Genealogy>  (36) 
CCN(CC#Cc1cnn(C)c1)Cc1cccs1 (3D coordinates assigned)
CCN(CC#Cc1cnn(C)c1)Cc1cccs1 (optimized conformer: 87.44437664532892 kcal/mol)

>  <smiles>  (36) 
CCN(CC#Cc1cnn(C)c1)Cc1cccs1

>  <score_type>  (36) 
oracle

>  <origin>  (36) 
adg

>  <m_score__min__energy>  (36) 
-6.04

>  <m_primary>  (36) 
energy

$$$$
36:0
     RDKit          3D

 49 50  0  0  0  0  0  0  0  0999 V2000
   56.3190   22.9510   43.0580 C   0  0  0  0  0  0  0  0  0  0  0  0
   56.7680   24.2840   43.6510 C   0  0  0  0  0  0  0  0  0  0  0  0
   56.6700   24.2720   45.1840 C   0  0  0  0  0  0  0  0  0  0  0  0
   55.8310   25.4340   45.7440 C   0  0  0  0  0  0  0  0  0  0  0  0
   56.6760   26.5970   46.2880 C   0  0  0  0  0  0  0  0  0  0  0  0
   57.9260   26.7350   45.5490 N   0  0  0  0  0  0  0  0  0  0  0  0
   58.1570   27.7440   44.5620 C   0  0  0  0  0  0  0  0  0  0  0  0
   57.9570   27.4980   43.3410 O   0  0  0  0  0  0  0  0  0  0  0  0
   58.6770   29.0910   44.9750 C   0  0  0  0  0  0  0  0  0  0  0  0
   57.5750   30.1730   44.9910 C   0  0  2  0  0  0  0  0  0  0  0  0
   56.3320   29.6920   44.2800 C   0  0  0  0  0  0  0  0  0  0  0  0
   55.5290   28.9250   44.8770 O   0  0  0  0  0  0  0  0  0  0  0  0
   56.0800   30.0570   42.9200 N   0  0  0  0  0  0  0  0  0  0  0  0
   56.7750   31.1710   42.2860 C   0  0  0  0  0  0  0  0  0  0  0  0
   58.1500   31.4060   42.9250 C   0  0  0  0  0  0  0  0  0  0  0  0
   58.0970   31.4360   44.4090 N   0  0  0  0  0  0  0  0  0  0  0  0
   57.3950   32.6280   44.9440 C   0  0  0  0  0  0  0  0  0  0  0  0
   58.1840   33.2670   46.0570 C   0  0  0  0  0  0  0  0  0  0  0  0
   58.2500   32.6470   47.3150 C   0  0  0  0  0  0  0  0  0  0  0  0
   59.0090   33.2170   48.3410 C   0  0  0  0  0  0  0  0  0  0  0  0
   59.7060   34.4070   48.1190 C   0  0  0  0  0  0  0  0  0  0  0  0
   60.4480   34.9560   49.1130 F   0  0  0  0  0  0  0  0  0  0  0  0
   59.6450   35.0300   46.8680 C   0  0  0  0  0  0  0  0  0  0  0  0
   58.8890   34.4620   45.8390 C   0  0  0  0  0  0  0  0  0  0  0  0
   56.0825   22.2490   43.8712 H   0  0  0  0  0  0  0  0  0  0  0  0
   55.4243   23.1084   42.4377 H   0  0  0  0  0  0  0  0  0  0  0  0
   57.1266   22.5350   42.4377 H   0  0  0  0  0  0  0  0  0  0  0  0
   57.8118   24.4727   43.3598 H   0  0  0  0  0  0  0  0  0  0  0  0
   56.1084   25.0758   43.2663 H   0  0  0  0  0  0  0  0  0  0  0  0
   56.2088   23.3240   45.4980 H   0  0  0  0  0  0  0  0  0  0  0  0
   57.6905   24.3840   45.5789 H   0  0  0  0  0  0  0  0  0  0  0  0
   55.1880   25.8184   44.9385 H   0  0  0  0  0  0  0  0  0  0  0  0
   55.2502   25.0347   46.5885 H   0  0  0  0  0  0  0  0  0  0  0  0
   56.1013   27.5305   46.1974 H   0  0  0  0  0  0  0  0  0  0  0  0
   56.9164   26.3886   47.3410 H   0  0  0  0  0  0  0  0  0  0  0  0
   59.1051   29.0090   45.9850 H   0  0  0  0  0  0  0  0  0  0  0  0
   59.4338   29.3967   44.2375 H   0  0  0  0  0  0  0  0  0  0  0  0
   57.2860   30.3744   46.0331 H   0  0  0  0  0  0  0  0  0  0  0  0
   55.2310   29.6760   42.4480 H   0  0  0  0  0  0  0  0  0  0  0  0
   56.9099   30.9478   41.2174 H   0  0  0  0  0  0  0  0  0  0  0  0
   56.1697   32.0796   42.4202 H   0  0  0  0  0  0  0  0  0  0  0  0
   58.8255   30.5955   42.6137 H   0  0  0  0  0  0  0  0  0  0  0  0
   58.5092   32.3890   42.5863 H   0  0  0  0  0  0  0  0  0  0  0  0
   57.2598   33.3593   44.1335 H   0  0  0  0  0  0  0  0  0  0  0  0
   56.4208   32.3100   45.3438 H   0  0  0  0  0  0  0  0  0  0  0  0
   57.7027   31.7097   47.4937 H   0  0  0  0  0  0  0  0  0  0  0  0
   59.0575   32.7276   49.3250 H   0  0  0  0  0  0  0  0  0  0  0  0
   60.1927   35.9680   46.6940 H   0  0  0  0  0  0  0  0  0  0  0  0
   58.8460   34.9524   44.8553 H   0  0  0  0  0  0  0  0  0  0  0  0
  1  2  1  0
  2  3  1  0
  3  4  1  0
  4  5  1  0
  5  6  1  0
  6  7  1  0
  7  8  2  0
  7  9  1  0
  9 10  1  0
 10 11  1  0
 11 12  2  0
 11 13  1  0
 13 14  1  0
 14 15  1  0
 15 16  1  0
 16 17  1  0
 17 18  1  0
 18 19  2  0
 19 20  1  0
 20 21  2  0
 21 22  1  0
 21 23  1  0
 23 24  2  0
 16 10  1  0
 24 18  1  0
  1 25  1  0
  1 26  1  0
  1 27  1  0
  2 28  1  0
  2 29  1  0
  3 30  1  0
  3 31  1  0
  4 32  1  0
  4 33  1  0
  5 34  1  0
  5 35  1  0
  9 36  1  0
  9 37  1  0
 10 38  1  1
 13 39  1  0
 14 40  1  0
 14 41  1  0
 15 42  1  0
 15 43  1  0
 17 44  1  0
 17 45  1  0
 19 46  1  0
 20 47  1  0
 23 48  1  0
 24 49  1  0
M  CHG  1   6  -1
M  END
>  <UniqueID>  (37) 
36

>  <SMILES>  (37) 
CCCCC[N-]C(=O)C[C@@H]1C(=O)NCCN1Cc1ccc(F)cc1

>  <Energy>  (37) 
41.99935291187386

>  <Genealogy>  (37) 
CCCCC[N-]C(=O)CC1C(=O)NCCN1Cc1ccc(F)cc1 (protonated)
CCCCC[N-]C(=O)C[C@@H]1C(=O)NCCN1Cc1ccc(F)cc1 (chirality)
CCCCC[N-]C(=O)C[C@@H]1C(=O)NCCN1Cc1ccc(F)cc1 (3D coordinates assigned)
CCCCC[N-]C(=O)C[C@@H]1C(=O)NCCN1Cc1ccc(F)cc1 (nonaromatic ring conformer: 41.99935291187386 kcal/mol)

>  <smiles>  (37) 
CCCCCNC(=O)CC1C(=O)NCCN1Cc1ccc(F)cc1

>  <score_type>  (37) 
oracle

>  <origin>  (37) 
adg

>  <m_score__min__energy>  (37) 
-8.8900000000000006

>  <m_primary>  (37) 
energy

$$$$
37:0
     RDKit          3D

 84 87  0  0  0  0  0  0  0  0999 V2000
   62.3640   34.1880   50.4690 C   0  0  0  0  0  0  0  0  0  0  0  0
   62.3740   34.1860   48.9420 C   0  0  0  0  0  0  0  0  0  0  0  0
   62.7260   32.8390   48.4350 N   0  0  0  0  0  0  0  0  0  0  0  0
   63.7800   32.9170   47.3970 C   0  0  0  0  0  0  0  0  0  0  0  0
   63.3980   33.9420   46.3340 C   0  0  0  0  0  0  0  0  0  0  0  0
   63.1230   31.9360   49.5390 C   0  0  0  0  0  0  0  0  0  0  0  0
   64.6440   31.9730   49.7290 C   0  0  0  0  0  0  0  0  0  0  0  0
   65.0340   31.1770   50.9040 N   0  0  0  0  0  0  0  0  0  0  0  0
   63.8840   30.7830   51.7380 C   0  0  0  0  0  0  0  0  0  0  0  0
   63.8120   29.2810   51.9410 C   0  0  0  0  0  0  0  0  0  0  0  0
   64.9940   28.5240   51.8560 C   0  0  0  0  0  0  0  0  0  0  0  0
   64.9760   27.1460   52.0750 C   0  0  0  0  0  0  0  0  0  0  0  0
   63.7770   26.5010   52.3750 C   0  0  0  0  0  0  0  0  0  0  0  0
   62.5910   27.2330   52.4560 C   0  0  0  0  0  0  0  0  0  0  0  0
   62.5930   28.6210   52.2460 C   0  0  0  0  0  0  0  0  0  0  0  0
   61.3460   29.3340   52.3010 N   0  0  0  0  0  0  0  0  0  0  0  0
   61.2800   30.6230   53.0020 C   0  0  0  0  0  0  0  0  0  0  0  0
   60.8480   31.7260   52.0290 C   0  0  0  0  0  0  0  0  0  0  0  0
   59.7440   31.2810   51.1640 N   0  0  0  0  0  0  0  0  0  0  0  0
   59.2710   32.1680   50.1340 C   0  0  0  0  0  0  0  0  0  0  0  0
   59.1810   33.4040   50.3760 O   0  0  0  0  0  0  0  0  0  0  0  0
   58.8900   31.6440   48.7640 C   0  0  1  0  0  0  0  0  0  0  0  0
   58.4560   32.7890   47.8540 C   0  0  0  0  0  0  0  0  0  0  0  0
   59.6370   33.1630   47.0740 N   0  0  0  0  0  0  0  0  0  0  0  0
   59.3390   33.9790   45.8700 C   0  0  0  0  0  0  0  0  0  0  0  0
   59.7110   35.4730   45.9890 C   0  0  0  0  0  0  0  0  0  0  0  0
   57.8630   33.8230   45.4920 C   0  0  0  0  0  0  0  0  0  0  0  0
   60.4320   31.9420   46.8780 C   0  0  0  0  0  0  0  0  0  0  0  0
   60.0870   30.9930   48.0370 C   0  0  2  0  0  0  0  0  0  0  0  0
   59.7770   29.5840   47.5530 C   0  0  0  0  0  0  0  0  0  0  0  0
   60.4110   28.4790   48.1500 C   0  0  0  0  0  0  0  0  0  0  0  0
   60.1310   27.1800   47.7110 C   0  0  0  0  0  0  0  0  0  0  0  0
   59.2170   26.9700   46.6750 C   0  0  0  0  0  0  0  0  0  0  0  0
   58.8650   25.3390   46.1310 Cl  0  0  0  0  0  0  0  0  0  0  0  0
   58.5820   28.0600   46.0740 C   0  0  0  0  0  0  0  0  0  0  0  0
   58.8600   29.3590   46.5070 C   0  0  0  0  0  0  0  0  0  0  0  0
   59.1300   29.9650   51.3860 C   0  0  0  0  0  0  0  0  0  0  0  0
   60.2270   28.8980   51.4490 C   0  0  0  0  0  0  0  0  0  0  0  0
   63.3786   33.9852   50.8426 H   0  0  0  0  0  0  0  0  0  0  0  0
   62.0291   35.1708   50.8322 H   0  0  0  0  0  0  0  0  0  0  0  0
   61.6771   33.4094   50.8322 H   0  0  0  0  0  0  0  0  0  0  0  0
   61.3764   34.4645   48.5716 H   0  0  0  0  0  0  0  0  0  0  0  0
   63.1218   34.9103   48.5867 H   0  0  0  0  0  0  0  0  0  0  0  0
   64.7295   33.2157   47.8651 H   0  0  0  0  0  0  0  0  0  0  0  0
   63.8893   31.9310   46.9218 H   0  0  0  0  0  0  0  0  0  0  0  0
   63.0538   34.8657   46.8222 H   0  0  0  0  0  0  0  0  0  0  0  0
   64.2740   34.1634   45.7066 H   0  0  0  0  0  0  0  0  0  0  0  0
   62.5908   33.5361   45.7066 H   0  0  0  0  0  0  0  0  0  0  0  0
   62.6323   32.2602   50.4685 H   0  0  0  0  0  0  0  0  0  0  0  0
   62.8159   30.9090   49.2921 H   0  0  0  0  0  0  0  0  0  0  0  0
   65.1312   31.5599   48.8335 H   0  0  0  0  0  0  0  0  0  0  0  0
   64.9589   33.0155   49.8839 H   0  0  0  0  0  0  0  0  0  0  0  0
   65.5360   30.3210   50.5780 H   0  0  0  0  0  0  0  0  0  0  0  0
   63.9755   31.2694   52.7204 H   0  0  0  0  0  0  0  0  0  0  0  0
   62.9666   31.0984   51.2194 H   0  0  0  0  0  0  0  0  0  0  0  0
   65.9436   29.0238   51.6141 H   0  0  0  0  0  0  0  0  0  0  0  0
   65.9095   26.5676   52.0108 H   0  0  0  0  0  0  0  0  0  0  0  0
   63.7655   25.4147   52.5480 H   0  0  0  0  0  0  0  0  0  0  0  0
   61.6468   26.7177   52.6864 H   0  0  0  0  0  0  0  0  0  0  0  0
   60.5507   30.5547   53.8226 H   0  0  0  0  0  0  0  0  0  0  0  0
   62.2738   30.8661   53.4061 H   0  0  0  0  0  0  0  0  0  0  0  0
   60.5187   32.6027   52.6061 H   0  0  0  0  0  0  0  0  0  0  0  0
   61.7070   31.9777   51.3897 H   0  0  0  0  0  0  0  0  0  0  0  0
   58.0868   30.9135   48.9407 H   0  0  0  0  0  0  0  0  0  0  0  0
   57.6469   32.4590   47.1858 H   0  0  0  0  0  0  0  0  0  0  0  0
   58.0750   33.6407   48.4365 H   0  0  0  0  0  0  0  0  0  0  0  0
   59.9878   33.5863   45.0732 H   0  0  0  0  0  0  0  0  0  0  0  0
   59.7800   35.7502   47.0513 H   0  0  0  0  0  0  0  0  0  0  0  0
   60.6805   35.6495   45.5003 H   0  0  0  0  0  0  0  0  0  0  0  0
   58.9374   36.0835   45.5003 H   0  0  0  0  0  0  0  0  0  0  0  0
   57.2551   33.7588   46.4065 H   0  0  0  0  0  0  0  0  0  0  0  0
   57.5425   34.6923   44.8990 H   0  0  0  0  0  0  0  0  0  0  0  0
   57.7313   32.9059   44.8990 H   0  0  0  0  0  0  0  0  0  0  0  0
   60.1750   31.4737   45.9164 H   0  0  0  0  0  0  0  0  0  0  0  0
   61.5078   32.1710   46.8638 H   0  0  0  0  0  0  0  0  0  0  0  0
   60.9413   30.8651   48.7180 H   0  0  0  0  0  0  0  0  0  0  0  0
   61.1309   28.6370   48.9665 H   0  0  0  0  0  0  0  0  0  0  0  0
   60.6318   26.3218   48.1828 H   0  0  0  0  0  0  0  0  0  0  0  0
   57.8622   27.8951   45.2587 H   0  0  0  0  0  0  0  0  0  0  0  0
   58.3590   30.2129   46.0275 H   0  0  0  0  0  0  0  0  0  0  0  0
   58.5724   29.9750   52.3342 H   0  0  0  0  0  0  0  0  0  0  0  0
   58.4408   29.7362   50.5598 H   0  0  0  0  0  0  0  0  0  0  0  0
   59.8023   27.9708   51.8612 H   0  0  0  0  0  0  0  0  0  0  0  0
   60.6090   28.7308   50.4311 H   0  0  0  0  0  0  0  0  0  0  0  0
  1  2  1  0
  2  3  1  0
  3  4  1  0
  4  5  1  0
  3  6  1  0
  6  7  1  0
  7  8  1  0
  8  9  1  0
  9 10  1  0
 10 11  2  0
 11 12  1  0
 12 13  2  0
 13 14  1  0
 14 15  2  0
 15 16  1  0
 16 17  1  0
 17 18  1  0
 18 19  1  0
 19 20  1  0
 20 21  2  0
 20 22  1  0
 22 23  1  0
 23 24  1  0
 24 25  1  0
 25 26  1  0
 25 27  1  0
 24 28  1  0
 28 29  1  0
 29 30  1  0
 30 31  2  0
 31 32  1  0
 32 33  2  0
 33 34  1  0
 33 35  1  0
 35 36  2  0
 19 37  1  0
 37 38  1  0
 15 10  1  0
 38 16  1  0
 29 22  1  0
 36 30  1  0
  1 39  1  0
  1 40  1  0
  1 41  1  0
  2 42  1  0
  2 43  1  0
  4 44  1  0
  4 45  1  0
  5 46  1  0
  5 47  1  0
  5 48  1  0
  6 49  1  0
  6 50  1  0
  7 51  1  0
  7 52  1  0
  8 53  1  0
  9 54  1  0
  9 55  1  0
 11 56  1  0
 12 57  1  0
 13 58  1  0
 14 59  1  0
 17 60  1  0
 17 61  1  0
 18 62  1  0
 18 63  1  0
 22 64  1  1
 23 65  1  0
 23 66  1  0
 25 67  1  0
 26 68  1  0
 26 69  1  0
 26 70  1  0
 27 71  1  0
 27 72  1  0
 27 73  1  0
 28 74  1  0
 28 75  1  0
 29 76  1  1
 31 77  1  0
 32 78  1  0
 35 79  1  0
 36 80  1  0
 37 81  1  0
 37 82  1  0
 38 83  1  0
 38 84  1  0
M  END
>  <UniqueID>  (38) 
37

>  <SMILES>  (38) 
CCN(CC)CCNCc1ccccc1N1CCN(C(=O)[C@H]2CN(C(C)C)C[C@@H]2c2ccc(Cl)cc2)CC1

>  <Energy>  (38) 
100.23369269683845

>  <Genealogy>  (38) 
CCN(CC)CCNCc1ccccc1N1CCN(C(=O)[C@H]2CN(C(C)C)C[C@@H]2c2ccc(Cl)cc2)CC1 (chirality)
CCN(CC)CCNCc1ccccc1N1CCN(C(=O)[C@H]2CN(C(C)C)C[C@@H]2c2ccc(Cl)cc2)CC1 (3D coordinates assigned)
CCN(CC)CCNCc1ccccc1N1CCN(C(=O)[C@H]2CN(C(C)C)C[C@@H]2c2ccc(Cl)cc2)CC1 (nonaromatic ring conformer: 100.23369269683845 kcal/mol)

>  <smiles>  (38) 
CCN(CC)CCNCc1ccccc1N1CCN(C(=O)C2CN(C(C)C)CC2c2ccc(Cl)cc2)CC1

>  <score_type>  (38) 
oracle

>  <origin>  (38) 
adg

>  <m_score__min__energy>  (38) 
-8.4600000000000009

>  <m_primary>  (38) 
energy

$$$$
38:0
     RDKit          3D

 48 50  0  0  0  0  0  0  0  0999 V2000
   58.2550   28.1190   44.3610 C   0  0  0  0  0  0  0  0  0  0  0  0
   57.1260   28.3890   45.3570 C   0  0  0  0  0  0  0  0  0  0  0  0
   56.1720   29.4000   44.8630 N   0  0  0  0  0  0  0  0  0  0  0  0
   56.6410   30.1030   43.6600 C   0  0  0  0  0  0  0  0  0  0  0  0
   57.3040   31.4080   43.9950 C   0  0  0  0  0  0  0  0  0  0  0  0
   57.4280   31.9800   45.2400 C   0  0  0  0  0  0  0  0  0  0  0  0
   58.0210   33.1790   45.0530 N   0  0  0  0  0  0  0  0  0  0  0  0
   58.3130   34.2080   46.0590 C   0  0  0  0  0  0  0  0  0  0  0  0
   58.2580   33.6160   47.4950 C   0  0  0  0  0  0  0  0  0  0  0  0
   59.6120   33.6400   48.2110 C   0  0  0  0  0  0  0  0  0  0  0  0
   60.6790   33.2730   47.2750 N   0  0  0  0  0  0  0  0  0  0  0  0
   61.4810   32.0920   47.4630 C   0  0  0  0  0  0  0  0  0  0  0  0
   62.6870   32.0960   47.0940 O   0  0  0  0  0  0  0  0  0  0  0  0
   60.8970   30.8310   48.0440 C   0  0  2  0  0  0  0  0  0  0  0  0
   59.8690   30.2060   47.1170 C   0  0  0  0  0  0  0  0  0  0  0  0
   58.9200   29.5610   48.0770 C   0  0  0  0  0  0  0  0  0  0  0  0
   59.0540   30.4200   49.3180 C   0  0  0  0  0  0  0  0  0  0  0  0
   60.2820   31.1130   49.2820 O   0  0  0  0  0  0  0  0  0  0  0  0
   60.8830   34.0930   46.0730 C   0  0  0  0  0  0  0  0  0  0  0  0
   59.6400   34.9390   45.7450 C   0  0  0  0  0  0  0  0  0  0  0  0
   58.2360   33.3380   43.7560 N   0  0  0  0  0  0  0  0  0  0  0  0
   57.8070   32.2730   43.0970 N   0  0  0  0  0  0  0  0  0  0  0  0
   59.1824   27.8972   44.9093 H   0  0  0  0  0  0  0  0  0  0  0  0
   57.9883   27.2593   43.7287 H   0  0  0  0  0  0  0  0  0  0  0  0
   58.4061   29.0063   43.7287 H   0  0  0  0  0  0  0  0  0  0  0  0
   56.5831   27.4498   45.5391 H   0  0  0  0  0  0  0  0  0  0  0  0
   57.5789   28.7776   46.2811 H   0  0  0  0  0  0  0  0  0  0  0  0
   55.9160   30.0950   45.6040 H   0  0  0  0  0  0  0  0  0  0  0  0
   57.3634   29.4624   43.1330 H   0  0  0  0  0  0  0  0  0  0  0  0
   55.7662   30.3180   43.0288 H   0  0  0  0  0  0  0  0  0  0  0  0
   57.1074   31.5464   46.1987 H   0  0  0  0  0  0  0  0  0  0  0  0
   57.5269   34.9761   46.0137 H   0  0  0  0  0  0  0  0  0  0  0  0
   57.5392   34.2016   48.0870 H   0  0  0  0  0  0  0  0  0  0  0  0
   57.9564   32.5622   47.4023 H   0  0  0  0  0  0  0  0  0  0  0  0
   59.8006   34.6513   48.6004 H   0  0  0  0  0  0  0  0  0  0  0  0
   59.5951   32.9185   49.0412 H   0  0  0  0  0  0  0  0  0  0  0  0
   61.7235   30.1179   48.1792 H   0  0  0  0  0  0  0  0  0  0  0  0
   59.3626   30.9714   46.5107 H   0  0  0  0  0  0  0  0  0  0  0  0
   60.3027   29.5041   46.3896 H   0  0  0  0  0  0  0  0  0  0  0  0
   57.8905   29.5831   47.6902 H   0  0  0  0  0  0  0  0  0  0  0  0
   59.1423   28.4991   48.2588 H   0  0  0  0  0  0  0  0  0  0  0  0
   58.2261   31.1434   49.3540 H   0  0  0  0  0  0  0  0  0  0  0  0
   59.0215   29.7794   50.2116 H   0  0  0  0  0  0  0  0  0  0  0  0
   61.7378   34.7648   46.2404 H   0  0  0  0  0  0  0  0  0  0  0  0
   61.0728   33.4184   45.2252 H   0  0  0  0  0  0  0  0  0  0  0  0
   59.6793   35.8648   46.3378 H   0  0  0  0  0  0  0  0  0  0  0  0
   59.6561   35.1434   44.6643 H   0  0  0  0  0  0  0  0  0  0  0  0
   57.8470   32.1570   42.0610 H   0  0  0  0  0  0  0  0  0  0  0  0
  1  2  1  0
  2  3  1  0
  3  4  1  0
  4  5  1  0
  5  6  2  0
  6  7  1  0
  7  8  1  0
  8  9  1  0
  9 10  1  0
 10 11  1  0
 11 12  1  0
 12 13  2  0
 12 14  1  0
 14 15  1  0
 15 16  1  0
 16 17  1  0
 17 18  1  0
 11 19  1  0
 19 20  1  0
  7 21  1  0
 21 22  2  0
 22  5  1  0
 20  8  1  0
 18 14  1  0
  1 23  1  0
  1 24  1  0
  1 25  1  0
  2 26  1  0
  2 27  1  0
  3 28  1  0
  4 29  1  0
  4 30  1  0
  6 31  1  0
  8 32  1  0
  9 33  1  0
  9 34  1  0
 10 35  1  0
 10 36  1  0
 14 37  1  1
 15 38  1  0
 15 39  1  0
 16 40  1  0
 16 41  1  0
 17 42  1  0
 17 43  1  0
 19 44  1  0
 19 45  1  0
 20 46  1  0
 20 47  1  0
 22 48  1  0
M  CHG  1  22   1
M  END
>  <UniqueID>  (39) 
38

>  <SMILES>  (39) 
CCNCc1cn(C2CCN(C(=O)[C@@H]3CCCO3)CC2)n[nH+]1

>  <Energy>  (39) 
84.11133982718732

>  <Genealogy>  (39) 
CCNCc1cn(C2CCN(C(=O)C3CCCO3)CC2)n[nH+]1 (protonated)
CCNCc1cn(C2CCN(C(=O)[C@@H]3CCCO3)CC2)n[nH+]1 (chirality)
CCNCc1cn(C2CCN(C(=O)[C@@H]3CCCO3)CC2)n[nH+]1 (3D coordinates assigned)
CCNCc1cn(C2CCN(C(=O)[C@@H]3CCCO3)CC2)n[nH+]1 (nonaromatic ring conformer: 84.11133982718732 kcal/mol)

>  <smiles>  (39) 
CCNCc1cn(C2CCN(C(=O)C3CCCO3)CC2)nn1

>  <score_type>  (39) 
oracle

>  <origin>  (39) 
adg

>  <m_score__min__energy>  (39) 
-5.8600000000000003

>  <m_primary>  (39) 
energy

$$$$
39:0
     RDKit          3D

 40 39  0  0  0  0  0  0  0  0999 V2000
   60.4820   28.7100   44.8490 C   0  0  0  0  0  0  0  0  0  0  0  0
   59.9300   29.7890   45.7790 C   0  0  0  0  0  0  0  0  0  0  0  0
   58.4900   29.5140   46.2540 C   0  0  0  0  0  0  0  0  0  0  0  0
   57.5740   28.9120   45.1610 C   0  0  1  0  0  0  0  0  0  0  0  0
   57.0680   27.5270   45.5830 C   0  0  0  0  0  0  0  0  0  0  0  0
   56.4000   29.8010   44.8590 C   0  0  0  0  0  0  0  0  0  0  0  0
   55.2290   29.3300   44.8600 O   0  0  0  0  0  0  0  0  0  0  0  0
   56.6220   31.1500   44.5650 O   0  0  0  0  0  0  0  0  0  0  0  0
   57.5370   31.5760   43.5630 C   0  0  0  0  0  0  0  0  0  0  0  0
   57.8640   33.0540   43.7670 C   0  0  0  0  0  0  0  0  0  0  0  0
   58.4950   33.2610   45.0900 N   0  0  0  0  0  0  0  0  0  0  0  0
   59.6540   34.1840   45.0210 C   0  0  0  0  0  0  0  0  0  0  0  0
   59.6410   35.2920   46.0850 C   0  0  0  0  0  0  0  0  0  0  0  0
   57.4950   33.6240   46.1220 C   0  0  0  0  0  0  0  0  0  0  0  0
   57.8440   33.0260   47.4840 C   0  0  0  0  0  0  0  0  0  0  0  0
   60.9020   27.8890   45.4486 H   0  0  0  0  0  0  0  0  0  0  0  0
   59.6711   28.3230   44.2144 H   0  0  0  0  0  0  0  0  0  0  0  0
   61.2703   29.1411   44.2144 H   0  0  0  0  0  0  0  0  0  0  0  0
   60.5817   29.8535   46.6628 H   0  0  0  0  0  0  0  0  0  0  0  0
   59.9080   30.7284   45.2071 H   0  0  0  0  0  0  0  0  0  0  0  0
   58.5320   28.8093   47.0976 H   0  0  0  0  0  0  0  0  0  0  0  0
   58.0557   30.4844   46.5361 H   0  0  0  0  0  0  0  0  0  0  0  0
   58.1812   28.8216   44.2482 H   0  0  0  0  0  0  0  0  0  0  0  0
   57.0450   27.4639   46.6809 H   0  0  0  0  0  0  0  0  0  0  0  0
   56.0545   27.3701   45.1854 H   0  0  0  0  0  0  0  0  0  0  0  0
   57.7417   26.7537   45.1854 H   0  0  0  0  0  0  0  0  0  0  0  0
   58.4607   30.9829   43.6340 H   0  0  0  0  0  0  0  0  0  0  0  0
   57.0855   31.4341   42.5700 H   0  0  0  0  0  0  0  0  0  0  0  0
   58.5561   33.3850   42.9787 H   0  0  0  0  0  0  0  0  0  0  0  0
   56.9326   33.6373   43.7188 H   0  0  0  0  0  0  0  0  0  0  0  0
   60.5732   33.5936   45.1490 H   0  0  0  0  0  0  0  0  0  0  0  0
   59.6016   34.6845   44.0429 H   0  0  0  0  0  0  0  0  0  0  0  0
   59.6463   34.8382   47.0870 H   0  0  0  0  0  0  0  0  0  0  0  0
   60.5318   35.9261   45.9649 H   0  0  0  0  0  0  0  0  0  0  0  0
   58.7356   35.9051   45.9649 H   0  0  0  0  0  0  0  0  0  0  0  0
   57.4584   34.7196   46.2128 H   0  0  0  0  0  0  0  0  0  0  0  0
   56.5200   33.2208   45.8108 H   0  0  0  0  0  0  0  0  0  0  0  0
   57.4618   33.6809   48.2808 H   0  0  0  0  0  0  0  0  0  0  0  0
   57.3851   32.0305   47.5759 H   0  0  0  0  0  0  0  0  0  0  0  0
   58.9365   32.9360   47.5759 H   0  0  0  0  0  0  0  0  0  0  0  0
  1  2  1  0
  2  3  1  0
  3  4  1  0
  4  5  1  0
  4  6  1  0
  6  7  2  0
  6  8  1  0
  8  9  1  0
  9 10  1  0
 10 11  1  0
 11 12  1  0
 12 13  1  0
 11 14  1  0
 14 15  1  0
  1 16  1  0
  1 17  1  0
  1 18  1  0
  2 19  1  0
  2 20  1  0
  3 21  1  0
  3 22  1  0
  4 23  1  6
  5 24  1  0
  5 25  1  0
  5 26  1  0
  9 27  1  0
  9 28  1  0
 10 29  1  0
 10 30  1  0
 12 31  1  0
 12 32  1  0
 13 33  1  0
 13 34  1  0
 13 35  1  0
 14 36  1  0
 14 37  1  0
 15 38  1  0
 15 39  1  0
 15 40  1  0
M  END
>  <UniqueID>  (40) 
39

>  <SMILES>  (40) 
CCC[C@@H](C)C(=O)OCCN(CC)CC

>  <Energy>  (40) 
25.806915340149814

>  <Genealogy>  (40) 
CCC[C@@H](C)C(=O)OCCN(CC)CC (chirality)
CCC[C@@H](C)C(=O)OCCN(CC)CC (3D coordinates assigned)
CCC[C@@H](C)C(=O)OCCN(CC)CC (optimized conformer: 25.806915340149814 kcal/mol)

>  <smiles>  (40) 
CCCC(C)C(=O)OCCN(CC)CC

>  <score_type>  (40) 
oracle

>  <origin>  (40) 
adg

>  <m_score__min__energy>  (40) 
-5.2300000000000004

>  <m_primary>  (40) 
energy

$$$$
40:0
     RDKit          3D

 52 53  0  0  0  0  0  0  0  0999 V2000
   63.3640   33.8380   46.3890 C   0  0  0  0  0  0  0  0  0  0  0  0
   62.7590   33.4780   47.7430 C   0  0  0  0  0  0  0  0  0  0  0  0
   61.2820   33.4220   47.6450 N   0  0  0  0  0  0  0  0  0  0  0  0
   60.6460   34.2120   48.7270 C   0  0  0  0  0  0  0  0  0  0  0  0
   59.6650   33.3440   49.5090 C   0  0  0  0  0  0  0  0  0  0  0  0
   60.8140   33.8770   46.3150 C   0  0  0  0  0  0  0  0  0  0  0  0
   60.0040   35.1700   46.4590 C   0  0  0  0  0  0  0  0  0  0  0  0
   58.5880   34.9370   46.1750 N   0  0  0  0  0  0  0  0  0  0  0  0
   57.9020   33.6840   46.3230 C   0  0  0  0  0  0  0  0  0  0  0  0
   57.2420   33.4750   47.3740 O   0  0  0  0  0  0  0  0  0  0  0  0
   57.9800   32.6220   45.3020 C   0  0  0  0  0  0  0  0  0  0  0  0
   57.8540   32.9470   43.9480 C   0  0  0  0  0  0  0  0  0  0  0  0
   57.8520   31.9270   42.9890 C   0  0  0  0  0  0  0  0  0  0  0  0
   57.7310   32.2690   41.5330 C   0  0  0  0  0  0  0  0  0  0  0  0
   58.0080   30.6290   43.3770 N   0  0  0  0  0  0  0  0  0  0  0  0
   58.1620   30.2830   44.6900 C   0  0  0  0  0  0  0  0  0  0  0  0
   58.2780   28.8570   45.0800 C   0  0  0  0  0  0  0  0  0  0  0  0
   57.1320   28.0610   45.2470 C   0  0  0  0  0  0  0  0  0  0  0  0
   57.2500   26.7130   45.6000 C   0  0  0  0  0  0  0  0  0  0  0  0
   58.5200   26.1380   45.7910 C   0  0  0  0  0  0  0  0  0  0  0  0
   58.6920   24.7910   46.1450 O   0  0  0  0  0  0  0  0  0  0  0  0
   58.4590   23.6950   45.2670 C   0  0  0  0  0  0  0  0  0  0  0  0
   59.6610   26.9320   45.6230 C   0  0  0  0  0  0  0  0  0  0  0  0
   59.5440   28.2790   45.2720 C   0  0  0  0  0  0  0  0  0  0  0  0
   58.1710   31.2870   45.6720 C   0  0  0  0  0  0  0  0  0  0  0  0
   64.3001   34.3950   46.5421 H   0  0  0  0  0  0  0  0  0  0  0  0
   63.5733   32.9174   45.8245 H   0  0  0  0  0  0  0  0  0  0  0  0
   62.6547   34.4611   45.8245 H   0  0  0  0  0  0  0  0  0  0  0  0
   63.1395   32.4962   48.0614 H   0  0  0  0  0  0  0  0  0  0  0  0
   63.0410   34.2465   48.4778 H   0  0  0  0  0  0  0  0  0  0  0  0
   61.4240   34.5853   49.4092 H   0  0  0  0  0  0  0  0  0  0  0  0
   60.1000   35.0561   48.2805 H   0  0  0  0  0  0  0  0  0  0  0  0
   59.8274   33.4877   50.5874 H   0  0  0  0  0  0  0  0  0  0  0  0
   58.6350   33.6319   49.2517 H   0  0  0  0  0  0  0  0  0  0  0  0
   59.8253   32.2866   49.2517 H   0  0  0  0  0  0  0  0  0  0  0  0
   61.6831   34.0618   45.6665 H   0  0  0  0  0  0  0  0  0  0  0  0
   60.1761   33.0987   45.8708 H   0  0  0  0  0  0  0  0  0  0  0  0
   60.1073   35.5463   47.4875 H   0  0  0  0  0  0  0  0  0  0  0  0
   60.3890   35.9064   45.7382 H   0  0  0  0  0  0  0  0  0  0  0  0
   57.7570   33.9980   43.6380 H   0  0  0  0  0  0  0  0  0  0  0  0
   57.3658   33.3013   41.4280 H   0  0  0  0  0  0  0  0  0  0  0  0
   58.7160   32.1778   41.0518 H   0  0  0  0  0  0  0  0  0  0  0  0
   57.0225   31.5787   41.0518 H   0  0  0  0  0  0  0  0  0  0  0  0
   58.0290   29.8820   42.6450 H   0  0  0  0  0  0  0  0  0  0  0  0
   56.1349   28.5014   45.0990 H   0  0  0  0  0  0  0  0  0  0  0  0
   56.3461   26.0995   45.7289 H   0  0  0  0  0  0  0  0  0  0  0  0
   58.2660   22.7870   45.8572 H   0  0  0  0  0  0  0  0  0  0  0  0
   57.5870   23.9123   44.6327 H   0  0  0  0  0  0  0  0  0  0  0  0
   59.3440   23.5388   44.6327 H   0  0  0  0  0  0  0  0  0  0  0  0
   60.6582   26.4912   45.7687 H   0  0  0  0  0  0  0  0  0  0  0  0
   60.4491   28.8912   45.1451 H   0  0  0  0  0  0  0  0  0  0  0  0
   58.3278   31.0242   46.7286 H   0  0  0  0  0  0  0  0  0  0  0  0
  1  2  1  0
  2  3  1  0
  3  4  1  0
  4  5  1  0
  3  6  1  0
  6  7  1  0
  7  8  1  0
  8  9  1  0
  9 10  2  0
  9 11  1  0
 11 12  2  0
 12 13  1  0
 13 14  1  0
 13 15  2  0
 15 16  1  0
 16 17  1  0
 17 18  2  0
 18 19  1  0
 19 20  2  0
 20 21  1  0
 21 22  1  0
 20 23  1  0
 23 24  2  0
 16 25  2  0
 25 11  1  0
 24 17  1  0
  1 26  1  0
  1 27  1  0
  1 28  1  0
  2 29  1  0
  2 30  1  0
  4 31  1  0
  4 32  1  0
  5 33  1  0
  5 34  1  0
  5 35  1  0
  6 36  1  0
  6 37  1  0
  7 38  1  0
  7 39  1  0
 12 40  1  0
 14 41  1  0
 14 42  1  0
 14 43  1  0
 15 44  1  0
 18 45  1  0
 19 46  1  0
 22 47  1  0
 22 48  1  0
 22 49  1  0
 23 50  1  0
 24 51  1  0
 25 52  1  0
M  CHG  2   8  -1  15   1
M  END
>  <UniqueID>  (41) 
40

>  <SMILES>  (41) 
CCN(CC)CC[N-]C(=O)c1cc(C)[nH+]c(-c2ccc(OC)cc2)c1

>  <Energy>  (41) 
54.22868489478789

>  <Genealogy>  (41) 
CCN(CC)CC[N-]C(=O)c1cc(C)[nH+]c(-c2ccc(OC)cc2)c1 (protonated)
CCN(CC)CC[N-]C(=O)c1cc(C)[nH+]c(-c2ccc(OC)cc2)c1 (3D coordinates assigned)
CCN(CC)CC[N-]C(=O)c1cc(C)[nH+]c(-c2ccc(OC)cc2)c1 (optimized conformer: 54.22868489478789 kcal/mol)

>  <smiles>  (41) 
CCN(CC)CCNC(=O)c1cc(C)nc(-c2ccc(OC)cc2)c1

>  <score_type>  (41) 
oracle

>  <origin>  (41) 
adg

>  <m_score__min__energy>  (41) 
-7.4900000000000002

>  <m_primary>  (41) 
energy

$$$$
41:0
     RDKit          3D

 33 34  0  0  0  0  0  0  0  0999 V2000
   59.4400   28.5740   44.9930 C   0  0  0  0  0  0  0  0  0  0  0  0
   58.8590   27.6850   43.8900 C   0  0  0  0  0  0  0  0  0  0  0  0
   57.3940   27.5400   43.9940 N   0  0  0  0  0  0  0  0  0  0  0  0
   56.8680   27.9190   45.3140 C   0  0  0  0  0  0  0  0  0  0  0  0
   56.2310   29.2330   45.2520 N   0  0  0  0  0  0  0  0  0  0  0  0
   56.5710   30.2660   44.3200 C   0  0  0  0  0  0  0  0  0  0  0  0
   56.2330   30.1300   43.1140 O   0  0  0  0  0  0  0  0  0  0  0  0
   57.3390   31.4630   44.7160 C   0  0  0  0  0  0  0  0  0  0  0  0
   57.6920   32.4350   43.7670 C   0  0  0  0  0  0  0  0  0  0  0  0
   58.4290   33.5610   44.1460 C   0  0  0  0  0  0  0  0  0  0  0  0
   58.8340   33.7240   45.4780 C   0  0  0  0  0  0  0  0  0  0  0  0
   59.5730   34.8520   45.8700 C   0  0  0  0  0  0  0  0  0  0  0  0
   59.9760   34.9980   47.2010 C   0  0  0  0  0  0  0  0  0  0  0  0
   59.6460   34.0250   48.1470 C   0  0  0  0  0  0  0  0  0  0  0  0
   58.9120   32.8970   47.7700 C   0  0  0  0  0  0  0  0  0  0  0  0
   58.5000   32.7370   46.4370 C   0  0  0  0  0  0  0  0  0  0  0  0
   57.7610   31.6100   46.0470 C   0  0  0  0  0  0  0  0  0  0  0  0
   59.1704   28.1615   45.9765 H   0  0  0  0  0  0  0  0  0  0  0  0
   60.5353   28.6082   44.8975 H   0  0  0  0  0  0  0  0  0  0  0  0
   59.0317   29.5909   44.8975 H   0  0  0  0  0  0  0  0  0  0  0  0
   59.1010   28.1305   42.9138 H   0  0  0  0  0  0  0  0  0  0  0  0
   59.3025   26.6843   43.9990 H   0  0  0  0  0  0  0  0  0  0  0  0
   57.1190   26.5520   43.7860 H   0  0  0  0  0  0  0  0  0  0  0  0
   56.9460   28.1510   43.2710 H   0  0  0  0  0  0  0  0  0  0  0  0
   56.1275   27.1724   45.6368 H   0  0  0  0  0  0  0  0  0  0  0  0
   57.7012   27.9605   46.0310 H   0  0  0  0  0  0  0  0  0  0  0  0
   57.3866   32.3100   42.7177 H   0  0  0  0  0  0  0  0  0  0  0  0
   58.6920   34.3217   43.3962 H   0  0  0  0  0  0  0  0  0  0  0  0
   59.8351   35.6216   45.1291 H   0  0  0  0  0  0  0  0  0  0  0  0
   60.5552   35.8827   47.5041 H   0  0  0  0  0  0  0  0  0  0  0  0
   59.9650   34.1469   49.1927 H   0  0  0  0  0  0  0  0  0  0  0  0
   58.6565   32.1329   48.5189 H   0  0  0  0  0  0  0  0  0  0  0  0
   57.5107   30.8369   46.7884 H   0  0  0  0  0  0  0  0  0  0  0  0
  1  2  1  0
  2  3  1  0
  3  4  1  0
  4  5  1  0
  5  6  1  0
  6  7  2  0
  6  8  1  0
  8  9  2  0
  9 10  1  0
 10 11  2  0
 11 12  1  0
 12 13  2  0
 13 14  1  0
 14 15  2  0
 15 16  1  0
 16 17  2  0
 17  8  1  0
 16 11  1  0
  1 18  1  0
  1 19  1  0
  1 20  1  0
  2 21  1  0
  2 22  1  0
  3 23  1  0
  3 24  1  0
  4 25  1  0
  4 26  1  0
  9 27  1  0
 10 28  1  0
 12 29  1  0
 13 30  1  0
 14 31  1  0
 15 32  1  0
 17 33  1  0
M  CHG  2   3   1   5  -1
M  END
>  <UniqueID>  (42) 
41

>  <SMILES>  (42) 
CC[NH2+]C[N-]C(=O)c1ccc2ccccc2c1

>  <Energy>  (42) 
38.63883652088442

>  <Genealogy>  (42) 
CC[NH2+]C[N-]C(=O)c1ccc2ccccc2c1 (protonated)
CC[NH2+]C[N-]C(=O)c1ccc2ccccc2c1 (3D coordinates assigned)
CC[NH2+]C[N-]C(=O)c1ccc2ccccc2c1 (optimized conformer: 38.63883652088442 kcal/mol)

>  <smiles>  (42) 
CCNCNC(=O)c1ccc2ccccc2c1

>  <score_type>  (42) 
oracle

>  <origin>  (42) 
adg

>  <m_score__min__energy>  (42) 
-6.96

>  <m_primary>  (42) 
energy

$$$$
