0:0
     RDKit          3D

 45 47  0  0  0  0  0  0  0  0999 V2000
   63.3020   33.8260   46.5620 C   0  0  0  0  0  0  0  0  0  0  0  0
   62.9070   32.6080   47.4080 C   0  0  0  0  0  0  0  0  0  0  0  0
   63.0680   32.8070   48.8700 N   0  0  0  0  0  0  0  0  0  0  0  0
   64.1630   32.0140   49.4740 C   0  0  0  0  0  0  0  0  0  0  0  0
   65.4010   32.8690   49.7420 C   0  0  0  0  0  0  0  0  0  0  0  0
   61.7940   32.6350   49.6050 C   0  0  0  0  0  0  0  0  0  0  0  0
   61.2300   33.9970   50.0270 C   0  0  0  0  0  0  0  0  0  0  0  0
   59.8550   34.1600   49.5590 N   0  0  0  0  0  0  0  0  0  0  0  0
   59.4300   33.8030   48.2380 C   0  0  0  0  0  0  0  0  0  0  0  0
   58.7270   32.6390   47.9280 C   0  0  0  0  0  0  0  0  0  0  0  0
   58.4550   32.5480   46.5630 C   0  0  0  0  0  0  0  0  0  0  0  0
   57.7840   31.5290   45.9700 N   0  0  0  0  0  0  0  0  0  0  0  0
   57.5670   31.5350   44.6190 C   0  0  0  0  0  0  0  0  0  0  0  0
   56.8690   30.4770   44.0040 C   0  0  0  0  0  0  0  0  0  0  0  0
   56.3540   29.3230   44.8200 C   0  0  0  0  0  0  0  0  0  0  0  0
   56.6620   30.5020   42.6140 C   0  0  0  0  0  0  0  0  0  0  0  0
   57.1380   31.5650   41.8430 C   0  0  0  0  0  0  0  0  0  0  0  0
   57.8290   32.6200   42.4430 C   0  0  0  0  0  0  0  0  0  0  0  0
   58.0510   32.6180   43.8250 C   0  0  0  0  0  0  0  0  0  0  0  0
   58.7460   33.6730   44.4430 C   0  0  0  0  0  0  0  0  0  0  0  0
   58.9340   33.6110   45.8190 C   0  0  0  0  0  0  0  0  0  0  0  0
   59.7150   34.7040   46.8270 S   0  0  0  0  0  0  0  0  0  0  0  0
   63.5727   34.6608   47.2252 H   0  0  0  0  0  0  0  0  0  0  0  0
   64.1625   33.5680   45.9272 H   0  0  0  0  0  0  0  0  0  0  0  0
   62.4538   34.1222   45.9272 H   0  0  0  0  0  0  0  0  0  0  0  0
   61.8513   32.3746   47.2054 H   0  0  0  0  0  0  0  0  0  0  0  0
   63.5855   31.7905   47.1228 H   0  0  0  0  0  0  0  0  0  0  0  0
   63.8115   31.5882   50.4254 H   0  0  0  0  0  0  0  0  0  0  0  0
   64.4421   31.2205   48.7651 H   0  0  0  0  0  0  0  0  0  0  0  0
   65.5484   32.9708   50.8273 H   0  0  0  0  0  0  0  0  0  0  0  0
   66.2833   32.3868   49.2958 H   0  0  0  0  0  0  0  0  0  0  0  0
   65.2625   33.8648   49.2958 H   0  0  0  0  0  0  0  0  0  0  0  0
   61.0664   32.1276   48.9546 H   0  0  0  0  0  0  0  0  0  0  0  0
   61.9814   32.0326   50.5061 H   0  0  0  0  0  0  0  0  0  0  0  0
   61.2479   34.0698   51.1244 H   0  0  0  0  0  0  0  0  0  0  0  0
   61.8497   34.7879   49.5792 H   0  0  0  0  0  0  0  0  0  0  0  0
   59.1470   34.5410   50.2260 H   0  0  0  0  0  0  0  0  0  0  0  0
   58.4241   31.8849   48.6694 H   0  0  0  0  0  0  0  0  0  0  0  0
   56.4577   29.5555   45.8901 H   0  0  0  0  0  0  0  0  0  0  0  0
   55.2937   29.1509   44.5833 H   0  0  0  0  0  0  0  0  0  0  0  0
   56.9340   28.4188   44.5833 H   0  0  0  0  0  0  0  0  0  0  0  0
   56.1201   29.6768   42.1289 H   0  0  0  0  0  0  0  0  0  0  0  0
   56.9675   31.5712   40.7563 H   0  0  0  0  0  0  0  0  0  0  0  0
   58.1994   33.4538   41.8285 H   0  0  0  0  0  0  0  0  0  0  0  0
   59.1289   34.5208   43.8559 H   0  0  0  0  0  0  0  0  0  0  0  0
  1  2  1  0
  2  3  1  0
  3  4  1  0
  4  5  1  0
  3  6  1  0
  6  7  1  0
  7  8  1  0
  8  9  1  0
  9 10  2  0
 10 11  1  0
 11 12  2  0
 12 13  1  0
 13 14  2  0
 14 15  1  0
 14 16  1  0
 16 17  2  0
 17 18  1  0
 18 19  2  0
 19 20  1  0
 20 21  2  0
 21 22  1  0
 22  9  1  0
 21 11  1  0
 19 13  1  0
  1 23  1  0
  1 24  1  0
  1 25  1  0
  2 26  1  0
  2 27  1  0
  4 28  1  0
  4 29  1  0
  5 30  1  0
  5 31  1  0
  5 32  1  0
  6 33  1  0
  6 34  1  0
  7 35  1  0
  7 36  1  0
  8 37  1  0
 10 38  1  0
 15 39  1  0
 15 40  1  0
 15 41  1  0
 16 42  1  0
 17 43  1  0
 18 44  1  0
 20 45  1  0
M  END
>  <UniqueID>  (1) 
1

>  <SMILES>  (1) 
CCN(CC)CCNc1cc2nc3c(C)cccc3cc2s1

>  <Energy>  (1) 
79.00277554227745

>  <Genealogy>  (1) 
CCN(CC)CCNc1cc2nc3c(C)cccc3cc2s1 (3D coordinates assigned)
CCN(CC)CCNc1cc2nc3c(C)cccc3cc2s1 (optimized conformer: 79.00277554227745 kcal/mol)

>  <smiles>  (1) 
CCN(CC)CCNc1cc2nc3c(C)cccc3cc2s1

>  <score_type>  (1) 
oracle

>  <origin>  (1) 
adg

>  <m_score__min__energy>  (1) 
-7.7000000000000002

>  <m_primary>  (1) 
energy

$$$$
1:0
     RDKit          3D

 69 72  0  0  0  0  0  0  0  0999 V2000
   56.2940   29.7160   42.7190 C   0  0  0  0  0  0  0  0  0  0  0  0
   57.0170   30.8790   43.4050 C   0  0  0  0  0  0  0  0  0  0  0  0
   56.9080   30.7880   44.8720 N   0  0  0  0  0  0  0  0  0  0  0  0
   57.2690   29.4420   45.3460 C   0  0  0  0  0  0  0  0  0  0  0  0
   58.6150   29.4280   46.1100 C   0  0  0  0  0  0  0  0  0  0  0  0
   59.1800   28.0830   46.4980 N   0  0  1  0  0  0  0  0  0  0  0  0
   58.1280   27.0840   46.1660 C   0  0  0  0  0  0  0  0  0  0  0  0
   60.3740   27.7470   45.6290 C   0  0  0  0  0  0  0  0  0  0  0  0
   61.0020   28.9100   44.8320 C   0  0  0  0  0  0  0  0  0  0  0  0
   59.5050   27.9350   47.9660 C   0  0  0  0  0  0  0  0  0  0  0  0
   59.9430   29.2190   48.7230 C   0  0  0  0  0  0  0  0  0  0  0  0
   58.8240   29.9350   49.5150 C   0  0  0  0  0  0  0  0  0  0  0  0
   59.1150   31.3460   49.8680 N   0  0  0  0  0  0  0  0  0  0  0  0
   60.0640   31.9760   48.9610 C   0  0  0  0  0  0  0  0  0  0  0  0
   59.6740   32.7350   47.8080 C   0  0  0  0  0  0  0  0  0  0  0  0
   58.3330   32.7740   47.3540 C   0  0  0  0  0  0  0  0  0  0  0  0
   57.9530   33.5600   46.2660 C   0  0  0  0  0  0  0  0  0  0  0  0
   58.8900   34.3310   45.6020 C   0  0  0  0  0  0  0  0  0  0  0  0
   60.2300   34.2940   45.9900 C   0  0  0  0  0  0  0  0  0  0  0  0
   60.6700   33.4750   47.0670 C   0  0  0  0  0  0  0  0  0  0  0  0
   62.0140   33.3890   47.4090 N   0  0  0  0  0  0  0  0  0  0  0  0
   63.0860   33.9670   46.5800 C   0  0  0  0  0  0  0  0  0  0  0  0
   62.3510   32.6770   48.5340 C   0  0  0  0  0  0  0  0  0  0  0  0
   61.4310   31.9490   49.2620 C   0  0  0  0  0  0  0  0  0  0  0  0
   62.0250   31.2830   50.2790 N   0  0  0  0  0  0  0  0  0  0  0  0
   63.3260   31.6260   50.2200 C   0  0  0  0  0  0  0  0  0  0  0  0
   64.3260   31.2280   51.1120 C   0  0  0  0  0  0  0  0  0  0  0  0
   65.6180   31.7430   50.9300 C   0  0  0  0  0  0  0  0  0  0  0  0
   65.8810   32.6560   49.8930 C   0  0  0  0  0  0  0  0  0  0  0  0
   64.8610   33.0570   49.0130 C   0  0  0  0  0  0  0  0  0  0  0  0
   63.5820   32.5000   49.1810 C   0  0  0  0  0  0  0  0  0  0  0  0
   55.8757   29.0431   43.4820 H   0  0  0  0  0  0  0  0  0  0  0  0
   55.4808   30.1090   42.0911 H   0  0  0  0  0  0  0  0  0  0  0  0
   57.0063   29.1606   42.0911 H   0  0  0  0  0  0  0  0  0  0  0  0
   58.0799   30.8563   43.1228 H   0  0  0  0  0  0  0  0  0  0  0  0
   56.5475   31.8192   43.0801 H   0  0  0  0  0  0  0  0  0  0  0  0
   57.6020   31.4620   45.2740 H   0  0  0  0  0  0  0  0  0  0  0  0
   56.4772   29.0798   46.0182 H   0  0  0  0  0  0  0  0  0  0  0  0
   57.3765   28.7931   44.4643 H   0  0  0  0  0  0  0  0  0  0  0  0
   59.3605   29.9279   45.4741 H   0  0  0  0  0  0  0  0  0  0  0  0
   58.4012   29.9293   47.0655 H   0  0  0  0  0  0  0  0  0  0  0  0
   57.7011   26.6786   47.0952 H   0  0  0  0  0  0  0  0  0  0  0  0
   57.3342   27.5688   45.5787 H   0  0  0  0  0  0  0  0  0  0  0  0
   58.5712   26.2662   45.5787 H   0  0  0  0  0  0  0  0  0  0  0  0
   61.1550   27.3311   46.2825 H   0  0  0  0  0  0  0  0  0  0  0  0
   59.9907   27.0502   44.8690 H   0  0  0  0  0  0  0  0  0  0  0  0
   61.4056   29.6575   45.5308 H   0  0  0  0  0  0  0  0  0  0  0  0
   61.8143   28.5239   44.1986 H   0  0  0  0  0  0  0  0  0  0  0  0
   60.2337   29.3774   44.1986 H   0  0  0  0  0  0  0  0  0  0  0  0
   58.6072   27.5440   48.4671 H   0  0  0  0  0  0  0  0  0  0  0  0
   60.3807   27.2701   47.9997 H   0  0  0  0  0  0  0  0  0  0  0  0
   60.7365   28.9410   49.4323 H   0  0  0  0  0  0  0  0  0  0  0  0
   60.2708   29.9301   47.9504 H   0  0  0  0  0  0  0  0  0  0  0  0
   57.9084   29.9169   48.9055 H   0  0  0  0  0  0  0  0  0  0  0  0
   58.7236   29.3928   50.4668 H   0  0  0  0  0  0  0  0  0  0  0  0
   59.3830   31.3920   50.8630 H   0  0  0  0  0  0  0  0  0  0  0  0
   58.2170   31.8810   49.8180 H   0  0  0  0  0  0  0  0  0  0  0  0
   57.5731   32.1702   47.8716 H   0  0  0  0  0  0  0  0  0  0  0  0
   56.9041   33.5667   45.9348 H   0  0  0  0  0  0  0  0  0  0  0  0
   58.5782   34.9747   44.7663 H   0  0  0  0  0  0  0  0  0  0  0  0
   60.9629   34.9122   45.4508 H   0  0  0  0  0  0  0  0  0  0  0  0
   63.8665   34.3878   47.2310 H   0  0  0  0  0  0  0  0  0  0  0  0
   63.5222   33.1818   45.9450 H   0  0  0  0  0  0  0  0  0  0  0  0
   62.6697   34.7629   45.9450 H   0  0  0  0  0  0  0  0  0  0  0  0
   61.5890   30.6310   50.9690 H   0  0  0  0  0  0  0  0  0  0  0  0
   64.1059   30.5305   51.9336 H   0  0  0  0  0  0  0  0  0  0  0  0
   66.4306   31.4308   51.6025 H   0  0  0  0  0  0  0  0  0  0  0  0
   66.8963   33.0608   49.7693 H   0  0  0  0  0  0  0  0  0  0  0  0
   65.0587   33.7871   48.2144 H   0  0  0  0  0  0  0  0  0  0  0  0
  1  2  1  0
  2  3  1  0
  3  4  1  0
  4  5  1  0
  6  5  1  1
  6  7  1  0
  6  8  1  0
  8  9  1  0
  6 10  1  0
 10 11  1  0
 11 12  1  0
 12 13  1  0
 13 14  1  0
 14 15  2  0
 15 16  1  0
 16 17  2  0
 17 18  1  0
 18 19  2  0
 19 20  1  0
 20 21  2  0
 21 22  1  0
 21 23  1  0
 23 24  2  0
 24 25  1  0
 25 26  1  0
 26 27  2  0
 27 28  1  0
 28 29  2  0
 29 30  1  0
 30 31  2  0
 24 14  1  0
 31 26  1  0
 20 15  1  0
 31 23  1  0
  1 32  1  0
  1 33  1  0
  1 34  1  0
  2 35  1  0
  2 36  1  0
  3 37  1  0
  4 38  1  0
  4 39  1  0
  5 40  1  0
  5 41  1  0
  7 42  1  0
  7 43  1  0
  7 44  1  0
  8 45  1  0
  8 46  1  0
  9 47  1  0
  9 48  1  0
  9 49  1  0
 10 50  1  0
 10 51  1  0
 11 52  1  0
 11 53  1  0
 12 54  1  0
 12 55  1  0
 13 56  1  0
 13 57  1  0
 16 58  1  0
 17 59  1  0
 18 60  1  0
 19 61  1  0
 22 62  1  0
 22 63  1  0
 22 64  1  0
 25 65  1  0
 27 66  1  0
 28 67  1  0
 29 68  1  0
 30 69  1  0
M  CHG  3   6   1  13   1  21   1
M  END
>  <UniqueID>  (2) 
2

>  <SMILES>  (2) 
CCNCC[N@@+](C)(CC)CCC[NH2+]c1c2ccccc2[n+](C)c2c1[nH]c1ccccc12

>  <Energy>  (2) 
159.0860098697228

>  <Genealogy>  (2) 
CCNCC[N+](C)(CC)CCC[NH2+]c1c2ccccc2[n+](C)c2c1[nH]c1ccccc12 (protonated)
CCNCC[N@@+](C)(CC)CCC[NH2+]c1c2ccccc2[n+](C)c2c1[nH]c1ccccc12 (chirality)
CCNCC[N@@+](C)(CC)CCC[NH2+]c1c2ccccc2[n+](C)c2c1[nH]c1ccccc12 (3D coordinates assigned)
CCNCC[N@@+](C)(CC)CCC[NH2+]c1c2ccccc2[n+](C)c2c1[nH]c1ccccc12 (optimized conformer: 159.0860098697228 kcal/mol)

>  <smiles>  (2) 
CCNCC[N+](C)(CC)CCCNc1c2ccccc2[n+](C)c2c1[nH]c1ccccc12

>  <score_type>  (2) 
oracle

>  <origin>  (2) 
adg

>  <m_score__min__energy>  (2) 
-4.2000000000000002

>  <m_primary>  (2) 
energy

$$$$
2:0
     RDKit          3D

 49 51  0  0  0  0  0  0  0  0999 V2000
   58.1130   33.1560   44.5260 C   0  0  0  0  0  0  0  0  0  0  0  0
   57.0190   32.3170   45.1840 C   0  0  0  0  0  0  0  0  0  0  0  0
   57.1980   30.8740   44.9110 N   0  0  0  0  0  0  0  0  0  0  0  0
   56.0320   30.1840   44.3070 C   0  0  0  0  0  0  0  0  0  0  0  0
   56.2620   29.6930   42.8760 C   0  0  0  0  0  0  0  0  0  0  0  0
   58.5110   30.4980   44.3310 C   0  0  0  0  0  0  0  0  0  0  0  0
   59.0120   29.0900   44.7370 C   0  0  0  0  0  0  0  0  0  0  0  0
   60.0730   29.1500   45.8540 C   0  0  0  0  0  0  0  0  0  0  0  0
   59.9100   28.0790   46.8630 N   0  0  0  0  0  0  0  0  0  0  0  0
   58.5160   27.9160   47.3240 C   0  0  0  0  0  0  0  0  0  0  0  0
   57.8080   26.7890   46.6050 C   0  0  0  0  0  0  0  0  0  0  0  0
   56.4300   26.8890   46.3640 C   0  0  0  0  0  0  0  0  0  0  0  0
   55.7760   25.9270   45.6640 N   0  0  0  0  0  0  0  0  0  0  0  0
   56.4170   24.8360   45.1730 C   0  0  0  0  0  0  0  0  0  0  0  0
   55.6960   23.8740   44.4420 C   0  0  0  0  0  0  0  0  0  0  0  0
   56.3920   22.7740   43.9510 C   0  0  0  0  0  0  0  0  0  0  0  0
   57.7230   22.6120   44.1600 C   0  0  0  0  0  0  0  0  0  0  0  0
   58.4800   23.5350   44.8770 C   0  0  0  0  0  0  0  0  0  0  0  0
   57.8180   24.6720   45.3970 C   0  0  0  0  0  0  0  0  0  0  0  0
   58.5060   25.6610   46.1250 C   0  0  0  0  0  0  0  0  0  0  0  0
   59.7430   25.5440   46.3390 O   0  0  0  0  0  0  0  0  0  0  0  0
   58.1420   21.4400   43.5600 O   0  0  0  0  0  0  0  0  0  0  0  0
   57.0040   20.8280   42.9380 C   0  0  0  0  0  0  0  0  0  0  0  0
   55.9090   21.7120   43.2110 O   0  0  0  0  0  0  0  0  0  0  0  0
   58.7300   33.6292   45.3040 H   0  0  0  0  0  0  0  0  0  0  0  0
   58.7449   32.5088   43.9001 H   0  0  0  0  0  0  0  0  0  0  0  0
   57.6518   33.9341   43.9001 H   0  0  0  0  0  0  0  0  0  0  0  0
   57.0496   32.4807   46.2713 H   0  0  0  0  0  0  0  0  0  0  0  0
   56.0501   32.6277   44.7659 H   0  0  0  0  0  0  0  0  0  0  0  0
   55.7837   29.3147   44.9336 H   0  0  0  0  0  0  0  0  0  0  0  0
   55.2188   30.9232   44.2593 H   0  0  0  0  0  0  0  0  0  0  0  0
   56.7285   28.6971   42.9006 H   0  0  0  0  0  0  0  0  0  0  0  0
   55.2981   29.6335   42.3494 H   0  0  0  0  0  0  0  0  0  0  0  0
   56.9247   30.3955   42.3494 H   0  0  0  0  0  0  0  0  0  0  0  0
   58.4241   30.5291   43.2349 H   0  0  0  0  0  0  0  0  0  0  0  0
   59.2446   31.2170   44.7245 H   0  0  0  0  0  0  0  0  0  0  0  0
   58.1558   28.4982   45.0929 H   0  0  0  0  0  0  0  0  0  0  0  0
   59.4772   28.6289   43.8533 H   0  0  0  0  0  0  0  0  0  0  0  0
   61.0690   29.0530   45.3973 H   0  0  0  0  0  0  0  0  0  0  0  0
   59.9517   30.1125   46.3725 H   0  0  0  0  0  0  0  0  0  0  0  0
   60.5440   28.2200   47.6830 H   0  0  0  0  0  0  0  0  0  0  0  0
   60.1940   27.1750   46.4170 H   0  0  0  0  0  0  0  0  0  0  0  0
   58.5218   27.7005   48.4027 H   0  0  0  0  0  0  0  0  0  0  0  0
   57.9757   28.8492   47.1069 H   0  0  0  0  0  0  0  0  0  0  0  0
   55.8727   27.7568   46.7465 H   0  0  0  0  0  0  0  0  0  0  0  0
   54.6164   23.9880   44.2644 H   0  0  0  0  0  0  0  0  0  0  0  0
   59.5583   23.3848   45.0341 H   0  0  0  0  0  0  0  0  0  0  0  0
   57.1617   20.7319   41.8536 H   0  0  0  0  0  0  0  0  0  0  0  0
   56.8204   19.8136   43.3217 H   0  0  0  0  0  0  0  0  0  0  0  0
  1  2  1  0
  2  3  1  0
  3  4  1  0
  4  5  1  0
  3  6  1  0
  6  7  1  0
  7  8  1  0
  8  9  1  0
  9 10  1  0
 10 11  1  0
 11 12  2  0
 12 13  1  0
 13 14  1  0
 14 15  2  0
 15 16  1  0
 16 17  2  0
 17 18  1  0
 18 19  2  0
 19 20  1  0
 20 21  2  0
 17 22  1  0
 22 23  1  0
 23 24  1  0
 20 11  1  0
 19 14  1  0
 24 16  1  0
  1 25  1  0
  1 26  1  0
  1 27  1  0
  2 28  1  0
  2 29  1  0
  4 30  1  0
  4 31  1  0
  5 32  1  0
  5 33  1  0
  5 34  1  0
  6 35  1  0
  6 36  1  0
  7 37  1  0
  7 38  1  0
  8 39  1  0
  8 40  1  0
  9 41  1  0
  9 42  1  0
 10 43  1  0
 10 44  1  0
 12 45  1  0
 15 46  1  0
 18 47  1  0
 23 48  1  0
 23 49  1  0
M  CHG  2   9   1  13  -1
M  END
>  <UniqueID>  (3) 
3

>  <SMILES>  (3) 
CCN(CC)CCC[NH2+]Cc1c[n-]c2cc3c(cc2c1=O)OCO3

>  <Energy>  (3) 
86.96295131989764

>  <Genealogy>  (3) 
CCN(CC)CCC[NH2+]Cc1c[n-]c2cc3c(cc2c1=O)OCO3 (protonated)
CCN(CC)CCC[NH2+]Cc1c[n-]c2cc3c(cc2c1=O)OCO3 (3D coordinates assigned)
CCN(CC)CCC[NH2+]Cc1c[n-]c2cc3c(cc2c1=O)OCO3 (nonaromatic ring conformer: 86.96295131989764 kcal/mol)

>  <smiles>  (3) 
CCN(CC)CCCNCc1c[nH]c2cc3c(cc2c1=O)OCO3

>  <score_type>  (3) 
oracle

>  <origin>  (3) 
adg

>  <m_score__min__energy>  (3) 
-6.7199999999999998

>  <m_primary>  (3) 
energy

$$$$
3:0
     RDKit          3D

 55 58  0  0  0  0  0  0  0  0999 V2000
   63.4030   33.7900   46.6850 C   0  0  0  0  0  0  0  0  0  0  0  0
   63.1460   33.8690   48.1990 C   0  0  0  0  0  0  0  0  0  0  0  0
   63.6230   32.6940   48.9700 N   0  0  0  0  0  0  0  0  0  0  0  0
   65.0460   32.7390   49.3730 C   0  0  0  0  0  0  0  0  0  0  0  0
   65.3420   31.7700   50.5170 C   0  0  0  0  0  0  0  0  0  0  0  0
   62.6730   32.2040   49.9970 C   0  0  0  0  0  0  0  0  0  0  0  0
   61.3720   31.6160   49.4270 C   0  0  0  0  0  0  0  0  0  0  0  0
   61.4700   31.4880   47.9730 N   0  0  0  0  0  0  0  0  0  0  0  0
   60.3280   31.1820   47.1550 C   0  0  0  0  0  0  0  0  0  0  0  0
   60.0180   29.8660   46.8810 N   0  0  0  0  0  0  0  0  0  0  0  0
   58.9280   29.4790   46.1400 C   0  0  0  0  0  0  0  0  0  0  0  0
   58.6750   28.0790   45.9050 N   0  0  0  0  0  0  0  0  0  0  0  0
   58.6010   27.1600   47.0480 C   0  0  0  0  0  0  0  0  0  0  0  0
   57.6660   25.9920   46.7270 C   0  0  0  0  0  0  0  0  0  0  0  0
   58.0250   25.3860   45.5010 O   0  0  0  0  0  0  0  0  0  0  0  0
   57.8130   26.2980   44.4420 C   0  0  0  0  0  0  0  0  0  0  0  0
   58.7540   27.5020   44.5570 C   0  0  0  0  0  0  0  0  0  0  0  0
   58.1060   30.5000   45.6480 C   0  0  0  0  0  0  0  0  0  0  0  0
   56.9940   30.4630   44.8820 N   0  0  0  0  0  0  0  0  0  0  0  0
   56.6390   31.7170   44.6990 O   0  0  0  0  0  0  0  0  0  0  0  0
   57.4810   32.5360   45.3030 C   0  0  0  0  0  0  0  0  0  0  0  0
   58.4140   31.7820   45.9110 C   0  0  0  0  0  0  0  0  0  0  0  0
   59.5050   32.2090   46.6250 C   0  0  0  0  0  0  0  0  0  0  0  0
   59.6530   33.7050   46.8320 C   0  0  0  0  0  0  0  0  0  0  0  0
   58.9220   34.5260   45.7200 C   0  0  0  0  0  0  0  0  0  0  0  0
   57.4830   34.0280   45.3980 C   0  0  0  0  0  0  0  0  0  0  0  0
   64.4403   33.4711   46.5053 H   0  0  0  0  0  0  0  0  0  0  0  0
   62.7124   33.0627   46.2333 H   0  0  0  0  0  0  0  0  0  0  0  0
   63.2402   34.7797   46.2333 H   0  0  0  0  0  0  0  0  0  0  0  0
   63.6554   34.7634   48.5870 H   0  0  0  0  0  0  0  0  0  0  0  0
   62.0541   33.9034   48.3279 H   0  0  0  0  0  0  0  0  0  0  0  0
   65.6699   32.4700   48.5079 H   0  0  0  0  0  0  0  0  0  0  0  0
   65.2711   33.7580   49.7207 H   0  0  0  0  0  0  0  0  0  0  0  0
   65.1862   32.2800   51.4791 H   0  0  0  0  0  0  0  0  0  0  0  0
   64.6675   30.9039   50.4477 H   0  0  0  0  0  0  0  0  0  0  0  0
   66.3854   31.4286   50.4477 H   0  0  0  0  0  0  0  0  0  0  0  0
   63.1753   31.4223   50.5857 H   0  0  0  0  0  0  0  0  0  0  0  0
   62.3855   33.0767   50.6017 H   0  0  0  0  0  0  0  0  0  0  0  0
   61.1979   30.6235   49.8682 H   0  0  0  0  0  0  0  0  0  0  0  0
   60.5365   32.2880   49.6727 H   0  0  0  0  0  0  0  0  0  0  0  0
   62.4150   31.5920   47.5410 H   0  0  0  0  0  0  0  0  0  0  0  0
   59.6063   26.7711   47.2672 H   0  0  0  0  0  0  0  0  0  0  0  0
   58.2101   27.7034   47.9209 H   0  0  0  0  0  0  0  0  0  0  0  0
   57.7320   25.2451   47.5318 H   0  0  0  0  0  0  0  0  0  0  0  0
   56.6380   26.3747   46.6444 H   0  0  0  0  0  0  0  0  0  0  0  0
   57.9975   25.7874   43.4853 H   0  0  0  0  0  0  0  0  0  0  0  0
   56.7750   26.6586   44.4927 H   0  0  0  0  0  0  0  0  0  0  0  0
   59.7863   27.1767   44.3607 H   0  0  0  0  0  0  0  0  0  0  0  0
   58.4547   28.2636   43.8219 H   0  0  0  0  0  0  0  0  0  0  0  0
   59.2253   33.9722   47.8096 H   0  0  0  0  0  0  0  0  0  0  0  0
   60.7244   33.9498   46.7858 H   0  0  0  0  0  0  0  0  0  0  0  0
   58.8583   35.5732   46.0506 H   0  0  0  0  0  0  0  0  0  0  0  0
   59.5112   34.4036   44.7992 H   0  0  0  0  0  0  0  0  0  0  0  0
   56.7977   34.3453   46.1978 H   0  0  0  0  0  0  0  0  0  0  0  0
   57.1527   34.4566   44.4403 H   0  0  0  0  0  0  0  0  0  0  0  0
  1  2  1  0
  2  3  1  0
  3  4  1  0
  4  5  1  0
  3  6  1  0
  6  7  1  0
  7  8  1  0
  8  9  1  0
  9 10  1  0
 10 11  2  0
 11 12  1  0
 12 13  1  0
 13 14  1  0
 14 15  1  0
 15 16  1  0
 16 17  1  0
 11 18  1  0
 18 19  2  0
 19 20  1  0
 20 21  1  0
 21 22  2  0
 22 23  1  0
 23 24  1  0
 24 25  1  0
 25 26  1  0
 23  9  2  0
 17 12  1  0
 22 18  1  0
 26 21  1  0
  1 27  1  0
  1 28  1  0
  1 29  1  0
  2 30  1  0
  2 31  1  0
  4 32  1  0
  4 33  1  0
  5 34  1  0
  5 35  1  0
  5 36  1  0
  6 37  1  0
  6 38  1  0
  7 39  1  0
  7 40  1  0
  8 41  1  0
 13 42  1  0
 13 43  1  0
 14 44  1  0
 14 45  1  0
 16 46  1  0
 16 47  1  0
 17 48  1  0
 17 49  1  0
 24 50  1  0
 24 51  1  0
 25 52  1  0
 25 53  1  0
 26 54  1  0
 26 55  1  0
M  END
>  <UniqueID>  (4) 
4

>  <SMILES>  (4) 
CCN(CC)CCNc1nc(N2CCOCC2)c2noc3c2c1CCC3

>  <Energy>  (4) 
113.2570075076666

>  <Genealogy>  (4) 
CCN(CC)CCNc1nc(N2CCOCC2)c2noc3c2c1CCC3 (3D coordinates assigned)
CCN(CC)CCNc1nc(N2CCOCC2)c2noc3c2c1CCC3 (nonaromatic ring conformer: 113.2570075076666 kcal/mol)

>  <smiles>  (4) 
CCN(CC)CCNc1nc(N2CCOCC2)c2noc3c2c1CCC3

>  <score_type>  (4) 
oracle

>  <origin>  (4) 
adg

>  <m_score__min__energy>  (4) 
-7.6799999999999997

>  <m_primary>  (4) 
energy

$$$$
4:0
     RDKit          3D

 57 59  0  0  0  0  0  0  0  0999 V2000
   55.6440   24.2490   45.0570 C   0  0  0  0  0  0  0  0  0  0  0  0
   54.5780   25.1930   45.6110 C   0  0  0  0  0  0  0  0  0  0  0  0
   55.1580   26.4780   45.9730 N   0  0  0  0  0  0  0  0  0  0  0  0
   56.5580   26.7070   46.1560 C   0  0  0  0  0  0  0  0  0  0  0  0
   57.1030   26.4600   47.2690 O   0  0  0  0  0  0  0  0  0  0  0  0
   57.3930   27.3140   45.0550 C   0  0  0  0  0  0  0  0  0  0  0  0
   57.3520   28.7940   44.9770 N   0  0  0  0  0  0  0  0  0  0  0  0
   58.5580   29.4700   45.5020 C   0  0  0  0  0  0  0  0  0  0  0  0
   58.5130   30.9870   45.2290 C   0  0  0  0  0  0  0  0  0  0  0  0
   57.1210   31.4170   45.0080 N   0  0  0  0  0  0  0  0  0  0  0  0
   56.9900   32.8920   44.9970 C   0  0  0  0  0  0  0  0  0  0  0  0
   57.0760   33.4310   46.4250 C   0  0  0  0  0  0  0  0  0  0  0  0
   58.4720   33.5510   46.8740 N   0  0  0  0  0  0  0  0  0  0  0  0
   59.4390   34.2290   46.0480 C   0  0  0  0  0  0  0  0  0  0  0  0
   59.1260   34.6120   44.8890 O   0  0  0  0  0  0  0  0  0  0  0  0
   60.8040   34.5690   46.5790 C   0  0  0  0  0  0  0  0  0  0  0  0
   61.3080   33.5120   47.5890 C   0  0  0  0  0  0  0  0  0  0  0  0
   62.6410   33.9650   48.2060 C   0  0  0  0  0  0  0  0  0  0  0  0
   63.3690   32.6910   48.5900 C   0  0  0  0  0  0  0  0  0  0  0  0
   62.9190   31.6360   47.5850 C   0  0  0  0  0  0  0  0  0  0  0  0
   61.6580   32.1710   46.9060 C   0  0  0  0  0  0  0  0  0  0  0  0
   60.2450   33.3080   48.7020 C   0  0  0  0  0  0  0  0  0  0  0  0
   58.8900   32.9890   48.1320 C   0  0  0  0  0  0  0  0  0  0  0  0
   58.1060   32.2580   48.7980 O   0  0  0  0  0  0  0  0  0  0  0  0
   56.5800   30.8080   43.7720 C   0  0  0  0  0  0  0  0  0  0  0  0
   56.9460   29.3130   43.6580 C   0  0  0  0  0  0  0  0  0  0  0  0
   56.1813   23.7732   45.8906 H   0  0  0  0  0  0  0  0  0  0  0  0
   55.1636   23.4747   44.4408 H   0  0  0  0  0  0  0  0  0  0  0  0
   56.3545   24.8195   44.4408 H   0  0  0  0  0  0  0  0  0  0  0  0
   53.8037   25.3504   44.8457 H   0  0  0  0  0  0  0  0  0  0  0  0
   54.1412   24.7387   46.5125 H   0  0  0  0  0  0  0  0  0  0  0  0
   58.4383   27.0100   45.2132 H   0  0  0  0  0  0  0  0  0  0  0  0
   56.9676   26.9458   44.1098 H   0  0  0  0  0  0  0  0  0  0  0  0
   58.6186   29.3028   46.5875 H   0  0  0  0  0  0  0  0  0  0  0  0
   59.4395   29.0516   44.9942 H   0  0  0  0  0  0  0  0  0  0  0  0
   58.9279   31.5255   46.0938 H   0  0  0  0  0  0  0  0  0  0  0  0
   59.1075   31.2106   44.3309 H   0  0  0  0  0  0  0  0  0  0  0  0
   57.8009   33.3260   44.3936 H   0  0  0  0  0  0  0  0  0  0  0  0
   56.0171   33.1666   44.5635 H   0  0  0  0  0  0  0  0  0  0  0  0
   56.6025   34.4232   46.4615 H   0  0  0  0  0  0  0  0  0  0  0  0
   56.5590   32.7250   47.0916 H   0  0  0  0  0  0  0  0  0  0  0  0
   61.5102   34.6221   45.7373 H   0  0  0  0  0  0  0  0  0  0  0  0
   60.7366   35.5350   47.1007 H   0  0  0  0  0  0  0  0  0  0  0  0
   63.2287   34.5364   47.4725 H   0  0  0  0  0  0  0  0  0  0  0  0
   62.4842   34.6209   49.0750 H   0  0  0  0  0  0  0  0  0  0  0  0
   64.4573   32.8385   48.5290 H   0  0  0  0  0  0  0  0  0  0  0  0
   63.1402   32.3897   49.6229 H   0  0  0  0  0  0  0  0  0  0  0  0
   63.7075   31.4669   46.8369 H   0  0  0  0  0  0  0  0  0  0  0  0
   62.7171   30.6781   48.0868 H   0  0  0  0  0  0  0  0  0  0  0  0
   61.8458   32.3313   45.8341 H   0  0  0  0  0  0  0  0  0  0  0  0
   60.8284   31.4550   47.0013 H   0  0  0  0  0  0  0  0  0  0  0  0
   60.5629   32.4775   49.3494 H   0  0  0  0  0  0  0  0  0  0  0  0
   60.1632   34.2457   49.2712 H   0  0  0  0  0  0  0  0  0  0  0  0
   55.4844   30.9063   43.7774 H   0  0  0  0  0  0  0  0  0  0  0  0
   57.0215   31.3332   42.9122 H   0  0  0  0  0  0  0  0  0  0  0  0
   56.0724   28.7500   43.2976 H   0  0  0  0  0  0  0  0  0  0  0  0
   57.7804   29.1972   42.9507 H   0  0  0  0  0  0  0  0  0  0  0  0
  1  2  1  0
  2  3  1  0
  3  4  1  0
  4  5  2  0
  4  6  1  0
  6  7  1  0
  7  8  1  0
  8  9  1  0
  9 10  1  0
 10 11  1  0
 11 12  1  0
 12 13  1  0
 13 14  1  0
 14 15  2  0
 14 16  1  0
 16 17  1  0
 17 18  1  0
 18 19  1  0
 19 20  1  0
 20 21  1  0
 17 22  1  0
 22 23  1  0
 23 24  2  0
 10 25  1  0
 25 26  1  0
 26  7  1  0
 23 13  1  0
 21 17  1  0
  1 27  1  0
  1 28  1  0
  1 29  1  0
  2 30  1  0
  2 31  1  0
  6 32  1  0
  6 33  1  0
  8 34  1  0
  8 35  1  0
  9 36  1  0
  9 37  1  0
 11 38  1  0
 11 39  1  0
 12 40  1  0
 12 41  1  0
 16 42  1  0
 16 43  1  0
 18 44  1  0
 18 45  1  0
 19 46  1  0
 19 47  1  0
 20 48  1  0
 20 49  1  0
 21 50  1  0
 21 51  1  0
 22 52  1  0
 22 53  1  0
 25 54  1  0
 25 55  1  0
 26 56  1  0
 26 57  1  0
M  CHG  1   3  -1
M  END
>  <UniqueID>  (5) 
5

>  <SMILES>  (5) 
CC[N-]C(=O)CN1CCN(CCN2C(=O)CC3(CCCC3)CC2=O)CC1

>  <Energy>  (5) 
64.38028689822026

>  <Genealogy>  (5) 
CC[N-]C(=O)CN1CCN(CCN2C(=O)CC3(CCCC3)CC2=O)CC1 (protonated)
CC[N-]C(=O)CN1CCN(CCN2C(=O)CC3(CCCC3)CC2=O)CC1 (3D coordinates assigned)
CC[N-]C(=O)CN1CCN(CCN2C(=O)CC3(CCCC3)CC2=O)CC1 (nonaromatic ring conformer: 64.38028689822026 kcal/mol)

>  <smiles>  (5) 
CCNC(=O)CN1CCN(CCN2C(=O)CC3(CCCC3)CC2=O)CC1

>  <score_type>  (5) 
oracle

>  <origin>  (5) 
adg

>  <m_score__min__energy>  (5) 
-11.390000000000001

>  <m_primary>  (5) 
energy

$$$$
5:0
     RDKit          3D

 41 42  0  0  0  0  0  0  0  0999 V2000
   59.5500   35.3810   45.3530 C   0  0  0  0  0  0  0  0  0  0  0  0
   58.9170   34.0200   45.4710 C   0  0  0  0  0  0  0  0  0  0  0  0
   58.2890   33.4530   44.3500 C   0  0  0  0  0  0  0  0  0  0  0  0
   57.6970   32.1910   44.4300 C   0  0  0  0  0  0  0  0  0  0  0  0
   57.7090   31.4770   45.6290 C   0  0  0  0  0  0  0  0  0  0  0  0
   57.1100   30.1730   45.6610 N   0  0  0  0  0  0  0  0  0  0  0  0
   56.3890   29.5500   44.5910 C   0  0  0  0  0  0  0  0  0  0  0  0
   55.1390   29.3990   44.6560 O   0  0  0  0  0  0  0  0  0  0  0  0
   57.1300   29.0790   43.3780 C   0  0  0  0  0  0  0  0  0  0  0  0
   58.2330   28.0640   43.7390 C   0  0  0  0  0  0  0  0  0  0  0  0
   58.5630   28.0320   45.1880 N   0  0  0  0  0  0  0  0  0  0  0  0
   60.0320   28.0890   45.4150 C   0  0  0  0  0  0  0  0  0  0  0  0
   60.4210   27.4190   46.7430 C   0  0  0  0  0  0  0  0  0  0  0  0
   60.0820   26.0410   46.8040 O   0  0  0  0  0  0  0  0  0  0  0  0
   58.9540   25.6950   46.0100 C   0  0  0  0  0  0  0  0  0  0  0  0
   57.9450   26.8460   45.8410 C   0  0  0  0  0  0  0  0  0  0  0  0
   58.3630   32.0200   46.7490 C   0  0  0  0  0  0  0  0  0  0  0  0
   58.9660   33.2890   46.6820 C   0  0  0  0  0  0  0  0  0  0  0  0
   59.6540   33.8440   47.9020 C   0  0  0  0  0  0  0  0  0  0  0  0
   59.7384   35.7861   46.3582 H   0  0  0  0  0  0  0  0  0  0  0  0
   60.5014   35.2968   44.8073 H   0  0  0  0  0  0  0  0  0  0  0  0
   58.8726   36.0544   44.8073 H   0  0  0  0  0  0  0  0  0  0  0  0
   58.2633   34.0080   43.4006 H   0  0  0  0  0  0  0  0  0  0  0  0
   57.2173   31.7561   43.5408 H   0  0  0  0  0  0  0  0  0  0  0  0
   56.4180   28.6011   42.6891 H   0  0  0  0  0  0  0  0  0  0  0  0
   57.6085   29.9516   42.9094 H   0  0  0  0  0  0  0  0  0  0  0  0
   57.8950   27.0616   43.4374 H   0  0  0  0  0  0  0  0  0  0  0  0
   59.1443   28.3764   43.2081 H   0  0  0  0  0  0  0  0  0  0  0  0
   58.1360   28.8770   45.6360 H   0  0  0  0  0  0  0  0  0  0  0  0
   60.5420   27.5705   44.5897 H   0  0  0  0  0  0  0  0  0  0  0  0
   60.3347   29.1456   45.4587 H   0  0  0  0  0  0  0  0  0  0  0  0
   61.5086   27.5161   46.8763 H   0  0  0  0  0  0  0  0  0  0  0  0
   59.8558   27.9264   47.5387 H   0  0  0  0  0  0  0  0  0  0  0  0
   59.3090   25.3941   45.0133 H   0  0  0  0  0  0  0  0  0  0  0  0
   58.4302   24.8795   46.5302 H   0  0  0  0  0  0  0  0  0  0  0  0
   57.1059   26.4958   45.2220 H   0  0  0  0  0  0  0  0  0  0  0  0
   57.6000   27.1476   46.8410 H   0  0  0  0  0  0  0  0  0  0  0  0
   58.4035   31.4467   47.6869 H   0  0  0  0  0  0  0  0  0  0  0  0
   59.1678   33.4518   48.8074 H   0  0  0  0  0  0  0  0  0  0  0  0
   60.7122   33.5437   47.8947 H   0  0  0  0  0  0  0  0  0  0  0  0
   59.5844   34.9418   47.8947 H   0  0  0  0  0  0  0  0  0  0  0  0
  1  2  1  0
  2  3  2  0
  3  4  1  0
  4  5  2  0
  5  6  1  0
  6  7  1  0
  7  8  2  0
  7  9  1  0
  9 10  1  0
 10 11  1  0
 11 12  1  0
 12 13  1  0
 13 14  1  0
 14 15  1  0
 15 16  1  0
  5 17  1  0
 17 18  2  0
 18 19  1  0
 18  2  1  0
 16 11  1  0
  1 20  1  0
  1 21  1  0
  1 22  1  0
  3 23  1  0
  4 24  1  0
  9 25  1  0
  9 26  1  0
 10 27  1  0
 10 28  1  0
 11 29  1  0
 12 30  1  0
 12 31  1  0
 13 32  1  0
 13 33  1  0
 15 34  1  0
 15 35  1  0
 16 36  1  0
 16 37  1  0
 17 38  1  0
 19 39  1  0
 19 40  1  0
 19 41  1  0
M  CHG  2   6  -1  11   1
M  END
>  <UniqueID>  (6) 
6

>  <SMILES>  (6) 
Cc1ccc([N-]C(=O)CC[NH+]2CCOCC2)cc1C

>  <Energy>  (6) 
55.92951677122468

>  <Genealogy>  (6) 
Cc1ccc([N-]C(=O)CC[NH+]2CCOCC2)cc1C (protonated)
Cc1ccc([N-]C(=O)CC[NH+]2CCOCC2)cc1C (3D coordinates assigned)
Cc1ccc([N-]C(=O)CC[NH+]2CCOCC2)cc1C (nonaromatic ring conformer: 55.92951677122468 kcal/mol)

>  <smiles>  (6) 
Cc1ccc(NC(=O)CCN2CCOCC2)cc1C

>  <score_type>  (6) 
oracle

>  <origin>  (6) 
adg

>  <m_score__min__energy>  (6) 
-6.6799999999999997

>  <m_primary>  (6) 
energy

$$$$
6:0
     RDKit          3D

 65 68  0  0  0  0  0  0  0  0999 V2000
   64.7320   32.0670   50.0830 C   0  0  0  0  0  0  0  0  0  0  0  0
   63.3510   31.7300   49.5210 C   0  0  0  0  0  0  0  0  0  0  0  0
   62.5120   32.9530   49.4770 N   0  0  0  0  0  0  0  0  0  0  0  0
   62.9270   33.8220   48.3460 C   0  0  0  0  0  0  0  0  0  0  0  0
   63.2610   32.9880   47.1120 C   0  0  0  0  0  0  0  0  0  0  0  0
   62.5620   33.6980   50.7610 C   0  0  0  0  0  0  0  0  0  0  0  0
   61.2950   33.4630   51.6140 C   0  0  0  0  0  0  0  0  0  0  0  0
   60.8640   32.1130   51.5240 O   0  0  0  0  0  0  0  0  0  0  0  0
   59.4510   32.0050   51.5150 C   0  0  0  0  0  0  0  0  0  0  0  0
   58.9160   32.2060   50.0920 C   0  0  0  0  0  0  0  0  0  0  0  0
   59.9790   32.2480   49.0570 N   0  0  0  0  0  0  0  0  0  0  0  0
   59.4560   31.9780   47.7270 C   0  0  0  0  0  0  0  0  0  0  0  0
   59.0460   30.6640   47.3670 C   0  0  0  0  0  0  0  0  0  0  0  0
   58.4880   30.4360   46.0900 C   0  0  0  0  0  0  0  0  0  0  0  0
   58.0340   31.5130   45.3610 N   0  0  0  0  0  0  0  0  0  0  0  0
   56.8400   31.3840   44.4980 C   0  0  0  0  0  0  0  0  0  0  0  0
   58.5700   32.7610   45.5830 C   0  0  0  0  0  0  0  0  0  0  0  0
   58.3740   33.8140   44.6560 C   0  0  0  0  0  0  0  0  0  0  0  0
   58.9370   35.0700   44.8690 C   0  0  0  0  0  0  0  0  0  0  0  0
   59.7020   35.3080   46.0030 C   0  0  0  0  0  0  0  0  0  0  0  0
   59.9010   34.2950   46.9410 C   0  0  0  0  0  0  0  0  0  0  0  0
   59.3360   33.0100   46.7570 C   0  0  0  0  0  0  0  0  0  0  0  0
   58.4120   29.0200   45.5790 C   0  0  0  0  0  0  0  0  0  0  0  0
   58.2400   28.7320   44.2060 C   0  0  0  0  0  0  0  0  0  0  0  0
   58.1400   27.4140   43.7540 C   0  0  0  0  0  0  0  0  0  0  0  0
   58.2770   26.3560   44.6500 C   0  0  0  0  0  0  0  0  0  0  0  0
   58.5820   26.6160   45.9860 C   0  0  0  0  0  0  0  0  0  0  0  0
   58.6770   27.9390   46.4510 C   0  0  0  0  0  0  0  0  0  0  0  0
   59.3130   28.1750   47.7920 C   0  0  0  0  0  0  0  0  0  0  0  0
   58.9770   29.5380   48.3850 C   0  0  0  0  0  0  0  0  0  0  0  0
   64.6928   32.0574   51.1823 H   0  0  0  0  0  0  0  0  0  0  0  0
   65.4614   31.3205   49.7356 H   0  0  0  0  0  0  0  0  0  0  0  0
   65.0356   33.0656   49.7356 H   0  0  0  0  0  0  0  0  0  0  0  0
   63.4598   31.3255   48.5039 H   0  0  0  0  0  0  0  0  0  0  0  0
   62.8688   30.9829   50.1685 H   0  0  0  0  0  0  0  0  0  0  0  0
   62.1062   34.5126   48.1025 H   0  0  0  0  0  0  0  0  0  0  0  0
   63.8251   34.3826   48.6448 H   0  0  0  0  0  0  0  0  0  0  0  0
   63.6529   32.0093   47.4260 H   0  0  0  0  0  0  0  0  0  0  0  0
   62.3516   32.8429   46.5104 H   0  0  0  0  0  0  0  0  0  0  0  0
   64.0191   33.5107   46.5104 H   0  0  0  0  0  0  0  0  0  0  0  0
   63.4415   33.3646   51.3314 H   0  0  0  0  0  0  0  0  0  0  0  0
   62.6226   34.7717   50.5297 H   0  0  0  0  0  0  0  0  0  0  0  0
   61.5196   33.6996   52.6645 H   0  0  0  0  0  0  0  0  0  0  0  0
   60.4923   34.1131   51.2356 H   0  0  0  0  0  0  0  0  0  0  0  0
   59.1601   31.0073   51.8755 H   0  0  0  0  0  0  0  0  0  0  0  0
   59.0267   32.7787   52.1717 H   0  0  0  0  0  0  0  0  0  0  0  0
   58.2342   31.3756   49.8565 H   0  0  0  0  0  0  0  0  0  0  0  0
   58.4093   33.1822   50.0732 H   0  0  0  0  0  0  0  0  0  0  0  0
   60.4200   33.1970   49.0580 H   0  0  0  0  0  0  0  0  0  0  0  0
   60.7880   31.6340   49.2890 H   0  0  0  0  0  0  0  0  0  0  0  0
   55.9423   31.2870   45.1262 H   0  0  0  0  0  0  0  0  0  0  0  0
   56.7483   32.2775   43.8629 H   0  0  0  0  0  0  0  0  0  0  0  0
   56.9413   30.4916   43.8629 H   0  0  0  0  0  0  0  0  0  0  0  0
   57.7684   33.6372   43.7549 H   0  0  0  0  0  0  0  0  0  0  0  0
   58.7752   35.8752   44.1372 H   0  0  0  0  0  0  0  0  0  0  0  0
   60.1526   36.2987   46.1622 H   0  0  0  0  0  0  0  0  0  0  0  0
   60.5060   34.4976   47.8371 H   0  0  0  0  0  0  0  0  0  0  0  0
   58.1840   29.5584   43.4822 H   0  0  0  0  0  0  0  0  0  0  0  0
   57.9528   27.2112   42.6892 H   0  0  0  0  0  0  0  0  0  0  0  0
   58.1452   25.3198   44.3052 H   0  0  0  0  0  0  0  0  0  0  0  0
   58.7494   25.7797   46.6807 H   0  0  0  0  0  0  0  0  0  0  0  0
   58.9641   27.3963   48.4862 H   0  0  0  0  0  0  0  0  0  0  0  0
   60.4029   28.1416   47.6470 H   0  0  0  0  0  0  0  0  0  0  0  0
   57.9573   29.4994   48.7958 H   0  0  0  0  0  0  0  0  0  0  0  0
   59.7260   29.7516   49.1618 H   0  0  0  0  0  0  0  0  0  0  0  0
  1  2  1  0
  2  3  1  0
  3  4  1  0
  4  5  1  0
  3  6  1  0
  6  7  1  0
  7  8  1  0
  8  9  1  0
  9 10  1  0
 10 11  1  0
 11 12  1  0
 12 13  2  0
 13 14  1  0
 14 15  2  0
 15 16  1  0
 15 17  1  0
 17 18  2  0
 18 19  1  0
 19 20  2  0
 20 21  1  0
 21 22  2  0
 14 23  1  0
 23 24  2  0
 24 25  1  0
 25 26  2  0
 26 27  1  0
 27 28  2  0
 28 29  1  0
 29 30  1  0
 22 12  1  0
 28 23  1  0
 30 13  1  0
 22 17  1  0
  1 31  1  0
  1 32  1  0
  1 33  1  0
  2 34  1  0
  2 35  1  0
  4 36  1  0
  4 37  1  0
  5 38  1  0
  5 39  1  0
  5 40  1  0
  6 41  1  0
  6 42  1  0
  7 43  1  0
  7 44  1  0
  9 45  1  0
  9 46  1  0
 10 47  1  0
 10 48  1  0
 11 49  1  0
 11 50  1  0
 16 51  1  0
 16 52  1  0
 16 53  1  0
 18 54  1  0
 19 55  1  0
 20 56  1  0
 21 57  1  0
 24 58  1  0
 25 59  1  0
 26 60  1  0
 27 61  1  0
 29 62  1  0
 29 63  1  0
 30 64  1  0
 30 65  1  0
M  CHG  2  11   1  15   1
M  END
>  <UniqueID>  (7) 
7

>  <SMILES>  (7) 
CCN(CC)CCOCC[NH2+]c1c2c([n+](C)c3ccccc13)-c1ccccc1CC2

>  <Energy>  (7) 
110.8241482926616

>  <Genealogy>  (7) 
CCN(CC)CCOCC[NH2+]c1c2c([n+](C)c3ccccc13)-c1ccccc1CC2 (protonated)
CCN(CC)CCOCC[NH2+]c1c2c([n+](C)c3ccccc13)-c1ccccc1CC2 (3D coordinates assigned)
CCN(CC)CCOCC[NH2+]c1c2c([n+](C)c3ccccc13)-c1ccccc1CC2 (nonaromatic ring conformer: 110.8241482926616 kcal/mol)

>  <smiles>  (7) 
CCN(CC)CCOCCNc1c2c([n+](C)c3ccccc13)-c1ccccc1CC2

>  <score_type>  (7) 
oracle

>  <origin>  (7) 
adg

>  <m_score__min__energy>  (7) 
-5.2999999999999998

>  <m_primary>  (7) 
energy

$$$$
7:0
     RDKit          3D

 48 50  0  0  0  0  0  0  0  0999 V2000
   64.9780   33.0170   49.9400 C   0  0  0  0  0  0  0  0  0  0  0  0
   63.8750   33.9160   49.9430 O   0  0  0  0  0  0  0  0  0  0  0  0
   62.8250   33.8850   49.0150 C   0  0  0  0  0  0  0  0  0  0  0  0
   63.1100   33.4990   47.7000 C   0  0  0  0  0  0  0  0  0  0  0  0
   62.0990   33.4550   46.7360 C   0  0  0  0  0  0  0  0  0  0  0  0
   60.7810   33.8080   47.0720 C   0  0  0  0  0  0  0  0  0  0  0  0
   59.7160   33.7480   46.1070 N   0  0  0  0  0  0  0  0  0  0  0  0
   58.3420   33.4960   46.4390 C   0  0  0  0  0  0  0  0  0  0  0  0
   58.0180   33.1210   47.5980 O   0  0  0  0  0  0  0  0  0  0  0  0
   57.2880   33.6030   45.3820 C   0  0  0  0  0  0  0  0  0  0  0  0
   57.7710   32.6620   43.8950 S   0  0  0  0  0  0  0  0  0  0  0  0
   57.3880   31.0580   44.6060 C   0  0  0  0  0  0  0  0  0  0  0  0
   56.1610   30.5070   44.5700 N   0  0  0  0  0  0  0  0  0  0  0  0
   56.2380   29.3550   45.2220 N   0  0  0  0  0  0  0  0  0  0  0  0
   57.5110   29.2220   45.6430 C   0  0  0  0  0  0  0  0  0  0  0  0
   57.9810   28.0700   46.4930 C   0  0  0  0  0  0  0  0  0  0  0  0
   56.9150   27.0850   46.7290 N   0  0  0  0  0  0  0  0  0  0  0  0
   57.1730   25.8240   46.0220 C   0  0  0  0  0  0  0  0  0  0  0  0
   55.8740   25.1690   45.6790 C   0  0  0  0  0  0  0  0  0  0  0  0
   55.7260   23.9320   45.0840 C   0  0  0  0  0  0  0  0  0  0  0  0
   54.3660   23.7280   44.9900 C   0  0  0  0  0  0  0  0  0  0  0  0
   53.7710   24.8480   45.5350 C   0  0  0  0  0  0  0  0  0  0  0  0
   54.6960   25.6880   45.9400 O   0  0  0  0  0  0  0  0  0  0  0  0
   58.2650   30.2750   45.2630 N   0  0  0  0  0  0  0  0  0  0  0  0
   59.6500   30.5860   45.6130 C   0  0  0  0  0  0  0  0  0  0  0  0
   60.4890   34.1720   48.3950 C   0  0  0  0  0  0  0  0  0  0  0  0
   61.5010   34.2180   49.3590 C   0  0  0  0  0  0  0  0  0  0  0  0
   65.2639   32.7840   50.9763 H   0  0  0  0  0  0  0  0  0  0  0  0
   64.6939   32.0898   49.4207 H   0  0  0  0  0  0  0  0  0  0  0  0
   65.8288   33.4822   49.4207 H   0  0  0  0  0  0  0  0  0  0  0  0
   64.1393   33.2278   47.4227 H   0  0  0  0  0  0  0  0  0  0  0  0
   62.3364   33.1423   45.7084 H   0  0  0  0  0  0  0  0  0  0  0  0
   59.9700   33.7980   45.0950 H   0  0  0  0  0  0  0  0  0  0  0  0
   56.3419   33.2005   45.7730 H   0  0  0  0  0  0  0  0  0  0  0  0
   57.1671   34.6614   45.1079 H   0  0  0  0  0  0  0  0  0  0  0  0
   58.8181   27.5712   45.9827 H   0  0  0  0  0  0  0  0  0  0  0  0
   58.2911   28.4734   47.4683 H   0  0  0  0  0  0  0  0  0  0  0  0
   56.0020   27.4770   46.4010 H   0  0  0  0  0  0  0  0  0  0  0  0
   57.7347   26.0297   45.0989 H   0  0  0  0  0  0  0  0  0  0  0  0
   57.7608   25.1555   46.6682 H   0  0  0  0  0  0  0  0  0  0  0  0
   56.5254   23.2521   44.7542 H   0  0  0  0  0  0  0  0  0  0  0  0
   53.8573   22.8496   44.5661 H   0  0  0  0  0  0  0  0  0  0  0  0
   52.6865   25.0122   45.6176 H   0  0  0  0  0  0  0  0  0  0  0  0
   59.7551   30.6096   46.7077 H   0  0  0  0  0  0  0  0  0  0  0  0
   60.3153   29.8149   45.1973 H   0  0  0  0  0  0  0  0  0  0  0  0
   59.9217   31.5675   45.1973 H   0  0  0  0  0  0  0  0  0  0  0  0
   59.4557   34.4233   48.6763 H   0  0  0  0  0  0  0  0  0  0  0  0
   61.2616   34.5156   50.3905 H   0  0  0  0  0  0  0  0  0  0  0  0
  1  2  1  0
  2  3  1  0
  3  4  2  0
  4  5  1  0
  5  6  2  0
  6  7  1  0
  7  8  1  0
  8  9  2  0
  8 10  1  0
 10 11  1  0
 11 12  1  0
 12 13  2  0
 13 14  1  0
 14 15  2  0
 15 16  1  0
 16 17  1  0
 17 18  1  0
 18 19  1  0
 19 20  2  0
 20 21  1  0
 21 22  2  0
 22 23  1  0
 15 24  1  0
 24 25  1  0
  6 26  1  0
 26 27  2  0
 27  3  1  0
 24 12  1  0
 23 19  1  0
  1 28  1  0
  1 29  1  0
  1 30  1  0
  4 31  1  0
  5 32  1  0
  7 33  1  0
 10 34  1  0
 10 35  1  0
 16 36  1  0
 16 37  1  0
 17 38  1  0
 18 39  1  0
 18 40  1  0
 20 41  1  0
 21 42  1  0
 22 43  1  0
 25 44  1  0
 25 45  1  0
 25 46  1  0
 26 47  1  0
 27 48  1  0
M  END
>  <UniqueID>  (8) 
8

>  <SMILES>  (8) 
COc1ccc(NC(=O)CSc2nnc(CNCc3ccco3)n2C)cc1

>  <Energy>  (8) 
105.63315394610925

>  <Genealogy>  (8) 
COc1ccc(NC(=O)CSc2nnc(CNCc3ccco3)n2C)cc1 (3D coordinates assigned)
COc1ccc(NC(=O)CSc2nnc(CNCc3ccco3)n2C)cc1 (optimized conformer: 105.63315394610925 kcal/mol)

>  <smiles>  (8) 
COc1ccc(NC(=O)CSc2nnc(CNCc3ccco3)n2C)cc1

>  <score_type>  (8) 
oracle

>  <origin>  (8) 
adg

>  <m_score__min__energy>  (8) 
-8.2599999999999998

>  <m_primary>  (8) 
energy

$$$$
8:0
     RDKit          3D

 52 54  0  0  0  0  0  0  0  0999 V2000
   67.5140   32.7540   50.8650 C   0  0  0  0  0  0  0  0  0  0  0  0
   66.1880   33.2640   50.3090 C   0  0  0  0  0  0  0  0  0  0  0  0
   65.3000   32.1050   49.8450 C   0  0  0  0  0  0  0  0  0  0  0  0
   64.2970   32.5760   48.8920 N   0  0  0  0  0  0  0  0  0  0  0  0
   63.1020   33.2620   49.3040 C   0  0  0  0  0  0  0  0  0  0  0  0
   62.9470   33.5750   50.5180 O   0  0  0  0  0  0  0  0  0  0  0  0
   62.0480   33.6190   48.3260 C   0  0  0  0  0  0  0  0  0  0  0  0
   60.7930   34.0640   48.7750 C   0  0  0  0  0  0  0  0  0  0  0  0
   59.7850   34.3900   47.8620 C   0  0  0  0  0  0  0  0  0  0  0  0
   60.0180   34.2780   46.4800 C   0  0  0  0  0  0  0  0  0  0  0  0
   58.9960   34.5560   45.5130 N   0  0  0  0  0  0  0  0  0  0  0  0
   57.7270   33.8980   45.3990 C   0  0  0  0  0  0  0  0  0  0  0  0
   56.6700   34.5630   45.2240 O   0  0  0  0  0  0  0  0  0  0  0  0
   57.6690   32.4030   45.4230 C   0  0  0  0  0  0  0  0  0  0  0  0
   57.3830   31.8490   44.0240 C   0  0  0  0  0  0  0  0  0  0  0  0
   56.8810   30.1340   44.1040 S   0  0  0  0  0  0  0  0  0  0  0  0
   55.5910   30.0700   44.8730 O   0  0  0  0  0  0  0  0  0  0  0  0
   56.6420   29.6240   42.7100 O   0  0  0  0  0  0  0  0  0  0  0  0
   58.1320   29.1370   44.8700 C   0  0  0  0  0  0  0  0  0  0  0  0
   59.4690   29.5580   44.7930 C   0  0  0  0  0  0  0  0  0  0  0  0
   60.4900   28.8100   45.3820 C   0  0  0  0  0  0  0  0  0  0  0  0
   60.1970   27.6180   46.0440 C   0  0  0  0  0  0  0  0  0  0  0  0
   58.8730   27.1640   46.1150 C   0  0  0  0  0  0  0  0  0  0  0  0
   58.5580   25.9580   46.7590 C   0  0  0  0  0  0  0  0  0  0  0  0
   57.2330   25.5270   46.8170 C   0  0  0  0  0  0  0  0  0  0  0  0
   56.2320   26.3040   46.2320 C   0  0  0  0  0  0  0  0  0  0  0  0
   56.5490   27.4680   45.6060 N   0  0  0  0  0  0  0  0  0  0  0  0
   57.8310   27.9240   45.5290 C   0  0  0  0  0  0  0  0  0  0  0  0
   61.2570   33.8070   46.0310 C   0  0  0  0  0  0  0  0  0  0  0  0
   62.2670   33.4870   46.9420 C   0  0  0  0  0  0  0  0  0  0  0  0
   67.4799   32.7671   51.9644 H   0  0  0  0  0  0  0  0  0  0  0  0
   67.6867   31.7253   50.5157 H   0  0  0  0  0  0  0  0  0  0  0  0
   68.3315   33.4019   50.5157 H   0  0  0  0  0  0  0  0  0  0  0  0
   65.6622   33.8268   51.0944 H   0  0  0  0  0  0  0  0  0  0  0  0
   66.3982   33.9100   49.4439 H   0  0  0  0  0  0  0  0  0  0  0  0
   65.9263   31.3402   49.3625 H   0  0  0  0  0  0  0  0  0  0  0  0
   64.7863   31.6792   50.7196 H   0  0  0  0  0  0  0  0  0  0  0  0
   64.4660   32.3920   47.8790 H   0  0  0  0  0  0  0  0  0  0  0  0
   60.6017   34.1568   49.8543 H   0  0  0  0  0  0  0  0  0  0  0  0
   58.8063   34.7353   48.2265 H   0  0  0  0  0  0  0  0  0  0  0  0
   58.6336   32.0100   45.7766 H   0  0  0  0  0  0  0  0  0  0  0  0
   56.8588   32.0917   46.0987 H   0  0  0  0  0  0  0  0  0  0  0  0
   56.5776   32.4384   43.5614 H   0  0  0  0  0  0  0  0  0  0  0  0
   58.3032   31.9173   43.4252 H   0  0  0  0  0  0  0  0  0  0  0  0
   59.7153   30.4892   44.2618 H   0  0  0  0  0  0  0  0  0  0  0  0
   61.5304   29.1624   45.3237 H   0  0  0  0  0  0  0  0  0  0  0  0
   61.0046   27.0345   46.5101 H   0  0  0  0  0  0  0  0  0  0  0  0
   59.3546   25.3536   47.2173 H   0  0  0  0  0  0  0  0  0  0  0  0
   56.9788   24.5822   47.3198 H   0  0  0  0  0  0  0  0  0  0  0  0
   55.1838   25.9735   46.2777 H   0  0  0  0  0  0  0  0  0  0  0  0
   61.4372   33.6878   44.9524 H   0  0  0  0  0  0  0  0  0  0  0  0
   63.2403   33.1293   46.5748 H   0  0  0  0  0  0  0  0  0  0  0  0
  1  2  1  0
  2  3  1  0
  3  4  1  0
  4  5  1  0
  5  6  2  0
  5  7  1  0
  7  8  2  0
  8  9  1  0
  9 10  2  0
 10 11  1  0
 11 12  1  0
 12 13  2  0
 12 14  1  0
 14 15  1  0
 15 16  1  0
 16 17  2  0
 16 18  2  0
 16 19  1  0
 19 20  2  0
 20 21  1  0
 21 22  2  0
 22 23  1  0
 23 24  2  0
 24 25  1  0
 25 26  2  0
 26 27  1  0
 27 28  2  0
 10 29  1  0
 29 30  2  0
 30  7  1  0
 28 19  1  0
 28 23  1  0
  1 31  1  0
  1 32  1  0
  1 33  1  0
  2 34  1  0
  2 35  1  0
  3 36  1  0
  3 37  1  0
  4 38  1  0
  8 39  1  0
  9 40  1  0
 14 41  1  0
 14 42  1  0
 15 43  1  0
 15 44  1  0
 20 45  1  0
 21 46  1  0
 22 47  1  0
 24 48  1  0
 25 49  1  0
 26 50  1  0
 29 51  1  0
 30 52  1  0
M  CHG  1  11  -1
M  END
>  <UniqueID>  (9) 
9

>  <SMILES>  (9) 
CCCNC(=O)c1ccc([N-]C(=O)CCS(=O)(=O)c2cccc3cccnc23)cc1

>  <Energy>  (9) 
52.84367597723496

>  <Genealogy>  (9) 
CCCNC(=O)c1ccc([N-]C(=O)CCS(=O)(=O)c2cccc3cccnc23)cc1 (protonated)
CCCNC(=O)c1ccc([N-]C(=O)CCS(=O)(=O)c2cccc3cccnc23)cc1 (3D coordinates assigned)
CCCNC(=O)c1ccc([N-]C(=O)CCS(=O)(=O)c2cccc3cccnc23)cc1 (optimized conformer: 52.84367597723496 kcal/mol)

>  <smiles>  (9) 
CCCNC(=O)c1ccc(NC(=O)CCS(=O)(=O)c2cccc3cccnc23)cc1

>  <score_type>  (9) 
oracle

>  <origin>  (9) 
adg

>  <m_score__min__energy>  (9) 
-10.609999999999999

>  <m_primary>  (9) 
energy

$$$$
9:0
     RDKit          3D

 61 64  0  0  0  0  0  0  0  0999 V2000
   63.3180   33.8240   46.7060 C   0  0  0  0  0  0  0  0  0  0  0  0
   62.7190   34.0220   48.0950 C   0  0  0  0  0  0  0  0  0  0  0  0
   62.3940   32.7120   48.7060 N   0  0  0  0  0  0  0  0  0  0  0  0
   62.8270   32.6790   50.1140 C   0  0  0  0  0  0  0  0  0  0  0  0
   63.0190   31.6010   47.9570 C   0  0  0  0  0  0  0  0  0  0  0  0
   61.9560   30.8460   47.1360 C   0  0  0  0  0  0  0  0  0  0  0  0
   60.6020   30.9680   47.7140 N   0  0  0  0  0  0  0  0  0  0  0  0
   59.5670   30.9500   46.6900 C   0  0  0  0  0  0  0  0  0  0  0  0
   59.1600   32.1840   46.0800 C   0  0  0  0  0  0  0  0  0  0  0  0
   59.5990   33.4410   46.5740 C   0  0  0  0  0  0  0  0  0  0  0  0
   59.1960   34.6340   45.9830 C   0  0  0  0  0  0  0  0  0  0  0  0
   58.3410   34.6190   44.8930 C   0  0  0  0  0  0  0  0  0  0  0  0
   57.8880   33.4090   44.3800 C   0  0  0  0  0  0  0  0  0  0  0  0
   58.2900   32.1720   44.9450 C   0  0  0  0  0  0  0  0  0  0  0  0
   57.8490   30.9780   44.4210 N   0  0  0  0  0  0  0  0  0  0  0  0
   57.0370   30.9450   43.1860 C   0  0  0  0  0  0  0  0  0  0  0  0
   58.1350   29.8170   45.0830 C   0  0  0  0  0  0  0  0  0  0  0  0
   57.5220   28.3010   44.7030 S   0  0  0  0  0  0  0  0  0  0  0  0
   58.2680   27.4850   45.9500 C   0  0  0  0  0  0  0  0  0  0  0  0
   58.0330   26.0500   46.2020 C   0  0  0  0  0  0  0  0  0  0  0  0
   58.8570   25.0900   45.5990 C   0  0  0  0  0  0  0  0  0  0  0  0
   58.6180   23.7270   45.7970 C   0  0  0  0  0  0  0  0  0  0  0  0
   57.5380   23.3040   46.5960 C   0  0  0  0  0  0  0  0  0  0  0  0
   57.2540   21.9510   46.8260 O   0  0  0  0  0  0  0  0  0  0  0  0
   57.4310   20.9160   45.8640 C   0  0  0  0  0  0  0  0  0  0  0  0
   56.7080   24.2660   47.1840 C   0  0  0  0  0  0  0  0  0  0  0  0
   56.9440   25.6290   46.9830 C   0  0  0  0  0  0  0  0  0  0  0  0
   59.0510   28.3840   46.7000 C   0  0  0  0  0  0  0  0  0  0  0  0
   59.8610   27.8800   47.8690 C   0  0  0  0  0  0  0  0  0  0  0  0
   58.9670   29.7390   46.2090 C   0  0  0  0  0  0  0  0  0  0  0  0
   64.3585   33.4801   46.8010 H   0  0  0  0  0  0  0  0  0  0  0  0
   62.7318   33.0718   46.1577 H   0  0  0  0  0  0  0  0  0  0  0  0
   63.2956   34.7774   46.1577 H   0  0  0  0  0  0  0  0  0  0  0  0
   63.4449   34.5492   48.7315 H   0  0  0  0  0  0  0  0  0  0  0  0
   61.7963   34.6141   48.0058 H   0  0  0  0  0  0  0  0  0  0  0  0
   61.9466   32.7461   50.7700 H   0  0  0  0  0  0  0  0  0  0  0  0
   63.3606   31.7376   50.3116 H   0  0  0  0  0  0  0  0  0  0  0  0
   63.4971   33.5287   50.3116 H   0  0  0  0  0  0  0  0  0  0  0  0
   63.7828   32.0061   47.2769 H   0  0  0  0  0  0  0  0  0  0  0  0
   63.4822   30.9038   48.6707 H   0  0  0  0  0  0  0  0  0  0  0  0
   61.9420   31.2560   46.1154 H   0  0  0  0  0  0  0  0  0  0  0  0
   62.2261   29.7797   47.1402 H   0  0  0  0  0  0  0  0  0  0  0  0
   60.5370   31.8530   48.2640 H   0  0  0  0  0  0  0  0  0  0  0  0
   60.4840   30.2560   48.4490 H   0  0  0  0  0  0  0  0  0  0  0  0
   60.2725   33.4719   47.4431 H   0  0  0  0  0  0  0  0  0  0  0  0
   59.5575   35.5930   46.3826 H   0  0  0  0  0  0  0  0  0  0  0  0
   58.0203   35.5654   44.4331 H   0  0  0  0  0  0  0  0  0  0  0  0
   57.2040   33.4111   43.5185 H   0  0  0  0  0  0  0  0  0  0  0  0
   55.9700   30.9016   43.4498 H   0  0  0  0  0  0  0  0  0  0  0  0
   57.2320   31.8518   42.5947 H   0  0  0  0  0  0  0  0  0  0  0  0
   57.3049   30.0570   42.5947 H   0  0  0  0  0  0  0  0  0  0  0  0
   59.6972   25.4111   44.9658 H   0  0  0  0  0  0  0  0  0  0  0  0
   59.2762   22.9816   45.3268 H   0  0  0  0  0  0  0  0  0  0  0  0
   57.5947   19.9590   46.3810 H   0  0  0  0  0  0  0  0  0  0  0  0
   56.5322   20.8434   45.2340 H   0  0  0  0  0  0  0  0  0  0  0  0
   58.3028   21.1462   45.2340 H   0  0  0  0  0  0  0  0  0  0  0  0
   55.8620   23.9462   47.8102 H   0  0  0  0  0  0  0  0  0  0  0  0
   56.2749   26.3742   47.4378 H   0  0  0  0  0  0  0  0  0  0  0  0
   59.3756   28.1820   48.8088 H   0  0  0  0  0  0  0  0  0  0  0  0
   59.9244   26.7827   47.8252 H   0  0  0  0  0  0  0  0  0  0  0  0
   60.8734   28.3079   47.8252 H   0  0  0  0  0  0  0  0  0  0  0  0
  1  2  1  0
  2  3  1  0
  3  4  1  0
  3  5  1  0
  5  6  1  0
  6  7  1  0
  7  8  1  0
  8  9  2  0
  9 10  1  0
 10 11  2  0
 11 12  1  0
 12 13  2  0
 13 14  1  0
 14 15  2  0
 15 16  1  0
 15 17  1  0
 17 18  1  0
 18 19  1  0
 19 20  1  0
 20 21  2  0
 21 22  1  0
 22 23  2  0
 23 24  1  0
 24 25  1  0
 23 26  1  0
 26 27  2  0
 19 28  2  0
 28 29  1  0
 28 30  1  0
 30  8  1  0
 14  9  1  0
 30 17  2  0
 27 20  1  0
  1 31  1  0
  1 32  1  0
  1 33  1  0
  2 34  1  0
  2 35  1  0
  4 36  1  0
  4 37  1  0
  4 38  1  0
  5 39  1  0
  5 40  1  0
  6 41  1  0
  6 42  1  0
  7 43  1  0
  7 44  1  0
 10 45  1  0
 11 46  1  0
 12 47  1  0
 13 48  1  0
 16 49  1  0
 16 50  1  0
 16 51  1  0
 21 52  1  0
 22 53  1  0
 25 54  1  0
 25 55  1  0
 25 56  1  0
 26 57  1  0
 27 58  1  0
 29 59  1  0
 29 60  1  0
 29 61  1  0
M  CHG  2   7   1  15   1
M  END
>  <UniqueID>  (10) 
10

>  <SMILES>  (10) 
CCN(C)CC[NH2+]c1c2ccccc2[n+](C)c2sc(-c3ccc(OC)cc3)c(C)c12

>  <Energy>  (10) 
126.81362689746348

>  <Genealogy>  (10) 
CCN(C)CC[NH2+]c1c2ccccc2[n+](C)c2sc(-c3ccc(OC)cc3)c(C)c12 (protonated)
CCN(C)CC[NH2+]c1c2ccccc2[n+](C)c2sc(-c3ccc(OC)cc3)c(C)c12 (3D coordinates assigned)
CCN(C)CC[NH2+]c1c2ccccc2[n+](C)c2sc(-c3ccc(OC)cc3)c(C)c12 (optimized conformer: 126.81362689746348 kcal/mol)

>  <smiles>  (10) 
CCN(C)CCNc1c2ccccc2[n+](C)c2sc(-c3ccc(OC)cc3)c(C)c12

>  <score_type>  (10) 
oracle

>  <origin>  (10) 
adg

>  <m_score__min__energy>  (10) 
-5.3899999999999997

>  <m_primary>  (10) 
energy

$$$$
10:0
     RDKit          3D

 48 51  0  0  0  0  0  0  0  0999 V2000
   56.2900   29.6230   42.7000 C   0  0  0  0  0  0  0  0  0  0  0  0
   56.1100   29.9010   44.1640 C   0  0  0  0  0  0  0  0  0  0  0  0
   55.1500   29.3480   44.7660 O   0  0  0  0  0  0  0  0  0  0  0  0
   57.0130   30.7660   44.8880 N   0  0  0  0  0  0  0  0  0  0  0  0
   57.7840   30.2100   46.0520 C   0  0  0  0  0  0  0  0  0  0  0  0
   58.5810   31.3450   46.7050 C   0  0  1  0  0  0  0  0  0  0  0  0
   59.3130   32.0770   45.5810 C   0  0  0  0  0  0  0  0  0  0  0  0
   58.2800   33.0570   45.0980 C   0  0  2  0  0  0  0  0  0  0  0  0
   57.8480   33.9930   46.3070 C   0  0  0  0  0  0  0  0  0  0  0  0
   58.4300   33.6370   47.6590 N   0  0  0  0  0  0  0  0  0  0  0  0
   59.3530   34.6330   48.2390 C   0  0  0  0  0  0  0  0  0  0  0  0
   60.6770   34.0370   48.6550 C   0  0  0  0  0  0  0  0  0  0  0  0
   60.9790   33.7770   49.9540 N   0  0  0  0  0  0  0  0  0  0  0  0
   62.2350   33.3080   49.9240 C   0  0  0  0  0  0  0  0  0  0  0  0
   63.0290   32.9060   50.9950 C   0  0  0  0  0  0  0  0  0  0  0  0
   64.3320   32.4580   50.7090 C   0  0  0  0  0  0  0  0  0  0  0  0
   64.8000   32.4250   49.3750 C   0  0  0  0  0  0  0  0  0  0  0  0
   63.9690   32.8390   48.3170 C   0  0  0  0  0  0  0  0  0  0  0  0
   62.6810   33.2760   48.6360 C   0  0  0  0  0  0  0  0  0  0  0  0
   61.7090   33.7220   47.8160 N   0  0  0  0  0  0  0  0  0  0  0  0
   61.8060   33.8400   46.3590 C   0  0  0  0  0  0  0  0  0  0  0  0
   58.7540   32.1960   47.9700 C   0  0  0  0  0  0  0  0  0  0  0  0
   57.1060   32.2080   44.4510 C   0  0  0  0  0  0  0  0  0  0  0  0
   56.8837   28.7060   42.5712 H   0  0  0  0  0  0  0  0  0  0  0  0
   55.3052   29.4915   42.2280 H   0  0  0  0  0  0  0  0  0  0  0  0
   56.8130   30.4678   42.2280 H   0  0  0  0  0  0  0  0  0  0  0  0
   58.4740   29.4293   45.6992 H   0  0  0  0  0  0  0  0  0  0  0  0
   57.0901   29.7716   46.7843 H   0  0  0  0  0  0  0  0  0  0  0  0
   58.4063   30.6322   47.5244 H   0  0  0  0  0  0  0  0  0  0  0  0
   59.6060   31.3823   44.7800 H   0  0  0  0  0  0  0  0  0  0  0  0
   60.2488   32.5542   45.9074 H   0  0  0  0  0  0  0  0  0  0  0  0
   58.6529   33.7434   44.3235 H   0  0  0  0  0  0  0  0  0  0  0  0
   56.7519   33.9518   46.3903 H   0  0  0  0  0  0  0  0  0  0  0  0
   58.2422   34.9914   46.0665 H   0  0  0  0  0  0  0  0  0  0  0  0
   59.5408   35.4156   47.4892 H   0  0  0  0  0  0  0  0  0  0  0  0
   58.8751   35.0378   49.1433 H   0  0  0  0  0  0  0  0  0  0  0  0
   60.3760   33.9060   50.7960 H   0  0  0  0  0  0  0  0  0  0  0  0
   62.6512   32.9375   52.0276 H   0  0  0  0  0  0  0  0  0  0  0  0
   64.9902   32.1317   51.5277 H   0  0  0  0  0  0  0  0  0  0  0  0
   65.8204   32.0734   49.1627 H   0  0  0  0  0  0  0  0  0  0  0  0
   64.3215   32.8191   47.2752 H   0  0  0  0  0  0  0  0  0  0  0  0
   62.4853   34.6663   46.1025 H   0  0  0  0  0  0  0  0  0  0  0  0
   62.1966   32.9008   45.9403 H   0  0  0  0  0  0  0  0  0  0  0  0
   60.8090   34.0415   45.9403 H   0  0  0  0  0  0  0  0  0  0  0  0
   58.0750   31.8290   48.7538 H   0  0  0  0  0  0  0  0  0  0  0  0
   59.7942   32.1228   48.3201 H   0  0  0  0  0  0  0  0  0  0  0  0
   57.2435   32.2207   43.3597 H   0  0  0  0  0  0  0  0  0  0  0  0
   56.1742   32.6820   44.7930 H   0  0  0  0  0  0  0  0  0  0  0  0
  1  2  1  0
  2  3  2  0
  2  4  1  0
  4  5  1  0
  5  6  1  0
  6  7  1  0
  7  8  1  0
  8  9  1  0
  9 10  1  0
 10 11  1  0
 11 12  1  0
 12 13  2  0
 13 14  1  0
 14 15  2  0
 15 16  1  0
 16 17  2  0
 17 18  1  0
 18 19  2  0
 19 20  1  0
 20 21  1  0
 10 22  1  0
  8 23  1  0
 23  4  1  0
 22  6  1  0
 20 12  1  0
 19 14  1  0
  1 24  1  0
  1 25  1  0
  1 26  1  0
  5 27  1  0
  5 28  1  0
  6 29  1  1
  7 30  1  0
  7 31  1  0
  8 32  1  6
  9 33  1  0
  9 34  1  0
 11 35  1  0
 11 36  1  0
 13 37  1  0
 15 38  1  0
 16 39  1  0
 17 40  1  0
 18 41  1  0
 21 42  1  0
 21 43  1  0
 21 44  1  0
 22 45  1  0
 22 46  1  0
 23 47  1  0
 23 48  1  0
M  CHG  1  13   1
M  END
>  <UniqueID>  (11) 
11

>  <SMILES>  (11) 
CC(=O)N1C[C@@H]2C[C@H](CN(Cc3[nH+]c4ccccc4n3C)C2)C1

>  <Energy>  (11) 
206.07545186504572

>  <Genealogy>  (11) 
CC(=O)N1CC2CC(CN(Cc3[nH+]c4ccccc4n3C)C2)C1 (protonated)
CC(=O)N1C[C@@H]2C[C@H](CN(Cc3[nH+]c4ccccc4n3C)C2)C1 (chirality)
CC(=O)N1C[C@@H]2C[C@H](CN(Cc3[nH+]c4ccccc4n3C)C2)C1 (3D coordinates assigned)
CC(=O)N1C[C@@H]2C[C@H](CN(Cc3[nH+]c4ccccc4n3C)C2)C1 (nonaromatic ring conformer: 206.07545186504572 kcal/mol)

>  <smiles>  (11) 
CC(=O)N1CC2CC(CN(Cc3nc4ccccc4n3C)C2)C1

>  <score_type>  (11) 
oracle

>  <origin>  (11) 
adg

>  <m_score__min__energy>  (11) 
-6.6500000000000004

>  <m_primary>  (11) 
energy

$$$$
11:0
     RDKit          3D

 47 50  0  0  0  0  0  0  0  0999 V2000
   57.4140   31.5850   42.5180 C   0  0  0  0  0  0  0  0  0  0  0  0
   56.6480   30.8280   43.5980 C   0  0  0  0  0  0  0  0  0  0  0  0
   56.7020   31.5270   44.8410 O   0  0  0  0  0  0  0  0  0  0  0  0
   57.8550   31.7950   45.5970 C   0  0  0  0  0  0  0  0  0  0  0  0
   58.5020   33.0450   45.5260 C   0  0  0  0  0  0  0  0  0  0  0  0
   59.6440   33.3060   46.2820 C   0  0  0  0  0  0  0  0  0  0  0  0
   60.1760   32.3240   47.1290 C   0  0  0  0  0  0  0  0  0  0  0  0
   61.3860   32.5940   47.9420 C   0  0  0  0  0  0  0  0  0  0  0  0
   61.3710   33.3620   49.0630 N   0  0  0  0  0  0  0  0  0  0  0  0
   62.6070   33.4560   49.6170 C   0  0  0  0  0  0  0  0  0  0  0  0
   62.9000   34.1780   50.7740 C   0  0  0  0  0  0  0  0  0  0  0  0
   64.2250   34.1940   51.2430 C   0  0  0  0  0  0  0  0  0  0  0  0
   65.2360   33.4940   50.5520 C   0  0  0  0  0  0  0  0  0  0  0  0
   64.9280   32.7700   49.3890 C   0  0  0  0  0  0  0  0  0  0  0  0
   63.6080   32.7700   48.9480 C   0  0  0  0  0  0  0  0  0  0  0  0
   62.9460   32.0080   47.6090 S   0  0  0  0  0  0  0  0  0  0  0  0
   59.5420   31.0750   47.1990 C   0  0  0  0  0  0  0  0  0  0  0  0
   58.3950   30.7930   46.4450 C   0  0  0  0  0  0  0  0  0  0  0  0
   57.8520   29.5010   46.6010 O   0  0  0  0  0  0  0  0  0  0  0  0
   58.4910   28.2470   46.3470 C   0  0  2  0  0  0  0  0  0  0  0  0
   59.8290   28.4980   45.6790 C   0  0  0  0  0  0  0  0  0  0  0  0
   59.5580   28.4180   44.1800 C   0  0  0  0  0  0  0  0  0  0  0  0
   58.1870   27.9180   43.9920 N   0  0  0  0  0  0  0  0  0  0  0  0
   58.1190   26.8510   42.9830 C   0  0  0  0  0  0  0  0  0  0  0  0
   57.7230   27.4510   45.3020 C   0  0  0  0  0  0  0  0  0  0  0  0
   58.1205   32.2832   42.9907 H   0  0  0  0  0  0  0  0  0  0  0  0
   57.9683   30.8701   41.8922 H   0  0  0  0  0  0  0  0  0  0  0  0
   56.7057   32.1477   41.8922 H   0  0  0  0  0  0  0  0  0  0  0  0
   55.5977   30.7227   43.2887 H   0  0  0  0  0  0  0  0  0  0  0  0
   57.1092   29.8380   43.7295 H   0  0  0  0  0  0  0  0  0  0  0  0
   58.1000   33.8264   44.8643 H   0  0  0  0  0  0  0  0  0  0  0  0
   60.1311   34.2899   46.2133 H   0  0  0  0  0  0  0  0  0  0  0  0
   62.1093   34.7244   51.3091 H   0  0  0  0  0  0  0  0  0  0  0  0
   64.4751   34.7561   52.1549 H   0  0  0  0  0  0  0  0  0  0  0  0
   66.2703   33.5154   50.9259 H   0  0  0  0  0  0  0  0  0  0  0  0
   65.7074   32.2188   48.8424 H   0  0  0  0  0  0  0  0  0  0  0  0
   59.9544   30.2991   47.8608 H   0  0  0  0  0  0  0  0  0  0  0  0
   58.5611   27.7204   47.3102 H   0  0  0  0  0  0  0  0  0  0  0  0
   60.2120   29.4935   45.9478 H   0  0  0  0  0  0  0  0  0  0  0  0
   60.5869   27.7665   45.9961 H   0  0  0  0  0  0  0  0  0  0  0  0
   59.6564   29.4165   43.7290 H   0  0  0  0  0  0  0  0  0  0  0  0
   60.2803   27.7439   43.6965 H   0  0  0  0  0  0  0  0  0  0  0  0
   58.0568   25.8745   43.4856 H   0  0  0  0  0  0  0  0  0  0  0  0
   57.2283   26.9972   42.3542 H   0  0  0  0  0  0  0  0  0  0  0  0
   59.0210   26.8829   42.3542 H   0  0  0  0  0  0  0  0  0  0  0  0
   56.6428   27.6300   45.4075 H   0  0  0  0  0  0  0  0  0  0  0  0
   57.8959   26.3712   45.4212 H   0  0  0  0  0  0  0  0  0  0  0  0
  1  2  1  0
  2  3  1  0
  3  4  1  0
  4  5  2  0
  5  6  1  0
  6  7  2  0
  7  8  1  0
  8  9  2  0
  9 10  1  0
 10 11  2  0
 11 12  1  0
 12 13  2  0
 13 14  1  0
 14 15  2  0
 15 16  1  0
  7 17  1  0
 17 18  2  0
 18 19  1  0
 19 20  1  0
 20 21  1  0
 21 22  1  0
 22 23  1  0
 23 24  1  0
 23 25  1  0
 18  4  1  0
 25 20  1  0
 16  8  1  0
 15 10  1  0
  1 26  1  0
  1 27  1  0
  1 28  1  0
  2 29  1  0
  2 30  1  0
  5 31  1  0
  6 32  1  0
 11 33  1  0
 12 34  1  0
 13 35  1  0
 14 36  1  0
 17 37  1  0
 20 38  1  1
 21 39  1  0
 21 40  1  0
 22 41  1  0
 22 42  1  0
 24 43  1  0
 24 44  1  0
 24 45  1  0
 25 46  1  0
 25 47  1  0
M  END
>  <UniqueID>  (12) 
12

>  <SMILES>  (12) 
CCOc1ccc(-c2nc3ccccc3s2)cc1O[C@@H]1CCN(C)C1

>  <Energy>  (12) 
89.30017720698663

>  <Genealogy>  (12) 
CCOc1ccc(-c2nc3ccccc3s2)cc1O[C@@H]1CCN(C)C1 (chirality)
CCOc1ccc(-c2nc3ccccc3s2)cc1O[C@@H]1CCN(C)C1 (3D coordinates assigned)
CCOc1ccc(-c2nc3ccccc3s2)cc1O[C@@H]1CCN(C)C1 (nonaromatic ring conformer: 89.30017720698663 kcal/mol)

>  <smiles>  (12) 
CCOc1ccc(-c2nc3ccccc3s2)cc1OC1CCN(C)C1

>  <score_type>  (12) 
oracle

>  <origin>  (12) 
adg

>  <m_score__min__energy>  (12) 
-7.5

>  <m_primary>  (12) 
energy

$$$$
12:0
     RDKit          3D

 47 48  0  0  0  0  0  0  0  0999 V2000
   63.6780   33.0880   46.7610 C   0  0  0  0  0  0  0  0  0  0  0  0
   63.3900   31.8520   47.6220 C   0  0  0  0  0  0  0  0  0  0  0  0
   62.3120   32.0580   48.6270 N   0  0  0  0  0  0  0  0  0  0  0  0
   62.1720   30.8450   49.4740 C   0  0  0  0  0  0  0  0  0  0  0  0
   60.8150   30.1510   49.3000 C   0  0  0  0  0  0  0  0  0  0  0  0
   62.4160   33.3310   49.4040 C   0  0  0  0  0  0  0  0  0  0  0  0
   61.5230   34.5130   48.9570 C   0  0  0  0  0  0  0  0  0  0  0  0
   60.6890   34.1720   47.7950 N   0  0  0  0  0  0  0  0  0  0  0  0
   59.2560   34.3370   48.0900 C   0  0  0  0  0  0  0  0  0  0  0  0
   58.4920   33.0100   47.9670 C   0  0  0  0  0  0  0  0  0  0  0  0
   58.2340   32.6420   46.5150 C   0  0  0  0  0  0  0  0  0  0  0  0
   57.9830   33.6990   45.6270 C   0  0  0  0  0  0  0  0  0  0  0  0
   57.7780   33.4680   44.2720 C   0  0  0  0  0  0  0  0  0  0  0  0
   57.8220   32.1750   43.7570 C   0  0  0  0  0  0  0  0  0  0  0  0
   57.5570   31.9800   42.0240 Cl  0  0  0  0  0  0  0  0  0  0  0  0
   58.0750   31.0830   44.6160 C   0  0  0  0  0  0  0  0  0  0  0  0
   58.1310   29.7680   44.1100 C   0  0  0  0  0  0  0  0  0  0  0  0
   58.3840   28.6910   44.9560 C   0  0  0  0  0  0  0  0  0  0  0  0
   58.5820   28.9020   46.3170 C   0  0  0  0  0  0  0  0  0  0  0  0
   58.9170   27.5400   47.3710 Cl  0  0  0  0  0  0  0  0  0  0  0  0
   58.5300   30.1940   46.8430 C   0  0  0  0  0  0  0  0  0  0  0  0
   58.2810   31.3090   46.0100 C   0  0  0  0  0  0  0  0  0  0  0  0
   63.8790   33.9506   47.4134 H   0  0  0  0  0  0  0  0  0  0  0  0
   64.5555   32.8962   46.1260 H   0  0  0  0  0  0  0  0  0  0  0  0
   62.8061   33.3038   46.1260 H   0  0  0  0  0  0  0  0  0  0  0  0
   63.0914   31.0281   46.9571 H   0  0  0  0  0  0  0  0  0  0  0  0
   64.3108   31.6293   48.1810 H   0  0  0  0  0  0  0  0  0  0  0  0
   61.4240   32.1300   48.0720 H   0  0  0  0  0  0  0  0  0  0  0  0
   62.9672   30.1344   49.2042 H   0  0  0  0  0  0  0  0  0  0  0  0
   62.2483   31.1640   50.5240 H   0  0  0  0  0  0  0  0  0  0  0  0
   60.3859   29.9316   50.2888 H   0  0  0  0  0  0  0  0  0  0  0  0
   60.1341   30.8115   48.7432 H   0  0  0  0  0  0  0  0  0  0  0  0
   60.9520   29.2123   48.7432 H   0  0  0  0  0  0  0  0  0  0  0  0
   62.1608   33.1015   50.4491 H   0  0  0  0  0  0  0  0  0  0  0  0
   63.4464   33.6785   49.2381 H   0  0  0  0  0  0  0  0  0  0  0  0
   60.8666   34.7967   49.7929 H   0  0  0  0  0  0  0  0  0  0  0  0
   62.1833   35.3433   48.6661 H   0  0  0  0  0  0  0  0  0  0  0  0
   60.9070   34.8770   47.0550 H   0  0  0  0  0  0  0  0  0  0  0  0
   59.1452   34.7179   49.1160 H   0  0  0  0  0  0  0  0  0  0  0  0
   58.8353   35.0429   47.3587 H   0  0  0  0  0  0  0  0  0  0  0  0
   59.0857   32.2120   48.4369 H   0  0  0  0  0  0  0  0  0  0  0  0
   57.5202   33.1262   48.4691 H   0  0  0  0  0  0  0  0  0  0  0  0
   57.9478   34.7294   46.0104 H   0  0  0  0  0  0  0  0  0  0  0  0
   57.5789   34.3153   43.5994 H   0  0  0  0  0  0  0  0  0  0  0  0
   57.9732   29.5910   43.0359 H   0  0  0  0  0  0  0  0  0  0  0  0
   58.4274   27.6707   44.5471 H   0  0  0  0  0  0  0  0  0  0  0  0
   58.6850   30.3469   47.9212 H   0  0  0  0  0  0  0  0  0  0  0  0
  1  2  1  0
  2  3  1  0
  3  4  1  0
  4  5  1  0
  3  6  1  0
  6  7  1  0
  7  8  1  0
  8  9  1  0
  9 10  1  0
 10 11  1  0
 11 12  2  0
 12 13  1  0
 13 14  2  0
 14 15  1  0
 14 16  1  0
 16 17  2  0
 17 18  1  0
 18 19  2  0
 19 20  1  0
 19 21  1  0
 21 22  2  0
 22 11  1  0
 22 16  1  0
  1 23  1  0
  1 24  1  0
  1 25  1  0
  2 26  1  0
  2 27  1  0
  3 28  1  0
  4 29  1  0
  4 30  1  0
  5 31  1  0
  5 32  1  0
  5 33  1  0
  6 34  1  0
  6 35  1  0
  7 36  1  0
  7 37  1  0
  8 38  1  0
  9 39  1  0
  9 40  1  0
 10 41  1  0
 10 42  1  0
 12 43  1  0
 13 44  1  0
 17 45  1  0
 18 46  1  0
 21 47  1  0
M  CHG  1   3   1
M  END
>  <UniqueID>  (13) 
13

>  <SMILES>  (13) 
CC[NH+](CC)CCNCCc1ccc(Cl)c2ccc(Cl)cc12

>  <Energy>  (13) 
56.599435183375824

>  <Genealogy>  (13) 
CC[NH+](CC)CCNCCc1ccc(Cl)c2ccc(Cl)cc12 (protonated)
CC[NH+](CC)CCNCCc1ccc(Cl)c2ccc(Cl)cc12 (3D coordinates assigned)
CC[NH+](CC)CCNCCc1ccc(Cl)c2ccc(Cl)cc12 (optimized conformer: 56.599435183375824 kcal/mol)

>  <smiles>  (13) 
CCN(CC)CCNCCc1ccc(Cl)c2ccc(Cl)cc12

>  <score_type>  (13) 
oracle

>  <origin>  (13) 
adg

>  <m_score__min__energy>  (13) 
-5.4699999999999998

>  <m_primary>  (13) 
energy

$$$$
13:0
     RDKit          3D

 55 56  0  0  0  0  0  0  0  0999 V2000
   63.6730   33.1070   46.7470 C   0  0  0  0  0  0  0  0  0  0  0  0
   64.1460   33.2130   48.1960 C   0  0  0  0  0  0  0  0  0  0  0  0
   63.0220   33.4990   49.0980 N   0  0  0  0  0  0  0  0  0  0  0  0
   63.2710   33.8690   50.4960 C   0  0  0  0  0  0  0  0  0  0  0  0
   64.6820   33.4690   50.9110 C   0  0  0  0  0  0  0  0  0  0  0  0
   61.6700   33.3160   48.6430 C   0  0  0  0  0  0  0  0  0  0  0  0
   61.0280   32.0840   48.7950 C   0  0  0  0  0  0  0  0  0  0  0  0
   59.7350   31.9200   48.3000 C   0  0  0  0  0  0  0  0  0  0  0  0
   59.0830   32.9750   47.6440 C   0  0  0  0  0  0  0  0  0  0  0  0
   57.6490   32.8090   47.1670 C   0  0  0  0  0  0  0  0  0  0  0  0
   57.4730   32.3390   45.7650 N   0  0  1  0  0  0  0  0  0  0  0  0
   57.0280   33.3890   44.8270 C   0  0  0  0  0  0  0  0  0  0  0  0
   58.5720   31.4830   45.2330 C   0  0  0  0  0  0  0  0  0  0  0  0
   58.4570   29.9970   45.5420 C   0  0  0  0  0  0  0  0  0  0  0  0
   59.6170   29.2630   45.8340 C   0  0  0  0  0  0  0  0  0  0  0  0
   59.5470   27.9040   46.1110 C   0  0  0  0  0  0  0  0  0  0  0  0
   58.3260   27.2450   46.0710 C   0  0  0  0  0  0  0  0  0  0  0  0
   57.1510   27.9290   45.7100 C   0  0  0  0  0  0  0  0  0  0  0  0
   55.9210   27.2570   45.6500 O   0  0  0  0  0  0  0  0  0  0  0  0
   55.7270   25.8860   45.9770 C   0  0  0  0  0  0  0  0  0  0  0  0
   57.2220   29.3160   45.4050 C   0  0  0  0  0  0  0  0  0  0  0  0
   56.1090   30.0610   44.9620 O   0  0  0  0  0  0  0  0  0  0  0  0
   55.5470   30.0420   43.6550 C   0  0  0  0  0  0  0  0  0  0  0  0
   59.7380   34.2150   47.5890 C   0  0  0  0  0  0  0  0  0  0  0  0
   61.0090   34.3450   48.0550 N   0  0  0  0  0  0  0  0  0  0  0  0
   62.5998   32.8665   46.7283 H   0  0  0  0  0  0  0  0  0  0  0  0
   63.8429   34.0655   46.2348 H   0  0  0  0  0  0  0  0  0  0  0  0
   64.2358   32.3127   46.2348 H   0  0  0  0  0  0  0  0  0  0  0  0
   64.6120   32.2618   48.4926 H   0  0  0  0  0  0  0  0  0  0  0  0
   64.8712   34.0369   48.2682 H   0  0  0  0  0  0  0  0  0  0  0  0
   63.1553   34.9571   50.6086 H   0  0  0  0  0  0  0  0  0  0  0  0
   62.5489   33.3425   51.1373 H   0  0  0  0  0  0  0  0  0  0  0  0
   64.7498   33.4498   52.0087 H   0  0  0  0  0  0  0  0  0  0  0  0
   64.9123   32.4702   50.5119 H   0  0  0  0  0  0  0  0  0  0  0  0
   65.4022   34.1984   50.5119 H   0  0  0  0  0  0  0  0  0  0  0  0
   61.5383   31.2510   49.3007 H   0  0  0  0  0  0  0  0  0  0  0  0
   59.2216   30.9552   48.4248 H   0  0  0  0  0  0  0  0  0  0  0  0
   57.1571   32.0813   47.8292 H   0  0  0  0  0  0  0  0  0  0  0  0
   57.2101   33.8172   47.1969 H   0  0  0  0  0  0  0  0  0  0  0  0
   56.6500   31.6870   45.8190 H   0  0  0  0  0  0  0  0  0  0  0  0
   56.6604   34.2563   45.3950 H   0  0  0  0  0  0  0  0  0  0  0  0
   57.8730   33.6969   44.1936 H   0  0  0  0  0  0  0  0  0  0  0  0
   56.2191   32.9960   44.1936 H   0  0  0  0  0  0  0  0  0  0  0  0
   58.5933   31.6006   44.1395 H   0  0  0  0  0  0  0  0  0  0  0  0
   59.4892   31.8245   45.7352 H   0  0  0  0  0  0  0  0  0  0  0  0
   60.5931   29.7701   45.8436 H   0  0  0  0  0  0  0  0  0  0  0  0
   60.4621   27.3480   46.3629 H   0  0  0  0  0  0  0  0  0  0  0  0
   58.2766   26.1757   46.3245 H   0  0  0  0  0  0  0  0  0  0  0  0
   55.7104   25.7687   47.0706 H   0  0  0  0  0  0  0  0  0  0  0  0
   54.7710   25.5405   45.5566 H   0  0  0  0  0  0  0  0  0  0  0  0
   56.5496   25.2888   45.5566 H   0  0  0  0  0  0  0  0  0  0  0  0
   54.4501   30.0049   43.7281 H   0  0  0  0  0  0  0  0  0  0  0  0
   55.8479   30.9508   43.1132 H   0  0  0  0  0  0  0  0  0  0  0  0
   55.9086   29.1556   43.1132 H   0  0  0  0  0  0  0  0  0  0  0  0
   59.2196   35.0881   47.1659 H   0  0  0  0  0  0  0  0  0  0  0  0
  1  2  1  0
  2  3  1  0
  3  4  1  0
  4  5  1  0
  3  6  1  0
  6  7  2  0
  7  8  1  0
  8  9  2  0
  9 10  1  0
 10 11  1  0
 11 12  1  0
 11 13  1  0
 13 14  1  0
 14 15  2  0
 15 16  1  0
 16 17  2  0
 17 18  1  0
 18 19  1  0
 19 20  1  0
 18 21  2  0
 21 22  1  0
 22 23  1  0
  9 24  1  0
 24 25  2  0
 25  6  1  0
 21 14  1  0
  1 26  1  0
  1 27  1  0
  1 28  1  0
  2 29  1  0
  2 30  1  0
  4 31  1  0
  4 32  1  0
  5 33  1  0
  5 34  1  0
  5 35  1  0
  7 36  1  0
  8 37  1  0
 10 38  1  0
 10 39  1  0
 11 40  1  1
 12 41  1  0
 12 42  1  0
 12 43  1  0
 13 44  1  0
 13 45  1  0
 15 46  1  0
 16 47  1  0
 17 48  1  0
 20 49  1  0
 20 50  1  0
 20 51  1  0
 23 52  1  0
 23 53  1  0
 23 54  1  0
 24 55  1  0
M  CHG  1  11   1
M  END
>  <UniqueID>  (14) 
14

>  <SMILES>  (14) 
CCN(CC)c1ccc(C[N@@H+](C)Cc2cccc(OC)c2OC)cn1

>  <Energy>  (14) 
63.718650455550005

>  <Genealogy>  (14) 
CCN(CC)c1ccc(C[NH+](C)Cc2cccc(OC)c2OC)cn1 (protonated)
CCN(CC)c1ccc(C[N@@H+](C)Cc2cccc(OC)c2OC)cn1 (chirality)
CCN(CC)c1ccc(C[N@@H+](C)Cc2cccc(OC)c2OC)cn1 (3D coordinates assigned)
CCN(CC)c1ccc(C[N@@H+](C)Cc2cccc(OC)c2OC)cn1 (optimized conformer: 63.718650455550005 kcal/mol)

>  <smiles>  (14) 
CCN(CC)c1ccc(CN(C)Cc2cccc(OC)c2OC)cn1

>  <score_type>  (14) 
oracle

>  <origin>  (14) 
adg

>  <m_score__min__energy>  (14) 
-5.1500000000000004

>  <m_primary>  (14) 
energy

$$$$
14:0
     RDKit          3D

 60 62  0  0  0  0  0  0  0  0999 V2000
   60.7830   28.9600   45.0150 C   0  0  0  0  0  0  0  0  0  0  0  0
   59.2910   28.9650   44.6510 C   0  0  0  0  0  0  0  0  0  0  0  0
   58.3960   28.5230   45.7490 N   0  0  0  0  0  0  0  0  0  0  0  0
   58.8950   27.3450   46.4970 C   0  0  0  0  0  0  0  0  0  0  0  0
   57.7880   26.3220   46.7540 C   0  0  0  0  0  0  0  0  0  0  0  0
   57.0030   28.3230   45.2870 C   0  0  0  0  0  0  0  0  0  0  0  0
   56.7150   29.2000   44.0660 C   0  0  0  0  0  0  0  0  0  0  0  0
   56.3310   30.5000   44.4840 O   0  0  0  0  0  0  0  0  0  0  0  0
   57.0070   31.5050   43.7500 C   0  0  0  0  0  0  0  0  0  0  0  0
   58.0100   32.2480   44.6350 C   0  0  0  0  0  0  0  0  0  0  0  0
   58.0660   31.6450   45.9660 N   0  0  0  0  0  0  0  0  0  0  0  0
   58.8540   32.2340   47.0100 C   0  0  0  0  0  0  0  0  0  0  0  0
   59.1840   33.5820   46.9220 C   0  0  0  0  0  0  0  0  0  0  0  0
   59.9130   34.1890   47.9380 C   0  0  0  0  0  0  0  0  0  0  0  0
   60.3440   33.4810   49.0270 N   0  0  0  0  0  0  0  0  0  0  0  0
   61.1470   34.2080   50.0340 C   0  0  0  0  0  0  0  0  0  0  0  0
   62.6060   33.8330   49.9390 C   0  0  0  0  0  0  0  0  0  0  0  0
   63.4170   33.8420   51.0890 C   0  0  0  0  0  0  0  0  0  0  0  0
   64.7660   33.4840   51.0060 C   0  0  0  0  0  0  0  0  0  0  0  0
   65.3140   33.1030   49.7780 C   0  0  0  0  0  0  0  0  0  0  0  0
   64.5120   33.0710   48.6340 C   0  0  0  0  0  0  0  0  0  0  0  0
   63.1610   33.4290   48.7130 C   0  0  0  0  0  0  0  0  0  0  0  0
   60.0650   32.1300   49.1330 C   0  0  0  0  0  0  0  0  0  0  0  0
   60.5210   31.3520   50.2250 C   0  0  0  0  0  0  0  0  0  0  0  0
   60.2510   29.9850   50.2950 C   0  0  0  0  0  0  0  0  0  0  0  0
   59.5280   29.3600   49.2850 C   0  0  0  0  0  0  0  0  0  0  0  0
   59.0630   30.0960   48.1980 C   0  0  0  0  0  0  0  0  0  0  0  0
   59.3110   31.4810   48.1110 C   0  0  0  0  0  0  0  0  0  0  0  0
   60.8934   28.9596   46.1094 H   0  0  0  0  0  0  0  0  0  0  0  0
   61.2591   28.0603   44.5981 H   0  0  0  0  0  0  0  0  0  0  0  0
   61.2651   29.8565   44.5981 H   0  0  0  0  0  0  0  0  0  0  0  0
   59.0086   29.9894   44.3669 H   0  0  0  0  0  0  0  0  0  0  0  0
   59.1634   28.2446   43.8295 H   0  0  0  0  0  0  0  0  0  0  0  0
   59.6940   26.8651   45.9128 H   0  0  0  0  0  0  0  0  0  0  0  0
   59.2701   27.6933   47.4707 H   0  0  0  0  0  0  0  0  0  0  0  0
   57.6506   26.1950   47.8380 H   0  0  0  0  0  0  0  0  0  0  0  0
   56.8490   26.6772   46.3045 H   0  0  0  0  0  0  0  0  0  0  0  0
   58.0681   25.3579   46.3045 H   0  0  0  0  0  0  0  0  0  0  0  0
   56.8589   27.2665   45.0166 H   0  0  0  0  0  0  0  0  0  0  0  0
   56.3144   28.6028   46.0979 H   0  0  0  0  0  0  0  0  0  0  0  0
   57.6204   29.2693   43.4452 H   0  0  0  0  0  0  0  0  0  0  0  0
   55.8973   28.7512   43.4830 H   0  0  0  0  0  0  0  0  0  0  0  0
   57.5439   31.0383   42.9110 H   0  0  0  0  0  0  0  0  0  0  0  0
   56.2650   32.2269   43.3781 H   0  0  0  0  0  0  0  0  0  0  0  0
   59.0069   32.1976   44.1728 H   0  0  0  0  0  0  0  0  0  0  0  0
   57.6891   33.2956   44.7330 H   0  0  0  0  0  0  0  0  0  0  0  0
   57.8510   30.6240   46.0370 H   0  0  0  0  0  0  0  0  0  0  0  0
   58.8677   34.1688   46.0470 H   0  0  0  0  0  0  0  0  0  0  0  0
   60.1484   35.2610   47.8652 H   0  0  0  0  0  0  0  0  0  0  0  0
   61.0423   35.2898   49.8643 H   0  0  0  0  0  0  0  0  0  0  0  0
   60.7809   33.9366   51.0352 H   0  0  0  0  0  0  0  0  0  0  0  0
   62.9871   34.1324   52.0590 H   0  0  0  0  0  0  0  0  0  0  0  0
   65.3962   33.5022   51.9074 H   0  0  0  0  0  0  0  0  0  0  0  0
   66.3771   32.8282   49.7120 H   0  0  0  0  0  0  0  0  0  0  0  0
   64.9431   32.7639   47.6697 H   0  0  0  0  0  0  0  0  0  0  0  0
   62.5314   33.3939   47.8117 H   0  0  0  0  0  0  0  0  0  0  0  0
   61.0965   31.8326   51.0298 H   0  0  0  0  0  0  0  0  0  0  0  0
   60.6117   29.3989   51.1531 H   0  0  0  0  0  0  0  0  0  0  0  0
   59.3227   28.2810   49.3448 H   0  0  0  0  0  0  0  0  0  0  0  0
   58.4973   29.5922   47.4004 H   0  0  0  0  0  0  0  0  0  0  0  0
  1  2  1  0
  2  3  1  0
  3  4  1  0
  4  5  1  0
  3  6  1  0
  6  7  1  0
  7  8  1  0
  8  9  1  0
  9 10  1  0
 10 11  1  0
 11 12  1  0
 12 13  2  0
 13 14  1  0
 14 15  2  0
 15 16  1  0
 16 17  1  0
 17 18  2  0
 18 19  1  0
 19 20  2  0
 20 21  1  0
 21 22  2  0
 15 23  1  0
 23 24  2  0
 24 25  1  0
 25 26  2  0
 26 27  1  0
 27 28  2  0
 28 12  1  0
 22 17  1  0
 28 23  1  0
  1 29  1  0
  1 30  1  0
  1 31  1  0
  2 32  1  0
  2 33  1  0
  4 34  1  0
  4 35  1  0
  5 36  1  0
  5 37  1  0
  5 38  1  0
  6 39  1  0
  6 40  1  0
  7 41  1  0
  7 42  1  0
  9 43  1  0
  9 44  1  0
 10 45  1  0
 10 46  1  0
 11 47  1  0
 13 48  1  0
 14 49  1  0
 16 50  1  0
 16 51  1  0
 18 52  1  0
 19 53  1  0
 20 54  1  0
 21 55  1  0
 22 56  1  0
 24 57  1  0
 25 58  1  0
 26 59  1  0
 27 60  1  0
M  CHG  1  15   1
M  END
>  <UniqueID>  (15) 
15

>  <SMILES>  (15) 
CCN(CC)CCOCCNc1cc[n+](Cc2ccccc2)c2ccccc12

>  <Energy>  (15) 
75.3726981046472

>  <Genealogy>  (15) 
CCN(CC)CCOCCNc1cc[n+](Cc2ccccc2)c2ccccc12 (3D coordinates assigned)
CCN(CC)CCOCCNc1cc[n+](Cc2ccccc2)c2ccccc12 (optimized conformer: 75.3726981046472 kcal/mol)

>  <smiles>  (15) 
CCN(CC)CCOCCNc1cc[n+](Cc2ccccc2)c2ccccc12

>  <score_type>  (15) 
oracle

>  <origin>  (15) 
adg

>  <m_score__min__energy>  (15) 
-6.3700000000000001

>  <m_primary>  (15) 
energy

$$$$
15:0
     RDKit          3D

 60 64  0  0  0  0  0  0  0  0999 V2000
   56.9690   31.0320   42.2490 C   0  0  0  0  0  0  0  0  0  0  0  0
   56.1200   30.0930   43.0990 C   0  0  0  0  0  0  0  0  0  0  0  0
   56.2910   30.3750   44.4880 O   0  0  0  0  0  0  0  0  0  0  0  0
   57.4290   30.9560   45.0720 C   0  0  0  0  0  0  0  0  0  0  0  0
   58.5580   30.2070   45.4490 C   0  0  0  0  0  0  0  0  0  0  0  0
   59.6670   30.8370   46.0230 C   0  0  0  0  0  0  0  0  0  0  0  0
   59.6580   32.2250   46.2610 C   0  0  0  0  0  0  0  0  0  0  0  0
   58.5390   32.9710   45.8610 C   0  0  0  0  0  0  0  0  0  0  0  0
   57.4350   32.3400   45.2690 C   0  0  0  0  0  0  0  0  0  0  0  0
   58.5600   34.4510   46.0780 C   0  0  0  0  0  0  0  0  0  0  0  0
   59.1320   34.7170   47.4700 C   0  0  0  0  0  0  0  0  0  0  0  0
   60.5000   34.1640   47.6510 N   0  0  0  0  0  0  0  0  0  0  0  0
   60.7750   33.9450   49.0870 C   0  0  0  0  0  0  0  0  0  0  0  0
   62.2970   33.7910   49.3490 C   0  0  2  0  0  0  0  0  0  0  0  0
   62.9660   32.9520   48.2070 C   0  0  1  0  0  0  0  0  0  0  0  0
   64.1070   32.0600   48.7270 C   0  0  0  0  0  0  0  0  0  0  0  0
   64.9330   32.8210   49.7540 C   0  0  0  0  0  0  0  0  0  0  0  0
   64.0680   33.2520   50.9530 C   0  0  0  0  0  0  0  0  0  0  0  0
   62.6040   33.1910   50.6820 N   0  0  0  0  0  0  0  0  0  0  0  0
   61.8690   33.8400   51.7970 C   0  0  0  0  0  0  0  0  0  0  0  0
   60.4770   33.2750   51.9440 C   0  0  0  0  0  0  0  0  0  0  0  0
   60.2310   31.9290   51.6230 C   0  0  0  0  0  0  0  0  0  0  0  0
   58.9480   31.3930   51.7740 C   0  0  0  0  0  0  0  0  0  0  0  0
   57.9060   32.1950   52.2460 C   0  0  0  0  0  0  0  0  0  0  0  0
   58.1440   33.5320   52.5730 C   0  0  0  0  0  0  0  0  0  0  0  0
   59.4260   34.0730   52.4230 C   0  0  0  0  0  0  0  0  0  0  0  0
   61.9410   32.0960   47.4460 C   0  0  0  0  0  0  0  0  0  0  0  0
   60.8690   32.9970   46.7860 C   0  0  1  0  0  0  0  0  0  0  0  0
   57.5609   31.6866   42.9056 H   0  0  0  0  0  0  0  0  0  0  0  0
   57.6455   30.4410   41.6141 H   0  0  0  0  0  0  0  0  0  0  0  0
   56.3131   31.6457   41.6141 H   0  0  0  0  0  0  0  0  0  0  0  0
   55.0608   30.2229   42.8321 H   0  0  0  0  0  0  0  0  0  0  0  0
   56.4382   29.0577   42.9069 H   0  0  0  0  0  0  0  0  0  0  0  0
   58.5690   29.1184   45.2914 H   0  0  0  0  0  0  0  0  0  0  0  0
   60.5535   30.2434   46.2907 H   0  0  0  0  0  0  0  0  0  0  0  0
   56.5668   32.9391   44.9572 H   0  0  0  0  0  0  0  0  0  0  0  0
   59.1926   34.9308   45.3167 H   0  0  0  0  0  0  0  0  0  0  0  0
   57.5433   34.8631   45.9979 H   0  0  0  0  0  0  0  0  0  0  0  0
   59.1692   35.8044   47.6318 H   0  0  0  0  0  0  0  0  0  0  0  0
   58.4757   34.2160   48.1968 H   0  0  0  0  0  0  0  0  0  0  0  0
   60.3973   34.8047   49.6600 H   0  0  0  0  0  0  0  0  0  0  0  0
   60.2716   33.0187   49.4011 H   0  0  0  0  0  0  0  0  0  0  0  0
   62.7191   34.8068   49.3552 H   0  0  0  0  0  0  0  0  0  0  0  0
   63.3960   33.6858   47.5094 H   0  0  0  0  0  0  0  0  0  0  0  0
   63.6818   31.1601   49.1954 H   0  0  0  0  0  0  0  0  0  0  0  0
   64.7531   31.7712   47.8849 H   0  0  0  0  0  0  0  0  0  0  0  0
   65.7462   32.1728   50.1124 H   0  0  0  0  0  0  0  0  0  0  0  0
   65.3402   33.7236   49.2750 H   0  0  0  0  0  0  0  0  0  0  0  0
   64.2931   32.5886   51.8011 H   0  0  0  0  0  0  0  0  0  0  0  0
   64.3138   34.3023   51.1684 H   0  0  0  0  0  0  0  0  0  0  0  0
   62.4223   33.6758   52.7334 H   0  0  0  0  0  0  0  0  0  0  0  0
   61.7842   34.9142   51.5759 H   0  0  0  0  0  0  0  0  0  0  0  0
   61.0499   31.2952   51.2519 H   0  0  0  0  0  0  0  0  0  0  0  0
   58.7593   30.3393   51.5209 H   0  0  0  0  0  0  0  0  0  0  0  0
   56.8966   31.7730   52.3603 H   0  0  0  0  0  0  0  0  0  0  0  0
   57.3230   34.1603   52.9488 H   0  0  0  0  0  0  0  0  0  0  0  0
   59.6106   35.1262   52.6811 H   0  0  0  0  0  0  0  0  0  0  0  0
   62.4589   31.5183   46.6662 H   0  0  0  0  0  0  0  0  0  0  0  0
   61.4474   31.4156   48.1556 H   0  0  0  0  0  0  0  0  0  0  0  0
   61.3406   33.4175   45.8855 H   0  0  0  0  0  0  0  0  0  0  0  0
  1  2  1  0
  2  3  1  0
  3  4  1  0
  4  5  2  0
  5  6  1  0
  6  7  2  0
  7  8  1  0
  8  9  2  0
  8 10  1  0
 10 11  1  0
 11 12  1  0
 12 13  1  0
 13 14  1  0
 14 15  1  0
 15 16  1  0
 16 17  1  0
 17 18  1  0
 18 19  1  0
 19 20  1  0
 20 21  1  0
 21 22  2  0
 22 23  1  0
 23 24  2  0
 24 25  1  0
 25 26  2  0
 15 27  1  0
 27 28  1  0
  9  4  1  0
 28 12  1  0
 28  7  1  0
 19 14  1  0
 26 21  1  0
  1 29  1  0
  1 30  1  0
  1 31  1  0
  2 32  1  0
  2 33  1  0
  5 34  1  0
  6 35  1  0
  9 36  1  0
 10 37  1  0
 10 38  1  0
 11 39  1  0
 11 40  1  0
 13 41  1  0
 13 42  1  0
 14 43  1  1
 15 44  1  6
 16 45  1  0
 16 46  1  0
 17 47  1  0
 17 48  1  0
 18 49  1  0
 18 50  1  0
 20 51  1  0
 20 52  1  0
 22 53  1  0
 23 54  1  0
 24 55  1  0
 25 56  1  0
 26 57  1  0
 27 58  1  0
 27 59  1  0
 28 60  1  6
M  END
>  <UniqueID>  (16) 
16

>  <SMILES>  (16) 
CCOc1ccc2c(c1)CCN1C[C@@H]3[C@@H](CCCN3Cc3ccccc3)CC21

>  <Energy>  (16) 
90.34346906294216

>  <Genealogy>  (16) 
CCOc1ccc2c(c1)CCN1C[C@@H]3[C@@H](CCCN3Cc3ccccc3)CC21 (chirality)
CCOc1ccc2c(c1)CCN1C[C@@H]3[C@@H](CCCN3Cc3ccccc3)CC21 (3D coordinates assigned)
CCOc1ccc2c(c1)CCN1C[C@@H]3[C@@H](CCCN3Cc3ccccc3)CC21 (nonaromatic ring conformer: 90.34346906294216 kcal/mol)

>  <smiles>  (16) 
CCOc1ccc2c(c1)CCN1CC3C(CCCN3Cc3ccccc3)CC21

>  <score_type>  (16) 
oracle

>  <origin>  (16) 
adg

>  <m_score__min__energy>  (16) 
-9.0099999999999998

>  <m_primary>  (16) 
energy

$$$$
16:0
     RDKit          3D

 82 86  0  0  0  0  0  0  0  0999 V2000
   57.0660   24.4910   47.6780 C   0  0  0  0  0  0  0  0  0  0  0  0
   56.7740   24.8380   46.2140 C   0  0  0  0  0  0  0  0  0  0  0  0
   58.0040   25.0680   45.4130 N   0  0  0  0  0  0  0  0  0  0  0  0
   58.9620   23.9430   45.5610 C   0  0  0  0  0  0  0  0  0  0  0  0
   58.5590   22.7090   44.7330 C   0  0  0  0  0  0  0  0  0  0  0  0
   57.7350   25.3600   43.9780 C   0  0  0  0  0  0  0  0  0  0  0  0
   58.1180   26.7840   43.5150 C   0  0  0  0  0  0  0  0  0  0  0  0
   57.3610   27.7820   44.2700 N   0  0  0  0  0  0  0  0  0  0  0  0
   58.0250   28.8890   44.9020 C   0  0  0  0  0  0  0  0  0  0  0  0
   57.9210   30.2060   44.4020 C   0  0  0  0  0  0  0  0  0  0  0  0
   57.2380   30.4640   43.1950 C   0  0  0  0  0  0  0  0  0  0  0  0
   57.1630   31.7580   42.6760 C   0  0  0  0  0  0  0  0  0  0  0  0
   57.7940   32.8070   43.3330 C   0  0  0  0  0  0  0  0  0  0  0  0
   58.4900   32.5790   44.5200 C   0  0  0  0  0  0  0  0  0  0  0  0
   58.5410   31.2880   45.1090 C   0  0  0  0  0  0  0  0  0  0  0  0
   59.1790   31.0590   46.3280 N   0  0  0  0  0  0  0  0  0  0  0  0
   59.6060   32.1580   47.2080 C   0  0  0  0  0  0  0  0  0  0  0  0
   59.3440   29.7530   46.7270 C   0  0  0  0  0  0  0  0  0  0  0  0
   58.7580   28.6940   46.0670 C   0  0  0  0  0  0  0  0  0  0  0  0
   58.9520   27.5600   46.7050 O   0  0  0  0  0  0  0  0  0  0  0  0
   59.6610   27.8420   47.7730 C   0  0  0  0  0  0  0  0  0  0  0  0
   60.0750   26.9480   48.7560 C   0  0  0  0  0  0  0  0  0  0  0  0
   60.8100   27.4480   49.8410 C   0  0  0  0  0  0  0  0  0  0  0  0
   61.1500   28.8200   49.9150 C   0  0  0  0  0  0  0  0  0  0  0  0
   61.8850   29.2450   51.0310 O   0  0  0  0  0  0  0  0  0  0  0  0
   61.3710   30.0180   52.1170 C   0  0  0  0  0  0  0  0  0  0  0  0
   60.8670   31.4090   51.6390 C   0  0  0  0  0  0  0  0  0  0  0  0
   61.9120   32.4410   51.2740 N   0  0  0  0  0  0  0  0  0  0  0  0
   61.5990   33.6220   52.1350 C   0  0  0  0  0  0  0  0  0  0  0  0
   61.6690   32.8820   49.8470 C   0  0  0  0  0  0  0  0  0  0  0  0
   62.6140   32.3750   48.7350 C   0  0  0  0  0  0  0  0  0  0  0  0
   63.9990   33.0420   48.8070 C   0  0  0  0  0  0  0  0  0  0  0  0
   64.9560   32.3330   49.7750 C   0  0  0  0  0  0  0  0  0  0  0  0
   64.6000   32.6010   51.2410 C   0  0  0  0  0  0  0  0  0  0  0  0
   63.2840   31.9420   51.7170 C   0  0  0  0  0  0  0  0  0  0  0  0
   60.7480   29.7010   48.8840 C   0  0  0  0  0  0  0  0  0  0  0  0
   59.9590   29.1910   47.8440 C   0  0  0  0  0  0  0  0  0  0  0  0
   56.4980   25.1660   48.3351 H   0  0  0  0  0  0  0  0  0  0  0  0
   56.7676   23.4507   47.8748 H   0  0  0  0  0  0  0  0  0  0  0  0
   58.1420   24.6073   47.8748 H   0  0  0  0  0  0  0  0  0  0  0  0
   56.2125   24.0068   45.7625 H   0  0  0  0  0  0  0  0  0  0  0  0
   56.1984   25.7754   46.2076 H   0  0  0  0  0  0  0  0  0  0  0  0
   58.4710   25.9270   45.7890 H   0  0  0  0  0  0  0  0  0  0  0  0
   59.9553   24.2803   45.2299 H   0  0  0  0  0  0  0  0  0  0  0  0
   58.9664   23.6464   46.6203 H   0  0  0  0  0  0  0  0  0  0  0  0
   58.2899   21.8850   45.4102 H   0  0  0  0  0  0  0  0  0  0  0  0
   57.6958   22.9590   44.0986 H   0  0  0  0  0  0  0  0  0  0  0  0
   59.4034   22.4014   44.0986 H   0  0  0  0  0  0  0  0  0  0  0  0
   58.3039   24.6400   43.3714 H   0  0  0  0  0  0  0  0  0  0  0  0
   56.6457   25.2786   43.8481 H   0  0  0  0  0  0  0  0  0  0  0  0
   59.1939   26.9426   43.6804 H   0  0  0  0  0  0  0  0  0  0  0  0
   57.8826   26.8889   42.4456 H   0  0  0  0  0  0  0  0  0  0  0  0
   56.3290   27.8510   44.1450 H   0  0  0  0  0  0  0  0  0  0  0  0
   56.7579   29.6344   42.6553 H   0  0  0  0  0  0  0  0  0  0  0  0
   56.6045   31.9468   41.7473 H   0  0  0  0  0  0  0  0  0  0  0  0
   57.7444   33.8231   42.9147 H   0  0  0  0  0  0  0  0  0  0  0  0
   59.0097   33.4158   45.0095 H   0  0  0  0  0  0  0  0  0  0  0  0
   59.4878   31.8537   48.2584 H   0  0  0  0  0  0  0  0  0  0  0  0
   60.6619   32.3957   47.0118 H   0  0  0  0  0  0  0  0  0  0  0  0
   58.9876   33.0463   47.0118 H   0  0  0  0  0  0  0  0  0  0  0  0
   59.8322   25.8775   48.6840 H   0  0  0  0  0  0  0  0  0  0  0  0
   61.1259   26.7657   50.6439 H   0  0  0  0  0  0  0  0  0  0  0  0
   60.5337   29.4737   52.5781 H   0  0  0  0  0  0  0  0  0  0  0  0
   62.1827   30.1760   52.8423 H   0  0  0  0  0  0  0  0  0  0  0  0
   60.2405   31.2452   50.7498 H   0  0  0  0  0  0  0  0  0  0  0  0
   60.3449   31.8332   52.5094 H   0  0  0  0  0  0  0  0  0  0  0  0
   61.6753   33.3342   53.1939 H   0  0  0  0  0  0  0  0  0  0  0  0
   62.3139   34.4305   51.9223 H   0  0  0  0  0  0  0  0  0  0  0  0
   60.5775   33.9704   51.9223 H   0  0  0  0  0  0  0  0  0  0  0  0
   60.6525   32.5586   49.5784 H   0  0  0  0  0  0  0  0  0  0  0  0
   61.8492   33.9668   49.8719 H   0  0  0  0  0  0  0  0  0  0  0  0
   62.7376   31.2873   48.8426 H   0  0  0  0  0  0  0  0  0  0  0  0
   62.1640   32.6302   47.7642 H   0  0  0  0  0  0  0  0  0  0  0  0
   64.4458   33.0317   47.8019 H   0  0  0  0  0  0  0  0  0  0  0  0
   63.8521   34.0662   49.1804 H   0  0  0  0  0  0  0  0  0  0  0  0
   64.9075   31.2496   49.5910 H   0  0  0  0  0  0  0  0  0  0  0  0
   65.9683   32.7245   49.5963 H   0  0  0  0  0  0  0  0  0  0  0  0
   65.4200   32.2207   51.8679 H   0  0  0  0  0  0  0  0  0  0  0  0
   64.4542   33.6875   51.3319 H   0  0  0  0  0  0  0  0  0  0  0  0
   63.3405   30.8879   51.4076 H   0  0  0  0  0  0  0  0  0  0  0  0
   63.2805   32.1919   52.7882 H   0  0  0  0  0  0  0  0  0  0  0  0
   61.0470   30.7595   48.8981 H   0  0  0  0  0  0  0  0  0  0  0  0
  1  2  1  0
  2  3  1  0
  3  4  1  0
  4  5  1  0
  3  6  1  0
  6  7  1  0
  7  8  1  0
  8  9  1  0
  9 10  2  0
 10 11  1  0
 11 12  2  0
 12 13  1  0
 13 14  2  0
 14 15  1  0
 15 16  2  0
 16 17  1  0
 16 18  1  0
 18 19  2  0
 19 20  1  0
 20 21  1  0
 21 22  2  0
 22 23  1  0
 23 24  2  0
 24 25  1  0
 25 26  1  0
 26 27  1  0
 27 28  1  0
 28 29  1  0
 28 30  1  0
 30 31  1  0
 31 32  1  0
 32 33  1  0
 33 34  1  0
 34 35  1  0
 24 36  1  0
 36 37  2  0
 19  9  1  0
 37 21  1  0
 15 10  1  0
 37 18  1  0
 35 28  1  0
  1 38  1  0
  1 39  1  0
  1 40  1  0
  2 41  1  0
  2 42  1  0
  3 43  1  0
  4 44  1  0
  4 45  1  0
  5 46  1  0
  5 47  1  0
  5 48  1  0
  6 49  1  0
  6 50  1  0
  7 51  1  0
  7 52  1  0
  8 53  1  0
 11 54  1  0
 12 55  1  0
 13 56  1  0
 14 57  1  0
 17 58  1  0
 17 59  1  0
 17 60  1  0
 22 61  1  0
 23 62  1  0
 26 63  1  0
 26 64  1  0
 27 65  1  0
 27 66  1  0
 29 67  1  0
 29 68  1  0
 29 69  1  0
 30 70  1  0
 30 71  1  0
 31 72  1  0
 31 73  1  0
 32 74  1  0
 32 75  1  0
 33 76  1  0
 33 77  1  0
 34 78  1  0
 34 79  1  0
 35 80  1  0
 35 81  1  0
 36 82  1  0
M  CHG  3   3   1  16   1  28   1
M  END
>  <UniqueID>  (17) 
17

>  <SMILES>  (17) 
CC[NH+](CC)CCNc1c2ccccc2[n+](C)c2c1oc1ccc(OCC[N+]3(C)CCCCCC3)cc12

>  <Energy>  (17) 
193.64202784552555

>  <Genealogy>  (17) 
CC[NH+](CC)CCNc1c2ccccc2[n+](C)c2c1oc1ccc(OCC[N+]3(C)CCCCCC3)cc12 (protonated)
CC[NH+](CC)CCNc1c2ccccc2[n+](C)c2c1oc1ccc(OCC[N+]3(C)CCCCCC3)cc12 (3D coordinates assigned)
CC[NH+](CC)CCNc1c2ccccc2[n+](C)c2c1oc1ccc(OCC[N+]3(C)CCCCCC3)cc12 (nonaromatic ring conformer: 193.64202784552555 kcal/mol)

>  <smiles>  (17) 
CCN(CC)CCNc1c2ccccc2[n+](C)c2c1oc1ccc(OCC[N+]3(C)CCCCCC3)cc12

>  <score_type>  (17) 
oracle

>  <origin>  (17) 
adg

>  <m_score__min__energy>  (17) 
-1.98

>  <m_primary>  (17) 
energy

$$$$
17:0
     RDKit          3D

 36 37  0  0  0  0  0  0  0  0999 V2000
   57.3840   33.4520   45.0060 C   0  0  0  0  0  0  0  0  0  0  0  0
   57.4970   32.0840   44.3450 C   0  0  0  0  0  0  0  0  0  0  0  0
   56.6890   31.1270   45.0280 O   0  0  0  0  0  0  0  0  0  0  0  0
   56.2380   29.9410   44.4390 C   0  0  0  0  0  0  0  0  0  0  0  0
   55.2090   29.3540   44.8750 O   0  0  0  0  0  0  0  0  0  0  0  0
   57.0150   29.3370   43.3100 C   0  0  0  0  0  0  0  0  0  0  0  0
   58.0340   28.3110   43.8180 C   0  0  0  0  0  0  0  0  0  0  0  0
   58.4310   28.6030   45.2010 N   0  0  0  0  0  0  0  0  0  0  0  0
   59.2430   29.6420   45.4170 N   0  0  0  0  0  0  0  0  0  0  0  0
   59.6430   30.0180   46.6630 C   0  0  0  0  0  0  0  0  0  0  0  0
   60.5370   31.1950   46.8170 C   0  0  0  0  0  0  0  0  0  0  0  0
   60.0320   32.4900   46.5900 C   0  0  0  0  0  0  0  0  0  0  0  0
   60.8600   33.6080   46.7260 C   0  0  0  0  0  0  0  0  0  0  0  0
   62.2000   33.4500   47.0810 C   0  0  0  0  0  0  0  0  0  0  0  0
   62.7180   32.1710   47.2960 C   0  0  0  0  0  0  0  0  0  0  0  0
   61.8950   31.0480   47.1630 C   0  0  0  0  0  0  0  0  0  0  0  0
   59.1670   29.2940   47.7650 C   0  0  0  0  0  0  0  0  0  0  0  0
   58.3170   28.2120   47.5550 C   0  0  0  0  0  0  0  0  0  0  0  0
   57.9480   27.8730   46.2530 C   0  0  0  0  0  0  0  0  0  0  0  0
   57.1690   26.8980   46.0640 O   0  0  0  0  0  0  0  0  0  0  0  0
   57.3938   33.3328   46.0995 H   0  0  0  0  0  0  0  0  0  0  0  0
   58.2334   34.0794   44.6979 H   0  0  0  0  0  0  0  0  0  0  0  0
   56.4432   33.9315   44.6979 H   0  0  0  0  0  0  0  0  0  0  0  0
   57.1626   32.1590   43.2998 H   0  0  0  0  0  0  0  0  0  0  0  0
   58.5461   31.7560   44.3868 H   0  0  0  0  0  0  0  0  0  0  0  0
   56.3169   28.8376   42.6220 H   0  0  0  0  0  0  0  0  0  0  0  0
   57.5610   30.1418   42.7961 H   0  0  0  0  0  0  0  0  0  0  0  0
   57.5850   27.3076   43.7770 H   0  0  0  0  0  0  0  0  0  0  0  0
   58.9282   28.3599   43.1793 H   0  0  0  0  0  0  0  0  0  0  0  0
   58.9783   32.6226   46.3036 H   0  0  0  0  0  0  0  0  0  0  0  0
   60.4538   34.6155   46.5526 H   0  0  0  0  0  0  0  0  0  0  0  0
   62.8479   34.3321   47.1914 H   0  0  0  0  0  0  0  0  0  0  0  0
   63.7759   32.0465   47.5706 H   0  0  0  0  0  0  0  0  0  0  0  0
   62.3106   30.0433   47.3296 H   0  0  0  0  0  0  0  0  0  0  0  0
   59.4624   29.5782   48.7858 H   0  0  0  0  0  0  0  0  0  0  0  0
   57.9395   27.6293   48.4082 H   0  0  0  0  0  0  0  0  0  0  0  0
  1  2  1  0
  2  3  1  0
  3  4  1  0
  4  5  2  0
  4  6  1  0
  6  7  1  0
  7  8  1  0
  8  9  1  0
  9 10  2  0
 10 11  1  0
 11 12  2  0
 12 13  1  0
 13 14  2  0
 14 15  1  0
 15 16  2  0
 10 17  1  0
 17 18  2  0
 18 19  1  0
 19 20  2  0
 19  8  1  0
 16 11  1  0
  1 21  1  0
  1 22  1  0
  1 23  1  0
  2 24  1  0
  2 25  1  0
  6 26  1  0
  6 27  1  0
  7 28  1  0
  7 29  1  0
 12 30  1  0
 13 31  1  0
 14 32  1  0
 15 33  1  0
 16 34  1  0
 17 35  1  0
 18 36  1  0
M  END
>  <UniqueID>  (18) 
18

>  <SMILES>  (18) 
CCOC(=O)CCn1nc(-c2ccccc2)ccc1=O

>  <Energy>  (18) 
33.078984337024174

>  <Genealogy>  (18) 
CCOC(=O)CCn1nc(-c2ccccc2)ccc1=O (3D coordinates assigned)
CCOC(=O)CCn1nc(-c2ccccc2)ccc1=O (optimized conformer: 33.078984337024174 kcal/mol)

>  <smiles>  (18) 
CCOC(=O)CCn1nc(-c2ccccc2)ccc1=O

>  <score_type>  (18) 
oracle

>  <origin>  (18) 
adg

>  <m_score__min__energy>  (18) 
-7.1900000000000004

>  <m_primary>  (18) 
energy

$$$$
19:0
     RDKit          3D

 47 49  0  0  0  0  0  0  0  0999 V2000
   59.0910   32.7300   50.1720 C   0  0  0  0  0  0  0  0  0  0  0  0
   59.0200   32.2060   48.7390 C   0  0  0  0  0  0  0  0  0  0  0  0
   59.9070   32.9720   47.8530 N   0  0  0  0  0  0  0  0  0  0  0  0
   59.5740   33.9860   47.0030 C   0  0  0  0  0  0  0  0  0  0  0  0
   58.1900   34.5690   46.8200 C   0  0  0  0  0  0  0  0  0  0  0  0
   57.2100   33.5790   46.3280 N   0  0  0  0  0  0  0  0  0  0  0  0
   57.0560   33.5580   44.8590 C   0  0  0  0  0  0  0  0  0  0  0  0
   57.4740   32.2250   44.2080 C   0  0  0  0  0  0  0  0  0  0  0  0
   57.3650   31.0860   45.1480 N   0  0  0  0  0  0  0  0  0  0  0  0
   58.6790   30.7150   45.7280 C   0  0  0  0  0  0  0  0  0  0  0  0
   59.2620   29.4530   45.0690 C   0  0  0  0  0  0  0  0  0  0  0  0
   58.4250   28.3110   45.1880 O   0  0  0  0  0  0  0  0  0  0  0  0
   57.0370   28.6210   45.2400 C   0  0  0  0  0  0  0  0  0  0  0  0
   56.6720   29.9330   44.5270 C   0  0  0  0  0  0  0  0  0  0  0  0
   60.7110   34.5010   46.3850 C   0  0  0  0  0  0  0  0  0  0  0  0
   61.7600   33.7530   46.8670 C   0  0  0  0  0  0  0  0  0  0  0  0
   63.1220   33.8370   46.5910 C   0  0  0  0  0  0  0  0  0  0  0  0
   63.9840   32.9530   47.2640 C   0  0  0  0  0  0  0  0  0  0  0  0
   63.4690   32.0250   48.1940 C   0  0  0  0  0  0  0  0  0  0  0  0
   62.0890   31.9670   48.4550 C   0  0  0  0  0  0  0  0  0  0  0  0
   61.2490   32.8440   47.7580 C   0  0  0  0  0  0  0  0  0  0  0  0
   58.9774   31.8916   50.8750 H   0  0  0  0  0  0  0  0  0  0  0  0
   60.0634   33.2173   50.3365 H   0  0  0  0  0  0  0  0  0  0  0  0
   58.2833   33.4585   50.3365 H   0  0  0  0  0  0  0  0  0  0  0  0
   59.3251   31.1492   48.7270 H   0  0  0  0  0  0  0  0  0  0  0  0
   57.9866   32.3133   48.3778 H   0  0  0  0  0  0  0  0  0  0  0  0
   57.8414   34.9565   47.7887 H   0  0  0  0  0  0  0  0  0  0  0  0
   58.2640   35.3644   46.0638 H   0  0  0  0  0  0  0  0  0  0  0  0
   56.2770   33.8400   46.7250 H   0  0  0  0  0  0  0  0  0  0  0  0
   57.4180   32.6230   46.6850 H   0  0  0  0  0  0  0  0  0  0  0  0
   55.9990   33.7448   44.6185 H   0  0  0  0  0  0  0  0  0  0  0  0
   57.7234   34.3341   44.4561 H   0  0  0  0  0  0  0  0  0  0  0  0
   56.8227   32.0337   43.3424 H   0  0  0  0  0  0  0  0  0  0  0  0
   58.5275   32.3129   43.9041 H   0  0  0  0  0  0  0  0  0  0  0  0
   59.3807   31.5493   45.5811 H   0  0  0  0  0  0  0  0  0  0  0  0
   58.5318   30.5038   46.7975 H   0  0  0  0  0  0  0  0  0  0  0  0
   59.4186   29.6596   44.0000 H   0  0  0  0  0  0  0  0  0  0  0  0
   60.2014   29.2205   45.5920 H   0  0  0  0  0  0  0  0  0  0  0  0
   56.4794   27.8004   44.7650 H   0  0  0  0  0  0  0  0  0  0  0  0
   56.7742   28.7466   46.3007 H   0  0  0  0  0  0  0  0  0  0  0  0
   56.9681   29.8623   43.4700 H   0  0  0  0  0  0  0  0  0  0  0  0
   55.5865   30.0886   44.6139 H   0  0  0  0  0  0  0  0  0  0  0  0
   60.7598   35.3304   45.6640 H   0  0  0  0  0  0  0  0  0  0  0  0
   63.5111   34.5710   45.8700 H   0  0  0  0  0  0  0  0  0  0  0  0
   65.0653   32.9850   47.0645 H   0  0  0  0  0  0  0  0  0  0  0  0
   64.1528   31.3417   48.7188 H   0  0  0  0  0  0  0  0  0  0  0  0
   61.6808   31.2533   49.1857 H   0  0  0  0  0  0  0  0  0  0  0  0
  1  2  1  0
  2  3  1  0
  3  4  1  0
  4  5  1  0
  5  6  1  0
  6  7  1  0
  7  8  1  0
  8  9  1  0
  9 10  1  0
 10 11  1  0
 11 12  1  0
 12 13  1  0
 13 14  1  0
  4 15  2  0
 15 16  1  0
 16 17  2  0
 17 18  1  0
 18 19  2  0
 19 20  1  0
 20 21  2  0
 21  3  1  0
 14  9  1  0
 21 16  1  0
  1 22  1  0
  1 23  1  0
  1 24  1  0
  2 25  1  0
  2 26  1  0
  5 27  1  0
  5 28  1  0
  6 29  1  0
  6 30  1  0
  7 31  1  0
  7 32  1  0
  8 33  1  0
  8 34  1  0
 10 35  1  0
 10 36  1  0
 11 37  1  0
 11 38  1  0
 13 39  1  0
 13 40  1  0
 14 41  1  0
 14 42  1  0
 15 43  1  0
 17 44  1  0
 18 45  1  0
 19 46  1  0
 20 47  1  0
M  CHG  1   6   1
M  END
>  <UniqueID>  (19) 
19

>  <SMILES>  (19) 
CCn1c(C[NH2+]CCN2CCOCC2)cc2ccccc21

>  <Energy>  (19) 
91.03538498756717

>  <Genealogy>  (19) 
CCn1c(C[NH2+]CCN2CCOCC2)cc2ccccc21 (protonated)
CCn1c(C[NH2+]CCN2CCOCC2)cc2ccccc21 (3D coordinates assigned)
CCn1c(C[NH2+]CCN2CCOCC2)cc2ccccc21 (nonaromatic ring conformer: 91.03538498756717 kcal/mol)

>  <smiles>  (19) 
CCn1c(CNCCN2CCOCC2)cc2ccccc21

>  <score_type>  (19) 
oracle

>  <origin>  (19) 
adg

>  <m_score__min__energy>  (19) 
-5.29

>  <m_primary>  (19) 
energy

$$$$
20:0
     RDKit          3D

 43 44  0  0  0  0  0  0  0  0999 V2000
   57.4180   23.9950   44.8660 C   0  0  0  0  0  0  0  0  0  0  0  0
   57.2260   24.5080   46.5610 S   0  0  0  0  0  0  0  0  0  0  0  0
   55.8540   25.0970   46.7270 O   0  0  0  0  0  0  0  0  0  0  0  0
   57.3580   23.3300   47.4850 O   0  0  0  0  0  0  0  0  0  0  0  0
   58.4070   25.7170   46.9620 N   0  0  0  0  0  0  0  0  0  0  0  0
   58.4740   27.0270   46.3670 C   0  0  0  0  0  0  0  0  0  0  0  0
   59.7000   27.7070   46.3600 C   0  0  0  0  0  0  0  0  0  0  0  0
   59.8050   28.9750   45.7900 C   0  0  0  0  0  0  0  0  0  0  0  0
   58.6860   29.5840   45.2170 C   0  0  0  0  0  0  0  0  0  0  0  0
   57.4420   28.9280   45.2090 C   0  0  0  0  0  0  0  0  0  0  0  0
   56.2590   29.5910   44.5950 C   0  0  0  0  0  0  0  0  0  0  0  0
   55.1640   28.9700   44.5230 O   0  0  0  0  0  0  0  0  0  0  0  0
   56.3100   30.9990   44.0700 C   0  0  0  0  0  0  0  0  0  0  0  0
   57.3220   31.1010   43.0110 N   0  0  0  0  0  0  0  0  0  0  0  0
   58.1450   32.3190   43.1400 C   0  0  0  0  0  0  0  0  0  0  0  0
   57.5430   33.3540   44.1070 C   0  0  0  0  0  0  0  0  0  0  0  0
   58.3590   33.4990   45.3650 C   0  0  0  0  0  0  0  0  0  0  0  0
   57.9380   32.8800   46.5530 C   0  0  0  0  0  0  0  0  0  0  0  0
   58.7130   32.9800   47.7130 C   0  0  0  0  0  0  0  0  0  0  0  0
   59.9140   33.6960   47.6940 C   0  0  0  0  0  0  0  0  0  0  0  0
   60.9730   33.8280   49.2780 Br  0  0  0  0  0  0  0  0  0  0  0  0
   60.3400   34.3130   46.5140 C   0  0  0  0  0  0  0  0  0  0  0  0
   59.5680   34.2160   45.3530 C   0  0  0  0  0  0  0  0  0  0  0  0
   57.3500   27.6430   45.7830 C   0  0  0  0  0  0  0  0  0  0  0  0
   57.8034   22.9652   44.8360 H   0  0  0  0  0  0  0  0  0  0  0  0
   56.4434   24.0367   44.3576 H   0  0  0  0  0  0  0  0  0  0  0  0
   58.1257   24.6663   44.3576 H   0  0  0  0  0  0  0  0  0  0  0  0
   59.0840   25.4730   47.7180 H   0  0  0  0  0  0  0  0  0  0  0  0
   60.5871   27.2358   46.8083 H   0  0  0  0  0  0  0  0  0  0  0  0
   60.7728   29.4979   45.7915 H   0  0  0  0  0  0  0  0  0  0  0  0
   58.7785   30.5842   44.7687 H   0  0  0  0  0  0  0  0  0  0  0  0
   55.3258   31.2718   43.6615 H   0  0  0  0  0  0  0  0  0  0  0  0
   56.5743   31.6822   44.8906 H   0  0  0  0  0  0  0  0  0  0  0  0
   57.9220   30.2430   43.0210 H   0  0  0  0  0  0  0  0  0  0  0  0
   59.1403   32.0316   43.5098 H   0  0  0  0  0  0  0  0  0  0  0  0
   58.1949   32.7882   42.1464 H   0  0  0  0  0  0  0  0  0  0  0  0
   57.4981   34.3289   43.5995 H   0  0  0  0  0  0  0  0  0  0  0  0
   56.5398   33.0053   44.3934 H   0  0  0  0  0  0  0  0  0  0  0  0
   56.9949   32.3142   46.5714 H   0  0  0  0  0  0  0  0  0  0  0  0
   58.3774   32.4948   48.6414 H   0  0  0  0  0  0  0  0  0  0  0  0
   61.2849   34.8760   46.4993 H   0  0  0  0  0  0  0  0  0  0  0  0
   59.9076   34.7024   44.4267 H   0  0  0  0  0  0  0  0  0  0  0  0
   56.3857   27.1138   45.7745 H   0  0  0  0  0  0  0  0  0  0  0  0
  1  2  1  0
  2  3  2  0
  2  4  2  0
  2  5  1  0
  5  6  1  0
  6  7  2  0
  7  8  1  0
  8  9  2  0
  9 10  1  0
 10 11  1  0
 11 12  2  0
 11 13  1  0
 13 14  1  0
 14 15  1  0
 15 16  1  0
 16 17  1  0
 17 18  2  0
 18 19  1  0
 19 20  2  0
 20 21  1  0
 20 22  1  0
 22 23  2  0
 10 24  2  0
 24  6  1  0
 23 17  1  0
  1 25  1  0
  1 26  1  0
  1 27  1  0
  5 28  1  0
  7 29  1  0
  8 30  1  0
  9 31  1  0
 13 32  1  0
 13 33  1  0
 14 34  1  0
 15 35  1  0
 15 36  1  0
 16 37  1  0
 16 38  1  0
 18 39  1  0
 19 40  1  0
 22 41  1  0
 23 42  1  0
 24 43  1  0
M  END
>  <UniqueID>  (20) 
20

>  <SMILES>  (20) 
CS(=O)(=O)Nc1cccc(C(=O)CNCCc2ccc(Br)cc2)c1

>  <Energy>  (20) 
40.7626895548475

>  <Genealogy>  (20) 
CS(=O)(=O)Nc1cccc(C(=O)CNCCc2ccc(Br)cc2)c1 (3D coordinates assigned)
CS(=O)(=O)Nc1cccc(C(=O)CNCCc2ccc(Br)cc2)c1 (optimized conformer: 40.7626895548475 kcal/mol)

>  <smiles>  (20) 
CS(=O)(=O)Nc1cccc(C(=O)CNCCc2ccc(Br)cc2)c1

>  <score_type>  (20) 
oracle

>  <origin>  (20) 
adg

>  <m_score__min__energy>  (20) 
-9.3100000000000005

>  <m_primary>  (20) 
energy

$$$$
21:0
     RDKit          3D

 49 52  0  0  0  0  0  0  0  0999 V2000
   57.7540   25.7580   43.3670 C   0  0  0  0  0  0  0  0  0  0  0  0
   58.1590   27.1840   42.9980 C   0  0  0  0  0  0  0  0  0  0  0  0
   58.5760   27.9370   44.1920 N   0  0  0  0  0  0  0  0  0  0  0  0
   59.1670   27.0730   45.2310 C   0  0  0  0  0  0  0  0  0  0  0  0
   58.7830   27.4960   46.6640 C   0  0  0  0  0  0  0  0  0  0  0  0
   58.1820   28.8320   46.7020 N   0  0  0  0  0  0  0  0  0  0  0  0
   59.0170   29.9970   46.8530 C   0  0  0  0  0  0  0  0  0  0  0  0
   59.7680   30.1330   47.9950 C   0  0  0  0  0  0  0  0  0  0  0  0
   59.5370   29.2040   49.0470 C   0  0  0  0  0  0  0  0  0  0  0  0
   60.4080   29.0710   50.1210 C   0  0  0  0  0  0  0  0  0  0  0  0
   61.5450   29.8540   50.1900 C   0  0  0  0  0  0  0  0  0  0  0  0
   61.7770   30.8230   49.2220 C   0  0  0  0  0  0  0  0  0  0  0  0
   60.8690   31.0470   48.1500 C   0  0  0  0  0  0  0  0  0  0  0  0
   61.0750   32.0680   47.3460 N   0  0  0  0  0  0  0  0  0  0  0  0
   62.4280   32.6210   47.1340 C   0  0  0  0  0  0  0  0  0  0  0  0
   59.9890   32.8580   46.8290 C   0  0  0  0  0  0  0  0  0  0  0  0
   59.9850   34.2480   47.0690 C   0  0  0  0  0  0  0  0  0  0  0  0
   59.2450   35.1090   46.2610 C   0  0  0  0  0  0  0  0  0  0  0  0
   58.5410   34.6050   45.1700 C   0  0  0  0  0  0  0  0  0  0  0  0
   58.4990   33.2230   44.9450 C   0  0  0  0  0  0  0  0  0  0  0  0
   57.8390   32.7120   43.8240 C   0  0  0  0  0  0  0  0  0  0  0  0
   57.7920   31.3360   43.6370 C   0  0  0  0  0  0  0  0  0  0  0  0
   58.2820   30.5090   44.5930 N   0  0  0  0  0  0  0  0  0  0  0  0
   58.9230   30.9560   45.7130 C   0  0  0  0  0  0  0  0  0  0  0  0
   59.1410   32.3360   45.8500 C   0  0  0  0  0  0  0  0  0  0  0  0
   57.7252   25.6567   44.4619 H   0  0  0  0  0  0  0  0  0  0  0  0
   56.7586   25.5406   42.9524 H   0  0  0  0  0  0  0  0  0  0  0  0
   58.4865   25.0499   42.9524 H   0  0  0  0  0  0  0  0  0  0  0  0
   58.9956   27.1477   42.2847 H   0  0  0  0  0  0  0  0  0  0  0  0
   57.2923   27.6903   42.5480 H   0  0  0  0  0  0  0  0  0  0  0  0
   59.2500   28.6900   43.9220 H   0  0  0  0  0  0  0  0  0  0  0  0
   57.7300   28.3970   44.6070 H   0  0  0  0  0  0  0  0  0  0  0  0
   58.8213   26.0418   45.0664 H   0  0  0  0  0  0  0  0  0  0  0  0
   60.2602   27.1608   45.1462 H   0  0  0  0  0  0  0  0  0  0  0  0
   58.0607   26.7705   47.0664 H   0  0  0  0  0  0  0  0  0  0  0  0
   59.7022   27.5208   47.2677 H   0  0  0  0  0  0  0  0  0  0  0  0
   57.2180   28.9760   46.3260 H   0  0  0  0  0  0  0  0  0  0  0  0
   58.6390   28.5699   49.0089 H   0  0  0  0  0  0  0  0  0  0  0  0
   60.1928   28.3425   50.9166 H   0  0  0  0  0  0  0  0  0  0  0  0
   62.2645   29.7102   51.0095 H   0  0  0  0  0  0  0  0  0  0  0  0
   62.6890   31.4347   49.2862 H   0  0  0  0  0  0  0  0  0  0  0  0
   62.9017   32.8146   48.1077 H   0  0  0  0  0  0  0  0  0  0  0  0
   63.0348   31.8987   46.5682 H   0  0  0  0  0  0  0  0  0  0  0  0
   62.3552   33.5615   46.5682 H   0  0  0  0  0  0  0  0  0  0  0  0
   60.5730   34.6571   47.9038 H   0  0  0  0  0  0  0  0  0  0  0  0
   59.2169   36.1857   46.4846 H   0  0  0  0  0  0  0  0  0  0  0  0
   58.0190   35.2908   44.4864 H   0  0  0  0  0  0  0  0  0  0  0  0
   57.3634   33.3898   43.0998 H   0  0  0  0  0  0  0  0  0  0  0  0
   57.3585   30.9189   42.7161 H   0  0  0  0  0  0  0  0  0  0  0  0
  1  2  1  0
  2  3  1  0
  3  4  1  0
  4  5  1  0
  5  6  1  0
  6  7  1  0
  7  8  2  0
  8  9  1  0
  9 10  2  0
 10 11  1  0
 11 12  2  0
 12 13  1  0
 13 14  2  0
 14 15  1  0
 14 16  1  0
 16 17  2  0
 17 18  1  0
 18 19  2  0
 19 20  1  0
 20 21  2  0
 21 22  1  0
 22 23  2  0
 23 24  1  0
 24 25  2  0
 24  7  1  0
 13  8  1  0
 25 16  1  0
 25 20  1  0
  1 26  1  0
  1 27  1  0
  1 28  1  0
  2 29  1  0
  2 30  1  0
  3 31  1  0
  3 32  1  0
  4 33  1  0
  4 34  1  0
  5 35  1  0
  5 36  1  0
  6 37  1  0
  9 38  1  0
 10 39  1  0
 11 40  1  0
 12 41  1  0
 15 42  1  0
 15 43  1  0
 15 44  1  0
 17 45  1  0
 18 46  1  0
 19 47  1  0
 21 48  1  0
 22 49  1  0
M  CHG  2   3   1  14   1
M  END
>  <UniqueID>  (21) 
21

>  <SMILES>  (21) 
CC[NH2+]CCNC1=c2ccccc2=[N+](C)c2cccc3ccnc1c23

>  <Energy>  (21) 
115.0951935544377

>  <Genealogy>  (21) 
CC[NH2+]CCNC1=c2ccccc2=[N+](C)c2cccc3ccnc1c23 (protonated)
CC[NH2+]CCNC1=c2ccccc2=[N+](C)c2cccc3ccnc1c23 (3D coordinates assigned)
CC[NH2+]CCNC1=c2ccccc2=[N+](C)c2cccc3ccnc1c23 (nonaromatic ring conformer: 115.0951935544377 kcal/mol)

>  <smiles>  (21) 
CCNCCNC1=c2ccccc2=[N+](C)c2cccc3ccnc1c23

>  <score_type>  (21) 
oracle

>  <origin>  (21) 
adg

>  <m_score__min__energy>  (21) 
-4.9900000000000002

>  <m_primary>  (21) 
energy

$$$$
22:0
     RDKit          3D

 48 51  0  0  0  0  0  0  0  0999 V2000
   62.9500   33.8180   46.7520 C   0  0  0  0  0  0  0  0  0  0  0  0
   62.2410   33.4590   48.0530 C   0  0  0  0  0  0  0  0  0  0  0  0
   60.8780   33.8830   48.0210 O   0  0  0  0  0  0  0  0  0  0  0  0
   60.0310   33.8330   46.9020 C   0  0  0  0  0  0  0  0  0  0  0  0
   59.5850   34.9880   46.2320 C   0  0  0  0  0  0  0  0  0  0  0  0
   58.7360   34.8770   45.1300 C   0  0  0  0  0  0  0  0  0  0  0  0
   58.3250   33.6200   44.6830 C   0  0  0  0  0  0  0  0  0  0  0  0
   58.7610   32.4520   45.3340 C   0  0  0  0  0  0  0  0  0  0  0  0
   58.3200   31.1190   44.8560 C   0  0  0  0  0  0  0  0  0  0  0  0
   58.7530   29.9380   45.3580 N   0  0  0  0  0  0  0  0  0  0  0  0
   58.1960   28.8550   44.7390 C   0  0  0  0  0  0  0  0  0  0  0  0
   58.5250   27.4610   45.1260 C   0  0  0  0  0  0  0  0  0  0  0  0
   59.5620   27.1920   46.0350 C   0  0  0  0  0  0  0  0  0  0  0  0
   59.8590   25.8720   46.3750 C   0  0  0  0  0  0  0  0  0  0  0  0
   59.1440   24.8510   45.8350 N   0  0  0  0  0  0  0  0  0  0  0  0
   58.1230   25.0670   44.9590 C   0  0  0  0  0  0  0  0  0  0  0  0
   57.4080   23.9460   44.4040 N   0  0  0  0  0  0  0  0  0  0  0  0
   57.9310   22.5920   44.6100 C   0  0  0  0  0  0  0  0  0  0  0  0
   57.4130   21.6630   43.5070 C   0  0  0  0  0  0  0  0  0  0  0  0
   56.0020   21.7380   43.4080 O   0  0  0  0  0  0  0  0  0  0  0  0
   55.6210   23.0350   42.9920 C   0  0  0  0  0  0  0  0  0  0  0  0
   55.9890   24.0760   44.0540 C   0  0  0  0  0  0  0  0  0  0  0  0
   57.8080   26.3820   44.5810 C   0  0  0  0  0  0  0  0  0  0  0  0
   57.3020   29.1770   43.7170 C   0  0  0  0  0  0  0  0  0  0  0  0
   57.2220   30.8510   43.6070 S   0  0  0  0  0  0  0  0  0  0  0  0
   59.6110   32.5760   46.4490 C   0  0  0  0  0  0  0  0  0  0  0  0
   63.9101   34.3041   46.9797 H   0  0  0  0  0  0  0  0  0  0  0  0
   63.1315   32.9032   46.1688 H   0  0  0  0  0  0  0  0  0  0  0  0
   62.3200   34.5057   46.1688 H   0  0  0  0  0  0  0  0  0  0  0  0
   62.2763   32.3687   48.1940 H   0  0  0  0  0  0  0  0  0  0  0  0
   62.7497   33.9691   48.8843 H   0  0  0  0  0  0  0  0  0  0  0  0
   59.9068   35.9813   46.5782 H   0  0  0  0  0  0  0  0  0  0  0  0
   58.3894   35.7832   44.6117 H   0  0  0  0  0  0  0  0  0  0  0  0
   57.6546   33.5424   43.8144 H   0  0  0  0  0  0  0  0  0  0  0  0
   59.4770   29.8580   46.1060 H   0  0  0  0  0  0  0  0  0  0  0  0
   60.1374   28.0189   46.4768 H   0  0  0  0  0  0  0  0  0  0  0  0
   60.6740   25.6575   47.0819 H   0  0  0  0  0  0  0  0  0  0  0  0
   59.0303   22.6166   44.5805 H   0  0  0  0  0  0  0  0  0  0  0  0
   57.5951   22.2175   45.5882 H   0  0  0  0  0  0  0  0  0  0  0  0
   57.8583   21.9606   42.5462 H   0  0  0  0  0  0  0  0  0  0  0  0
   57.6946   20.6291   43.7556 H   0  0  0  0  0  0  0  0  0  0  0  0
   56.1387   23.2793   42.0527 H   0  0  0  0  0  0  0  0  0  0  0  0
   54.5312   23.0522   42.8436 H   0  0  0  0  0  0  0  0  0  0  0  0
   55.8012   25.0847   43.6576 H   0  0  0  0  0  0  0  0  0  0  0  0
   55.3759   23.9118   44.9525 H   0  0  0  0  0  0  0  0  0  0  0  0
   56.9999   26.5678   43.8582 H   0  0  0  0  0  0  0  0  0  0  0  0
   56.7473   28.4606   43.0933 H   0  0  0  0  0  0  0  0  0  0  0  0
   59.9510   31.6707   46.9733 H   0  0  0  0  0  0  0  0  0  0  0  0
  1  2  1  0
  2  3  1  0
  3  4  1  0
  4  5  2  0
  5  6  1  0
  6  7  2  0
  7  8  1  0
  8  9  1  0
  9 10  2  0
 10 11  1  0
 11 12  1  0
 12 13  2  0
 13 14  1  0
 14 15  2  0
 15 16  1  0
 16 17  1  0
 17 18  1  0
 18 19  1  0
 19 20  1  0
 20 21  1  0
 21 22  1  0
 16 23  2  0
 11 24  2  0
 24 25  1  0
  8 26  2  0
 26  4  1  0
 25  9  1  0
 23 12  1  0
 22 17  1  0
  1 27  1  0
  1 28  1  0
  1 29  1  0
  2 30  1  0
  2 31  1  0
  5 32  1  0
  6 33  1  0
  7 34  1  0
 10 35  1  0
 13 36  1  0
 14 37  1  0
 18 38  1  0
 18 39  1  0
 19 40  1  0
 19 41  1  0
 21 42  1  0
 21 43  1  0
 22 44  1  0
 22 45  1  0
 23 46  1  0
 24 47  1  0
 26 48  1  0
M  CHG  1  10   1
M  END
>  <UniqueID>  (22) 
22

>  <SMILES>  (22) 
CCOc1cccc(-c2[nH+]c(-c3ccnc(N4CCOCC4)c3)cs2)c1

>  <Energy>  (22) 
89.10047857395767

>  <Genealogy>  (22) 
CCOc1cccc(-c2[nH+]c(-c3ccnc(N4CCOCC4)c3)cs2)c1 (protonated)
CCOc1cccc(-c2[nH+]c(-c3ccnc(N4CCOCC4)c3)cs2)c1 (3D coordinates assigned)
CCOc1cccc(-c2[nH+]c(-c3ccnc(N4CCOCC4)c3)cs2)c1 (nonaromatic ring conformer: 89.10047857395767 kcal/mol)

>  <smiles>  (22) 
CCOc1cccc(-c2nc(-c3ccnc(N4CCOCC4)c3)cs2)c1

>  <score_type>  (22) 
oracle

>  <origin>  (22) 
adg

>  <m_score__min__energy>  (22) 
-6.8099999999999996

>  <m_primary>  (22) 
energy

$$$$
23:0
     RDKit          3D

 41 44  0  0  0  0  0  0  0  0999 V2000
   60.6835   35.4135   46.4138 H   0  0  0  0  0  0  0  0  0  0  0  0
   59.6340   35.2290   46.1410 C   0  0  0  0  0  0  0  0  0  0  0  0
   58.8522   35.9374   46.4522 H   0  0  0  0  0  0  0  0  0  0  0  0
   59.3090   34.1450   45.4320 C   0  0  0  0  0  0  0  0  0  0  0  0
   60.1024   33.4462   45.1285 H   0  0  0  0  0  0  0  0  0  0  0  0
   57.8820   33.8530   45.0360 C   0  0  0  0  0  0  0  0  0  0  0  0
   57.3967   33.2911   45.8477 H   0  0  0  0  0  0  0  0  0  0  0  0
   57.3770   34.8138   44.8576 H   0  0  0  0  0  0  0  0  0  0  0  0
   57.8010   33.0620   43.7970 N   0  0  0  0  0  0  0  0  0  0  0  0
   58.6840   33.1570   43.2430 H   0  0  0  0  0  0  0  0  0  0  0  0
   57.0200   33.4400   43.2120 H   0  0  0  0  0  0  0  0  0  0  0  0
   57.5220   31.6780   44.0840 C   0  0  0  0  0  0  0  0  0  0  0  0
   57.8920   31.1470   45.2870 N   0  0  0  0  0  0  0  0  0  0  0  0
   57.6360   29.8670   45.5470 N   0  0  0  0  0  0  0  0  0  0  0  0
   57.9390   29.1150   46.6260 C   0  0  0  0  0  0  0  0  0  0  0  0
   58.5460   29.5330   47.7000 N   0  0  0  0  0  0  0  0  0  0  0  0
   59.5370   30.5660   47.7640 C   0  0  0  0  0  0  0  0  0  0  0  0
   60.7720   30.3870   47.0930 C   0  0  0  0  0  0  0  0  0  0  0  0
   60.9520   29.4649   46.5208 H   0  0  0  0  0  0  0  0  0  0  0  0
   61.7710   31.3770   47.1510 C   0  0  0  0  0  0  0  0  0  0  0  0
   62.7262   31.2545   46.6194 H   0  0  0  0  0  0  0  0  0  0  0  0
   61.5060   32.5190   47.9070 C   0  0  0  0  0  0  0  0  0  0  0  0
   60.3300   32.6800   48.5800 C   0  0  0  0  0  0  0  0  0  0  0  0
   60.4250   33.9020   49.2120 C   0  0  0  0  0  0  0  0  0  0  0  0
   59.6540   34.3593   49.8496 H   0  0  0  0  0  0  0  0  0  0  0  0
   61.6310   34.4430   48.9130 N   0  0  0  0  0  0  0  0  0  0  0  0
   62.2820   33.5970   48.1200 N   0  0  0  0  0  0  0  0  0  0  0  0
   63.6180   33.8350   47.5910 C   0  0  0  0  0  0  0  0  0  0  0  0
   64.3252   33.9610   48.4241 H   0  0  0  0  0  0  0  0  0  0  0  0
   63.9264   32.9777   46.9747 H   0  0  0  0  0  0  0  0  0  0  0  0
   63.6114   34.7461   46.9747 H   0  0  0  0  0  0  0  0  0  0  0  0
   59.3220   31.7220   48.5510 C   0  0  0  0  0  0  0  0  0  0  0  0
   58.3905   31.8583   49.1199 H   0  0  0  0  0  0  0  0  0  0  0  0
   57.5810   27.8190   46.4550 N   0  0  0  0  0  0  0  0  0  0  0  0
   57.0220   27.7760   45.2190 C   0  0  0  0  0  0  0  0  0  0  0  0
   56.6029   26.8809   44.7361 H   0  0  0  0  0  0  0  0  0  0  0  0
   57.0660   29.0380   44.6690 C   0  0  0  0  0  0  0  0  0  0  0  0
   56.6700   29.4910   43.4170 C   0  0  0  0  0  0  0  0  0  0  0  0
   56.1956   28.8183   42.6873 H   0  0  0  0  0  0  0  0  0  0  0  0
   56.9010   30.8430   43.1230 C   0  0  0  0  0  0  0  0  0  0  0  0
   56.6004   31.2540   42.1479 H   0  0  0  0  0  0  0  0  0  0  0  0
  1  2  1  0
  2  3  1  0
  2  4  2  0
  4  5  1  0
  4  6  1  0
  6  7  1  0
  6  8  1  0
  6  9  1  0
  9 10  1  0
  9 11  1  0
  9 12  1  0
 12 13  2  0
 13 14  1  0
 14 15  1  0
 15 16  2  0
 16 17  1  0
 17 18  2  0
 18 19  1  0
 18 20  1  0
 20 21  1  0
 20 22  2  0
 22 23  1  0
 23 24  1  0
 24 25  1  0
 24 26  2  0
 26 27  1  0
 27 28  1  0
 28 29  1  0
 28 30  1  0
 28 31  1  0
 23 32  2  0
 32 33  1  0
 15 34  1  0
 34 35  1  0
 35 36  1  0
 35 37  2  0
 37 38  1  0
 38 39  1  0
 38 40  2  0
 40 41  1  0
 40 12  1  0
 37 14  1  0
 32 17  1  0
 27 22  1  0
M  CHG  2   9   1  34  -1
M  END
>  <UniqueID>  (23) 
23

>  <SMILES>  (23) 
C=CC[NH2+]c1ccc2c[n-]/c(=N/c3ccc4c(cnn4C)c3)n2n1

>  <Energy>  (23) 
127.86959331477479

>  <Genealogy>  (23) 
C=CC[NH2+]c1ccc2c[n-]c(=Nc3ccc4c(cnn4C)c3)n2n1 (protonated)
C=CC[NH2+]c1ccc2c[n-]/c(=N/c3ccc4c(cnn4C)c3)n2n1 (cis-trans isomerization)
C=CC[NH2+]c1ccc2c[n-]/c(=N/c3ccc4c(cnn4C)c3)n2n1 (3D coordinates assigned)
C=CC[NH2+]c1ccc2c[n-]/c(=N/c3ccc4c(cnn4C)c3)n2n1 (optimized conformer: 127.86959331477479 kcal/mol)

>  <smiles>  (23) 
C=CCNc1ccc2c[nH]c(=Nc3ccc4c(cnn4C)c3)n2n1

>  <score_type>  (23) 
oracle

>  <origin>  (23) 
adg

>  <m_score__min__energy>  (23) 
-7.1799999999999997

>  <m_primary>  (23) 
energy

$$$$
24:0
     RDKit          3D

 36 38  0  0  0  0  0  0  0  0999 V2000
   65.9540   33.0830   50.4560 C   0  0  0  0  0  0  0  0  0  0  0  0
   65.3260   32.4740   49.3330 O   0  0  0  0  0  0  0  0  0  0  0  0
   64.1730   32.9680   48.7080 C   0  0  0  0  0  0  0  0  0  0  0  0
   64.0340   33.0200   47.3070 C   0  0  0  0  0  0  0  0  0  0  0  0
   62.8630   33.5210   46.7320 C   0  0  0  0  0  0  0  0  0  0  0  0
   61.8110   33.9800   47.5400 C   0  0  0  0  0  0  0  0  0  0  0  0
   60.5500   34.5200   46.9010 C   0  0  1  0  0  0  0  0  0  0  0  0
   60.1200   33.6800   45.7430 C   0  0  0  0  0  0  0  0  0  0  0  0
   58.9130   33.1330   45.9170 C   0  0  0  0  0  0  0  0  0  0  0  0
   58.2440   32.2260   44.9420 C   0  0  0  0  0  0  0  0  0  0  0  0
   58.0860   32.6250   43.5990 C   0  0  0  0  0  0  0  0  0  0  0  0
   57.4550   31.7870   42.6760 C   0  0  0  0  0  0  0  0  0  0  0  0
   56.9670   30.5430   43.0760 C   0  0  0  0  0  0  0  0  0  0  0  0
   56.3540   29.7310   42.1790 F   0  0  0  0  0  0  0  0  0  0  0  0
   57.1050   30.1350   44.4040 C   0  0  0  0  0  0  0  0  0  0  0  0
   57.7350   30.9690   45.3330 C   0  0  0  0  0  0  0  0  0  0  0  0
   58.3030   33.5400   47.2240 C   0  0  0  0  0  0  0  0  0  0  0  0
   59.3690   34.3980   47.8020 C   0  0  0  0  0  0  0  0  0  0  0  0
   59.2780   34.9590   48.8830 O   0  0  0  0  0  0  0  0  0  0  0  0
   61.9530   33.9270   48.9390 C   0  0  0  0  0  0  0  0  0  0  0  0
   63.1240   33.4250   49.5130 C   0  0  0  0  0  0  0  0  0  0  0  0
   65.5284   32.6703   51.3826 H   0  0  0  0  0  0  0  0  0  0  0  0
   67.0347   32.8799   50.4266 H   0  0  0  0  0  0  0  0  0  0  0  0
   65.7842   34.1694   50.4266 H   0  0  0  0  0  0  0  0  0  0  0  0
   64.8514   32.6644   46.6624 H   0  0  0  0  0  0  0  0  0  0  0  0
   62.7648   33.5560   45.6369 H   0  0  0  0  0  0  0  0  0  0  0  0
   60.8060   35.5575   46.6402 H   0  0  0  0  0  0  0  0  0  0  0  0
   60.7323   33.5277   44.8419 H   0  0  0  0  0  0  0  0  0  0  0  0
   58.4633   33.6060   43.2745 H   0  0  0  0  0  0  0  0  0  0  0  0
   57.3427   32.1094   41.6303 H   0  0  0  0  0  0  0  0  0  0  0  0
   56.7173   29.1554   44.7203 H   0  0  0  0  0  0  0  0  0  0  0  0
   57.8348   30.6422   46.3786 H   0  0  0  0  0  0  0  0  0  0  0  0
   57.3717   34.1054   47.0726 H   0  0  0  0  0  0  0  0  0  0  0  0
   58.0160   32.6933   47.8648 H   0  0  0  0  0  0  0  0  0  0  0  0
   61.1369   34.2830   49.5849 H   0  0  0  0  0  0  0  0  0  0  0  0
   63.2219   33.3888   50.6080 H   0  0  0  0  0  0  0  0  0  0  0  0
  1  2  1  0
  2  3  1  0
  3  4  2  0
  4  5  1  0
  5  6  2  0
  6  7  1  0
  7  8  1  0
  8  9  2  0
  9 10  1  0
 10 11  2  0
 11 12  1  0
 12 13  2  0
 13 14  1  0
 13 15  1  0
 15 16  2  0
  9 17  1  0
 17 18  1  0
 18 19  2  0
  6 20  1  0
 20 21  2  0
 21  3  1  0
 18  7  1  0
 16 10  1  0
  1 22  1  0
  1 23  1  0
  1 24  1  0
  4 25  1  0
  5 26  1  0
  7 27  1  6
  8 28  1  0
 11 29  1  0
 12 30  1  0
 15 31  1  0
 16 32  1  0
 17 33  1  0
 17 34  1  0
 20 35  1  0
 21 36  1  0
M  END
>  <UniqueID>  (24) 
24

>  <SMILES>  (24) 
COc1ccc([C@H]2C=C(c3ccc(F)cc3)CC2=O)cc1

>  <Energy>  (24) 
46.39217757275954

>  <Genealogy>  (24) 
COc1ccc([C@H]2C=C(c3ccc(F)cc3)CC2=O)cc1 (chirality)
COc1ccc([C@H]2C=C(c3ccc(F)cc3)CC2=O)cc1 (3D coordinates assigned)
COc1ccc([C@H]2C=C(c3ccc(F)cc3)CC2=O)cc1 (nonaromatic ring conformer: 46.39217757275954 kcal/mol)

>  <smiles>  (24) 
COc1ccc(C2C=C(c3ccc(F)cc3)CC2=O)cc1

>  <score_type>  (24) 
oracle

>  <origin>  (24) 
adg

>  <m_score__min__energy>  (24) 
-7.3200000000000003

>  <m_primary>  (24) 
energy

$$$$
25:0
     RDKit          3D

 64 66  0  0  0  0  0  0  0  0999 V2000
   57.0070   33.1430   46.4070 C   0  0  0  0  0  0  0  0  0  0  0  0
   57.3300   34.3820   45.5720 C   0  0  0  0  0  0  0  0  0  0  0  0
   58.2360   34.0480   44.4470 N   0  0  0  0  0  0  0  0  0  0  0  0
   58.2320   32.5930   44.1690 C   0  0  0  0  0  0  0  0  0  0  0  0
   58.0980   32.3390   42.6680 C   0  0  0  0  0  0  0  0  0  0  0  0
   59.6130   34.5500   44.6960 C   0  0  0  0  0  0  0  0  0  0  0  0
   59.6840   35.2480   46.0540 C   0  0  0  0  0  0  0  0  0  0  0  0
   60.4460   34.4540   47.0110 N   0  0  0  0  0  0  0  0  0  0  0  0
   60.5510   33.0310   46.8960 C   0  0  0  0  0  0  0  0  0  0  0  0
   59.5320   32.2130   46.7740 O   0  0  0  0  0  0  0  0  0  0  0  0
   60.0290   30.9960   46.6810 C   0  0  0  0  0  0  0  0  0  0  0  0
   59.1940   29.7900   46.4930 C   0  0  0  0  0  0  0  0  0  0  0  0
   57.9310   29.9140   45.9040 C   0  0  0  0  0  0  0  0  0  0  0  0
   57.1160   28.7850   45.6850 C   0  0  0  0  0  0  0  0  0  0  0  0
   55.8580   28.9140   45.0760 O   0  0  0  0  0  0  0  0  0  0  0  0
   55.5800   29.7160   43.9320 C   0  0  0  0  0  0  0  0  0  0  0  0
   57.5830   27.5070   46.0870 C   0  0  0  0  0  0  0  0  0  0  0  0
   56.8460   26.3180   45.9190 O   0  0  0  0  0  0  0  0  0  0  0  0
   57.0060   25.3610   44.8780 C   0  0  0  0  0  0  0  0  0  0  0  0
   58.8440   27.3860   46.6930 C   0  0  0  0  0  0  0  0  0  0  0  0
   59.2690   26.1060   47.0870 O   0  0  0  0  0  0  0  0  0  0  0  0
   59.9850   25.2000   46.2560 C   0  0  0  0  0  0  0  0  0  0  0  0
   59.6450   28.5260   46.8890 C   0  0  0  0  0  0  0  0  0  0  0  0
   61.3810   30.9980   46.7460 N   0  0  0  0  0  0  0  0  0  0  0  0
   61.7110   32.2930   46.8790 C   0  0  0  0  0  0  0  0  0  0  0  0
   63.3900   32.9070   46.9910 S   0  0  0  0  0  0  0  0  0  0  0  0
   63.3450   32.9380   48.7820 C   0  0  0  0  0  0  0  0  0  0  0  0
   64.2070   32.1170   49.5210 C   0  0  0  0  0  0  0  0  0  0  0  0
   64.1770   32.1470   50.9190 C   0  0  0  0  0  0  0  0  0  0  0  0
   63.2830   32.9940   51.5810 C   0  0  0  0  0  0  0  0  0  0  0  0
   62.4190   33.8120   50.8460 C   0  0  0  0  0  0  0  0  0  0  0  0
   62.4470   33.7830   49.4480 C   0  0  0  0  0  0  0  0  0  0  0  0
   57.0724   33.3940   47.4760 H   0  0  0  0  0  0  0  0  0  0  0  0
   55.9890   32.7983   46.1729 H   0  0  0  0  0  0  0  0  0  0  0  0
   57.7272   32.3451   46.1729 H   0  0  0  0  0  0  0  0  0  0  0  0
   56.3945   34.7968   45.1685 H   0  0  0  0  0  0  0  0  0  0  0  0
   57.8326   35.1167   46.2182 H   0  0  0  0  0  0  0  0  0  0  0  0
   59.1735   32.1525   44.5287 H   0  0  0  0  0  0  0  0  0  0  0  0
   57.3778   32.1326   44.6870 H   0  0  0  0  0  0  0  0  0  0  0  0
   57.5906   31.3771   42.5028 H   0  0  0  0  0  0  0  0  0  0  0  0
   57.5091   33.1476   42.2104 H   0  0  0  0  0  0  0  0  0  0  0  0
   59.0979   32.3094   42.2104 H   0  0  0  0  0  0  0  0  0  0  0  0
   60.3155   33.7036   44.6855 H   0  0  0  0  0  0  0  0  0  0  0  0
   59.8799   35.2701   43.9084 H   0  0  0  0  0  0  0  0  0  0  0  0
   60.1708   36.2267   45.9303 H   0  0  0  0  0  0  0  0  0  0  0  0
   58.6607   35.3721   46.4380 H   0  0  0  0  0  0  0  0  0  0  0  0
   60.9900   34.9490   47.7510 H   0  0  0  0  0  0  0  0  0  0  0  0
   57.5680   30.9090   45.6069 H   0  0  0  0  0  0  0  0  0  0  0  0
   55.2357   30.7094   44.2555 H   0  0  0  0  0  0  0  0  0  0  0  0
   56.4934   29.8231   43.3285 H   0  0  0  0  0  0  0  0  0  0  0  0
   54.7962   29.2348   43.3285 H   0  0  0  0  0  0  0  0  0  0  0  0
   57.1723   24.3662   45.3169 H   0  0  0  0  0  0  0  0  0  0  0  0
   56.0988   25.3404   44.2562 H   0  0  0  0  0  0  0  0  0  0  0  0
   57.8705   25.6367   44.2562 H   0  0  0  0  0  0  0  0  0  0  0  0
   60.5451   24.4912   46.8836 H   0  0  0  0  0  0  0  0  0  0  0  0
   59.2771   24.6473   45.6209 H   0  0  0  0  0  0  0  0  0  0  0  0
   60.6864   25.7610   45.6209 H   0  0  0  0  0  0  0  0  0  0  0  0
   60.6347   28.4227   47.3578 H   0  0  0  0  0  0  0  0  0  0  0  0
   62.0390   30.1900   46.6750 H   0  0  0  0  0  0  0  0  0  0  0  0
   64.9083   31.4479   49.0009 H   0  0  0  0  0  0  0  0  0  0  0  0
   64.8567   31.5042   51.4976 H   0  0  0  0  0  0  0  0  0  0  0  0
   63.2592   33.0170   52.6805 H   0  0  0  0  0  0  0  0  0  0  0  0
   61.7168   34.4788   51.3679 H   0  0  0  0  0  0  0  0  0  0  0  0
   61.7639   34.4237   48.8710 H   0  0  0  0  0  0  0  0  0  0  0  0
  1  2  1  0
  2  3  1  0
  3  4  1  0
  4  5  1  0
  3  6  1  0
  6  7  1  0
  7  8  1  0
  8  9  1  0
  9 10  1  0
 10 11  1  0
 11 12  1  0
 12 13  2  0
 13 14  1  0
 14 15  1  0
 15 16  1  0
 14 17  2  0
 17 18  1  0
 18 19  1  0
 17 20  1  0
 20 21  1  0
 21 22  1  0
 20 23  2  0
 11 24  2  0
 24 25  1  0
 25 26  1  0
 26 27  1  0
 27 28  2  0
 28 29  1  0
 29 30  2  0
 30 31  1  0
 31 32  2  0
 25  9  2  0
 32 27  1  0
 23 12  1  0
  1 33  1  0
  1 34  1  0
  1 35  1  0
  2 36  1  0
  2 37  1  0
  4 38  1  0
  4 39  1  0
  5 40  1  0
  5 41  1  0
  5 42  1  0
  6 43  1  0
  6 44  1  0
  7 45  1  0
  7 46  1  0
  8 47  1  0
 13 48  1  0
 16 49  1  0
 16 50  1  0
 16 51  1  0
 19 52  1  0
 19 53  1  0
 19 54  1  0
 22 55  1  0
 22 56  1  0
 22 57  1  0
 23 58  1  0
 24 59  1  0
 28 60  1  0
 29 61  1  0
 30 62  1  0
 31 63  1  0
 32 64  1  0
M  CHG  1  24   1
M  END
>  <UniqueID>  (25) 
25

>  <SMILES>  (25) 
CCN(CC)CCNc1oc(-c2cc(OC)c(OC)c(OC)c2)[nH+]c1Sc1ccccc1

>  <Energy>  (25) 
88.13686343725797

>  <Genealogy>  (25) 
CCN(CC)CCNc1oc(-c2cc(OC)c(OC)c(OC)c2)[nH+]c1Sc1ccccc1 (protonated)
CCN(CC)CCNc1oc(-c2cc(OC)c(OC)c(OC)c2)[nH+]c1Sc1ccccc1 (3D coordinates assigned)
CCN(CC)CCNc1oc(-c2cc(OC)c(OC)c(OC)c2)[nH+]c1Sc1ccccc1 (optimized conformer: 88.13686343725797 kcal/mol)

>  <smiles>  (25) 
CCN(CC)CCNc1oc(-c2cc(OC)c(OC)c(OC)c2)nc1Sc1ccccc1

>  <score_type>  (25) 
oracle

>  <origin>  (25) 
adg

>  <m_score__min__energy>  (25) 
-5.9500000000000002

>  <m_primary>  (25) 
energy

$$$$
26:0
     RDKit          3D

 44 48  0  0  0  0  0  0  0  0999 V2000
   56.4910   25.7470   46.2680 C   0  0  0  0  0  0  0  0  0  0  0  0
   57.7850   25.9220   47.0520 C   0  0  0  0  0  0  0  0  0  0  0  0
   58.2480   27.3020   46.9570 N   0  0  0  0  0  0  0  0  0  0  0  0
   57.7710   28.2390   46.1170 C   0  0  0  0  0  0  0  0  0  0  0  0
   58.5270   29.3810   46.2740 C   0  0  0  0  0  0  0  0  0  0  0  0
   58.3790   30.6220   45.4950 C   0  0  0  0  0  0  0  0  0  0  0  0
   58.2450   30.7030   44.1190 C   0  0  0  0  0  0  0  0  0  0  0  0
   58.1140   31.9990   43.7450 N   0  0  0  0  0  0  0  0  0  0  0  0
   58.1890   32.6730   44.9110 C   0  0  0  0  0  0  0  0  0  0  0  0
   58.1280   34.0590   45.0510 C   0  0  0  0  0  0  0  0  0  0  0  0
   58.2660   34.5900   46.3430 C   0  0  0  0  0  0  0  0  0  0  0  0
   58.4720   33.7390   47.4440 C   0  0  0  0  0  0  0  0  0  0  0  0
   58.5280   32.3530   47.2440 C   0  0  0  0  0  0  0  0  0  0  0  0
   58.3570   31.8760   45.9810 N   0  0  0  0  0  0  0  0  0  0  0  0
   59.4570   29.0650   47.2610 C   0  0  0  0  0  0  0  0  0  0  0  0
   60.4660   29.9500   47.8800 C   0  0  0  0  0  0  0  0  0  0  0  0
   60.7590   29.8800   49.2510 C   0  0  0  0  0  0  0  0  0  0  0  0
   61.6840   30.7100   49.8060 N   0  0  0  0  0  0  0  0  0  0  0  0
   62.3630   31.6250   49.0570 C   0  0  0  0  0  0  0  0  0  0  0  0
   63.3100   32.4730   49.6500 C   0  0  0  0  0  0  0  0  0  0  0  0
   64.0030   33.4060   48.8720 C   0  0  0  0  0  0  0  0  0  0  0  0
   63.7590   33.4950   47.4990 C   0  0  0  0  0  0  0  0  0  0  0  0
   62.8200   32.6550   46.8950 C   0  0  0  0  0  0  0  0  0  0  0  0
   62.1180   31.7170   47.6680 C   0  0  0  0  0  0  0  0  0  0  0  0
   61.1700   30.8670   47.0870 C   0  0  0  0  0  0  0  0  0  0  0  0
   59.2710   27.7850   47.6460 N   0  0  0  0  0  0  0  0  0  0  0  0
   55.6505   25.6333   46.9684 H   0  0  0  0  0  0  0  0  0  0  0  0
   56.3236   26.6307   45.6347 H   0  0  0  0  0  0  0  0  0  0  0  0
   56.5644   24.8506   45.6347 H   0  0  0  0  0  0  0  0  0  0  0  0
   57.6071   25.6701   48.1079 H   0  0  0  0  0  0  0  0  0  0  0  0
   58.5527   25.2558   46.6315 H   0  0  0  0  0  0  0  0  0  0  0  0
   56.9248   28.1151   45.4252 H   0  0  0  0  0  0  0  0  0  0  0  0
   58.2449   29.8438   43.4322 H   0  0  0  0  0  0  0  0  0  0  0  0
   57.9771   34.7132   44.1797 H   0  0  0  0  0  0  0  0  0  0  0  0
   58.2127   35.6781   46.4955 H   0  0  0  0  0  0  0  0  0  0  0  0
   58.5883   34.1582   48.4543 H   0  0  0  0  0  0  0  0  0  0  0  0
   58.7056   31.6682   48.0864 H   0  0  0  0  0  0  0  0  0  0  0  0
   60.2359   29.1472   49.8830 H   0  0  0  0  0  0  0  0  0  0  0  0
   61.8700   30.6310   50.8320 H   0  0  0  0  0  0  0  0  0  0  0  0
   63.5081   32.4040   50.7298 H   0  0  0  0  0  0  0  0  0  0  0  0
   64.7420   34.0715   49.3421 H   0  0  0  0  0  0  0  0  0  0  0  0
   64.3083   34.2292   46.8914 H   0  0  0  0  0  0  0  0  0  0  0  0
   62.6309   32.7288   45.8139 H   0  0  0  0  0  0  0  0  0  0  0  0
   60.9768   30.9186   46.0053 H   0  0  0  0  0  0  0  0  0  0  0  0
  1  2  1  0
  2  3  1  0
  3  4  1  0
  4  5  2  0
  5  6  1  0
  6  7  2  0
  7  8  1  0
  8  9  2  0
  9 10  1  0
 10 11  2  0
 11 12  1  0
 12 13  2  0
 13 14  1  0
  5 15  1  0
 15 16  1  0
 16 17  2  0
 17 18  1  0
 18 19  2  0
 19 20  1  0
 20 21  2  0
 21 22  1  0
 22 23  2  0
 23 24  1  0
 24 25  2  0
 15 26  2  0
 26  3  1  0
 14  6  1  0
 25 16  1  0
 14  9  1  0
 24 19  1  0
  1 27  1  0
  1 28  1  0
  1 29  1  0
  2 30  1  0
  2 31  1  0
  4 32  1  0
  7 33  1  0
 10 34  1  0
 11 35  1  0
 12 36  1  0
 13 37  1  0
 17 38  1  0
 18 39  1  0
 20 40  1  0
 21 41  1  0
 22 42  1  0
 23 43  1  0
 25 44  1  0
M  CHG  1  18   1
M  END
>  <UniqueID>  (26) 
26

>  <SMILES>  (26) 
CCn1cc(-c2cnc3ccccn23)c(-c2c[nH+]c3ccccc3c2)n1

>  <Energy>  (26) 
122.017104324492

>  <Genealogy>  (26) 
CCn1cc(-c2cnc3ccccn23)c(-c2c[nH+]c3ccccc3c2)n1 (protonated)
CCn1cc(-c2cnc3ccccn23)c(-c2c[nH+]c3ccccc3c2)n1 (3D coordinates assigned)
CCn1cc(-c2cnc3ccccn23)c(-c2c[nH+]c3ccccc3c2)n1 (optimized conformer: 122.017104324492 kcal/mol)

>  <smiles>  (26) 
CCn1cc(-c2cnc3ccccn23)c(-c2cnc3ccccc3c2)n1

>  <score_type>  (26) 
oracle

>  <origin>  (26) 
adg

>  <m_score__min__energy>  (26) 
-6.3700000000000001

>  <m_primary>  (26) 
energy

$$$$
27:0
     RDKit          3D

 47 49  0  0  0  0  0  0  0  0999 V2000
   67.4340   33.3870   50.5360 C   0  0  0  0  0  0  0  0  0  0  0  0
   66.2750   32.4520   50.8630 C   0  0  0  0  0  0  0  0  0  0  0  0
   65.0570   33.1850   50.9910 O   0  0  0  0  0  0  0  0  0  0  0  0
   64.1190   33.3160   49.9600 C   0  0  0  0  0  0  0  0  0  0  0  0
   64.5190   33.0910   48.6390 C   0  0  0  0  0  0  0  0  0  0  0  0
   63.5890   33.2210   47.6050 C   0  0  0  0  0  0  0  0  0  0  0  0
   62.2650   33.5720   47.8980 C   0  0  0  0  0  0  0  0  0  0  0  0
   61.3070   33.7070   46.8830 C   0  0  0  0  0  0  0  0  0  0  0  0
   59.9770   34.0390   47.2010 C   0  0  0  0  0  0  0  0  0  0  0  0
   58.9320   34.1810   46.1100 C   0  0  0  0  0  0  0  0  0  0  0  0
   58.9320   33.0810   45.1080 N   0  0  1  0  0  0  0  0  0  0  0  0
   59.2780   31.7510   45.6880 C   0  0  0  0  0  0  0  0  0  0  0  0
   58.0610   30.8220   45.8100 C   0  0  0  0  0  0  0  0  0  0  0  0
   57.4330   30.5500   44.4260 C   0  0  1  0  0  0  0  0  0  0  0  0
   56.0630   30.2350   44.6130 O   0  0  0  0  0  0  0  0  0  0  0  0
   55.4970   29.7360   43.4200 C   0  0  0  0  0  0  0  0  0  0  0  0
   57.5690   31.7700   43.4800 C   0  0  0  0  0  0  0  0  0  0  0  0
   57.7030   33.0770   44.2710 C   0  0  0  0  0  0  0  0  0  0  0  0
   59.6370   34.2900   48.5440 C   0  0  0  0  0  0  0  0  0  0  0  0
   60.5900   34.1580   49.5570 C   0  0  0  0  0  0  0  0  0  0  0  0
   61.9010   33.7950   49.2430 C   0  0  0  0  0  0  0  0  0  0  0  0
   62.8290   33.6630   50.2280 N   0  0  0  0  0  0  0  0  0  0  0  0
   67.8859   33.7515   51.4703 H   0  0  0  0  0  0  0  0  0  0  0  0
   68.1901   32.8430   49.9509 H   0  0  0  0  0  0  0  0  0  0  0  0
   67.0622   34.2411   49.9509 H   0  0  0  0  0  0  0  0  0  0  0  0
   66.1685   31.7126   50.0555 H   0  0  0  0  0  0  0  0  0  0  0  0
   66.4861   31.9469   51.8171 H   0  0  0  0  0  0  0  0  0  0  0  0
   65.5597   32.8133   48.4156 H   0  0  0  0  0  0  0  0  0  0  0  0
   63.8957   33.0481   46.5629 H   0  0  0  0  0  0  0  0  0  0  0  0
   61.5965   33.5526   45.8331 H   0  0  0  0  0  0  0  0  0  0  0  0
   57.9407   34.2122   46.5858 H   0  0  0  0  0  0  0  0  0  0  0  0
   59.1755   35.1031   45.5619 H   0  0  0  0  0  0  0  0  0  0  0  0
   59.7170   33.3170   44.4520 H   0  0  0  0  0  0  0  0  0  0  0  0
   59.7052   31.9046   46.6900 H   0  0  0  0  0  0  0  0  0  0  0  0
   59.9965   31.2693   45.0085 H   0  0  0  0  0  0  0  0  0  0  0  0
   57.3100   31.2960   46.4591 H   0  0  0  0  0  0  0  0  0  0  0  0
   58.3918   29.8649   46.2395 H   0  0  0  0  0  0  0  0  0  0  0  0
   57.9662   29.7119   43.9535 H   0  0  0  0  0  0  0  0  0  0  0  0
   54.6925   29.0267   43.6645 H   0  0  0  0  0  0  0  0  0  0  0  0
   55.0848   30.5699   42.8329 H   0  0  0  0  0  0  0  0  0  0  0  0
   56.2727   29.2225   42.8329 H   0  0  0  0  0  0  0  0  0  0  0  0
   56.6761   31.8285   42.8402 H   0  0  0  0  0  0  0  0  0  0  0  0
   58.4760   31.6380   42.8718 H   0  0  0  0  0  0  0  0  0  0  0  0
   56.8251   33.1919   44.9237 H   0  0  0  0  0  0  0  0  0  0  0  0
   57.7689   33.9097   43.5552 H   0  0  0  0  0  0  0  0  0  0  0  0
   58.6106   34.5931   48.7983 H   0  0  0  0  0  0  0  0  0  0  0  0
   60.3068   34.3405   50.6041 H   0  0  0  0  0  0  0  0  0  0  0  0
  1  2  1  0
  2  3  1  0
  3  4  1  0
  4  5  2  0
  5  6  1  0
  6  7  2  0
  7  8  1  0
  8  9  2  0
  9 10  1  0
 10 11  1  0
 11 12  1  0
 12 13  1  0
 13 14  1  0
 14 15  1  0
 15 16  1  0
 14 17  1  0
 17 18  1  0
  9 19  1  0
 19 20  2  0
 20 21  1  0
 21 22  2  0
 22  4  1  0
 21  7  1  0
 18 11  1  0
  1 23  1  0
  1 24  1  0
  1 25  1  0
  2 26  1  0
  2 27  1  0
  5 28  1  0
  6 29  1  0
  8 30  1  0
 10 31  1  0
 10 32  1  0
 11 33  1  6
 12 34  1  0
 12 35  1  0
 13 36  1  0
 13 37  1  0
 14 38  1  6
 16 39  1  0
 16 40  1  0
 16 41  1  0
 17 42  1  0
 17 43  1  0
 18 44  1  0
 18 45  1  0
 19 46  1  0
 20 47  1  0
M  CHG  1  11   1
M  END
>  <UniqueID>  (27) 
27

>  <SMILES>  (27) 
CCOc1ccc2cc(C[NH+]3CCC(OC)CC3)ccc2n1

>  <Energy>  (27) 
60.1872844154725

>  <Genealogy>  (27) 
CCOc1ccc2cc(C[NH+]3CCC(OC)CC3)ccc2n1 (protonated)
CCOc1ccc2cc(C[NH+]3CCC(OC)CC3)ccc2n1 (3D coordinates assigned)
CCOc1ccc2cc(C[NH+]3CCC(OC)CC3)ccc2n1 (nonaromatic ring conformer: 60.1872844154725 kcal/mol)

>  <smiles>  (27) 
CCOc1ccc2cc(CN3CCC(OC)CC3)ccc2n1

>  <score_type>  (27) 
oracle

>  <origin>  (27) 
adg

>  <m_score__min__energy>  (27) 
-5.7699999999999996

>  <m_primary>  (27) 
energy

$$$$
28:0
     RDKit          3D

 46 47  0  0  0  0  0  0  0  0999 V2000
   58.1420   27.0550   42.9050 C   0  0  0  0  0  0  0  0  0  0  0  0
   58.2960   27.6270   44.3100 C   0  0  0  0  0  0  0  0  0  0  0  0
   56.9780   27.8970   44.9110 N   0  0  0  0  0  0  0  0  0  0  0  0
   56.3000   26.8130   45.6410 C   0  0  0  0  0  0  0  0  0  0  0  0
   57.2600   26.1160   46.6040 C   0  0  0  0  0  0  0  0  0  0  0  0
   56.3270   29.1850   44.7800 C   0  0  0  0  0  0  0  0  0  0  0  0
   55.1470   29.3330   45.2010 O   0  0  0  0  0  0  0  0  0  0  0  0
   56.9980   30.3670   44.1300 C   0  0  0  0  0  0  0  0  0  0  0  0
   57.6110   31.2620   45.1350 N   0  0  0  0  0  0  0  0  0  0  0  0
   59.0570   31.0540   45.3930 C   0  0  0  0  0  0  0  0  0  0  0  0
   59.3490   30.1930   46.6000 C   0  0  0  0  0  0  0  0  0  0  0  0
   58.8610   30.5620   47.8670 C   0  0  0  0  0  0  0  0  0  0  0  0
   59.1060   29.7540   48.9810 C   0  0  0  0  0  0  0  0  0  0  0  0
   59.8330   28.5680   48.8390 C   0  0  0  0  0  0  0  0  0  0  0  0
   60.3040   28.1840   47.5820 C   0  0  0  0  0  0  0  0  0  0  0  0
   60.0570   28.9860   46.4640 C   0  0  0  0  0  0  0  0  0  0  0  0
   57.1750   32.6800   45.0920 C   0  0  0  0  0  0  0  0  0  0  0  0
   58.1350   33.6470   45.7410 C   0  0  0  0  0  0  0  0  0  0  0  0
   58.2710   33.8520   47.1100 C   0  0  0  0  0  0  0  0  0  0  0  0
   59.2370   34.8120   47.4350 C   0  0  0  0  0  0  0  0  0  0  0  0
   59.8680   35.3630   46.3280 C   0  0  0  0  0  0  0  0  0  0  0  0
   59.2220   34.6540   44.9480 S   0  0  0  0  0  0  0  0  0  0  0  0
   57.8565   25.9947   42.9700 H   0  0  0  0  0  0  0  0  0  0  0  0
   57.3619   27.6123   42.3657 H   0  0  0  0  0  0  0  0  0  0  0  0
   59.0964   27.1453   42.3657 H   0  0  0  0  0  0  0  0  0  0  0  0
   58.8371   26.9031   44.9370 H   0  0  0  0  0  0  0  0  0  0  0  0
   58.8558   28.5718   44.2472 H   0  0  0  0  0  0  0  0  0  0  0  0
   55.4604   27.2349   46.2129 H   0  0  0  0  0  0  0  0  0  0  0  0
   55.9373   26.0735   44.9119 H   0  0  0  0  0  0  0  0  0  0  0  0
   56.9615   26.3328   47.6403 H   0  0  0  0  0  0  0  0  0  0  0  0
   57.2271   25.0299   46.4325 H   0  0  0  0  0  0  0  0  0  0  0  0
   58.2825   26.4835   46.4325 H   0  0  0  0  0  0  0  0  0  0  0  0
   57.7821   30.0034   43.4495 H   0  0  0  0  0  0  0  0  0  0  0  0
   56.2354   30.9372   43.5793 H   0  0  0  0  0  0  0  0  0  0  0  0
   59.5001   30.5720   44.5091 H   0  0  0  0  0  0  0  0  0  0  0  0
   59.4893   32.0447   45.5971 H   0  0  0  0  0  0  0  0  0  0  0  0
   58.2836   31.4913   47.9815 H   0  0  0  0  0  0  0  0  0  0  0  0
   58.7267   30.0513   49.9698 H   0  0  0  0  0  0  0  0  0  0  0  0
   60.0338   27.9375   49.7177 H   0  0  0  0  0  0  0  0  0  0  0  0
   60.8709   27.2479   47.4711 H   0  0  0  0  0  0  0  0  0  0  0  0
   60.4181   28.6714   45.4737 H   0  0  0  0  0  0  0  0  0  0  0  0
   57.0535   32.9708   44.0381 H   0  0  0  0  0  0  0  0  0  0  0  0
   56.2368   32.7376   45.6634 H   0  0  0  0  0  0  0  0  0  0  0  0
   57.6779   33.3129   47.8633 H   0  0  0  0  0  0  0  0  0  0  0  0
   59.4735   35.1021   48.4694 H   0  0  0  0  0  0  0  0  0  0  0  0
   60.6550   36.1312   46.3503 H   0  0  0  0  0  0  0  0  0  0  0  0
  1  2  1  0
  2  3  1  0
  3  4  1  0
  4  5  1  0
  3  6  1  0
  6  7  2  0
  6  8  1  0
  8  9  1  0
  9 10  1  0
 10 11  1  0
 11 12  2  0
 12 13  1  0
 13 14  2  0
 14 15  1  0
 15 16  2  0
  9 17  1  0
 17 18  1  0
 18 19  2  0
 19 20  1  0
 20 21  2  0
 21 22  1  0
 16 11  1  0
 22 18  1  0
  1 23  1  0
  1 24  1  0
  1 25  1  0
  2 26  1  0
  2 27  1  0
  4 28  1  0
  4 29  1  0
  5 30  1  0
  5 31  1  0
  5 32  1  0
  8 33  1  0
  8 34  1  0
 10 35  1  0
 10 36  1  0
 12 37  1  0
 13 38  1  0
 14 39  1  0
 15 40  1  0
 16 41  1  0
 17 42  1  0
 17 43  1  0
 19 44  1  0
 20 45  1  0
 21 46  1  0
M  END
>  <UniqueID>  (28) 
28

>  <SMILES>  (28) 
CCN(CC)C(=O)CN(Cc1ccccc1)Cc1cccs1

>  <Energy>  (28) 
73.53193234513131

>  <Genealogy>  (28) 
CCN(CC)C(=O)CN(Cc1ccccc1)Cc1cccs1 (3D coordinates assigned)
CCN(CC)C(=O)CN(Cc1ccccc1)Cc1cccs1 (optimized conformer: 73.53193234513131 kcal/mol)

>  <smiles>  (28) 
CCN(CC)C(=O)CN(Cc1ccccc1)Cc1cccs1

>  <score_type>  (28) 
oracle

>  <origin>  (28) 
adg

>  <m_score__min__energy>  (28) 
-6.8200000000000003

>  <m_primary>  (28) 
energy

$$$$
29:0
     RDKit          3D

 58 61  0  0  0  0  0  0  0  0999 V2000
   63.3680   33.8420   46.3970 C   0  0  0  0  0  0  0  0  0  0  0  0
   63.2160   32.6670   47.3740 C   0  0  0  0  0  0  0  0  0  0  0  0
   63.6280   32.9650   48.7680 N   0  0  0  0  0  0  0  0  0  0  0  0
   63.4220   31.8180   49.6660 C   0  0  0  0  0  0  0  0  0  0  0  0
   63.0350   34.1950   49.3390 C   0  0  0  0  0  0  0  0  0  0  0  0
   62.2250   33.9100   50.6140 C   0  0  0  0  0  0  0  0  0  0  0  0
   60.8360   33.9240   50.3420 O   0  0  0  0  0  0  0  0  0  0  0  0
   60.1760   32.9000   51.0580 C   0  0  0  0  0  0  0  0  0  0  0  0
   59.9490   31.7050   50.1330 C   0  0  0  0  0  0  0  0  0  0  0  0
   60.5420   31.9440   48.8160 N   0  0  0  0  0  0  0  0  0  0  0  0
   59.7830   31.7490   47.6150 C   0  0  0  0  0  0  0  0  0  0  0  0
   59.3030   30.4860   47.2770 C   0  0  0  0  0  0  0  0  0  0  0  0
   58.6410   30.2790   46.0800 C   0  0  0  0  0  0  0  0  0  0  0  0
   58.5120   31.2730   45.1390 N   0  0  0  0  0  0  0  0  0  0  0  0
   58.1100   30.9410   43.7620 C   0  0  0  0  0  0  0  0  0  0  0  0
   58.8430   32.5680   45.5000 C   0  0  0  0  0  0  0  0  0  0  0  0
   58.5190   33.6760   44.6790 C   0  0  0  0  0  0  0  0  0  0  0  0
   58.8950   34.9710   45.0390 C   0  0  0  0  0  0  0  0  0  0  0  0
   59.5840   35.1990   46.2250 C   0  0  0  0  0  0  0  0  0  0  0  0
   59.8880   34.1370   47.0750 C   0  0  0  0  0  0  0  0  0  0  0  0
   59.5170   32.8200   46.7370 C   0  0  0  0  0  0  0  0  0  0  0  0
   58.2640   28.8610   46.0160 C   0  0  0  0  0  0  0  0  0  0  0  0
   57.4110   28.1630   45.1480 C   0  0  0  0  0  0  0  0  0  0  0  0
   57.1760   26.7990   45.3850 C   0  0  0  0  0  0  0  0  0  0  0  0
   57.7510   26.1610   46.4980 C   0  0  0  0  0  0  0  0  0  0  0  0
   58.5450   26.8870   47.3960 C   0  0  0  0  0  0  0  0  0  0  0  0
   58.7810   28.2390   47.1410 C   0  0  0  0  0  0  0  0  0  0  0  0
   59.4810   29.2050   48.0410 C   0  0  0  0  0  0  0  0  0  0  0  0
   63.4889   34.7769   46.9639 H   0  0  0  0  0  0  0  0  0  0  0  0
   64.2527   33.6801   45.7637 H   0  0  0  0  0  0  0  0  0  0  0  0
   62.4712   33.9106   45.7637 H   0  0  0  0  0  0  0  0  0  0  0  0
   62.1582   32.3655   47.3860 H   0  0  0  0  0  0  0  0  0  0  0  0
   63.8871   31.8734   47.0137 H   0  0  0  0  0  0  0  0  0  0  0  0
   63.4826   32.1552   50.7113 H   0  0  0  0  0  0  0  0  0  0  0  0
   62.4307   31.3794   49.4791 H   0  0  0  0  0  0  0  0  0  0  0  0
   64.1987   31.0618   49.4791 H   0  0  0  0  0  0  0  0  0  0  0  0
   63.8446   34.8984   49.5833 H   0  0  0  0  0  0  0  0  0  0  0  0
   62.3494   34.6189   48.5905 H   0  0  0  0  0  0  0  0  0  0  0  0
   62.5056   32.9212   51.0058 H   0  0  0  0  0  0  0  0  0  0  0  0
   62.4467   34.6928   51.3543 H   0  0  0  0  0  0  0  0  0  0  0  0
   60.7955   32.5909   51.9128 H   0  0  0  0  0  0  0  0  0  0  0  0
   59.2081   33.2714   51.4257 H   0  0  0  0  0  0  0  0  0  0  0  0
   60.4104   30.8116   50.5790 H   0  0  0  0  0  0  0  0  0  0  0  0
   58.8661   31.5569   50.0093 H   0  0  0  0  0  0  0  0  0  0  0  0
   61.4260   32.4980   48.7410 H   0  0  0  0  0  0  0  0  0  0  0  0
   57.2621   30.2407   43.7863 H   0  0  0  0  0  0  0  0  0  0  0  0
   57.8119   31.8596   43.2355 H   0  0  0  0  0  0  0  0  0  0  0  0
   58.9557   30.4746   43.2355 H   0  0  0  0  0  0  0  0  0  0  0  0
   57.9629   33.5134   43.7440 H   0  0  0  0  0  0  0  0  0  0  0  0
   58.6448   35.8160   44.3807 H   0  0  0  0  0  0  0  0  0  0  0  0
   59.8902   36.2209   46.4933 H   0  0  0  0  0  0  0  0  0  0  0  0
   60.4219   34.3284   48.0175 H   0  0  0  0  0  0  0  0  0  0  0  0
   56.9354   28.6744   44.2981 H   0  0  0  0  0  0  0  0  0  0  0  0
   56.5382   26.2263   44.6957 H   0  0  0  0  0  0  0  0  0  0  0  0
   57.5770   25.0877   46.6646 H   0  0  0  0  0  0  0  0  0  0  0  0
   58.9740   26.4009   48.2846 H   0  0  0  0  0  0  0  0  0  0  0  0
   59.0032   29.2547   49.0306 H   0  0  0  0  0  0  0  0  0  0  0  0
   60.5282   28.9471   48.2576 H   0  0  0  0  0  0  0  0  0  0  0  0
  1  2  1  0
  2  3  1  0
  3  4  1  0
  3  5  1  0
  5  6  1  0
  6  7  1  0
  7  8  1  0
  8  9  1  0
  9 10  1  0
 10 11  1  0
 11 12  2  0
 12 13  1  0
 13 14  2  0
 14 15  1  0
 14 16  1  0
 16 17  2  0
 17 18  1  0
 18 19  2  0
 19 20  1  0
 20 21  2  0
 13 22  1  0
 22 23  2  0
 23 24  1  0
 24 25  2  0
 25 26  1  0
 26 27  2  0
 27 28  1  0
 21 11  1  0
 27 22  1  0
 28 12  1  0
 21 16  1  0
  1 29  1  0
  1 30  1  0
  1 31  1  0
  2 32  1  0
  2 33  1  0
  4 34  1  0
  4 35  1  0
  4 36  1  0
  5 37  1  0
  5 38  1  0
  6 39  1  0
  6 40  1  0
  8 41  1  0
  8 42  1  0
  9 43  1  0
  9 44  1  0
 10 45  1  0
 15 46  1  0
 15 47  1  0
 15 48  1  0
 17 49  1  0
 18 50  1  0
 19 51  1  0
 20 52  1  0
 23 53  1  0
 24 54  1  0
 25 55  1  0
 26 56  1  0
 28 57  1  0
 28 58  1  0
M  CHG  1  14   1
M  END
>  <UniqueID>  (29) 
29

>  <SMILES>  (29) 
CCN(C)CCOCCNc1c2c([n+](C)c3ccccc13)-c1ccccc1C2

>  <Energy>  (29) 
104.44008264778513

>  <Genealogy>  (29) 
CCN(C)CCOCCNc1c2c([n+](C)c3ccccc13)-c1ccccc1C2 (3D coordinates assigned)
CCN(C)CCOCCNc1c2c([n+](C)c3ccccc13)-c1ccccc1C2 (nonaromatic ring conformer: 104.44008264778513 kcal/mol)

>  <smiles>  (29) 
CCN(C)CCOCCNc1c2c([n+](C)c3ccccc13)-c1ccccc1C2

>  <score_type>  (29) 
oracle

>  <origin>  (29) 
adg

>  <m_score__min__energy>  (29) 
-5.8899999999999997

>  <m_primary>  (29) 
energy

$$$$
