0:0
     RDKit          3D

 52 54  0  0  0  0  0  0  0  0999 V2000
   57.0270   33.8620   46.0120 C   0  0  0  0  0  0  0  0  0  0  0  0
   58.3180   33.3180   45.5620 N   0  0  0  0  0  0  0  0  0  0  0  0
   59.3070   34.4080   45.4810 C   0  0  0  0  0  0  0  0  0  0  0  0
   58.1610   32.6410   44.2550 C   0  0  0  0  0  0  0  0  0  0  0  0
   58.1280   31.1170   44.4210 C   0  0  0  0  0  0  0  0  0  0  0  0
   57.4860   30.7600   45.6940 N   0  0  0  0  0  0  0  0  0  0  0  0
   58.1870   29.6650   46.3850 C   0  0  0  0  0  0  0  0  0  0  0  0
   59.2770   30.1760   47.3450 C   0  0  0  0  0  0  0  0  0  0  0  0
   59.3270   31.6470   47.3410 N   0  0  0  0  0  0  0  0  0  0  0  0
   60.0780   32.1370   48.4870 C   0  0  0  0  0  0  0  0  0  0  0  0
   59.4570   32.2680   49.7580 C   0  0  0  0  0  0  0  0  0  0  0  0
   58.1380   31.8050   49.9940 C   0  0  0  0  0  0  0  0  0  0  0  0
   57.5040   32.0300   51.2130 C   0  0  0  0  0  0  0  0  0  0  0  0
   58.1590   32.7220   52.2200 C   0  0  0  0  0  0  0  0  0  0  0  0
   59.4720   33.1440   52.0360 C   0  0  0  0  0  0  0  0  0  0  0  0
   60.1700   32.8760   50.8300 C   0  0  0  0  0  0  0  0  0  0  0  0
   61.5040   33.2030   50.6850 N   0  0  0  0  0  0  0  0  0  0  0  0
   62.3130   33.5480   51.8780 C   0  0  0  0  0  0  0  0  0  0  0  0
   62.1020   33.1530   49.4420 C   0  0  0  0  0  0  0  0  0  0  0  0
   63.3930   33.7040   49.2220 C   0  0  0  0  0  0  0  0  0  0  0  0
   64.0380   33.5650   47.9960 C   0  0  0  0  0  0  0  0  0  0  0  0
   63.4220   32.8830   46.9600 C   0  0  0  0  0  0  0  0  0  0  0  0
   62.1320   32.3830   47.1220 C   0  0  0  0  0  0  0  0  0  0  0  0
   61.4280   32.5530   48.3410 C   0  0  0  0  0  0  0  0  0  0  0  0
   56.9976   33.8744   47.1115 H   0  0  0  0  0  0  0  0  0  0  0  0
   56.9079   34.8868   45.6304 H   0  0  0  0  0  0  0  0  0  0  0  0
   56.2104   33.2315   45.6304 H   0  0  0  0  0  0  0  0  0  0  0  0
   59.5913   34.7213   46.4964 H   0  0  0  0  0  0  0  0  0  0  0  0
   60.1990   34.0545   44.9431 H   0  0  0  0  0  0  0  0  0  0  0  0
   58.8687   35.2616   44.9431 H   0  0  0  0  0  0  0  0  0  0  0  0
   57.2206   32.9718   43.7901 H   0  0  0  0  0  0  0  0  0  0  0  0
   59.0204   32.9040   43.6208 H   0  0  0  0  0  0  0  0  0  0  0  0
   57.5599   30.6730   43.5902 H   0  0  0  0  0  0  0  0  0  0  0  0
   59.1587   30.7327   44.4181 H   0  0  0  0  0  0  0  0  0  0  0  0
   57.4600   31.6020   46.3160 H   0  0  0  0  0  0  0  0  0  0  0  0
   57.4523   29.0846   46.9623 H   0  0  0  0  0  0  0  0  0  0  0  0
   58.6788   29.0471   45.6193 H   0  0  0  0  0  0  0  0  0  0  0  0
   59.0543   29.8252   48.3635 H   0  0  0  0  0  0  0  0  0  0  0  0
   60.2511   29.7885   47.0119 H   0  0  0  0  0  0  0  0  0  0  0  0
   59.7350   31.9980   46.4470 H   0  0  0  0  0  0  0  0  0  0  0  0
   58.3610   32.0430   47.3240 H   0  0  0  0  0  0  0  0  0  0  0  0
   57.6065   31.2588   49.2007 H   0  0  0  0  0  0  0  0  0  0  0  0
   56.4819   31.6581   51.3773 H   0  0  0  0  0  0  0  0  0  0  0  0
   57.6401   32.9377   53.1656 H   0  0  0  0  0  0  0  0  0  0  0  0
   59.9788   33.6962   52.8411 H   0  0  0  0  0  0  0  0  0  0  0  0
   61.7453   33.3059   52.7885 H   0  0  0  0  0  0  0  0  0  0  0  0
   63.2494   32.9709   51.8654 H   0  0  0  0  0  0  0  0  0  0  0  0
   62.5448   34.6232   51.8654 H   0  0  0  0  0  0  0  0  0  0  0  0
   63.8923   34.2507   50.0356 H   0  0  0  0  0  0  0  0  0  0  0  0
   65.0387   33.9977   47.8500 H   0  0  0  0  0  0  0  0  0  0  0  0
   63.9523   32.7359   46.0076 H   0  0  0  0  0  0  0  0  0  0  0  0
   61.6513   31.8472   46.2902 H   0  0  0  0  0  0  0  0  0  0  0  0
  1  2  1  0
  2  3  1  0
  2  4  1  0
  4  5  1  0
  5  6  1  0
  6  7  1  0
  7  8  1  0
  8  9  1  0
  9 10  1  0
 10 11  2  0
 11 12  1  0
 12 13  2  0
 13 14  1  0
 14 15  2  0
 15 16  1  0
 16 17  2  0
 17 18  1  0
 17 19  1  0
 19 20  2  0
 20 21  1  0
 21 22  2  0
 22 23  1  0
 23 24  2  0
 24 10  1  0
 16 11  1  0
 24 19  1  0
  1 25  1  0
  1 26  1  0
  1 27  1  0
  3 28  1  0
  3 29  1  0
  3 30  1  0
  4 31  1  0
  4 32  1  0
  5 33  1  0
  5 34  1  0
  6 35  1  0
  7 36  1  0
  7 37  1  0
  8 38  1  0
  8 39  1  0
  9 40  1  0
  9 41  1  0
 12 42  1  0
 13 43  1  0
 14 44  1  0
 15 45  1  0
 18 46  1  0
 18 47  1  0
 18 48  1  0
 20 49  1  0
 21 50  1  0
 22 51  1  0
 23 52  1  0
M  CHG  2   9   1  17   1
M  END
>  <UniqueID>  (1) 
1

>  <SMILES>  (1) 
CN(C)CCNCC[NH2+]c1c2ccccc2[n+](C)c2ccccc12

>  <Energy>  (1) 
79.44984764145846

>  <Genealogy>  (1) 
CN(C)CCNCC[NH2+]c1c2ccccc2[n+](C)c2ccccc12 (protonated)
CN(C)CCNCC[NH2+]c1c2ccccc2[n+](C)c2ccccc12 (3D coordinates assigned)
CN(C)CCNCC[NH2+]c1c2ccccc2[n+](C)c2ccccc12 (optimized conformer: 79.44984764145846 kcal/mol)

>  <smiles>  (1) 
CN(C)CCNCCNc1c2ccccc2[n+](C)c2ccccc12

>  <score_type>  (1) 
oracle

>  <origin>  (1) 
adg

>  <m_score__min__energy>  (1) 
-3.3199999999999998

>  <m_primary>  (1) 
energy

$$$$
1:0
     RDKit          3D

 62 64  0  0  0  0  0  0  0  0999 V2000
   58.1450   27.0780   43.0120 C   0  0  0  0  0  0  0  0  0  0  0  0
   59.2490   27.7810   43.7980 C   0  0  0  0  0  0  0  0  0  0  0  0
   59.4940   27.1170   45.0930 N   0  0  0  0  0  0  0  0  0  0  0  0
   60.5910   27.7690   45.8510 C   0  0  0  0  0  0  0  0  0  0  0  0
   60.8600   29.2030   45.3890 C   0  0  0  0  0  0  0  0  0  0  0  0
   58.2350   26.9080   45.8560 C   0  0  0  0  0  0  0  0  0  0  0  0
   57.2800   28.1290   45.9240 C   0  0  0  0  0  0  0  0  0  0  0  0
   57.7710   29.2230   46.7800 N   0  0  0  0  0  0  0  0  0  0  0  0
   58.0090   30.5700   46.3240 C   0  0  0  0  0  0  0  0  0  0  0  0
   57.4780   31.0560   45.1160 C   0  0  0  0  0  0  0  0  0  0  0  0
   58.0300   32.2140   44.5250 C   0  0  0  0  0  0  0  0  0  0  0  0
   58.9100   33.0170   45.2300 N   0  0  0  0  0  0  0  0  0  0  0  0
   59.4110   34.2480   44.5930 C   0  0  0  0  0  0  0  0  0  0  0  0
   59.3210   32.6140   46.4890 C   0  0  0  0  0  0  0  0  0  0  0  0
   58.8750   31.4160   47.0240 C   0  0  0  0  0  0  0  0  0  0  0  0
   59.5010   31.1980   48.3110 C   0  0  0  0  0  0  0  0  0  0  0  0
   59.2480   30.2440   49.0930 O   0  0  0  0  0  0  0  0  0  0  0  0
   60.4760   32.2640   48.6180 C   0  0  0  0  0  0  0  0  0  0  0  0
   60.3220   33.2920   47.4450 C   0  0  2  0  0  0  0  0  0  0  0  0
   59.7280   34.5900   48.0460 C   0  0  0  0  0  0  0  0  0  0  0  0
   61.7210   33.5660   46.8080 C   0  0  0  0  0  0  0  0  0  0  0  0
   62.8560   32.7140   47.3910 C   0  0  0  0  0  0  0  0  0  0  0  0
   57.5810   32.5260   43.1000 C   0  0  0  0  0  0  0  0  0  0  0  0
   57.4020   31.2290   42.2850 C   0  0  0  0  0  0  0  0  0  0  0  0
   56.5210   30.1650   42.9830 C   0  0  0  0  0  0  0  0  0  0  0  0
   56.2500   30.4740   44.4610 C   0  0  0  0  0  0  0  0  0  0  0  0
   57.4295   26.6224   43.7123 H   0  0  0  0  0  0  0  0  0  0  0  0
   57.6226   27.8101   42.3787 H   0  0  0  0  0  0  0  0  0  0  0  0
   58.5875   26.2950   42.3787 H   0  0  0  0  0  0  0  0  0  0  0  0
   60.1760   27.7643   43.2061 H   0  0  0  0  0  0  0  0  0  0  0  0
   58.9298   28.8153   43.9940 H   0  0  0  0  0  0  0  0  0  0  0  0
   60.3188   27.7882   46.9166 H   0  0  0  0  0  0  0  0  0  0  0  0
   61.5074   27.1867   45.6745 H   0  0  0  0  0  0  0  0  0  0  0  0
   60.9822   29.8543   46.2670 H   0  0  0  0  0  0  0  0  0  0  0  0
   61.7783   29.2271   44.7840 H   0  0  0  0  0  0  0  0  0  0  0  0
   60.0128   29.5583   44.7840 H   0  0  0  0  0  0  0  0  0  0  0  0
   57.6886   26.0771   45.3858 H   0  0  0  0  0  0  0  0  0  0  0  0
   58.5421   26.7089   46.8933 H   0  0  0  0  0  0  0  0  0  0  0  0
   57.1449   28.5204   44.9049 H   0  0  0  0  0  0  0  0  0  0  0  0
   56.3383   27.7739   46.3679 H   0  0  0  0  0  0  0  0  0  0  0  0
   58.0740   28.9650   47.7440 H   0  0  0  0  0  0  0  0  0  0  0  0
   59.7046   34.9694   45.3697 H   0  0  0  0  0  0  0  0  0  0  0  0
   60.2830   34.0081   43.9669 H   0  0  0  0  0  0  0  0  0  0  0  0
   58.6193   34.6852   43.9669 H   0  0  0  0  0  0  0  0  0  0  0  0
   60.2420   32.7379   49.5827 H   0  0  0  0  0  0  0  0  0  0  0  0
   61.5027   31.8781   48.7018 H   0  0  0  0  0  0  0  0  0  0  0  0
   59.7548   34.5314   49.1441 H   0  0  0  0  0  0  0  0  0  0  0  0
   60.3203   35.4540   47.7104 H   0  0  0  0  0  0  0  0  0  0  0  0
   58.6870   34.7065   47.7104 H   0  0  0  0  0  0  0  0  0  0  0  0
   61.6549   33.3608   45.7293 H   0  0  0  0  0  0  0  0  0  0  0  0
   61.9683   34.6149   47.0283 H   0  0  0  0  0  0  0  0  0  0  0  0
   62.8121   32.7470   48.4896 H   0  0  0  0  0  0  0  0  0  0  0  0
   62.7456   31.6738   47.0507 H   0  0  0  0  0  0  0  0  0  0  0  0
   63.8240   33.1104   47.0507 H   0  0  0  0  0  0  0  0  0  0  0  0
   56.6230   33.0656   43.1339 H   0  0  0  0  0  0  0  0  0  0  0  0
   58.3516   33.1432   42.6150 H   0  0  0  0  0  0  0  0  0  0  0  0
   56.9363   31.4866   41.3223 H   0  0  0  0  0  0  0  0  0  0  0  0
   58.4021   30.7866   42.1660 H   0  0  0  0  0  0  0  0  0  0  0  0
   55.5572   30.1097   42.4558 H   0  0  0  0  0  0  0  0  0  0  0  0
   57.0702   29.2127   42.9454 H   0  0  0  0  0  0  0  0  0  0  0  0
   55.4245   31.1973   44.5336 H   0  0  0  0  0  0  0  0  0  0  0  0
   55.9833   29.5390   44.9755 H   0  0  0  0  0  0  0  0  0  0  0  0
  1  2  1  0
  2  3  1  0
  3  4  1  0
  4  5  1  0
  3  6  1  0
  6  7  1  0
  7  8  1  0
  8  9  1  0
  9 10  2  0
 10 11  1  0
 11 12  2  0
 12 13  1  0
 12 14  1  0
 14 15  2  0
 15 16  1  0
 16 17  2  0
 16 18  1  0
 18 19  1  0
 19 20  1  1
 19 21  1  0
 21 22  1  0
 11 23  1  0
 23 24  1  0
 24 25  1  0
 25 26  1  0
 15  9  1  0
 26 10  1  0
 19 14  1  0
  1 27  1  0
  1 28  1  0
  1 29  1  0
  2 30  1  0
  2 31  1  0
  4 32  1  0
  4 33  1  0
  5 34  1  0
  5 35  1  0
  5 36  1  0
  6 37  1  0
  6 38  1  0
  7 39  1  0
  7 40  1  0
  8 41  1  0
 13 42  1  0
 13 43  1  0
 13 44  1  0
 18 45  1  0
 18 46  1  0
 20 47  1  0
 20 48  1  0
 20 49  1  0
 21 50  1  0
 21 51  1  0
 22 52  1  0
 22 53  1  0
 22 54  1  0
 23 55  1  0
 23 56  1  0
 24 57  1  0
 24 58  1  0
 25 59  1  0
 25 60  1  0
 26 61  1  0
 26 62  1  0
M  CHG  1  12   1
M  END
>  <UniqueID>  (2) 
2

>  <SMILES>  (2) 
CCN(CC)CCNc1c2c([n+](C)c3c1C(=O)C[C@@]3(C)CC)CCCC2

>  <Energy>  (2) 
100.72345992381614

>  <Genealogy>  (2) 
CCN(CC)CCNc1c2c([n+](C)c3c1C(=O)C[C@@]3(C)CC)CCCC2 (chirality)
CCN(CC)CCNc1c2c([n+](C)c3c1C(=O)C[C@@]3(C)CC)CCCC2 (3D coordinates assigned)
CCN(CC)CCNc1c2c([n+](C)c3c1C(=O)C[C@@]3(C)CC)CCCC2 (nonaromatic ring conformer: 100.72345992381614 kcal/mol)

>  <smiles>  (2) 
CCN(CC)CCNc1c2c([n+](C)c3c1C(=O)CC3(C)CC)CCCC2

>  <score_type>  (2) 
oracle

>  <origin>  (2) 
adg

>  <m_score__min__energy>  (2) 
-5.8899999999999997

>  <m_primary>  (2) 
energy

$$$$
2:0
     RDKit          3D

 51 53  0  0  0  0  0  0  0  0999 V2000
   63.0610   33.8420   46.5820 C   0  0  0  0  0  0  0  0  0  0  0  0
   63.7530   32.5900   47.1370 C   0  0  0  0  0  0  0  0  0  0  0  0
   63.3690   32.2930   48.5410 N   0  0  1  0  0  0  0  0  0  0  0  0
   64.1620   33.1040   49.4880 C   0  0  0  0  0  0  0  0  0  0  0  0
   61.9250   32.5450   48.7900 C   0  0  0  0  0  0  0  0  0  0  0  0
   61.0110   31.3250   48.5660 C   0  0  0  0  0  0  0  0  0  0  0  0
   61.0270   30.8660   47.1740 N   0  0  0  0  0  0  0  0  0  0  0  0
   59.8230   30.7430   46.3880 C   0  0  0  0  0  0  0  0  0  0  0  0
   59.2210   31.8840   45.8210 C   0  0  0  0  0  0  0  0  0  0  0  0
   58.1670   31.7360   44.9030 C   0  0  0  0  0  0  0  0  0  0  0  0
   57.5860   30.5040   44.6900 N   0  0  0  0  0  0  0  0  0  0  0  0
   56.3060   30.4210   43.9570 C   0  0  0  0  0  0  0  0  0  0  0  0
   58.1800   29.3650   45.2040 C   0  0  0  0  0  0  0  0  0  0  0  0
   57.7500   28.0670   44.8260 C   0  0  0  0  0  0  0  0  0  0  0  0
   58.3180   26.9250   45.3920 C   0  0  0  0  0  0  0  0  0  0  0  0
   57.7170   25.1910   44.8590 Br  0  0  0  0  0  0  0  0  0  0  0  0
   59.3220   27.0460   46.3450 C   0  0  0  0  0  0  0  0  0  0  0  0
   59.7960   28.3040   46.7040 C   0  0  0  0  0  0  0  0  0  0  0  0
   59.2730   29.4740   46.1110 C   0  0  0  0  0  0  0  0  0  0  0  0
   57.7770   32.9900   44.1350 C   0  0  0  0  0  0  0  0  0  0  0  0
   57.4750   34.1520   45.0950 C   0  0  0  0  0  0  0  0  0  0  0  0
   58.4230   34.2100   46.3170 C   0  0  0  0  0  0  0  0  0  0  0  0
   59.6490   33.2920   46.1890 C   0  0  0  0  0  0  0  0  0  0  0  0
   62.7142   34.4695   47.4162 H   0  0  0  0  0  0  0  0  0  0  0  0
   63.7724   34.4115   45.9659 H   0  0  0  0  0  0  0  0  0  0  0  0
   62.2003   33.5426   45.9659 H   0  0  0  0  0  0  0  0  0  0  0  0
   63.4793   31.7297   46.5085 H   0  0  0  0  0  0  0  0  0  0  0  0
   64.8368   32.7778   47.1233 H   0  0  0  0  0  0  0  0  0  0  0  0
   63.5720   31.2920   48.7480 H   0  0  0  0  0  0  0  0  0  0  0  0
   63.8941   32.8300   50.5191 H   0  0  0  0  0  0  0  0  0  0  0  0
   65.2333   32.9149   49.3249 H   0  0  0  0  0  0  0  0  0  0  0  0
   63.9490   34.1708   49.3249 H   0  0  0  0  0  0  0  0  0  0  0  0
   61.8093   32.8729   49.8336 H   0  0  0  0  0  0  0  0  0  0  0  0
   61.6119   33.3062   48.0602 H   0  0  0  0  0  0  0  0  0  0  0  0
   61.3524   30.5037   49.2132 H   0  0  0  0  0  0  0  0  0  0  0  0
   59.9815   31.6267   48.8090 H   0  0  0  0  0  0  0  0  0  0  0  0
   61.9540   30.6870   46.7260 H   0  0  0  0  0  0  0  0  0  0  0  0
   55.4748   30.3671   44.6755 H   0  0  0  0  0  0  0  0  0  0  0  0
   56.1869   31.3133   43.3249 H   0  0  0  0  0  0  0  0  0  0  0  0
   56.3032   29.5208   43.3249 H   0  0  0  0  0  0  0  0  0  0  0  0
   56.9549   27.9589   44.0736 H   0  0  0  0  0  0  0  0  0  0  0  0
   59.7428   26.1457   46.8165 H   0  0  0  0  0  0  0  0  0  0  0  0
   60.5898   28.3883   47.4608 H   0  0  0  0  0  0  0  0  0  0  0  0
   58.6057   33.2777   43.4713 H   0  0  0  0  0  0  0  0  0  0  0  0
   56.8712   32.7748   43.5492 H   0  0  0  0  0  0  0  0  0  0  0  0
   57.5678   35.0960   44.5380 H   0  0  0  0  0  0  0  0  0  0  0  0
   56.4582   33.9929   45.4834 H   0  0  0  0  0  0  0  0  0  0  0  0
   58.7748   35.2455   46.4353 H   0  0  0  0  0  0  0  0  0  0  0  0
   57.8484   33.8612   47.1877 H   0  0  0  0  0  0  0  0  0  0  0  0
   60.3151   33.6843   45.4064 H   0  0  0  0  0  0  0  0  0  0  0  0
   60.1750   33.2635   47.1547 H   0  0  0  0  0  0  0  0  0  0  0  0
  1  2  1  0
  2  3  1  0
  3  4  1  0
  3  5  1  0
  5  6  1  0
  6  7  1  0
  7  8  1  0
  8  9  2  0
  9 10  1  0
 10 11  2  0
 11 12  1  0
 11 13  1  0
 13 14  2  0
 14 15  1  0
 15 16  1  0
 15 17  2  0
 17 18  1  0
 18 19  2  0
 10 20  1  0
 20 21  1  0
 21 22  1  0
 22 23  1  0
 19  8  1  0
 23  9  1  0
 19 13  1  0
  1 24  1  0
  1 25  1  0
  1 26  1  0
  2 27  1  0
  2 28  1  0
  3 29  1  1
  4 30  1  0
  4 31  1  0
  4 32  1  0
  5 33  1  0
  5 34  1  0
  6 35  1  0
  6 36  1  0
  7 37  1  0
 12 38  1  0
 12 39  1  0
 12 40  1  0
 14 41  1  0
 17 42  1  0
 18 43  1  0
 20 44  1  0
 20 45  1  0
 21 46  1  0
 21 47  1  0
 22 48  1  0
 22 49  1  0
 23 50  1  0
 23 51  1  0
M  CHG  2   3   1  11   1
M  END
>  <UniqueID>  (3) 
3

>  <SMILES>  (3) 
CC[N@@H+](C)CCNc1c2c([n+](C)c3cc(Br)ccc13)CCCC2

>  <Energy>  (3) 
78.80950459778855

>  <Genealogy>  (3) 
CC[NH+](C)CCNc1c2c([n+](C)c3cc(Br)ccc13)CCCC2 (protonated)
CC[N@@H+](C)CCNc1c2c([n+](C)c3cc(Br)ccc13)CCCC2 (chirality)
CC[N@@H+](C)CCNc1c2c([n+](C)c3cc(Br)ccc13)CCCC2 (3D coordinates assigned)
CC[N@@H+](C)CCNc1c2c([n+](C)c3cc(Br)ccc13)CCCC2 (nonaromatic ring conformer: 78.80950459778855 kcal/mol)

>  <smiles>  (3) 
CCN(C)CCNc1c2c([n+](C)c3cc(Br)ccc13)CCCC2

>  <score_type>  (3) 
oracle

>  <origin>  (3) 
adg

>  <m_score__min__energy>  (3) 
-5.1799999999999997

>  <m_primary>  (3) 
energy

$$$$
3:0
     RDKit          3D

 40 41  0  0  0  0  0  0  0  0999 V2000
   57.6050   27.2880   45.3710 C   0  0  0  0  0  0  0  0  0  0  0  0
   58.3260   27.6350   44.0690 C   0  0  0  0  0  0  0  0  0  0  0  0
   57.3990   28.2470   43.1030 N   0  0  0  0  0  0  0  0  0  0  0  0
   56.6540   29.3850   43.6730 C   0  0  0  0  0  0  0  0  0  0  0  0
   57.5710   30.4720   44.2540 C   0  0  0  0  0  0  0  0  0  0  0  0
   56.7910   31.4930   44.8420 O   0  0  0  0  0  0  0  0  0  0  0  0
   57.3200   32.7760   44.5460 C   0  0  2  0  0  0  0  0  0  0  0  0
   58.1410   32.7110   43.2550 C   0  0  0  0  0  0  0  0  0  0  0  0
   58.2080   33.2180   45.6890 C   0  0  0  0  0  0  0  0  0  0  0  0
   59.0790   34.3120   45.5330 C   0  0  0  0  0  0  0  0  0  0  0  0
   59.8800   34.7410   46.5940 C   0  0  0  0  0  0  0  0  0  0  0  0
   59.8160   34.0900   47.8340 C   0  0  0  0  0  0  0  0  0  0  0  0
   60.6150   34.5140   48.9070 C   0  0  0  0  0  0  0  0  0  0  0  0
   60.5380   33.8600   50.1400 C   0  0  0  0  0  0  0  0  0  0  0  0
   59.6650   32.7830   50.3120 C   0  0  0  0  0  0  0  0  0  0  0  0
   58.8650   32.3510   49.2500 C   0  0  0  0  0  0  0  0  0  0  0  0
   58.9320   32.9980   48.0060 C   0  0  0  0  0  0  0  0  0  0  0  0
   58.1330   32.5730   46.9350 C   0  0  0  0  0  0  0  0  0  0  0  0
   58.2282   27.5879   46.2264 H   0  0  0  0  0  0  0  0  0  0  0  0
   56.6444   27.8225   45.4119 H   0  0  0  0  0  0  0  0  0  0  0  0
   57.4234   26.2039   45.4119 H   0  0  0  0  0  0  0  0  0  0  0  0
   59.1398   28.3427   44.2854 H   0  0  0  0  0  0  0  0  0  0  0  0
   58.7285   26.7091   43.6322 H   0  0  0  0  0  0  0  0  0  0  0  0
   56.6960   27.5280   42.8070 H   0  0  0  0  0  0  0  0  0  0  0  0
   57.9250   28.5540   42.2520 H   0  0  0  0  0  0  0  0  0  0  0  0
   56.0379   29.8334   42.8796 H   0  0  0  0  0  0  0  0  0  0  0  0
   56.0404   28.9961   44.4990 H   0  0  0  0  0  0  0  0  0  0  0  0
   58.2259   30.0272   45.0177 H   0  0  0  0  0  0  0  0  0  0  0  0
   58.1817   30.9015   43.4462 H   0  0  0  0  0  0  0  0  0  0  0  0
   56.4972   33.4940   44.4135 H   0  0  0  0  0  0  0  0  0  0  0  0
   59.2092   32.6264   43.5036 H   0  0  0  0  0  0  0  0  0  0  0  0
   57.8309   31.8346   42.6670 H   0  0  0  0  0  0  0  0  0  0  0  0
   57.9727   33.6253   42.6670 H   0  0  0  0  0  0  0  0  0  0  0  0
   59.1297   34.8344   44.5663 H   0  0  0  0  0  0  0  0  0  0  0  0
   60.5630   35.5922   46.4562 H   0  0  0  0  0  0  0  0  0  0  0  0
   61.3030   35.3624   48.7775 H   0  0  0  0  0  0  0  0  0  0  0  0
   61.1671   34.1946   50.9780 H   0  0  0  0  0  0  0  0  0  0  0  0
   59.6069   32.2737   51.2853 H   0  0  0  0  0  0  0  0  0  0  0  0
   58.1807   31.5012   49.3897 H   0  0  0  0  0  0  0  0  0  0  0  0
   57.4421   31.7280   47.0714 H   0  0  0  0  0  0  0  0  0  0  0  0
  1  2  1  0
  2  3  1  0
  3  4  1  0
  4  5  1  0
  5  6  1  0
  6  7  1  0
  7  8  1  0
  7  9  1  0
  9 10  2  0
 10 11  1  0
 11 12  2  0
 12 13  1  0
 13 14  2  0
 14 15  1  0
 15 16  2  0
 16 17  1  0
 17 18  2  0
 18  9  1  0
 17 12  1  0
  1 19  1  0
  1 20  1  0
  1 21  1  0
  2 22  1  0
  2 23  1  0
  3 24  1  0
  3 25  1  0
  4 26  1  0
  4 27  1  0
  5 28  1  0
  5 29  1  0
  7 30  1  6
  8 31  1  0
  8 32  1  0
  8 33  1  0
 10 34  1  0
 11 35  1  0
 13 36  1  0
 14 37  1  0
 15 38  1  0
 16 39  1  0
 18 40  1  0
M  CHG  1   3   1
M  END
>  <UniqueID>  (4) 
4

>  <SMILES>  (4) 
CC[NH2+]CCO[C@H](C)c1ccc2ccccc2c1

>  <Energy>  (4) 
39.41782842705975

>  <Genealogy>  (4) 
CC[NH2+]CCOC(C)c1ccc2ccccc2c1 (protonated)
CC[NH2+]CCO[C@H](C)c1ccc2ccccc2c1 (chirality)
CC[NH2+]CCO[C@H](C)c1ccc2ccccc2c1 (3D coordinates assigned)
CC[NH2+]CCO[C@H](C)c1ccc2ccccc2c1 (optimized conformer: 39.41782842705975 kcal/mol)

>  <smiles>  (4) 
CCNCCOC(C)c1ccc2ccccc2c1

>  <score_type>  (4) 
oracle

>  <origin>  (4) 
adg

>  <m_score__min__energy>  (4) 
-5.6600000000000001

>  <m_primary>  (4) 
energy

$$$$
4:0
     RDKit          3D

 66 68  0  0  0  0  0  0  0  0999 V2000
   60.7650   28.7440   45.4060 C   0  0  0  0  0  0  0  0  0  0  0  0
   60.4770   29.9090   46.3540 C   0  0  0  0  0  0  0  0  0  0  0  0
   59.2780   29.6410   47.1820 N   0  0  0  0  0  0  0  0  0  0  0  0
   59.6760   29.1120   48.5040 C   0  0  0  0  0  0  0  0  0  0  0  0
   58.3780   28.6850   46.4930 C   0  0  0  0  0  0  0  0  0  0  0  0
   57.3510   29.4000   45.6000 C   0  0  0  0  0  0  0  0  0  0  0  0
   57.9440   29.8270   44.2520 C   0  0  0  0  0  0  0  0  0  0  0  0
   56.9560   30.6910   43.4510 C   0  0  0  0  0  0  0  0  0  0  0  0
   57.4060   32.1010   43.3820 N   0  0  0  0  0  0  0  0  0  0  0  0
   58.1220   32.3360   42.1150 C   0  0  0  0  0  0  0  0  0  0  0  0
   58.2580   32.4660   44.5400 C   0  0  0  0  0  0  0  0  0  0  0  0
   57.6830   33.6900   45.2710 C   0  0  0  0  0  0  0  0  0  0  0  0
   58.0730   33.7660   46.7630 C   0  0  0  0  0  0  0  0  0  0  0  0
   58.7700   32.5580   47.2200 N   0  0  0  0  0  0  0  0  0  0  0  0
   59.7890   32.5980   48.2370 C   0  0  0  0  0  0  0  0  0  0  0  0
   59.4660   32.3070   49.5750 C   0  0  0  0  0  0  0  0  0  0  0  0
   58.1230   32.2050   49.9920 C   0  0  0  0  0  0  0  0  0  0  0  0
   57.8100   31.9420   51.3230 C   0  0  0  0  0  0  0  0  0  0  0  0
   58.8240   31.7660   52.2570 C   0  0  0  0  0  0  0  0  0  0  0  0
   60.1600   31.8530   51.8660 C   0  0  0  0  0  0  0  0  0  0  0  0
   60.5120   32.1090   50.5170 C   0  0  0  0  0  0  0  0  0  0  0  0
   61.8290   32.1640   50.1070 N   0  0  0  0  0  0  0  0  0  0  0  0
   62.9010   31.6340   50.9780 C   0  0  0  0  0  0  0  0  0  0  0  0
   62.1420   32.7070   48.8750 C   0  0  0  0  0  0  0  0  0  0  0  0
   63.4670   33.0880   48.5440 C   0  0  0  0  0  0  0  0  0  0  0  0
   63.7640   33.6460   47.3000 C   0  0  0  0  0  0  0  0  0  0  0  0
   62.7540   33.8620   46.3700 C   0  0  0  0  0  0  0  0  0  0  0  0
   61.4370   33.5270   46.6780 C   0  0  0  0  0  0  0  0  0  0  0  0
   61.1170   32.9290   47.9150 C   0  0  0  0  0  0  0  0  0  0  0  0
   60.9883   27.8406   45.9925 H   0  0  0  0  0  0  0  0  0  0  0  0
   59.8850   28.5612   44.7718 H   0  0  0  0  0  0  0  0  0  0  0  0
   61.6288   28.9923   44.7718 H   0  0  0  0  0  0  0  0  0  0  0  0
   61.3439   30.0568   47.0148 H   0  0  0  0  0  0  0  0  0  0  0  0
   60.2906   30.8106   45.7520 H   0  0  0  0  0  0  0  0  0  0  0  0
   59.2172   29.7218   49.2962 H   0  0  0  0  0  0  0  0  0  0  0  0
   59.3358   28.0703   48.5997 H   0  0  0  0  0  0  0  0  0  0  0  0
   60.7712   29.1503   48.5997 H   0  0  0  0  0  0  0  0  0  0  0  0
   58.9851   28.0135   45.8681 H   0  0  0  0  0  0  0  0  0  0  0  0
   57.8266   28.1240   47.2619 H   0  0  0  0  0  0  0  0  0  0  0  0
   56.5084   28.7176   45.4148 H   0  0  0  0  0  0  0  0  0  0  0  0
   57.0255   30.3096   46.1260 H   0  0  0  0  0  0  0  0  0  0  0  0
   58.8612   30.4068   44.4324 H   0  0  0  0  0  0  0  0  0  0  0  0
   58.1625   28.9207   43.6681 H   0  0  0  0  0  0  0  0  0  0  0  0
   56.8760   30.2902   42.4298 H   0  0  0  0  0  0  0  0  0  0  0  0
   55.9803   30.6627   43.9581 H   0  0  0  0  0  0  0  0  0  0  0  0
   59.1470   32.6724   42.3300 H   0  0  0  0  0  0  0  0  0  0  0  0
   58.1567   31.4021   41.5348 H   0  0  0  0  0  0  0  0  0  0  0  0
   57.5966   33.1088   41.5348 H   0  0  0  0  0  0  0  0  0  0  0  0
   58.3030   31.6166   45.2375 H   0  0  0  0  0  0  0  0  0  0  0  0
   59.2659   32.7125   44.1747 H   0  0  0  0  0  0  0  0  0  0  0  0
   58.0509   34.5975   44.7699 H   0  0  0  0  0  0  0  0  0  0  0  0
   56.5873   33.6011   45.2308 H   0  0  0  0  0  0  0  0  0  0  0  0
   58.7335   34.6329   46.9120 H   0  0  0  0  0  0  0  0  0  0  0  0
   57.1463   33.8608   47.3481 H   0  0  0  0  0  0  0  0  0  0  0  0
   58.5280   31.6410   46.7800 H   0  0  0  0  0  0  0  0  0  0  0  0
   57.3140   32.3346   49.2581 H   0  0  0  0  0  0  0  0  0  0  0  0
   56.7577   31.8734   51.6360 H   0  0  0  0  0  0  0  0  0  0  0  0
   58.5723   31.5575   53.3073 H   0  0  0  0  0  0  0  0  0  0  0  0
   60.9532   31.7208   52.6165 H   0  0  0  0  0  0  0  0  0  0  0  0
   62.6193   31.7732   52.0322 H   0  0  0  0  0  0  0  0  0  0  0  0
   63.0423   30.5622   50.7747 H   0  0  0  0  0  0  0  0  0  0  0  0
   63.8384   32.1725   50.7747 H   0  0  0  0  0  0  0  0  0  0  0  0
   64.2726   32.9416   49.2786 H   0  0  0  0  0  0  0  0  0  0  0  0
   64.8017   33.9160   47.0544 H   0  0  0  0  0  0  0  0  0  0  0  0
   62.9947   34.2981   45.3892 H   0  0  0  0  0  0  0  0  0  0  0  0
   60.6387   33.7309   45.9492 H   0  0  0  0  0  0  0  0  0  0  0  0
  1  2  1  0
  2  3  1  0
  3  4  1  0
  3  5  1  0
  5  6  1  0
  6  7  1  0
  7  8  1  0
  8  9  1  0
  9 10  1  0
  9 11  1  0
 11 12  1  0
 12 13  1  0
 13 14  1  0
 14 15  1  0
 15 16  2  0
 16 17  1  0
 17 18  2  0
 18 19  1  0
 19 20  2  0
 20 21  1  0
 21 22  2  0
 22 23  1  0
 22 24  1  0
 24 25  2  0
 25 26  1  0
 26 27  2  0
 27 28  1  0
 28 29  2  0
 29 15  1  0
 21 16  1  0
 29 24  1  0
  1 30  1  0
  1 31  1  0
  1 32  1  0
  2 33  1  0
  2 34  1  0
  4 35  1  0
  4 36  1  0
  4 37  1  0
  5 38  1  0
  5 39  1  0
  6 40  1  0
  6 41  1  0
  7 42  1  0
  7 43  1  0
  8 44  1  0
  8 45  1  0
 10 46  1  0
 10 47  1  0
 10 48  1  0
 11 49  1  0
 11 50  1  0
 12 51  1  0
 12 52  1  0
 13 53  1  0
 13 54  1  0
 14 55  1  0
 17 56  1  0
 18 57  1  0
 19 58  1  0
 20 59  1  0
 23 60  1  0
 23 61  1  0
 23 62  1  0
 25 63  1  0
 26 64  1  0
 27 65  1  0
 28 66  1  0
M  CHG  1  22   1
M  END
>  <UniqueID>  (5) 
5

>  <SMILES>  (5) 
CCN(C)CCCCN(C)CCCNc1c2ccccc2[n+](C)c2ccccc12

>  <Energy>  (5) 
85.77290472795238

>  <Genealogy>  (5) 
CCN(C)CCCCN(C)CCCNc1c2ccccc2[n+](C)c2ccccc12 (3D coordinates assigned)
CCN(C)CCCCN(C)CCCNc1c2ccccc2[n+](C)c2ccccc12 (optimized conformer: 85.77290472795238 kcal/mol)

>  <smiles>  (5) 
CCN(C)CCCCN(C)CCCNc1c2ccccc2[n+](C)c2ccccc12

>  <score_type>  (5) 
oracle

>  <origin>  (5) 
adg

>  <m_score__min__energy>  (5) 
-6.6299999999999999

>  <m_primary>  (5) 
energy

$$$$
5:0
     RDKit          3D

 57 59  0  0  0  0  0  0  0  0999 V2000
   63.3650   33.8540   46.7130 C   0  0  0  0  0  0  0  0  0  0  0  0
   63.2540   32.4150   47.2100 C   0  0  0  0  0  0  0  0  0  0  0  0
   63.8090   32.2750   48.6370 C   0  0  0  0  0  0  0  0  0  0  0  0
   62.7350   32.0930   49.6320 N   0  0  0  0  0  0  0  0  0  0  0  0
   62.8630   30.8530   50.4130 C   0  0  0  0  0  0  0  0  0  0  0  0
   61.5990   30.5500   51.2400 C   0  0  0  0  0  0  0  0  0  0  0  0
   60.4870   29.8960   50.4050 C   0  0  0  0  0  0  0  0  0  0  0  0
   59.6800   30.9210   49.5890 C   0  0  0  0  0  0  0  0  0  0  0  0
   60.4660   31.5010   48.4810 N   0  0  0  0  0  0  0  0  0  0  0  0
   59.7440   31.4690   47.2150 C   0  0  0  0  0  0  0  0  0  0  0  0
   59.1680   32.6480   46.6640 C   0  0  0  0  0  0  0  0  0  0  0  0
   58.5270   32.5910   45.4100 C   0  0  0  0  0  0  0  0  0  0  0  0
   58.2800   31.3820   44.8000 N   0  0  0  0  0  0  0  0  0  0  0  0
   57.3200   31.3120   43.6770 C   0  0  0  0  0  0  0  0  0  0  0  0
   58.9150   30.2430   45.2460 C   0  0  0  0  0  0  0  0  0  0  0  0
   58.8830   29.0420   44.4920 C   0  0  0  0  0  0  0  0  0  0  0  0
   59.4880   27.8790   44.9600 C   0  0  0  0  0  0  0  0  0  0  0  0
   60.1450   27.8800   46.1790 C   0  0  0  0  0  0  0  0  0  0  0  0
   60.2260   29.0500   46.9300 C   0  0  0  0  0  0  0  0  0  0  0  0
   59.6370   30.2580   46.4750 C   0  0  0  0  0  0  0  0  0  0  0  0
   58.1000   33.9110   44.7790 C   0  0  0  0  0  0  0  0  0  0  0  0
   59.1720   34.9890   44.9970 C   0  0  0  0  0  0  0  0  0  0  0  0
   59.6280   35.1210   46.4640 C   0  0  0  0  0  0  0  0  0  0  0  0
   59.1140   33.9950   47.3720 C   0  0  0  0  0  0  0  0  0  0  0  0
   63.4176   34.5363   47.5742 H   0  0  0  0  0  0  0  0  0  0  0  0
   64.2742   33.9623   46.1033 H   0  0  0  0  0  0  0  0  0  0  0  0
   62.4832   34.1004   46.1033 H   0  0  0  0  0  0  0  0  0  0  0  0
   62.1958   32.1145   47.2055 H   0  0  0  0  0  0  0  0  0  0  0  0
   63.8435   31.7695   46.5422 H   0  0  0  0  0  0  0  0  0  0  0  0
   64.4787   31.4031   48.6737 H   0  0  0  0  0  0  0  0  0  0  0  0
   64.3482   33.2013   48.8844 H   0  0  0  0  0  0  0  0  0  0  0  0
   62.6520   32.9140   50.2780 H   0  0  0  0  0  0  0  0  0  0  0  0
   63.0424   30.0164   49.7217 H   0  0  0  0  0  0  0  0  0  0  0  0
   63.7010   30.9816   51.1139 H   0  0  0  0  0  0  0  0  0  0  0  0
   61.8699   29.8690   52.0603 H   0  0  0  0  0  0  0  0  0  0  0  0
   61.2115   31.5077   51.6177 H   0  0  0  0  0  0  0  0  0  0  0  0
   60.9447   29.1752   49.7115 H   0  0  0  0  0  0  0  0  0  0  0  0
   59.7927   29.4035   51.1017 H   0  0  0  0  0  0  0  0  0  0  0  0
   58.7943   30.4209   49.1702 H   0  0  0  0  0  0  0  0  0  0  0  0
   59.3969   31.7410   50.2654 H   0  0  0  0  0  0  0  0  0  0  0  0
   60.8030   32.4510   48.7380 H   0  0  0  0  0  0  0  0  0  0  0  0
   61.3620   30.9750   48.3840 H   0  0  0  0  0  0  0  0  0  0  0  0
   56.2967   31.2374   44.0735 H   0  0  0  0  0  0  0  0  0  0  0  0
   57.4094   32.2190   43.0611 H   0  0  0  0  0  0  0  0  0  0  0  0
   57.5400   30.4275   43.0611 H   0  0  0  0  0  0  0  0  0  0  0  0
   58.3703   29.0294   43.5189 H   0  0  0  0  0  0  0  0  0  0  0  0
   59.4441   26.9577   44.3606 H   0  0  0  0  0  0  0  0  0  0  0  0
   60.6042   26.9540   46.5552 H   0  0  0  0  0  0  0  0  0  0  0  0
   60.7563   29.0374   47.8936 H   0  0  0  0  0  0  0  0  0  0  0  0
   57.9507   33.7634   43.6992 H   0  0  0  0  0  0  0  0  0  0  0  0
   57.1639   34.2425   45.2520 H   0  0  0  0  0  0  0  0  0  0  0  0
   60.0485   34.7367   44.3821 H   0  0  0  0  0  0  0  0  0  0  0  0
   58.7228   35.9518   44.7118 H   0  0  0  0  0  0  0  0  0  0  0  0
   60.7277   35.1124   46.4883 H   0  0  0  0  0  0  0  0  0  0  0  0
   59.2079   36.0621   46.8485 H   0  0  0  0  0  0  0  0  0  0  0  0
   59.7385   33.9502   48.2764 H   0  0  0  0  0  0  0  0  0  0  0  0
   58.0672   34.2091   47.6334 H   0  0  0  0  0  0  0  0  0  0  0  0
  1  2  1  0
  2  3  1  0
  3  4  1  0
  4  5  1  0
  5  6  1  0
  6  7  1  0
  7  8  1  0
  8  9  1  0
  9 10  1  0
 10 11  2  0
 11 12  1  0
 12 13  2  0
 13 14  1  0
 13 15  1  0
 15 16  2  0
 16 17  1  0
 17 18  2  0
 18 19  1  0
 19 20  2  0
 12 21  1  0
 21 22  1  0
 22 23  1  0
 23 24  1  0
 20 10  1  0
 24 11  1  0
 20 15  1  0
  1 25  1  0
  1 26  1  0
  1 27  1  0
  2 28  1  0
  2 29  1  0
  3 30  1  0
  3 31  1  0
  4 32  1  0
  5 33  1  0
  5 34  1  0
  6 35  1  0
  6 36  1  0
  7 37  1  0
  7 38  1  0
  8 39  1  0
  8 40  1  0
  9 41  1  0
  9 42  1  0
 14 43  1  0
 14 44  1  0
 14 45  1  0
 16 46  1  0
 17 47  1  0
 18 48  1  0
 19 49  1  0
 21 50  1  0
 21 51  1  0
 22 52  1  0
 22 53  1  0
 23 54  1  0
 23 55  1  0
 24 56  1  0
 24 57  1  0
M  CHG  2   9   1  13   1
M  END
>  <UniqueID>  (6) 
6

>  <SMILES>  (6) 
CCCNCCCC[NH2+]c1c2c([n+](C)c3ccccc13)CCCC2

>  <Energy>  (6) 
80.29502074786966

>  <Genealogy>  (6) 
CCCNCCCC[NH2+]c1c2c([n+](C)c3ccccc13)CCCC2 (protonated)
CCCNCCCC[NH2+]c1c2c([n+](C)c3ccccc13)CCCC2 (3D coordinates assigned)
CCCNCCCC[NH2+]c1c2c([n+](C)c3ccccc13)CCCC2 (nonaromatic ring conformer: 80.29502074786966 kcal/mol)

>  <smiles>  (6) 
CCCNCCCCNc1c2c([n+](C)c3ccccc13)CCCC2

>  <score_type>  (6) 
oracle

>  <origin>  (6) 
adg

>  <m_score__min__energy>  (6) 
-4.04

>  <m_primary>  (6) 
energy

$$$$
6:0
     RDKit          3D

 64 66  0  0  0  0  0  0  0  0999 V2000
   63.0910   33.5570   46.7140 C   0  0  0  0  0  0  0  0  0  0  0  0
   62.6870   32.4630   47.7200 C   0  0  0  0  0  0  0  0  0  0  0  0
   62.9320   32.7910   49.1620 N   0  0  0  0  0  0  0  0  0  0  0  0
   62.6900   34.2480   49.3220 C   0  0  0  0  0  0  0  0  0  0  0  0
   64.3490   32.5030   49.5140 C   0  0  0  0  0  0  0  0  0  0  0  0
   61.9890   32.0090   50.0250 C   0  0  0  0  0  0  0  0  0  0  0  0
   62.3170   30.5100   50.1730 C   0  0  0  0  0  0  0  0  0  0  0  0
   61.1080   29.7760   50.1390 O   0  0  0  0  0  0  0  0  0  0  0  0
   60.7850   29.2780   51.4230 C   0  0  0  0  0  0  0  0  0  0  0  0
   59.2750   29.3610   51.6770 C   0  0  0  0  0  0  0  0  0  0  0  0
   58.6090   29.9230   50.5590 O   0  0  0  0  0  0  0  0  0  0  0  0
   58.1440   31.2330   50.8310 C   0  0  0  0  0  0  0  0  0  0  0  0
   58.4710   32.1770   49.6710 C   0  0  0  0  0  0  0  0  0  0  0  0
   59.2950   31.5010   48.6700 N   0  0  0  0  0  0  0  0  0  0  0  0
   58.9860   31.6180   47.2720 C   0  0  0  0  0  0  0  0  0  0  0  0
   58.6500   30.4800   46.5220 C   0  0  0  0  0  0  0  0  0  0  0  0
   58.5780   29.2080   47.1300 C   0  0  0  0  0  0  0  0  0  0  0  0
   58.3110   28.0710   46.3720 C   0  0  0  0  0  0  0  0  0  0  0  0
   58.1190   28.1800   45.0000 C   0  0  0  0  0  0  0  0  0  0  0  0
   58.1520   29.4300   44.3820 C   0  0  0  0  0  0  0  0  0  0  0  0
   58.3720   30.6130   45.1350 C   0  0  0  0  0  0  0  0  0  0  0  0
   58.3340   31.8660   44.5510 N   0  0  0  0  0  0  0  0  0  0  0  0
   57.7690   32.0330   43.1930 C   0  0  0  0  0  0  0  0  0  0  0  0
   58.7880   32.9700   45.2500 C   0  0  0  0  0  0  0  0  0  0  0  0
   58.9940   34.2230   44.6170 C   0  0  0  0  0  0  0  0  0  0  0  0
   59.4010   35.3410   45.3460 C   0  0  0  0  0  0  0  0  0  0  0  0
   59.6290   35.2400   46.7130 C   0  0  0  0  0  0  0  0  0  0  0  0
   59.4810   34.0130   47.3560 C   0  0  0  0  0  0  0  0  0  0  0  0
   59.0790   32.8660   46.6370 C   0  0  0  0  0  0  0  0  0  0  0  0
   63.4218   34.4529   47.2598 H   0  0  0  0  0  0  0  0  0  0  0  0
   63.9124   33.1886   46.0819 H   0  0  0  0  0  0  0  0  0  0  0  0
   62.2273   33.8109   46.0819 H   0  0  0  0  0  0  0  0  0  0  0  0
   61.6118   32.2676   47.5947 H   0  0  0  0  0  0  0  0  0  0  0  0
   63.3242   31.5951   47.4949 H   0  0  0  0  0  0  0  0  0  0  0  0
   62.6486   34.4974   50.3925 H   0  0  0  0  0  0  0  0  0  0  0  0
   63.5071   34.8099   48.8460 H   0  0  0  0  0  0  0  0  0  0  0  0
   61.7351   34.5155   48.8460 H   0  0  0  0  0  0  0  0  0  0  0  0
   64.4577   32.4809   50.6084 H   0  0  0  0  0  0  0  0  0  0  0  0
   64.6394   31.5275   49.0969 H   0  0  0  0  0  0  0  0  0  0  0  0
   64.9972   33.2878   49.0969 H   0  0  0  0  0  0  0  0  0  0  0  0
   61.9956   32.4586   51.0289 H   0  0  0  0  0  0  0  0  0  0  0  0
   61.0101   32.0573   49.5255 H   0  0  0  0  0  0  0  0  0  0  0  0
   62.9678   30.1900   49.3459 H   0  0  0  0  0  0  0  0  0  0  0  0
   62.8369   30.3322   51.1259 H   0  0  0  0  0  0  0  0  0  0  0  0
   61.1050   28.2279   51.4932 H   0  0  0  0  0  0  0  0  0  0  0  0
   61.3029   29.8882   52.1776 H   0  0  0  0  0  0  0  0  0  0  0  0
   58.8834   28.3494   51.8596 H   0  0  0  0  0  0  0  0  0  0  0  0
   59.0985   30.0025   52.5530 H   0  0  0  0  0  0  0  0  0  0  0  0
   57.0542   31.2058   50.9777 H   0  0  0  0  0  0  0  0  0  0  0  0
   58.6431   31.6032   51.7387 H   0  0  0  0  0  0  0  0  0  0  0  0
   57.5337   32.5102   49.2016 H   0  0  0  0  0  0  0  0  0  0  0  0
   59.0292   33.0395   50.0640 H   0  0  0  0  0  0  0  0  0  0  0  0
   59.9700   30.7560   48.9590 H   0  0  0  0  0  0  0  0  0  0  0  0
   58.7346   29.1141   48.2147 H   0  0  0  0  0  0  0  0  0  0  0  0
   58.2520   27.0865   46.8592 H   0  0  0  0  0  0  0  0  0  0  0  0
   57.9402   27.2764   44.3987 H   0  0  0  0  0  0  0  0  0  0  0  0
   58.0052   29.5001   43.2941 H   0  0  0  0  0  0  0  0  0  0  0  0
   56.7167   32.3440   43.2694 H   0  0  0  0  0  0  0  0  0  0  0  0
   58.3398   32.8008   42.6502 H   0  0  0  0  0  0  0  0  0  0  0  0
   57.8307   31.0782   42.6502 H   0  0  0  0  0  0  0  0  0  0  0  0
   58.8301   34.3146   43.5331 H   0  0  0  0  0  0  0  0  0  0  0  0
   59.5419   36.3058   44.8367 H   0  0  0  0  0  0  0  0  0  0  0  0
   59.9265   36.1294   47.2878 H   0  0  0  0  0  0  0  0  0  0  0  0
   59.6794   33.9368   48.4353 H   0  0  0  0  0  0  0  0  0  0  0  0
  1  2  1  0
  2  3  1  0
  3  4  1  0
  3  5  1  0
  3  6  1  0
  6  7  1  0
  7  8  1  0
  8  9  1  0
  9 10  1  0
 10 11  1  0
 11 12  1  0
 12 13  1  0
 13 14  1  0
 14 15  1  0
 15 16  2  0
 16 17  1  0
 17 18  2  0
 18 19  1  0
 19 20  2  0
 20 21  1  0
 21 22  2  0
 22 23  1  0
 22 24  1  0
 24 25  2  0
 25 26  1  0
 26 27  2  0
 27 28  1  0
 28 29  2  0
 29 15  1  0
 21 16  1  0
 29 24  1  0
  1 30  1  0
  1 31  1  0
  1 32  1  0
  2 33  1  0
  2 34  1  0
  4 35  1  0
  4 36  1  0
  4 37  1  0
  5 38  1  0
  5 39  1  0
  5 40  1  0
  6 41  1  0
  6 42  1  0
  7 43  1  0
  7 44  1  0
  9 45  1  0
  9 46  1  0
 10 47  1  0
 10 48  1  0
 12 49  1  0
 12 50  1  0
 13 51  1  0
 13 52  1  0
 14 53  1  0
 17 54  1  0
 18 55  1  0
 19 56  1  0
 20 57  1  0
 23 58  1  0
 23 59  1  0
 23 60  1  0
 25 61  1  0
 26 62  1  0
 27 63  1  0
 28 64  1  0
M  CHG  2   3   1  22   1
M  END
>  <UniqueID>  (7) 
7

>  <SMILES>  (7) 
CC[N+](C)(C)CCOCCOCCNc1c2ccccc2[n+](C)c2ccccc12

>  <Energy>  (7) 
99.64124332476301

>  <Genealogy>  (7) 
CC[N+](C)(C)CCOCCOCCNc1c2ccccc2[n+](C)c2ccccc12 (3D coordinates assigned)
CC[N+](C)(C)CCOCCOCCNc1c2ccccc2[n+](C)c2ccccc12 (optimized conformer: 99.64124332476301 kcal/mol)

>  <smiles>  (7) 
CC[N+](C)(C)CCOCCOCCNc1c2ccccc2[n+](C)c2ccccc12

>  <score_type>  (7) 
oracle

>  <origin>  (7) 
adg

>  <m_score__min__energy>  (7) 
-4.4199999999999999

>  <m_primary>  (7) 
energy

$$$$
7:0
     RDKit          3D

 59 61  0  0  0  0  0  0  0  0999 V2000
   56.2170   23.4390   43.3810 C   0  0  0  0  0  0  0  0  0  0  0  0
   55.1660   22.9570   44.1890 O   0  0  0  0  0  0  0  0  0  0  0  0
   54.2600   24.0050   44.4560 C   0  0  0  0  0  0  0  0  0  0  0  0
   54.6220   24.6310   45.7700 C   0  0  0  0  0  0  0  0  0  0  0  0
   54.8480   23.8890   46.7630 O   0  0  0  0  0  0  0  0  0  0  0  0
   54.7660   26.0490   45.9150 N   0  0  0  0  0  0  0  0  0  0  0  0
   56.0490   26.7370   45.9840 C   0  0  0  0  0  0  0  0  0  0  0  0
   57.1790   25.7160   46.1150 C   0  0  0  0  0  0  0  0  0  0  0  0
   58.3460   26.1790   45.4570 O   0  0  0  0  0  0  0  0  0  0  0  0
   59.5160   25.6100   46.0160 C   0  0  0  0  0  0  0  0  0  0  0  0
   60.2300   26.5930   46.9520 C   0  0  0  0  0  0  0  0  0  0  0  0
   59.4170   26.9370   48.0590 O   0  0  0  0  0  0  0  0  0  0  0  0
   59.1910   28.3330   48.1440 C   0  0  0  0  0  0  0  0  0  0  0  0
   60.5260   29.0600   48.0100 C   0  0  0  0  0  0  0  0  0  0  0  0
   60.6160   29.7410   46.7180 N   0  0  0  0  0  0  0  0  0  0  0  0
   59.6790   30.7650   46.3450 C   0  0  0  0  0  0  0  0  0  0  0  0
   58.6670   30.4930   45.4090 C   0  0  0  0  0  0  0  0  0  0  0  0
   58.5030   29.1930   44.8830 C   0  0  0  0  0  0  0  0  0  0  0  0
   57.4720   28.9100   43.9910 C   0  0  0  0  0  0  0  0  0  0  0  0
   56.5750   29.9060   43.6280 C   0  0  0  0  0  0  0  0  0  0  0  0
   56.7130   31.1970   44.1390 C   0  0  0  0  0  0  0  0  0  0  0  0
   57.7800   31.5300   45.0140 C   0  0  0  0  0  0  0  0  0  0  0  0
   57.9580   32.8150   45.4910 N   0  0  0  0  0  0  0  0  0  0  0  0
   57.2200   33.9430   44.8760 C   0  0  0  0  0  0  0  0  0  0  0  0
   58.8450   33.0510   46.5290 C   0  0  0  0  0  0  0  0  0  0  0  0
   58.8850   34.2940   47.2100 C   0  0  0  0  0  0  0  0  0  0  0  0
   59.8180   34.5350   48.2200 C   0  0  0  0  0  0  0  0  0  0  0  0
   60.7160   33.5420   48.5940 C   0  0  0  0  0  0  0  0  0  0  0  0
   60.6750   32.2960   47.9730 C   0  0  0  0  0  0  0  0  0  0  0  0
   59.7360   32.0290   46.9530 C   0  0  0  0  0  0  0  0  0  0  0  0
   57.0302   23.8119   44.0211 H   0  0  0  0  0  0  0  0  0  0  0  0
   56.5946   22.6241   42.7459 H   0  0  0  0  0  0  0  0  0  0  0  0
   55.8458   24.2569   42.7459 H   0  0  0  0  0  0  0  0  0  0  0  0
   54.3208   24.7592   43.6575 H   0  0  0  0  0  0  0  0  0  0  0  0
   53.2338   23.6113   44.4987 H   0  0  0  0  0  0  0  0  0  0  0  0
   56.1958   27.3283   45.0681 H   0  0  0  0  0  0  0  0  0  0  0  0
   56.0574   27.4017   46.8604 H   0  0  0  0  0  0  0  0  0  0  0  0
   57.4027   25.5585   47.1804 H   0  0  0  0  0  0  0  0  0  0  0  0
   56.8601   24.7713   45.6504 H   0  0  0  0  0  0  0  0  0  0  0  0
   59.2385   24.7114   46.5865 H   0  0  0  0  0  0  0  0  0  0  0  0
   60.2021   25.3572   45.1942 H   0  0  0  0  0  0  0  0  0  0  0  0
   61.1567   26.1280   47.3195 H   0  0  0  0  0  0  0  0  0  0  0  0
   60.4506   27.5105   46.3867 H   0  0  0  0  0  0  0  0  0  0  0  0
   58.5165   28.6477   47.3341 H   0  0  0  0  0  0  0  0  0  0  0  0
   58.7297   28.5771   49.1123 H   0  0  0  0  0  0  0  0  0  0  0  0
   60.6155   29.8025   48.8167 H   0  0  0  0  0  0  0  0  0  0  0  0
   61.3391   28.3224   48.0787 H   0  0  0  0  0  0  0  0  0  0  0  0
   61.3080   29.4090   46.0070 H   0  0  0  0  0  0  0  0  0  0  0  0
   59.1980   28.3943   45.1814 H   0  0  0  0  0  0  0  0  0  0  0  0
   57.3680   27.8975   43.5739 H   0  0  0  0  0  0  0  0  0  0  0  0
   55.7524   29.6763   42.9348 H   0  0  0  0  0  0  0  0  0  0  0  0
   55.9823   31.9701   43.8590 H   0  0  0  0  0  0  0  0  0  0  0  0
   56.8017   34.5824   45.6673 H   0  0  0  0  0  0  0  0  0  0  0  0
   57.9068   34.5338   44.2520 H   0  0  0  0  0  0  0  0  0  0  0  0
   56.4036   33.5503   44.2520 H   0  0  0  0  0  0  0  0  0  0  0  0
   58.1680   35.0825   46.9376 H   0  0  0  0  0  0  0  0  0  0  0  0
   59.8427   35.5137   48.7215 H   0  0  0  0  0  0  0  0  0  0  0  0
   61.4590   33.7403   49.3805 H   0  0  0  0  0  0  0  0  0  0  0  0
   61.3819   31.5114   48.2806 H   0  0  0  0  0  0  0  0  0  0  0  0
  1  2  1  0
  2  3  1  0
  3  4  1  0
  4  5  2  0
  4  6  1  0
  6  7  1  0
  7  8  1  0
  8  9  1  0
  9 10  1  0
 10 11  1  0
 11 12  1  0
 12 13  1  0
 13 14  1  0
 14 15  1  0
 15 16  1  0
 16 17  2  0
 17 18  1  0
 18 19  2  0
 19 20  1  0
 20 21  2  0
 21 22  1  0
 22 23  2  0
 23 24  1  0
 23 25  1  0
 25 26  2  0
 26 27  1  0
 27 28  2  0
 28 29  1  0
 29 30  2  0
 30 16  1  0
 22 17  1  0
 30 25  1  0
  1 31  1  0
  1 32  1  0
  1 33  1  0
  3 34  1  0
  3 35  1  0
  7 36  1  0
  7 37  1  0
  8 38  1  0
  8 39  1  0
 10 40  1  0
 10 41  1  0
 11 42  1  0
 11 43  1  0
 13 44  1  0
 13 45  1  0
 14 46  1  0
 14 47  1  0
 15 48  1  0
 18 49  1  0
 19 50  1  0
 20 51  1  0
 21 52  1  0
 24 53  1  0
 24 54  1  0
 24 55  1  0
 26 56  1  0
 27 57  1  0
 28 58  1  0
 29 59  1  0
M  CHG  2   6  -1  23   1
M  END
>  <UniqueID>  (8) 
8

>  <SMILES>  (8) 
COCC(=O)[N-]CCOCCOCCNc1c2ccccc2[n+](C)c2ccccc12

>  <Energy>  (8) 
86.23643422648634

>  <Genealogy>  (8) 
COCC(=O)[N-]CCOCCOCCNc1c2ccccc2[n+](C)c2ccccc12 (protonated)
COCC(=O)[N-]CCOCCOCCNc1c2ccccc2[n+](C)c2ccccc12 (3D coordinates assigned)
COCC(=O)[N-]CCOCCOCCNc1c2ccccc2[n+](C)c2ccccc12 (optimized conformer: 86.23643422648634 kcal/mol)

>  <smiles>  (8) 
COCC(=O)NCCOCCOCCNc1c2ccccc2[n+](C)c2ccccc12

>  <score_type>  (8) 
oracle

>  <origin>  (8) 
adg

>  <m_score__min__energy>  (8) 
-8.4800000000000004

>  <m_primary>  (8) 
energy

$$$$
8:0
     RDKit          3D

 58 60  0  0  0  0  0  0  0  0999 V2000
   63.1150   33.8480   46.3960 C   0  0  0  0  0  0  0  0  0  0  0  0
   63.7220   32.6270   47.0800 C   0  0  0  0  0  0  0  0  0  0  0  0
   62.9340   32.2540   48.2640 N   0  0  0  0  0  0  0  0  0  0  0  0
   63.4890   32.8480   49.4880 C   0  0  0  0  0  0  0  0  0  0  0  0
   64.0250   31.7450   50.4050 C   0  0  0  0  0  0  0  0  0  0  0  0
   62.8730   30.9660   51.0650 C   0  0  0  0  0  0  0  0  0  0  0  0
   61.9200   30.4360   50.0730 N   0  0  0  0  0  0  0  0  0  0  0  0
   60.5460   30.3430   50.5920 C   0  0  0  0  0  0  0  0  0  0  0  0
   59.5300   30.7410   49.5160 C   0  0  0  0  0  0  0  0  0  0  0  0
   60.1960   31.1210   48.2690 N   0  0  0  0  0  0  0  0  0  0  0  0
   59.4350   31.2400   47.0630 C   0  0  0  0  0  0  0  0  0  0  0  0
   59.0400   30.0640   46.4040 C   0  0  0  0  0  0  0  0  0  0  0  0
   58.4370   30.1370   45.1410 C   0  0  0  0  0  0  0  0  0  0  0  0
   58.1030   31.3570   44.5980 N   0  0  0  0  0  0  0  0  0  0  0  0
   57.2150   31.4100   43.4170 C   0  0  0  0  0  0  0  0  0  0  0  0
   58.5770   32.5230   45.1710 C   0  0  0  0  0  0  0  0  0  0  0  0
   58.4780   33.7610   44.4900 C   0  0  0  0  0  0  0  0  0  0  0  0
   58.8890   34.9460   45.0850 C   0  0  0  0  0  0  0  0  0  0  0  0
   59.3930   34.9380   46.3760 C   0  0  0  0  0  0  0  0  0  0  0  0
   59.5460   33.7410   47.0780 C   0  0  0  0  0  0  0  0  0  0  0  0
   60.1260   33.9660   48.9010 Br  0  0  0  0  0  0  0  0  0  0  0  0
   59.1980   32.5000   46.4590 C   0  0  0  0  0  0  0  0  0  0  0  0
   58.1730   28.8200   44.4260 C   0  0  0  0  0  0  0  0  0  0  0  0
   59.3610   27.8590   44.6000 C   0  0  0  0  0  0  0  0  0  0  0  0
   59.8250   27.6940   46.0660 C   0  0  0  0  0  0  0  0  0  0  0  0
   59.1900   28.6960   47.0390 C   0  0  0  0  0  0  0  0  0  0  0  0
   62.7621   34.5579   47.1586 H   0  0  0  0  0  0  0  0  0  0  0  0
   63.8769   34.3331   45.7681 H   0  0  0  0  0  0  0  0  0  0  0  0
   62.2684   33.5335   45.7681 H   0  0  0  0  0  0  0  0  0  0  0  0
   63.7334   31.7845   46.3729 H   0  0  0  0  0  0  0  0  0  0  0  0
   64.7468   32.8702   47.3974 H   0  0  0  0  0  0  0  0  0  0  0  0
   62.9910   31.2120   48.3660 H   0  0  0  0  0  0  0  0  0  0  0  0
   64.3085   33.5320   49.2225 H   0  0  0  0  0  0  0  0  0  0  0  0
   62.6973   33.4028   50.0128 H   0  0  0  0  0  0  0  0  0  0  0  0
   64.6357   31.0490   49.8111 H   0  0  0  0  0  0  0  0  0  0  0  0
   64.6304   32.2113   51.1962 H   0  0  0  0  0  0  0  0  0  0  0  0
   63.2948   30.1254   51.6356 H   0  0  0  0  0  0  0  0  0  0  0  0
   62.3272   31.6605   51.7206 H   0  0  0  0  0  0  0  0  0  0  0  0
   62.2320   29.4870   49.7560 H   0  0  0  0  0  0  0  0  0  0  0  0
   60.3493   29.3081   50.9086 H   0  0  0  0  0  0  0  0  0  0  0  0
   60.4439   31.0301   51.4449 H   0  0  0  0  0  0  0  0  0  0  0  0
   58.8630   29.8885   49.3204 H   0  0  0  0  0  0  0  0  0  0  0  0
   58.9586   31.6068   49.8818 H   0  0  0  0  0  0  0  0  0  0  0  0
   61.1760   31.4830   48.2730 H   0  0  0  0  0  0  0  0  0  0  0  0
   56.1679   31.4725   43.7481 H   0  0  0  0  0  0  0  0  0  0  0  0
   57.4617   32.2950   42.8121 H   0  0  0  0  0  0  0  0  0  0  0  0
   57.3547   30.5019   42.8121 H   0  0  0  0  0  0  0  0  0  0  0  0
   58.0674   33.7839   43.4698 H   0  0  0  0  0  0  0  0  0  0  0  0
   58.8145   35.8932   44.5307 H   0  0  0  0  0  0  0  0  0  0  0  0
   59.6762   35.8874   46.8539 H   0  0  0  0  0  0  0  0  0  0  0  0
   57.2686   28.3559   44.8464 H   0  0  0  0  0  0  0  0  0  0  0  0
   58.0354   29.0214   43.3534 H   0  0  0  0  0  0  0  0  0  0  0  0
   59.0660   26.8709   44.2170 H   0  0  0  0  0  0  0  0  0  0  0  0
   60.2059   28.2926   44.0449 H   0  0  0  0  0  0  0  0  0  0  0  0
   59.5661   26.6779   46.3983 H   0  0  0  0  0  0  0  0  0  0  0  0
   60.9089   27.8812   46.0793 H   0  0  0  0  0  0  0  0  0  0  0  0
   58.1965   28.3276   47.3344 H   0  0  0  0  0  0  0  0  0  0  0  0
   59.8474   28.7914   47.9158 H   0  0  0  0  0  0  0  0  0  0  0  0
  1  2  1  0
  2  3  1  0
  3  4  1  0
  4  5  1  0
  5  6  1  0
  6  7  1  0
  7  8  1  0
  8  9  1  0
  9 10  1  0
 10 11  1  0
 11 12  2  0
 12 13  1  0
 13 14  2  0
 14 15  1  0
 14 16  1  0
 16 17  2  0
 17 18  1  0
 18 19  2  0
 19 20  1  0
 20 21  1  0
 20 22  2  0
 13 23  1  0
 23 24  1  0
 24 25  1  0
 25 26  1  0
 22 11  1  0
 26 12  1  0
 22 16  1  0
  1 27  1  0
  1 28  1  0
  1 29  1  0
  2 30  1  0
  2 31  1  0
  3 32  1  0
  4 33  1  0
  4 34  1  0
  5 35  1  0
  5 36  1  0
  6 37  1  0
  6 38  1  0
  7 39  1  0
  8 40  1  0
  8 41  1  0
  9 42  1  0
  9 43  1  0
 10 44  1  0
 15 45  1  0
 15 46  1  0
 15 47  1  0
 17 48  1  0
 18 49  1  0
 19 50  1  0
 23 51  1  0
 23 52  1  0
 24 53  1  0
 24 54  1  0
 25 55  1  0
 25 56  1  0
 26 57  1  0
 26 58  1  0
M  CHG  1  14   1
M  END
>  <UniqueID>  (9) 
9

>  <SMILES>  (9) 
CCNCCCNCCNc1c2c([n+](C)c3cccc(Br)c13)CCCC2

>  <Energy>  (9) 
82.85730057999932

>  <Genealogy>  (9) 
CCNCCCNCCNc1c2c([n+](C)c3cccc(Br)c13)CCCC2 (3D coordinates assigned)
CCNCCCNCCNc1c2c([n+](C)c3cccc(Br)c13)CCCC2 (nonaromatic ring conformer: 82.85730057999932 kcal/mol)

>  <smiles>  (9) 
CCNCCCNCCNc1c2c([n+](C)c3cccc(Br)c13)CCCC2

>  <score_type>  (9) 
oracle

>  <origin>  (9) 
adg

>  <m_score__min__energy>  (9) 
-6.4900000000000002

>  <m_primary>  (9) 
energy

$$$$
9:0
     RDKit          3D

 35 37  0  0  0  0  0  0  0  0999 V2000
   57.3780   34.0850   44.8200 C   0  0  0  0  0  0  0  0  0  0  0  0
   58.3170   33.1000   45.3530 N   0  0  0  0  0  0  0  0  0  0  0  0
   58.3160   31.7580   45.1790 C   0  0  0  0  0  0  0  0  0  0  0  0
   57.3400   31.0030   44.3750 C   0  0  0  0  0  0  0  0  0  0  0  0
   57.3490   30.8910   42.9980 C   0  0  0  0  0  0  0  0  0  0  0  0
   56.2670   30.1000   42.6800 C   0  0  0  0  0  0  0  0  0  0  0  0
   55.6630   29.7780   43.8790 C   0  0  0  0  0  0  0  0  0  0  0  0
   56.3260   30.3300   44.8700 O   0  0  0  0  0  0  0  0  0  0  0  0
   59.3290   31.1720   45.8520 N   0  0  0  0  0  0  0  0  0  0  0  0
   59.9800   32.1470   46.4650 N   0  0  0  0  0  0  0  0  0  0  0  0
   59.3690   33.3060   46.1690 C   0  0  0  0  0  0  0  0  0  0  0  0
   59.9010   34.9010   46.8060 S   0  0  0  0  0  0  0  0  0  0  0  0
   59.6010   34.4710   48.5560 C   0  0  0  0  0  0  0  0  0  0  0  0
   60.4070   33.2680   48.9660 C   0  0  0  0  0  0  0  0  0  0  0  0
   59.8160   32.1550   49.0330 O   0  0  0  0  0  0  0  0  0  0  0  0
   61.8650   33.3410   49.2640 C   0  0  0  0  0  0  0  0  0  0  0  0
   62.3450   33.8650   50.4820 C   0  0  0  0  0  0  0  0  0  0  0  0
   63.7180   33.9270   50.7370 C   0  0  0  0  0  0  0  0  0  0  0  0
   64.6300   33.4650   49.7860 C   0  0  0  0  0  0  0  0  0  0  0  0
   64.1700   32.9410   48.5760 C   0  0  0  0  0  0  0  0  0  0  0  0
   62.7990   32.8780   48.3160 C   0  0  0  0  0  0  0  0  0  0  0  0
   56.8815   34.6059   45.6519 H   0  0  0  0  0  0  0  0  0  0  0  0
   57.9230   34.8150   44.2034 H   0  0  0  0  0  0  0  0  0  0  0  0
   56.6228   33.5755   44.2034 H   0  0  0  0  0  0  0  0  0  0  0  0
   58.0708   31.3404   42.3001 H   0  0  0  0  0  0  0  0  0  0  0  0
   55.9487   29.7881   41.6743 H   0  0  0  0  0  0  0  0  0  0  0  0
   54.7635   29.1542   43.9880 H   0  0  0  0  0  0  0  0  0  0  0  0
   60.8160   32.0140   47.0760 H   0  0  0  0  0  0  0  0  0  0  0  0
   59.8836   35.3251   49.1890 H   0  0  0  0  0  0  0  0  0  0  0  0
   58.5339   34.2340   48.6788 H   0  0  0  0  0  0  0  0  0  0  0  0
   61.6330   34.2280   51.2378 H   0  0  0  0  0  0  0  0  0  0  0  0
   64.0809   34.3408   51.6894 H   0  0  0  0  0  0  0  0  0  0  0  0
   65.7099   33.5137   49.9897 H   0  0  0  0  0  0  0  0  0  0  0  0
   64.8884   32.5773   47.8265 H   0  0  0  0  0  0  0  0  0  0  0  0
   62.4448   32.4625   47.3611 H   0  0  0  0  0  0  0  0  0  0  0  0
  1  2  1  0
  2  3  1  0
  3  4  1  0
  4  5  2  0
  5  6  1  0
  6  7  2  0
  7  8  1  0
  3  9  2  0
  9 10  1  0
 10 11  2  0
 11 12  1  0
 12 13  1  0
 13 14  1  0
 14 15  2  0
 14 16  1  0
 16 17  2  0
 17 18  1  0
 18 19  2  0
 19 20  1  0
 20 21  2  0
 11  2  1  0
 21 16  1  0
  8  4  1  0
  1 22  1  0
  1 23  1  0
  1 24  1  0
  5 25  1  0
  6 26  1  0
  7 27  1  0
 10 28  1  0
 13 29  1  0
 13 30  1  0
 17 31  1  0
 18 32  1  0
 19 33  1  0
 20 34  1  0
 21 35  1  0
M  CHG  1  10   1
M  END
>  <UniqueID>  (10) 
10

>  <SMILES>  (10) 
Cn1c(-c2ccco2)n[nH+]c1SCC(=O)c1ccccc1

>  <Energy>  (10) 
95.34079849222022

>  <Genealogy>  (10) 
Cn1c(-c2ccco2)n[nH+]c1SCC(=O)c1ccccc1 (protonated)
Cn1c(-c2ccco2)n[nH+]c1SCC(=O)c1ccccc1 (3D coordinates assigned)
Cn1c(-c2ccco2)n[nH+]c1SCC(=O)c1ccccc1 (optimized conformer: 95.34079849222022 kcal/mol)

>  <smiles>  (10) 
Cn1c(SCC(=O)c2ccccc2)nnc1-c1ccco1

>  <score_type>  (10) 
oracle

>  <origin>  (10) 
adg

>  <m_score__min__energy>  (10) 
-6.7000000000000002

>  <m_primary>  (10) 
energy

$$$$
10:0
     RDKit          3D

 52 54  0  0  0  0  0  0  0  0999 V2000
   63.2370   33.8100   50.0390 C   0  0  0  0  0  0  0  0  0  0  0  0
   64.4640   33.0730   49.5060 C   0  0  0  0  0  0  0  0  0  0  0  0
   64.4090   32.9570   48.0380 N   0  0  0  0  0  0  0  0  0  0  0  0
   63.2440   33.6560   47.4650 C   0  0  0  0  0  0  0  0  0  0  0  0
   62.0900   32.6980   47.1220 C   0  0  0  0  0  0  0  0  0  0  0  0
   62.3450   31.4210   47.6750 O   0  0  0  0  0  0  0  0  0  0  0  0
   61.2390   30.5620   47.4740 C   0  0  0  0  0  0  0  0  0  0  0  0
   60.3240   30.6220   48.6950 C   0  0  0  0  0  0  0  0  0  0  0  0
   58.9880   31.0890   48.3270 N   0  0  0  0  0  0  0  0  0  0  0  0
   58.6650   31.3750   46.9620 C   0  0  0  0  0  0  0  0  0  0  0  0
   58.7460   32.6790   46.4770 C   0  0  0  0  0  0  0  0  0  0  0  0
   58.4800   32.9610   45.1620 C   0  0  0  0  0  0  0  0  0  0  0  0
   58.1020   31.9880   44.2700 N   0  0  0  0  0  0  0  0  0  0  0  0
   57.7910   32.3440   42.8720 C   0  0  0  0  0  0  0  0  0  0  0  0
   58.0310   30.6720   44.6990 C   0  0  0  0  0  0  0  0  0  0  0  0
   57.6880   29.6180   43.8180 C   0  0  0  0  0  0  0  0  0  0  0  0
   57.6180   28.2990   44.2700 C   0  0  0  0  0  0  0  0  0  0  0  0
   57.8830   27.9960   45.6020 C   0  0  0  0  0  0  0  0  0  0  0  0
   58.2270   29.0090   46.4950 C   0  0  0  0  0  0  0  0  0  0  0  0
   58.3130   30.3470   46.0630 C   0  0  0  0  0  0  0  0  0  0  0  0
   58.6760   34.4100   44.8720 C   0  0  0  0  0  0  0  0  0  0  0  0
   59.2470   34.9890   46.1770 C   0  0  0  0  0  0  0  0  0  0  0  0
   59.1460   33.8880   47.2410 C   0  0  0  0  0  0  0  0  0  0  0  0
   63.2527   33.8006   51.1388 H   0  0  0  0  0  0  0  0  0  0  0  0
   63.2498   34.8500   49.6810 H   0  0  0  0  0  0  0  0  0  0  0  0
   62.3248   33.3102   49.6810 H   0  0  0  0  0  0  0  0  0  0  0  0
   65.3699   33.6287   49.7900 H   0  0  0  0  0  0  0  0  0  0  0  0
   64.4831   32.0619   49.9388 H   0  0  0  0  0  0  0  0  0  0  0  0
   65.2720   33.3900   47.6340 H   0  0  0  0  0  0  0  0  0  0  0  0
   64.3920   31.9470   47.7610 H   0  0  0  0  0  0  0  0  0  0  0  0
   62.8829   34.3957   48.1946 H   0  0  0  0  0  0  0  0  0  0  0  0
   63.5692   34.1347   46.5296 H   0  0  0  0  0  0  0  0  0  0  0  0
   61.1513   33.0943   47.5365 H   0  0  0  0  0  0  0  0  0  0  0  0
   62.0051   32.6094   46.0289 H   0  0  0  0  0  0  0  0  0  0  0  0
   60.6820   30.8831   46.5814 H   0  0  0  0  0  0  0  0  0  0  0  0
   61.5948   29.5310   47.3309 H   0  0  0  0  0  0  0  0  0  0  0  0
   60.2451   29.6169   49.1350 H   0  0  0  0  0  0  0  0  0  0  0  0
   60.7542   31.3280   49.4206 H   0  0  0  0  0  0  0  0  0  0  0  0
   58.3200   31.4090   49.0670 H   0  0  0  0  0  0  0  0  0  0  0  0
   57.0674   33.1723   42.8569 H   0  0  0  0  0  0  0  0  0  0  0  0
   58.7133   32.6534   42.3586 H   0  0  0  0  0  0  0  0  0  0  0  0
   57.3605   31.4716   42.3586 H   0  0  0  0  0  0  0  0  0  0  0  0
   57.4737   29.8416   42.7625 H   0  0  0  0  0  0  0  0  0  0  0  0
   57.3517   27.4943   43.5689 H   0  0  0  0  0  0  0  0  0  0  0  0
   57.8208   26.9546   45.9508 H   0  0  0  0  0  0  0  0  0  0  0  0
   58.4333   28.7615   47.5468 H   0  0  0  0  0  0  0  0  0  0  0  0
   59.3848   34.5482   44.0422 H   0  0  0  0  0  0  0  0  0  0  0  0
   57.7427   34.9059   44.5671 H   0  0  0  0  0  0  0  0  0  0  0  0
   60.2982   35.2792   46.0329 H   0  0  0  0  0  0  0  0  0  0  0  0
   58.6878   35.8845   46.4858 H   0  0  0  0  0  0  0  0  0  0  0  0
   60.1161   33.7335   47.7359 H   0  0  0  0  0  0  0  0  0  0  0  0
   58.4315   34.1376   48.0392 H   0  0  0  0  0  0  0  0  0  0  0  0
  1  2  1  0
  2  3  1  0
  3  4  1  0
  4  5  1  0
  5  6  1  0
  6  7  1  0
  7  8  1  0
  8  9  1  0
  9 10  1  0
 10 11  2  0
 11 12  1  0
 12 13  2  0
 13 14  1  0
 13 15  1  0
 15 16  2  0
 16 17  1  0
 17 18  2  0
 18 19  1  0
 19 20  2  0
 12 21  1  0
 21 22  1  0
 22 23  1  0
 20 10  1  0
 23 11  1  0
 20 15  1  0
  1 24  1  0
  1 25  1  0
  1 26  1  0
  2 27  1  0
  2 28  1  0
  3 29  1  0
  3 30  1  0
  4 31  1  0
  4 32  1  0
  5 33  1  0
  5 34  1  0
  7 35  1  0
  7 36  1  0
  8 37  1  0
  8 38  1  0
  9 39  1  0
 14 40  1  0
 14 41  1  0
 14 42  1  0
 16 43  1  0
 17 44  1  0
 18 45  1  0
 19 46  1  0
 21 47  1  0
 21 48  1  0
 22 49  1  0
 22 50  1  0
 23 51  1  0
 23 52  1  0
M  CHG  2   3   1  13   1
M  END
>  <UniqueID>  (11) 
11

>  <SMILES>  (11) 
CC[NH2+]CCOCCNc1c2c([n+](C)c3ccccc13)CCC2

>  <Energy>  (11) 
70.64227844287517

>  <Genealogy>  (11) 
CC[NH2+]CCOCCNc1c2c([n+](C)c3ccccc13)CCC2 (protonated)
CC[NH2+]CCOCCNc1c2c([n+](C)c3ccccc13)CCC2 (3D coordinates assigned)
CC[NH2+]CCOCCNc1c2c([n+](C)c3ccccc13)CCC2 (nonaromatic ring conformer: 70.64227844287517 kcal/mol)

>  <smiles>  (11) 
CCNCCOCCNc1c2c([n+](C)c3ccccc13)CCC2

>  <score_type>  (11) 
oracle

>  <origin>  (11) 
adg

>  <m_score__min__energy>  (11) 
-3.9100000000000001

>  <m_primary>  (11) 
energy

$$$$
11:0
     RDKit          3D

 44 45  0  0  0  0  0  0  0  0999 V2000
   63.3890   33.8480   46.4330 C   0  0  0  0  0  0  0  0  0  0  0  0
   62.9140   32.5800   47.1370 C   0  0  0  0  0  0  0  0  0  0  0  0
   62.3610   32.8660   48.5500 C   0  0  0  0  0  0  0  0  0  0  0  0
   61.6480   34.2290   48.6390 C   0  0  0  0  0  0  0  0  0  0  0  0
   60.1230   34.0690   48.6120 C   0  0  0  0  0  0  0  0  0  0  0  0
   59.4550   34.7330   47.0410 S   0  0  0  0  0  0  0  0  0  0  0  0
   58.9190   33.1220   46.4330 C   0  0  0  0  0  0  0  0  0  0  0  0
   59.6120   32.0270   46.8390 N   0  0  0  0  0  0  0  0  0  0  0  0
   59.2610   30.7760   46.4600 C   0  0  0  0  0  0  0  0  0  0  0  0
   59.9870   29.6700   46.9170 C   0  0  0  0  0  0  0  0  0  0  0  0
   59.6330   28.3730   46.5360 C   0  0  0  0  0  0  0  0  0  0  0  0
   60.3710   27.3080   47.0840 O   0  0  0  0  0  0  0  0  0  0  0  0
   60.7530   26.1210   46.3800 C   0  0  0  0  0  0  0  0  0  0  0  0
   58.5200   28.1660   45.6900 C   0  0  0  0  0  0  0  0  0  0  0  0
   58.1190   26.8500   45.3910 O   0  0  0  0  0  0  0  0  0  0  0  0
   57.8160   26.3770   44.0780 C   0  0  0  0  0  0  0  0  0  0  0  0
   57.7990   29.2850   45.2180 C   0  0  0  0  0  0  0  0  0  0  0  0
   58.1560   30.5900   45.6160 C   0  0  0  0  0  0  0  0  0  0  0  0
   57.4250   31.7240   45.2190 C   0  0  0  0  0  0  0  0  0  0  0  0
   56.3840   31.5780   44.5150 O   0  0  0  0  0  0  0  0  0  0  0  0
   57.8240   32.9830   45.6110 N   0  0  0  0  0  0  0  0  0  0  0  0
   57.0350   34.1680   45.2300 C   0  0  0  0  0  0  0  0  0  0  0  0
   63.6709   34.6007   47.1840 H   0  0  0  0  0  0  0  0  0  0  0  0
   64.2603   33.6136   45.8038 H   0  0  0  0  0  0  0  0  0  0  0  0
   62.5781   34.2437   45.8038 H   0  0  0  0  0  0  0  0  0  0  0  0
   62.1196   32.1168   46.5334 H   0  0  0  0  0  0  0  0  0  0  0  0
   63.7799   31.9101   47.2439 H   0  0  0  0  0  0  0  0  0  0  0  0
   61.6443   32.0748   48.8153 H   0  0  0  0  0  0  0  0  0  0  0  0
   63.2136   32.8884   49.2447 H   0  0  0  0  0  0  0  0  0  0  0  0
   61.9388   34.7238   49.5774 H   0  0  0  0  0  0  0  0  0  0  0  0
   61.9470   34.8321   47.7690 H   0  0  0  0  0  0  0  0  0  0  0  0
   59.8665   33.0026   48.6957 H   0  0  0  0  0  0  0  0  0  0  0  0
   59.6854   34.6237   49.4551 H   0  0  0  0  0  0  0  0  0  0  0  0
   60.8475   29.8238   47.5848 H   0  0  0  0  0  0  0  0  0  0  0  0
   61.0070   25.3317   47.1028 H   0  0  0  0  0  0  0  0  0  0  0  0
   59.9178   25.7846   45.7482 H   0  0  0  0  0  0  0  0  0  0  0  0
   61.6277   26.3349   45.7482 H   0  0  0  0  0  0  0  0  0  0  0  0
   57.2239   25.4527   44.1488 H   0  0  0  0  0  0  0  0  0  0  0  0
   57.2391   27.1415   43.5369 H   0  0  0  0  0  0  0  0  0  0  0  0
   58.7516   26.1725   43.5369 H   0  0  0  0  0  0  0  0  0  0  0  0
   56.9508   29.1372   44.5333 H   0  0  0  0  0  0  0  0  0  0  0  0
   56.6901   34.6860   46.1370 H   0  0  0  0  0  0  0  0  0  0  0  0
   57.6606   34.8490   44.6343 H   0  0  0  0  0  0  0  0  0  0  0  0
   56.1654   33.8535   44.6343 H   0  0  0  0  0  0  0  0  0  0  0  0
  1  2  1  0
  2  3  1  0
  3  4  1  0
  4  5  1  0
  5  6  1  0
  6  7  1  0
  7  8  2  0
  8  9  1  0
  9 10  2  0
 10 11  1  0
 11 12  1  0
 12 13  1  0
 11 14  2  0
 14 15  1  0
 15 16  1  0
 14 17  1  0
 17 18  2  0
 18 19  1  0
 19 20  2  0
 19 21  1  0
 21 22  1  0
 21  7  1  0
 18  9  1  0
  1 23  1  0
  1 24  1  0
  1 25  1  0
  2 26  1  0
  2 27  1  0
  3 28  1  0
  3 29  1  0
  4 30  1  0
  4 31  1  0
  5 32  1  0
  5 33  1  0
 10 34  1  0
 13 35  1  0
 13 36  1  0
 13 37  1  0
 16 38  1  0
 16 39  1  0
 16 40  1  0
 17 41  1  0
 22 42  1  0
 22 43  1  0
 22 44  1  0
M  END
>  <UniqueID>  (12) 
12

>  <SMILES>  (12) 
CCCCCSc1nc2cc(OC)c(OC)cc2c(=O)n1C

>  <Energy>  (12) 
50.320014477022575

>  <Genealogy>  (12) 
CCCCCSc1nc2cc(OC)c(OC)cc2c(=O)n1C (3D coordinates assigned)
CCCCCSc1nc2cc(OC)c(OC)cc2c(=O)n1C (optimized conformer: 50.320014477022575 kcal/mol)

>  <smiles>  (12) 
CCCCCSc1nc2cc(OC)c(OC)cc2c(=O)n1C

>  <score_type>  (12) 
oracle

>  <origin>  (12) 
adg

>  <m_score__min__energy>  (12) 
-5.96

>  <m_primary>  (12) 
energy

$$$$
12:0
     RDKit          3D

 61 63  0  0  0  0  0  0  0  0999 V2000
   57.7390   32.3190   41.6780 C   0  0  0  0  0  0  0  0  0  0  0  0
   57.1430   31.2640   42.6060 C   0  0  0  0  0  0  0  0  0  0  0  0
   58.1040   30.9310   43.7580 C   0  0  0  0  0  0  0  0  0  0  0  0
   57.4300   31.0010   45.1420 C   0  0  0  0  0  0  0  0  0  0  0  0
   57.7850   32.2430   45.9820 C   0  0  0  0  0  0  0  0  0  0  0  0
   57.4190   33.5630   45.2780 C   0  0  0  0  0  0  0  0  0  0  0  0
   58.6020   34.1920   44.5240 C   0  0  0  0  0  0  0  0  0  0  0  0
   59.2820   35.3300   45.2980 C   0  0  0  0  0  0  0  0  0  0  0  0
   59.2890   35.0280   46.6940 O   0  0  0  0  0  0  0  0  0  0  0  0
   60.2350   34.2100   47.3330 C   0  0  0  0  0  0  0  0  0  0  0  0
   60.5840   34.3890   48.6250 C   0  0  0  0  0  0  0  0  0  0  0  0
   61.6360   33.5190   49.2650 C   0  0  2  0  0  0  0  0  0  0  0  0
   63.0450   33.8530   48.6440 C   0  0  1  0  0  0  0  0  0  0  0  0
   64.0770   33.5450   49.5590 O   0  0  0  0  0  0  0  0  0  0  0  0
   63.6640   33.8420   50.8760 C   0  0  0  0  0  0  0  0  0  0  0  0
   63.1250   32.8930   47.4700 C   0  0  0  0  0  0  0  0  0  0  0  0
   64.0700   32.7920   46.7040 O   0  0  0  0  0  0  0  0  0  0  0  0
   61.8250   32.1820   47.3340 C   0  0  1  0  0  0  0  0  0  0  0  0
   60.8530   33.0890   46.5170 C   0  0  0  0  0  0  0  0  0  0  0  0
   61.7320   30.8390   46.8970 O   0  0  0  0  0  0  0  0  0  0  0  0
   60.7560   30.2040   47.6770 C   0  0  0  0  0  0  0  0  0  0  0  0
   60.3430   29.0410   47.4350 O   0  0  0  0  0  0  0  0  0  0  0  0
   60.3680   31.0040   48.8990 C   0  0  2  0  0  0  0  0  0  0  0  0
   58.8920   31.4840   49.0310 C   0  0  0  0  0  0  0  0  0  0  0  0
   58.5200   32.3140   50.2760 C   0  0  0  0  0  0  0  0  0  0  0  0
   57.6650   31.5070   51.2480 C   0  0  0  0  0  0  0  0  0  0  0  0
   61.4730   32.0730   48.8050 C   0  0  2  0  0  0  0  0  0  0  0  0
   58.1923   33.1215   42.2784 H   0  0  0  0  0  0  0  0  0  0  0  0
   58.5091   31.8562   41.0434 H   0  0  0  0  0  0  0  0  0  0  0  0
   56.9451   32.7397   41.0434 H   0  0  0  0  0  0  0  0  0  0  0  0
   56.1999   31.6456   43.0243 H   0  0  0  0  0  0  0  0  0  0  0  0
   56.9662   30.3476   42.0238 H   0  0  0  0  0  0  0  0  0  0  0  0
   58.4920   29.9127   43.6079 H   0  0  0  0  0  0  0  0  0  0  0  0
   58.9076   31.6820   43.7444 H   0  0  0  0  0  0  0  0  0  0  0  0
   56.3405   30.9924   44.9908 H   0  0  0  0  0  0  0  0  0  0  0  0
   57.8019   30.1336   45.7071 H   0  0  0  0  0  0  0  0  0  0  0  0
   57.2395   32.1901   46.9357 H   0  0  0  0  0  0  0  0  0  0  0  0
   58.8743   32.2397   46.1348 H   0  0  0  0  0  0  0  0  0  0  0  0
   56.6112   33.3638   44.5584 H   0  0  0  0  0  0  0  0  0  0  0  0
   57.1100   34.2756   46.0569 H   0  0  0  0  0  0  0  0  0  0  0  0
   59.3484   33.4077   44.3297 H   0  0  0  0  0  0  0  0  0  0  0  0
   58.2022   34.6245   43.5950 H   0  0  0  0  0  0  0  0  0  0  0  0
   60.3171   35.4451   44.9439 H   0  0  0  0  0  0  0  0  0  0  0  0
   58.7274   36.2652   45.1312 H   0  0  0  0  0  0  0  0  0  0  0  0
   60.0959   35.1775   49.2166 H   0  0  0  0  0  0  0  0  0  0  0  0
   61.5490   33.6726   50.3507 H   0  0  0  0  0  0  0  0  0  0  0  0
   63.1562   34.9140   48.3757 H   0  0  0  0  0  0  0  0  0  0  0  0
   64.3422   33.3543   51.5917 H   0  0  0  0  0  0  0  0  0  0  0  0
   63.6884   34.9307   51.0312 H   0  0  0  0  0  0  0  0  0  0  0  0
   62.6397   33.4724   51.0312 H   0  0  0  0  0  0  0  0  0  0  0  0
   61.4133   33.5351   45.6821 H   0  0  0  0  0  0  0  0  0  0  0  0
   60.0276   32.4484   46.1731 H   0  0  0  0  0  0  0  0  0  0  0  0
   60.3361   30.4367   49.8409 H   0  0  0  0  0  0  0  0  0  0  0  0
   58.6651   32.0975   48.1466 H   0  0  0  0  0  0  0  0  0  0  0  0
   58.3048   30.5587   49.1264 H   0  0  0  0  0  0  0  0  0  0  0  0
   59.4429   32.6272   50.7862 H   0  0  0  0  0  0  0  0  0  0  0  0
   57.9391   33.1887   49.9480 H   0  0  0  0  0  0  0  0  0  0  0  0
   57.9401   31.7666   52.2809 H   0  0  0  0  0  0  0  0  0  0  0  0
   56.6027   31.7394   51.0820 H   0  0  0  0  0  0  0  0  0  0  0  0
   57.8357   30.4331   51.0820 H   0  0  0  0  0  0  0  0  0  0  0  0
   62.0024   31.6178   49.6550 H   0  0  0  0  0  0  0  0  0  0  0  0
  1  2  1  0
  2  3  1  0
  3  4  1  0
  4  5  1  0
  5  6  1  0
  6  7  1  0
  7  8  1  0
  8  9  1  0
  9 10  1  0
 10 11  2  0
 11 12  1  0
 12 13  1  0
 13 14  1  0
 14 15  1  0
 13 16  1  0
 16 17  2  0
 16 18  1  0
 18 19  1  0
 18 20  1  6
 20 21  1  0
 21 22  2  0
 21 23  1  0
 23 24  1  0
 24 25  1  0
 25 26  1  0
 23 27  1  0
 19 10  1  0
 27 12  1  0
 27 18  1  0
  1 28  1  0
  1 29  1  0
  1 30  1  0
  2 31  1  0
  2 32  1  0
  3 33  1  0
  3 34  1  0
  4 35  1  0
  4 36  1  0
  5 37  1  0
  5 38  1  0
  6 39  1  0
  6 40  1  0
  7 41  1  0
  7 42  1  0
  8 43  1  0
  8 44  1  0
 11 45  1  0
 12 46  1  1
 13 47  1  6
 15 48  1  0
 15 49  1  0
 15 50  1  0
 19 51  1  0
 19 52  1  0
 23 53  1  1
 24 54  1  0
 24 55  1  0
 25 56  1  0
 25 57  1  0
 26 58  1  0
 26 59  1  0
 26 60  1  0
 27 61  1  1
M  END
>  <UniqueID>  (13) 
13

>  <SMILES>  (13) 
CCCCCCCCOC1=C[C@H]2C3C(CCC)C(=O)OC3(C1)C(=O)[C@@H]2OC

>  <Energy>  (13) 
117.71412424500524

>  <Genealogy>  (13) 
CCCCCCCCOC1=C[C@H]2C3C(CCC)C(=O)OC3(C1)C(=O)[C@@H]2OC (chirality)
CCCCCCCCOC1=C[C@H]2C3C(CCC)C(=O)OC3(C1)C(=O)[C@@H]2OC (3D coordinates assigned)
CCCCCCCCOC1=C[C@H]2C3C(CCC)C(=O)OC3(C1)C(=O)[C@@H]2OC (nonaromatic ring conformer: 117.71412424500524 kcal/mol)

>  <smiles>  (13) 
CCCCCCCCOC1=CC2C(OC)C(=O)C3(C1)OC(=O)C(CCC)C23

>  <score_type>  (13) 
oracle

>  <origin>  (13) 
adg

>  <m_score__min__energy>  (13) 
-7.9100000000000001

>  <m_primary>  (13) 
energy

$$$$
13:0
     RDKit          3D

 57 60  0  0  0  0  0  0  0  0999 V2000
   63.0120   34.5630   50.3820 C   0  0  0  0  0  0  0  0  0  0  0  0
   62.4070   34.0410   49.0680 C   0  0  0  0  0  0  0  0  0  0  0  0
   61.7040   32.7250   49.1570 N   0  0  1  0  0  0  0  0  0  0  0  0
   62.1540   31.8880   48.0110 C   0  0  0  0  0  0  0  0  0  0  0  0
   61.4470   30.5140   48.0300 C   0  0  0  0  0  0  0  0  0  0  0  0
   60.5350   30.4020   49.2050 N   0  0  1  0  0  0  0  0  0  0  0  0
   59.9130   29.0360   49.1680 C   0  0  0  0  0  0  0  0  0  0  0  0
   60.0830   28.2060   47.8690 C   0  0  0  0  0  0  0  0  0  0  0  0
   59.0510   28.4880   46.8060 C   0  0  0  0  0  0  0  0  0  0  0  0
   57.9060   27.6850   46.7010 C   0  0  0  0  0  0  0  0  0  0  0  0
   56.9230   27.9510   45.7290 C   0  0  0  0  0  0  0  0  0  0  0  0
   55.7610   27.1670   45.6220 O   0  0  0  0  0  0  0  0  0  0  0  0
   55.7080   25.7620   45.8460 C   0  0  0  0  0  0  0  0  0  0  0  0
   57.1070   29.0320   44.8420 C   0  0  0  0  0  0  0  0  0  0  0  0
   56.1500   29.3430   43.8630 C   0  0  0  0  0  0  0  0  0  0  0  0
   56.3650   30.4190   43.0010 C   0  0  0  0  0  0  0  0  0  0  0  0
   57.5040   31.1670   43.0880 N   0  0  0  0  0  0  0  0  0  0  0  0
   57.6860   32.3150   42.1960 C   0  0  0  0  0  0  0  0  0  0  0  0
   58.4420   30.8980   44.0440 C   0  0  0  0  0  0  0  0  0  0  0  0
   58.2700   29.8280   44.9330 C   0  0  0  0  0  0  0  0  0  0  0  0
   59.2360   29.5480   45.9070 C   0  0  0  0  0  0  0  0  0  0  0  0
   61.3580   30.6040   50.4310 C   0  0  0  0  0  0  0  0  0  0  0  0
   62.0350   32.0000   50.4140 C   0  0  0  0  0  0  0  0  0  0  0  0
   59.5280   31.4940   49.1080 C   0  0  0  0  0  0  0  0  0  0  0  0
   60.2250   32.8800   49.0600 C   0  0  0  0  0  0  0  0  0  0  0  0
   62.4853   34.1086   51.2341 H   0  0  0  0  0  0  0  0  0  0  0  0
   64.0784   34.2969   50.4259 H   0  0  0  0  0  0  0  0  0  0  0  0
   62.9050   35.6569   50.4259 H   0  0  0  0  0  0  0  0  0  0  0  0
   61.6832   34.7874   48.7090 H   0  0  0  0  0  0  0  0  0  0  0  0
   63.2572   33.8819   48.3883 H   0  0  0  0  0  0  0  0  0  0  0  0
   61.9145   32.4048   47.0699 H   0  0  0  0  0  0  0  0  0  0  0  0
   63.2394   31.7293   48.0925 H   0  0  0  0  0  0  0  0  0  0  0  0
   60.8608   30.3976   47.1065 H   0  0  0  0  0  0  0  0  0  0  0  0
   62.2112   29.7260   48.1013 H   0  0  0  0  0  0  0  0  0  0  0  0
   60.3506   28.4524   49.9914 H   0  0  0  0  0  0  0  0  0  0  0  0
   58.8310   29.2190   49.2437 H   0  0  0  0  0  0  0  0  0  0  0  0
   61.0763   28.4240   47.4497 H   0  0  0  0  0  0  0  0  0  0  0  0
   59.9579   27.1509   48.1538 H   0  0  0  0  0  0  0  0  0  0  0  0
   57.7742   26.8357   47.3875 H   0  0  0  0  0  0  0  0  0  0  0  0
   55.7005   25.5632   46.9279 H   0  0  0  0  0  0  0  0  0  0  0  0
   54.7938   25.3525   45.3916 H   0  0  0  0  0  0  0  0  0  0  0  0
   56.5888   25.2848   45.3916 H   0  0  0  0  0  0  0  0  0  0  0  0
   55.2338   28.7405   43.7758 H   0  0  0  0  0  0  0  0  0  0  0  0
   55.6081   30.6675   42.2425 H   0  0  0  0  0  0  0  0  0  0  0  0
   57.8304   33.2259   42.7955 H   0  0  0  0  0  0  0  0  0  0  0  0
   58.5692   32.1499   41.5614 H   0  0  0  0  0  0  0  0  0  0  0  0
   56.7950   32.4311   41.5614 H   0  0  0  0  0  0  0  0  0  0  0  0
   59.3412   31.5273   44.1169 H   0  0  0  0  0  0  0  0  0  0  0  0
   60.1457   30.1634   45.9673 H   0  0  0  0  0  0  0  0  0  0  0  0
   60.7106   30.5275   51.3170 H   0  0  0  0  0  0  0  0  0  0  0  0
   62.1409   29.8319   50.4622 H   0  0  0  0  0  0  0  0  0  0  0  0
   61.6785   32.5856   51.2742 H   0  0  0  0  0  0  0  0  0  0  0  0
   63.1254   31.8671   50.4713 H   0  0  0  0  0  0  0  0  0  0  0  0
   58.9336   31.3568   48.1927 H   0  0  0  0  0  0  0  0  0  0  0  0
   58.8779   31.4555   49.9945 H   0  0  0  0  0  0  0  0  0  0  0  0
   59.9748   33.3782   48.1117 H   0  0  0  0  0  0  0  0  0  0  0  0
   59.8744   33.4837   49.9101 H   0  0  0  0  0  0  0  0  0  0  0  0
  1  2  1  0
  3  2  1  1
  3  4  1  0
  4  5  1  0
  5  6  1  0
  6  7  1  1
  7  8  1  0
  8  9  1  0
  9 10  2  0
 10 11  1  0
 11 12  1  0
 12 13  1  0
 11 14  2  0
 14 15  1  0
 15 16  2  0
 16 17  1  0
 17 18  1  0
 17 19  2  0
 19 20  1  0
 20 21  2  0
  6 22  1  0
 22 23  1  0
  6 24  1  0
 24 25  1  0
 23  3  1  0
 25  3  1  0
 21  9  1  0
 20 14  1  0
  1 26  1  0
  1 27  1  0
  1 28  1  0
  2 29  1  0
  2 30  1  0
  4 31  1  0
  4 32  1  0
  5 33  1  0
  5 34  1  0
  7 35  1  0
  7 36  1  0
  8 37  1  0
  8 38  1  0
 10 39  1  0
 13 40  1  0
 13 41  1  0
 13 42  1  0
 15 43  1  0
 16 44  1  0
 18 45  1  0
 18 46  1  0
 18 47  1  0
 19 48  1  0
 21 49  1  0
 22 50  1  0
 22 51  1  0
 23 52  1  0
 23 53  1  0
 24 54  1  0
 24 55  1  0
 25 56  1  0
 25 57  1  0
M  CHG  3   3   1   6   1  17   1
M  END
>  <UniqueID>  (14) 
14

>  <SMILES>  (14) 
CC[N+]12CC[N+](CCc3cc(OC)c4cc[n+](C)cc4c3)(CC1)CC2

>  <Energy>  (14) 
91.74447878390964

>  <Genealogy>  (14) 
CC[N+]12CC[N+](CCc3cc(OC)c4cc[n+](C)cc4c3)(CC1)CC2 (3D coordinates assigned)
CC[N+]12CC[N+](CCc3cc(OC)c4cc[n+](C)cc4c3)(CC1)CC2 (nonaromatic ring conformer: 91.74447878390964 kcal/mol)

>  <smiles>  (14) 
CC[N+]12CC[N+](CCc3cc(OC)c4cc[n+](C)cc4c3)(CC1)CC2

>  <score_type>  (14) 
oracle

>  <origin>  (14) 
adg

>  <m_score__min__energy>  (14) 
-3.3799999999999999

>  <m_primary>  (14) 
energy

$$$$
14:0
     RDKit          3D

 34 35  0  0  0  0  0  0  0  0999 V2000
   56.0950   23.1490   47.9190 C   0  0  0  0  0  0  0  0  0  0  0  0
   56.3640   21.9980   48.8820 C   0  0  0  0  0  0  0  0  0  0  0  0
   57.3610   21.0880   48.3100 N   0  0  0  0  0  0  0  0  0  0  0  0
   56.7410   19.8170   47.9140 C   0  0  0  0  0  0  0  0  0  0  0  0
   56.4730   19.7980   46.3970 C   0  0  0  0  0  0  0  0  0  0  0  0
   57.6670   20.1330   45.5990 N   0  0  0  0  0  0  0  0  0  0  0  0
   57.6210   21.4860   45.1070 C   0  0  0  0  0  0  0  0  0  0  0  0
   56.8100   21.8220   44.0110 C   0  0  0  0  0  0  0  0  0  0  0  0
   56.7270   23.1530   43.5920 C   0  0  0  0  0  0  0  0  0  0  0  0
   55.9930   23.4460   42.6080 O   0  0  0  0  0  0  0  0  0  0  0  0
   57.4560   24.1460   44.2720 C   0  0  0  0  0  0  0  0  0  0  0  0
   57.3970   25.5020   43.9000 C   0  0  0  0  0  0  0  0  0  0  0  0
   58.1300   26.4590   44.6110 C   0  0  0  0  0  0  0  0  0  0  0  0
   58.0420   28.2970   44.1040 Br  0  0  0  0  0  0  0  0  0  0  0  0
   58.9260   26.0710   45.6940 C   0  0  0  0  0  0  0  0  0  0  0  0
   58.9940   24.7270   46.0710 C   0  0  0  0  0  0  0  0  0  0  0  0
   58.2640   23.7630   45.3680 C   0  0  0  0  0  0  0  0  0  0  0  0
   58.3210   22.4600   45.7490 N   0  0  0  0  0  0  0  0  0  0  0  0
   55.8812   24.0637   48.4914 H   0  0  0  0  0  0  0  0  0  0  0  0
   56.9794   23.3113   47.2854 H   0  0  0  0  0  0  0  0  0  0  0  0
   55.2303   22.9025   47.2854 H   0  0  0  0  0  0  0  0  0  0  0  0
   56.7414   22.4001   49.8338 H   0  0  0  0  0  0  0  0  0  0  0  0
   55.4285   21.4459   49.0549 H   0  0  0  0  0  0  0  0  0  0  0  0
   57.7560   21.5360   47.4490 H   0  0  0  0  0  0  0  0  0  0  0  0
   57.4166   18.9884   48.1728 H   0  0  0  0  0  0  0  0  0  0  0  0
   55.7846   19.7063   48.4460 H   0  0  0  0  0  0  0  0  0  0  0  0
   56.1324   18.7913   46.1133 H   0  0  0  0  0  0  0  0  0  0  0  0
   55.7105   20.5625   46.1869 H   0  0  0  0  0  0  0  0  0  0  0  0
   58.5290   19.9950   46.1770 H   0  0  0  0  0  0  0  0  0  0  0  0
   57.7260   19.4760   44.7860 H   0  0  0  0  0  0  0  0  0  0  0  0
   56.2422   21.0409   43.4842 H   0  0  0  0  0  0  0  0  0  0  0  0
   56.7731   25.8105   43.0482 H   0  0  0  0  0  0  0  0  0  0  0  0
   59.5002   26.8262   46.2506 H   0  0  0  0  0  0  0  0  0  0  0  0
   59.6228   24.4267   46.9222 H   0  0  0  0  0  0  0  0  0  0  0  0
  1  2  1  0
  2  3  1  0
  3  4  1  0
  4  5  1  0
  5  6  1  0
  6  7  1  0
  7  8  2  0
  8  9  1  0
  9 10  2  0
  9 11  1  0
 11 12  2  0
 12 13  1  0
 13 14  1  0
 13 15  2  0
 15 16  1  0
 16 17  2  0
 17 18  1  0
 18  7  1  0
 17 11  1  0
  1 19  1  0
  1 20  1  0
  1 21  1  0
  2 22  1  0
  2 23  1  0
  3 24  1  0
  4 25  1  0
  4 26  1  0
  5 27  1  0
  5 28  1  0
  6 29  1  0
  6 30  1  0
  8 31  1  0
 12 32  1  0
 15 33  1  0
 16 34  1  0
M  CHG  2   6   1  18  -1
M  END
>  <UniqueID>  (15) 
15

>  <SMILES>  (15) 
CCNCC[NH2+]c1cc(=O)c2cc(Br)ccc2[n-]1

>  <Energy>  (15) 
32.10913118772527

>  <Genealogy>  (15) 
CCNCC[NH2+]c1cc(=O)c2cc(Br)ccc2[n-]1 (protonated)
CCNCC[NH2+]c1cc(=O)c2cc(Br)ccc2[n-]1 (3D coordinates assigned)
CCNCC[NH2+]c1cc(=O)c2cc(Br)ccc2[n-]1 (optimized conformer: 32.10913118772527 kcal/mol)

>  <smiles>  (15) 
CCNCCNc1cc(=O)c2cc(Br)ccc2[nH]1

>  <score_type>  (15) 
oracle

>  <origin>  (15) 
adg

>  <m_score__min__energy>  (15) 
-6.1299999999999999

>  <m_primary>  (15) 
energy

$$$$
15:0
     RDKit          3D

 45 48  0  0  0  0  0  0  0  0999 V2000
   56.4090   29.3470   42.6390 C   0  0  0  0  0  0  0  0  0  0  0  0
   57.0200   30.3870   43.5220 C   0  0  0  0  0  0  0  0  0  0  0  0
   57.2950   31.6640   43.0260 C   0  0  0  0  0  0  0  0  0  0  0  0
   57.8610   32.6250   43.8650 C   0  0  0  0  0  0  0  0  0  0  0  0
   58.1580   32.3140   45.2100 C   0  0  0  0  0  0  0  0  0  0  0  0
   57.8570   31.0050   45.6620 C   0  0  0  0  0  0  0  0  0  0  0  0
   58.1160   30.6440   46.9420 N   0  0  0  0  0  0  0  0  0  0  0  0
   58.6640   31.5000   47.8370 C   0  0  0  0  0  0  0  0  0  0  0  0
   58.9870   32.8120   47.4610 C   0  0  0  0  0  0  0  0  0  0  0  0
   59.5630   33.7060   48.3870 C   0  0  0  0  0  0  0  0  0  0  0  0
   59.8090   33.2640   49.7000 O   0  0  0  0  0  0  0  0  0  0  0  0
   61.0030   33.4940   50.4460 C   0  0  0  0  0  0  0  0  0  0  0  0
   62.1130   34.0720   49.5600 C   0  0  0  0  0  0  0  0  0  0  0  0
   63.0870   33.0100   49.2090 N   0  0  0  0  0  0  0  0  0  0  0  0
   62.4340   31.7340   48.8340 C   0  0  0  0  0  0  0  0  0  0  0  0
   62.1240   31.6530   47.3240 C   0  0  0  0  0  0  0  0  0  0  0  0
   62.0520   32.9440   46.7560 O   0  0  0  0  0  0  0  0  0  0  0  0
   63.3310   33.5540   46.7800 C   0  0  0  0  0  0  0  0  0  0  0  0
   64.0280   33.4380   48.1560 C   0  0  0  0  0  0  0  0  0  0  0  0
   59.8730   34.9770   47.9940 N   0  0  0  0  0  0  0  0  0  0  0  0
   59.6450   35.4070   46.7280 C   0  0  0  0  0  0  0  0  0  0  0  0
   59.0790   34.5570   45.7800 C   0  0  0  0  0  0  0  0  0  0  0  0
   58.7360   33.2350   46.1300 C   0  0  0  0  0  0  0  0  0  0  0  0
   57.3050   30.0940   44.8180 N   0  0  0  0  0  0  0  0  0  0  0  0
   55.9488   28.5637   43.2592 H   0  0  0  0  0  0  0  0  0  0  0  0
   55.6399   29.8110   42.0040 H   0  0  0  0  0  0  0  0  0  0  0  0
   57.1887   28.9010   42.0040 H   0  0  0  0  0  0  0  0  0  0  0  0
   57.0664   31.9108   41.9787 H   0  0  0  0  0  0  0  0  0  0  0  0
   58.0771   33.6310   43.4761 H   0  0  0  0  0  0  0  0  0  0  0  0
   58.8572   31.1638   48.8664 H   0  0  0  0  0  0  0  0  0  0  0  0
   60.7867   34.2041   51.2578 H   0  0  0  0  0  0  0  0  0  0  0  0
   61.3490   32.5317   50.8513 H   0  0  0  0  0  0  0  0  0  0  0  0
   61.6694   34.4782   48.6390 H   0  0  0  0  0  0  0  0  0  0  0  0
   62.6328   34.8716   50.1082 H   0  0  0  0  0  0  0  0  0  0  0  0
   63.1026   30.9028   49.1024 H   0  0  0  0  0  0  0  0  0  0  0  0
   61.4787   31.6742   49.3761 H   0  0  0  0  0  0  0  0  0  0  0  0
   62.9198   31.0825   46.8227 H   0  0  0  0  0  0  0  0  0  0  0  0
   61.1525   31.1547   47.1901 H   0  0  0  0  0  0  0  0  0  0  0  0
   63.9653   33.0691   46.0234 H   0  0  0  0  0  0  0  0  0  0  0  0
   63.1898   34.6247   46.5709 H   0  0  0  0  0  0  0  0  0  0  0  0
   64.8410   32.7006   48.0830 H   0  0  0  0  0  0  0  0  0  0  0  0
   64.4191   34.4296   48.4274 H   0  0  0  0  0  0  0  0  0  0  0  0
   60.2940   35.6580   48.6620 H   0  0  0  0  0  0  0  0  0  0  0  0
   59.9096   36.4370   46.4468 H   0  0  0  0  0  0  0  0  0  0  0  0
   58.8994   34.9181   44.7566 H   0  0  0  0  0  0  0  0  0  0  0  0
  1  2  1  0
  2  3  2  0
  3  4  1  0
  4  5  2  0
  5  6  1  0
  6  7  1  0
  7  8  2  0
  8  9  1  0
  9 10  2  0
 10 11  1  0
 11 12  1  0
 12 13  1  0
 13 14  1  0
 14 15  1  0
 15 16  1  0
 16 17  1  0
 17 18  1  0
 18 19  1  0
 10 20  1  0
 20 21  2  0
 21 22  1  0
 22 23  2  0
  6 24  2  0
 24  2  1  0
 23  5  1  0
 23  9  1  0
 19 14  1  0
  1 25  1  0
  1 26  1  0
  1 27  1  0
  3 28  1  0
  4 29  1  0
  8 30  1  0
 12 31  1  0
 12 32  1  0
 13 33  1  0
 13 34  1  0
 15 35  1  0
 15 36  1  0
 16 37  1  0
 16 38  1  0
 18 39  1  0
 18 40  1  0
 19 41  1  0
 19 42  1  0
 20 43  1  0
 21 44  1  0
 22 45  1  0
M  CHG  1  20   1
M  END
>  <UniqueID>  (16) 
16

>  <SMILES>  (16) 
Cc1ccc2c(ncc3c(OCCN4CCOCC4)[nH+]ccc32)n1

>  <Energy>  (16) 
69.80262290223952

>  <Genealogy>  (16) 
Cc1ccc2c(ncc3c(OCCN4CCOCC4)[nH+]ccc32)n1 (protonated)
Cc1ccc2c(ncc3c(OCCN4CCOCC4)[nH+]ccc32)n1 (3D coordinates assigned)
Cc1ccc2c(ncc3c(OCCN4CCOCC4)[nH+]ccc32)n1 (nonaromatic ring conformer: 69.80262290223952 kcal/mol)

>  <smiles>  (16) 
Cc1ccc2c(ncc3c(OCCN4CCOCC4)nccc32)n1

>  <score_type>  (16) 
oracle

>  <origin>  (16) 
adg

>  <m_score__min__energy>  (16) 
-6.2999999999999998

>  <m_primary>  (16) 
energy

$$$$
16:0
     RDKit          3D

 53 55  0  0  0  0  0  0  0  0999 V2000
   65.2350   32.7850   49.7310 C   0  0  0  0  0  0  0  0  0  0  0  0
   64.0730   31.9820   49.1550 C   0  0  0  0  0  0  0  0  0  0  0  0
   63.6680   32.5280   47.8500 N   0  0  0  0  0  0  0  0  0  0  0  0
   62.9380   33.8020   47.9720 C   0  0  0  0  0  0  0  0  0  0  0  0
   62.0800   33.8600   49.2490 C   0  0  0  0  0  0  0  0  0  0  0  0
   60.6980   33.2320   49.0090 C   0  0  0  0  0  0  0  0  0  0  0  0
   60.7720   31.7220   48.7220 C   0  0  0  0  0  0  0  0  0  0  0  0
   61.1790   31.3980   47.3350 N   0  0  0  0  0  0  0  0  0  0  0  0
   60.0420   31.1320   46.4580 C   0  0  0  0  0  0  0  0  0  0  0  0
   59.2680   32.1930   45.9010 C   0  0  0  0  0  0  0  0  0  0  0  0
   59.5320   33.5560   46.2030 C   0  0  0  0  0  0  0  0  0  0  0  0
   58.7450   34.5810   45.6940 C   0  0  0  0  0  0  0  0  0  0  0  0
   57.6720   34.2870   44.8720 C   0  0  0  0  0  0  0  0  0  0  0  0
   57.3930   32.9690   44.5360 C   0  0  0  0  0  0  0  0  0  0  0  0
   58.1920   31.8900   45.0140 C   0  0  0  0  0  0  0  0  0  0  0  0
   57.9350   30.5840   44.6370 N   0  0  0  0  0  0  0  0  0  0  0  0
   56.9870   30.3040   43.5250 C   0  0  0  0  0  0  0  0  0  0  0  0
   55.5710   30.0540   44.0500 C   0  0  0  0  0  0  0  0  0  0  0  0
   58.5910   29.5370   45.2620 C   0  0  0  0  0  0  0  0  0  0  0  0
   58.2110   28.1840   45.0380 C   0  0  0  0  0  0  0  0  0  0  0  0
   58.9000   27.1280   45.6260 C   0  0  0  0  0  0  0  0  0  0  0  0
   59.9770   27.3790   46.4570 C   0  0  0  0  0  0  0  0  0  0  0  0
   60.3590   28.6880   46.7250 C   0  0  0  0  0  0  0  0  0  0  0  0
   59.6710   29.7920   46.1560 C   0  0  0  0  0  0  0  0  0  0  0  0
   65.1921   32.7554   50.8298 H   0  0  0  0  0  0  0  0  0  0  0  0
   66.1860   32.3505   49.3893 H   0  0  0  0  0  0  0  0  0  0  0  0
   65.1648   33.8282   49.3893 H   0  0  0  0  0  0  0  0  0  0  0  0
   64.3839   30.9345   49.0287 H   0  0  0  0  0  0  0  0  0  0  0  0
   63.2201   32.0428   49.8470 H   0  0  0  0  0  0  0  0  0  0  0  0
   64.5200   32.6670   47.2580 H   0  0  0  0  0  0  0  0  0  0  0  0
   63.6658   34.6265   47.9963 H   0  0  0  0  0  0  0  0  0  0  0  0
   62.2635   33.8891   47.1074 H   0  0  0  0  0  0  0  0  0  0  0  0
   62.5915   33.3092   50.0521 H   0  0  0  0  0  0  0  0  0  0  0  0
   61.9431   34.9138   49.5333 H   0  0  0  0  0  0  0  0  0  0  0  0
   60.0797   33.3898   49.9050 H   0  0  0  0  0  0  0  0  0  0  0  0
   60.2627   33.7170   48.1229 H   0  0  0  0  0  0  0  0  0  0  0  0
   61.5017   31.2729   49.4118 H   0  0  0  0  0  0  0  0  0  0  0  0
   59.7583   31.3185   48.8618 H   0  0  0  0  0  0  0  0  0  0  0  0
   61.7980   30.5570   47.3540 H   0  0  0  0  0  0  0  0  0  0  0  0
   61.8300   32.1150   46.9590 H   0  0  0  0  0  0  0  0  0  0  0  0
   60.3810   33.8057   46.8563 H   0  0  0  0  0  0  0  0  0  0  0  0
   58.9751   35.6271   45.9447 H   0  0  0  0  0  0  0  0  0  0  0  0
   57.0389   35.0985   44.4840 H   0  0  0  0  0  0  0  0  0  0  0  0
   56.5336   32.7522   43.8845 H   0  0  0  0  0  0  0  0  0  0  0  0
   56.9691   31.1673   42.8436 H   0  0  0  0  0  0  0  0  0  0  0  0
   57.3267   29.3996   42.9990 H   0  0  0  0  0  0  0  0  0  0  0  0
   55.5821   30.0560   45.1499 H   0  0  0  0  0  0  0  0  0  0  0  0
   54.9005   30.8477   43.6887 H   0  0  0  0  0  0  0  0  0  0  0  0
   55.2128   29.0787   43.6887 H   0  0  0  0  0  0  0  0  0  0  0  0
   57.3526   27.9681   44.3848 H   0  0  0  0  0  0  0  0  0  0  0  0
   58.5878   26.0917   45.4297 H   0  0  0  0  0  0  0  0  0  0  0  0
   60.5315   26.5418   46.9060 H   0  0  0  0  0  0  0  0  0  0  0  0
   61.2133   28.8729   47.3928 H   0  0  0  0  0  0  0  0  0  0  0  0
  1  2  1  0
  2  3  1  0
  3  4  1  0
  4  5  1  0
  5  6  1  0
  6  7  1  0
  7  8  1  0
  8  9  1  0
  9 10  2  0
 10 11  1  0
 11 12  2  0
 12 13  1  0
 13 14  2  0
 14 15  1  0
 15 16  2  0
 16 17  1  0
 17 18  1  0
 16 19  1  0
 19 20  2  0
 20 21  1  0
 21 22  2  0
 22 23  1  0
 23 24  2  0
 24  9  1  0
 15 10  1  0
 24 19  1  0
  1 25  1  0
  1 26  1  0
  1 27  1  0
  2 28  1  0
  2 29  1  0
  3 30  1  0
  4 31  1  0
  4 32  1  0
  5 33  1  0
  5 34  1  0
  6 35  1  0
  6 36  1  0
  7 37  1  0
  7 38  1  0
  8 39  1  0
  8 40  1  0
 11 41  1  0
 12 42  1  0
 13 43  1  0
 14 44  1  0
 17 45  1  0
 17 46  1  0
 18 47  1  0
 18 48  1  0
 18 49  1  0
 20 50  1  0
 21 51  1  0
 22 52  1  0
 23 53  1  0
M  CHG  2   8   1  16   1
M  END
>  <UniqueID>  (17) 
17

>  <SMILES>  (17) 
CCNCCCC[NH2+]c1c2ccccc2[n+](CC)c2ccccc12

>  <Energy>  (17) 
76.93250879755294

>  <Genealogy>  (17) 
CCNCCCC[NH2+]c1c2ccccc2[n+](CC)c2ccccc12 (protonated)
CCNCCCC[NH2+]c1c2ccccc2[n+](CC)c2ccccc12 (3D coordinates assigned)
CCNCCCC[NH2+]c1c2ccccc2[n+](CC)c2ccccc12 (optimized conformer: 76.93250879755294 kcal/mol)

>  <smiles>  (17) 
CCNCCCCNc1c2ccccc2[n+](CC)c2ccccc12

>  <score_type>  (17) 
oracle

>  <origin>  (17) 
adg

>  <m_score__min__energy>  (17) 
-4.2400000000000002

>  <m_primary>  (17) 
energy

$$$$
17:0
     RDKit          3D

 47 48  0  0  0  0  0  0  0  0999 V2000
   60.2320   34.1950   48.8680 C   0  0  0  0  0  0  0  0  0  0  0  0
   59.2270   33.1310   48.4150 C   0  0  0  0  0  0  0  0  0  0  0  0
   58.9950   33.1160   46.9550 N   0  0  0  0  0  0  0  0  0  0  0  0
   58.3540   34.2980   46.3430 C   0  0  0  0  0  0  0  0  0  0  0  0
   58.8870   34.6210   44.9460 C   0  0  0  0  0  0  0  0  0  0  0  0
   58.7980   31.8070   46.3030 C   0  0  0  0  0  0  0  0  0  0  0  0
   57.4830   31.7250   45.6470 N   0  0  0  0  0  0  0  0  0  0  0  0
   57.6200   31.5130   44.1970 C   0  0  0  0  0  0  0  0  0  0  0  0
   56.3590   30.8660   43.6070 C   0  0  0  0  0  0  0  0  0  0  0  0
   56.3820   29.3290   43.6290 C   0  0  0  0  0  0  0  0  0  0  0  0
   56.1380   28.8120   44.9780 N   0  0  0  0  0  0  0  0  0  0  0  0
   57.1750   28.2470   45.7910 C   0  0  0  0  0  0  0  0  0  0  0  0
   57.5900   26.9160   45.6250 C   0  0  0  0  0  0  0  0  0  0  0  0
   58.5830   26.3880   46.4540 C   0  0  0  0  0  0  0  0  0  0  0  0
   58.9430   25.1880   46.3030 O   0  0  0  0  0  0  0  0  0  0  0  0
   59.1640   27.1970   47.4480 C   0  0  0  0  0  0  0  0  0  0  0  0
   60.1550   26.7110   48.3200 C   0  0  0  0  0  0  0  0  0  0  0  0
   60.7080   27.5510   49.2920 C   0  0  0  0  0  0  0  0  0  0  0  0
   60.2820   28.8780   49.4000 C   0  0  0  0  0  0  0  0  0  0  0  0
   59.2990   29.3720   48.5370 C   0  0  0  0  0  0  0  0  0  0  0  0
   58.7360   28.5400   47.5650 C   0  0  0  0  0  0  0  0  0  0  0  0
   57.7690   29.0200   46.7400 N   0  0  0  0  0  0  0  0  0  0  0  0
   60.2620   34.2267   49.9671 H   0  0  0  0  0  0  0  0  0  0  0  0
   61.2307   33.9444   48.4811 H   0  0  0  0  0  0  0  0  0  0  0  0
   59.9249   35.1778   48.4811 H   0  0  0  0  0  0  0  0  0  0  0  0
   59.6070   32.1437   48.7164 H   0  0  0  0  0  0  0  0  0  0  0  0
   58.2654   33.3738   48.8908 H   0  0  0  0  0  0  0  0  0  0  0  0
   57.2728   34.1096   46.2691 H   0  0  0  0  0  0  0  0  0  0  0  0
   58.5817   35.1611   46.9858 H   0  0  0  0  0  0  0  0  0  0  0  0
   59.8248   35.1893   45.0337 H   0  0  0  0  0  0  0  0  0  0  0  0
   59.0752   33.6849   44.3999 H   0  0  0  0  0  0  0  0  0  0  0  0
   58.1443   35.2211   44.3999 H   0  0  0  0  0  0  0  0  0  0  0  0
   59.5843   31.6618   45.5475 H   0  0  0  0  0  0  0  0  0  0  0  0
   58.8485   31.0251   47.0751 H   0  0  0  0  0  0  0  0  0  0  0  0
   56.9970   30.8800   46.0290 H   0  0  0  0  0  0  0  0  0  0  0  0
   57.7877   32.4835   43.7071 H   0  0  0  0  0  0  0  0  0  0  0  0
   58.4708   30.8377   44.0234 H   0  0  0  0  0  0  0  0  0  0  0  0
   55.4896   31.2082   44.1875 H   0  0  0  0  0  0  0  0  0  0  0  0
   56.3066   31.1706   42.5513 H   0  0  0  0  0  0  0  0  0  0  0  0
   55.6016   28.9493   42.9532 H   0  0  0  0  0  0  0  0  0  0  0  0
   57.3770   28.9920   43.3029 H   0  0  0  0  0  0  0  0  0  0  0  0
   55.1470   28.6040   45.2390 H   0  0  0  0  0  0  0  0  0  0  0  0
   57.1342   26.2901   44.8437 H   0  0  0  0  0  0  0  0  0  0  0  0
   60.4957   25.6684   48.2373 H   0  0  0  0  0  0  0  0  0  0  0  0
   61.4807   27.1661   49.9737 H   0  0  0  0  0  0  0  0  0  0  0  0
   60.7210   29.5349   50.1654 H   0  0  0  0  0  0  0  0  0  0  0  0
   58.9680   30.4175   48.6231 H   0  0  0  0  0  0  0  0  0  0  0  0
  1  2  1  0
  2  3  1  0
  3  4  1  0
  4  5  1  0
  3  6  1  0
  6  7  1  0
  7  8  1  0
  8  9  1  0
  9 10  1  0
 10 11  1  0
 11 12  1  0
 12 13  2  0
 13 14  1  0
 14 15  2  0
 14 16  1  0
 16 17  2  0
 17 18  1  0
 18 19  2  0
 19 20  1  0
 20 21  2  0
 21 22  1  0
 22 12  1  0
 21 16  1  0
  1 23  1  0
  1 24  1  0
  1 25  1  0
  2 26  1  0
  2 27  1  0
  4 28  1  0
  4 29  1  0
  5 30  1  0
  5 31  1  0
  5 32  1  0
  6 33  1  0
  6 34  1  0
  7 35  1  0
  8 36  1  0
  8 37  1  0
  9 38  1  0
  9 39  1  0
 10 40  1  0
 10 41  1  0
 11 42  1  0
 13 43  1  0
 17 44  1  0
 18 45  1  0
 19 46  1  0
 20 47  1  0
M  CHG  1  22  -1
M  END
>  <UniqueID>  (18) 
18

>  <SMILES>  (18) 
CCN(CC)CNCCCNc1cc(=O)c2ccccc2[n-]1

>  <Energy>  (18) 
54.84122374170105

>  <Genealogy>  (18) 
CCN(CC)CNCCCNc1cc(=O)c2ccccc2[n-]1 (protonated)
CCN(CC)CNCCCNc1cc(=O)c2ccccc2[n-]1 (3D coordinates assigned)
CCN(CC)CNCCCNc1cc(=O)c2ccccc2[n-]1 (optimized conformer: 54.84122374170105 kcal/mol)

>  <smiles>  (18) 
CCN(CC)CNCCCNc1cc(=O)c2ccccc2[nH]1

>  <score_type>  (18) 
oracle

>  <origin>  (18) 
adg

>  <m_score__min__energy>  (18) 
-8.0700000000000003

>  <m_primary>  (18) 
energy

$$$$
18:0
     RDKit          3D

 51 53  0  0  0  0  0  0  0  0999 V2000
   65.0770   32.3340   50.1990 C   0  0  0  0  0  0  0  0  0  0  0  0
   63.7370   31.8930   49.5980 C   0  0  0  0  0  0  0  0  0  0  0  0
   63.6250   32.2040   48.1490 N   0  0  0  0  0  0  0  0  0  0  0  0
   63.3360   33.6380   47.8630 C   0  0  0  0  0  0  0  0  0  0  0  0
   63.3870   34.0350   46.3780 C   0  0  0  0  0  0  0  0  0  0  0  0
   62.6450   31.2960   47.5030 C   0  0  0  0  0  0  0  0  0  0  0  0
   61.2720   31.6060   47.9210 N   0  0  0  0  0  0  0  0  0  0  0  0
   60.1740   31.4890   47.0000 C   0  0  0  0  0  0  0  0  0  0  0  0
   59.6850   32.6500   46.3690 C   0  0  0  0  0  0  0  0  0  0  0  0
   60.1130   33.9310   46.7800 C   0  0  0  0  0  0  0  0  0  0  0  0
   59.6900   35.0760   46.1090 C   0  0  0  0  0  0  0  0  0  0  0  0
   58.8460   34.9670   45.0130 C   0  0  0  0  0  0  0  0  0  0  0  0
   58.3930   33.7150   44.6000 C   0  0  0  0  0  0  0  0  0  0  0  0
   58.7700   32.5320   45.2900 C   0  0  0  0  0  0  0  0  0  0  0  0
   58.2990   31.2910   44.9110 N   0  0  0  0  0  0  0  0  0  0  0  0
   57.1650   31.1920   43.9640 C   0  0  0  0  0  0  0  0  0  0  0  0
   58.8490   30.1440   45.4520 C   0  0  0  0  0  0  0  0  0  0  0  0
   58.5870   28.8710   44.8870 C   0  0  0  0  0  0  0  0  0  0  0  0
   59.0370   27.7060   45.4960 C   0  0  0  0  0  0  0  0  0  0  0  0
   59.7290   27.7710   46.6940 C   0  0  0  0  0  0  0  0  0  0  0  0
   60.0520   29.0050   47.2640 C   0  0  0  0  0  0  0  0  0  0  0  0
   60.7720   28.9390   48.9180 S   0  0  0  0  0  0  0  0  0  0  0  0
   59.2920   29.6280   49.7210 C   0  0  0  0  0  0  0  0  0  0  0  0
   59.7070   30.2160   46.5880 C   0  0  0  0  0  0  0  0  0  0  0  0
   65.0113   32.3124   51.2968 H   0  0  0  0  0  0  0  0  0  0  0  0
   65.8713   31.6499   49.8657 H   0  0  0  0  0  0  0  0  0  0  0  0
   65.3097   33.3561   49.8657 H   0  0  0  0  0  0  0  0  0  0  0  0
   63.6318   30.8064   49.7333 H   0  0  0  0  0  0  0  0  0  0  0  0
   62.9423   32.4480   50.1180 H   0  0  0  0  0  0  0  0  0  0  0  0
   64.5600   31.9890   47.7280 H   0  0  0  0  0  0  0  0  0  0  0  0
   62.3277   33.8634   48.2406 H   0  0  0  0  0  0  0  0  0  0  0  0
   64.1312   34.2135   48.3593 H   0  0  0  0  0  0  0  0  0  0  0  0
   63.5268   35.1228   46.2939 H   0  0  0  0  0  0  0  0  0  0  0  0
   64.2262   33.5186   45.8890 H   0  0  0  0  0  0  0  0  0  0  0  0
   62.4445   33.7475   45.8890 H   0  0  0  0  0  0  0  0  0  0  0  0
   62.7204   31.4063   46.4111 H   0  0  0  0  0  0  0  0  0  0  0  0
   62.8754   30.2644   47.8076 H   0  0  0  0  0  0  0  0  0  0  0  0
   61.1090   32.0630   48.8450 H   0  0  0  0  0  0  0  0  0  0  0  0
   60.7898   34.0262   47.6419 H   0  0  0  0  0  0  0  0  0  0  0  0
   60.0252   36.0673   46.4482 H   0  0  0  0  0  0  0  0  0  0  0  0
   58.5337   35.8705   44.4688 H   0  0  0  0  0  0  0  0  0  0  0  0
   57.7317   33.6419   43.7240 H   0  0  0  0  0  0  0  0  0  0  0  0
   56.2234   31.1098   44.5268 H   0  0  0  0  0  0  0  0  0  0  0  0
   57.1365   32.0911   43.3309 H   0  0  0  0  0  0  0  0  0  0  0  0
   57.2927   30.3016   43.3309 H   0  0  0  0  0  0  0  0  0  0  0  0
   58.0167   28.8040   43.9488 H   0  0  0  0  0  0  0  0  0  0  0  0
   58.8434   26.7305   45.0259 H   0  0  0  0  0  0  0  0  0  0  0  0
   60.0272   26.8419   47.2017 H   0  0  0  0  0  0  0  0  0  0  0  0
   59.4087   29.5737   50.8134 H   0  0  0  0  0  0  0  0  0  0  0  0
   59.1653   30.6777   49.4175 H   0  0  0  0  0  0  0  0  0  0  0  0
   58.4072   29.0492   49.4175 H   0  0  0  0  0  0  0  0  0  0  0  0
  1  2  1  0
  2  3  1  0
  3  4  1  0
  4  5  1  0
  3  6  1  0
  6  7  1  0
  7  8  1  0
  8  9  2  0
  9 10  1  0
 10 11  2  0
 11 12  1  0
 12 13  2  0
 13 14  1  0
 14 15  2  0
 15 16  1  0
 15 17  1  0
 17 18  2  0
 18 19  1  0
 19 20  2  0
 20 21  1  0
 21 22  1  0
 22 23  1  0
 21 24  2  0
 24  8  1  0
 14  9  1  0
 24 17  1  0
  1 25  1  0
  1 26  1  0
  1 27  1  0
  2 28  1  0
  2 29  1  0
  3 30  1  0
  4 31  1  0
  4 32  1  0
  5 33  1  0
  5 34  1  0
  5 35  1  0
  6 36  1  0
  6 37  1  0
  7 38  1  0
 10 39  1  0
 11 40  1  0
 12 41  1  0
 13 42  1  0
 16 43  1  0
 16 44  1  0
 16 45  1  0
 18 46  1  0
 19 47  1  0
 20 48  1  0
 23 49  1  0
 23 50  1  0
 23 51  1  0
M  CHG  2   3   1  15   1
M  END
>  <UniqueID>  (19) 
19

>  <SMILES>  (19) 
CC[NH+](CC)CNc1c2ccccc2[n+](C)c2cccc(SC)c12

>  <Energy>  (19) 
85.65357279712583

>  <Genealogy>  (19) 
CC[NH+](CC)CNc1c2ccccc2[n+](C)c2cccc(SC)c12 (protonated)
CC[NH+](CC)CNc1c2ccccc2[n+](C)c2cccc(SC)c12 (3D coordinates assigned)
CC[NH+](CC)CNc1c2ccccc2[n+](C)c2cccc(SC)c12 (optimized conformer: 85.65357279712583 kcal/mol)

>  <smiles>  (19) 
CCN(CC)CNc1c2ccccc2[n+](C)c2cccc(SC)c12

>  <score_type>  (19) 
oracle

>  <origin>  (19) 
adg

>  <m_score__min__energy>  (19) 
-4.4900000000000002

>  <m_primary>  (19) 
energy

$$$$
19:0
     RDKit          3D

 49 51  0  0  0  0  0  0  0  0999 V2000
   58.4472   30.9440   49.2461 H   0  0  0  0  0  0  0  0  0  0  0  0
   59.2290   31.2650   48.5420 C   0  0  0  0  0  0  0  0  0  0  0  0
   60.4230   31.5000   48.9860 N   0  0  0  0  0  0  0  0  0  0  0  0
   60.6290   32.2080   50.1510 O   0  0  0  0  0  0  0  0  0  0  0  0
   60.8420   33.6120   50.1210 C   0  0  0  0  0  0  0  0  0  0  0  0
   60.4838   34.0559   51.0616 H   0  0  0  0  0  0  0  0  0  0  0  0
   60.2907   34.0449   49.2733 H   0  0  0  0  0  0  0  0  0  0  0  0
   62.3370   33.9070   49.9560 C   0  0  0  0  0  0  0  0  0  0  0  0
   62.7023   34.4204   50.8576 H   0  0  0  0  0  0  0  0  0  0  0  0
   62.4692   34.5401   49.0662 H   0  0  0  0  0  0  0  0  0  0  0  0
   63.1110   32.6670   49.7630 N   0  0  0  0  0  0  0  0  0  0  0  0
   63.6680   32.4490   50.6200 H   0  0  0  0  0  0  0  0  0  0  0  0
   62.4430   31.8750   49.6100 H   0  0  0  0  0  0  0  0  0  0  0  0
   63.9990   32.7310   48.5870 C   0  0  0  0  0  0  0  0  0  0  0  0
   64.7608   31.9438   48.6865 H   0  0  0  0  0  0  0  0  0  0  0  0
   64.4314   33.7423   48.5716 H   0  0  0  0  0  0  0  0  0  0  0  0
   63.2760   32.5370   47.2390 C   0  0  0  0  0  0  0  0  0  0  0  0
   62.2906   32.0882   47.4327 H   0  0  0  0  0  0  0  0  0  0  0  0
   63.9120   31.8885   46.6185 H   0  0  0  0  0  0  0  0  0  0  0  0
   63.0720   33.8420   46.4690 C   0  0  0  0  0  0  0  0  0  0  0  0
   62.9424   34.6710   47.1803 H   0  0  0  0  0  0  0  0  0  0  0  0
   63.9508   34.0357   45.8364 H   0  0  0  0  0  0  0  0  0  0  0  0
   62.1760   33.7582   45.8364 H   0  0  0  0  0  0  0  0  0  0  0  0
   58.8920   31.4190   47.1050 C   0  0  0  0  0  0  0  0  0  0  0  0
   58.5780   30.2950   46.3140 C   0  0  0  0  0  0  0  0  0  0  0  0
   58.5450   28.9940   46.8700 C   0  0  0  0  0  0  0  0  0  0  0  0
   58.7142   28.8601   47.9486 H   0  0  0  0  0  0  0  0  0  0  0  0
   58.3010   27.8810   46.0690 C   0  0  0  0  0  0  0  0  0  0  0  0
   58.2730   26.8768   46.5172 H   0  0  0  0  0  0  0  0  0  0  0  0
   58.0930   28.0380   44.7050 C   0  0  0  0  0  0  0  0  0  0  0  0
   57.9301   27.1547   44.0700 H   0  0  0  0  0  0  0  0  0  0  0  0
   58.0900   29.3110   44.1380 C   0  0  0  0  0  0  0  0  0  0  0  0
   57.9298   29.4199   43.0552 H   0  0  0  0  0  0  0  0  0  0  0  0
   58.2900   30.4690   44.9330 C   0  0  0  0  0  0  0  0  0  0  0  0
   58.2220   31.7390   44.3920 N   0  0  0  0  0  0  0  0  0  0  0  0
   57.6380   31.9400   43.0460 C   0  0  0  0  0  0  0  0  0  0  0  0
   56.6021   32.2965   43.1453 H   0  0  0  0  0  0  0  0  0  0  0  0
   58.2313   32.6856   42.4965 H   0  0  0  0  0  0  0  0  0  0  0  0
   57.6468   30.9871   42.4965 H   0  0  0  0  0  0  0  0  0  0  0  0
   58.6710   32.8280   45.1170 C   0  0  0  0  0  0  0  0  0  0  0  0
   58.8670   34.0950   44.5100 C   0  0  0  0  0  0  0  0  0  0  0  0
   58.6956   34.2089   43.4294 H   0  0  0  0  0  0  0  0  0  0  0  0
   59.2730   35.1980   45.2590 C   0  0  0  0  0  0  0  0  0  0  0  0
   59.4062   36.1738   44.7691 H   0  0  0  0  0  0  0  0  0  0  0  0
   59.5100   35.0700   46.6210 C   0  0  0  0  0  0  0  0  0  0  0  0
   59.8060   35.9488   47.2127 H   0  0  0  0  0  0  0  0  0  0  0  0
   59.3730   33.8290   47.2380 C   0  0  0  0  0  0  0  0  0  0  0  0
   59.5802   33.7323   48.3140 H   0  0  0  0  0  0  0  0  0  0  0  0
   58.9710   32.6910   46.5000 C   0  0  0  0  0  0  0  0  0  0  0  0
  1  2  1  0
  2  3  2  0
  3  4  1  0
  4  5  1  0
  5  6  1  0
  5  7  1  0
  5  8  1  0
  8  9  1  0
  8 10  1  0
  8 11  1  0
 11 12  1  0
 11 13  1  0
 11 14  1  0
 14 15  1  0
 14 16  1  0
 14 17  1  0
 17 18  1  0
 17 19  1  0
 17 20  1  0
 20 21  1  0
 20 22  1  0
 20 23  1  0
  2 24  1  0
 24 25  2  0
 25 26  1  0
 26 27  1  0
 26 28  2  0
 28 29  1  0
 28 30  1  0
 30 31  1  0
 30 32  2  0
 32 33  1  0
 32 34  1  0
 34 35  2  0
 35 36  1  0
 36 37  1  0
 36 38  1  0
 36 39  1  0
 35 40  1  0
 40 41  2  0
 41 42  1  0
 41 43  1  0
 43 44  1  0
 43 45  2  0
 45 46  1  0
 45 47  1  0
 47 48  1  0
 47 49  2  0
 49 24  1  0
 34 25  1  0
 49 40  1  0
M  CHG  2  11   1  35   1
M  END
>  <UniqueID>  (20) 
20

>  <SMILES>  (20) 
CCC[NH2+]CCO/N=C\c1c2ccccc2[n+](C)c2ccccc12

>  <Energy>  (20) 
72.22204639099647

>  <Genealogy>  (20) 
CCC[NH2+]CCON=Cc1c2ccccc2[n+](C)c2ccccc12 (protonated)
CCC[NH2+]CCO/N=C\c1c2ccccc2[n+](C)c2ccccc12 (cis-trans isomerization)
CCC[NH2+]CCO/N=C\c1c2ccccc2[n+](C)c2ccccc12 (3D coordinates assigned)
CCC[NH2+]CCO/N=C\c1c2ccccc2[n+](C)c2ccccc12 (optimized conformer: 72.22204639099647 kcal/mol)

>  <smiles>  (20) 
CCCNCCON=Cc1c2ccccc2[n+](C)c2ccccc12

>  <score_type>  (20) 
oracle

>  <origin>  (20) 
adg

>  <m_score__min__energy>  (20) 
-4.6600000000000001

>  <m_primary>  (20) 
energy

$$$$
20:0
     RDKit          3D

 63 67  0  0  1  0  0  0  0  0999 V2000
   59.9860   35.6210   46.6770 F   0  0  0  0  0  0  0  0  0  0  0  0
   59.4070   34.4470   46.9880 C   0  0  0  0  0  0  0  0  0  0  0  0
   59.3650   33.9710   48.2700 C   0  0  0  0  0  0  0  0  0  0  0  0
   58.7920   32.7880   48.6620 C   0  0  0  0  0  0  0  0  0  0  0  0
   58.7510   32.3190   49.9930 N   0  0  0  0  0  0  0  0  0  0  0  0
   58.5500   33.0930   51.1750 C   0  0  0  0  0  0  0  0  0  0  0  0
   59.2790   32.6270   52.3920 C   0  0  0  0  0  0  0  0  0  0  0  0
   60.7050   32.8160   52.3170 N   0  0  0  0  0  0  0  0  0  0  0  0
   61.1590   33.4400   51.0840 C   0  0  0  0  0  0  0  0  0  0  0  0
   62.5950   33.0570   50.8230 C   0  0  0  0  0  0  0  0  0  0  0  0
   62.9040   32.7680   49.4460 N   0  0  0  0  0  0  0  0  0  0  0  0
   63.9630   33.4450   48.7010 C   0  0  0  0  0  0  0  0  0  0  0  0
   63.7510   33.4290   47.2240 C   0  0  0  0  0  0  0  0  0  0  0  0
   62.3680   33.1100   46.7650 C   0  0  0  0  0  0  0  0  0  0  0  0
   61.8470   31.8910   47.4280 C   0  0  0  0  0  0  0  0  0  0  0  0
   61.1180   30.9400   46.7900 C   0  0  0  0  0  0  0  0  0  0  0  0
   60.6660   29.8430   47.5300 C   0  0  0  0  0  0  0  0  0  0  0  0
   60.9320   29.6980   48.8740 C   0  0  0  0  0  0  0  0  0  0  0  0
   61.6850   30.6860   49.5220 C   0  0  0  0  0  0  0  0  0  0  0  0
   62.1360   31.7740   48.7930 C   0  0  0  0  0  0  0  0  0  0  0  0
   58.2150   32.0410   47.6020 C   0  0  0  0  0  0  0  0  0  0  0  0
   58.2580   32.5130   46.3160 C   0  0  0  0  0  0  0  0  0  0  0  0
   57.7170   31.8030   45.2790 C   0  0  0  0  0  0  0  0  0  0  0  0
   57.1940   30.7010   45.4660 N   0  0  0  0  0  0  0  0  0  0  0  0
   57.4420   29.4050   45.1280 C   0  0  0  0  0  0  0  0  0  0  0  0
   57.6460   29.1100   43.7520 C   0  0  0  0  0  0  0  0  0  0  0  0
   58.0070   27.8270   43.4070 C   0  0  0  0  0  0  0  0  0  0  0  0
   58.1760   26.8210   44.3540 C   0  0  0  0  0  0  0  0  0  0  0  0
   57.9790   27.0980   45.6920 C   0  0  0  0  0  0  0  0  0  0  0  0
   58.2170   25.6950   46.9790 Br  0  0  0  0  0  0  0  0  0  0  0  0
   57.6180   28.3710   46.0720 C   0  0  0  0  0  0  0  0  0  0  0  0
   57.7640   32.2700   43.9990 N   0  0  0  0  0  0  0  0  0  0  0  0
   58.3540   33.4640   43.7180 C   0  0  0  0  0  0  0  0  0  0  0  0
   58.8900   34.1710   44.7190 N   0  0  0  0  0  0  0  0  0  0  0  0
   58.8460   33.7140   45.9860 C   0  0  0  0  0  0  0  0  0  0  0  0
   59.8299   34.5890   49.0522 H   0  0  0  0  0  0  0  0  0  0  0  0
   58.8860   31.2800   50.1310 H   0  0  0  0  0  0  0  0  0  0  0  0
   58.8730   34.1228   50.9624 H   0  0  0  0  0  0  0  0  0  0  0  0
   57.4805   32.9983   51.4143 H   0  0  0  0  0  0  0  0  0  0  0  0
   58.8992   33.1856   53.2602 H   0  0  0  0  0  0  0  0  0  0  0  0
   59.1009   31.5451   52.4805 H   0  0  0  0  0  0  0  0  0  0  0  0
   61.2250   31.9780   52.5850 H   0  0  0  0  0  0  0  0  0  0  0  0
   60.5311   33.0985   50.2479 H   0  0  0  0  0  0  0  0  0  0  0  0
   61.0834   34.5334   51.1780 H   0  0  0  0  0  0  0  0  0  0  0  0
   63.2356   33.8894   51.1497 H   0  0  0  0  0  0  0  0  0  0  0  0
   62.7729   32.1262   51.3815 H   0  0  0  0  0  0  0  0  0  0  0  0
   64.0101   34.4919   49.0353 H   0  0  0  0  0  0  0  0  0  0  0  0
   64.8988   32.9025   48.9009 H   0  0  0  0  0  0  0  0  0  0  0  0
   64.0133   34.4242   46.8356 H   0  0  0  0  0  0  0  0  0  0  0  0
   64.3851   32.6152   46.8423 H   0  0  0  0  0  0  0  0  0  0  0  0
   61.7075   33.9569   47.0026 H   0  0  0  0  0  0  0  0  0  0  0  0
   62.3957   32.9297   45.6802 H   0  0  0  0  0  0  0  0  0  0  0  0
   60.8886   31.0301   45.7180 H   0  0  0  0  0  0  0  0  0  0  0  0
   60.0762   29.0670   47.0201 H   0  0  0  0  0  0  0  0  0  0  0  0
   60.5603   28.8233   49.4278 H   0  0  0  0  0  0  0  0  0  0  0  0
   61.9147   30.5989   50.5942 H   0  0  0  0  0  0  0  0  0  0  0  0
   57.7300   31.0767   47.8141 H   0  0  0  0  0  0  0  0  0  0  0  0
   57.5187   29.8865   42.9834 H   0  0  0  0  0  0  0  0  0  0  0  0
   58.1676   27.5885   42.3453 H   0  0  0  0  0  0  0  0  0  0  0  0
   58.4657   25.8082   44.0372 H   0  0  0  0  0  0  0  0  0  0  0  0
   57.4627   28.5878   47.1392 H   0  0  0  0  0  0  0  0  0  0  0  0
   58.3894   33.8411   42.6853 H   0  0  0  0  0  0  0  0  0  0  0  0
   59.3360   35.0830   44.4770 H   0  0  0  0  0  0  0  0  0  0  0  0
  1  2  1  0
  2  3  2  0
  3  4  1  0
  4  5  1  0
  5  6  1  0
  6  7  1  0
  7  8  1  0
  8  9  1  0
  9 10  1  0
 10 11  1  0
 11 12  1  0
 12 13  1  0
 13 14  1  0
 14 15  1  0
 15 16  2  0
 16 17  1  0
 17 18  2  0
 18 19  1  0
 19 20  2  0
  4 21  2  0
 21 22  1  0
 22 23  1  0
 23 24  2  0
 24 25  1  0
 25 26  2  0
 26 27  1  0
 27 28  2  0
 28 29  1  0
 29 30  1  0
 29 31  2  0
 23 32  1  0
 32 33  2  0
 33 34  1  0
 34 35  1  0
 35  2  1  0
 20 11  1  0
 35 22  2  0
 20 15  1  0
 31 25  1  0
  3 36  1  0
  5 37  1  0
  6 38  1  0
  6 39  1  0
  7 40  1  0
  7 41  1  0
  8 42  1  0
  9 43  1  0
  9 44  1  0
 10 45  1  0
 10 46  1  0
 12 47  1  0
 12 48  1  0
 13 49  1  0
 13 50  1  0
 14 51  1  0
 14 52  1  0
 16 53  1  0
 17 54  1  0
 18 55  1  0
 19 56  1  0
 21 57  1  0
 26 58  1  0
 27 59  1  0
 28 60  1  0
 31 61  1  0
 33 62  1  0
 34 63  1  0
M  END
>  <smiles>  (21) 
Fc1cc(NCCNCCN2CCCc3ccccc32)cc2c(=Nc3cccc(Br)c3)nc[nH]c12

>  <score_type>  (21) 
oracle

>  <origin>  (21) 
adg

>  <m_score__min__energy>  (21) 
-9.7100000000000009

>  <m_primary>  (21) 
energy

$$$$
21:0
     RDKit          3D

 65 68  0  0  0  0  0  0  0  0999 V2000
   63.3500   33.8550   46.3790 C   0  0  0  0  0  0  0  0  0  0  0  0
   63.8980   33.1460   47.6150 C   0  0  0  0  0  0  0  0  0  0  0  0
   62.8440   32.9780   48.6270 N   0  0  0  0  0  0  0  0  0  0  0  0
   62.7850   31.5920   49.1130 C   0  0  0  0  0  0  0  0  0  0  0  0
   61.5940   30.8620   48.4690 C   0  0  0  0  0  0  0  0  0  0  0  0
   61.4760   31.1560   47.0260 N   0  0  0  0  0  0  0  0  0  0  0  0
   60.0930   31.0740   46.5490 C   0  0  0  0  0  0  0  0  0  0  0  0
   59.5380   29.8140   46.1980 C   0  0  0  0  0  0  0  0  0  0  0  0
   60.0020   28.6080   46.7800 C   0  0  0  0  0  0  0  0  0  0  0  0
   59.5440   27.3710   46.3370 C   0  0  0  0  0  0  0  0  0  0  0  0
   58.6110   27.3030   45.3130 C   0  0  0  0  0  0  0  0  0  0  0  0
   58.0840   28.4710   44.7710 C   0  0  0  0  0  0  0  0  0  0  0  0
   58.4840   29.7490   45.2440 C   0  0  0  0  0  0  0  0  0  0  0  0
   57.8980   30.9060   44.7730 N   0  0  0  0  0  0  0  0  0  0  0  0
   56.6610   30.8280   43.9600 C   0  0  0  0  0  0  0  0  0  0  0  0
   58.4150   32.1400   45.1160 C   0  0  0  0  0  0  0  0  0  0  0  0
   58.0060   33.3180   44.4440 C   0  0  0  0  0  0  0  0  0  0  0  0
   58.4400   34.5690   44.8590 C   0  0  0  0  0  0  0  0  0  0  0  0
   59.2490   34.6880   45.9780 C   0  0  0  0  0  0  0  0  0  0  0  0
   59.7100   33.5480   46.6490 C   0  0  0  0  0  0  0  0  0  0  0  0
   60.3190   33.7130   47.9400 N   0  0  0  0  0  0  0  0  0  0  0  0
   59.6300   34.3080   49.0880 C   0  0  0  0  0  0  0  0  0  0  0  0
   60.0880   33.6520   50.3950 C   0  0  0  0  0  0  0  0  0  0  0  0
   59.0010   32.7990   50.9920 C   0  0  0  0  0  0  0  0  0  0  0  0
   58.7560   31.5130   50.4930 C   0  0  0  0  0  0  0  0  0  0  0  0
   57.7980   30.7050   51.1070 C   0  0  0  0  0  0  0  0  0  0  0  0
   57.1120   31.1510   52.2030 N   0  0  0  0  0  0  0  0  0  0  0  0
   56.0960   30.3000   52.8250 C   0  0  0  0  0  0  0  0  0  0  0  0
   57.3250   32.4090   52.6920 C   0  0  0  0  0  0  0  0  0  0  0  0
   58.2740   33.2460   52.1040 C   0  0  0  0  0  0  0  0  0  0  0  0
   59.4020   32.2520   46.1360 C   0  0  0  0  0  0  0  0  0  0  0  0
   62.7049   34.6896   46.6909 H   0  0  0  0  0  0  0  0  0  0  0  0
   64.1857   34.2424   45.7778 H   0  0  0  0  0  0  0  0  0  0  0  0
   62.7645   33.1439   45.7778 H   0  0  0  0  0  0  0  0  0  0  0  0
   64.2805   32.1565   47.3240 H   0  0  0  0  0  0  0  0  0  0  0  0
   64.7065   33.7562   48.0438 H   0  0  0  0  0  0  0  0  0  0  0  0
   63.0910   33.5850   49.4440 H   0  0  0  0  0  0  0  0  0  0  0  0
   63.7177   31.0725   48.8481 H   0  0  0  0  0  0  0  0  0  0  0  0
   62.6594   31.5963   50.2058 H   0  0  0  0  0  0  0  0  0  0  0  0
   61.7293   29.7783   48.6002 H   0  0  0  0  0  0  0  0  0  0  0  0
   60.6753   31.2123   48.9622 H   0  0  0  0  0  0  0  0  0  0  0  0
   61.8990   32.0960   46.8960 H   0  0  0  0  0  0  0  0  0  0  0  0
   62.1010   30.5280   46.4850 H   0  0  0  0  0  0  0  0  0  0  0  0
   60.7376   28.6506   47.5968 H   0  0  0  0  0  0  0  0  0  0  0  0
   59.9219   26.4470   46.7990 H   0  0  0  0  0  0  0  0  0  0  0  0
   58.2873   26.3244   44.9289 H   0  0  0  0  0  0  0  0  0  0  0  0
   57.3433   28.4033   43.9606 H   0  0  0  0  0  0  0  0  0  0  0  0
   55.7873   30.7729   44.6261 H   0  0  0  0  0  0  0  0  0  0  0  0
   56.5823   31.7230   43.3253 H   0  0  0  0  0  0  0  0  0  0  0  0
   56.6954   29.9302   43.3253 H   0  0  0  0  0  0  0  0  0  0  0  0
   57.3324   33.2397   43.5779 H   0  0  0  0  0  0  0  0  0  0  0  0
   58.1415   35.4675   44.2990 H   0  0  0  0  0  0  0  0  0  0  0  0
   59.5316   35.6866   46.3425 H   0  0  0  0  0  0  0  0  0  0  0  0
   61.3170   33.4220   48.0590 H   0  0  0  0  0  0  0  0  0  0  0  0
   59.8550   35.3841   49.1260 H   0  0  0  0  0  0  0  0  0  0  0  0
   58.5479   34.1479   48.9725 H   0  0  0  0  0  0  0  0  0  0  0  0
   60.9659   33.0216   50.1905 H   0  0  0  0  0  0  0  0  0  0  0  0
   60.3372   34.4475   51.1127 H   0  0  0  0  0  0  0  0  0  0  0  0
   59.3158   31.1421   49.6218 H   0  0  0  0  0  0  0  0  0  0  0  0
   57.5930   29.7013   50.7063 H   0  0  0  0  0  0  0  0  0  0  0  0
   56.1793   30.3698   53.9196 H   0  0  0  0  0  0  0  0  0  0  0  0
   55.0959   30.6339   52.5114 H   0  0  0  0  0  0  0  0  0  0  0  0
   56.2494   29.2569   52.5114 H   0  0  0  0  0  0  0  0  0  0  0  0
   56.7440   32.7646   53.5557 H   0  0  0  0  0  0  0  0  0  0  0  0
   58.4509   34.2524   52.5114 H   0  0  0  0  0  0  0  0  0  0  0  0
  1  2  1  0
  2  3  1  0
  3  4  1  0
  4  5  1  0
  5  6  1  0
  6  7  1  0
  7  8  2  0
  8  9  1  0
  9 10  2  0
 10 11  1  0
 11 12  2  0
 12 13  1  0
 13 14  2  0
 14 15  1  0
 14 16  1  0
 16 17  2  0
 17 18  1  0
 18 19  2  0
 19 20  1  0
 20 21  1  0
 21 22  1  0
 22 23  1  0
 23 24  1  0
 24 25  2  0
 25 26  1  0
 26 27  2  0
 27 28  1  0
 27 29  1  0
 29 30  2  0
 20 31  2  0
 31  7  1  0
 13  8  1  0
 31 16  1  0
 30 24  1  0
  1 32  1  0
  1 33  1  0
  1 34  1  0
  2 35  1  0
  2 36  1  0
  3 37  1  0
  4 38  1  0
  4 39  1  0
  5 40  1  0
  5 41  1  0
  6 42  1  0
  6 43  1  0
  9 44  1  0
 10 45  1  0
 11 46  1  0
 12 47  1  0
 15 48  1  0
 15 49  1  0
 15 50  1  0
 17 51  1  0
 18 52  1  0
 19 53  1  0
 21 54  1  0
 22 55  1  0
 22 56  1  0
 23 57  1  0
 23 58  1  0
 25 59  1  0
 26 60  1  0
 28 61  1  0
 28 62  1  0
 28 63  1  0
 29 64  1  0
 30 65  1  0
M  CHG  3   6   1  14   1  27   1
M  END
>  <UniqueID>  (22) 
21

>  <SMILES>  (22) 
CCNCC[NH2+]c1c2ccccc2[n+](C)c2cccc(NCCc3cc[n+](C)cc3)c12

>  <Energy>  (22) 
104.86435616643931

>  <Genealogy>  (22) 
CCNCC[NH2+]c1c2ccccc2[n+](C)c2cccc(NCCc3cc[n+](C)cc3)c12 (protonated)
CCNCC[NH2+]c1c2ccccc2[n+](C)c2cccc(NCCc3cc[n+](C)cc3)c12 (3D coordinates assigned)
CCNCC[NH2+]c1c2ccccc2[n+](C)c2cccc(NCCc3cc[n+](C)cc3)c12 (optimized conformer: 104.86435616643931 kcal/mol)

>  <smiles>  (22) 
CCNCCNc1c2ccccc2[n+](C)c2cccc(NCCc3cc[n+](C)cc3)c12

>  <score_type>  (22) 
oracle

>  <origin>  (22) 
adg

>  <m_score__min__energy>  (22) 
-3.8900000000000001

>  <m_primary>  (22) 
energy

$$$$
22:0
     RDKit          3D

 68 71  0  0  0  0  0  0  0  0999 V2000
   61.3970   29.7550   50.6280 C   0  0  0  0  0  0  0  0  0  0  0  0
   62.7320   30.4690   50.4590 C   0  0  0  0  0  0  0  0  0  0  0  0
   62.5520   31.7140   49.6630 N   0  0  0  0  0  0  0  0  0  0  0  0
   63.0890   32.9020   50.3650 C   0  0  0  0  0  0  0  0  0  0  0  0
   64.1270   33.6410   49.5200 C   0  0  0  0  0  0  0  0  0  0  0  0
   63.1740   31.5870   48.3220 C   0  0  0  0  0  0  0  0  0  0  0  0
   62.1150   31.2100   47.2720 C   0  0  0  0  0  0  0  0  0  0  0  0
   60.7570   31.2120   47.8520 N   0  0  0  0  0  0  0  0  0  0  0  0
   59.7510   31.0680   46.8100 C   0  0  0  0  0  0  0  0  0  0  0  0
   59.1960   29.7760   46.5620 C   0  0  0  0  0  0  0  0  0  0  0  0
   59.5850   28.6310   47.3100 C   0  0  0  0  0  0  0  0  0  0  0  0
   59.0070   27.3840   47.0850 C   0  0  0  0  0  0  0  0  0  0  0  0
   58.0270   27.2370   46.1180 C   0  0  0  0  0  0  0  0  0  0  0  0
   57.6370   28.3310   45.3540 C   0  0  0  0  0  0  0  0  0  0  0  0
   58.2320   29.6060   45.5360 C   0  0  0  0  0  0  0  0  0  0  0  0
   57.8740   30.6670   44.7430 N   0  0  0  0  0  0  0  0  0  0  0  0
   57.1610   30.4250   43.4660 C   0  0  0  0  0  0  0  0  0  0  0  0
   58.2030   31.9500   45.1160 C   0  0  0  0  0  0  0  0  0  0  0  0
   57.4780   33.0410   44.5830 C   0  0  0  0  0  0  0  0  0  0  0  0
   57.8210   34.3450   44.8770 C   0  0  0  0  0  0  0  0  0  0  0  0
   58.9270   34.6070   45.6630 C   0  0  0  0  0  0  0  0  0  0  0  0
   59.6720   33.5670   46.2410 C   0  0  0  0  0  0  0  0  0  0  0  0
   60.9050   33.9420   46.8830 N   0  0  0  0  0  0  0  0  0  0  0  0
   61.0050   34.2780   48.3080 C   0  0  0  0  0  0  0  0  0  0  0  0
   59.6220   34.5160   48.9250 C   0  0  0  0  0  0  0  0  0  0  0  0
   59.2890   33.4460   49.9280 C   0  0  0  0  0  0  0  0  0  0  0  0
   59.7580   33.5340   51.2490 C   0  0  0  0  0  0  0  0  0  0  0  0
   59.4590   32.5260   52.1700 C   0  0  0  0  0  0  0  0  0  0  0  0
   58.6740   31.4350   51.7850 C   0  0  0  0  0  0  0  0  0  0  0  0
   58.1830   31.3540   50.4810 C   0  0  0  0  0  0  0  0  0  0  0  0
   58.4880   32.3540   49.5520 C   0  0  0  0  0  0  0  0  0  0  0  0
   59.2490   32.1950   46.0640 C   0  0  0  0  0  0  0  0  0  0  0  0
   61.1771   29.6374   51.6994 H   0  0  0  0  0  0  0  0  0  0  0  0
   60.6014   30.3480   50.1533 H   0  0  0  0  0  0  0  0  0  0  0  0
   61.4485   28.7640   50.1533 H   0  0  0  0  0  0  0  0  0  0  0  0
   63.1345   30.7263   51.4499 H   0  0  0  0  0  0  0  0  0  0  0  0
   63.4307   29.8034   49.9311 H   0  0  0  0  0  0  0  0  0  0  0  0
   62.2590   33.5881   50.5894 H   0  0  0  0  0  0  0  0  0  0  0  0
   63.5806   32.5602   51.2878 H   0  0  0  0  0  0  0  0  0  0  0  0
   64.8429   34.1507   50.1817 H   0  0  0  0  0  0  0  0  0  0  0  0
   64.6634   32.9204   48.8852 H   0  0  0  0  0  0  0  0  0  0  0  0
   63.6216   34.3837   48.8852 H   0  0  0  0  0  0  0  0  0  0  0  0
   63.6343   32.5465   48.0439 H   0  0  0  0  0  0  0  0  0  0  0  0
   63.9382   30.7966   48.3571 H   0  0  0  0  0  0  0  0  0  0  0  0
   62.1533   31.9375   46.4478 H   0  0  0  0  0  0  0  0  0  0  0  0
   62.3344   30.1956   46.9076 H   0  0  0  0  0  0  0  0  0  0  0  0
   60.5880   32.0450   48.4360 H   0  0  0  0  0  0  0  0  0  0  0  0
   60.6680   30.4600   48.5670 H   0  0  0  0  0  0  0  0  0  0  0  0
   60.3601   28.7324   48.0840 H   0  0  0  0  0  0  0  0  0  0  0  0
   59.3296   26.5145   47.6765 H   0  0  0  0  0  0  0  0  0  0  0  0
   57.5576   26.2557   45.9545 H   0  0  0  0  0  0  0  0  0  0  0  0
   56.8520   28.2057   44.5937 H   0  0  0  0  0  0  0  0  0  0  0  0
   56.1387   30.0780   43.6769 H   0  0  0  0  0  0  0  0  0  0  0  0
   57.1190   31.3592   42.8868 H   0  0  0  0  0  0  0  0  0  0  0  0
   57.6963   29.6582   42.8868 H   0  0  0  0  0  0  0  0  0  0  0  0
   56.6223   32.8460   43.9198 H   0  0  0  0  0  0  0  0  0  0  0  0
   57.2145   35.1752   44.4860 H   0  0  0  0  0  0  0  0  0  0  0  0
   59.2292   35.6499   45.8390 H   0  0  0  0  0  0  0  0  0  0  0  0
   61.7520   34.0840   46.2960 H   0  0  0  0  0  0  0  0  0  0  0  0
   61.4952   33.4480   48.8379 H   0  0  0  0  0  0  0  0  0  0  0  0
   61.5913   35.2036   48.4051 H   0  0  0  0  0  0  0  0  0  0  0  0
   59.6155   35.4946   49.4272 H   0  0  0  0  0  0  0  0  0  0  0  0
   58.8705   34.4904   48.1221 H   0  0  0  0  0  0  0  0  0  0  0  0
   60.3625   34.3989   51.5597 H   0  0  0  0  0  0  0  0  0  0  0  0
   59.8418   32.5912   53.1992 H   0  0  0  0  0  0  0  0  0  0  0  0
   58.4433   30.6404   52.5099 H   0  0  0  0  0  0  0  0  0  0  0  0
   57.5547   30.5016   50.1832 H   0  0  0  0  0  0  0  0  0  0  0  0
   58.1002   32.2857   48.5249 H   0  0  0  0  0  0  0  0  0  0  0  0
  1  2  1  0
  2  3  1  0
  3  4  1  0
  4  5  1  0
  3  6  1  0
  6  7  1  0
  7  8  1  0
  8  9  1  0
  9 10  2  0
 10 11  1  0
 11 12  2  0
 12 13  1  0
 13 14  2  0
 14 15  1  0
 15 16  2  0
 16 17  1  0
 16 18  1  0
 18 19  2  0
 19 20  1  0
 20 21  2  0
 21 22  1  0
 22 23  1  0
 23 24  1  0
 24 25  1  0
 25 26  1  0
 26 27  2  0
 27 28  1  0
 28 29  2  0
 29 30  1  0
 30 31  2  0
 22 32  2  0
 32  9  1  0
 15 10  1  0
 32 18  1  0
 31 26  1  0
  1 33  1  0
  1 34  1  0
  1 35  1  0
  2 36  1  0
  2 37  1  0
  4 38  1  0
  4 39  1  0
  5 40  1  0
  5 41  1  0
  5 42  1  0
  6 43  1  0
  6 44  1  0
  7 45  1  0
  7 46  1  0
  8 47  1  0
  8 48  1  0
 11 49  1  0
 12 50  1  0
 13 51  1  0
 14 52  1  0
 17 53  1  0
 17 54  1  0
 17 55  1  0
 19 56  1  0
 20 57  1  0
 21 58  1  0
 23 59  1  0
 24 60  1  0
 24 61  1  0
 25 62  1  0
 25 63  1  0
 27 64  1  0
 28 65  1  0
 29 66  1  0
 30 67  1  0
 31 68  1  0
M  CHG  2   8   1  16   1
M  END
>  <UniqueID>  (23) 
22

>  <SMILES>  (23) 
CCN(CC)CC[NH2+]c1c2ccccc2[n+](C)c2cccc(NCCc3ccccc3)c12

>  <Energy>  (23) 
110.60293311868584

>  <Genealogy>  (23) 
CCN(CC)CC[NH2+]c1c2ccccc2[n+](C)c2cccc(NCCc3ccccc3)c12 (protonated)
CCN(CC)CC[NH2+]c1c2ccccc2[n+](C)c2cccc(NCCc3ccccc3)c12 (3D coordinates assigned)
CCN(CC)CC[NH2+]c1c2ccccc2[n+](C)c2cccc(NCCc3ccccc3)c12 (optimized conformer: 110.60293311868584 kcal/mol)

>  <smiles>  (23) 
CCN(CC)CCNc1c2ccccc2[n+](C)c2cccc(NCCc3ccccc3)c12

>  <score_type>  (23) 
oracle

>  <origin>  (23) 
adg

>  <m_score__min__energy>  (23) 
-5.2000000000000002

>  <m_primary>  (23) 
energy

$$$$
23:0
     RDKit          3D

 47 49  0  0  0  0  0  0  0  0999 V2000
   59.9450   28.5200   48.2830 C   0  0  0  0  0  0  0  0  0  0  0  0
   59.6240   29.7560   47.5020 C   0  0  0  0  0  0  0  0  0  0  0  0
   58.9320   29.6590   46.2740 C   0  0  0  0  0  0  0  0  0  0  0  0
   58.6390   30.8210   45.5350 C   0  0  0  0  0  0  0  0  0  0  0  0
   57.8000   30.6750   43.9530 S   0  0  0  0  0  0  0  0  0  0  0  0
   57.4710   28.8930   44.1600 C   0  0  0  0  0  0  0  0  0  0  0  0
   56.1720   28.6810   44.8870 C   0  0  0  0  0  0  0  0  0  0  0  0
   55.3240   29.6110   44.9020 O   0  0  0  0  0  0  0  0  0  0  0  0
   55.8860   27.4780   45.6140 N   0  0  0  0  0  0  0  0  0  0  0  0
   56.8870   26.5170   46.0660 C   0  0  0  0  0  0  0  0  0  0  0  0
   56.7090   25.2190   45.3300 C   0  0  0  0  0  0  0  0  0  0  0  0
   57.8160   24.5590   44.7680 C   0  0  0  0  0  0  0  0  0  0  0  0
   57.6420   23.3470   44.0900 C   0  0  0  0  0  0  0  0  0  0  0  0
   56.3680   22.7850   43.9730 C   0  0  0  0  0  0  0  0  0  0  0  0
   56.2030   21.6090   43.3160 F   0  0  0  0  0  0  0  0  0  0  0  0
   55.2620   23.4380   44.5280 C   0  0  0  0  0  0  0  0  0  0  0  0
   55.4310   24.6500   45.2060 C   0  0  0  0  0  0  0  0  0  0  0  0
   59.0440   32.0510   46.0720 C   0  0  0  0  0  0  0  0  0  0  0  0
   58.9170   33.3700   45.6430 C   0  0  0  0  0  0  0  0  0  0  0  0
   58.2510   33.8620   44.3910 C   0  0  0  0  0  0  0  0  0  0  0  0
   59.5460   34.1500   46.6210 C   0  0  0  0  0  0  0  0  0  0  0  0
   59.6500   35.6490   46.6000 C   0  0  0  0  0  0  0  0  0  0  0  0
   60.0150   33.3620   47.6230 N   0  0  0  0  0  0  0  0  0  0  0  0
   60.6870   33.7910   48.8490 C   0  0  0  0  0  0  0  0  0  0  0  0
   59.7080   32.0990   47.2710 C   0  0  0  0  0  0  0  0  0  0  0  0
   59.9990   30.9800   47.9820 N   0  0  0  0  0  0  0  0  0  0  0  0
   59.8876   28.7410   49.3590 H   0  0  0  0  0  0  0  0  0  0  0  0
   59.2223   27.7296   48.0319 H   0  0  0  0  0  0  0  0  0  0  0  0
   60.9609   28.1811   48.0319 H   0  0  0  0  0  0  0  0  0  0  0  0
   58.6217   28.6742   45.8948 H   0  0  0  0  0  0  0  0  0  0  0  0
   57.4140   28.4175   43.1697 H   0  0  0  0  0  0  0  0  0  0  0  0
   58.2861   28.4455   44.7477 H   0  0  0  0  0  0  0  0  0  0  0  0
   57.8929   26.9155   45.8673 H   0  0  0  0  0  0  0  0  0  0  0  0
   56.7658   26.3441   47.1455 H   0  0  0  0  0  0  0  0  0  0  0  0
   58.8211   24.9962   44.8614 H   0  0  0  0  0  0  0  0  0  0  0  0
   58.5100   22.8357   43.6483 H   0  0  0  0  0  0  0  0  0  0  0  0
   54.2585   22.9979   44.4311 H   0  0  0  0  0  0  0  0  0  0  0  0
   54.5597   25.1592   45.6436 H   0  0  0  0  0  0  0  0  0  0  0  0
   57.3926   34.4962   44.6573 H   0  0  0  0  0  0  0  0  0  0  0  0
   58.9699   34.4476   43.7991 H   0  0  0  0  0  0  0  0  0  0  0  0
   57.9025   33.0028   43.7991 H   0  0  0  0  0  0  0  0  0  0  0  0
   59.6764   36.0292   47.6319 H   0  0  0  0  0  0  0  0  0  0  0  0
   60.5709   35.9454   46.0764 H   0  0  0  0  0  0  0  0  0  0  0  0
   58.7789   36.0697   46.0764 H   0  0  0  0  0  0  0  0  0  0  0  0
   60.1227   33.4307   49.7218 H   0  0  0  0  0  0  0  0  0  0  0  0
   61.7052   33.3754   48.8737 H   0  0  0  0  0  0  0  0  0  0  0  0
   60.7386   34.8895   48.8737 H   0  0  0  0  0  0  0  0  0  0  0  0
  1  2  1  0
  2  3  2  0
  3  4  1  0
  4  5  1  0
  5  6  1  0
  6  7  1  0
  7  8  2  0
  7  9  1  0
  9 10  1  0
 10 11  1  0
 11 12  2  0
 12 13  1  0
 13 14  2  0
 14 15  1  0
 14 16  1  0
 16 17  2  0
  4 18  2  0
 18 19  1  0
 19 20  1  0
 19 21  2  0
 21 22  1  0
 21 23  1  0
 23 24  1  0
 23 25  1  0
 25 26  2  0
 26  2  1  0
 17 11  1  0
 25 18  1  0
  1 27  1  0
  1 28  1  0
  1 29  1  0
  3 30  1  0
  6 31  1  0
  6 32  1  0
 10 33  1  0
 10 34  1  0
 12 35  1  0
 13 36  1  0
 16 37  1  0
 17 38  1  0
 20 39  1  0
 20 40  1  0
 20 41  1  0
 22 42  1  0
 22 43  1  0
 22 44  1  0
 24 45  1  0
 24 46  1  0
 24 47  1  0
M  CHG  1   9  -1
M  END
>  <UniqueID>  (24) 
23

>  <SMILES>  (24) 
Cc1cc(SCC(=O)[N-]Cc2ccc(F)cc2)c2c(C)c(C)n(C)c2n1

>  <Energy>  (24) 
76.02590146997727

>  <Genealogy>  (24) 
Cc1cc(SCC(=O)[N-]Cc2ccc(F)cc2)c2c(C)c(C)n(C)c2n1 (protonated)
Cc1cc(SCC(=O)[N-]Cc2ccc(F)cc2)c2c(C)c(C)n(C)c2n1 (3D coordinates assigned)
Cc1cc(SCC(=O)[N-]Cc2ccc(F)cc2)c2c(C)c(C)n(C)c2n1 (optimized conformer: 76.02590146997727 kcal/mol)

>  <smiles>  (24) 
Cc1cc(SCC(=O)NCc2ccc(F)cc2)c2c(C)c(C)n(C)c2n1

>  <score_type>  (24) 
oracle

>  <origin>  (24) 
adg

>  <m_score__min__energy>  (24) 
-10.029999999999999

>  <m_primary>  (24) 
energy

$$$$
24:0
     RDKit          3D

 48 51  0  0  0  0  0  0  0  0999 V2000
   57.2270   27.3790   45.7860 Br  0  0  0  0  0  0  0  0  0  0  0  0
   57.4480   29.0470   44.8640 C   0  0  0  0  0  0  0  0  0  0  0  0
   56.6410   29.2740   43.7410 C   0  0  0  0  0  0  0  0  0  0  0  0
   56.7440   30.4680   43.0260 C   0  0  0  0  0  0  0  0  0  0  0  0
   57.6520   31.4450   43.4290 C   0  0  0  0  0  0  0  0  0  0  0  0
   58.4630   31.2330   44.5460 C   0  0  0  0  0  0  0  0  0  0  0  0
   58.3750   30.0320   45.2830 C   0  0  0  0  0  0  0  0  0  0  0  0
   59.2130   29.8080   46.4360 N   0  0  0  0  0  0  0  0  0  0  0  0
   60.5670   30.3560   46.5630 C   0  0  0  0  0  0  0  0  0  0  0  0
   61.0260   30.3840   48.0240 C   0  0  0  0  0  0  0  0  0  0  0  0
   59.8900   30.1050   48.9130 N   0  0  0  0  0  0  0  0  0  0  0  0
   58.9420   31.2280   48.9760 C   0  0  0  0  0  0  0  0  0  0  0  0
   59.6350   32.5680   49.2690 C   0  0  0  0  0  0  0  0  0  0  0  0
   59.8810   33.2920   48.0180 N   0  0  0  0  0  0  0  0  0  0  0  0
   61.0680   33.7160   47.4940 C   0  0  0  0  0  0  0  0  0  0  0  0
   62.3890   33.5340   48.1260 C   0  0  0  0  0  0  0  0  0  0  0  0
   63.5450   33.1310   47.4900 C   0  0  0  0  0  0  0  0  0  0  0  0
   64.5230   33.0770   48.4100 N   0  0  0  0  0  0  0  0  0  0  0  0
   63.9370   33.4440   49.5660 C   0  0  0  0  0  0  0  0  0  0  0  0
   62.6630   33.7170   49.3970 O   0  0  0  0  0  0  0  0  0  0  0  0
   60.9340   34.3130   46.2800 N   0  0  0  0  0  0  0  0  0  0  0  0
   59.6130   34.2380   46.0430 C   0  0  0  0  0  0  0  0  0  0  0  0
   58.9290   34.6850   44.9150 C   0  0  0  0  0  0  0  0  0  0  0  0
   57.5390   34.4730   44.8660 C   0  0  0  0  0  0  0  0  0  0  0  0
   56.8760   33.8230   45.9310 C   0  0  0  0  0  0  0  0  0  0  0  0
   57.5980   33.3820   47.0560 C   0  0  0  0  0  0  0  0  0  0  0  0
   58.9750   33.6170   47.0770 C   0  0  0  0  0  0  0  0  0  0  0  0
   55.9216   28.5059   43.4210 H   0  0  0  0  0  0  0  0  0  0  0  0
   56.1084   30.6378   42.1444 H   0  0  0  0  0  0  0  0  0  0  0  0
   57.7303   32.3864   42.8655 H   0  0  0  0  0  0  0  0  0  0  0  0
   59.1779   32.0099   44.8548 H   0  0  0  0  0  0  0  0  0  0  0  0
   58.8450   29.2330   47.2270 H   0  0  0  0  0  0  0  0  0  0  0  0
   61.2614   29.7314   45.9820 H   0  0  0  0  0  0  0  0  0  0  0  0
   60.5586   31.3886   46.1838 H   0  0  0  0  0  0  0  0  0  0  0  0
   61.8036   29.6210   48.1762 H   0  0  0  0  0  0  0  0  0  0  0  0
   61.4303   31.3803   48.2565 H   0  0  0  0  0  0  0  0  0  0  0  0
   59.3920   29.2480   48.5760 H   0  0  0  0  0  0  0  0  0  0  0  0
   58.4209   31.3042   48.0103 H   0  0  0  0  0  0  0  0  0  0  0  0
   58.2408   31.0275   49.7995 H   0  0  0  0  0  0  0  0  0  0  0  0
   58.9904   33.1762   49.9206 H   0  0  0  0  0  0  0  0  0  0  0  0
   60.5960   32.3748   49.7682 H   0  0  0  0  0  0  0  0  0  0  0  0
   63.6478   32.8958   46.4204 H   0  0  0  0  0  0  0  0  0  0  0  0
   65.5200   32.8080   48.2620 H   0  0  0  0  0  0  0  0  0  0  0  0
   64.4601   33.5073   50.5316 H   0  0  0  0  0  0  0  0  0  0  0  0
   59.4574   35.1865   44.0908 H   0  0  0  0  0  0  0  0  0  0  0  0
   56.9646   34.8156   43.9927 H   0  0  0  0  0  0  0  0  0  0  0  0
   55.7892   33.6606   45.8807 H   0  0  0  0  0  0  0  0  0  0  0  0
   57.0954   32.8700   47.8898 H   0  0  0  0  0  0  0  0  0  0  0  0
  1  2  1  0
  2  3  2  0
  3  4  1  0
  4  5  2  0
  5  6  1  0
  6  7  2  0
  7  8  1  0
  8  9  1  0
  9 10  1  0
 10 11  1  0
 11 12  1  0
 12 13  1  0
 13 14  1  0
 14 15  1  0
 15 16  1  0
 16 17  2  0
 17 18  1  0
 18 19  2  0
 19 20  1  0
 15 21  2  0
 21 22  1  0
 22 23  2  0
 23 24  1  0
 24 25  2  0
 25 26  1  0
 26 27  2  0
  7  2  1  0
 27 14  1  0
 20 16  1  0
 27 22  1  0
  3 28  1  0
  4 29  1  0
  5 30  1  0
  6 31  1  0
  8 32  1  0
  9 33  1  0
  9 34  1  0
 10 35  1  0
 10 36  1  0
 11 37  1  0
 12 38  1  0
 12 39  1  0
 13 40  1  0
 13 41  1  0
 17 42  1  0
 18 43  1  0
 19 44  1  0
 23 45  1  0
 24 46  1  0
 25 47  1  0
 26 48  1  0
M  CHG  1  18   1
M  END
>  <UniqueID>  (25) 
24

>  <SMILES>  (25) 
Brc1ccccc1NCCNCCn1c(-c2c[nH+]co2)nc2ccccc21

>  <Energy>  (25) 
117.89323672459633

>  <Genealogy>  (25) 
Brc1ccccc1NCCNCCn1c(-c2c[nH+]co2)nc2ccccc21 (protonated)
Brc1ccccc1NCCNCCn1c(-c2c[nH+]co2)nc2ccccc21 (3D coordinates assigned)
Brc1ccccc1NCCNCCn1c(-c2c[nH+]co2)nc2ccccc21 (optimized conformer: 117.89323672459633 kcal/mol)

>  <smiles>  (25) 
Brc1ccccc1NCCNCCn1c(-c2cnco2)nc2ccccc21

>  <score_type>  (25) 
oracle

>  <origin>  (25) 
adg

>  <m_score__min__energy>  (25) 
-6.3499999999999996

>  <m_primary>  (25) 
energy

$$$$
25:0
     RDKit          3D

 67 66  0  0  0  0  0  0  0  0999 V2000
   53.3070   29.8900   51.4800 C   0  0  0  0  0  0  0  0  0  0  0  0
   54.3940   30.8430   51.9630 C   0  0  0  0  0  0  0  0  0  0  0  0
   55.6950   30.1610   51.9570 N   0  0  0  0  0  0  0  0  0  0  0  0
   56.7120   30.9310   52.6910 C   0  0  0  0  0  0  0  0  0  0  0  0
   57.4140   31.9430   51.7740 C   0  0  0  0  0  0  0  0  0  0  0  0
   58.2410   31.2980   50.6990 C   0  0  0  0  0  0  0  0  0  0  0  0
   58.1170   30.0610   50.4890 O   0  0  0  0  0  0  0  0  0  0  0  0
   59.1480   32.0560   49.9510 O   0  0  0  0  0  0  0  0  0  0  0  0
   59.6890   33.2920   50.4040 C   0  0  0  0  0  0  0  0  0  0  0  0
   60.9010   33.6750   49.5500 C   0  0  0  0  0  0  0  0  0  0  0  0
   61.0670   32.7990   48.2970 C   0  0  0  0  0  0  0  0  0  0  0  0
   61.2940   33.6130   47.0140 C   0  0  0  0  0  0  0  0  0  0  0  0
   60.1640   34.6340   46.8050 C   0  0  0  0  0  0  0  0  0  0  0  0
   59.2630   34.2840   45.6050 C   0  0  0  0  0  0  0  0  0  0  0  0
   57.8280   33.8710   45.9900 C   0  0  0  0  0  0  0  0  0  0  0  0
   57.0280   33.2320   44.8370 C   0  0  0  0  0  0  0  0  0  0  0  0
   57.9360   32.6960   43.7190 C   0  0  0  0  0  0  0  0  0  0  0  0
   57.5370   31.2680   43.3260 C   0  0  0  0  0  0  0  0  0  0  0  0
   56.3050   30.7710   44.0870 C   0  0  0  0  0  0  0  0  0  0  0  0
   56.6830   29.9830   45.2160 O   0  0  0  0  0  0  0  0  0  0  0  0
   57.9200   30.0990   45.8620 C   0  0  0  0  0  0  0  0  0  0  0  0
   58.0910   30.9500   46.7780 O   0  0  0  0  0  0  0  0  0  0  0  0
   59.0380   29.1750   45.4780 C   0  0  0  0  0  0  0  0  0  0  0  0
   60.3700   29.5590   46.1440 C   0  0  0  0  0  0  0  0  0  0  0  0
   60.4390   29.1290   47.6180 C   0  0  0  0  0  0  0  0  0  0  0  0
   59.6850   30.0530   48.4640 N   0  0  0  0  0  0  0  0  0  0  0  0
   52.7984   29.4441   52.3474 H   0  0  0  0  0  0  0  0  0  0  0  0
   52.5770   30.4444   50.8720 H   0  0  0  0  0  0  0  0  0  0  0  0
   53.7612   29.0937   50.8720 H   0  0  0  0  0  0  0  0  0  0  0  0
   54.4367   31.7161   51.2953 H   0  0  0  0  0  0  0  0  0  0  0  0
   54.1607   31.1695   52.9872 H   0  0  0  0  0  0  0  0  0  0  0  0
   56.0090   30.0900   50.9600 H   0  0  0  0  0  0  0  0  0  0  0  0
   56.2256   31.4721   53.5160 H   0  0  0  0  0  0  0  0  0  0  0  0
   57.4668   30.2301   53.0772 H   0  0  0  0  0  0  0  0  0  0  0  0
   56.6477   32.5705   51.2955 H   0  0  0  0  0  0  0  0  0  0  0  0
   58.0988   32.5312   52.4025 H   0  0  0  0  0  0  0  0  0  0  0  0
   58.9228   34.0771   50.3226 H   0  0  0  0  0  0  0  0  0  0  0  0
   60.0038   33.1867   51.4527 H   0  0  0  0  0  0  0  0  0  0  0  0
   60.7860   34.7214   49.2310 H   0  0  0  0  0  0  0  0  0  0  0  0
   61.7962   33.5255   50.1715 H   0  0  0  0  0  0  0  0  0  0  0  0
   61.9310   32.1349   48.4469 H   0  0  0  0  0  0  0  0  0  0  0  0
   60.1308   32.2366   48.1655 H   0  0  0  0  0  0  0  0  0  0  0  0
   62.2524   34.1473   47.0913 H   0  0  0  0  0  0  0  0  0  0  0  0
   61.3069   32.9228   46.1576 H   0  0  0  0  0  0  0  0  0  0  0  0
   59.5445   34.6646   47.7135 H   0  0  0  0  0  0  0  0  0  0  0  0
   60.6300   35.6088   46.5984 H   0  0  0  0  0  0  0  0  0  0  0  0
   59.2040   35.1654   44.9495 H   0  0  0  0  0  0  0  0  0  0  0  0
   59.7199   33.4142   45.1103 H   0  0  0  0  0  0  0  0  0  0  0  0
   57.8865   33.1449   46.8142 H   0  0  0  0  0  0  0  0  0  0  0  0
   57.2972   34.7919   46.2732 H   0  0  0  0  0  0  0  0  0  0  0  0
   56.4337   32.3984   45.2392 H   0  0  0  0  0  0  0  0  0  0  0  0
   56.3862   34.0123   44.4020 H   0  0  0  0  0  0  0  0  0  0  0  0
   57.8473   33.3497   42.8388 H   0  0  0  0  0  0  0  0  0  0  0  0
   58.9732   32.6825   44.0852 H   0  0  0  0  0  0  0  0  0  0  0  0
   57.3176   31.2474   42.2483 H   0  0  0  0  0  0  0  0  0  0  0  0
   58.3767   30.6049   43.5815 H   0  0  0  0  0  0  0  0  0  0  0  0
   55.7220   31.6375   44.4324 H   0  0  0  0  0  0  0  0  0  0  0  0
   55.7038   30.1465   43.4099 H   0  0  0  0  0  0  0  0  0  0  0  0
   58.7720   28.1523   45.7836 H   0  0  0  0  0  0  0  0  0  0  0  0
   59.1742   29.2473   44.3889 H   0  0  0  0  0  0  0  0  0  0  0  0
   61.1908   29.0729   45.5963 H   0  0  0  0  0  0  0  0  0  0  0  0
   60.4546   30.6553   46.1123 H   0  0  0  0  0  0  0  0  0  0  0  0
   60.0147   28.1192   47.7194 H   0  0  0  0  0  0  0  0  0  0  0  0
   61.4912   29.1360   47.9386 H   0  0  0  0  0  0  0  0  0  0  0  0
   60.0590   30.0330   49.4400 H   0  0  0  0  0  0  0  0  0  0  0  0
   59.7470   31.0250   48.0800 H   0  0  0  0  0  0  0  0  0  0  0  0
   58.6810   29.7590   48.4810 H   0  0  0  0  0  0  0  0  0  0  0  0
  1  2  1  0
  2  3  1  0
  3  4  1  0
  4  5  1  0
  5  6  1  0
  6  7  2  0
  6  8  1  0
  8  9  1  0
  9 10  1  0
 10 11  1  0
 11 12  1  0
 12 13  1  0
 13 14  1  0
 14 15  1  0
 15 16  1  0
 16 17  1  0
 17 18  1  0
 18 19  1  0
 19 20  1  0
 20 21  1  0
 21 22  2  0
 21 23  1  0
 23 24  1  0
 24 25  1  0
 25 26  1  0
  1 27  1  0
  1 28  1  0
  1 29  1  0
  2 30  1  0
  2 31  1  0
  3 32  1  0
  4 33  1  0
  4 34  1  0
  5 35  1  0
  5 36  1  0
  9 37  1  0
  9 38  1  0
 10 39  1  0
 10 40  1  0
 11 41  1  0
 11 42  1  0
 12 43  1  0
 12 44  1  0
 13 45  1  0
 13 46  1  0
 14 47  1  0
 14 48  1  0
 15 49  1  0
 15 50  1  0
 16 51  1  0
 16 52  1  0
 17 53  1  0
 17 54  1  0
 18 55  1  0
 18 56  1  0
 19 57  1  0
 19 58  1  0
 23 59  1  0
 23 60  1  0
 24 61  1  0
 24 62  1  0
 25 63  1  0
 25 64  1  0
 26 65  1  0
 26 66  1  0
 26 67  1  0
M  CHG  1  26   1
M  END
>  <UniqueID>  (26) 
25

>  <SMILES>  (26) 
CCNCCC(=O)OCCCCCCCCCCCOC(=O)CCC[NH3+]

>  <Energy>  (26) 
28.90593859993454

>  <Genealogy>  (26) 
CCNCCC(=O)OCCCCCCCCCCCOC(=O)CCC[NH3+] (protonated)
CCNCCC(=O)OCCCCCCCCCCCOC(=O)CCC[NH3+] (3D coordinates assigned)
CCNCCC(=O)OCCCCCCCCCCCOC(=O)CCC[NH3+] (optimized conformer: 28.90593859993454 kcal/mol)

>  <smiles>  (26) 
CCNCCC(=O)OCCCCCCCCCCCOC(=O)CCCN

>  <score_type>  (26) 
oracle

>  <origin>  (26) 
adg

>  <m_score__min__energy>  (26) 
-4.4900000000000002

>  <m_primary>  (26) 
energy

$$$$
26:0
     RDKit          3D

 54 56  0  0  0  0  0  0  0  0999 V2000
   56.2820   29.7020   42.7500 C   0  0  0  0  0  0  0  0  0  0  0  0
   55.7540   30.1500   44.1070 C   0  0  0  0  0  0  0  0  0  0  0  0
   56.8710   30.4630   45.0110 N   0  0  0  0  0  0  0  0  0  0  0  0
   58.1500   30.6340   44.2950 C   0  0  0  0  0  0  0  0  0  0  0  0
   59.1430   29.4830   44.5430 C   0  0  0  0  0  0  0  0  0  0  0  0
   59.4730   29.2640   46.0300 C   0  0  0  0  0  0  0  0  0  0  0  0
   58.2490   29.0130   46.8040 N   0  0  0  0  0  0  0  0  0  0  0  0
   58.5730   28.4700   48.1340 C   0  0  0  0  0  0  0  0  0  0  0  0
   59.7860   29.1780   48.7640 C   0  0  0  0  0  0  0  0  0  0  0  0
   59.5600   30.6130   48.9700 N   0  0  0  0  0  0  0  0  0  0  0  0
   60.4190   31.6400   48.4380 C   0  0  0  0  0  0  0  0  0  0  0  0
   59.9170   32.5520   47.4900 C   0  0  0  0  0  0  0  0  0  0  0  0
   58.5570   32.5320   47.1100 C   0  0  0  0  0  0  0  0  0  0  0  0
   58.0520   33.4800   46.2240 C   0  0  0  0  0  0  0  0  0  0  0  0
   58.8880   34.4610   45.7020 C   0  0  0  0  0  0  0  0  0  0  0  0
   60.2420   34.4780   46.0340 C   0  0  0  0  0  0  0  0  0  0  0  0
   60.7940   33.5040   46.9040 C   0  0  0  0  0  0  0  0  0  0  0  0
   62.1450   33.4610   47.1830 N   0  0  0  0  0  0  0  0  0  0  0  0
   63.1010   34.1970   46.3260 C   0  0  0  0  0  0  0  0  0  0  0  0
   62.6050   32.7140   48.2500 C   0  0  0  0  0  0  0  0  0  0  0  0
   63.9230   32.8650   48.7520 C   0  0  0  0  0  0  0  0  0  0  0  0
   64.3720   32.1140   49.8390 C   0  0  0  0  0  0  0  0  0  0  0  0
   66.1530   32.3440   50.4910 Br  0  0  0  0  0  0  0  0  0  0  0  0
   63.5130   31.2230   50.4730 C   0  0  0  0  0  0  0  0  0  0  0  0
   62.2050   31.0730   50.0200 C   0  0  0  0  0  0  0  0  0  0  0  0
   61.7400   31.7900   48.8980 C   0  0  0  0  0  0  0  0  0  0  0  0
   57.1135   28.9965   42.8948 H   0  0  0  0  0  0  0  0  0  0  0  0
   55.4758   29.2082   42.1877 H   0  0  0  0  0  0  0  0  0  0  0  0
   56.6380   30.5778   42.1877 H   0  0  0  0  0  0  0  0  0  0  0  0
   55.1309   31.0470   43.9759 H   0  0  0  0  0  0  0  0  0  0  0  0
   55.1563   29.3369   44.5447 H   0  0  0  0  0  0  0  0  0  0  0  0
   56.9450   29.7160   45.7390 H   0  0  0  0  0  0  0  0  0  0  0  0
   57.9420   30.6899   43.2163 H   0  0  0  0  0  0  0  0  0  0  0  0
   58.6162   31.5553   44.6743 H   0  0  0  0  0  0  0  0  0  0  0  0
   58.7072   28.5555   44.1432 H   0  0  0  0  0  0  0  0  0  0  0  0
   60.0832   29.7540   44.0403 H   0  0  0  0  0  0  0  0  0  0  0  0
   60.1449   28.3984   46.1268 H   0  0  0  0  0  0  0  0  0  0  0  0
   59.9582   30.1705   46.4210 H   0  0  0  0  0  0  0  0  0  0  0  0
   57.7690   29.9380   46.9170 H   0  0  0  0  0  0  0  0  0  0  0  0
   57.7025   28.6017   48.7935 H   0  0  0  0  0  0  0  0  0  0  0  0
   58.8237   27.4055   48.0154 H   0  0  0  0  0  0  0  0  0  0  0  0
   59.9990   28.7120   49.7374 H   0  0  0  0  0  0  0  0  0  0  0  0
   60.6313   29.0713   48.0682 H   0  0  0  0  0  0  0  0  0  0  0  0
   58.6710   30.9040   49.4340 H   0  0  0  0  0  0  0  0  0  0  0  0
   57.8894   31.7591   47.5184 H   0  0  0  0  0  0  0  0  0  0  0  0
   56.9905   33.4529   45.9366 H   0  0  0  0  0  0  0  0  0  0  0  0
   58.4798   35.2259   45.0251 H   0  0  0  0  0  0  0  0  0  0  0  0
   60.8924   35.2595   45.6143 H   0  0  0  0  0  0  0  0  0  0  0  0
   63.8137   34.7457   46.9592 H   0  0  0  0  0  0  0  0  0  0  0  0
   63.6478   33.4845   45.6909 H   0  0  0  0  0  0  0  0  0  0  0  0
   62.5520   34.9078   45.6909 H   0  0  0  0  0  0  0  0  0  0  0  0
   64.6031   33.5868   48.2761 H   0  0  0  0  0  0  0  0  0  0  0  0
   63.8672   30.6361   51.3333 H   0  0  0  0  0  0  0  0  0  0  0  0
   61.5248   30.3857   50.5445 H   0  0  0  0  0  0  0  0  0  0  0  0
  1  2  1  0
  2  3  1  0
  3  4  1  0
  4  5  1  0
  5  6  1  0
  6  7  1  0
  7  8  1  0
  8  9  1  0
  9 10  1  0
 10 11  1  0
 11 12  2  0
 12 13  1  0
 13 14  2  0
 14 15  1  0
 15 16  2  0
 16 17  1  0
 17 18  2  0
 18 19  1  0
 18 20  1  0
 20 21  2  0
 21 22  1  0
 22 23  1  0
 22 24  2  0
 24 25  1  0
 25 26  2  0
 26 11  1  0
 17 12  1  0
 26 20  1  0
  1 27  1  0
  1 28  1  0
  1 29  1  0
  2 30  1  0
  2 31  1  0
  3 32  1  0
  4 33  1  0
  4 34  1  0
  5 35  1  0
  5 36  1  0
  6 37  1  0
  6 38  1  0
  7 39  1  0
  8 40  1  0
  8 41  1  0
  9 42  1  0
  9 43  1  0
 10 44  1  0
 13 45  1  0
 14 46  1  0
 15 47  1  0
 16 48  1  0
 19 49  1  0
 19 50  1  0
 19 51  1  0
 21 52  1  0
 24 53  1  0
 25 54  1  0
M  CHG  1  18   1
M  END
>  <UniqueID>  (27) 
26

>  <SMILES>  (27) 
CCNCCCNCCNc1c2ccccc2[n+](C)c2cc(Br)ccc12

>  <Energy>  (27) 
73.94923813438153

>  <Genealogy>  (27) 
CCNCCCNCCNc1c2ccccc2[n+](C)c2cc(Br)ccc12 (3D coordinates assigned)
CCNCCCNCCNc1c2ccccc2[n+](C)c2cc(Br)ccc12 (optimized conformer: 73.94923813438153 kcal/mol)

>  <smiles>  (27) 
CCNCCCNCCNc1c2ccccc2[n+](C)c2cc(Br)ccc12

>  <score_type>  (27) 
oracle

>  <origin>  (27) 
adg

>  <m_score__min__energy>  (27) 
-6.2999999999999998

>  <m_primary>  (27) 
energy

$$$$
