0:0
     RDKit          3D

 36 38  0  0  0  0  0  0  0  0999 V2000
   58.6522   34.3581   47.7496 H   0  0  0  0  0  0  0  0  0  0  0  0
   58.4810   33.6870   46.8950 C   0  0  0  0  0  0  0  0  0  0  0  0
   57.0180   33.4710   46.0890 S   0  0  0  0  0  0  0  0  0  0  0  0
   57.6600   32.3510   45.0060 C   0  0  0  0  0  0  0  0  0  0  0  0
   57.0130   31.7540   44.0520 N   0  0  0  0  0  0  0  0  0  0  0  0
   56.5470   30.0830   44.0850 S   0  0  0  0  0  0  0  0  0  0  0  0
   55.2250   29.9560   44.7880 O   0  0  0  0  0  0  0  0  0  0  0  0
   56.4000   29.5850   42.6750 O   0  0  0  0  0  0  0  0  0  0  0  0
   57.7790   29.1280   44.9020 C   0  0  0  0  0  0  0  0  0  0  0  0
   57.4230   28.2980   45.9730 C   0  0  0  0  0  0  0  0  0  0  0  0
   56.3755   28.2526   46.3057 H   0  0  0  0  0  0  0  0  0  0  0  0
   58.3930   27.5270   46.6210 C   0  0  0  0  0  0  0  0  0  0  0  0
   58.1039   26.8677   47.4527 H   0  0  0  0  0  0  0  0  0  0  0  0
   59.7350   27.5920   46.2130 C   0  0  0  0  0  0  0  0  0  0  0  0
   60.7690   26.7330   46.8800 C   0  0  0  0  0  0  0  0  0  0  0  0
   60.6671   26.8177   47.9720 H   0  0  0  0  0  0  0  0  0  0  0  0
   60.6250   25.6850   46.5785 H   0  0  0  0  0  0  0  0  0  0  0  0
   61.7729   27.0667   46.5785 H   0  0  0  0  0  0  0  0  0  0  0  0
   60.0880   28.4160   45.1330 C   0  0  0  0  0  0  0  0  0  0  0  0
   61.1338   28.4566   44.7943 H   0  0  0  0  0  0  0  0  0  0  0  0
   59.1170   29.1850   44.4860 C   0  0  0  0  0  0  0  0  0  0  0  0
   59.4031   29.8372   43.6477 H   0  0  0  0  0  0  0  0  0  0  0  0
   58.9700   32.1320   45.2430 N   0  0  0  0  0  0  0  0  0  0  0  0
   59.5530   31.4870   44.6650 H   0  0  0  0  0  0  0  0  0  0  0  0
   59.4420   32.8670   46.2920 C   0  0  0  0  0  0  0  0  0  0  0  0
   60.8520   32.7940   46.7470 C   0  0  0  0  0  0  0  0  0  0  0  0
   61.7490   33.8410   46.4630 C   0  0  0  0  0  0  0  0  0  0  0  0
   61.4024   34.7189   45.8981 H   0  0  0  0  0  0  0  0  0  0  0  0
   63.0780   33.7730   46.8940 C   0  0  0  0  0  0  0  0  0  0  0  0
   63.7714   34.5964   46.6676 H   0  0  0  0  0  0  0  0  0  0  0  0
   63.5260   32.6620   47.6110 C   0  0  0  0  0  0  0  0  0  0  0  0
   64.5711   32.6109   47.9504 H   0  0  0  0  0  0  0  0  0  0  0  0
   62.6470   31.6160   47.8970 C   0  0  0  0  0  0  0  0  0  0  0  0
   63.0013   30.7405   48.4608 H   0  0  0  0  0  0  0  0  0  0  0  0
   61.3180   31.6780   47.4690 C   0  0  0  0  0  0  0  0  0  0  0  0
   60.6313   30.8496   47.6975 H   0  0  0  0  0  0  0  0  0  0  0  0
  1  2  1  0
  2  3  1  0
  3  4  1  0
  4  5  2  0
  5  6  1  0
  6  7  2  0
  6  8  2  0
  6  9  1  0
  9 10  2  0
 10 11  1  0
 10 12  1  0
 12 13  1  0
 12 14  2  0
 14 15  1  0
 15 16  1  0
 15 17  1  0
 15 18  1  0
 14 19  1  0
 19 20  1  0
 19 21  2  0
 21 22  1  0
  4 23  1  0
 23 24  1  0
 23 25  1  0
 25 26  1  0
 26 27  2  0
 27 28  1  0
 27 29  1  0
 29 30  1  0
 29 31  2  0
 31 32  1  0
 31 33  1  0
 33 34  1  0
 33 35  2  0
 35 36  1  0
 25  2  2  0
 35 26  1  0
 21  9  1  0
M  END
>  <UniqueID>  (1) 
1

>  <SMILES>  (1) 
Cc1ccc(S(=O)(=O)/N=c2/[nH]c(-c3ccccc3)cs2)cc1

>  <Energy>  (1) 
74.25537619174779

>  <Genealogy>  (1) 
Cc1ccc(S(=O)(=O)/N=c2/[nH]c(-c3ccccc3)cs2)cc1 (cis-trans isomerization)
Cc1ccc(S(=O)(=O)/N=c2/[nH]c(-c3ccccc3)cs2)cc1 (3D coordinates assigned)
Cc1ccc(S(=O)(=O)/N=c2/[nH]c(-c3ccccc3)cs2)cc1 (optimized conformer: 74.25537619174779 kcal/mol)

>  <smiles>  (1) 
Cc1ccc(S(=O)(=O)N=c2[nH]c(-c3ccccc3)cs2)cc1

>  <score_type>  (1) 
oracle

>  <origin>  (1) 
adg

>  <m_score__min__energy>  (1) 
-8.5999999999999996

>  <m_primary>  (1) 
energy

$$$$
1:0
     RDKit          3D

 45 47  0  0  0  0  0  0  0  0999 V2000
   57.3680   31.6030   41.9710 C   0  0  0  0  0  0  0  0  0  0  0  0
   57.6280   31.9750   43.4010 C   0  0  0  0  0  0  0  0  0  0  0  0
   58.2080   33.1910   43.7490 C   0  0  0  0  0  0  0  0  0  0  0  0
   58.3960   33.2300   45.4160 S   0  0  0  0  0  0  0  0  0  0  0  0
   57.7580   31.7090   45.7250 C   0  0  0  0  0  0  0  0  0  0  0  0
   57.3840   31.1350   44.5130 C   0  0  0  0  0  0  0  0  0  0  0  0
   56.8100   29.7390   44.4340 C   0  0  0  0  0  0  0  0  0  0  0  0
   57.7070   28.7980   43.7330 N   0  0  0  0  0  0  0  0  0  0  0  0
   58.8330   28.3070   44.5630 C   0  0  0  0  0  0  0  0  0  0  0  0
   59.8920   29.4190   44.8050 C   0  0  0  0  0  0  0  0  0  0  0  0
   60.6630   29.1960   46.1140 C   0  0  0  0  0  0  0  0  0  0  0  0
   59.7710   29.1620   47.3010 N   0  0  0  0  0  0  0  0  0  0  0  0
   59.8770   30.3530   48.1730 C   0  0  0  0  0  0  0  0  0  0  0  0
   61.0180   31.2690   47.8020 C   0  0  0  0  0  0  0  0  0  0  0  0
   60.7750   32.5430   47.2660 C   0  0  0  0  0  0  0  0  0  0  0  0
   61.8540   33.3590   46.9200 C   0  0  0  0  0  0  0  0  0  0  0  0
   63.1590   32.9070   47.1180 C   0  0  0  0  0  0  0  0  0  0  0  0
   63.3660   31.6380   47.6630 C   0  0  0  0  0  0  0  0  0  0  0  0
   62.3030   30.8560   47.9910 N   0  0  0  0  0  0  0  0  0  0  0  0
   58.3720   28.7640   47.0260 C   0  0  0  0  0  0  0  0  0  0  0  0
   58.3040   27.7260   45.9040 C   0  0  0  0  0  0  0  0  0  0  0  0
   56.7382   30.7019   41.9352 H   0  0  0  0  0  0  0  0  0  0  0  0
   56.8514   32.4317   41.4646 H   0  0  0  0  0  0  0  0  0  0  0  0
   58.3238   31.4027   41.4646 H   0  0  0  0  0  0  0  0  0  0  0  0
   58.4945   33.9907   43.0502 H   0  0  0  0  0  0  0  0  0  0  0  0
   57.6531   31.2445   46.7166 H   0  0  0  0  0  0  0  0  0  0  0  0
   56.6396   29.3692   45.4559 H   0  0  0  0  0  0  0  0  0  0  0  0
   55.8716   29.7950   43.8627 H   0  0  0  0  0  0  0  0  0  0  0  0
   58.0800   29.2760   42.8810 H   0  0  0  0  0  0  0  0  0  0  0  0
   57.1370   27.9830   43.4050 H   0  0  0  0  0  0  0  0  0  0  0  0
   59.3360   27.4987   44.0120 H   0  0  0  0  0  0  0  0  0  0  0  0
   60.6050   29.4202   43.9674 H   0  0  0  0  0  0  0  0  0  0  0  0
   59.3661   30.3824   44.8774 H   0  0  0  0  0  0  0  0  0  0  0  0
   61.1996   28.2380   46.0485 H   0  0  0  0  0  0  0  0  0  0  0  0
   61.3565   30.0403   46.2413 H   0  0  0  0  0  0  0  0  0  0  0  0
   58.9374   30.9208   48.1032 H   0  0  0  0  0  0  0  0  0  0  0  0
   60.0700   29.9915   49.1938 H   0  0  0  0  0  0  0  0  0  0  0  0
   59.7434   32.8957   47.1197 H   0  0  0  0  0  0  0  0  0  0  0  0
   61.6754   34.3565   46.4921 H   0  0  0  0  0  0  0  0  0  0  0  0
   64.0150   33.5429   46.8479 H   0  0  0  0  0  0  0  0  0  0  0  0
   64.3898   31.2707   47.8271 H   0  0  0  0  0  0  0  0  0  0  0  0
   57.9347   28.3346   47.9394 H   0  0  0  0  0  0  0  0  0  0  0  0
   57.8110   29.6561   46.7106 H   0  0  0  0  0  0  0  0  0  0  0  0
   58.9161   26.8558   46.1835 H   0  0  0  0  0  0  0  0  0  0  0  0
   57.2526   27.4343   45.7647 H   0  0  0  0  0  0  0  0  0  0  0  0
  1  2  1  0
  2  3  2  0
  3  4  1  0
  4  5  1  0
  5  6  2  0
  6  7  1  0
  7  8  1  0
  8  9  1  0
  9 10  1  0
 10 11  1  0
 11 12  1  0
 12 13  1  0
 13 14  1  0
 14 15  2  0
 15 16  1  0
 16 17  2  0
 17 18  1  0
 18 19  2  0
 12 20  1  0
 20 21  1  0
  6  2  1  0
 21  9  1  0
 19 14  1  0
  1 22  1  0
  1 23  1  0
  1 24  1  0
  3 25  1  0
  5 26  1  0
  7 27  1  0
  7 28  1  0
  8 29  1  0
  8 30  1  0
  9 31  1  0
 10 32  1  0
 10 33  1  0
 11 34  1  0
 11 35  1  0
 13 36  1  0
 13 37  1  0
 15 38  1  0
 16 39  1  0
 17 40  1  0
 18 41  1  0
 20 42  1  0
 20 43  1  0
 21 44  1  0
 21 45  1  0
M  CHG  1   8   1
M  END
>  <UniqueID>  (2) 
2

>  <SMILES>  (2) 
Cc1cscc1C[NH2+]C1CCN(Cc2ccccn2)CC1

>  <Energy>  (2) 
82.21212838742528

>  <Genealogy>  (2) 
Cc1cscc1C[NH2+]C1CCN(Cc2ccccn2)CC1 (protonated)
Cc1cscc1C[NH2+]C1CCN(Cc2ccccn2)CC1 (3D coordinates assigned)
Cc1cscc1C[NH2+]C1CCN(Cc2ccccn2)CC1 (nonaromatic ring conformer: 82.21212838742528 kcal/mol)

>  <smiles>  (2) 
Cc1cscc1CNC1CCN(Cc2ccccn2)CC1

>  <score_type>  (2) 
oracle

>  <origin>  (2) 
adg

>  <m_score__min__energy>  (2) 
-6.5

>  <m_primary>  (2) 
energy

$$$$
2:0
     RDKit          3D

 33 35  0  0  0  0  0  0  0  0999 V2000
   60.0151   34.5768   45.2505 H   0  0  0  0  0  0  0  0  0  0  0  0
   59.9650   33.6450   45.8330 C   0  0  0  0  0  0  0  0  0  0  0  0
   59.0770   32.7150   45.4590 C   0  0  0  0  0  0  0  0  0  0  0  0
   58.6750   31.6210   46.2290 O   0  0  0  0  0  0  0  0  0  0  0  0
   57.7670   30.8920   45.4640 C   0  0  0  0  0  0  0  0  0  0  0  0
   57.1070   29.7220   45.8350 C   0  0  0  0  0  0  0  0  0  0  0  0
   57.2727   29.2695   46.8238 H   0  0  0  0  0  0  0  0  0  0  0  0
   56.2230   29.1350   44.9110 C   0  0  0  0  0  0  0  0  0  0  0  0
   55.5480   27.9680   45.2460 O   0  0  0  0  0  0  0  0  0  0  0  0
   56.0180   29.7260   43.6440 C   0  0  0  0  0  0  0  0  0  0  0  0
   55.3245   29.2587   42.9294 H   0  0  0  0  0  0  0  0  0  0  0  0
   56.6940   30.9070   43.2900 C   0  0  0  0  0  0  0  0  0  0  0  0
   56.5420   31.3753   42.3063 H   0  0  0  0  0  0  0  0  0  0  0  0
   57.5630   31.4650   44.2260 C   0  0  0  0  0  0  0  0  0  0  0  0
   58.3920   32.6530   44.1690 C   0  0  0  0  0  0  0  0  0  0  0  0
   58.4980   33.4580   43.2060 O   0  0  0  0  0  0  0  0  0  0  0  0
   60.8830   33.4930   46.9840 C   0  0  0  0  0  0  0  0  0  0  0  0
   60.5380   33.9230   48.2800 C   0  0  0  0  0  0  0  0  0  0  0  0
   59.5514   34.3742   48.4617 H   0  0  0  0  0  0  0  0  0  0  0  0
   61.4410   33.7800   49.3360 C   0  0  0  0  0  0  0  0  0  0  0  0
   61.1549   34.1036   50.3476 H   0  0  0  0  0  0  0  0  0  0  0  0
   62.7110   33.2260   49.1140 C   0  0  0  0  0  0  0  0  0  0  0  0
   63.6710   33.0410   50.2590 C   0  0  0  0  0  0  0  0  0  0  0  0
   63.3270   32.2061   50.8872 H   0  0  0  0  0  0  0  0  0  0  0  0
   63.7053   33.9712   50.8452 H   0  0  0  0  0  0  0  0  0  0  0  0
   65.0720   32.7350   49.7440 C   0  0  0  0  0  0  0  0  0  0  0  0
   65.7516   32.5866   50.5961 H   0  0  0  0  0  0  0  0  0  0  0  0
   65.0463   31.8213   49.1320 H   0  0  0  0  0  0  0  0  0  0  0  0
   65.4296   33.5762   49.1320 H   0  0  0  0  0  0  0  0  0  0  0  0
   63.0620   32.8080   47.8220 C   0  0  0  0  0  0  0  0  0  0  0  0
   64.0522   32.3649   47.6398 H   0  0  0  0  0  0  0  0  0  0  0  0
   62.1590   32.9520   46.7650 C   0  0  0  0  0  0  0  0  0  0  0  0
   62.4513   32.6383   45.7520 H   0  0  0  0  0  0  0  0  0  0  0  0
  1  2  1  0
  2  3  2  0
  3  4  1  0
  4  5  1  0
  5  6  2  0
  6  7  1  0
  6  8  1  0
  8  9  1  0
  8 10  2  0
 10 11  1  0
 10 12  1  0
 12 13  1  0
 12 14  2  0
 14 15  1  0
 15 16  2  0
  2 17  1  0
 17 18  2  0
 18 19  1  0
 18 20  1  0
 20 21  1  0
 20 22  2  0
 22 23  1  0
 23 24  1  0
 23 25  1  0
 23 26  1  0
 26 27  1  0
 26 28  1  0
 26 29  1  0
 22 30  1  0
 30 31  1  0
 30 32  2  0
 32 33  1  0
 15  3  1  0
 32 17  1  0
 14  5  1  0
M  CHG  1   9  -1
M  END
>  <UniqueID>  (3) 
3

>  <SMILES>  (3) 
CCc1ccc(/C=C2\Oc3cc([O-])ccc3C2=O)cc1

>  <Energy>  (3) 
67.29759975915584

>  <Genealogy>  (3) 
CCc1ccc(C=C2Oc3cc([O-])ccc3C2=O)cc1 (protonated)
CCc1ccc(/C=C2\Oc3cc([O-])ccc3C2=O)cc1 (cis-trans isomerization)
CCc1ccc(/C=C2\Oc3cc([O-])ccc3C2=O)cc1 (3D coordinates assigned)
CCc1ccc(/C=C2\Oc3cc([O-])ccc3C2=O)cc1 (nonaromatic ring conformer: 67.29759975915584 kcal/mol)

>  <smiles>  (3) 
CCc1ccc(C=C2Oc3cc(O)ccc3C2=O)cc1

>  <score_type>  (3) 
oracle

>  <origin>  (3) 
adg

>  <m_score__min__energy>  (3) 
-9.9600000000000009

>  <m_primary>  (3) 
energy

$$$$
3:0
     RDKit          3D

 37 39  0  0  0  0  0  0  0  0999 V2000
   56.3520   30.1490   44.0660 C   0  0  0  0  0  0  0  0  0  0  0  0
   57.3750   31.1830   43.6070 C   0  0  0  0  0  0  0  0  0  0  0  0
   57.8160   32.0440   44.7600 C   0  0  0  0  0  0  0  0  0  0  0  0
   58.2360   31.4560   45.9620 C   0  0  0  0  0  0  0  0  0  0  0  0
   58.6780   32.2540   47.0210 C   0  0  0  0  0  0  0  0  0  0  0  0
   58.7300   33.6510   46.8860 C   0  0  0  0  0  0  0  0  0  0  0  0
   59.1940   34.5140   48.0330 C   0  0  0  0  0  0  0  0  0  0  0  0
   60.2620   33.8450   48.7990 N   0  0  0  0  0  0  0  0  0  0  0  0
   60.0170   33.4320   50.1610 C   0  0  0  0  0  0  0  0  0  0  0  0
   58.9760   33.7980   50.7710 O   0  0  0  0  0  0  0  0  0  0  0  0
   60.9640   32.4920   50.8420 C   0  0  0  0  0  0  0  0  0  0  0  0
   62.2930   32.6640   50.3570 O   0  0  0  0  0  0  0  0  0  0  0  0
   62.5670   32.9950   49.0280 C   0  0  0  0  0  0  0  0  0  0  0  0
   63.8500   32.7740   48.5180 C   0  0  0  0  0  0  0  0  0  0  0  0
   64.1410   33.0860   47.1900 C   0  0  0  0  0  0  0  0  0  0  0  0
   63.1520   33.6290   46.3690 C   0  0  0  0  0  0  0  0  0  0  0  0
   61.8710   33.8700   46.8750 C   0  0  0  0  0  0  0  0  0  0  0  0
   61.5610   33.5610   48.2170 C   0  0  0  0  0  0  0  0  0  0  0  0
   58.3020   34.2380   45.6830 C   0  0  0  0  0  0  0  0  0  0  0  0
   57.8600   33.4400   44.6240 C   0  0  0  0  0  0  0  0  0  0  0  0
   56.3256   30.1223   45.1654 H   0  0  0  0  0  0  0  0  0  0  0  0
   55.3578   30.4212   43.6818 H   0  0  0  0  0  0  0  0  0  0  0  0
   56.6348   29.1578   43.6818 H   0  0  0  0  0  0  0  0  0  0  0  0
   58.2500   30.6641   43.1886 H   0  0  0  0  0  0  0  0  0  0  0  0
   56.9107   31.8249   42.8439 H   0  0  0  0  0  0  0  0  0  0  0  0
   58.2175   30.3617   46.0719 H   0  0  0  0  0  0  0  0  0  0  0  0
   58.9872   31.7847   47.9666 H   0  0  0  0  0  0  0  0  0  0  0  0
   59.5781   35.4649   47.6353 H   0  0  0  0  0  0  0  0  0  0  0  0
   58.3411   34.6936   48.7040 H   0  0  0  0  0  0  0  0  0  0  0  0
   60.9482   32.6873   51.9244 H   0  0  0  0  0  0  0  0  0  0  0  0
   60.6453   31.4605   50.6313 H   0  0  0  0  0  0  0  0  0  0  0  0
   64.6325   32.3527   49.1662 H   0  0  0  0  0  0  0  0  0  0  0  0
   65.1495   32.9041   46.7902 H   0  0  0  0  0  0  0  0  0  0  0  0
   63.3809   33.8683   45.3200 H   0  0  0  0  0  0  0  0  0  0  0  0
   61.0990   34.3037   46.2224 H   0  0  0  0  0  0  0  0  0  0  0  0
   58.3149   35.3325   45.5741 H   0  0  0  0  0  0  0  0  0  0  0  0
   57.5452   33.9083   43.6798 H   0  0  0  0  0  0  0  0  0  0  0  0
  1  2  1  0
  2  3  1  0
  3  4  2  0
  4  5  1  0
  5  6  2  0
  6  7  1  0
  7  8  1  0
  8  9  1  0
  9 10  2  0
  9 11  1  0
 11 12  1  0
 12 13  1  0
 13 14  2  0
 14 15  1  0
 15 16  2  0
 16 17  1  0
 17 18  2  0
  6 19  1  0
 19 20  2  0
 20  3  1  0
 18  8  1  0
 18 13  1  0
  1 21  1  0
  1 22  1  0
  1 23  1  0
  2 24  1  0
  2 25  1  0
  4 26  1  0
  5 27  1  0
  7 28  1  0
  7 29  1  0
 11 30  1  0
 11 31  1  0
 14 32  1  0
 15 33  1  0
 16 34  1  0
 17 35  1  0
 19 36  1  0
 20 37  1  0
M  END
>  <UniqueID>  (4) 
4

>  <SMILES>  (4) 
CCc1ccc(CN2C(=O)COc3ccccc32)cc1

>  <Energy>  (4) 
40.06388486682338

>  <Genealogy>  (4) 
CCc1ccc(CN2C(=O)COc3ccccc32)cc1 (3D coordinates assigned)
CCc1ccc(CN2C(=O)COc3ccccc32)cc1 (nonaromatic ring conformer: 40.06388486682338 kcal/mol)

>  <smiles>  (4) 
CCc1ccc(CN2C(=O)COc3ccccc32)cc1

>  <score_type>  (4) 
oracle

>  <origin>  (4) 
adg

>  <m_score__min__energy>  (4) 
-6.71

>  <m_primary>  (4) 
energy

$$$$
4:0
     RDKit          3D

 35 36  0  0  0  0  0  0  0  0999 V2000
   53.9598   23.9799   45.3343 H   0  0  0  0  0  0  0  0  0  0  0  0
   54.6970   24.7480   45.6110 C   0  0  0  0  0  0  0  0  0  0  0  0
   54.4210   25.9880   45.9530 O   0  0  0  0  0  0  0  0  0  0  0  0
   55.5020   26.6590   46.2260 N   0  0  0  0  0  0  0  0  0  0  0  0
   56.5280   25.8060   46.0420 C   0  0  0  0  0  0  0  0  0  0  0  0
   57.7790   26.0940   46.2440 N   0  0  0  0  0  0  0  0  0  0  0  0
   58.3120   27.4150   46.4280 C   0  0  0  0  0  0  0  0  0  0  0  0
   59.3240   27.5570   47.1650 O   0  0  0  0  0  0  0  0  0  0  0  0
   57.7480   28.6030   45.7430 C   0  0  0  0  0  0  0  0  0  0  0  0
   58.1420   29.8960   46.1150 C   0  0  0  0  0  0  0  0  0  0  0  0
   58.8873   30.0426   46.9106 H   0  0  0  0  0  0  0  0  0  0  0  0
   57.5740   31.0040   45.4600 C   0  0  0  0  0  0  0  0  0  0  0  0
   57.9350   32.3720   45.7860 N   0  0  0  0  0  0  0  0  0  0  0  0
   58.4600   32.6580   47.1300 C   0  0  0  0  0  0  0  0  0  0  0  0
   57.7588   32.2760   47.8865 H   0  0  0  0  0  0  0  0  0  0  0  0
   59.4366   32.1672   47.2543 H   0  0  0  0  0  0  0  0  0  0  0  0
   58.5773   33.7447   47.2543 H   0  0  0  0  0  0  0  0  0  0  0  0
   57.8400   33.4840   44.8210 C   0  0  0  0  0  0  0  0  0  0  0  0
   58.3735   34.3574   45.2243 H   0  0  0  0  0  0  0  0  0  0  0  0
   56.7778   33.7220   44.6626 H   0  0  0  0  0  0  0  0  0  0  0  0
   58.4600   33.0950   43.4760 C   0  0  0  0  0  0  0  0  0  0  0  0
   59.3351   32.4517   43.6502 H   0  0  0  0  0  0  0  0  0  0  0  0
   58.7687   34.0061   42.9424 H   0  0  0  0  0  0  0  0  0  0  0  0
   57.5140   32.3970   42.6950 O   0  0  0  0  0  0  0  0  0  0  0  0
   57.9500   32.3570   41.3560 C   0  0  0  0  0  0  0  0  0  0  0  0
   59.0451   32.2565   41.3298 H   0  0  0  0  0  0  0  0  0  0  0  0
   57.4906   31.4972   40.8463 H   0  0  0  0  0  0  0  0  0  0  0  0
   57.6547   33.2860   40.8463 H   0  0  0  0  0  0  0  0  0  0  0  0
   56.6450   30.7750   44.4900 N   0  0  0  0  0  0  0  0  0  0  0  0
   56.2590   29.5200   44.1490 C   0  0  0  0  0  0  0  0  0  0  0  0
   55.5050   29.3728   43.3617 H   0  0  0  0  0  0  0  0  0  0  0  0
   56.8010   28.4450   44.7770 N   0  0  0  0  0  0  0  0  0  0  0  0
   56.4860   27.4890   44.4940 H   0  0  0  0  0  0  0  0  0  0  0  0
   56.0640   24.5710   45.6570 C   0  0  0  0  0  0  0  0  0  0  0  0
   56.6428   23.6615   45.4384 H   0  0  0  0  0  0  0  0  0  0  0  0
  1  2  1  0
  2  3  1  0
  3  4  1  0
  4  5  1  0
  5  6  2  0
  6  7  1  0
  7  8  2  0
  7  9  1  0
  9 10  2  0
 10 11  1  0
 10 12  1  0
 12 13  1  0
 13 14  1  0
 14 15  1  0
 14 16  1  0
 14 17  1  0
 13 18  1  0
 18 19  1  0
 18 20  1  0
 18 21  1  0
 21 22  1  0
 21 23  1  0
 21 24  1  0
 24 25  1  0
 25 26  1  0
 25 27  1  0
 25 28  1  0
 12 29  2  0
 29 30  1  0
 30 31  1  0
 30 32  2  0
 32 33  1  0
  5 34  1  0
 34 35  1  0
 34  2  2  0
 32  9  1  0
M  CHG  2   4  -1  32   1
M  END
>  <UniqueID>  (5) 
5

>  <SMILES>  (5) 
COCCN(C)c1cc(C(=O)/N=c2/cco[n-]2)[nH+]cn1

>  <Energy>  (5) 
72.73100295111989

>  <Genealogy>  (5) 
COCCN(C)c1cc(C(=O)N=c2cco[n-]2)[nH+]cn1 (protonated)
COCCN(C)c1cc(C(=O)/N=c2/cco[n-]2)[nH+]cn1 (cis-trans isomerization)
COCCN(C)c1cc(C(=O)/N=c2/cco[n-]2)[nH+]cn1 (3D coordinates assigned)
COCCN(C)c1cc(C(=O)/N=c2/cco[n-]2)[nH+]cn1 (optimized conformer: 72.73100295111989 kcal/mol)

>  <smiles>  (5) 
COCCN(C)c1cc(C(=O)N=c2cco[nH]2)ncn1

>  <score_type>  (5) 
oracle

>  <origin>  (5) 
adg

>  <m_score__min__energy>  (5) 
-6.9400000000000004

>  <m_primary>  (5) 
energy

$$$$
5:0
     RDKit          3D

 66 69  0  0  0  0  0  0  0  0999 V2000
   54.8710   27.0870   46.6720 H   0  0  0  0  0  0  0  0  0  0  0  0
   55.2270   26.4020   45.9700 N   0  0  0  0  0  0  0  0  0  0  0  0
   56.5990   26.0050   45.9580 C   0  0  0  0  0  0  0  0  0  0  0  0
   56.9170   24.9400   45.3630 O   0  0  0  0  0  0  0  0  0  0  0  0
   57.6520   26.8410   46.6050 C   0  0  0  0  0  0  0  0  0  0  0  0
   58.3120   26.3070   47.7170 C   0  0  0  0  0  0  0  0  0  0  0  0
   58.0397   25.3058   48.0824 H   0  0  0  0  0  0  0  0  0  0  0  0
   59.2790   27.0070   48.3460 N   0  0  0  0  0  0  0  0  0  0  0  0
   59.6640   28.2380   47.9420 C   0  0  0  0  0  0  0  0  0  0  0  0
   60.6890   28.8730   48.6540 C   0  0  0  0  0  0  0  0  0  0  0  0
   61.1358   28.3708   49.5247 H   0  0  0  0  0  0  0  0  0  0  0  0
   61.1530   30.1370   48.2740 C   0  0  0  0  0  0  0  0  0  0  0  0
   62.2400   30.8060   49.0330 C   0  0  0  0  0  0  0  0  0  0  0  0
   62.5280   30.4230   50.3560 C   0  0  0  0  0  0  0  0  0  0  0  0
   61.9442   29.6212   50.8317 H   0  0  0  0  0  0  0  0  0  0  0  0
   63.5520   31.0550   51.0710 C   0  0  0  0  0  0  0  0  0  0  0  0
   63.8130   30.6780   52.3470 F   0  0  0  0  0  0  0  0  0  0  0  0
   64.3000   32.0720   50.4730 C   0  0  0  0  0  0  0  0  0  0  0  0
   65.3160   32.6990   51.1830 O   0  0  0  0  0  0  0  0  0  0  0  0
   64.0240   32.4610   49.1570 C   0  0  0  0  0  0  0  0  0  0  0  0
   64.7510   33.4440   48.5700 F   0  0  0  0  0  0  0  0  0  0  0  0
   63.0000   31.8320   48.4400 C   0  0  0  0  0  0  0  0  0  0  0  0
   62.7875   32.1414   47.4060 H   0  0  0  0  0  0  0  0  0  0  0  0
   60.5770   30.7530   47.1590 C   0  0  0  0  0  0  0  0  0  0  0  0
   60.9355   31.7435   46.8421 H   0  0  0  0  0  0  0  0  0  0  0  0
   59.5530   30.1300   46.4410 C   0  0  0  0  0  0  0  0  0  0  0  0
   59.1278   30.6376   45.5626 H   0  0  0  0  0  0  0  0  0  0  0  0
   59.0490   28.8600   46.8170 C   0  0  0  0  0  0  0  0  0  0  0  0
   57.9860   28.1480   46.1490 C   0  0  0  0  0  0  0  0  0  0  0  0
   57.2500   28.6100   45.1650 N   0  0  0  0  0  0  0  0  0  0  0  0
   56.6370   29.8870   44.7970 C   0  0  1  0  0  0  0  0  0  0  0  0
   55.9855   30.2433   45.6086 H   0  0  0  0  0  0  0  0  0  0  0  0
   57.7720   30.9060   44.5530 C   0  0  0  0  0  0  0  0  0  0  0  0
   58.0763   31.3477   45.5134 H   0  0  0  0  0  0  0  0  0  0  0  0
   58.6253   30.3886   44.0903 H   0  0  0  0  0  0  0  0  0  0  0  0
   57.3110   31.9750   43.6500 N   0  0  0  0  0  0  0  0  0  0  0  0
   58.1120   33.2210   43.7030 C   0  0  0  0  0  0  0  0  0  0  0  0
   57.9068   33.7942   42.7868 H   0  0  0  0  0  0  0  0  0  0  0  0
   59.1596   32.9007   43.8027 H   0  0  0  0  0  0  0  0  0  0  0  0
   57.8350   34.1450   44.9150 C   0  0  0  0  0  0  0  0  0  0  0  0
   56.7568   34.1288   45.1321 H   0  0  0  0  0  0  0  0  0  0  0  0
   58.1784   35.1560   44.6506 H   0  0  0  0  0  0  0  0  0  0  0  0
   58.5690   33.7230   46.1260 N   0  0  0  0  0  0  0  0  0  0  0  0
   59.6190   34.6600   46.5910 C   0  0  0  0  0  0  0  0  0  0  0  0
   59.4293   34.8919   47.6494 H   0  0  0  0  0  0  0  0  0  0  0  0
   59.5602   35.5458   45.9415 H   0  0  0  0  0  0  0  0  0  0  0  0
   61.0470   34.1200   46.4670 C   0  0  0  0  0  0  0  0  0  0  0  0
   61.4674   33.9610   47.4710 H   0  0  0  0  0  0  0  0  0  0  0  0
   61.0319   33.1655   45.9205 H   0  0  0  0  0  0  0  0  0  0  0  0
   61.6673   34.8457   45.9205 H   0  0  0  0  0  0  0  0  0  0  0  0
   57.7530   33.1110   47.2030 C   0  0  0  0  0  0  0  0  0  0  0  0
   56.9643   33.8246   47.4836 H   0  0  0  0  0  0  0  0  0  0  0  0
   57.3572   32.1684   46.7970 H   0  0  0  0  0  0  0  0  0  0  0  0
   58.5400   32.7430   48.4710 C   0  0  0  0  0  0  0  0  0  0  0  0
   57.9527   33.0176   49.3597 H   0  0  0  0  0  0  0  0  0  0  0  0
   58.7348   31.6604   48.4804 H   0  0  0  0  0  0  0  0  0  0  0  0
   59.4957   33.2876   48.4804 H   0  0  0  0  0  0  0  0  0  0  0  0
   57.0400   31.4980   42.2750 C   0  0  0  0  0  0  0  0  0  0  0  0
   56.3002   32.1655   41.8091 H   0  0  0  0  0  0  0  0  0  0  0  0
   57.9923   31.5042   41.7245 H   0  0  0  0  0  0  0  0  0  0  0  0
   56.4920   30.0570   42.2490 C   0  0  0  0  0  0  0  0  0  0  0  0
   55.8067   29.9487   41.3954 H   0  0  0  0  0  0  0  0  0  0  0  0
   57.3400   29.3627   42.1550 H   0  0  0  0  0  0  0  0  0  0  0  0
   55.7370   29.7300   43.5410 C   0  0  0  0  0  0  0  0  0  0  0  0
   54.8780   30.4110   43.6323 H   0  0  0  0  0  0  0  0  0  0  0  0
   55.4096   28.6813   43.4868 H   0  0  0  0  0  0  0  0  0  0  0  0
  1  2  1  0
  2  3  1  0
  3  4  2  0
  3  5  1  0
  5  6  2  0
  6  7  1  0
  6  8  1  0
  8  9  1  0
  9 10  2  0
 10 11  1  0
 10 12  1  0
 12 13  1  0
 13 14  2  0
 14 15  1  0
 14 16  1  0
 16 17  1  0
 16 18  2  0
 18 19  1  0
 18 20  1  0
 20 21  1  0
 20 22  2  0
 22 23  1  0
 12 24  2  0
 24 25  1  0
 24 26  1  0
 26 27  1  0
 26 28  2  0
 28 29  1  0
 29 30  2  0
 30 31  1  0
 31 32  1  1
 31 33  1  0
 33 34  1  0
 33 35  1  0
 33 36  1  0
 36 37  1  0
 37 38  1  0
 37 39  1  0
 37 40  1  0
 40 41  1  0
 40 42  1  0
 40 43  1  0
 43 44  1  0
 44 45  1  0
 44 46  1  0
 44 47  1  0
 47 48  1  0
 47 49  1  0
 47 50  1  0
 43 51  1  0
 51 52  1  0
 51 53  1  0
 51 54  1  0
 54 55  1  0
 54 56  1  0
 54 57  1  0
 36 58  1  0
 58 59  1  0
 58 60  1  0
 58 61  1  0
 61 62  1  0
 61 63  1  0
 61 64  1  0
 64 65  1  0
 64 66  1  0
 29  5  1  0
 64 31  1  0
 28  9  1  0
 22 13  1  0
M  CHG  3   2  -1   8  -1  19  -1
M  END
>  <UniqueID>  (6) 
6

>  <SMILES>  (6) 
CCN(CC)CCN1CCC[C@@H](/N=c2/c(C([NH-])=O)c[n-]c3cc(-c4cc(F)c([O-])c(F)c4)ccc23)C1

>  <Energy>  (6) 
116.07734653166318

>  <Genealogy>  (6) 
CCN(CC)CCN1CCCC(N=c2c(C([NH-])=O)c[n-]c3cc(-c4cc(F)c([O-])c(F)c4)ccc23)C1 (protonated)
CCN(CC)CCN1CCC[C@@H](N=c2c(C([NH-])=O)c[n-]c3cc(-c4cc(F)c([O-])c(F)c4)ccc23)C1 (chirality)
CCN(CC)CCN1CCC[C@@H](/N=c2/c(C([NH-])=O)c[n-]c3cc(-c4cc(F)c([O-])c(F)c4)ccc23)C1 (cis-trans isomerization)
CCN(CC)CCN1CCC[C@@H](/N=c2/c(C([NH-])=O)c[n-]c3cc(-c4cc(F)c([O-])c(F)c4)ccc23)C1 (3D coordinates assigned)
CCN(CC)CCN1CCC[C@@H](/N=c2/c(C([NH-])=O)c[n-]c3cc(-c4cc(F)c([O-])c(F)c4)ccc23)C1 (nonaromatic ring conformer: 116.07734653166318 kcal/mol)

>  <smiles>  (6) 
CCN(CC)CCN1CCCC(N=c2c(C(N)=O)c[nH]c3cc(-c4cc(F)c(O)c(F)c4)ccc23)C1

>  <score_type>  (6) 
oracle

>  <origin>  (6) 
adg

>  <m_score__min__energy>  (6) 
-13.460000000000001

>  <m_primary>  (6) 
energy

$$$$
6:0
     RDKit          3D

 27 28  0  0  0  0  0  0  0  0999 V2000
   58.9830   34.5920   44.9020 C   0  0  0  0  0  0  0  0  0  0  0  0
   57.3920   33.7260   44.9140 S   0  0  0  0  0  0  0  0  0  0  0  0
   57.6090   31.9710   45.0020 C   0  0  0  0  0  0  0  0  0  0  0  0
   56.5030   31.1980   44.7900 N   0  0  0  0  0  0  0  0  0  0  0  0
   56.5510   29.8490   44.8520 C   0  0  0  0  0  0  0  0  0  0  0  0
   55.4950   29.1630   44.6460 O   0  0  0  0  0  0  0  0  0  0  0  0
   57.7690   29.2490   45.1410 C   0  0  0  0  0  0  0  0  0  0  0  0
   57.8900   27.3300   45.2380 Br  0  0  0  0  0  0  0  0  0  0  0  0
   58.8900   30.0260   45.3560 C   0  0  0  0  0  0  0  0  0  0  0  0
   60.2100   29.4290   45.6750 C   0  0  0  0  0  0  0  0  0  0  0  0
   60.7800   29.9470   47.3350 S   0  0  0  0  0  0  0  0  0  0  0  0
   61.6310   31.5050   47.1260 C   0  0  0  0  0  0  0  0  0  0  0  0
   60.9560   32.6640   46.8690 N   0  0  0  0  0  0  0  0  0  0  0  0
   61.6060   33.8380   46.7340 C   0  0  0  0  0  0  0  0  0  0  0  0
   62.9940   33.8390   46.8640 C   0  0  0  0  0  0  0  0  0  0  0  0
   63.6850   32.6840   47.1230 C   0  0  0  0  0  0  0  0  0  0  0  0
   62.9970   31.5230   47.2520 N   0  0  0  0  0  0  0  0  0  0  0  0
   58.7810   31.3650   45.2810 N   0  0  0  0  0  0  0  0  0  0  0  0
   59.3111   34.7706   45.9366 H   0  0  0  0  0  0  0  0  0  0  0  0
   59.7314   33.9768   44.3810 H   0  0  0  0  0  0  0  0  0  0  0  0
   58.8726   35.5545   44.3810 H   0  0  0  0  0  0  0  0  0  0  0  0
   60.1245   28.3326   45.6499 H   0  0  0  0  0  0  0  0  0  0  0  0
   60.9408   29.7756   44.9295 H   0  0  0  0  0  0  0  0  0  0  0  0
   61.0566   34.7682   46.5272 H   0  0  0  0  0  0  0  0  0  0  0  0
   63.5452   34.7849   46.7567 H   0  0  0  0  0  0  0  0  0  0  0  0
   64.7802   32.6988   47.2246 H   0  0  0  0  0  0  0  0  0  0  0  0
   59.5960   32.0150   45.4330 H   0  0  0  0  0  0  0  0  0  0  0  0
  1  2  1  0
  2  3  1  0
  3  4  2  0
  4  5  1  0
  5  6  2  0
  5  7  1  0
  7  8  1  0
  7  9  2  0
  9 10  1  0
 10 11  1  0
 11 12  1  0
 12 13  2  0
 13 14  1  0
 14 15  2  0
 15 16  1  0
 16 17  2  0
  9 18  1  0
 18  3  1  0
 17 12  1  0
  1 19  1  0
  1 20  1  0
  1 21  1  0
 10 22  1  0
 10 23  1  0
 14 24  1  0
 15 25  1  0
 16 26  1  0
 18 27  1  0
M  END
>  <smiles>  (7) 
CSc1nc(=O)c(Br)c(CSc2ncccn2)[nH]1

>  <score_type>  (7) 
oracle

>  <origin>  (7) 
adg

>  <m_score__min__energy>  (7) 
-6.8899999999999997

>  <m_primary>  (7) 
energy

$$$$
7:0
     RDKit          3D

 55 59  0  0  0  0  0  0  0  0999 V2000
   59.5850   35.4860   46.6260 C   0  0  0  0  0  0  0  0  0  0  0  0
   58.9630   34.3140   45.9290 C   0  0  0  0  0  0  0  0  0  0  0  0
   58.1320   33.4330   46.6390 C   0  0  0  0  0  0  0  0  0  0  0  0
   57.5260   32.3550   45.9850 C   0  0  0  0  0  0  0  0  0  0  0  0
   57.7250   32.1610   44.6110 C   0  0  0  0  0  0  0  0  0  0  0  0
   56.9700   30.8000   43.7850 S   0  0  0  0  0  0  0  0  0  0  0  0
   56.6530   31.2080   42.3740 O   0  0  0  0  0  0  0  0  0  0  0  0
   55.6960   30.4060   44.4780 O   0  0  0  0  0  0  0  0  0  0  0  0
   58.0420   29.4340   43.7510 N   0  0  0  0  0  0  0  0  0  0  0  0
   58.8320   28.9970   44.8730 C   0  0  0  0  0  0  0  0  0  0  0  0
   59.1040   27.6370   45.1080 C   0  0  0  0  0  0  0  0  0  0  0  0
   59.8660   27.2530   46.2130 C   0  0  0  0  0  0  0  0  0  0  0  0
   60.3730   28.2130   47.0900 C   0  0  0  0  0  0  0  0  0  0  0  0
   60.1280   29.5800   46.8670 C   0  0  0  0  0  0  0  0  0  0  0  0
   60.6730   30.6230   47.7730 C   0  0  0  0  0  0  0  0  0  0  0  0
   61.9460   31.1900   47.5770 C   0  0  0  0  0  0  0  0  0  0  0  0
   62.3360   32.1710   48.4250 N   0  0  0  0  0  0  0  0  0  0  0  0
   63.4610   32.8960   48.4300 C   0  0  0  0  0  0  0  0  0  0  0  0
   63.3550   33.7990   49.4690 C   0  0  0  0  0  0  0  0  0  0  0  0
   62.1680   33.6400   50.1030 N   0  0  0  0  0  0  0  0  0  0  0  0
   61.5780   32.6280   49.4350 C   0  0  0  0  0  0  0  0  0  0  0  0
   60.3020   32.0740   49.6630 C   0  0  0  0  0  0  0  0  0  0  0  0
   59.4000   32.5100   50.7170 N   0  0  0  0  0  0  0  0  0  0  0  0
   59.4650   33.8800   51.2600 C   0  0  0  0  0  0  0  0  0  0  0  0
   58.6080   34.0650   52.5150 C   0  0  0  0  0  0  0  0  0  0  0  0
   57.3610   33.4240   52.3740 O   0  0  0  0  0  0  0  0  0  0  0  0
   57.5730   32.0310   52.3660 C   0  0  0  0  0  0  0  0  0  0  0  0
   58.2990   31.5970   51.0900 C   0  0  0  0  0  0  0  0  0  0  0  0
   59.9010   31.0880   48.8020 N   0  0  0  0  0  0  0  0  0  0  0  0
   59.3420   29.9570   45.7630 C   0  0  0  0  0  0  0  0  0  0  0  0
   58.5380   33.0520   43.8950 C   0  0  0  0  0  0  0  0  0  0  0  0
   59.1490   34.1270   44.5490 C   0  0  0  0  0  0  0  0  0  0  0  0
   59.5111   35.3467   47.7146 H   0  0  0  0  0  0  0  0  0  0  0  0
   60.6436   35.5647   46.3375 H   0  0  0  0  0  0  0  0  0  0  0  0
   59.0569   36.4068   46.3375 H   0  0  0  0  0  0  0  0  0  0  0  0
   57.9567   33.5909   47.7134 H   0  0  0  0  0  0  0  0  0  0  0  0
   56.8912   31.6572   46.5508 H   0  0  0  0  0  0  0  0  0  0  0  0
   58.0860   28.8950   42.8580 H   0  0  0  0  0  0  0  0  0  0  0  0
   58.7149   26.8733   44.4186 H   0  0  0  0  0  0  0  0  0  0  0  0
   60.0681   26.1869   46.3936 H   0  0  0  0  0  0  0  0  0  0  0  0
   60.9676   27.8988   47.9605 H   0  0  0  0  0  0  0  0  0  0  0  0
   62.6018   30.8480   46.7628 H   0  0  0  0  0  0  0  0  0  0  0  0
   64.3093   32.7921   47.7375 H   0  0  0  0  0  0  0  0  0  0  0  0
   64.1217   34.5390   49.7421 H   0  0  0  0  0  0  0  0  0  0  0  0
   60.5110   34.1081   51.5126 H   0  0  0  0  0  0  0  0  0  0  0  0
   59.0723   34.5594   50.4892 H   0  0  0  0  0  0  0  0  0  0  0  0
   59.1374   33.6360   53.3785 H   0  0  0  0  0  0  0  0  0  0  0  0
   58.4341   35.1407   52.6651 H   0  0  0  0  0  0  0  0  0  0  0  0
   58.1823   31.7543   53.2390 H   0  0  0  0  0  0  0  0  0  0  0  0
   56.5963   31.5263   52.4040 H   0  0  0  0  0  0  0  0  0  0  0  0
   58.7151   30.5910   51.2476 H   0  0  0  0  0  0  0  0  0  0  0  0
   57.5651   31.6121   50.2707 H   0  0  0  0  0  0  0  0  0  0  0  0
   59.1229   31.0216   45.5936 H   0  0  0  0  0  0  0  0  0  0  0  0
   58.6955   32.9050   42.8163 H   0  0  0  0  0  0  0  0  0  0  0  0
   59.7774   34.8285   43.9807 H   0  0  0  0  0  0  0  0  0  0  0  0
  1  2  1  0
  2  3  2  0
  3  4  1  0
  4  5  2  0
  5  6  1  0
  6  7  2  0
  6  8  2  0
  6  9  1  0
  9 10  1  0
 10 11  2  0
 11 12  1  0
 12 13  2  0
 13 14  1  0
 14 15  1  0
 15 16  2  0
 16 17  1  0
 17 18  1  0
 18 19  2  0
 19 20  1  0
 20 21  2  0
 21 22  1  0
 22 23  1  0
 23 24  1  0
 24 25  1  0
 25 26  1  0
 26 27  1  0
 27 28  1  0
 22 29  2  0
 14 30  2  0
  5 31  1  0
 31 32  2  0
 32  2  1  0
 30 10  1  0
 29 15  1  0
 21 17  1  0
 28 23  1  0
  1 33  1  0
  1 34  1  0
  1 35  1  0
  3 36  1  0
  4 37  1  0
  9 38  1  0
 11 39  1  0
 12 40  1  0
 13 41  1  0
 16 42  1  0
 18 43  1  0
 19 44  1  0
 24 45  1  0
 24 46  1  0
 25 47  1  0
 25 48  1  0
 27 49  1  0
 27 50  1  0
 28 51  1  0
 28 52  1  0
 30 53  1  0
 31 54  1  0
 32 55  1  0
M  END
>  <UniqueID>  (8) 
7

>  <SMILES>  (8) 
Cc1ccc(S(=O)(=O)Nc2cccc(-c3cn4ccnc4c(N4CCOCC4)n3)c2)cc1

>  <Energy>  (8) 
108.20226551573727

>  <Genealogy>  (8) 
Cc1ccc(S(=O)(=O)Nc2cccc(-c3cn4ccnc4c(N4CCOCC4)n3)c2)cc1 (3D coordinates assigned)
Cc1ccc(S(=O)(=O)Nc2cccc(-c3cn4ccnc4c(N4CCOCC4)n3)c2)cc1 (nonaromatic ring conformer: 108.20226551573727 kcal/mol)

>  <smiles>  (8) 
Cc1ccc(S(=O)(=O)Nc2cccc(-c3cn4ccnc4c(N4CCOCC4)n3)c2)cc1

>  <score_type>  (8) 
oracle

>  <origin>  (8) 
adg

>  <m_score__min__energy>  (8) 
-9.9000000000000004

>  <m_primary>  (8) 
energy

$$$$
8:0
     RDKit          3D

 36 38  0  0  0  0  0  0  0  0999 V2000
   55.0250   23.7160   44.3940 C   0  0  0  0  0  0  0  0  0  0  0  0
   56.1630   23.8170   43.4650 N   0  0  0  0  0  0  0  0  0  0  0  0
   56.2780   22.5690   42.6910 C   0  0  0  0  0  0  0  0  0  0  0  0
   57.4060   24.0870   44.2170 C   0  0  0  0  0  0  0  0  0  0  0  0
   57.5450   25.5590   44.5020 C   0  0  0  0  0  0  0  0  0  0  0  0
   58.0000   26.4280   43.5000 C   0  0  0  0  0  0  0  0  0  0  0  0
   58.1490   27.7920   43.7610 C   0  0  0  0  0  0  0  0  0  0  0  0
   57.8480   28.3150   45.0320 C   0  0  0  0  0  0  0  0  0  0  0  0
   58.0130   29.7650   45.2930 C   0  0  0  0  0  0  0  0  0  0  0  0
   59.1210   30.3890   45.8750 C   0  0  0  0  0  0  0  0  0  0  0  0
   58.7730   31.7210   45.8880 C   0  0  0  0  0  0  0  0  0  0  0  0
   59.4930   32.8180   46.3540 C   0  0  0  0  0  0  0  0  0  0  0  0
   58.8890   34.0820   46.2450 C   0  0  0  0  0  0  0  0  0  0  0  0
   57.6040   34.2100   45.6810 C   0  0  0  0  0  0  0  0  0  0  0  0
   56.9310   33.0650   45.2290 C   0  0  0  0  0  0  0  0  0  0  0  0
   57.5510   31.8650   45.3550 N   0  0  0  0  0  0  0  0  0  0  0  0
   57.0700   30.6910   44.9860 N   0  0  0  0  0  0  0  0  0  0  0  0
   57.3960   27.4380   46.0360 C   0  0  0  0  0  0  0  0  0  0  0  0
   57.2480   26.0730   45.7720 C   0  0  0  0  0  0  0  0  0  0  0  0
   55.3934   23.7487   45.4300 H   0  0  0  0  0  0  0  0  0  0  0  0
   54.3364   24.5566   44.2230 H   0  0  0  0  0  0  0  0  0  0  0  0
   54.4952   22.7673   44.2230 H   0  0  0  0  0  0  0  0  0  0  0  0
   56.3566   21.7157   43.3807 H   0  0  0  0  0  0  0  0  0  0  0  0
   55.3873   22.4473   42.0571 H   0  0  0  0  0  0  0  0  0  0  0  0
   57.1760   22.6121   42.0571 H   0  0  0  0  0  0  0  0  0  0  0  0
   57.3797   23.5356   45.1685 H   0  0  0  0  0  0  0  0  0  0  0  0
   58.2644   23.7609   43.6113 H   0  0  0  0  0  0  0  0  0  0  0  0
   58.2411   26.0330   42.5021 H   0  0  0  0  0  0  0  0  0  0  0  0
   58.5049   28.4634   42.9657 H   0  0  0  0  0  0  0  0  0  0  0  0
   60.0506   29.9253   46.2368 H   0  0  0  0  0  0  0  0  0  0  0  0
   60.4957   32.6997   46.7905 H   0  0  0  0  0  0  0  0  0  0  0  0
   59.4218   34.9758   46.6016 H   0  0  0  0  0  0  0  0  0  0  0  0
   57.1322   35.2000   45.5958 H   0  0  0  0  0  0  0  0  0  0  0  0
   55.9275   33.1383   44.7844 H   0  0  0  0  0  0  0  0  0  0  0  0
   57.1574   27.8296   47.0359 H   0  0  0  0  0  0  0  0  0  0  0  0
   56.8962   25.3979   46.5661 H   0  0  0  0  0  0  0  0  0  0  0  0
  1  2  1  0
  2  3  1  0
  2  4  1  0
  4  5  1  0
  5  6  2  0
  6  7  1  0
  7  8  2  0
  8  9  1  0
  9 10  1  0
 10 11  2  0
 11 12  1  0
 12 13  2  0
 13 14  1  0
 14 15  2  0
 15 16  1  0
 16 17  1  0
  8 18  1  0
 18 19  2  0
 19  5  1  0
 17  9  2  0
 16 11  1  0
  1 20  1  0
  1 21  1  0
  1 22  1  0
  3 23  1  0
  3 24  1  0
  3 25  1  0
  4 26  1  0
  4 27  1  0
  6 28  1  0
  7 29  1  0
 10 30  1  0
 12 31  1  0
 13 32  1  0
 14 33  1  0
 15 34  1  0
 18 35  1  0
 19 36  1  0
M  END
>  <UniqueID>  (9) 
8

>  <SMILES>  (9) 
CN(C)Cc1ccc(-c2cc3ccccn3n2)cc1

>  <Energy>  (9) 
74.23388335493746

>  <Genealogy>  (9) 
CN(C)Cc1ccc(-c2cc3ccccn3n2)cc1 (3D coordinates assigned)
CN(C)Cc1ccc(-c2cc3ccccn3n2)cc1 (optimized conformer: 74.23388335493746 kcal/mol)

>  <smiles>  (9) 
CN(C)Cc1ccc(-c2cc3ccccn3n2)cc1

>  <score_type>  (9) 
oracle

>  <origin>  (9) 
adg

>  <m_score__min__energy>  (9) 
-6.54

>  <m_primary>  (9) 
energy

$$$$
9:0
     RDKit          3D

 43 45  0  0  0  0  0  0  0  0999 V2000
   59.6810   34.5880   48.8220 C   0  0  0  0  0  0  0  0  0  0  0  0
   59.2300   34.0160   47.5100 C   0  0  0  0  0  0  0  0  0  0  0  0
   58.2930   32.9730   47.4920 C   0  0  0  0  0  0  0  0  0  0  0  0
   57.8600   32.4350   46.2770 C   0  0  0  0  0  0  0  0  0  0  0  0
   58.3710   32.9230   45.0640 C   0  0  0  0  0  0  0  0  0  0  0  0
   57.9080   32.3320   43.7610 C   0  0  0  0  0  0  0  0  0  0  0  0
   58.0060   30.8750   43.7950 N   0  0  0  0  0  0  0  0  0  0  0  0
   56.9470   30.0470   44.2930 C   0  0  0  0  0  0  0  0  0  0  0  0
   55.9430   30.5630   44.8510 O   0  0  0  0  0  0  0  0  0  0  0  0
   57.0160   28.5580   44.1310 C   0  0  0  0  0  0  0  0  0  0  0  0
   58.1640   28.0010   44.8430 N   0  0  0  0  0  0  0  0  0  0  0  0
   58.2870   27.8380   46.2630 C   0  0  0  0  0  0  0  0  0  0  0  0
   57.7720   26.8220   46.8010 O   0  0  0  0  0  0  0  0  0  0  0  0
   59.0220   28.8050   47.1070 C   0  0  0  0  0  0  0  0  0  0  0  0
   58.5270   29.1300   48.3760 C   0  0  0  0  0  0  0  0  0  0  0  0
   59.1700   30.0360   49.1550 N   0  0  0  0  0  0  0  0  0  0  0  0
   60.3140   30.6450   48.7520 C   0  0  0  0  0  0  0  0  0  0  0  0
   60.9300   31.5840   49.5890 C   0  0  0  0  0  0  0  0  0  0  0  0
   62.1110   32.2130   49.1880 C   0  0  0  0  0  0  0  0  0  0  0  0
   62.6890   31.8980   47.9570 C   0  0  0  0  0  0  0  0  0  0  0  0
   62.0860   30.9580   47.1170 C   0  0  0  0  0  0  0  0  0  0  0  0
   60.8850   30.3280   47.4970 C   0  0  0  0  0  0  0  0  0  0  0  0
   60.2270   29.3930   46.6670 C   0  0  0  0  0  0  0  0  0  0  0  0
   60.8780   28.9780   45.0750 Cl  0  0  0  0  0  0  0  0  0  0  0  0
   59.3030   33.9720   45.0820 C   0  0  0  0  0  0  0  0  0  0  0  0
   59.7310   34.5150   46.2980 C   0  0  0  0  0  0  0  0  0  0  0  0
   59.2298   34.0157   49.6460 H   0  0  0  0  0  0  0  0  0  0  0  0
   60.7772   34.5277   48.8909 H   0  0  0  0  0  0  0  0  0  0  0  0
   59.3666   35.6399   48.8909 H   0  0  0  0  0  0  0  0  0  0  0  0
   57.8969   32.5764   48.4385 H   0  0  0  0  0  0  0  0  0  0  0  0
   57.1153   31.6254   46.2712 H   0  0  0  0  0  0  0  0  0  0  0  0
   56.8611   32.6201   43.5848 H   0  0  0  0  0  0  0  0  0  0  0  0
   58.5481   32.7122   42.9512 H   0  0  0  0  0  0  0  0  0  0  0  0
   58.8500   30.4210   43.3770 H   0  0  0  0  0  0  0  0  0  0  0  0
   56.0942   28.1106   44.5311 H   0  0  0  0  0  0  0  0  0  0  0  0
   57.1258   28.3291   43.0607 H   0  0  0  0  0  0  0  0  0  0  0  0
   57.6098   28.6471   48.7441 H   0  0  0  0  0  0  0  0  0  0  0  0
   60.4828   31.8267   50.5643 H   0  0  0  0  0  0  0  0  0  0  0  0
   62.5863   32.9578   49.8433 H   0  0  0  0  0  0  0  0  0  0  0  0
   63.6221   32.3913   47.6472 H   0  0  0  0  0  0  0  0  0  0  0  0
   62.5524   30.7084   46.1526 H   0  0  0  0  0  0  0  0  0  0  0  0
   59.6988   34.3691   44.1356 H   0  0  0  0  0  0  0  0  0  0  0  0
   60.4629   35.3361   46.3041 H   0  0  0  0  0  0  0  0  0  0  0  0
  1  2  1  0
  2  3  2  0
  3  4  1  0
  4  5  2  0
  5  6  1  0
  6  7  1  0
  7  8  1  0
  8  9  2  0
  8 10  1  0
 10 11  1  0
 11 12  1  0
 12 13  2  0
 12 14  1  0
 14 15  2  0
 15 16  1  0
 16 17  2  0
 17 18  1  0
 18 19  2  0
 19 20  1  0
 20 21  2  0
 21 22  1  0
 22 23  2  0
 23 24  1  0
  5 25  1  0
 25 26  2  0
 26  2  1  0
 23 14  1  0
 22 17  1  0
  1 27  1  0
  1 28  1  0
  1 29  1  0
  3 30  1  0
  4 31  1  0
  6 32  1  0
  6 33  1  0
  7 34  1  0
 10 35  1  0
 10 36  1  0
 15 37  1  0
 18 38  1  0
 19 39  1  0
 20 40  1  0
 21 41  1  0
 25 42  1  0
 26 43  1  0
M  CHG  1  11  -1
M  END
>  <UniqueID>  (10) 
9

>  <SMILES>  (10) 
Cc1ccc(CNC(=O)C[N-]C(=O)c2cnc3ccccc3c2Cl)cc1

>  <Energy>  (10) 
46.388593570404986

>  <Genealogy>  (10) 
Cc1ccc(CNC(=O)C[N-]C(=O)c2cnc3ccccc3c2Cl)cc1 (protonated)
Cc1ccc(CNC(=O)C[N-]C(=O)c2cnc3ccccc3c2Cl)cc1 (3D coordinates assigned)
Cc1ccc(CNC(=O)C[N-]C(=O)c2cnc3ccccc3c2Cl)cc1 (optimized conformer: 46.388593570404986 kcal/mol)

>  <smiles>  (10) 
Cc1ccc(CNC(=O)CNC(=O)c2cnc3ccccc3c2Cl)cc1

>  <score_type>  (10) 
oracle

>  <origin>  (10) 
adg

>  <m_score__min__energy>  (10) 
-10.17

>  <m_primary>  (10) 
energy

$$$$
10:0
     RDKit          3D

 35 38  0  0  0  0  0  0  0  0999 V2000
   55.3530   29.3370   43.9480 O   0  0  0  0  0  0  0  0  0  0  0  0
   56.2280   29.8780   44.6740 C   0  0  0  0  0  0  0  0  0  0  0  0
   57.1310   29.0300   45.5300 C   0  0  0  0  0  0  0  0  0  0  0  0
   58.5420   29.6510   45.7350 C   0  0  2  0  0  0  0  0  0  0  0  0
   59.2020   28.9590   46.9120 C   0  0  0  0  0  0  0  0  0  0  0  0
   59.9460   27.7840   46.7090 C   0  0  0  0  0  0  0  0  0  0  0  0
   60.5570   27.1410   47.7860 C   0  0  0  0  0  0  0  0  0  0  0  0
   60.4170   27.6500   49.0800 C   0  0  0  0  0  0  0  0  0  0  0  0
   59.6390   28.7950   49.3130 C   0  0  0  0  0  0  0  0  0  0  0  0
   59.5200   29.3730   50.7010 C   0  0  0  0  0  0  0  0  0  0  0  0
   59.9930   28.4520   51.6180 F   0  0  0  0  0  0  0  0  0  0  0  0
   60.2590   30.5370   50.8090 F   0  0  0  0  0  0  0  0  0  0  0  0
   58.2010   29.6700   51.0000 F   0  0  0  0  0  0  0  0  0  0  0  0
   59.0450   29.4520   48.2210 C   0  0  0  0  0  0  0  0  0  0  0  0
   58.4920   31.1660   45.8940 C   0  0  0  0  0  0  0  0  0  0  0  0
   57.3980   31.8950   45.4360 C   0  0  0  0  0  0  0  0  0  0  0  0
   57.6360   33.5510   45.6200 S   0  0  0  0  0  0  0  0  0  0  0  0
   59.1750   33.3720   46.2720 C   0  0  0  0  0  0  0  0  0  0  0  0
   60.0480   34.3870   46.6550 C   0  0  0  0  0  0  0  0  0  0  0  0
   61.3260   34.0300   47.1070 C   0  0  0  0  0  0  0  0  0  0  0  0
   61.7120   32.6790   47.1480 C   0  0  0  0  0  0  0  0  0  0  0  0
   60.8200   31.6690   46.7520 C   0  0  0  0  0  0  0  0  0  0  0  0
   59.5280   32.0240   46.3310 C   0  0  0  0  0  0  0  0  0  0  0  0
   56.2940   31.3000   44.7620 N   0  0  0  0  0  0  0  0  0  0  0  0
   56.6591   28.9015   46.5153 H   0  0  0  0  0  0  0  0  0  0  0  0
   57.2687   28.0709   45.0093 H   0  0  0  0  0  0  0  0  0  0  0  0
   59.1500   29.4844   44.8335 H   0  0  0  0  0  0  0  0  0  0  0  0
   60.0472   27.3690   45.6953 H   0  0  0  0  0  0  0  0  0  0  0  0
   61.1507   26.2307   47.6161 H   0  0  0  0  0  0  0  0  0  0  0  0
   60.9196   27.1503   49.9212 H   0  0  0  0  0  0  0  0  0  0  0  0
   58.4507   30.3618   48.3916 H   0  0  0  0  0  0  0  0  0  0  0  0
   59.7424   35.4425   46.6041 H   0  0  0  0  0  0  0  0  0  0  0  0
   62.0300   34.8106   47.4311 H   0  0  0  0  0  0  0  0  0  0  0  0
   62.7213   32.4105   47.4932 H   0  0  0  0  0  0  0  0  0  0  0  0
   61.1293   30.6136   46.7713 H   0  0  0  0  0  0  0  0  0  0  0  0
  1  2  2  0
  2  3  1  0
  3  4  1  0
  4  5  1  0
  5  6  2  0
  6  7  1  0
  7  8  2  0
  8  9  1  0
  9 10  1  0
 10 11  1  0
 10 12  1  0
 10 13  1  0
  9 14  2  0
  4 15  1  0
 15 16  2  0
 16 17  1  0
 17 18  1  0
 18 19  2  0
 19 20  1  0
 20 21  2  0
 21 22  1  0
 22 23  2  0
 16 24  1  0
 24  2  1  0
 14  5  1  0
 23 15  1  0
 23 18  1  0
  3 25  1  0
  3 26  1  0
  4 27  1  6
  6 28  1  0
  7 29  1  0
  8 30  1  0
 14 31  1  0
 19 32  1  0
 20 33  1  0
 21 34  1  0
 22 35  1  0
M  CHG  1  24  -1
M  END
>  <UniqueID>  (11) 
10

>  <SMILES>  (11) 
O=C1C[C@H](c2cccc(C(F)(F)F)c2)c2c(sc3ccccc23)[N-]1

>  <Energy>  (11) 
76.18675127340751

>  <Genealogy>  (11) 
O=C1CC(c2cccc(C(F)(F)F)c2)c2c(sc3ccccc23)[N-]1 (protonated)
O=C1C[C@H](c2cccc(C(F)(F)F)c2)c2c(sc3ccccc23)[N-]1 (chirality)
O=C1C[C@H](c2cccc(C(F)(F)F)c2)c2c(sc3ccccc23)[N-]1 (3D coordinates assigned)
O=C1C[C@H](c2cccc(C(F)(F)F)c2)c2c(sc3ccccc23)[N-]1 (nonaromatic ring conformer: 76.18675127340751 kcal/mol)

>  <smiles>  (11) 
O=C1CC(c2cccc(C(F)(F)F)c2)c2c(sc3ccccc23)N1

>  <score_type>  (11) 
oracle

>  <origin>  (11) 
adg

>  <m_score__min__energy>  (11) 
-8.9299999999999997

>  <m_primary>  (11) 
energy

$$$$
11:0
     RDKit          3D

 40 42  0  0  0  0  0  0  0  0999 V2000
   59.5859   35.9471   44.2535 H   0  0  0  0  0  0  0  0  0  0  0  0
   59.2650   35.1480   44.9380 C   0  0  0  0  0  0  0  0  0  0  0  0
   59.7800   35.0840   46.1930 N   0  0  0  0  0  0  0  0  0  0  0  0
   59.4180   34.1050   47.0670 C   0  0  0  0  0  0  0  0  0  0  0  0
   60.0040   34.0880   48.4510 C   0  0  0  0  0  0  0  0  0  0  0  0
   60.2409   35.1185   48.7542 H   0  0  0  0  0  0  0  0  0  0  0  0
   59.2684   33.6440   49.1379 H   0  0  0  0  0  0  0  0  0  0  0  0
   61.2380   33.2760   48.4930 N   0  0  0  0  0  0  0  0  0  0  0  0
   61.6970   32.9130   47.1300 C   0  0  0  0  0  0  0  0  0  0  0  0
   62.0037   31.8566   47.1284 H   0  0  0  0  0  0  0  0  0  0  0  0
   60.8634   33.0869   46.4337 H   0  0  0  0  0  0  0  0  0  0  0  0
   62.8860   33.7760   46.6720 C   0  0  0  0  0  0  0  0  0  0  0  0
   63.1805   33.4549   45.6620 H   0  0  0  0  0  0  0  0  0  0  0  0
   62.5531   34.8241   46.6964 H   0  0  0  0  0  0  0  0  0  0  0  0
   64.0190   33.6780   47.5230 O   0  0  0  0  0  0  0  0  0  0  0  0
   63.6920   33.4350   48.8850 C   0  0  0  0  0  0  0  0  0  0  0  0
   63.7314   32.3502   49.0630 H   0  0  0  0  0  0  0  0  0  0  0  0
   64.4225   33.9881   49.4936 H   0  0  0  0  0  0  0  0  0  0  0  0
   62.2980   33.9420   49.2880 C   0  0  0  0  0  0  0  0  0  0  0  0
   62.1333   33.7308   50.3549 H   0  0  0  0  0  0  0  0  0  0  0  0
   62.2507   35.0242   49.0967 H   0  0  0  0  0  0  0  0  0  0  0  0
   58.4790   33.1390   46.6790 C   0  0  0  0  0  0  0  0  0  0  0  0
   58.1913   32.3377   47.3755 H   0  0  0  0  0  0  0  0  0  0  0  0
   57.9090   33.1980   45.4020 C   0  0  0  0  0  0  0  0  0  0  0  0
   56.9750   32.1770   45.0150 N   0  0  0  0  0  0  0  0  0  0  0  0
   57.2180   30.9040   44.8760 C   0  0  0  0  0  0  0  0  0  0  0  0
   56.2270   29.9770   45.0040 N   0  0  0  0  0  0  0  0  0  0  0  0
   56.4650   28.6440   44.8890 C   0  0  0  0  0  0  0  0  0  0  0  0
   55.6340   27.9292   44.9819 H   0  0  0  0  0  0  0  0  0  0  0  0
   57.7680   28.1750   44.6520 C   0  0  0  0  0  0  0  0  0  0  0  0
   58.0360   26.7030   44.4710 C   0  0  0  0  0  0  0  0  0  0  0  0
   57.0220   25.9490   45.0360 F   0  0  0  0  0  0  0  0  0  0  0  0
   58.1160   26.3830   43.1270 F   0  0  0  0  0  0  0  0  0  0  0  0
   59.2330   26.3790   45.0830 F   0  0  0  0  0  0  0  0  0  0  0  0
   58.7980   29.1170   44.5010 C   0  0  0  0  0  0  0  0  0  0  0  0
   59.8220   28.7793   44.2835 H   0  0  0  0  0  0  0  0  0  0  0  0
   58.5270   30.4810   44.6260 C   0  0  0  0  0  0  0  0  0  0  0  0
   59.3379   31.2178   44.5284 H   0  0  0  0  0  0  0  0  0  0  0  0
   58.3290   34.2020   44.5140 C   0  0  0  0  0  0  0  0  0  0  0  0
   57.9237   34.2429   43.4922 H   0  0  0  0  0  0  0  0  0  0  0  0
  1  2  1  0
  2  3  2  0
  3  4  1  0
  4  5  1  0
  5  6  1  0
  5  7  1  0
  5  8  1  0
  8  9  1  0
  9 10  1  0
  9 11  1  0
  9 12  1  0
 12 13  1  0
 12 14  1  0
 12 15  1  0
 15 16  1  0
 16 17  1  0
 16 18  1  0
 16 19  1  0
 19 20  1  0
 19 21  1  0
  4 22  2  0
 22 23  1  0
 22 24  1  0
 24 25  1  0
 25 26  2  0
 26 27  1  0
 27 28  1  0
 28 29  1  0
 28 30  2  0
 30 31  1  0
 31 32  1  0
 31 33  1  0
 31 34  1  0
 30 35  1  0
 35 36  1  0
 35 37  2  0
 37 38  1  0
 24 39  2  0
 39 40  1  0
 39  2  1  0
 19  8  1  0
 37 26  1  0
M  CHG  1  27  -1
M  END
>  <UniqueID>  (12) 
11

>  <SMILES>  (12) 
FC(F)(F)c1cc/c(=N/c2ccnc(CN3CCOCC3)c2)[n-]c1

>  <Energy>  (12) 
63.48923094290641

>  <Genealogy>  (12) 
FC(F)(F)c1ccc(=Nc2ccnc(CN3CCOCC3)c2)[n-]c1 (protonated)
FC(F)(F)c1cc/c(=N/c2ccnc(CN3CCOCC3)c2)[n-]c1 (cis-trans isomerization)
FC(F)(F)c1cc/c(=N/c2ccnc(CN3CCOCC3)c2)[n-]c1 (3D coordinates assigned)
FC(F)(F)c1cc/c(=N/c2ccnc(CN3CCOCC3)c2)[n-]c1 (nonaromatic ring conformer: 63.48923094290641 kcal/mol)

>  <smiles>  (12) 
FC(F)(F)c1ccc(=Nc2ccnc(CN3CCOCC3)c2)[nH]c1

>  <score_type>  (12) 
oracle

>  <origin>  (12) 
adg

>  <m_score__min__energy>  (12) 
-9

>  <m_primary>  (12) 
energy

$$$$
12:0
     RDKit          3D

 60 63  0  0  0  0  0  0  0  0999 V2000
   55.8630   21.6750   46.4500 C   0  0  0  0  0  0  0  0  0  0  0  0
   55.2680   22.8560   45.9240 O   0  0  0  0  0  0  0  0  0  0  0  0
   55.9790   23.8920   45.2980 C   0  0  0  0  0  0  0  0  0  0  0  0
   56.3090   25.0860   45.9690 C   0  0  0  0  0  0  0  0  0  0  0  0
   57.0090   26.0970   45.3090 C   0  0  0  0  0  0  0  0  0  0  0  0
   57.3950   25.9360   43.9720 C   0  0  0  0  0  0  0  0  0  0  0  0
   58.1480   27.0280   43.2580 C   0  0  0  0  0  0  0  0  0  0  0  0
   58.0840   28.2820   44.0200 N   0  0  0  0  0  0  0  0  0  0  0  0
   58.7980   28.6020   45.1270 C   0  0  0  0  0  0  0  0  0  0  0  0
   59.7730   27.8580   45.7990 C   0  0  0  0  0  0  0  0  0  0  0  0
   60.3670   28.4300   46.9400 C   0  0  0  0  0  0  0  0  0  0  0  0
   59.9770   29.7170   47.3990 C   0  0  0  0  0  0  0  0  0  0  0  0
   60.6090   30.3250   48.5380 N   0  0  0  0  0  0  0  0  0  0  0  0
   61.6580   31.3020   48.4440 C   0  0  0  0  0  0  0  0  0  0  0  0
   62.3020   31.4430   47.3700 O   0  0  0  0  0  0  0  0  0  0  0  0
   62.0700   32.0640   49.6740 C   0  0  0  0  0  0  0  0  0  0  0  0
   61.2790   33.3700   49.8380 C   0  0  0  0  0  0  0  0  0  0  0  0
   61.3940   34.2390   48.5800 C   0  0  0  0  0  0  0  0  0  0  0  0
   60.1670   34.1110   47.7300 C   0  0  0  0  0  0  0  0  0  0  0  0
   58.9630   33.5350   48.1200 C   0  0  0  0  0  0  0  0  0  0  0  0
   57.9880   33.5670   47.1150 C   0  0  0  0  0  0  0  0  0  0  0  0
   58.4190   34.1710   45.9370 C   0  0  0  0  0  0  0  0  0  0  0  0
   60.0150   34.6610   46.1470 S   0  0  0  0  0  0  0  0  0  0  0  0
   58.9950   30.4430   46.6910 C   0  0  0  0  0  0  0  0  0  0  0  0
   58.4270   29.8460   45.5700 C   0  0  0  0  0  0  0  0  0  0  0  0
   57.4520   30.2600   44.6940 C   0  0  0  0  0  0  0  0  0  0  0  0
   56.8230   31.3510   44.7460 O   0  0  0  0  0  0  0  0  0  0  0  0
   57.2590   29.3000   43.7600 N   0  0  0  0  0  0  0  0  0  0  0  0
   56.2600   29.3320   42.6900 C   0  0  0  0  0  0  0  0  0  0  0  0
   57.0730   24.7470   43.3020 C   0  0  0  0  0  0  0  0  0  0  0  0
   56.3660   23.7210   43.9600 C   0  0  0  0  0  0  0  0  0  0  0  0
   56.0270   22.5190   43.3140 O   0  0  0  0  0  0  0  0  0  0  0  0
   56.9440   21.4620   43.0420 C   0  0  0  0  0  0  0  0  0  0  0  0
   55.8438   21.7130   47.5492 H   0  0  0  0  0  0  0  0  0  0  0  0
   55.3004   20.7955   46.1037 H   0  0  0  0  0  0  0  0  0  0  0  0
   56.9046   21.6037   46.1037 H   0  0  0  0  0  0  0  0  0  0  0  0
   56.0131   25.2223   47.0197 H   0  0  0  0  0  0  0  0  0  0  0  0
   57.2592   27.0261   45.8420 H   0  0  0  0  0  0  0  0  0  0  0  0
   59.1999   26.7272   43.1442 H   0  0  0  0  0  0  0  0  0  0  0  0
   57.6898   27.1885   42.2710 H   0  0  0  0  0  0  0  0  0  0  0  0
   60.0664   26.8579   45.4473 H   0  0  0  0  0  0  0  0  0  0  0  0
   61.1440   27.8728   47.4839 H   0  0  0  0  0  0  0  0  0  0  0  0
   60.3410   29.9870   49.4900 H   0  0  0  0  0  0  0  0  0  0  0  0
   61.8971   31.4316   50.5573 H   0  0  0  0  0  0  0  0  0  0  0  0
   63.1339   32.3237   49.5704 H   0  0  0  0  0  0  0  0  0  0  0  0
   60.2201   33.1303   50.0149 H   0  0  0  0  0  0  0  0  0  0  0  0
   61.6934   33.9280   50.6906 H   0  0  0  0  0  0  0  0  0  0  0  0
   61.5178   35.2905   48.8783 H   0  0  0  0  0  0  0  0  0  0  0  0
   62.2633   33.9011   47.9968 H   0  0  0  0  0  0  0  0  0  0  0  0
   58.7937   33.0990   49.1156 H   0  0  0  0  0  0  0  0  0  0  0  0
   56.9768   33.1538   47.2443 H   0  0  0  0  0  0  0  0  0  0  0  0
   57.8188   34.3050   45.0249 H   0  0  0  0  0  0  0  0  0  0  0  0
   58.6887   31.4485   47.0152 H   0  0  0  0  0  0  0  0  0  0  0  0
   55.2523   29.3643   43.1300 H   0  0  0  0  0  0  0  0  0  0  0  0
   56.4173   30.2256   42.0681 H   0  0  0  0  0  0  0  0  0  0  0  0
   56.3598   28.4302   42.0681 H   0  0  0  0  0  0  0  0  0  0  0  0
   57.3752   24.6140   42.2527 H   0  0  0  0  0  0  0  0  0  0  0  0
   57.3095   21.0407   43.9901 H   0  0  0  0  0  0  0  0  0  0  0  0
   56.4366   20.6763   42.4630 H   0  0  0  0  0  0  0  0  0  0  0  0
   57.7935   21.8534   42.4630 H   0  0  0  0  0  0  0  0  0  0  0  0
  1  2  1  0
  2  3  1  0
  3  4  2  0
  4  5  1  0
  5  6  2  0
  6  7  1  0
  7  8  1  0
  8  9  1  0
  9 10  2  0
 10 11  1  0
 11 12  2  0
 12 13  1  0
 13 14  1  0
 14 15  2  0
 14 16  1  0
 16 17  1  0
 17 18  1  0
 18 19  1  0
 19 20  2  0
 20 21  1  0
 21 22  2  0
 22 23  1  0
 12 24  1  0
 24 25  2  0
 25 26  1  0
 26 27  2  0
 26 28  1  0
 28 29  1  0
  6 30  1  0
 30 31  2  0
 31 32  1  0
 32 33  1  0
 31  3  1  0
 28  8  1  0
 25  9  1  0
 23 19  1  0
  1 34  1  0
  1 35  1  0
  1 36  1  0
  4 37  1  0
  5 38  1  0
  7 39  1  0
  7 40  1  0
 10 41  1  0
 11 42  1  0
 13 43  1  0
 16 44  1  0
 16 45  1  0
 17 46  1  0
 17 47  1  0
 18 48  1  0
 18 49  1  0
 20 50  1  0
 21 51  1  0
 22 52  1  0
 24 53  1  0
 29 54  1  0
 29 55  1  0
 29 56  1  0
 30 57  1  0
 33 58  1  0
 33 59  1  0
 33 60  1  0
M  END
>  <UniqueID>  (13) 
12

>  <SMILES>  (13) 
COc1ccc(Cn2c3ccc(NC(=O)CCCc4cccs4)cc3c(=O)n2C)cc1OC

>  <Energy>  (13) 
127.42922866227083

>  <Genealogy>  (13) 
COc1ccc(Cn2c3ccc(NC(=O)CCCc4cccs4)cc3c(=O)n2C)cc1OC (3D coordinates assigned)
COc1ccc(Cn2c3ccc(NC(=O)CCCc4cccs4)cc3c(=O)n2C)cc1OC (optimized conformer: 127.42922866227083 kcal/mol)

>  <smiles>  (13) 
COc1ccc(Cn2c3ccc(NC(=O)CCCc4cccs4)cc3c(=O)n2C)cc1OC

>  <score_type>  (13) 
oracle

>  <origin>  (13) 
adg

>  <m_score__min__energy>  (13) 
-8.5800000000000001

>  <m_primary>  (13) 
energy

$$$$
13:0
     RDKit          3D

 43 44  0  0  0  0  0  0  0  0999 V2000
   59.4966   32.9423   44.6349 H   0  0  0  0  0  0  0  0  0  0  0  0
   59.3580   33.0980   45.7150 C   0  0  0  0  0  0  0  0  0  0  0  0
   58.4090   32.2050   46.4180 C   0  0  0  0  0  0  0  0  0  0  0  0
   57.4460   32.7210   47.0450 O   0  0  0  0  0  0  0  0  0  0  0  0
   58.5220   30.7300   46.3700 C   0  0  0  0  0  0  0  0  0  0  0  0
   57.6130   29.9820   45.5960 C   0  0  0  0  0  0  0  0  0  0  0  0
   56.6310   30.6640   44.8580 O   0  0  0  0  0  0  0  0  0  0  0  0
   56.6430   30.8190   43.4430 C   0  0  0  0  0  0  0  0  0  0  0  0
   56.7257   31.8867   43.1918 H   0  0  0  0  0  0  0  0  0  0  0  0
   57.5018   30.2757   43.0219 H   0  0  0  0  0  0  0  0  0  0  0  0
   55.7108   30.4144   43.0219 H   0  0  0  0  0  0  0  0  0  0  0  0
   57.6920   28.5780   45.6000 C   0  0  0  0  0  0  0  0  0  0  0  0
   56.9796   27.9905   45.0022 H   0  0  0  0  0  0  0  0  0  0  0  0
   58.6730   27.9180   46.3610 C   0  0  0  0  0  0  0  0  0  0  0  0
   58.7750   26.5190   46.4060 O   0  0  0  0  0  0  0  0  0  0  0  0
   58.1410   25.6350   45.4870 C   0  0  0  0  0  0  0  0  0  0  0  0
   57.5877   24.8635   46.0426 H   0  0  0  0  0  0  0  0  0  0  0  0
   57.4429   26.2028   44.8543 H   0  0  0  0  0  0  0  0  0  0  0  0
   58.9026   25.1559   44.8543 H   0  0  0  0  0  0  0  0  0  0  0  0
   59.5830   28.6700   47.1060 C   0  0  0  0  0  0  0  0  0  0  0  0
   60.3609   28.1567   47.6902 H   0  0  0  0  0  0  0  0  0  0  0  0
   59.5190   30.0750   47.1200 C   0  0  0  0  0  0  0  0  0  0  0  0
   60.4250   30.8480   47.8660 O   0  0  0  0  0  0  0  0  0  0  0  0
   61.1310   30.3850   49.0120 C   0  0  0  0  0  0  0  0  0  0  0  0
   60.6146   30.7236   49.9223 H   0  0  0  0  0  0  0  0  0  0  0  0
   61.1694   29.2857   48.9996 H   0  0  0  0  0  0  0  0  0  0  0  0
   62.1545   30.7878   48.9996 H   0  0  0  0  0  0  0  0  0  0  0  0
   60.0630   34.0840   46.2950 C   0  0  0  0  0  0  0  0  0  0  0  0
   59.6986   35.1158   46.1822 H   0  0  0  0  0  0  0  0  0  0  0  0
   61.2980   33.8650   47.0750 C   0  0  0  0  0  0  0  0  0  0  0  0
   62.5150   33.7950   46.3810 C   0  0  0  0  0  0  0  0  0  0  0  0
   62.5371   33.9794   45.2968 H   0  0  0  0  0  0  0  0  0  0  0  0
   63.6980   33.4930   47.0570 C   0  0  0  0  0  0  0  0  0  0  0  0
   64.6463   33.4269   46.5034 H   0  0  0  0  0  0  0  0  0  0  0  0
   63.6780   33.2750   48.4340 C   0  0  0  0  0  0  0  0  0  0  0  0
   64.6060   33.0078   48.9607 H   0  0  0  0  0  0  0  0  0  0  0  0
   62.4830   33.3950   49.1460 C   0  0  0  0  0  0  0  0  0  0  0  0
   62.4797   33.2324   50.2339 H   0  0  0  0  0  0  0  0  0  0  0  0
   61.2810   33.7220   48.4870 C   0  0  0  0  0  0  0  0  0  0  0  0
   60.0060   33.9100   49.2870 C   0  0  0  0  0  0  0  0  0  0  0  0
   59.1950   32.7900   49.2190 F   0  0  0  0  0  0  0  0  0  0  0  0
   59.2980   34.9900   48.8000 F   0  0  0  0  0  0  0  0  0  0  0  0
   60.3110   34.1320   50.6180 F   0  0  0  0  0  0  0  0  0  0  0  0
  1  2  1  0
  2  3  1  0
  3  4  2  0
  3  5  1  0
  5  6  2  0
  6  7  1  0
  7  8  1  0
  8  9  1  0
  8 10  1  0
  8 11  1  0
  6 12  1  0
 12 13  1  0
 12 14  2  0
 14 15  1  0
 15 16  1  0
 16 17  1  0
 16 18  1  0
 16 19  1  0
 14 20  1  0
 20 21  1  0
 20 22  2  0
 22 23  1  0
 23 24  1  0
 24 25  1  0
 24 26  1  0
 24 27  1  0
  2 28  2  0
 28 29  1  0
 28 30  1  0
 30 31  2  0
 31 32  1  0
 31 33  1  0
 33 34  1  0
 33 35  2  0
 35 36  1  0
 35 37  1  0
 37 38  1  0
 37 39  2  0
 39 40  1  0
 40 41  1  0
 40 42  1  0
 40 43  1  0
 22  5  1  0
 39 30  1  0
M  END
>  <UniqueID>  (14) 
13

>  <SMILES>  (14) 
COc1cc(OC)c(C(=O)/C=C\c2ccccc2C(F)(F)F)c(OC)c1

>  <Energy>  (14) 
56.47475565834327

>  <Genealogy>  (14) 
COc1cc(OC)c(C(=O)/C=C\c2ccccc2C(F)(F)F)c(OC)c1 (cis-trans isomerization)
COc1cc(OC)c(C(=O)/C=C\c2ccccc2C(F)(F)F)c(OC)c1 (3D coordinates assigned)
COc1cc(OC)c(C(=O)/C=C\c2ccccc2C(F)(F)F)c(OC)c1 (optimized conformer: 56.47475565834327 kcal/mol)

>  <smiles>  (14) 
COc1cc(OC)c(C(=O)C=Cc2ccccc2C(F)(F)F)c(OC)c1

>  <score_type>  (14) 
oracle

>  <origin>  (14) 
adg

>  <m_score__min__energy>  (14) 
-6.6500000000000004

>  <m_primary>  (14) 
energy

$$$$
14:0
     RDKit          3D

 49 52  0  0  0  0  0  0  0  0999 V2000
   55.7279   28.5898   44.8251 H   0  0  0  0  0  0  0  0  0  0  0  0
   56.7420   28.8430   45.1680 C   0  0  0  0  0  0  0  0  0  0  0  0
   57.0480   30.1400   45.4730 N   0  0  0  0  0  0  0  0  0  0  0  0
   58.2970   30.4450   45.8990 C   0  0  0  0  0  0  0  0  0  0  0  0
   59.2610   29.4990   46.0250 C   0  0  0  0  0  0  0  0  0  0  0  0
   59.0170   28.1630   45.7330 C   0  0  0  0  0  0  0  0  0  0  0  0
   59.8039   27.4023   45.8432 H   0  0  0  0  0  0  0  0  0  0  0  0
   57.7200   27.8170   45.2890 C   0  0  0  0  0  0  0  0  0  0  0  0
   57.3860   26.4090   44.9550 C   0  0  0  0  0  0  0  0  0  0  0  0
   56.7230   25.5910   45.8870 C   0  0  0  0  0  0  0  0  0  0  0  0
   56.4498   25.9975   46.8719 H   0  0  0  0  0  0  0  0  0  0  0  0
   56.4080   24.2660   45.5730 C   0  0  0  0  0  0  0  0  0  0  0  0
   55.8880   23.6374   46.3109 H   0  0  0  0  0  0  0  0  0  0  0  0
   56.7530   23.7320   44.3170 C   0  0  0  0  0  0  0  0  0  0  0  0
   56.4590   22.4100   43.9510 O   0  0  0  0  0  0  0  0  0  0  0  0
   57.4240   21.3670   43.8320 C   0  0  0  0  0  0  0  0  0  0  0  0
   57.2829   20.6464   44.6511 H   0  0  0  0  0  0  0  0  0  0  0  0
   57.2630   20.7400   42.6130 F   0  0  0  0  0  0  0  0  0  0  0  0
   58.7000   21.8960   43.9010 F   0  0  0  0  0  0  0  0  0  0  0  0
   57.4120   24.5460   43.3900 C   0  0  0  0  0  0  0  0  0  0  0  0
   57.6851   24.1389   42.4053 H   0  0  0  0  0  0  0  0  0  0  0  0
   57.7270   25.8710   43.7020 C   0  0  0  0  0  0  0  0  0  0  0  0
   58.2457   26.4977   42.9616 H   0  0  0  0  0  0  0  0  0  0  0  0
   60.3970   30.0730   46.4380 N   0  0  0  0  0  0  0  0  0  0  0  0
   61.3060   29.6060   46.6550 H   0  0  0  0  0  0  0  0  0  0  0  0
   60.0760   31.3820   46.5920 C   0  0  0  0  0  0  0  0  0  0  0  0
   60.9370   32.2160   47.1080 N   0  0  0  0  0  0  0  0  0  0  0  0
   62.3630   32.1180   47.1630 C   0  0  0  0  0  0  0  0  0  0  0  0
   62.9270   30.9930   47.1030 O   0  0  0  0  0  0  0  0  0  0  0  0
   63.1890   33.3590   47.1040 C   0  0  0  0  0  0  0  0  0  0  0  0
   63.4147   33.6981   48.1258 H   0  0  0  0  0  0  0  0  0  0  0  0
   64.1283   33.1493   46.5714 H   0  0  0  0  0  0  0  0  0  0  0  0
   62.6330   34.1446   46.5714 H   0  0  0  0  0  0  0  0  0  0  0  0
   58.7810   31.6660   46.2200 N   0  0  0  0  0  0  0  0  0  0  0  0
   58.1390   32.9620   45.8970 C   0  0  0  0  0  0  0  0  0  0  0  0
   57.0810   32.7826   45.6551 H   0  0  0  0  0  0  0  0  0  0  0  0
   58.7620   33.5870   44.6240 C   0  0  0  0  0  0  0  0  0  0  0  0
   59.6000   32.9557   44.2933 H   0  0  0  0  0  0  0  0  0  0  0  0
   57.9758   33.6438   43.8567 H   0  0  0  0  0  0  0  0  0  0  0  0
   59.2790   35.0000   44.8690 C   0  0  0  0  0  0  0  0  0  0  0  0
   59.8798   35.3268   44.0074 H   0  0  0  0  0  0  0  0  0  0  0  0
   58.4301   35.6871   45.0007 H   0  0  0  0  0  0  0  0  0  0  0  0
   60.0770   35.0050   46.0290 O   0  0  0  0  0  0  0  0  0  0  0  0
   59.2590   34.9610   47.1840 C   0  0  0  0  0  0  0  0  0  0  0  0
   59.8981   34.7278   48.0484 H   0  0  0  0  0  0  0  0  0  0  0  0
   58.7732   35.9450   47.2597 H   0  0  0  0  0  0  0  0  0  0  0  0
   58.1190   33.9110   47.1280 C   0  0  0  0  0  0  0  0  0  0  0  0
   58.1853   33.2910   48.0342 H   0  0  0  0  0  0  0  0  0  0  0  0
   57.1844   34.4858   47.0493 H   0  0  0  0  0  0  0  0  0  0  0  0
  1  2  1  0
  2  3  2  0
  3  4  1  0
  4  5  2  0
  5  6  1  0
  6  7  1  0
  6  8  2  0
  8  9  1  0
  9 10  2  0
 10 11  1  0
 10 12  1  0
 12 13  1  0
 12 14  2  0
 14 15  1  0
 15 16  1  0
 16 17  1  0
 16 18  1  0
 16 19  1  0
 14 20  1  0
 20 21  1  0
 20 22  2  0
 22 23  1  0
  5 24  1  0
 24 25  1  0
 24 26  1  0
 26 27  2  0
 27 28  1  0
 28 29  2  0
 28 30  1  0
 30 31  1  0
 30 32  1  0
 30 33  1  0
 26 34  1  0
 34 35  1  0
 35 36  1  0
 35 37  1  0
 37 38  1  0
 37 39  1  0
 37 40  1  0
 40 41  1  0
 40 42  1  0
 40 43  1  0
 43 44  1  0
 44 45  1  0
 44 46  1  0
 44 47  1  0
 47 48  1  0
 47 49  1  0
  8  2  1  0
 22  9  1  0
 47 35  1  0
 34  4  1  0
M  END
>  <UniqueID>  (15) 
14

>  <SMILES>  (15) 
CC(=O)/N=c1/[nH]c2cc(-c3ccc(OC(F)F)cc3)cnc2n1C1CCOCC1

>  <Energy>  (15) 
122.73716204648524

>  <Genealogy>  (15) 
CC(=O)/N=c1/[nH]c2cc(-c3ccc(OC(F)F)cc3)cnc2n1C1CCOCC1 (cis-trans isomerization)
CC(=O)/N=c1/[nH]c2cc(-c3ccc(OC(F)F)cc3)cnc2n1C1CCOCC1 (3D coordinates assigned)
CC(=O)/N=c1/[nH]c2cc(-c3ccc(OC(F)F)cc3)cnc2n1C1CCOCC1 (nonaromatic ring conformer: 122.73716204648524 kcal/mol)

>  <smiles>  (15) 
CC(=O)N=c1[nH]c2cc(-c3ccc(OC(F)F)cc3)cnc2n1C1CCOCC1

>  <score_type>  (15) 
oracle

>  <origin>  (15) 
adg

>  <m_score__min__energy>  (15) 
-7.8399999999999999

>  <m_primary>  (15) 
energy

$$$$
15:0
     RDKit          3D

 40 42  0  0  0  0  0  0  0  0999 V2000
   59.7410   26.8890   46.9680 C   0  0  0  0  0  0  0  0  0  0  0  0
   58.6980   27.9650   46.9380 C   0  0  0  0  0  0  0  0  0  0  0  0
   58.5360   28.6650   47.9260 O   0  0  0  0  0  0  0  0  0  0  0  0
   57.8310   28.1840   45.7280 C   0  0  0  0  0  0  0  0  0  0  0  0
   57.6680   29.6120   45.4890 N   0  0  0  0  0  0  0  0  0  0  0  0
   56.6290   30.1510   44.8780 N   0  0  0  0  0  0  0  0  0  0  0  0
   56.7740   31.4650   44.8740 N   0  0  0  0  0  0  0  0  0  0  0  0
   57.9410   31.7010   45.5070 C   0  0  0  0  0  0  0  0  0  0  0  0
   58.5210   33.0440   45.7790 C   0  0  0  0  0  0  0  0  0  0  0  0
   58.6250   33.9440   44.6980 C   0  0  0  0  0  0  0  0  0  0  0  0
   59.1710   35.2170   44.8710 C   0  0  0  0  0  0  0  0  0  0  0  0
   59.6190   35.6210   46.1250 C   0  0  0  0  0  0  0  0  0  0  0  0
   59.5200   34.7540   47.2140 C   0  0  0  0  0  0  0  0  0  0  0  0
   58.9620   33.4690   47.0680 C   0  0  0  0  0  0  0  0  0  0  0  0
   58.8930   32.5900   48.2970 C   0  0  0  0  0  0  0  0  0  0  0  0
   59.8780   31.5120   48.1930 N   0  0  0  0  0  0  0  0  0  0  0  0
   61.2730   31.6710   48.5030 C   0  0  0  0  0  0  0  0  0  0  0  0
   61.7750   31.1050   49.6860 C   0  0  0  0  0  0  0  0  0  0  0  0
   63.1170   31.2690   50.0390 C   0  0  0  0  0  0  0  0  0  0  0  0
   63.9790   31.9810   49.2010 C   0  0  0  0  0  0  0  0  0  0  0  0
   65.2810   32.1420   49.5460 F   0  0  0  0  0  0  0  0  0  0  0  0
   63.5010   32.5180   48.0020 C   0  0  0  0  0  0  0  0  0  0  0  0
   62.1550   32.3630   47.6460 C   0  0  0  0  0  0  0  0  0  0  0  0
   61.7350   32.8370   46.4460 F   0  0  0  0  0  0  0  0  0  0  0  0
   58.5070   30.5430   45.9120 N   0  0  0  0  0  0  0  0  0  0  0  0
   59.9817   26.6407   48.0122 H   0  0  0  0  0  0  0  0  0  0  0  0
   59.3585   25.9932   46.4569 H   0  0  0  0  0  0  0  0  0  0  0  0
   60.6483   27.2434   46.4569 H   0  0  0  0  0  0  0  0  0  0  0  0
   58.3042   27.7187   44.8508 H   0  0  0  0  0  0  0  0  0  0  0  0
   56.8442   27.7300   45.9016 H   0  0  0  0  0  0  0  0  0  0  0  0
   58.2702   33.6379   43.7028 H   0  0  0  0  0  0  0  0  0  0  0  0
   59.2473   35.9024   44.0140 H   0  0  0  0  0  0  0  0  0  0  0  0
   60.0512   36.6238   46.2579 H   0  0  0  0  0  0  0  0  0  0  0  0
   59.8829   35.0787   48.2004 H   0  0  0  0  0  0  0  0  0  0  0  0
   59.1067   33.1947   49.1907 H   0  0  0  0  0  0  0  0  0  0  0  0
   57.8858   32.1547   48.3755 H   0  0  0  0  0  0  0  0  0  0  0  0
   59.5470   30.5730   47.8680 H   0  0  0  0  0  0  0  0  0  0  0  0
   61.1058   30.5274   50.3406 H   0  0  0  0  0  0  0  0  0  0  0  0
   63.4951   30.8372   50.9774 H   0  0  0  0  0  0  0  0  0  0  0  0
   64.1845   33.0644   47.3355 H   0  0  0  0  0  0  0  0  0  0  0  0
  1  2  1  0
  2  3  2  0
  2  4  1  0
  4  5  1  0
  5  6  1  0
  6  7  2  0
  7  8  1  0
  8  9  1  0
  9 10  2  0
 10 11  1  0
 11 12  2  0
 12 13  1  0
 13 14  2  0
 14 15  1  0
 15 16  1  0
 16 17  1  0
 17 18  2  0
 18 19  1  0
 19 20  2  0
 20 21  1  0
 20 22  1  0
 22 23  2  0
 23 24  1  0
  8 25  2  0
 25  5  1  0
 14  9  1  0
 23 17  1  0
  1 26  1  0
  1 27  1  0
  1 28  1  0
  4 29  1  0
  4 30  1  0
 10 31  1  0
 11 32  1  0
 12 33  1  0
 13 34  1  0
 15 35  1  0
 15 36  1  0
 16 37  1  0
 18 38  1  0
 19 39  1  0
 22 40  1  0
M  END
>  <UniqueID>  (16) 
15

>  <SMILES>  (16) 
CC(=O)Cn1nnc(-c2ccccc2CNc2ccc(F)cc2F)n1

>  <Energy>  (16) 
83.59804307416404

>  <Genealogy>  (16) 
CC(=O)Cn1nnc(-c2ccccc2CNc2ccc(F)cc2F)n1 (3D coordinates assigned)
CC(=O)Cn1nnc(-c2ccccc2CNc2ccc(F)cc2F)n1 (optimized conformer: 83.59804307416404 kcal/mol)

>  <smiles>  (16) 
CC(=O)Cn1nnc(-c2ccccc2CNc2ccc(F)cc2F)n1

>  <score_type>  (16) 
oracle

>  <origin>  (16) 
adg

>  <m_score__min__energy>  (16) 
-8.4100000000000001

>  <m_primary>  (16) 
energy

$$$$
16:0
     RDKit          3D

 49 51  0  0  0  0  0  0  0  0999 V2000
   60.8396   33.9769   48.0538 H   0  0  0  0  0  0  0  0  0  0  0  0
   59.7480   33.8410   48.0540 C   0  0  0  0  0  0  0  0  0  0  0  0
   59.1970   32.9630   48.9040 C   0  0  0  0  0  0  0  0  0  0  0  0
   58.7120   33.3356   49.8183 H   0  0  0  0  0  0  0  0  0  0  0  0
   59.2240   31.4800   48.6410 C   0  0  0  0  0  0  0  0  0  0  0  0
   59.7784   31.2925   47.7096 H   0  0  0  0  0  0  0  0  0  0  0  0
   58.1859   31.1260   48.5578 H   0  0  0  0  0  0  0  0  0  0  0  0
   59.9020   30.7160   49.7870 C   0  0  0  0  0  0  0  0  0  0  0  0
   59.5928   31.1757   50.7373 H   0  0  0  0  0  0  0  0  0  0  0  0
   60.9858   30.7829   49.6110 H   0  0  0  0  0  0  0  0  0  0  0  0
   59.5570   29.2140   49.8430 C   0  0  0  0  0  0  0  0  0  0  0  0
   58.9267   28.9774   48.9731 H   0  0  0  0  0  0  0  0  0  0  0  0
   59.0543   29.0530   50.8081 H   0  0  0  0  0  0  0  0  0  0  0  0
   60.7680   28.2590   49.8280 C   0  0  0  0  0  0  0  0  0  0  0  0
   61.1610   28.1867   50.8528 H   0  0  0  0  0  0  0  0  0  0  0  0
   61.4926   28.6843   49.1180 H   0  0  0  0  0  0  0  0  0  0  0  0
   60.4540   26.8380   49.3330 C   0  0  0  0  0  0  0  0  0  0  0  0
   59.4409   26.5629   49.6616 H   0  0  0  0  0  0  0  0  0  0  0  0
   61.2071   26.1562   49.7550 H   0  0  0  0  0  0  0  0  0  0  0  0
   60.5210   26.7400   47.8730 N   0  0  0  0  0  0  0  0  0  0  0  0
   61.3280   26.2420   47.4330 H   0  0  0  0  0  0  0  0  0  0  0  0
   59.5320   27.3230   47.0050 C   0  0  0  0  0  0  0  0  0  0  0  0
   58.3520   26.6390   46.6230 C   0  0  0  0  0  0  0  0  0  0  0  0
   58.1683   25.6204   46.9954 H   0  0  0  0  0  0  0  0  0  0  0  0
   57.4070   27.2530   45.7670 C   0  0  0  0  0  0  0  0  0  0  0  0
   56.4970   26.7047   45.4820 H   0  0  0  0  0  0  0  0  0  0  0  0
   57.6160   28.5610   45.2730 C   0  0  0  0  0  0  0  0  0  0  0  0
   56.6590   29.1910   44.4030 N   0  0  0  0  0  0  0  0  0  0  0  0
   56.9260   29.3980   43.2010 O   0  0  0  0  0  0  0  0  0  0  0  0
   55.4280   29.5730   44.8850 O   0  0  0  0  0  0  0  0  0  0  0  0
   58.7940   29.2030   45.6770 C   0  0  0  0  0  0  0  0  0  0  0  0
   59.2460   30.4280   45.3670 N   0  0  0  0  0  0  0  0  0  0  0  0
   60.3860   30.5310   46.0010 O   0  0  0  0  0  0  0  0  0  0  0  0
   60.7120   29.4710   46.6980 N   0  0  0  0  0  0  0  0  0  0  0  0
   59.7010   28.6130   46.4980 C   0  0  0  0  0  0  0  0  0  0  0  0
   58.9070   34.6440   47.1010 C   0  0  0  0  0  0  0  0  0  0  0  0
   58.0315   35.0394   47.6369 H   0  0  0  0  0  0  0  0  0  0  0  0
   59.5147   35.4696   46.7020 H   0  0  0  0  0  0  0  0  0  0  0  0
   58.4400   33.7890   45.9550 C   0  0  0  0  0  0  0  0  0  0  0  0
   58.9940   33.9410   44.6750 C   0  0  0  0  0  0  0  0  0  0  0  0
   59.7964   34.6743   44.5064 H   0  0  0  0  0  0  0  0  0  0  0  0
   58.5270   33.1620   43.6160 C   0  0  0  0  0  0  0  0  0  0  0  0
   58.9614   33.2725   42.6115 H   0  0  0  0  0  0  0  0  0  0  0  0
   57.5020   32.2400   43.8440 C   0  0  0  0  0  0  0  0  0  0  0  0
   57.1285   31.6188   43.0166 H   0  0  0  0  0  0  0  0  0  0  0  0
   56.9650   32.1090   45.0870 N   0  0  0  0  0  0  0  0  0  0  0  0
   56.1960   31.4190   45.2410 H   0  0  0  0  0  0  0  0  0  0  0  0
   57.4050   32.8590   46.1350 C   0  0  0  0  0  0  0  0  0  0  0  0
   56.9468   32.7351   47.1273 H   0  0  0  0  0  0  0  0  0  0  0  0
  1  2  1  0
  2  3  2  0
  3  4  1  0
  3  5  1  0
  5  6  1  0
  5  7  1  0
  5  8  1  0
  8  9  1  0
  8 10  1  0
  8 11  1  0
 11 12  1  0
 11 13  1  0
 11 14  1  0
 14 15  1  0
 14 16  1  0
 14 17  1  0
 17 18  1  0
 17 19  1  0
 17 20  1  0
 20 21  1  0
 20 22  1  0
 22 23  2  0
 23 24  1  0
 23 25  1  0
 25 26  1  0
 25 27  2  0
 27 28  1  0
 28 29  2  0
 28 30  1  0
 27 31  1  0
 31 32  2  0
 32 33  1  0
 33 34  1  0
 34 35  2  0
  2 36  1  0
 36 37  1  0
 36 38  1  0
 36 39  1  0
 39 40  2  0
 40 41  1  0
 40 42  1  0
 42 43  1  0
 42 44  2  0
 44 45  1  0
 44 46  1  0
 46 47  1  0
 46 48  2  0
 48 49  1  0
 35 22  1  0
 48 39  1  0
 35 31  1  0
M  CHG  3  28   1  30  -1  46   1
M  END
>  <UniqueID>  (17) 
16

>  <SMILES>  (17) 
O=[N+]([O-])c1ccc(NCCCCC/C=C/Cc2ccc[nH+]c2)c2nonc12

>  <Energy>  (17) 
85.18179488578043

>  <Genealogy>  (17) 
O=[N+]([O-])c1ccc(NCCCCCC=CCc2ccc[nH+]c2)c2nonc12 (protonated)
O=[N+]([O-])c1ccc(NCCCCC/C=C/Cc2ccc[nH+]c2)c2nonc12 (cis-trans isomerization)
O=[N+]([O-])c1ccc(NCCCCC/C=C/Cc2ccc[nH+]c2)c2nonc12 (3D coordinates assigned)
O=[N+]([O-])c1ccc(NCCCCC/C=C/Cc2ccc[nH+]c2)c2nonc12 (optimized conformer: 85.18179488578043 kcal/mol)

>  <smiles>  (17) 
O=[N+]([O-])c1ccc(NCCCCCC=CCc2cccnc2)c2nonc12

>  <score_type>  (17) 
oracle

>  <origin>  (17) 
adg

>  <m_score__min__energy>  (17) 
-7.8399999999999999

>  <m_primary>  (17) 
energy

$$$$
17:0
     RDKit          3D

 43 45  0  0  0  0  0  0  0  0999 V2000
   57.0000   34.1550   45.1900 C   0  0  0  0  0  0  0  0  0  0  0  0
   58.7590   34.4490   44.8330 S   0  0  0  0  0  0  0  0  0  0  0  0
   59.2970   33.8480   46.4310 C   0  0  0  0  0  0  0  0  0  0  0  0
   59.8850   34.7150   47.3500 C   0  0  0  0  0  0  0  0  0  0  0  0
   60.2820   34.2050   48.5830 C   0  0  0  0  0  0  0  0  0  0  0  0
   60.0990   32.8890   48.8670 N   0  0  0  0  0  0  0  0  0  0  0  0
   59.5120   32.0560   47.9590 C   0  0  0  0  0  0  0  0  0  0  0  0
   59.3550   30.5890   48.2450 C   0  0  1  0  0  0  0  0  0  0  0  0
   60.0280   29.7680   47.1360 C   0  0  0  0  0  0  0  0  0  0  0  0
   59.9430   28.3510   47.4800 N   0  0  0  0  0  0  0  0  0  0  0  0
   59.9710   27.3660   46.4350 C   0  0  0  0  0  0  0  0  0  0  0  0
   60.9570   26.5880   46.3330 O   0  0  0  0  0  0  0  0  0  0  0  0
   58.8680   27.2930   45.4200 C   0  0  0  0  0  0  0  0  0  0  0  0
   57.5960   27.9770   45.9350 C   0  0  0  0  0  0  0  0  0  0  0  0
   57.1750   29.0460   45.0330 N   0  0  0  0  0  0  0  0  0  0  0  0
   57.9870   29.7920   44.2690 C   0  0  0  0  0  0  0  0  0  0  0  0
   57.2070   30.7280   43.6210 C   0  0  0  0  0  0  0  0  0  0  0  0
   57.7440   31.9560   42.4970 Cl  0  0  0  0  0  0  0  0  0  0  0  0
   55.9130   30.4860   44.0380 C   0  0  0  0  0  0  0  0  0  0  0  0
   55.9180   29.4570   44.9020 N   0  0  0  0  0  0  0  0  0  0  0  0
   60.3130   27.9730   48.8440 C   0  0  0  0  0  0  0  0  0  0  0  0
   59.6640   28.9350   49.8460 C   0  0  0  0  0  0  0  0  0  0  0  0
   59.9290   30.2840   49.5040 O   0  0  0  0  0  0  0  0  0  0  0  0
   59.1300   32.5400   46.7490 N   0  0  0  0  0  0  0  0  0  0  0  0
   56.8462   34.1293   46.2789 H   0  0  0  0  0  0  0  0  0  0  0  0
   56.3969   34.9648   44.7535 H   0  0  0  0  0  0  0  0  0  0  0  0
   56.6931   33.1931   44.7535 H   0  0  0  0  0  0  0  0  0  0  0  0
   60.0320   35.7777   47.1068 H   0  0  0  0  0  0  0  0  0  0  0  0
   60.7446   34.8685   49.3285 H   0  0  0  0  0  0  0  0  0  0  0  0
   60.4260   32.5220   49.7880 H   0  0  0  0  0  0  0  0  0  0  0  0
   58.2853   30.3339   48.2722 H   0  0  0  0  0  0  0  0  0  0  0  0
   59.5144   29.9475   46.1800 H   0  0  0  0  0  0  0  0  0  0  0  0
   61.0825   30.0658   47.0388 H   0  0  0  0  0  0  0  0  0  0  0  0
   59.1960   27.7932   44.4968 H   0  0  0  0  0  0  0  0  0  0  0  0
   58.6410   26.2341   45.2271 H   0  0  0  0  0  0  0  0  0  0  0  0
   56.7911   27.2309   46.0091 H   0  0  0  0  0  0  0  0  0  0  0  0
   57.8080   28.4142   46.9219 H   0  0  0  0  0  0  0  0  0  0  0  0
   59.0771   29.6782   44.1759 H   0  0  0  0  0  0  0  0  0  0  0  0
   55.0224   31.0451   43.7151 H   0  0  0  0  0  0  0  0  0  0  0  0
   59.9668   26.9485   49.0452 H   0  0  0  0  0  0  0  0  0  0  0  0
   61.4067   28.0233   48.9498 H   0  0  0  0  0  0  0  0  0  0  0  0
   58.5762   28.7719   49.8474 H   0  0  0  0  0  0  0  0  0  0  0  0
   60.0862   28.7382   50.8425 H   0  0  0  0  0  0  0  0  0  0  0  0
  1  2  1  0
  2  3  1  0
  3  4  2  0
  4  5  1  0
  5  6  2  0
  6  7  1  0
  7  8  1  0
  8  9  1  0
  9 10  1  0
 10 11  1  0
 11 12  2  0
 11 13  1  0
 13 14  1  0
 14 15  1  0
 15 16  1  0
 16 17  2  0
 17 18  1  0
 17 19  1  0
 19 20  2  0
 10 21  1  0
 21 22  1  0
 22 23  1  0
  7 24  2  0
 24  3  1  0
 23  8  1  0
 20 15  1  0
  1 25  1  0
  1 26  1  0
  1 27  1  0
  4 28  1  0
  5 29  1  0
  6 30  1  0
  8 31  1  1
  9 32  1  0
  9 33  1  0
 13 34  1  0
 13 35  1  0
 14 36  1  0
 14 37  1  0
 16 38  1  0
 19 39  1  0
 21 40  1  0
 21 41  1  0
 22 42  1  0
 22 43  1  0
M  CHG  1   6   1
M  END
>  <UniqueID>  (18) 
17

>  <SMILES>  (18) 
CSc1cc[nH+]c([C@H]2CN(C(=O)CCn3cc(Cl)cn3)CCO2)n1

>  <Energy>  (18) 
67.81590302050674

>  <Genealogy>  (18) 
CSc1cc[nH+]c(C2CN(C(=O)CCn3cc(Cl)cn3)CCO2)n1 (protonated)
CSc1cc[nH+]c([C@H]2CN(C(=O)CCn3cc(Cl)cn3)CCO2)n1 (chirality)
CSc1cc[nH+]c([C@H]2CN(C(=O)CCn3cc(Cl)cn3)CCO2)n1 (3D coordinates assigned)
CSc1cc[nH+]c([C@H]2CN(C(=O)CCn3cc(Cl)cn3)CCO2)n1 (nonaromatic ring conformer: 67.81590302050674 kcal/mol)

>  <smiles>  (18) 
CSc1ccnc(C2CN(C(=O)CCn3cc(Cl)cn3)CCO2)n1

>  <score_type>  (18) 
oracle

>  <origin>  (18) 
adg

>  <m_score__min__energy>  (18) 
-6.3499999999999996

>  <m_primary>  (18) 
energy

$$$$
18:0
     RDKit          3D

 43 46  0  0  1  0  0  0  0  0999 V2000
   62.6410   33.6670   46.7940 C   0  0  0  0  0  0  0  0  0  0  0  0
   63.3470   32.5700   47.2290 C   0  0  0  0  0  0  0  0  0  0  0  0
   62.6850   31.4330   47.6300 C   0  0  0  0  0  0  0  0  0  0  0  0
   61.3100   31.2920   47.6330 C   0  0  0  0  0  0  0  0  0  0  0  0
   60.6030   30.0530   48.0610 C   0  0  0  0  0  0  0  0  0  0  0  0
   56.7900   30.8540   44.8720 N   0  0  0  0  0  0  0  0  0  0  0  0
   57.4630   29.7870   45.2310 C   0  0  0  0  0  0  0  0  0  0  0  0
   58.5590   29.9230   45.9910 N   0  0  0  0  0  0  0  0  0  0  0  0
   59.3210   28.8960   46.4140 C   0  0  0  0  0  0  0  0  0  0  0  0
   60.3260   29.1240   47.0800 N   0  0  0  0  0  0  0  0  0  0  0  0
   57.4050   32.1540   44.9920 C   0  0  0  0  0  0  0  0  0  0  0  0
   57.1480   32.9590   46.0800 C   0  0  0  0  0  0  0  0  0  0  0  0
   57.7450   34.2130   46.1890 C   0  0  0  0  0  0  0  0  0  0  0  0
   58.5970   34.6490   45.2010 C   0  0  0  0  0  0  0  0  0  0  0  0
   58.8470   33.8260   44.1110 C   0  0  0  0  0  0  0  0  0  0  0  0
   58.2630   32.5780   43.9850 C   0  0  0  0  0  0  0  0  0  0  0  0
   57.0960   28.5520   44.8660 N   0  0  0  0  0  0  0  0  0  0  0  0
   57.8330   27.5070   45.2730 C   0  0  0  0  0  0  0  0  0  0  0  0
   57.4070   26.2580   44.8720 C   0  0  0  0  0  0  0  0  0  0  0  0
   58.1680   25.1950   45.3030 C   0  0  0  0  0  0  0  0  0  0  0  0
   59.2790   25.2870   46.0750 C   0  0  0  0  0  0  0  0  0  0  0  0
   59.7120   26.5710   46.4820 C   0  0  0  0  0  0  0  0  0  0  0  0
   58.9670   27.6230   46.0580 C   0  0  0  0  0  0  0  0  0  0  0  0
   60.6150   32.4240   47.1850 C   0  0  0  0  0  0  0  0  0  0  0  0
   61.2690   33.5700   46.7810 C   0  0  0  0  0  0  0  0  0  0  0  0
   63.1528   34.5850   46.4695 H   0  0  0  0  0  0  0  0  0  0  0  0
   64.4462   32.6020   47.2564 H   0  0  0  0  0  0  0  0  0  0  0  0
   63.2897   30.5796   47.9708 H   0  0  0  0  0  0  0  0  0  0  0  0
   61.2274   29.5591   48.8201 H   0  0  0  0  0  0  0  0  0  0  0  0
   59.6206   30.3924   48.4213 H   0  0  0  0  0  0  0  0  0  0  0  0
   58.8140   30.9040   46.2560 H   0  0  0  0  0  0  0  0  0  0  0  0
   56.4660   32.6089   46.8689 H   0  0  0  0  0  0  0  0  0  0  0  0
   57.5362   34.8510   47.0604 H   0  0  0  0  0  0  0  0  0  0  0  0
   59.0743   35.6374   45.2735 H   0  0  0  0  0  0  0  0  0  0  0  0
   59.5302   34.1769   43.3236 H   0  0  0  0  0  0  0  0  0  0  0  0
   58.4719   31.9404   43.1133 H   0  0  0  0  0  0  0  0  0  0  0  0
   56.2410   28.4540   44.2730 H   0  0  0  0  0  0  0  0  0  0  0  0
   56.5133   26.1197   44.2457 H   0  0  0  0  0  0  0  0  0  0  0  0
   57.8486   24.1882   44.9959 H   0  0  0  0  0  0  0  0  0  0  0  0
   59.8306   24.3847   46.3777 H   0  0  0  0  0  0  0  0  0  0  0  0
   60.6052   26.7092   47.1089 H   0  0  0  0  0  0  0  0  0  0  0  0
   59.5157   32.3980   47.1546 H   0  0  0  0  0  0  0  0  0  0  0  0
   60.6759   34.4309   46.4386 H   0  0  0  0  0  0  0  0  0  0  0  0
  1  2  2  0
  2  3  1  0
  3  4  2  0
  4  5  1  0
  5  6  1  0
  6  7  2  0
  7  8  1  0
  8  9  1  0
  9 10  2  0
 10 11  1  0
 11 12  2  0
 12 13  1  0
 13 14  2  0
 14 15  1  0
 15 16  2  0
  9 17  1  0
 17 18  1  0
 18 19  2  0
 19 20  1  0
 20 21  2  0
 21 22  1  0
 22 23  2  0
  4 24  1  0
 24 25  2  0
 25  1  1  0
 23  7  1  0
 16 11  1  0
 23 18  1  0
  1 26  1  0
  2 27  1  0
  3 28  1  0
  5 29  1  0
  5 30  1  0
  8 31  1  0
 12 32  1  0
 13 33  1  0
 14 34  1  0
 15 35  1  0
 16 36  1  0
 17 37  1  0
 19 38  1  0
 20 39  1  0
 21 40  1  0
 22 41  1  0
 24 42  1  0
 25 43  1  0
M  END
>  <smiles>  (19) 
c1ccc(CN=c2[nH]c(=Nc3ccccc3)[nH]c3ccccc23)cc1

>  <score_type>  (19) 
oracle

>  <origin>  (19) 
adg

>  <m_score__min__energy>  (19) 
-8.7300000000000004

>  <m_primary>  (19) 
energy

$$$$
19:0
     RDKit          3D

 34 36  0  0  0  0  0  0  0  0999 V2000
   59.6580   35.7350   46.7160 C   0  0  0  0  0  0  0  0  0  0  0  0
   59.3810   34.3200   46.3020 C   0  0  0  0  0  0  0  0  0  0  0  0
   58.4190   34.0470   45.3190 C   0  0  0  0  0  0  0  0  0  0  0  0
   58.1330   32.7280   44.9580 C   0  0  0  0  0  0  0  0  0  0  0  0
   58.7960   31.6560   45.5840 C   0  0  0  0  0  0  0  0  0  0  0  0
   58.4920   30.2540   45.2010 C   0  0  0  0  0  0  0  0  0  0  0  0
   57.2900   29.9350   44.5440 C   0  0  0  0  0  0  0  0  0  0  0  0
   57.0050   28.6150   44.1850 C   0  0  0  0  0  0  0  0  0  0  0  0
   57.9200   27.5900   44.4680 C   0  0  0  0  0  0  0  0  0  0  0  0
   57.5970   26.1630   44.1180 C   0  0  0  0  0  0  0  0  0  0  0  0
   57.1550   25.4200   45.3400 C   0  0  0  0  0  0  0  0  0  0  0  0
   58.0020   24.1570   46.0670 S   0  0  0  0  0  0  0  0  0  0  0  0
   56.8930   24.0290   47.3240 C   0  0  0  0  0  0  0  0  0  0  0  0
   56.9790   23.1950   48.2610 O   0  0  0  0  0  0  0  0  0  0  0  0
   55.8900   24.9270   47.2280 N   0  0  0  0  0  0  0  0  0  0  0  0
   56.0400   25.7070   46.1240 C   0  0  0  0  0  0  0  0  0  0  0  0
   55.1370   26.7170   45.8190 O   0  0  0  0  0  0  0  0  0  0  0  0
   59.1150   27.9010   45.1340 C   0  0  0  0  0  0  0  0  0  0  0  0
   59.4020   29.2210   45.4920 C   0  0  0  0  0  0  0  0  0  0  0  0
   59.7460   31.9350   46.5830 C   0  0  0  0  0  0  0  0  0  0  0  0
   60.0310   33.2560   46.9430 C   0  0  0  0  0  0  0  0  0  0  0  0
   59.6707   35.8000   47.8140 H   0  0  0  0  0  0  0  0  0  0  0  0
   60.6346   36.0488   46.3188 H   0  0  0  0  0  0  0  0  0  0  0  0
   58.8718   36.3939   46.3188 H   0  0  0  0  0  0  0  0  0  0  0  0
   57.8867   34.8758   44.8295 H   0  0  0  0  0  0  0  0  0  0  0  0
   57.3838   32.5258   44.1784 H   0  0  0  0  0  0  0  0  0  0  0  0
   56.5681   30.7315   44.3108 H   0  0  0  0  0  0  0  0  0  0  0  0
   56.0581   28.3783   43.6778 H   0  0  0  0  0  0  0  0  0  0  0  0
   56.7904   26.1456   43.3702 H   0  0  0  0  0  0  0  0  0  0  0  0
   58.4971   25.6803   43.7096 H   0  0  0  0  0  0  0  0  0  0  0  0
   59.8303   27.1011   45.3758 H   0  0  0  0  0  0  0  0  0  0  0  0
   60.3466   29.4542   46.0052 H   0  0  0  0  0  0  0  0  0  0  0  0
   60.2689   31.1077   47.0851 H   0  0  0  0  0  0  0  0  0  0  0  0
   60.7686   33.4612   47.7328 H   0  0  0  0  0  0  0  0  0  0  0  0
  1  2  1  0
  2  3  2  0
  3  4  1  0
  4  5  2  0
  5  6  1  0
  6  7  2  0
  7  8  1  0
  8  9  2  0
  9 10  1  0
 10 11  1  0
 11 12  1  0
 12 13  1  0
 13 14  2  0
 13 15  1  0
 15 16  1  0
 16 17  1  0
  9 18  1  0
 18 19  2  0
  5 20  1  0
 20 21  2  0
 21  2  1  0
 19  6  1  0
 16 11  2  0
  1 22  1  0
  1 23  1  0
  1 24  1  0
  3 25  1  0
  4 26  1  0
  7 27  1  0
  8 28  1  0
 10 29  1  0
 10 30  1  0
 18 31  1  0
 19 32  1  0
 20 33  1  0
 21 34  1  0
M  CHG  2  15  -1  17  -1
M  END
>  <UniqueID>  (20) 
18

>  <SMILES>  (20) 
Cc1ccc(-c2ccc(Cc3sc(=O)[n-]c3[O-])cc2)cc1

>  <Energy>  (20) 
70.1375293449241

>  <Genealogy>  (20) 
Cc1ccc(-c2ccc(Cc3sc(=O)[n-]c3[O-])cc2)cc1 (protonated)
Cc1ccc(-c2ccc(Cc3sc(=O)[n-]c3[O-])cc2)cc1 (3D coordinates assigned)
Cc1ccc(-c2ccc(Cc3sc(=O)[n-]c3[O-])cc2)cc1 (optimized conformer: 70.1375293449241 kcal/mol)

>  <smiles>  (20) 
Cc1ccc(-c2ccc(Cc3sc(=O)[nH]c3O)cc2)cc1

>  <score_type>  (20) 
oracle

>  <origin>  (20) 
adg

>  <m_score__min__energy>  (20) 
-13.65

>  <m_primary>  (20) 
energy

$$$$
20:0
     RDKit          3D

 37 40  0  0  0  0  0  0  0  0999 V2000
   58.5740   28.2230   48.1370 O   0  0  0  0  0  0  0  0  0  0  0  0
   58.5100   28.9950   47.1440 C   0  0  0  0  0  0  0  0  0  0  0  0
   57.5540   28.7950   46.2390 O   0  0  0  0  0  0  0  0  0  0  0  0
   57.4120   29.5580   45.1610 C   0  0  0  0  0  0  0  0  0  0  0  0
   56.3840   29.2920   44.2480 C   0  0  0  0  0  0  0  0  0  0  0  0
   56.2320   30.0950   43.1130 C   0  0  0  0  0  0  0  0  0  0  0  0
   57.1040   31.1640   42.8850 C   0  0  0  0  0  0  0  0  0  0  0  0
   58.1340   31.4370   43.7910 C   0  0  0  0  0  0  0  0  0  0  0  0
   58.2920   30.6350   44.9310 C   0  0  0  0  0  0  0  0  0  0  0  0
   59.3080   30.8760   45.8600 C   0  0  0  0  0  0  0  0  0  0  0  0
   59.4330   30.0520   46.9880 C   0  0  0  0  0  0  0  0  0  0  0  0
   60.5110   30.3180   47.9680 C   0  0  0  0  0  0  0  0  0  0  0  0
   60.6140   29.7300   49.1800 N   0  0  0  0  0  0  0  0  0  0  0  0
   61.6970   30.2460   49.7340 N   0  0  0  0  0  0  0  0  0  0  0  0
   62.2160   31.1220   48.8600 C   0  0  0  0  0  0  0  0  0  0  0  0
   63.6870   32.0990   49.1550 S   0  0  0  0  0  0  0  0  0  0  0  0
   62.7780   33.6510   49.4760 C   0  0  0  0  0  0  0  0  0  0  0  0
   61.6270   33.8150   48.5120 C   0  0  0  0  0  0  0  0  0  0  0  0
   60.3190   33.8690   49.0280 C   0  0  0  0  0  0  0  0  0  0  0  0
   59.2220   33.9890   48.1730 C   0  0  0  0  0  0  0  0  0  0  0  0
   59.4140   34.0570   46.7910 C   0  0  0  0  0  0  0  0  0  0  0  0
   58.0340   34.2040   45.7200 Cl  0  0  0  0  0  0  0  0  0  0  0  0
   60.7070   34.0060   46.2640 C   0  0  0  0  0  0  0  0  0  0  0  0
   61.8150   33.8860   47.1110 C   0  0  0  0  0  0  0  0  0  0  0  0
   63.4130   33.8270   46.3710 Cl  0  0  0  0  0  0  0  0  0  0  0  0
   61.4940   31.1710   47.7690 O   0  0  0  0  0  0  0  0  0  0  0  0
   55.6962   28.4517   44.4235 H   0  0  0  0  0  0  0  0  0  0  0  0
   55.4236   29.8848   42.3972 H   0  0  0  0  0  0  0  0  0  0  0  0
   56.9796   31.7921   41.9905 H   0  0  0  0  0  0  0  0  0  0  0  0
   58.8186   32.2787   43.6100 H   0  0  0  0  0  0  0  0  0  0  0  0
   60.0083   31.7104   45.7067 H   0  0  0  0  0  0  0  0  0  0  0  0
   62.0580   30.0080   50.6840 H   0  0  0  0  0  0  0  0  0  0  0  0
   62.3863   33.6322   50.5037 H   0  0  0  0  0  0  0  0  0  0  0  0
   63.4697   34.4957   49.3419 H   0  0  0  0  0  0  0  0  0  0  0  0
   60.1594   33.8162   50.1151 H   0  0  0  0  0  0  0  0  0  0  0  0
   58.2043   34.0301   48.5884 H   0  0  0  0  0  0  0  0  0  0  0  0
   60.8554   34.0606   45.1754 H   0  0  0  0  0  0  0  0  0  0  0  0
  1  2  2  0
  2  3  1  0
  3  4  1  0
  4  5  2  0
  5  6  1  0
  6  7  2  0
  7  8  1  0
  8  9  2  0
  9 10  1  0
 10 11  2  0
 11 12  1  0
 12 13  2  0
 13 14  1  0
 14 15  2  0
 15 16  1  0
 16 17  1  0
 17 18  1  0
 18 19  2  0
 19 20  1  0
 20 21  2  0
 21 22  1  0
 21 23  1  0
 23 24  2  0
 24 25  1  0
 15 26  1  0
 11  2  1  0
 26 12  1  0
  9  4  1  0
 24 18  1  0
  5 27  1  0
  6 28  1  0
  7 29  1  0
  8 30  1  0
 10 31  1  0
 14 32  1  0
 17 33  1  0
 17 34  1  0
 19 35  1  0
 20 36  1  0
 23 37  1  0
M  CHG  1  14   1
M  END
>  <UniqueID>  (21) 
19

>  <SMILES>  (21) 
O=c1oc2ccccc2cc1-c1n[nH+]c(SCc2ccc(Cl)cc2Cl)o1

>  <Energy>  (21) 
79.28156462431703

>  <Genealogy>  (21) 
O=c1oc2ccccc2cc1-c1n[nH+]c(SCc2ccc(Cl)cc2Cl)o1 (protonated)
O=c1oc2ccccc2cc1-c1n[nH+]c(SCc2ccc(Cl)cc2Cl)o1 (3D coordinates assigned)
O=c1oc2ccccc2cc1-c1n[nH+]c(SCc2ccc(Cl)cc2Cl)o1 (optimized conformer: 79.28156462431703 kcal/mol)

>  <smiles>  (21) 
O=c1oc2ccccc2cc1-c1nnc(SCc2ccc(Cl)cc2Cl)o1

>  <score_type>  (21) 
oracle

>  <origin>  (21) 
adg

>  <m_score__min__energy>  (21) 
-8.1899999999999995

>  <m_primary>  (21) 
energy

$$$$
21:0
     RDKit          3D

 31 32  0  0  0  0  0  0  0  0999 V2000
   57.0390   31.1850   42.4740 C   0  0  0  0  0  0  0  0  0  0  0  0
   56.4690   30.3950   43.6450 C   0  0  0  0  0  0  0  0  0  0  0  0
   56.5990   31.1290   44.8630 O   0  0  0  0  0  0  0  0  0  0  0  0
   57.8050   31.4090   45.5280 C   0  0  0  0  0  0  0  0  0  0  0  0
   58.6900   30.3970   45.9490 C   0  0  0  0  0  0  0  0  0  0  0  0
   59.8770   30.7250   46.6080 C   0  0  0  0  0  0  0  0  0  0  0  0
   60.2000   32.0650   46.8660 C   0  0  0  0  0  0  0  0  0  0  0  0
   61.4320   32.3950   47.5280 N   0  0  0  0  0  0  0  0  0  0  0  0
   62.6660   32.0210   47.1260 C   0  0  0  0  0  0  0  0  0  0  0  0
   63.6260   32.4750   47.9550 N   0  0  0  0  0  0  0  0  0  0  0  0
   62.9770   33.1520   48.9200 C   0  0  0  0  0  0  0  0  0  0  0  0
   63.7660   33.9160   50.2890 Cl  0  0  0  0  0  0  0  0  0  0  0  0
   61.6200   33.1040   48.6660 C   0  0  0  0  0  0  0  0  0  0  0  0
   60.5440   33.6550   49.5610 C   0  0  0  0  0  0  0  0  0  0  0  0
   59.7660   34.5910   48.8670 O   0  0  0  0  0  0  0  0  0  0  0  0
   59.3320   33.0750   46.4280 C   0  0  0  0  0  0  0  0  0  0  0  0
   58.1420   32.7510   45.7690 C   0  0  0  0  0  0  0  0  0  0  0  0
   57.0750   34.0450   45.2430 Cl  0  0  0  0  0  0  0  0  0  0  0  0
   57.6427   32.0217   42.8554 H   0  0  0  0  0  0  0  0  0  0  0  0
   57.6713   30.5264   41.8605 H   0  0  0  0  0  0  0  0  0  0  0  0
   56.2146   31.5774   41.8605 H   0  0  0  0  0  0  0  0  0  0  0  0
   55.4042   30.1914   43.4585 H   0  0  0  0  0  0  0  0  0  0  0  0
   57.0281   29.4524   43.7399 H   0  0  0  0  0  0  0  0  0  0  0  0
   58.4447   29.3419   45.7575 H   0  0  0  0  0  0  0  0  0  0  0  0
   60.5633   29.9266   46.9268 H   0  0  0  0  0  0  0  0  0  0  0  0
   62.8637   31.4172   46.2280 H   0  0  0  0  0  0  0  0  0  0  0  0
   64.6550   32.3230   47.8720 H   0  0  0  0  0  0  0  0  0  0  0  0
   59.9005   32.8315   49.9042 H   0  0  0  0  0  0  0  0  0  0  0  0
   61.0146   34.1500   50.4232 H   0  0  0  0  0  0  0  0  0  0  0  0
   59.6410   35.3660   49.4750 H   0  0  0  0  0  0  0  0  0  0  0  0
   59.5889   34.1300   46.6040 H   0  0  0  0  0  0  0  0  0  0  0  0
  1  2  1  0
  2  3  1  0
  3  4  1  0
  4  5  2  0
  5  6  1  0
  6  7  2  0
  7  8  1  0
  8  9  1  0
  9 10  2  0
 10 11  1  0
 11 12  1  0
 11 13  2  0
 13 14  1  0
 14 15  1  0
  7 16  1  0
 16 17  2  0
 17 18  1  0
 17  4  1  0
 13  8  1  0
  1 19  1  0
  1 20  1  0
  1 21  1  0
  2 22  1  0
  2 23  1  0
  5 24  1  0
  6 25  1  0
  9 26  1  0
 10 27  1  0
 14 28  1  0
 14 29  1  0
 15 30  1  0
 16 31  1  0
M  CHG  1  10   1
M  END
>  <UniqueID>  (22) 
20

>  <SMILES>  (22) 
CCOc1ccc(-n2c[nH+]c(Cl)c2CO)cc1Cl

>  <Energy>  (22) 
65.58228268693762

>  <Genealogy>  (22) 
CCOc1ccc(-n2c[nH+]c(Cl)c2CO)cc1Cl (protonated)
CCOc1ccc(-n2c[nH+]c(Cl)c2CO)cc1Cl (3D coordinates assigned)
CCOc1ccc(-n2c[nH+]c(Cl)c2CO)cc1Cl (optimized conformer: 65.58228268693762 kcal/mol)

>  <smiles>  (22) 
CCOc1ccc(-n2cnc(Cl)c2CO)cc1Cl

>  <score_type>  (22) 
oracle

>  <origin>  (22) 
adg

>  <m_score__min__energy>  (22) 
-4.8600000000000003

>  <m_primary>  (22) 
energy

$$$$
22:0
     RDKit          3D

 60 63  0  0  0  0  0  0  0  0999 V2000
   62.9690   33.8480   46.4570 C   0  0  0  0  0  0  0  0  0  0  0  0
   62.2710   33.2160   47.5890 N   0  0  0  0  0  0  0  0  0  0  0  0
   63.0880   32.1040   48.1090 C   0  0  0  0  0  0  0  0  0  0  0  0
   61.9930   34.2110   48.6470 C   0  0  0  0  0  0  0  0  0  0  0  0
   60.5970   34.0120   49.2540 C   0  0  0  0  0  0  0  0  0  0  0  0
   59.5920   34.8050   48.5430 N   0  0  0  0  0  0  0  0  0  0  0  0
   59.1790   34.5210   47.1970 C   0  0  0  0  0  0  0  0  0  0  0  0
   58.3020   33.4570   46.9410 C   0  0  0  0  0  0  0  0  0  0  0  0
   57.9120   33.1820   45.6190 C   0  0  0  0  0  0  0  0  0  0  0  0
   57.0440   32.1260   45.3100 O   0  0  0  0  0  0  0  0  0  0  0  0
   57.4160   30.7810   45.1650 C   0  0  0  0  0  0  0  0  0  0  0  0
   57.0710   30.0330   44.0270 C   0  0  0  0  0  0  0  0  0  0  0  0
   57.4020   28.6790   43.9480 C   0  0  0  0  0  0  0  0  0  0  0  0
   58.0870   28.0500   44.9970 C   0  0  0  0  0  0  0  0  0  0  0  0
   58.4490   28.7980   46.1420 C   0  0  0  0  0  0  0  0  0  0  0  0
   58.0930   30.1580   46.2170 C   0  0  0  0  0  0  0  0  0  0  0  0
   59.1500   28.1450   47.2230 N   0  0  0  0  0  0  0  0  0  0  0  0
   60.2280   29.0250   48.2780 S   0  0  0  0  0  0  0  0  0  0  0  0
   61.0850   29.9400   47.4460 O   0  0  0  0  0  0  0  0  0  0  0  0
   61.1150   28.0680   49.0270 O   0  0  0  0  0  0  0  0  0  0  0  0
   59.3270   29.9560   49.4760 C   0  0  0  0  0  0  0  0  0  0  0  0
   59.0550   29.3920   50.7300 C   0  0  0  0  0  0  0  0  0  0  0  0
   58.3270   30.1160   51.6820 C   0  0  0  0  0  0  0  0  0  0  0  0
   57.8790   31.4080   51.3900 C   0  0  0  0  0  0  0  0  0  0  0  0
   57.1790   32.1110   52.3180 F   0  0  0  0  0  0  0  0  0  0  0  0
   58.1630   31.9790   50.1470 C   0  0  0  0  0  0  0  0  0  0  0  0
   58.8840   31.2550   49.1890 C   0  0  0  0  0  0  0  0  0  0  0  0
   59.0300   26.6900   47.3420 C   0  0  0  0  0  0  0  0  0  0  0  0
   59.3160   26.0530   45.9830 C   0  0  0  0  0  0  0  0  0  0  0  0
   58.3130   26.5540   44.9350 C   0  0  0  0  0  0  0  0  0  0  0  0
   58.3730   34.0030   44.5860 C   0  0  0  0  0  0  0  0  0  0  0  0
   59.2500   35.0490   44.8760 C   0  0  0  0  0  0  0  0  0  0  0  0
   59.6350   35.2770   46.1590 N   0  0  0  0  0  0  0  0  0  0  0  0
   63.7339   34.5405   46.8383 H   0  0  0  0  0  0  0  0  0  0  0  0
   63.4501   33.0720   45.8435 H   0  0  0  0  0  0  0  0  0  0  0  0
   62.2445   34.4036   45.8435 H   0  0  0  0  0  0  0  0  0  0  0  0
   63.0746   32.1222   49.2088 H   0  0  0  0  0  0  0  0  0  0  0  0
   62.6756   31.1484   47.7531 H   0  0  0  0  0  0  0  0  0  0  0  0
   64.1232   32.2119   47.7531 H   0  0  0  0  0  0  0  0  0  0  0  0
   62.7464   34.1075   49.4418 H   0  0  0  0  0  0  0  0  0  0  0  0
   62.0338   35.2138   48.1968 H   0  0  0  0  0  0  0  0  0  0  0  0
   60.3260   32.9479   49.1891 H   0  0  0  0  0  0  0  0  0  0  0  0
   60.6231   34.3426   50.3028 H   0  0  0  0  0  0  0  0  0  0  0  0
   59.1140   35.5730   49.0680 H   0  0  0  0  0  0  0  0  0  0  0  0
   57.9217   32.8416   47.7696 H   0  0  0  0  0  0  0  0  0  0  0  0
   56.5379   30.5161   43.1948 H   0  0  0  0  0  0  0  0  0  0  0  0
   57.1229   28.1007   43.0549 H   0  0  0  0  0  0  0  0  0  0  0  0
   58.3511   30.7379   47.1154 H   0  0  0  0  0  0  0  0  0  0  0  0
   59.4139   28.3794   50.9665 H   0  0  0  0  0  0  0  0  0  0  0  0
   58.1070   29.6673   52.6619 H   0  0  0  0  0  0  0  0  0  0  0  0
   57.8197   32.9992   49.9202 H   0  0  0  0  0  0  0  0  0  0  0  0
   59.1030   31.7062   48.2100 H   0  0  0  0  0  0  0  0  0  0  0  0
   59.7545   26.3198   48.0823 H   0  0  0  0  0  0  0  0  0  0  0  0
   58.0130   26.4271   47.6683 H   0  0  0  0  0  0  0  0  0  0  0  0
   60.3351   26.3189   45.6654 H   0  0  0  0  0  0  0  0  0  0  0  0
   59.2210   24.9609   46.0740 H   0  0  0  0  0  0  0  0  0  0  0  0
   58.6943   26.2986   43.9353 H   0  0  0  0  0  0  0  0  0  0  0  0
   57.3489   26.0676   45.1446 H   0  0  0  0  0  0  0  0  0  0  0  0
   58.0465   33.8257   43.5507 H   0  0  0  0  0  0  0  0  0  0  0  0
   59.6297   35.6890   44.0659 H   0  0  0  0  0  0  0  0  0  0  0  0
  1  2  1  0
  2  3  1  0
  2  4  1  0
  4  5  1  0
  5  6  1  0
  6  7  1  0
  7  8  2  0
  8  9  1  0
  9 10  1  0
 10 11  1  0
 11 12  2  0
 12 13  1  0
 13 14  2  0
 14 15  1  0
 15 16  2  0
 15 17  1  0
 17 18  1  0
 18 19  2  0
 18 20  2  0
 18 21  1  0
 21 22  2  0
 22 23  1  0
 23 24  2  0
 24 25  1  0
 24 26  1  0
 26 27  2  0
 17 28  1  0
 28 29  1  0
 29 30  1  0
  9 31  2  0
 31 32  1  0
 32 33  2  0
 33  7  1  0
 16 11  1  0
 27 21  1  0
 30 14  1  0
  1 34  1  0
  1 35  1  0
  1 36  1  0
  3 37  1  0
  3 38  1  0
  3 39  1  0
  4 40  1  0
  4 41  1  0
  5 42  1  0
  5 43  1  0
  6 44  1  0
  8 45  1  0
 12 46  1  0
 13 47  1  0
 16 48  1  0
 22 49  1  0
 23 50  1  0
 26 51  1  0
 27 52  1  0
 28 53  1  0
 28 54  1  0
 29 55  1  0
 29 56  1  0
 30 57  1  0
 30 58  1  0
 31 59  1  0
 32 60  1  0
M  END
>  <UniqueID>  (23) 
21

>  <SMILES>  (23) 
CN(C)CCNc1cc(Oc2ccc3c(c2)N(S(=O)(=O)c2ccc(F)cc2)CCC3)ccn1

>  <Energy>  (23) 
71.83825021786306

>  <Genealogy>  (23) 
CN(C)CCNc1cc(Oc2ccc3c(c2)N(S(=O)(=O)c2ccc(F)cc2)CCC3)ccn1 (3D coordinates assigned)
CN(C)CCNc1cc(Oc2ccc3c(c2)N(S(=O)(=O)c2ccc(F)cc2)CCC3)ccn1 (nonaromatic ring conformer: 71.83825021786306 kcal/mol)

>  <smiles>  (23) 
CN(C)CCNc1cc(Oc2ccc3c(c2)N(S(=O)(=O)c2ccc(F)cc2)CCC3)ccn1

>  <score_type>  (23) 
oracle

>  <origin>  (23) 
adg

>  <m_score__min__energy>  (23) 
-9.3200000000000003

>  <m_primary>  (23) 
energy

$$$$
23:0
     RDKit          3D

 61 65  0  0  0  0  0  0  0  0999 V2000
   57.3780   31.5380   42.7620 C   0  0  0  0  0  0  0  0  0  0  0  0
   57.7790   32.0690   44.1070 C   0  0  0  0  0  0  0  0  0  0  0  0
   57.4530   33.3780   44.4750 C   0  0  0  0  0  0  0  0  0  0  0  0
   57.8200   33.8630   45.7280 C   0  0  0  0  0  0  0  0  0  0  0  0
   58.5460   33.0610   46.6120 C   0  0  0  0  0  0  0  0  0  0  0  0
   58.9630   31.7590   46.2390 C   0  0  0  0  0  0  0  0  0  0  0  0
   59.7180   30.7930   47.2010 C   0  0  0  0  0  0  0  0  0  0  0  0
   59.3680   29.3830   46.7950 N   0  0  0  0  0  0  0  0  0  0  0  0
   60.4670   28.3940   46.8170 C   0  0  0  0  0  0  0  0  0  0  0  0
   60.1490   27.2410   45.8520 C   0  0  0  0  0  0  0  0  0  0  0  0
   58.6430   26.8720   45.8510 C   0  0  0  0  0  0  0  0  0  0  0  0
   57.9460   27.3130   47.1540 C   0  0  0  0  0  0  0  0  0  0  0  0
   58.1440   28.8210   47.4370 C   0  0  0  0  0  0  0  0  0  0  0  0
   58.4730   25.4290   45.6580 N   0  0  0  0  0  0  0  0  0  0  0  0
   57.8020   25.1740   44.5730 C   0  0  0  0  0  0  0  0  0  0  0  0
   57.4660   23.8040   44.1180 C   0  0  0  0  0  0  0  0  0  0  0  0
   58.2970   22.7210   44.4470 C   0  0  0  0  0  0  0  0  0  0  0  0
   57.9750   21.4320   44.0180 C   0  0  0  0  0  0  0  0  0  0  0  0
   56.8180   21.2310   43.2650 C   0  0  0  0  0  0  0  0  0  0  0  0
   56.0170   22.2830   42.9570 N   0  0  0  0  0  0  0  0  0  0  0  0
   56.3080   23.5490   43.3600 C   0  0  0  0  0  0  0  0  0  0  0  0
   57.4070   26.3450   43.8660 N   0  0  0  0  0  0  0  0  0  0  0  0
   57.9330   27.4030   44.6410 C   0  0  0  0  0  0  0  0  0  0  0  0
   57.8290   28.6160   44.3190 O   0  0  0  0  0  0  0  0  0  0  0  0
   61.2680   31.0450   46.9800 C   0  0  0  0  0  0  0  0  0  0  0  0
   61.9940   31.6760   48.1740 C   0  0  0  0  0  0  0  0  0  0  0  0
   61.8140   30.8350   49.4350 C   0  0  0  0  0  0  0  0  0  0  0  0
   60.3350   30.5870   49.7790 C   0  0  0  0  0  0  0  0  0  0  0  0
   59.3410   31.0830   48.7070 C   0  0  0  0  0  0  0  0  0  0  0  0
   58.5270   31.2710   44.9840 C   0  0  0  0  0  0  0  0  0  0  0  0
   56.7198   30.6665   42.8932 H   0  0  0  0  0  0  0  0  0  0  0  0
   56.8434   32.3204   42.2034 H   0  0  0  0  0  0  0  0  0  0  0  0
   58.2768   31.2379   42.2034 H   0  0  0  0  0  0  0  0  0  0  0  0
   56.9060   34.0256   43.7740 H   0  0  0  0  0  0  0  0  0  0  0  0
   57.5364   34.8839   46.0234 H   0  0  0  0  0  0  0  0  0  0  0  0
   58.7974   33.4455   47.6115 H   0  0  0  0  0  0  0  0  0  0  0  0
   61.4033   28.8815   46.5076 H   0  0  0  0  0  0  0  0  0  0  0  0
   60.5762   27.9950   47.8362 H   0  0  0  0  0  0  0  0  0  0  0  0
   60.4403   27.5409   44.8345 H   0  0  0  0  0  0  0  0  0  0  0  0
   60.7115   26.3571   46.1872 H   0  0  0  0  0  0  0  0  0  0  0  0
   56.8690   27.1065   47.0678 H   0  0  0  0  0  0  0  0  0  0  0  0
   58.3944   26.7500   47.9859 H   0  0  0  0  0  0  0  0  0  0  0  0
   57.2677   29.3663   47.0565 H   0  0  0  0  0  0  0  0  0  0  0  0
   58.2622   28.9371   48.5245 H   0  0  0  0  0  0  0  0  0  0  0  0
   58.8190   24.7090   46.3300 H   0  0  0  0  0  0  0  0  0  0  0  0
   59.2050   22.8888   45.0449 H   0  0  0  0  0  0  0  0  0  0  0  0
   58.6272   20.5832   44.2713 H   0  0  0  0  0  0  0  0  0  0  0  0
   56.5546   20.2200   42.9207 H   0  0  0  0  0  0  0  0  0  0  0  0
   55.6353   24.3772   43.0923 H   0  0  0  0  0  0  0  0  0  0  0  0
   56.9330   26.4160   42.9390 H   0  0  0  0  0  0  0  0  0  0  0  0
   61.7443   30.0776   46.7624 H   0  0  0  0  0  0  0  0  0  0  0  0
   61.3495   31.7651   46.1525 H   0  0  0  0  0  0  0  0  0  0  0  0
   63.0668   31.7515   47.9429 H   0  0  0  0  0  0  0  0  0  0  0  0
   61.5659   32.6729   48.3555 H   0  0  0  0  0  0  0  0  0  0  0  0
   62.3074   29.8636   49.2832 H   0  0  0  0  0  0  0  0  0  0  0  0
   62.2601   31.3924   50.2718 H   0  0  0  0  0  0  0  0  0  0  0  0
   60.1887   29.5047   49.9099 H   0  0  0  0  0  0  0  0  0  0  0  0
   60.1240   31.1609   50.6934 H   0  0  0  0  0  0  0  0  0  0  0  0
   58.3706   30.6046   48.9056 H   0  0  0  0  0  0  0  0  0  0  0  0
   59.3405   32.1792   48.7987 H   0  0  0  0  0  0  0  0  0  0  0  0
   58.7809   30.2419   44.6900 H   0  0  0  0  0  0  0  0  0  0  0  0
  1  2  1  0
  2  3  2  0
  3  4  1  0
  4  5  2  0
  5  6  1  0
  6  7  1  0
  7  8  1  0
  8  9  1  0
  9 10  1  0
 10 11  1  0
 11 12  1  0
 12 13  1  0
 11 14  1  0
 14 15  2  0
 15 16  1  0
 16 17  2  0
 17 18  1  0
 18 19  2  0
 19 20  1  0
 20 21  2  0
 15 22  1  0
 22 23  1  0
 23 24  2  0
  7 25  1  0
 25 26  1  0
 26 27  1  0
 27 28  1  0
 28 29  1  0
  6 30  2  0
 30  2  1  0
 29  7  1  0
 13  8  1  0
 21 16  1  0
 23 11  1  0
  1 31  1  0
  1 32  1  0
  1 33  1  0
  3 34  1  0
  4 35  1  0
  5 36  1  0
  9 37  1  0
  9 38  1  0
 10 39  1  0
 10 40  1  0
 12 41  1  0
 12 42  1  0
 13 43  1  0
 13 44  1  0
 14 45  1  0
 17 46  1  0
 18 47  1  0
 19 48  1  0
 21 49  1  0
 22 50  1  0
 25 51  1  0
 25 52  1  0
 26 53  1  0
 26 54  1  0
 27 55  1  0
 27 56  1  0
 28 57  1  0
 28 58  1  0
 29 59  1  0
 29 60  1  0
 30 61  1  0
M  CHG  1  14   1
M  END
>  <UniqueID>  (24) 
22

>  <SMILES>  (24) 
Cc1cccc(C2(N3CCC4(CC3)[NH+]=C(c3cccnc3)NC4=O)CCCCC2)c1

>  <Energy>  (24) 
119.47594070565066

>  <Genealogy>  (24) 
Cc1cccc(C2(N3CCC4(CC3)[NH+]=C(c3cccnc3)NC4=O)CCCCC2)c1 (protonated)
Cc1cccc(C2(N3CCC4(CC3)[NH+]=C(c3cccnc3)NC4=O)CCCCC2)c1 (3D coordinates assigned)
Cc1cccc(C2(N3CCC4(CC3)[NH+]=C(c3cccnc3)NC4=O)CCCCC2)c1 (nonaromatic ring conformer: 119.47594070565066 kcal/mol)

>  <smiles>  (24) 
Cc1cccc(C2(N3CCC4(CC3)N=C(c3cccnc3)NC4=O)CCCCC2)c1

>  <score_type>  (24) 
oracle

>  <origin>  (24) 
adg

>  <m_score__min__energy>  (24) 
-8.25

>  <m_primary>  (24) 
energy

$$$$
24:0
     RDKit          3D

 51 54  0  0  0  0  0  0  0  0999 V2000
   58.4000   28.0450   46.9360 C   0  0  0  0  0  0  0  0  0  0  0  0
   59.3920   28.8900   46.6020 C   0  0  0  0  0  0  0  0  0  0  0  0
   60.2550   29.4940   47.6430 C   0  0  0  0  0  0  0  0  0  0  0  0
   61.1710   30.4530   47.3760 N   0  0  0  0  0  0  0  0  0  0  0  0
   61.8400   30.8540   48.4910 C   0  0  0  0  0  0  0  0  0  0  0  0
   62.9340   31.8760   48.4260 C   0  0  0  0  0  0  0  0  0  0  0  0
   62.7960   32.7290   47.1630 C   0  0  0  0  0  0  0  0  0  0  0  0
   61.5170   33.5210   47.1980 C   0  0  0  0  0  0  0  0  0  0  0  0
   60.9350   33.8730   48.4280 C   0  0  0  0  0  0  0  0  0  0  0  0
   59.7280   34.5800   48.4590 C   0  0  0  0  0  0  0  0  0  0  0  0
   59.0900   34.9290   47.2660 C   0  0  0  0  0  0  0  0  0  0  0  0
   59.6550   34.5700   46.0390 C   0  0  0  0  0  0  0  0  0  0  0  0
   60.8620   33.8640   46.0030 C   0  0  0  0  0  0  0  0  0  0  0  0
   61.4780   30.2020   49.6660 C   0  0  0  0  0  0  0  0  0  0  0  0
   60.2640   29.1050   49.2850 S   0  0  0  0  0  0  0  0  0  0  0  0
   59.5860   29.3310   45.1690 C   0  0  0  0  0  0  0  0  0  0  0  0
   58.7950   28.4830   44.1580 C   0  0  0  0  0  0  0  0  0  0  0  0
   57.4400   28.1400   44.6450 N   0  0  2  0  0  0  0  0  0  0  0  0
   56.5460   29.3170   44.8020 C   0  0  0  0  0  0  0  0  0  0  0  0
   57.0360   30.5140   44.0190 C   0  0  0  0  0  0  0  0  0  0  0  0
   56.9250   30.5340   42.6180 C   0  0  0  0  0  0  0  0  0  0  0  0
   57.3940   31.6310   41.8900 C   0  0  0  0  0  0  0  0  0  0  0  0
   57.9770   32.7130   42.5520 C   0  0  0  0  0  0  0  0  0  0  0  0
   58.0930   32.7020   43.9450 C   0  0  0  0  0  0  0  0  0  0  0  0
   57.6240   31.6070   44.6770 C   0  0  0  0  0  0  0  0  0  0  0  0
   57.5390   27.3670   45.9020 C   0  0  0  0  0  0  0  0  0  0  0  0
   58.2110   27.8421   48.0005 H   0  0  0  0  0  0  0  0  0  0  0  0
   62.8744   32.5269   49.3107 H   0  0  0  0  0  0  0  0  0  0  0  0
   63.9040   31.3578   48.4012 H   0  0  0  0  0  0  0  0  0  0  0  0
   63.6485   33.4211   47.0989 H   0  0  0  0  0  0  0  0  0  0  0  0
   62.7791   32.0652   46.2860 H   0  0  0  0  0  0  0  0  0  0  0  0
   61.4300   33.5918   49.3692 H   0  0  0  0  0  0  0  0  0  0  0  0
   59.2808   34.8614   49.4238 H   0  0  0  0  0  0  0  0  0  0  0  0
   58.1423   35.4868   47.2924 H   0  0  0  0  0  0  0  0  0  0  0  0
   59.1499   34.8430   45.1007 H   0  0  0  0  0  0  0  0  0  0  0  0
   61.3000   33.5763   45.0359 H   0  0  0  0  0  0  0  0  0  0  0  0
   61.9087   30.3738   50.6635 H   0  0  0  0  0  0  0  0  0  0  0  0
   59.2587   30.3773   45.0785 H   0  0  0  0  0  0  0  0  0  0  0  0
   60.6532   29.2081   44.9323 H   0  0  0  0  0  0  0  0  0  0  0  0
   58.7000   29.0496   43.2199 H   0  0  0  0  0  0  0  0  0  0  0  0
   59.3448   27.5422   44.0076 H   0  0  0  0  0  0  0  0  0  0  0  0
   57.0050   27.5020   43.9350 H   0  0  0  0  0  0  0  0  0  0  0  0
   55.5405   29.0482   44.4461 H   0  0  0  0  0  0  0  0  0  0  0  0
   56.5331   29.5920   45.8670 H   0  0  0  0  0  0  0  0  0  0  0  0
   56.4672   29.6830   42.0925 H   0  0  0  0  0  0  0  0  0  0  0  0
   57.3036   31.6418   40.7938 H   0  0  0  0  0  0  0  0  0  0  0  0
   58.3455   33.5752   41.9768 H   0  0  0  0  0  0  0  0  0  0  0  0
   58.5533   33.5549   44.4653 H   0  0  0  0  0  0  0  0  0  0  0  0
   57.7159   31.6014   45.7731 H   0  0  0  0  0  0  0  0  0  0  0  0
   56.5281   27.2376   46.3160 H   0  0  0  0  0  0  0  0  0  0  0  0
   58.0072   26.4011   45.6617 H   0  0  0  0  0  0  0  0  0  0  0  0
  1  2  2  0
  2  3  1  0
  3  4  2  0
  4  5  1  0
  5  6  1  0
  6  7  1  0
  7  8  1  0
  8  9  2  0
  9 10  1  0
 10 11  2  0
 11 12  1  0
 12 13  2  0
  5 14  2  0
 14 15  1  0
  2 16  1  0
 16 17  1  0
 17 18  1  0
 18 19  1  0
 19 20  1  0
 20 21  2  0
 21 22  1  0
 22 23  2  0
 23 24  1  0
 24 25  2  0
 18 26  1  0
 26  1  1  0
 15  3  1  0
 25 20  1  0
 13  8  1  0
  1 27  1  0
  6 28  1  0
  6 29  1  0
  7 30  1  0
  7 31  1  0
  9 32  1  0
 10 33  1  0
 11 34  1  0
 12 35  1  0
 13 36  1  0
 14 37  1  0
 16 38  1  0
 16 39  1  0
 17 40  1  0
 17 41  1  0
 18 42  1  6
 19 43  1  0
 19 44  1  0
 21 45  1  0
 22 46  1  0
 23 47  1  0
 24 48  1  0
 25 49  1  0
 26 50  1  0
 26 51  1  0
M  CHG  1  18   1
M  END
>  <UniqueID>  (25) 
23

>  <SMILES>  (25) 
C1=C(c2nc(CCc3ccccc3)cs2)CC[N@H+](Cc2ccccc2)C1

>  <Energy>  (25) 
85.5547300538931

>  <Genealogy>  (25) 
C1=C(c2nc(CCc3ccccc3)cs2)CC[NH+](Cc2ccccc2)C1 (protonated)
C1=C(c2nc(CCc3ccccc3)cs2)CC[N@H+](Cc2ccccc2)C1 (chirality)
C1=C(c2nc(CCc3ccccc3)cs2)CC[N@H+](Cc2ccccc2)C1 (3D coordinates assigned)
C1=C(c2nc(CCc3ccccc3)cs2)CC[N@H+](Cc2ccccc2)C1 (nonaromatic ring conformer: 85.5547300538931 kcal/mol)

>  <smiles>  (25) 
C1=C(c2nc(CCc3ccccc3)cs2)CCN(Cc2ccccc2)C1

>  <score_type>  (25) 
oracle

>  <origin>  (25) 
adg

>  <m_score__min__energy>  (25) 
-7.5700000000000003

>  <m_primary>  (25) 
energy

$$$$
25:0
     RDKit          3D

 23 25  0  0  0  0  0  0  0  0999 V2000
   57.4010   34.0750   45.2500 C   0  0  0  0  0  0  0  0  0  0  0  0
   58.6160   33.2800   45.6780 C   0  0  0  0  0  0  0  0  0  0  0  0
   59.8260   33.9230   46.0260 C   0  0  0  0  0  0  0  0  0  0  0  0
   60.0070   35.6810   45.9860 Cl  0  0  0  0  0  0  0  0  0  0  0  0
   60.9260   33.1460   46.4170 C   0  0  0  0  0  0  0  0  0  0  0  0
   62.0130   33.6990   46.7300 O   0  0  0  0  0  0  0  0  0  0  0  0
   60.8410   31.8230   46.4630 O   0  0  0  0  0  0  0  0  0  0  0  0
   59.7360   31.1610   46.1500 C   0  0  0  0  0  0  0  0  0  0  0  0
   59.7390   29.7550   46.2280 C   0  0  0  0  0  0  0  0  0  0  0  0
   58.5710   29.0780   45.8960 C   0  0  0  0  0  0  0  0  0  0  0  0
   58.3660   27.7790   45.9020 O   0  0  0  0  0  0  0  0  0  0  0  0
   57.1180   27.5640   45.5200 C   0  0  0  0  0  0  0  0  0  0  0  0
   56.5040   28.7770   45.2580 C   0  0  0  0  0  0  0  0  0  0  0  0
   55.1960   28.9710   44.8340 O   0  0  0  0  0  0  0  0  0  0  0  0
   57.4440   29.7450   45.5020 C   0  0  0  0  0  0  0  0  0  0  0  0
   57.3910   31.1320   45.4100 C   0  0  0  0  0  0  0  0  0  0  0  0
   58.5610   31.8660   45.7390 C   0  0  0  0  0  0  0  0  0  0  0  0
   56.8613   34.4281   46.1411 H   0  0  0  0  0  0  0  0  0  0  0  0
   57.7211   34.9389   44.6489 H   0  0  0  0  0  0  0  0  0  0  0  0
   56.7376   33.4357   44.6489 H   0  0  0  0  0  0  0  0  0  0  0  0
   60.6399   29.2079   46.5427 H   0  0  0  0  0  0  0  0  0  0  0  0
   56.6426   26.5766   45.4253 H   0  0  0  0  0  0  0  0  0  0  0  0
   56.4710   31.6444   45.0921 H   0  0  0  0  0  0  0  0  0  0  0  0
  1  2  1  0
  2  3  2  0
  3  4  1  0
  3  5  1  0
  5  6  2  0
  5  7  1  0
  7  8  1  0
  8  9  2  0
  9 10  1  0
 10 11  1  0
 11 12  1  0
 12 13  2  0
 13 14  1  0
 13 15  1  0
 15 16  1  0
 16 17  2  0
 17  2  1  0
 17  8  1  0
 15 10  2  0
  1 18  1  0
  1 19  1  0
  1 20  1  0
  9 21  1  0
 12 22  1  0
 16 23  1  0
M  CHG  1  14  -1
M  END
>  <UniqueID>  (26) 
24

>  <SMILES>  (26) 
Cc1c(Cl)c(=O)oc2cc3occ([O-])c3cc12

>  <Energy>  (26) 
70.0082030428422

>  <Genealogy>  (26) 
Cc1c(Cl)c(=O)oc2cc3occ([O-])c3cc12 (protonated)
Cc1c(Cl)c(=O)oc2cc3occ([O-])c3cc12 (3D coordinates assigned)
Cc1c(Cl)c(=O)oc2cc3occ([O-])c3cc12 (optimized conformer: 70.0082030428422 kcal/mol)

>  <smiles>  (26) 
Cc1c(Cl)c(=O)oc2cc3occ(O)c3cc12

>  <score_type>  (26) 
oracle

>  <origin>  (26) 
adg

>  <m_score__min__energy>  (26) 
-9.0800000000000001

>  <m_primary>  (26) 
energy

$$$$
26:0
     RDKit          3D

 35 37  0  0  0  0  0  0  0  0999 V2000
   57.0030   30.5900   43.3030 O   0  0  0  0  0  0  0  0  0  0  0  0
   56.7990   29.7670   44.5430 S   0  0  0  0  0  0  0  0  0  0  0  0
   55.3330   29.7540   44.8780 O   0  0  0  0  0  0  0  0  0  0  0  0
   57.3980   28.1120   44.2340 C   0  0  0  0  0  0  0  0  0  0  0  0
   57.9460   27.5010   45.4990 C   0  0  0  0  0  0  0  0  0  0  0  0
   59.2980   27.7130   45.8260 C   0  0  0  0  0  0  0  0  0  0  0  0
   59.8510   27.1400   46.9740 C   0  0  0  0  0  0  0  0  0  0  0  0
   61.1540   27.3540   47.2780 F   0  0  0  0  0  0  0  0  0  0  0  0
   59.0630   26.3440   47.8060 C   0  0  0  0  0  0  0  0  0  0  0  0
   57.7220   26.1160   47.4910 C   0  0  0  0  0  0  0  0  0  0  0  0
   57.1560   26.6840   46.3430 C   0  0  0  0  0  0  0  0  0  0  0  0
   55.4150   26.3380   45.9880 S   0  0  0  0  0  0  0  0  0  0  0  0
   57.6960   30.4870   45.8430 N   0  0  0  0  0  0  0  0  0  0  0  0
   58.1730   31.8470   45.8330 C   0  0  0  0  0  0  0  0  0  0  0  0
   57.3950   32.8880   45.2930 C   0  0  0  0  0  0  0  0  0  0  0  0
   57.8680   34.2030   45.2810 C   0  0  0  0  0  0  0  0  0  0  0  0
   59.1270   34.5040   45.8000 C   0  0  0  0  0  0  0  0  0  0  0  0
   59.9250   33.4840   46.3330 C   0  0  0  0  0  0  0  0  0  0  0  0
   61.1940   33.7630   46.8580 C   0  0  0  0  0  0  0  0  0  0  0  0
   61.9700   32.7310   47.3870 C   0  0  0  0  0  0  0  0  0  0  0  0
   61.4690   31.4280   47.3880 C   0  0  0  0  0  0  0  0  0  0  0  0
   60.2360   31.1700   46.8770 N   0  0  0  0  0  0  0  0  0  0  0  0
   59.4510   32.1510   46.3500 C   0  0  0  0  0  0  0  0  0  0  0  0
   56.5695   27.4912   43.8622 H   0  0  0  0  0  0  0  0  0  0  0  0
   58.2030   28.1602   43.4859 H   0  0  0  0  0  0  0  0  0  0  0  0
   59.9256   28.3358   45.1716 H   0  0  0  0  0  0  0  0  0  0  0  0
   59.4987   25.8956   48.7110 H   0  0  0  0  0  0  0  0  0  0  0  0
   57.1059   25.4858   48.1492 H   0  0  0  0  0  0  0  0  0  0  0  0
   57.7910   29.9140   46.7100 H   0  0  0  0  0  0  0  0  0  0  0  0
   56.4024   32.6639   44.8752 H   0  0  0  0  0  0  0  0  0  0  0  0
   57.2439   35.0050   44.8599 H   0  0  0  0  0  0  0  0  0  0  0  0
   59.4928   35.5414   45.7907 H   0  0  0  0  0  0  0  0  0  0  0  0
   61.5777   34.7939   46.8531 H   0  0  0  0  0  0  0  0  0  0  0  0
   62.9676   32.9423   47.7995 H   0  0  0  0  0  0  0  0  0  0  0  0
   62.0734   30.6081   47.8033 H   0  0  0  0  0  0  0  0  0  0  0  0
  1  2  2  0
  2  3  2  0
  2  4  1  0
  4  5  1  0
  5  6  2  0
  6  7  1  0
  7  8  1  0
  7  9  2  0
  9 10  1  0
 10 11  2  0
 11 12  1  0
  2 13  1  0
 13 14  1  0
 14 15  2  0
 15 16  1  0
 16 17  2  0
 17 18  1  0
 18 19  2  0
 19 20  1  0
 20 21  2  0
 21 22  1  0
 22 23  2  0
 11  5  1  0
 23 14  1  0
 23 18  1  0
  4 24  1  0
  4 25  1  0
  6 26  1  0
  9 27  1  0
 10 28  1  0
 13 29  1  0
 15 30  1  0
 16 31  1  0
 17 32  1  0
 19 33  1  0
 20 34  1  0
 21 35  1  0
M  CHG  1  12  -1
M  END
>  <UniqueID>  (27) 
25

>  <SMILES>  (27) 
O=S(=O)(Cc1cc(F)ccc1[S-])Nc1cccc2cccnc12

>  <Energy>  (27) 
41.598002712119644

>  <Genealogy>  (27) 
O=S(=O)(Cc1cc(F)ccc1[S-])Nc1cccc2cccnc12 (protonated)
O=S(=O)(Cc1cc(F)ccc1[S-])Nc1cccc2cccnc12 (3D coordinates assigned)
O=S(=O)(Cc1cc(F)ccc1[S-])Nc1cccc2cccnc12 (optimized conformer: 41.598002712119644 kcal/mol)

>  <smiles>  (27) 
O=S(=O)(Cc1cc(F)ccc1S)Nc1cccc2cccnc12

>  <score_type>  (27) 
oracle

>  <origin>  (27) 
adg

>  <m_score__min__energy>  (27) 
-9.7799999999999994

>  <m_primary>  (27) 
energy

$$$$
27:0
     RDKit          3D

 40 43  0  0  0  0  0  0  0  0999 V2000
   56.4639   24.6129   47.0384 H   0  0  0  0  0  0  0  0  0  0  0  0
   56.7740   25.6200   46.7230 C   0  0  0  0  0  0  0  0  0  0  0  0
   57.9890   26.1690   46.9250 N   0  0  0  0  0  0  0  0  0  0  0  0
   57.9830   27.3930   46.4100 N   0  0  0  0  0  0  0  0  0  0  0  0
   59.1110   28.2760   46.5140 C   0  0  0  0  0  0  0  0  0  0  0  0
   60.0060   28.4250   45.4410 C   0  0  0  0  0  0  0  0  0  0  0  0
   59.8600   27.8417   44.5199 H   0  0  0  0  0  0  0  0  0  0  0  0
   61.0820   29.3130   45.5410 C   0  0  0  0  0  0  0  0  0  0  0  0
   61.7880   29.4163   44.7038 H   0  0  0  0  0  0  0  0  0  0  0  0
   61.2620   30.0690   46.7020 C   0  0  0  0  0  0  0  0  0  0  0  0
   62.1120   30.7627   46.7810 H   0  0  0  0  0  0  0  0  0  0  0  0
   60.3610   29.9430   47.7630 C   0  0  0  0  0  0  0  0  0  0  0  0
   60.4990   30.5430   48.6745 H   0  0  0  0  0  0  0  0  0  0  0  0
   59.2850   29.0560   47.6680 C   0  0  0  0  0  0  0  0  0  0  0  0
   58.5717   28.9688   48.5008 H   0  0  0  0  0  0  0  0  0  0  0  0
   56.7690   27.6480   45.8600 C   0  0  0  0  0  0  0  0  0  0  0  0
   56.3840   28.8480   45.0890 C   0  0  0  0  0  0  0  0  0  0  0  0
   55.1690   29.0620   44.8290 O   0  0  0  0  0  0  0  0  0  0  0  0
   57.4020   29.7770   44.6810 N   0  0  0  0  0  0  0  0  0  0  0  0
   57.5210   31.0270   45.0270 C   0  0  0  0  0  0  0  0  0  0  0  0
   56.5090   31.9070   44.8810 N   0  0  0  0  0  0  0  0  0  0  0  0
   56.8180   33.1360   45.2900 N   0  0  0  0  0  0  0  0  0  0  0  0
   58.0740   33.2400   45.7760 C   0  0  0  0  0  0  0  0  0  0  0  0
   58.6810   34.5260   46.2330 C   0  0  0  0  0  0  0  0  0  0  0  0
   58.9360   35.1398   45.3565 H   0  0  0  0  0  0  0  0  0  0  0  0
   57.9578   35.0605   46.8665 H   0  0  0  0  0  0  0  0  0  0  0  0
   59.9260   34.2550   47.0290 C   0  0  0  0  0  0  0  0  0  0  0  0
   61.1380   33.9760   46.3770 C   0  0  0  0  0  0  0  0  0  0  0  0
   61.1709   33.9272   45.2786 H   0  0  0  0  0  0  0  0  0  0  0  0
   62.3030   33.7600   47.1190 C   0  0  0  0  0  0  0  0  0  0  0  0
   63.2482   33.5345   46.6036 H   0  0  0  0  0  0  0  0  0  0  0  0
   62.2690   33.8300   48.5140 C   0  0  0  0  0  0  0  0  0  0  0  0
   63.1861   33.6560   49.0959 H   0  0  0  0  0  0  0  0  0  0  0  0
   61.0700   34.1210   49.1700 C   0  0  0  0  0  0  0  0  0  0  0  0
   61.0448   34.1795   50.2682 H   0  0  0  0  0  0  0  0  0  0  0  0
   59.9020   34.3380   48.4320 C   0  0  0  0  0  0  0  0  0  0  0  0
   58.9615   34.5744   48.9512 H   0  0  0  0  0  0  0  0  0  0  0  0
   58.8890   31.7670   45.6920 S   0  0  0  0  0  0  0  0  0  0  0  0
   55.9870   26.5310   46.0560 C   0  0  0  0  0  0  0  0  0  0  0  0
   54.6750   26.3350   45.6410 O   0  0  0  0  0  0  0  0  0  0  0  0
  1  2  1  0
  2  3  2  0
  3  4  1  0
  4  5  1  0
  5  6  2  0
  6  7  1  0
  6  8  1  0
  8  9  1  0
  8 10  2  0
 10 11  1  0
 10 12  1  0
 12 13  1  0
 12 14  2  0
 14 15  1  0
  4 16  1  0
 16 17  1  0
 17 18  2  0
 17 19  1  0
 19 20  2  0
 20 21  1  0
 21 22  1  0
 22 23  2  0
 23 24  1  0
 24 25  1  0
 24 26  1  0
 24 27  1  0
 27 28  2  0
 28 29  1  0
 28 30  1  0
 30 31  1  0
 30 32  2  0
 32 33  1  0
 32 34  1  0
 34 35  1  0
 34 36  2  0
 36 37  1  0
 23 38  1  0
 16 39  2  0
 39 40  1  0
 39  2  1  0
 14  5  1  0
 38 20  1  0
 36 27  1  0
M  CHG  2  21  -1  40  -1
M  END
>  <UniqueID>  (28) 
26

>  <SMILES>  (28) 
O=C(/N=c1/[n-]nc(Cc2ccccc2)s1)c1c([O-])cnn1-c1ccccc1

>  <Energy>  (28) 
119.60204885875751

>  <Genealogy>  (28) 
O=C(N=c1[n-]nc(Cc2ccccc2)s1)c1c([O-])cnn1-c1ccccc1 (protonated)
O=C(/N=c1/[n-]nc(Cc2ccccc2)s1)c1c([O-])cnn1-c1ccccc1 (cis-trans isomerization)
O=C(/N=c1/[n-]nc(Cc2ccccc2)s1)c1c([O-])cnn1-c1ccccc1 (3D coordinates assigned)
O=C(/N=c1/[n-]nc(Cc2ccccc2)s1)c1c([O-])cnn1-c1ccccc1 (optimized conformer: 119.60204885875751 kcal/mol)

>  <smiles>  (28) 
O=C(N=c1[nH]nc(Cc2ccccc2)s1)c1c(O)cnn1-c1ccccc1

>  <score_type>  (28) 
oracle

>  <origin>  (28) 
adg

>  <m_score__min__energy>  (28) 
-13.779999999999999

>  <m_primary>  (28) 
energy

$$$$
28:0
     RDKit          3D

 44 45  0  0  0  0  0  0  0  0999 V2000
   54.2820   23.7350   44.6070 C   0  0  0  0  0  0  0  0  0  0  0  0
   53.6310   24.8210   45.4580 C   0  0  0  0  0  0  0  0  0  0  0  0
   54.5500   25.8680   45.7080 O   0  0  0  0  0  0  0  0  0  0  0  0
   55.7090   25.3930   46.3680 C   0  0  0  0  0  0  0  0  0  0  0  0
   56.9230   25.4290   45.4370 C   0  0  0  0  0  0  0  0  0  0  0  0
   57.6860   26.6670   45.6240 N   0  0  0  0  0  0  0  0  0  0  0  0
   57.2110   27.9210   45.4960 C   0  0  0  0  0  0  0  0  0  0  0  0
   55.8780   28.2280   45.2300 O   0  0  0  0  0  0  0  0  0  0  0  0
   58.2450   28.8210   45.6660 C   0  0  0  0  0  0  0  0  0  0  0  0
   58.1540   30.2870   45.5250 C   0  0  0  0  0  0  0  0  0  0  0  0
   58.4090   31.1170   46.6270 C   0  0  0  0  0  0  0  0  0  0  0  0
   58.3250   32.5060   46.4970 C   0  0  0  0  0  0  0  0  0  0  0  0
   57.9900   33.0840   45.2570 C   0  0  0  0  0  0  0  0  0  0  0  0
   57.8930   34.4720   45.0750 O   0  0  0  0  0  0  0  0  0  0  0  0
   59.0100   35.3470   44.9580 C   0  0  0  0  0  0  0  0  0  0  0  0
   57.7440   32.2520   44.1590 C   0  0  0  0  0  0  0  0  0  0  0  0
   57.8280   30.8620   44.2890 C   0  0  0  0  0  0  0  0  0  0  0  0
   59.3820   28.1220   45.9000 N   0  0  0  0  0  0  0  0  0  0  0  0
   60.7500   28.6530   45.9610 C   0  0  0  0  0  0  0  0  0  0  0  0
   61.3760   28.6670   44.5700 C   0  0  0  0  0  0  0  0  0  0  0  0
   59.0130   26.8160   45.8520 C   0  0  0  0  0  0  0  0  0  0  0  0
   60.0640   25.5590   46.0030 S   0  0  0  0  0  0  0  0  0  0  0  0
   54.7359   22.9778   45.2632 H   0  0  0  0  0  0  0  0  0  0  0  0
   53.5194   23.2603   43.9721 H   0  0  0  0  0  0  0  0  0  0  0  0
   55.0601   24.1839   43.9721 H   0  0  0  0  0  0  0  0  0  0  0  0
   52.7577   25.2247   44.9248 H   0  0  0  0  0  0  0  0  0  0  0  0
   53.3184   24.3834   46.4176 H   0  0  0  0  0  0  0  0  0  0  0  0
   55.9090   26.0265   47.2447 H   0  0  0  0  0  0  0  0  0  0  0  0
   55.5347   24.3518   46.6770 H   0  0  0  0  0  0  0  0  0  0  0  0
   57.5720   24.5686   45.6573 H   0  0  0  0  0  0  0  0  0  0  0  0
   56.5704   25.3860   44.3959 H   0  0  0  0  0  0  0  0  0  0  0  0
   55.1430   27.5440   45.3580 H   0  0  0  0  0  0  0  0  0  0  0  0
   58.6761   30.6728   47.5972 H   0  0  0  0  0  0  0  0  0  0  0  0
   58.5213   33.1504   47.3666 H   0  0  0  0  0  0  0  0  0  0  0  0
   59.3648   35.6249   45.9615 H   0  0  0  0  0  0  0  0  0  0  0  0
   59.8180   34.8390   44.4111 H   0  0  0  0  0  0  0  0  0  0  0  0
   58.7103   36.2531   44.4111 H   0  0  0  0  0  0  0  0  0  0  0  0
   57.4826   32.6945   43.1865 H   0  0  0  0  0  0  0  0  0  0  0  0
   57.6375   30.2177   43.4181 H   0  0  0  0  0  0  0  0  0  0  0  0
   60.7235   29.6788   46.3572 H   0  0  0  0  0  0  0  0  0  0  0  0
   61.3539   28.0102   46.6183 H   0  0  0  0  0  0  0  0  0  0  0  0
   62.4719   28.6915   44.6614 H   0  0  0  0  0  0  0  0  0  0  0  0
   61.0738   27.7619   44.0228 H   0  0  0  0  0  0  0  0  0  0  0  0
   61.0337   29.5577   44.0228 H   0  0  0  0  0  0  0  0  0  0  0  0
  1  2  1  0
  2  3  1  0
  3  4  1  0
  4  5  1  0
  5  6  1  0
  6  7  1  0
  7  8  1  0
  7  9  2  0
  9 10  1  0
 10 11  2  0
 11 12  1  0
 12 13  2  0
 13 14  1  0
 14 15  1  0
 13 16  1  0
 16 17  2  0
  9 18  1  0
 18 19  1  0
 19 20  1  0
 18 21  1  0
 21 22  2  0
 21  6  1  0
 17 10  1  0
  1 23  1  0
  1 24  1  0
  1 25  1  0
  2 26  1  0
  2 27  1  0
  4 28  1  0
  4 29  1  0
  5 30  1  0
  5 31  1  0
  8 32  1  0
 11 33  1  0
 12 34  1  0
 15 35  1  0
 15 36  1  0
 15 37  1  0
 16 38  1  0
 17 39  1  0
 19 40  1  0
 19 41  1  0
 20 42  1  0
 20 43  1  0
 20 44  1  0
M  END
>  <UniqueID>  (29) 
27

>  <SMILES>  (29) 
CCOCCn1c(O)c(-c2ccc(OC)cc2)n(CC)c1=S

>  <Energy>  (29) 
77.65616712108918

>  <Genealogy>  (29) 
CCOCCn1c(O)c(-c2ccc(OC)cc2)n(CC)c1=S (3D coordinates assigned)
CCOCCn1c(O)c(-c2ccc(OC)cc2)n(CC)c1=S (optimized conformer: 77.65616712108918 kcal/mol)

>  <smiles>  (29) 
CCOCCn1c(O)c(-c2ccc(OC)cc2)n(CC)c1=S

>  <score_type>  (29) 
oracle

>  <origin>  (29) 
adg

>  <m_score__min__energy>  (29) 
-6.4800000000000004

>  <m_primary>  (29) 
energy

$$$$
29:0
     RDKit          3D

 43 44  0  0  0  0  0  0  0  0999 V2000
   58.5940   23.6830   45.3960 C   0  0  0  0  0  0  0  0  0  0  0  0
   58.8000   24.9580   46.2040 C   0  0  0  0  0  0  0  0  0  0  0  0
   57.6110   25.8680   46.0750 C   0  0  0  0  0  0  0  0  0  0  0  0
   56.2670   25.5440   46.2760 C   0  0  0  0  0  0  0  0  0  0  0  0
   55.7410   24.2230   46.7340 C   0  0  0  0  0  0  0  0  0  0  0  0
   55.4940   26.5820   46.0040 O   0  0  0  0  0  0  0  0  0  0  0  0
   56.2810   27.5580   45.6220 C   0  0  0  0  0  0  0  0  0  0  0  0
   55.8940   28.7980   45.2400 N   0  0  0  0  0  0  0  0  0  0  0  0
   56.8550   29.6950   44.8560 C   0  0  0  0  0  0  0  0  0  0  0  0
   56.5060   30.9870   44.4550 O   0  0  0  0  0  0  0  0  0  0  0  0
   57.4670   31.9500   44.0400 C   0  0  0  0  0  0  0  0  0  0  0  0
   57.8240   32.7980   45.1780 C   0  0  0  0  0  0  0  0  0  0  0  0
   58.1180   33.4960   46.1160 C   0  0  0  0  0  0  0  0  0  0  0  0
   58.4760   34.3450   47.2610 C   0  0  0  0  0  0  0  0  0  0  0  0
   59.7970   34.9620   47.0520 N   0  0  0  0  0  0  0  0  0  0  0  0
   60.8710   34.2610   47.7920 C   0  0  0  0  0  0  0  0  0  0  0  0
   60.3020   33.2510   48.8070 C   0  0  0  0  0  0  0  0  0  0  0  0
   61.7990   33.5310   46.8090 C   0  0  0  0  0  0  0  0  0  0  0  0
   58.1770   29.3310   44.8590 N   0  0  0  0  0  0  0  0  0  0  0  0
   58.5720   28.0820   45.2430 C   0  0  0  0  0  0  0  0  0  0  0  0
   59.7920   27.7710   45.2330 O   0  0  0  0  0  0  0  0  0  0  0  0
   57.5910   27.1790   45.6380 C   0  0  0  0  0  0  0  0  0  0  0  0
   58.4567   22.8331   46.0807 H   0  0  0  0  0  0  0  0  0  0  0  0
   57.7016   23.7909   44.7619 H   0  0  0  0  0  0  0  0  0  0  0  0
   59.4749   23.5044   44.7619 H   0  0  0  0  0  0  0  0  0  0  0  0
   58.9403   24.6954   47.2630 H   0  0  0  0  0  0  0  0  0  0  0  0
   59.6880   25.4805   45.8189 H   0  0  0  0  0  0  0  0  0  0  0  0
   55.7295   24.1942   47.8336 H   0  0  0  0  0  0  0  0  0  0  0  0
   54.7186   24.0833   46.3528 H   0  0  0  0  0  0  0  0  0  0  0  0
   56.3875   23.4188   46.3528 H   0  0  0  0  0  0  0  0  0  0  0  0
   58.3657   31.4359   43.6686 H   0  0  0  0  0  0  0  0  0  0  0  0
   57.0438   32.5705   43.2363 H   0  0  0  0  0  0  0  0  0  0  0  0
   57.7207   35.1365   47.3751 H   0  0  0  0  0  0  0  0  0  0  0  0
   58.5130   33.7230   48.1675 H   0  0  0  0  0  0  0  0  0  0  0  0
   59.7490   35.9530   47.3880 H   0  0  0  0  0  0  0  0  0  0  0  0
   60.0200   34.9740   46.0270 H   0  0  0  0  0  0  0  0  0  0  0  0
   61.4386   35.0214   48.3484 H   0  0  0  0  0  0  0  0  0  0  0  0
   60.5019   33.6059   49.8288 H   0  0  0  0  0  0  0  0  0  0  0  0
   59.2164   33.1539   48.6584 H   0  0  0  0  0  0  0  0  0  0  0  0
   60.7814   32.2722   48.6584 H   0  0  0  0  0  0  0  0  0  0  0  0
   62.5420   32.9465   47.3714 H   0  0  0  0  0  0  0  0  0  0  0  0
   61.2044   32.8560   46.1759 H   0  0  0  0  0  0  0  0  0  0  0  0
   62.3150   34.2678   46.1759 H   0  0  0  0  0  0  0  0  0  0  0  0
  1  2  1  0
  2  3  1  0
  3  4  2  0
  4  5  1  0
  4  6  1  0
  6  7  1  0
  7  8  1  0
  8  9  1  0
  9 10  1  0
 10 11  1  0
 11 12  1  0
 12 13  3  0
 13 14  1  0
 14 15  1  0
 15 16  1  0
 16 17  1  0
 16 18  1  0
  9 19  2  0
 19 20  1  0
 20 21  2  0
 20 22  1  0
 22  3  1  0
 22  7  2  0
  1 23  1  0
  1 24  1  0
  1 25  1  0
  2 26  1  0
  2 27  1  0
  5 28  1  0
  5 29  1  0
  5 30  1  0
 11 31  1  0
 11 32  1  0
 14 33  1  0
 14 34  1  0
 15 35  1  0
 15 36  1  0
 16 37  1  0
 17 38  1  0
 17 39  1  0
 17 40  1  0
 18 41  1  0
 18 42  1  0
 18 43  1  0
M  CHG  2   8  -1  15   1
M  END
>  <UniqueID>  (30) 
28

>  <SMILES>  (30) 
CCc1c(C)oc2[n-]c(OCC#CC[NH2+]C(C)C)nc(=O)c12

>  <Energy>  (30) 
65.71590281877933

>  <Genealogy>  (30) 
CCc1c(C)oc2[n-]c(OCC#CC[NH2+]C(C)C)nc(=O)c12 (protonated)
CCc1c(C)oc2[n-]c(OCC#CC[NH2+]C(C)C)nc(=O)c12 (3D coordinates assigned)
CCc1c(C)oc2[n-]c(OCC#CC[NH2+]C(C)C)nc(=O)c12 (optimized conformer: 65.71590281877933 kcal/mol)

>  <smiles>  (30) 
CCc1c(C)oc2[nH]c(OCC#CCNC(C)C)nc(=O)c12

>  <score_type>  (30) 
oracle

>  <origin>  (30) 
adg

>  <m_score__min__energy>  (30) 
-6.5999999999999996

>  <m_primary>  (30) 
energy

$$$$
30:0
     RDKit          3D

 41 44  0  0  0  0  0  0  0  0999 V2000
   54.7820   26.3240   45.9800 F   0  0  0  0  0  0  0  0  0  0  0  0
   55.9050   25.5150   45.9960 C   0  0  0  0  0  0  0  0  0  0  0  0
   55.9830   24.8770   47.2200 F   0  0  0  0  0  0  0  0  0  0  0  0
   55.7670   24.5650   45.0000 F   0  0  0  0  0  0  0  0  0  0  0  0
   57.1560   26.3300   45.7810 C   0  0  0  0  0  0  0  0  0  0  0  0
   58.4020   25.8540   46.2220 C   0  0  0  0  0  0  0  0  0  0  0  0
   59.5630   26.5950   45.9870 C   0  0  0  0  0  0  0  0  0  0  0  0
   59.4980   27.8020   45.2890 C   0  0  0  0  0  0  0  0  0  0  0  0
   58.2720   28.2740   44.8020 C   0  0  0  0  0  0  0  0  0  0  0  0
   58.2320   29.5190   44.0800 N   0  0  0  0  0  0  0  0  0  0  0  0
   58.3860   30.8050   44.6960 C   0  0  0  0  0  0  0  0  0  0  0  0
   58.8340   30.8720   46.0310 C   0  0  0  0  0  0  0  0  0  0  0  0
   58.9730   32.1310   46.6100 C   0  0  0  0  0  0  0  0  0  0  0  0
   58.7120   33.2790   45.9190 C   0  0  0  0  0  0  0  0  0  0  0  0
   58.2930   33.2620   44.5930 C   0  0  0  0  0  0  0  0  0  0  0  0
   58.1330   32.0080   43.9690 C   0  0  0  0  0  0  0  0  0  0  0  0
   57.6850   31.9730   42.2680 Cl  0  0  0  0  0  0  0  0  0  0  0  0
   58.9560   34.3490   46.7000 N   0  0  0  0  0  0  0  0  0  0  0  0
   59.3750   33.8080   47.8690 C   0  0  0  0  0  0  0  0  0  0  0  0
   59.3710   32.4540   47.8540 N   0  0  0  0  0  0  0  0  0  0  0  0
   59.8520   31.5800   48.9250 C   0  0  0  0  0  0  0  0  0  0  0  0
   59.9070   32.3450   50.2570 C   0  0  0  0  0  0  0  0  0  0  0  0
   60.5430   33.7350   50.0700 C   0  0  0  0  0  0  0  0  0  0  0  0
   59.7290   34.5980   49.0920 C   0  0  0  0  0  0  0  0  0  0  0  0
   57.1000   27.5340   45.0570 C   0  0  0  0  0  0  0  0  0  0  0  0
   58.4639   24.8936   46.7547 H   0  0  0  0  0  0  0  0  0  0  0  0
   60.5322   26.2257   46.3535 H   0  0  0  0  0  0  0  0  0  0  0  0
   60.4147   28.3861   45.1203 H   0  0  0  0  0  0  0  0  0  0  0  0
   58.2070   29.4840   43.0350 H   0  0  0  0  0  0  0  0  0  0  0  0
   59.0665   29.9583   46.5977 H   0  0  0  0  0  0  0  0  0  0  0  0
   58.0929   34.1967   44.0487 H   0  0  0  0  0  0  0  0  0  0  0  0
   58.8530   35.3590   46.4580 H   0  0  0  0  0  0  0  0  0  0  0  0
   59.1701   30.7230   49.0272 H   0  0  0  0  0  0  0  0  0  0  0  0
   60.8638   31.2300   48.6725 H   0  0  0  0  0  0  0  0  0  0  0  0
   58.8847   32.4665   50.6444 H   0  0  0  0  0  0  0  0  0  0  0  0
   60.5222   31.7709   50.9654 H   0  0  0  0  0  0  0  0  0  0  0  0
   60.5860   34.2429   51.0448 H   0  0  0  0  0  0  0  0  0  0  0  0
   61.5527   33.6004   49.6548 H   0  0  0  0  0  0  0  0  0  0  0  0
   58.8056   34.9335   49.5867 H   0  0  0  0  0  0  0  0  0  0  0  0
   60.3345   35.4664   48.7932 H   0  0  0  0  0  0  0  0  0  0  0  0
   56.1320   27.9019   44.6860 H   0  0  0  0  0  0  0  0  0  0  0  0
  1  2  1  0
  2  3  1  0
  2  4  1  0
  2  5  1  0
  5  6  2  0
  6  7  1  0
  7  8  2  0
  8  9  1  0
  9 10  1  0
 10 11  1  0
 11 12  2  0
 12 13  1  0
 13 14  2  0
 14 15  1  0
 15 16  2  0
 16 17  1  0
 14 18  1  0
 18 19  2  0
 19 20  1  0
 20 21  1  0
 21 22  1  0
 22 23  1  0
 23 24  1  0
  9 25  2  0
 25  5  1  0
 16 11  1  0
 24 19  1  0
 20 13  1  0
  6 26  1  0
  7 27  1  0
  8 28  1  0
 10 29  1  0
 12 30  1  0
 15 31  1  0
 18 32  1  0
 21 33  1  0
 21 34  1  0
 22 35  1  0
 22 36  1  0
 23 37  1  0
 23 38  1  0
 24 39  1  0
 24 40  1  0
 25 41  1  0
M  CHG  1  18   1
M  END
>  <UniqueID>  (31) 
29

>  <SMILES>  (31) 
FC(F)(F)c1cccc(Nc2cc3c(cc2Cl)[nH+]c2n3CCCC2)c1

>  <Energy>  (31) 
89.09668954877243

>  <Genealogy>  (31) 
FC(F)(F)c1cccc(Nc2cc3c(cc2Cl)[nH+]c2n3CCCC2)c1 (protonated)
FC(F)(F)c1cccc(Nc2cc3c(cc2Cl)[nH+]c2n3CCCC2)c1 (3D coordinates assigned)
FC(F)(F)c1cccc(Nc2cc3c(cc2Cl)[nH+]c2n3CCCC2)c1 (nonaromatic ring conformer: 89.09668954877243 kcal/mol)

>  <smiles>  (31) 
FC(F)(F)c1cccc(Nc2cc3c(cc2Cl)nc2n3CCCC2)c1

>  <score_type>  (31) 
oracle

>  <origin>  (31) 
adg

>  <m_score__min__energy>  (31) 
-6.3200000000000003

>  <m_primary>  (31) 
energy

$$$$
31:0
     RDKit          3D

 34 35  0  0  0  0  0  0  0  0999 V2000
   54.8450   24.8280   46.1940 O   0  0  0  0  0  0  0  0  0  0  0  0
   55.7160   25.6070   45.7260 C   0  0  0  0  0  0  0  0  0  0  0  0
   55.7280   26.9330   45.9470 N   0  0  0  0  0  0  0  0  0  0  0  0
   56.7670   27.4310   45.2860 N   0  0  0  0  0  0  0  0  0  0  0  0
   57.0970   28.8350   45.2670 C   0  0  0  0  0  0  0  0  0  0  0  0
   58.0640   29.3420   46.1550 C   0  0  0  0  0  0  0  0  0  0  0  0
   58.3940   30.7010   46.1470 C   0  0  0  0  0  0  0  0  0  0  0  0
   57.7680   31.5700   45.2500 C   0  0  0  0  0  0  0  0  0  0  0  0
   58.1850   33.2730   45.2400 Cl  0  0  0  0  0  0  0  0  0  0  0  0
   56.8110   31.0780   44.3580 C   0  0  0  0  0  0  0  0  0  0  0  0
   56.4760   29.7210   44.3630 C   0  0  0  0  0  0  0  0  0  0  0  0
   57.4140   26.4310   44.6400 C   0  0  0  0  0  0  0  0  0  0  0  0
   56.7700   25.2420   44.9170 C   0  0  0  0  0  0  0  0  0  0  0  0
   57.0730   23.8900   44.3470 C   0  0  0  0  0  0  0  0  0  0  0  0
   56.1080   23.5580   43.2020 C   0  0  0  0  0  0  0  0  0  0  0  0
   56.3980   22.2250   42.6460 N   0  0  0  0  0  0  0  0  0  0  0  0
   57.4470   21.5160   43.4010 C   0  0  0  0  0  0  0  0  0  0  0  0
   56.8870   20.6740   44.5560 C   0  0  0  0  0  0  0  0  0  0  0  0
   55.5060   20.7320   44.5790 F   0  0  0  0  0  0  0  0  0  0  0  0
   58.5646   28.6635   46.8614 H   0  0  0  0  0  0  0  0  0  0  0  0
   59.1483   31.0866   46.8487 H   0  0  0  0  0  0  0  0  0  0  0  0
   56.3197   31.7612   43.6495 H   0  0  0  0  0  0  0  0  0  0  0  0
   55.7227   29.3417   43.6568 H   0  0  0  0  0  0  0  0  0  0  0  0
   58.3027   26.5472   44.0023 H   0  0  0  0  0  0  0  0  0  0  0  0
   58.1043   23.8819   43.9644 H   0  0  0  0  0  0  0  0  0  0  0  0
   56.9552   23.1365   45.1397 H   0  0  0  0  0  0  0  0  0  0  0  0
   55.0764   23.5734   43.5834 H   0  0  0  0  0  0  0  0  0  0  0  0
   56.2323   24.3075   42.4065 H   0  0  0  0  0  0  0  0  0  0  0  0
   55.5230   21.6510   42.6250 H   0  0  0  0  0  0  0  0  0  0  0  0
   56.7380   22.3360   41.6620 H   0  0  0  0  0  0  0  0  0  0  0  0
   57.9867   20.8505   42.7112 H   0  0  0  0  0  0  0  0  0  0  0  0
   58.1098   22.2770   43.8388 H   0  0  0  0  0  0  0  0  0  0  0  0
   57.2022   19.6282   44.4262 H   0  0  0  0  0  0  0  0  0  0  0  0
   57.2733   21.0745   45.5049 H   0  0  0  0  0  0  0  0  0  0  0  0
  1  2  2  0
  2  3  1  0
  3  4  1  0
  4  5  1  0
  5  6  2  0
  6  7  1  0
  7  8  2  0
  8  9  1  0
  8 10  1  0
 10 11  2  0
  4 12  1  0
 12 13  2  0
 13 14  1  0
 14 15  1  0
 15 16  1  0
 16 17  1  0
 17 18  1  0
 18 19  1  0
 13  2  1  0
 11  5  1  0
  6 20  1  0
  7 21  1  0
 10 22  1  0
 11 23  1  0
 12 24  1  0
 14 25  1  0
 14 26  1  0
 15 27  1  0
 15 28  1  0
 16 29  1  0
 16 30  1  0
 17 31  1  0
 17 32  1  0
 18 33  1  0
 18 34  1  0
M  CHG  2   3  -1  16   1
M  END
>  <UniqueID>  (32) 
30

>  <SMILES>  (32) 
O=c1[n-]n(-c2ccc(Cl)cc2)cc1CC[NH2+]CCF

>  <Energy>  (32) 
64.08258038401459

>  <Genealogy>  (32) 
O=c1[n-]n(-c2ccc(Cl)cc2)cc1CC[NH2+]CCF (protonated)
O=c1[n-]n(-c2ccc(Cl)cc2)cc1CC[NH2+]CCF (3D coordinates assigned)
O=c1[n-]n(-c2ccc(Cl)cc2)cc1CC[NH2+]CCF (optimized conformer: 64.08258038401459 kcal/mol)

>  <smiles>  (32) 
O=c1[nH]n(-c2ccc(Cl)cc2)cc1CCNCCF

>  <score_type>  (32) 
oracle

>  <origin>  (32) 
adg

>  <m_score__min__energy>  (32) 
-7.2000000000000002

>  <m_primary>  (32) 
energy

$$$$
32:0
     RDKit          3D

 47 48  0  0  0  0  0  0  0  0999 V2000
   61.3150   30.8430   47.2040 C   0  0  0  0  0  0  0  0  0  0  0  0
   60.0010   30.9520   46.9540 C   0  0  0  0  0  0  0  0  0  0  0  0
   59.0720   29.8290   47.3610 C   0  0  0  0  0  0  0  0  0  0  0  0
   59.6160   28.2140   46.7030 S   0  0  0  0  0  0  0  0  0  0  0  0
   58.0060   27.7840   46.0770 N   0  0  0  0  0  0  0  0  0  0  0  0
   58.0960   27.6300   44.6110 C   0  0  0  0  0  0  0  0  0  0  0  0
   57.4620   28.8060   43.8550 C   0  0  0  0  0  0  0  0  0  0  0  0
   56.2880   29.3640   44.5950 C   0  0  0  0  0  0  0  0  0  0  0  0
   55.5300   28.5940   45.2450 O   0  0  0  0  0  0  0  0  0  0  0  0
   56.0110   30.7270   44.5420 O   0  0  0  0  0  0  0  0  0  0  0  0
   57.4740   26.5960   46.7900 C   0  0  0  0  0  0  0  0  0  0  0  0
   57.0820   25.4440   45.8840 C   0  0  0  0  0  0  0  0  0  0  0  0
   55.7280   25.1700   45.6250 C   0  0  0  0  0  0  0  0  0  0  0  0
   55.3660   24.1090   44.7910 C   0  0  0  0  0  0  0  0  0  0  0  0
   56.3540   23.2940   44.2060 C   0  0  0  0  0  0  0  0  0  0  0  0
   56.0420   22.2200   43.3600 O   0  0  0  0  0  0  0  0  0  0  0  0
   56.9510   21.1820   43.0090 C   0  0  0  0  0  0  0  0  0  0  0  0
   57.7020   23.5560   44.4780 C   0  0  0  0  0  0  0  0  0  0  0  0
   58.0650   24.6160   45.3140 C   0  0  0  0  0  0  0  0  0  0  0  0
   59.4500   32.2070   46.3660 C   0  0  0  0  0  0  0  0  0  0  0  0
   58.3060   32.1710   45.5430 C   0  0  0  0  0  0  0  0  0  0  0  0
   57.7960   33.3480   44.9820 C   0  0  0  0  0  0  0  0  0  0  0  0
   58.4150   34.5740   45.2400 C   0  0  0  0  0  0  0  0  0  0  0  0
   59.5440   34.6260   46.0610 C   0  0  0  0  0  0  0  0  0  0  0  0
   60.0560   33.4530   46.6250 C   0  0  0  0  0  0  0  0  0  0  0  0
   61.9994   31.6533   46.9124 H   0  0  0  0  0  0  0  0  0  0  0  0
   61.7076   29.9434   47.7005 H   0  0  0  0  0  0  0  0  0  0  0  0
   59.0432   29.7730   48.4592 H   0  0  0  0  0  0  0  0  0  0  0  0
   58.0766   30.0458   46.9460 H   0  0  0  0  0  0  0  0  0  0  0  0
   59.1568   27.5600   44.3284 H   0  0  0  0  0  0  0  0  0  0  0  0
   57.5427   26.7198   44.3365 H   0  0  0  0  0  0  0  0  0  0  0  0
   58.2150   29.5981   43.7298 H   0  0  0  0  0  0  0  0  0  0  0  0
   57.1124   28.4403   42.8783 H   0  0  0  0  0  0  0  0  0  0  0  0
   58.2467   26.2383   47.4864 H   0  0  0  0  0  0  0  0  0  0  0  0
   56.5548   26.9214   47.2991 H   0  0  0  0  0  0  0  0  0  0  0  0
   54.9473   25.7956   46.0824 H   0  0  0  0  0  0  0  0  0  0  0  0
   54.3031   23.9093   44.5903 H   0  0  0  0  0  0  0  0  0  0  0  0
   57.3536   20.7223   43.9237 H   0  0  0  0  0  0  0  0  0  0  0  0
   56.4252   20.4191   42.4161 H   0  0  0  0  0  0  0  0  0  0  0  0
   57.7766   21.6026   42.4161 H   0  0  0  0  0  0  0  0  0  0  0  0
   58.4820   22.9226   44.0302 H   0  0  0  0  0  0  0  0  0  0  0  0
   59.1276   24.8037   45.5275 H   0  0  0  0  0  0  0  0  0  0  0  0
   57.8100   31.2104   45.3399 H   0  0  0  0  0  0  0  0  0  0  0  0
   56.9061   33.3076   44.3367 H   0  0  0  0  0  0  0  0  0  0  0  0
   58.0136   35.4973   44.7970 H   0  0  0  0  0  0  0  0  0  0  0  0
   60.0311   35.5911   46.2643 H   0  0  0  0  0  0  0  0  0  0  0  0
   60.9404   33.5033   47.2772 H   0  0  0  0  0  0  0  0  0  0  0  0
  1  2  2  0
  2  3  1  0
  3  4  1  0
  4  5  1  0
  5  6  1  0
  6  7  1  0
  7  8  1  0
  8  9  2  0
  8 10  1  0
  5 11  1  0
 11 12  1  0
 12 13  2  0
 13 14  1  0
 14 15  2  0
 15 16  1  0
 16 17  1  0
 15 18  1  0
 18 19  2  0
  2 20  1  0
 20 21  2  0
 21 22  1  0
 22 23  2  0
 23 24  1  0
 24 25  2  0
 19 12  1  0
 25 20  1  0
  1 26  1  0
  1 27  1  0
  3 28  1  0
  3 29  1  0
  6 30  1  0
  6 31  1  0
  7 32  1  0
  7 33  1  0
 11 34  1  0
 11 35  1  0
 13 36  1  0
 14 37  1  0
 17 38  1  0
 17 39  1  0
 17 40  1  0
 18 41  1  0
 19 42  1  0
 21 43  1  0
 22 44  1  0
 23 45  1  0
 24 46  1  0
 25 47  1  0
M  CHG  1  10  -1
M  END
>  <UniqueID>  (33) 
31

>  <SMILES>  (33) 
C=C(CSN(CCC(=O)[O-])Cc1ccc(OC)cc1)c1ccccc1

>  <Energy>  (33) 
46.207152433340944

>  <Genealogy>  (33) 
C=C(CSN(CCC(=O)[O-])Cc1ccc(OC)cc1)c1ccccc1 (protonated)
C=C(CSN(CCC(=O)[O-])Cc1ccc(OC)cc1)c1ccccc1 (3D coordinates assigned)
C=C(CSN(CCC(=O)[O-])Cc1ccc(OC)cc1)c1ccccc1 (optimized conformer: 46.207152433340944 kcal/mol)

>  <smiles>  (33) 
C=C(CSN(CCC(=O)O)Cc1ccc(OC)cc1)c1ccccc1

>  <score_type>  (33) 
oracle

>  <origin>  (33) 
adg

>  <m_score__min__energy>  (33) 
-10.67

>  <m_primary>  (33) 
energy

$$$$
33:0
     RDKit          3D

 49 52  0  0  0  0  0  0  0  0999 V2000
   58.8510   32.2580   50.2900 C   0  0  0  0  0  0  0  0  0  0  0  0
   58.7500   31.6770   48.9940 O   0  0  0  0  0  0  0  0  0  0  0  0
   58.8160   32.3980   47.7890 C   0  0  0  0  0  0  0  0  0  0  0  0
   58.9780   33.7980   47.7710 C   0  0  0  0  0  0  0  0  0  0  0  0
   59.0700   34.4830   46.5570 C   0  0  0  0  0  0  0  0  0  0  0  0
   59.2260   35.8300   46.5490 F   0  0  0  0  0  0  0  0  0  0  0  0
   59.0050   33.7840   45.3510 C   0  0  0  0  0  0  0  0  0  0  0  0
   58.8410   32.3970   45.3540 C   0  0  0  0  0  0  0  0  0  0  0  0
   58.7340   31.6970   46.5670 C   0  0  0  0  0  0  0  0  0  0  0  0
   58.5520   30.2270   46.5430 C   0  0  0  0  0  0  0  0  0  0  0  0
   59.4170   29.4140   47.2910 C   0  0  0  0  0  0  0  0  0  0  0  0
   59.2630   28.0270   47.2940 C   0  0  0  0  0  0  0  0  0  0  0  0
   58.2430   27.4260   46.5390 C   0  0  0  0  0  0  0  0  0  0  0  0
   58.0570   26.0050   46.5060 N   0  0  0  0  0  0  0  0  0  0  0  0
   56.5220   25.1980   46.4650 S   0  0  0  0  0  0  0  0  0  0  0  0
   55.4710   26.1750   46.0210 O   0  0  0  0  0  0  0  0  0  0  0  0
   56.1920   24.7180   47.8500 O   0  0  0  0  0  0  0  0  0  0  0  0
   56.5590   23.8450   45.3260 C   0  0  0  0  0  0  0  0  0  0  0  0
   56.3740   24.0900   43.9570 C   0  0  0  0  0  0  0  0  0  0  0  0
   56.4060   23.0390   43.0370 C   0  0  0  0  0  0  0  0  0  0  0  0
   56.6140   21.7290   43.4710 C   0  0  0  0  0  0  0  0  0  0  0  0
   56.7870   21.4620   44.8350 C   0  0  0  0  0  0  0  0  0  0  0  0
   56.9860   20.1540   45.2940 C   0  0  0  0  0  0  0  0  0  0  0  0
   57.1470   19.9130   46.6600 C   0  0  0  0  0  0  0  0  0  0  0  0
   57.1040   20.9840   47.5550 C   0  0  0  0  0  0  0  0  0  0  0  0
   56.9130   22.2490   47.0960 N   0  0  0  0  0  0  0  0  0  0  0  0
   56.7550   22.5230   45.7710 C   0  0  0  0  0  0  0  0  0  0  0  0
   57.3860   28.2320   45.7820 C   0  0  0  0  0  0  0  0  0  0  0  0
   57.5330   29.6330   45.7700 C   0  0  0  0  0  0  0  0  0  0  0  0
   56.7020   30.4580   44.9920 O   0  0  0  0  0  0  0  0  0  0  0  0
   56.1510   30.0930   43.7310 C   0  0  0  0  0  0  0  0  0  0  0  0
   58.7153   31.4776   51.0533 H   0  0  0  0  0  0  0  0  0  0  0  0
   59.8427   32.7188   50.4090 H   0  0  0  0  0  0  0  0  0  0  0  0
   58.0730   33.0265   50.4090 H   0  0  0  0  0  0  0  0  0  0  0  0
   59.0323   34.3544   48.7183 H   0  0  0  0  0  0  0  0  0  0  0  0
   59.0830   34.3260   44.3970 H   0  0  0  0  0  0  0  0  0  0  0  0
   58.7954   31.8497   44.4009 H   0  0  0  0  0  0  0  0  0  0  0  0
   60.2238   29.8741   47.8804 H   0  0  0  0  0  0  0  0  0  0  0  0
   59.9437   27.4018   47.8905 H   0  0  0  0  0  0  0  0  0  0  0  0
   56.2024   25.1180   43.6051 H   0  0  0  0  0  0  0  0  0  0  0  0
   56.2666   23.2450   41.9655 H   0  0  0  0  0  0  0  0  0  0  0  0
   56.6421   20.9060   42.7417 H   0  0  0  0  0  0  0  0  0  0  0  0
   57.0154   19.3179   44.5798 H   0  0  0  0  0  0  0  0  0  0  0  0
   57.3063   18.8886   47.0277 H   0  0  0  0  0  0  0  0  0  0  0  0
   57.2249   20.8036   48.6333 H   0  0  0  0  0  0  0  0  0  0  0  0
   56.5864   27.7654   45.1880 H   0  0  0  0  0  0  0  0  0  0  0  0
   55.2433   29.4917   43.8877 H   0  0  0  0  0  0  0  0  0  0  0  0
   55.8960   31.0014   43.1655 H   0  0  0  0  0  0  0  0  0  0  0  0
   56.8880   29.5039   43.1655 H   0  0  0  0  0  0  0  0  0  0  0  0
  1  2  1  0
  2  3  1  0
  3  4  2  0
  4  5  1  0
  5  6  1  0
  5  7  2  0
  7  8  1  0
  8  9  2  0
  9 10  1  0
 10 11  2  0
 11 12  1  0
 12 13  2  0
 13 14  1  0
 14 15  1  0
 15 16  2  0
 15 17  2  0
 15 18  1  0
 18 19  2  0
 19 20  1  0
 20 21  2  0
 21 22  1  0
 22 23  2  0
 23 24  1  0
 24 25  2  0
 25 26  1  0
 26 27  2  0
 13 28  1  0
 28 29  2  0
 29 30  1  0
 30 31  1  0
  9  3  1  0
 29 10  1  0
 27 18  1  0
 27 22  1  0
  1 32  1  0
  1 33  1  0
  1 34  1  0
  4 35  1  0
  7 36  1  0
  8 37  1  0
 11 38  1  0
 12 39  1  0
 19 40  1  0
 20 41  1  0
 21 42  1  0
 23 43  1  0
 24 44  1  0
 25 45  1  0
 28 46  1  0
 31 47  1  0
 31 48  1  0
 31 49  1  0
M  CHG  1  14  -1
M  END
>  <UniqueID>  (34) 
32

>  <SMILES>  (34) 
COc1cc(F)ccc1-c1ccc([N-]S(=O)(=O)c2cccc3cccnc23)cc1OC

>  <Energy>  (34) 
67.08132860514255

>  <Genealogy>  (34) 
COc1cc(F)ccc1-c1ccc([N-]S(=O)(=O)c2cccc3cccnc23)cc1OC (protonated)
COc1cc(F)ccc1-c1ccc([N-]S(=O)(=O)c2cccc3cccnc23)cc1OC (3D coordinates assigned)
COc1cc(F)ccc1-c1ccc([N-]S(=O)(=O)c2cccc3cccnc23)cc1OC (optimized conformer: 67.08132860514255 kcal/mol)

>  <smiles>  (34) 
COc1cc(F)ccc1-c1ccc(NS(=O)(=O)c2cccc3cccnc23)cc1OC

>  <score_type>  (34) 
oracle

>  <origin>  (34) 
adg

>  <m_score__min__energy>  (34) 
-10.470000000000001

>  <m_primary>  (34) 
energy

$$$$
34:0
     RDKit          3D

 36 38  0  0  0  0  0  0  0  0999 V2000
   59.5200   32.8760   45.9860 C   0  0  0  0  0  0  0  0  0  0  0  0
   58.4560   31.8960   45.7400 N   0  0  0  0  0  0  0  0  0  0  0  0
   57.1950   32.3250   45.2000 C   0  0  0  0  0  0  0  0  0  0  0  0
   56.8980   33.5480   45.1350 O   0  0  0  0  0  0  0  0  0  0  0  0
   56.2530   31.3470   44.7690 N   0  0  0  0  0  0  0  0  0  0  0  0
   56.6580   29.9580   44.5940 C   0  0  0  0  0  0  0  0  0  0  0  0
   57.6680   29.5450   45.6450 C   0  0  0  0  0  0  0  0  0  0  0  0
   57.8040   28.1900   46.0300 C   0  0  0  0  0  0  0  0  0  0  0  0
   56.9120   27.1780   45.5460 N   0  0  0  0  0  0  0  0  0  0  0  0
   56.5470   26.0460   46.3420 C   0  0  0  0  0  0  0  0  0  0  0  0
   56.9980   25.9220   47.5140 O   0  0  0  0  0  0  0  0  0  0  0  0
   55.7120   25.0290   45.7770 N   0  0  0  0  0  0  0  0  0  0  0  0
   56.1660   23.9230   44.9860 C   0  0  0  0  0  0  0  0  0  0  0  0
   55.5720   23.7040   43.7360 C   0  0  0  0  0  0  0  0  0  0  0  0
   55.9760   22.6290   42.9380 C   0  0  0  0  0  0  0  0  0  0  0  0
   56.9630   21.7510   43.3940 C   0  0  0  0  0  0  0  0  0  0  0  0
   57.3510   20.7060   42.6220 F   0  0  0  0  0  0  0  0  0  0  0  0
   57.5380   21.9410   44.6540 C   0  0  0  0  0  0  0  0  0  0  0  0
   57.1390   23.0170   45.4550 C   0  0  0  0  0  0  0  0  0  0  0  0
   57.6590   23.1310   46.7030 F   0  0  0  0  0  0  0  0  0  0  0  0
   58.8450   27.8090   46.8850 C   0  0  0  0  0  0  0  0  0  0  0  0
   59.7340   28.7580   47.3810 C   0  0  0  0  0  0  0  0  0  0  0  0
   59.6080   30.0980   47.0160 C   0  0  0  0  0  0  0  0  0  0  0  0
   58.5910   30.5070   46.1300 C   0  0  0  0  0  0  0  0  0  0  0  0
   59.6580   33.0031   47.0699 H   0  0  0  0  0  0  0  0  0  0  0  0
   60.4583   32.5192   45.5363 H   0  0  0  0  0  0  0  0  0  0  0  0
   59.2414   33.8404   45.5363 H   0  0  0  0  0  0  0  0  0  0  0  0
   55.7710   29.3126   44.6757 H   0  0  0  0  0  0  0  0  0  0  0  0
   57.1240   29.8534   43.6031 H   0  0  0  0  0  0  0  0  0  0  0  0
   56.6930   27.1570   44.5240 H   0  0  0  0  0  0  0  0  0  0  0  0
   54.7826   24.3822   43.3800 H   0  0  0  0  0  0  0  0  0  0  0  0
   55.5165   22.4744   41.9506 H   0  0  0  0  0  0  0  0  0  0  0  0
   58.3064   21.2426   45.0170 H   0  0  0  0  0  0  0  0  0  0  0  0
   58.9611   26.7521   47.1668 H   0  0  0  0  0  0  0  0  0  0  0  0
   60.5394   28.4498   48.0638 H   0  0  0  0  0  0  0  0  0  0  0  0
   60.3083   30.8422   47.4231 H   0  0  0  0  0  0  0  0  0  0  0  0
  1  2  1  0
  2  3  1  0
  3  4  2  0
  3  5  1  0
  5  6  1  0
  6  7  1  0
  7  8  2  0
  8  9  1  0
  9 10  1  0
 10 11  2  0
 10 12  1  0
 12 13  1  0
 13 14  2  0
 14 15  1  0
 15 16  2  0
 16 17  1  0
 16 18  1  0
 18 19  2  0
 19 20  1  0
  8 21  1  0
 21 22  2  0
 22 23  1  0
 23 24  2  0
 24  2  1  0
 24  7  1  0
 19 13  1  0
  1 25  1  0
  1 26  1  0
  1 27  1  0
  6 28  1  0
  6 29  1  0
  9 30  1  0
 14 31  1  0
 15 32  1  0
 18 33  1  0
 21 34  1  0
 22 35  1  0
 23 36  1  0
M  CHG  2   5  -1  12  -1
M  END
>  <UniqueID>  (35) 
33

>  <SMILES>  (35) 
CN1C(=O)[N-]Cc2c(NC(=O)[N-]c3ccc(F)cc3F)cccc21

>  <Energy>  (35) 
54.380098328289044

>  <Genealogy>  (35) 
CN1C(=O)[N-]Cc2c(NC(=O)[N-]c3ccc(F)cc3F)cccc21 (protonated)
CN1C(=O)[N-]Cc2c(NC(=O)[N-]c3ccc(F)cc3F)cccc21 (3D coordinates assigned)
CN1C(=O)[N-]Cc2c(NC(=O)[N-]c3ccc(F)cc3F)cccc21 (nonaromatic ring conformer: 54.380098328289044 kcal/mol)

>  <smiles>  (35) 
CN1C(=O)NCc2c(NC(=O)Nc3ccc(F)cc3F)cccc21

>  <score_type>  (35) 
oracle

>  <origin>  (35) 
adg

>  <m_score__min__energy>  (35) 
-9.9499999999999993

>  <m_primary>  (35) 
energy

$$$$
35:0
     RDKit          3D

 72 75  0  0  0  0  0  0  0  0999 V2000
   62.2160   33.8400   46.3940 C   0  0  0  0  0  0  0  0  0  0  0  0
   63.6360   33.5150   46.8620 C   0  0  0  0  0  0  0  0  0  0  0  0
   63.7420   32.1380   47.5400 C   0  0  0  0  0  0  0  0  0  0  0  0
   62.3840   31.5400   47.9450 C   0  0  0  0  0  0  0  0  0  0  0  0
   62.1130   31.7950   49.3840 N   0  0  0  0  0  0  0  0  0  0  0  0
   61.5090   33.1270   49.6150 C   0  0  0  0  0  0  0  0  0  0  0  0
   60.8590   33.2770   51.0070 C   0  0  0  0  0  0  0  0  0  0  0  0
   59.4090   33.7640   50.8840 C   0  0  0  0  0  0  0  0  0  0  0  0
   58.7350   33.8420   52.2490 C   0  0  0  0  0  0  0  0  0  0  0  0
   63.2860   31.5510   50.2550 C   0  0  0  0  0  0  0  0  0  0  0  0
   62.8820   30.7910   51.5280 C   0  0  0  0  0  0  0  0  0  0  0  0
   62.5360   29.3120   51.2560 C   0  0  0  0  0  0  0  0  0  0  0  0
   61.4990   29.1220   50.2240 N   0  0  0  0  0  0  0  0  0  0  0  0
   60.1970   29.5810   50.6580 C   0  0  0  0  0  0  0  0  0  0  0  0
   59.7940   29.3680   51.9900 C   0  0  0  0  0  0  0  0  0  0  0  0
   58.5770   29.8680   52.4560 C   0  0  0  0  0  0  0  0  0  0  0  0
   57.7450   30.5950   51.6040 C   0  0  0  0  0  0  0  0  0  0  0  0
   58.1250   30.8140   50.2800 C   0  0  0  0  0  0  0  0  0  0  0  0
   59.3270   30.2890   49.7870 C   0  0  0  0  0  0  0  0  0  0  0  0
   59.7040   30.6050   48.4410 N   0  0  0  0  0  0  0  0  0  0  0  0
   59.0050   30.6800   47.3360 C   0  0  0  0  0  0  0  0  0  0  0  0
   58.5350   29.4570   46.7940 C   0  0  0  0  0  0  0  0  0  0  0  0
   58.9130   28.2040   47.3310 C   0  0  0  0  0  0  0  0  0  0  0  0
   58.3910   27.0170   46.8080 C   0  0  0  0  0  0  0  0  0  0  0  0
   57.4820   27.0550   45.7520 C   0  0  0  0  0  0  0  0  0  0  0  0
   57.0940   28.2820   45.2100 C   0  0  0  0  0  0  0  0  0  0  0  0
   57.6150   29.4770   45.7220 C   0  0  0  0  0  0  0  0  0  0  0  0
   57.2140   30.6540   45.1900 N   0  0  0  0  0  0  0  0  0  0  0  0
   57.6910   31.8450   45.6230 C   0  0  0  0  0  0  0  0  0  0  0  0
   57.2600   33.0120   44.9790 C   0  0  0  0  0  0  0  0  0  0  0  0
   57.7860   34.2500   45.3390 C   0  0  0  0  0  0  0  0  0  0  0  0
   58.7650   34.3270   46.3270 C   0  0  0  0  0  0  0  0  0  0  0  0
   59.2050   33.1710   46.9790 C   0  0  0  0  0  0  0  0  0  0  0  0
   58.6390   31.9050   46.6840 C   0  0  0  0  0  0  0  0  0  0  0  0
   61.5665   33.9887   47.2692 H   0  0  0  0  0  0  0  0  0  0  0  0
   62.2307   34.7580   45.7882 H   0  0  0  0  0  0  0  0  0  0  0  0
   61.8299   33.0070   45.7882 H   0  0  0  0  0  0  0  0  0  0  0  0
   64.3052   33.5289   45.9891 H   0  0  0  0  0  0  0  0  0  0  0  0
   63.9197   34.2728   47.6072 H   0  0  0  0  0  0  0  0  0  0  0  0
   64.2321   31.4441   46.8413 H   0  0  0  0  0  0  0  0  0  0  0  0
   64.3188   32.2800   48.4658 H   0  0  0  0  0  0  0  0  0  0  0  0
   61.5899   32.0014   47.3395 H   0  0  0  0  0  0  0  0  0  0  0  0
   62.4076   30.4537   47.7738 H   0  0  0  0  0  0  0  0  0  0  0  0
   62.2967   33.8882   49.5150 H   0  0  0  0  0  0  0  0  0  0  0  0
   60.7094   33.2525   48.8701 H   0  0  0  0  0  0  0  0  0  0  0  0
   60.8696   32.3022   51.5165 H   0  0  0  0  0  0  0  0  0  0  0  0
   61.4312   34.0182   51.5843 H   0  0  0  0  0  0  0  0  0  0  0  0
   59.4041   34.7632   50.4240 H   0  0  0  0  0  0  0  0  0  0  0  0
   58.8529   33.0473   50.2618 H   0  0  0  0  0  0  0  0  0  0  0  0
   59.4954   33.7540   53.0390 H   0  0  0  0  0  0  0  0  0  0  0  0
   58.2149   34.8063   52.3465 H   0  0  0  0  0  0  0  0  0  0  0  0
   58.0084   33.0220   52.3465 H   0  0  0  0  0  0  0  0  0  0  0  0
   64.0269   30.9557   49.7012 H   0  0  0  0  0  0  0  0  0  0  0  0
   63.7111   32.5222   50.5483 H   0  0  0  0  0  0  0  0  0  0  0  0
   63.7181   30.8310   52.2417 H   0  0  0  0  0  0  0  0  0  0  0  0
   61.9793   31.2741   51.9302 H   0  0  0  0  0  0  0  0  0  0  0  0
   63.4506   28.7969   50.9272 H   0  0  0  0  0  0  0  0  0  0  0  0
   62.1338   28.9000   52.1933 H   0  0  0  0  0  0  0  0  0  0  0  0
   61.7830   29.6480   49.3700 H   0  0  0  0  0  0  0  0  0  0  0  0
   61.4640   28.1180   49.9340 H   0  0  0  0  0  0  0  0  0  0  0  0
   60.4456   28.8011   52.6712 H   0  0  0  0  0  0  0  0  0  0  0  0
   58.2730   29.6884   53.4978 H   0  0  0  0  0  0  0  0  0  0  0  0
   56.7903   30.9951   51.9761 H   0  0  0  0  0  0  0  0  0  0  0  0
   57.4753   31.4041   49.6169 H   0  0  0  0  0  0  0  0  0  0  0  0
   59.6249   28.1631   48.1686 H   0  0  0  0  0  0  0  0  0  0  0  0
   58.6988   26.0496   47.2315 H   0  0  0  0  0  0  0  0  0  0  0  0
   57.0706   26.1191   45.3459 H   0  0  0  0  0  0  0  0  0  0  0  0
   56.3759   28.3102   44.3772 H   0  0  0  0  0  0  0  0  0  0  0  0
   56.5018   32.9500   44.1845 H   0  0  0  0  0  0  0  0  0  0  0  0
   57.4292   35.1653   44.8442 H   0  0  0  0  0  0  0  0  0  0  0  0
   59.1946   35.3033   46.5959 H   0  0  0  0  0  0  0  0  0  0  0  0
   60.0028   33.2450   47.7327 H   0  0  0  0  0  0  0  0  0  0  0  0
  1  2  1  0
  2  3  1  0
  3  4  1  0
  4  5  1  0
  5  6  1  0
  6  7  1  0
  7  8  1  0
  8  9  1  0
  5 10  1  0
 10 11  1  0
 11 12  1  0
 12 13  1  0
 13 14  1  0
 14 15  2  0
 15 16  1  0
 16 17  2  0
 17 18  1  0
 18 19  2  0
 19 20  1  0
 20 21  2  3
 21 22  1  0
 22 23  2  0
 23 24  1  0
 24 25  2  0
 25 26  1  0
 26 27  2  0
 27 28  1  0
 28 29  1  0
 29 30  2  0
 30 31  1  0
 31 32  2  0
 32 33  1  0
 33 34  2  0
 19 14  1  0
 34 21  1  0
 27 22  1  0
 34 29  1  0
  1 35  1  0
  1 36  1  0
  1 37  1  0
  2 38  1  0
  2 39  1  0
  3 40  1  0
  3 41  1  0
  4 42  1  0
  4 43  1  0
  6 44  1  0
  6 45  1  0
  7 46  1  0
  7 47  1  0
  8 48  1  0
  8 49  1  0
  9 50  1  0
  9 51  1  0
  9 52  1  0
 10 53  1  0
 10 54  1  0
 11 55  1  0
 11 56  1  0
 12 57  1  0
 12 58  1  0
 13 59  1  0
 13 60  1  0
 15 61  1  0
 16 62  1  0
 17 63  1  0
 18 64  1  0
 23 65  1  0
 24 66  1  0
 25 67  1  0
 26 68  1  0
 30 69  1  0
 31 70  1  0
 32 71  1  0
 33 72  1  0
M  CHG  2  13   1  28  -1
M  END
>  <UniqueID>  (36) 
34

>  <SMILES>  (36) 
CCCCN(CCCC)CCC[NH2+]c1ccccc1N=c1c2ccccc2[n-]c2ccccc12

>  <Energy>  (36) 
98.35242985070145

>  <Genealogy>  (36) 
CCCCN(CCCC)CCC[NH2+]c1ccccc1N=c1c2ccccc2[n-]c2ccccc12 (protonated)
CCCCN(CCCC)CCC[NH2+]c1ccccc1N=c1c2ccccc2[n-]c2ccccc12 (3D coordinates assigned)
CCCCN(CCCC)CCC[NH2+]c1ccccc1N=c1c2ccccc2[n-]c2ccccc12 (optimized conformer: 98.35242985070145 kcal/mol)

>  <smiles>  (36) 
CCCCN(CCCC)CCCNc1ccccc1N=c1c2ccccc2[nH]c2ccccc12

>  <score_type>  (36) 
oracle

>  <origin>  (36) 
adg

>  <m_score__min__energy>  (36) 
-8.2400000000000002

>  <m_primary>  (36) 
energy

$$$$
36:0
     RDKit          3D

 47 49  0  0  0  0  0  0  0  0999 V2000
   55.4110   29.7270   43.3750 C   0  0  0  0  0  0  0  0  0  0  0  0
   55.4630   28.9940   44.5950 O   0  0  0  0  0  0  0  0  0  0  0  0
   56.6470   28.6710   45.2770 C   0  0  0  0  0  0  0  0  0  0  0  0
   57.7740   29.5140   45.2600 C   0  0  0  0  0  0  0  0  0  0  0  0
   58.9330   29.1580   45.9510 C   0  0  0  0  0  0  0  0  0  0  0  0
   58.9920   27.9530   46.6620 C   0  0  0  0  0  0  0  0  0  0  0  0
   60.2340   27.5930   47.4380 C   0  0  0  0  0  0  0  0  0  0  0  0
   60.0220   27.7970   48.9520 C   0  0  1  0  0  0  0  0  0  0  0  0
   61.0970   27.1430   49.8120 C   0  0  0  0  0  0  0  0  0  0  0  0
   61.2830   27.9080   50.9840 O   0  0  0  0  0  0  0  0  0  0  0  0
   60.5540   29.1070   50.8330 C   0  0  0  0  0  0  0  0  0  0  0  0
   60.1360   29.2430   49.3770 C   0  0  2  0  0  0  0  0  0  0  0  0
   58.8890   30.1300   49.1370 C   0  0  0  0  0  0  0  0  0  0  0  0
   59.1440   31.4100   48.3750 C   0  0  0  0  0  0  0  0  0  0  0  0
   60.3200   32.1430   48.5960 C   0  0  0  0  0  0  0  0  0  0  0  0
   60.5620   33.3230   47.8890 C   0  0  0  0  0  0  0  0  0  0  0  0
   59.6270   33.7920   46.9610 C   0  0  0  0  0  0  0  0  0  0  0  0
   59.9660   35.2810   46.0880 Cl  0  0  0  0  0  0  0  0  0  0  0  0
   58.4370   33.0770   46.7460 C   0  0  0  0  0  0  0  0  0  0  0  0
   57.2310   33.6380   45.5970 Cl  0  0  0  0  0  0  0  0  0  0  0  0
   58.1980   31.8940   47.4560 C   0  0  0  0  0  0  0  0  0  0  0  0
   57.8680   27.1130   46.6880 C   0  0  0  0  0  0  0  0  0  0  0  0
   56.6940   27.4650   45.9950 C   0  0  0  0  0  0  0  0  0  0  0  0
   55.5530   26.6470   46.0000 O   0  0  0  0  0  0  0  0  0  0  0  0
   55.5640   25.2440   45.7590 C   0  0  0  0  0  0  0  0  0  0  0  0
   55.3347   30.8019   43.5960 H   0  0  0  0  0  0  0  0  0  0  0  0
   56.3249   29.5362   42.7934 H   0  0  0  0  0  0  0  0  0  0  0  0
   54.5332   29.4091   42.7934 H   0  0  0  0  0  0  0  0  0  0  0  0
   57.7410   30.4593   44.6985 H   0  0  0  0  0  0  0  0  0  0  0  0
   59.8054   29.8279   45.9371 H   0  0  0  0  0  0  0  0  0  0  0  0
   60.4825   26.5382   47.2490 H   0  0  0  0  0  0  0  0  0  0  0  0
   61.0537   28.2485   47.1088 H   0  0  0  0  0  0  0  0  0  0  0  0
   59.0209   27.3660   49.1005 H   0  0  0  0  0  0  0  0  0  0  0  0
   60.7819   26.1247   50.0835 H   0  0  0  0  0  0  0  0  0  0  0  0
   62.0409   27.0934   49.2494 H   0  0  0  0  0  0  0  0  0  0  0  0
   59.6603   29.0801   51.4738 H   0  0  0  0  0  0  0  0  0  0  0  0
   61.1778   29.9645   51.1257 H   0  0  0  0  0  0  0  0  0  0  0  0
   60.8533   29.8038   48.7597 H   0  0  0  0  0  0  0  0  0  0  0  0
   58.1547   29.5380   48.5710 H   0  0  0  0  0  0  0  0  0  0  0  0
   58.5358   30.4343   50.1333 H   0  0  0  0  0  0  0  0  0  0  0  0
   61.0563   31.7858   49.3311 H   0  0  0  0  0  0  0  0  0  0  0  0
   61.4913   33.8853   48.0628 H   0  0  0  0  0  0  0  0  0  0  0  0
   57.2622   31.3393   47.2929 H   0  0  0  0  0  0  0  0  0  0  0  0
   57.9046   26.1711   47.2549 H   0  0  0  0  0  0  0  0  0  0  0  0
   55.5682   24.7071   46.7190 H   0  0  0  0  0  0  0  0  0  0  0  0
   54.6680   24.9634   45.1859 H   0  0  0  0  0  0  0  0  0  0  0  0
   56.4643   24.9775   45.1859 H   0  0  0  0  0  0  0  0  0  0  0  0
  1  2  1  0
  2  3  1  0
  3  4  2  0
  4  5  1  0
  5  6  2  0
  6  7  1  0
  7  8  1  0
  8  9  1  0
  9 10  1  0
 10 11  1  0
 11 12  1  0
 12 13  1  0
 13 14  1  0
 14 15  2  0
 15 16  1  0
 16 17  2  0
 17 18  1  0
 17 19  1  0
 19 20  1  0
 19 21  2  0
  6 22  1  0
 22 23  2  0
 23 24  1  0
 24 25  1  0
 23  3  1  0
 12  8  1  0
 21 14  1  0
  1 26  1  0
  1 27  1  0
  1 28  1  0
  4 29  1  0
  5 30  1  0
  7 31  1  0
  7 32  1  0
  8 33  1  1
  9 34  1  0
  9 35  1  0
 11 36  1  0
 11 37  1  0
 12 38  1  6
 13 39  1  0
 13 40  1  0
 15 41  1  0
 16 42  1  0
 21 43  1  0
 22 44  1  0
 25 45  1  0
 25 46  1  0
 25 47  1  0
M  END
>  <UniqueID>  (37) 
35

>  <SMILES>  (37) 
COc1ccc(C[C@H]2COC[C@@H]2Cc2ccc(Cl)c(Cl)c2)cc1OC

>  <Energy>  (37) 
47.04544898327104

>  <Genealogy>  (37) 
COc1ccc(C[C@H]2COC[C@@H]2Cc2ccc(Cl)c(Cl)c2)cc1OC (chirality)
COc1ccc(C[C@H]2COC[C@@H]2Cc2ccc(Cl)c(Cl)c2)cc1OC (3D coordinates assigned)
COc1ccc(C[C@H]2COC[C@@H]2Cc2ccc(Cl)c(Cl)c2)cc1OC (nonaromatic ring conformer: 47.04544898327104 kcal/mol)

>  <smiles>  (37) 
COc1ccc(CC2COCC2Cc2ccc(Cl)c(Cl)c2)cc1OC

>  <score_type>  (37) 
oracle

>  <origin>  (37) 
adg

>  <m_score__min__energy>  (37) 
-8.3100000000000005

>  <m_primary>  (37) 
energy

$$$$
37:0
     RDKit          3D

 27 27  0  0  0  0  0  0  0  0999 V2000
   61.0620   28.5840   44.8900 C   0  0  0  0  0  0  0  0  0  0  0  0
   59.7120   28.9330   45.5180 C   0  0  0  0  0  0  0  0  0  0  0  0
   58.6040   29.2130   44.4710 C   0  0  1  0  0  0  0  0  0  0  0  0
   58.1480   27.8880   43.8340 C   0  0  0  0  0  0  0  0  0  0  0  0
   57.4230   30.0590   45.0400 C   0  0  2  0  0  0  0  0  0  0  0  0
   56.1060   29.8530   44.3220 C   0  0  0  0  0  0  0  0  0  0  0  0
   55.1480   29.3410   44.8790 O   0  0  0  0  0  0  0  0  0  0  0  0
   57.7770   31.4860   45.1360 N   0  0  0  0  0  0  0  0  0  0  0  0
   57.7470   32.3580   44.1090 C   0  0  0  0  0  0  0  0  0  0  0  0
   58.0730   33.6220   44.5520 C   0  0  0  0  0  0  0  0  0  0  0  0
   58.3000   33.5180   45.9090 C   0  0  0  0  0  0  0  0  0  0  0  0
   58.1050   32.1930   46.2410 C   0  0  0  0  0  0  0  0  0  0  0  0
   61.7980   28.3937   45.6850 H   0  0  0  0  0  0  0  0  0  0  0  0
   60.9547   27.6841   44.2666 H   0  0  0  0  0  0  0  0  0  0  0  0
   61.4043   29.4232   44.2666 H   0  0  0  0  0  0  0  0  0  0  0  0
   59.3918   28.0905   46.1486 H   0  0  0  0  0  0  0  0  0  0  0  0
   59.8517   29.8560   46.0999 H   0  0  0  0  0  0  0  0  0  0  0  0
   59.0320   29.8446   43.6786 H   0  0  0  0  0  0  0  0  0  0  0  0
   57.8997   27.1666   44.6264 H   0  0  0  0  0  0  0  0  0  0  0  0
   57.2599   28.0676   43.2102 H   0  0  0  0  0  0  0  0  0  0  0  0
   58.9585   27.4830   43.2102 H   0  0  0  0  0  0  0  0  0  0  0  0
   57.2554   29.6772   46.0579 H   0  0  0  0  0  0  0  0  0  0  0  0
   56.0102   30.1722   43.2737 H   0  0  0  0  0  0  0  0  0  0  0  0
   57.4987   32.0990   43.0692 H   0  0  0  0  0  0  0  0  0  0  0  0
   58.1392   34.5354   43.9426 H   0  0  0  0  0  0  0  0  0  0  0  0
   58.5815   34.3324   46.5927 H   0  0  0  0  0  0  0  0  0  0  0  0
   58.2019   31.7743   47.2536 H   0  0  0  0  0  0  0  0  0  0  0  0
  1  2  1  0
  2  3  1  0
  3  4  1  0
  3  5  1  0
  5  6  1  0
  6  7  2  0
  5  8  1  0
  8  9  1  0
  9 10  2  0
 10 11  1  0
 11 12  2  0
 12  8  1  0
  1 13  1  0
  1 14  1  0
  1 15  1  0
  2 16  1  0
  2 17  1  0
  3 18  1  6
  4 19  1  0
  4 20  1  0
  4 21  1  0
  5 22  1  1
  6 23  1  0
  9 24  1  0
 10 25  1  0
 11 26  1  0
 12 27  1  0
M  END
>  <UniqueID>  (38) 
36

>  <SMILES>  (38) 
CC[C@@H](C)[C@H](C=O)n1cccc1

>  <Energy>  (38) 
47.40686966528496

>  <Genealogy>  (38) 
CC[C@@H](C)[C@H](C=O)n1cccc1 (chirality)
CC[C@@H](C)[C@H](C=O)n1cccc1 (3D coordinates assigned)
CC[C@@H](C)[C@H](C=O)n1cccc1 (optimized conformer: 47.40686966528496 kcal/mol)

>  <smiles>  (38) 
CCC(C)C(C=O)n1cccc1

>  <score_type>  (38) 
oracle

>  <origin>  (38) 
adg

>  <m_score__min__energy>  (38) 
-5.0499999999999998

>  <m_primary>  (38) 
energy

$$$$
38:0
     RDKit          3D

 35 37  0  0  0  0  0  0  0  0999 V2000
   62.8370   34.4170   49.0690 C   0  0  0  0  0  0  0  0  0  0  0  0
   63.1450   33.5310   47.5590 S   0  0  0  0  0  0  0  0  0  0  0  0
   63.6940   34.4740   46.5250 O   0  0  0  0  0  0  0  0  0  0  0  0
   64.1570   32.4470   47.8080 O   0  0  0  0  0  0  0  0  0  0  0  0
   61.6420   32.8210   46.9800 C   0  0  0  0  0  0  0  0  0  0  0  0
   60.6320   33.6390   46.4580 C   0  0  0  0  0  0  0  0  0  0  0  0
   59.4320   33.0780   46.0100 C   0  0  0  0  0  0  0  0  0  0  0  0
   59.2290   31.6890   46.0760 C   0  0  0  0  0  0  0  0  0  0  0  0
   57.9610   31.0850   45.6060 C   0  0  0  0  0  0  0  0  0  0  0  0
   56.9430   31.7550   44.9460 C   0  0  0  0  0  0  0  0  0  0  0  0
   55.9950   30.9090   44.6110 O   0  0  0  0  0  0  0  0  0  0  0  0
   56.3420   29.7140   45.0230 C   0  0  0  0  0  0  0  0  0  0  0  0
   55.5550   28.5830   44.8520 O   0  0  0  0  0  0  0  0  0  0  0  0
   57.5660   29.7520   45.6610 C   0  0  0  0  0  0  0  0  0  0  0  0
   58.2440   28.6150   46.3200 C   0  0  0  0  0  0  0  0  0  0  0  0
   58.5420   27.4590   45.5810 C   0  0  0  0  0  0  0  0  0  0  0  0
   59.1890   26.3800   46.1890 C   0  0  0  0  0  0  0  0  0  0  0  0
   59.5370   26.4430   47.5400 C   0  0  0  0  0  0  0  0  0  0  0  0
   59.2330   27.5830   48.2880 C   0  0  0  0  0  0  0  0  0  0  0  0
   58.5840   28.6660   47.6850 C   0  0  0  0  0  0  0  0  0  0  0  0
   58.2630   29.7460   48.4410 F   0  0  0  0  0  0  0  0  0  0  0  0
   60.2360   30.8760   46.6230 C   0  0  0  0  0  0  0  0  0  0  0  0
   61.4350   31.4390   47.0700 C   0  0  0  0  0  0  0  0  0  0  0  0
   63.0627   33.7676   49.9277 H   0  0  0  0  0  0  0  0  0  0  0  0
   63.4772   35.3107   49.1068 H   0  0  0  0  0  0  0  0  0  0  0  0
   61.7805   34.7209   49.1068 H   0  0  0  0  0  0  0  0  0  0  0  0
   60.7833   34.7270   46.4002 H   0  0  0  0  0  0  0  0  0  0  0  0
   58.6426   33.7275   45.6037 H   0  0  0  0  0  0  0  0  0  0  0  0
   56.9305   32.8343   44.7341 H   0  0  0  0  0  0  0  0  0  0  0  0
   58.2647   27.4024   44.5180 H   0  0  0  0  0  0  0  0  0  0  0  0
   59.4246   25.4796   45.6026 H   0  0  0  0  0  0  0  0  0  0  0  0
   60.0508   25.5945   48.0154 H   0  0  0  0  0  0  0  0  0  0  0  0
   59.5044   27.6293   49.3530 H   0  0  0  0  0  0  0  0  0  0  0  0
   60.0800   29.7898   46.7000 H   0  0  0  0  0  0  0  0  0  0  0  0
   62.2187   30.7940   47.4940 H   0  0  0  0  0  0  0  0  0  0  0  0
  1  2  1  0
  2  3  2  0
  2  4  2  0
  2  5  1  0
  5  6  2  0
  6  7  1  0
  7  8  2  0
  8  9  1  0
  9 10  2  0
 10 11  1  0
 11 12  1  0
 12 13  1  0
 12 14  2  0
 14 15  1  0
 15 16  2  0
 16 17  1  0
 17 18  2  0
 18 19  1  0
 19 20  2  0
 20 21  1  0
  8 22  1  0
 22 23  2  0
 23  5  1  0
 14  9  1  0
 20 15  1  0
  1 24  1  0
  1 25  1  0
  1 26  1  0
  6 27  1  0
  7 28  1  0
 10 29  1  0
 16 30  1  0
 17 31  1  0
 18 32  1  0
 19 33  1  0
 22 34  1  0
 23 35  1  0
M  CHG  1  13  -1
M  END
>  <UniqueID>  (39) 
37

>  <SMILES>  (39) 
CS(=O)(=O)c1ccc(-c2coc([O-])c2-c2ccccc2F)cc1

>  <Energy>  (39) 
72.17745226883265

>  <Genealogy>  (39) 
CS(=O)(=O)c1ccc(-c2coc([O-])c2-c2ccccc2F)cc1 (protonated)
CS(=O)(=O)c1ccc(-c2coc([O-])c2-c2ccccc2F)cc1 (3D coordinates assigned)
CS(=O)(=O)c1ccc(-c2coc([O-])c2-c2ccccc2F)cc1 (optimized conformer: 72.17745226883265 kcal/mol)

>  <smiles>  (39) 
CS(=O)(=O)c1ccc(-c2coc(O)c2-c2ccccc2F)cc1

>  <score_type>  (39) 
oracle

>  <origin>  (39) 
adg

>  <m_score__min__energy>  (39) 
-9.6199999999999992

>  <m_primary>  (39) 
energy

$$$$
39:0
     RDKit          3D

 39 40  0  0  0  0  0  0  0  0999 V2000
   60.3910   25.8120   46.2920 C   0  0  0  0  0  0  0  0  0  0  0  0
   59.3230   26.7840   45.8870 C   0  0  0  0  0  0  0  0  0  0  0  0
   59.5780   27.7410   44.8930 C   0  0  0  0  0  0  0  0  0  0  0  0
   58.5980   28.6760   44.5470 C   0  0  0  0  0  0  0  0  0  0  0  0
   57.3620   28.6860   45.2110 C   0  0  0  0  0  0  0  0  0  0  0  0
   56.3210   29.6710   44.8570 C   0  0  0  0  0  0  0  0  0  0  0  0
   55.1470   29.2690   44.6480 O   0  0  0  0  0  0  0  0  0  0  0  0
   56.5980   31.0740   44.7420 N   0  0  0  0  0  0  0  0  0  0  0  0
   57.8590   31.6770   44.3110 C   0  0  0  0  0  0  0  0  0  0  0  0
   58.6010   32.3190   45.5010 C   0  0  2  0  0  0  0  0  0  0  0  0
   59.1230   31.2800   46.4720 C   0  0  0  0  0  0  0  0  0  0  0  0
   60.3890   30.7190   46.4880 C   0  0  0  0  0  0  0  0  0  0  0  0
   60.3820   29.8130   47.5260 C   0  0  0  0  0  0  0  0  0  0  0  0
   59.1200   29.8720   48.0770 C   0  0  0  0  0  0  0  0  0  0  0  0
   58.3930   30.7520   47.4280 O   0  0  0  0  0  0  0  0  0  0  0  0
   57.7670   33.3610   46.1600 N   0  0  0  0  0  0  0  0  0  0  0  0
   58.5030   34.2170   47.1100 C   0  0  0  0  0  0  0  0  0  0  0  0
   57.0610   34.1940   45.1730 C   0  0  0  0  0  0  0  0  0  0  0  0
   57.1030   27.7190   46.1950 C   0  0  0  0  0  0  0  0  0  0  0  0
   58.0820   26.7840   46.5420 C   0  0  0  0  0  0  0  0  0  0  0  0
   60.4450   25.7629   47.3896 H   0  0  0  0  0  0  0  0  0  0  0  0
   60.1511   24.8159   45.8917 H   0  0  0  0  0  0  0  0  0  0  0  0
   61.3602   26.1444   45.8917 H   0  0  0  0  0  0  0  0  0  0  0  0
   60.5530   27.7556   44.3839 H   0  0  0  0  0  0  0  0  0  0  0  0
   58.7969   29.4077   43.7501 H   0  0  0  0  0  0  0  0  0  0  0  0
   58.4968   30.8983   43.8674 H   0  0  0  0  0  0  0  0  0  0  0  0
   57.6375   32.4614   43.5723 H   0  0  0  0  0  0  0  0  0  0  0  0
   59.4892   32.8315   45.1031 H   0  0  0  0  0  0  0  0  0  0  0  0
   61.2261   30.9489   45.8125 H   0  0  0  0  0  0  0  0  0  0  0  0
   61.2153   29.1720   47.8496 H   0  0  0  0  0  0  0  0  0  0  0  0
   58.7740   29.2722   48.9317 H   0  0  0  0  0  0  0  0  0  0  0  0
   58.2506   33.9234   48.1396 H   0  0  0  0  0  0  0  0  0  0  0  0
   59.5846   34.0973   46.9493 H   0  0  0  0  0  0  0  0  0  0  0  0
   58.2226   35.2684   46.9493 H   0  0  0  0  0  0  0  0  0  0  0  0
   56.4355   34.9320   45.6965 H   0  0  0  0  0  0  0  0  0  0  0  0
   57.7951   34.7170   44.5424 H   0  0  0  0  0  0  0  0  0  0  0  0
   56.4248   33.5555   44.5424 H   0  0  0  0  0  0  0  0  0  0  0  0
   56.1239   27.6970   46.6958 H   0  0  0  0  0  0  0  0  0  0  0  0
   57.8790   26.0454   47.3314 H   0  0  0  0  0  0  0  0  0  0  0  0
  1  2  1  0
  2  3  2  0
  3  4  1  0
  4  5  2  0
  5  6  1  0
  6  7  2  0
  6  8  1  0
  8  9  1  0
  9 10  1  0
 10 11  1  0
 11 12  2  0
 12 13  1  0
 13 14  2  0
 14 15  1  0
 10 16  1  0
 16 17  1  0
 16 18  1  0
  5 19  1  0
 19 20  2  0
 20  2  1  0
 15 11  1  0
  1 21  1  0
  1 22  1  0
  1 23  1  0
  3 24  1  0
  4 25  1  0
  9 26  1  0
  9 27  1  0
 10 28  1  6
 12 29  1  0
 13 30  1  0
 14 31  1  0
 17 32  1  0
 17 33  1  0
 17 34  1  0
 18 35  1  0
 18 36  1  0
 18 37  1  0
 19 38  1  0
 20 39  1  0
M  CHG  1   8  -1
M  END
>  <UniqueID>  (40) 
38

>  <SMILES>  (40) 
Cc1ccc(C(=O)[N-]C[C@H](c2ccco2)N(C)C)cc1

>  <Energy>  (40) 
69.55232125935316

>  <Genealogy>  (40) 
Cc1ccc(C(=O)[N-]CC(c2ccco2)N(C)C)cc1 (protonated)
Cc1ccc(C(=O)[N-]C[C@H](c2ccco2)N(C)C)cc1 (chirality)
Cc1ccc(C(=O)[N-]C[C@H](c2ccco2)N(C)C)cc1 (3D coordinates assigned)
Cc1ccc(C(=O)[N-]C[C@H](c2ccco2)N(C)C)cc1 (optimized conformer: 69.55232125935316 kcal/mol)

>  <smiles>  (40) 
Cc1ccc(C(=O)NCC(c2ccco2)N(C)C)cc1

>  <score_type>  (40) 
oracle

>  <origin>  (40) 
adg

>  <m_score__min__energy>  (40) 
-8.5899999999999999

>  <m_primary>  (40) 
energy

$$$$
40:0
     RDKit          3D

 33 34  0  0  0  0  0  0  0  0999 V2000
   59.5020   27.4520   47.5160 C   0  0  0  0  0  0  0  0  0  0  0  0
   59.3480   27.5360   46.0550 N   0  0  0  0  0  0  0  0  0  0  0  0
   60.2270   28.5840   45.4770 C   0  0  0  0  0  0  0  0  0  0  0  0
   59.4520   29.8550   45.1030 C   0  0  0  0  0  0  0  0  0  0  0  0
   58.4030   29.5680   44.0980 N   0  0  0  0  0  0  0  0  0  0  0  0
   57.2080   30.8440   44.1150 S   0  0  0  0  0  0  0  0  0  0  0  0
   55.9710   30.3780   44.8320 O   0  0  0  0  0  0  0  0  0  0  0  0
   56.8350   31.2150   42.7060 O   0  0  0  0  0  0  0  0  0  0  0  0
   57.8510   32.2510   44.9590 C   0  0  0  0  0  0  0  0  0  0  0  0
   58.4300   33.2960   44.2260 C   0  0  0  0  0  0  0  0  0  0  0  0
   58.9320   34.4230   44.8850 C   0  0  0  0  0  0  0  0  0  0  0  0
   58.8550   34.5120   46.2770 C   0  0  0  0  0  0  0  0  0  0  0  0
   58.2740   33.4750   47.0130 C   0  0  0  0  0  0  0  0  0  0  0  0
   57.7720   32.3460   46.3570 C   0  0  0  0  0  0  0  0  0  0  0  0
   57.7630   28.2360   44.2690 C   0  0  0  0  0  0  0  0  0  0  0  0
   57.9210   27.6940   45.6960 C   0  0  0  0  0  0  0  0  0  0  0  0
   58.6364   27.9241   48.0037 H   0  0  0  0  0  0  0  0  0  0  0  0
   59.5623   26.3961   47.8182 H   0  0  0  0  0  0  0  0  0  0  0  0
   60.4224   27.9730   47.8182 H   0  0  0  0  0  0  0  0  0  0  0  0
   60.9988   28.8452   46.2160 H   0  0  0  0  0  0  0  0  0  0  0  0
   60.6722   28.1788   44.5563 H   0  0  0  0  0  0  0  0  0  0  0  0
   58.9793   30.2659   46.0073 H   0  0  0  0  0  0  0  0  0  0  0  0
   60.1588   30.5787   44.6709 H   0  0  0  0  0  0  0  0  0  0  0  0
   58.8500   29.5910   43.1510 H   0  0  0  0  0  0  0  0  0  0  0  0
   58.4898   33.2296   43.1296 H   0  0  0  0  0  0  0  0  0  0  0  0
   59.3879   35.2401   44.3066 H   0  0  0  0  0  0  0  0  0  0  0  0
   59.2516   35.3982   46.7941 H   0  0  0  0  0  0  0  0  0  0  0  0
   58.2115   33.5469   48.1089 H   0  0  0  0  0  0  0  0  0  0  0  0
   57.3146   31.5314   46.9378 H   0  0  0  0  0  0  0  0  0  0  0  0
   56.6906   28.3268   44.0416 H   0  0  0  0  0  0  0  0  0  0  0  0
   58.2602   27.5329   43.5845 H   0  0  0  0  0  0  0  0  0  0  0  0
   57.4497   28.3954   46.4002 H   0  0  0  0  0  0  0  0  0  0  0  0
   57.4379   26.7072   45.7486 H   0  0  0  0  0  0  0  0  0  0  0  0
  1  2  1  0
  2  3  1  0
  3  4  1  0
  4  5  1  0
  5  6  1  0
  6  7  2  0
  6  8  2  0
  6  9  1  0
  9 10  2  0
 10 11  1  0
 11 12  2  0
 12 13  1  0
 13 14  2  0
  5 15  1  0
 15 16  1  0
 16  2  1  0
 14  9  1  0
  1 17  1  0
  1 18  1  0
  1 19  1  0
  3 20  1  0
  3 21  1  0
  4 22  1  0
  4 23  1  0
  5 24  1  0
 10 25  1  0
 11 26  1  0
 12 27  1  0
 13 28  1  0
 14 29  1  0
 15 30  1  0
 15 31  1  0
 16 32  1  0
 16 33  1  0
M  CHG  1   5   1
M  END
>  <UniqueID>  (41) 
39

>  <SMILES>  (41) 
CN1CC[NH+](S(=O)(=O)c2ccccc2)CC1

>  <Energy>  (41) 
42.15002069335002

>  <Genealogy>  (41) 
CN1CC[NH+](S(=O)(=O)c2ccccc2)CC1 (protonated)
CN1CC[NH+](S(=O)(=O)c2ccccc2)CC1 (3D coordinates assigned)
CN1CC[NH+](S(=O)(=O)c2ccccc2)CC1 (nonaromatic ring conformer: 42.15002069335002 kcal/mol)

>  <smiles>  (41) 
CN1CCN(S(=O)(=O)c2ccccc2)CC1

>  <score_type>  (41) 
oracle

>  <origin>  (41) 
adg

>  <m_score__min__energy>  (41) 
-5.7800000000000002

>  <m_primary>  (41) 
energy

$$$$
41:0
     RDKit          3D

 44 46  0  0  0  0  0  0  0  0999 V2000
   56.9440   24.2270   43.0840 C   0  0  0  0  0  0  0  0  0  0  0  0
   56.4360   22.7850   43.0070 C   0  0  0  0  0  0  0  0  0  0  0  0
   55.9270   22.2640   44.2950 N   0  0  0  0  0  0  0  0  0  0  0  0
   56.8560   21.3490   45.0070 C   0  0  0  0  0  0  0  0  0  0  0  0
   56.2350   20.0230   45.4690 C   0  0  0  0  0  0  0  0  0  0  0  0
   55.2180   23.2720   45.1140 C   0  0  0  0  0  0  0  0  0  0  0  0
   56.0410   23.6450   46.3540 C   0  0  0  0  0  0  0  0  0  0  0  0
   56.9160   24.7910   46.0580 N   0  0  0  0  0  0  0  0  0  0  0  0
   58.2760   24.5920   45.9900 C   0  0  0  0  0  0  0  0  0  0  0  0
   59.1230   25.6320   45.7450 N   0  0  0  0  0  0  0  0  0  0  0  0
   58.6070   26.8690   45.5790 C   0  0  0  0  0  0  0  0  0  0  0  0
   59.4460   28.2840   45.2730 S   0  0  0  0  0  0  0  0  0  0  0  0
   58.0600   29.2690   45.2310 C   0  0  0  0  0  0  0  0  0  0  0  0
   58.0640   30.7350   44.9870 C   0  0  0  0  0  0  0  0  0  0  0  0
   57.9110   31.2390   43.6800 C   0  0  0  0  0  0  0  0  0  0  0  0
   57.9140   32.6180   43.4450 C   0  0  0  0  0  0  0  0  0  0  0  0
   58.0720   33.5100   44.5060 C   0  0  0  0  0  0  0  0  0  0  0  0
   58.2300   33.0260   45.8050 C   0  0  0  0  0  0  0  0  0  0  0  0
   58.2270   31.6480   46.0490 C   0  0  0  0  0  0  0  0  0  0  0  0
   56.9300   28.4680   45.4600 C   0  0  0  0  0  0  0  0  0  0  0  0
   57.2580   27.1200   45.6530 C   0  0  0  0  0  0  0  0  0  0  0  0
   56.3930   26.0540   45.9030 C   0  0  0  0  0  0  0  0  0  0  0  0
   55.1500   26.2570   45.9860 O   0  0  0  0  0  0  0  0  0  0  0  0
   57.0483   24.5232   44.1382 H   0  0  0  0  0  0  0  0  0  0  0  0
   57.9215   24.2986   42.5846 H   0  0  0  0  0  0  0  0  0  0  0  0
   56.2272   24.8954   42.5846 H   0  0  0  0  0  0  0  0  0  0  0  0
   55.6214   22.7427   42.2690 H   0  0  0  0  0  0  0  0  0  0  0  0
   57.2931   22.1570   42.7225 H   0  0  0  0  0  0  0  0  0  0  0  0
   57.6915   21.1168   44.3302 H   0  0  0  0  0  0  0  0  0  0  0  0
   57.1670   21.8771   45.9204 H   0  0  0  0  0  0  0  0  0  0  0  0
   56.2191   19.9889   46.5684 H   0  0  0  0  0  0  0  0  0  0  0  0
   55.2072   19.9459   45.0848 H   0  0  0  0  0  0  0  0  0  0  0  0
   56.8339   19.1841   45.0848 H   0  0  0  0  0  0  0  0  0  0  0  0
   55.0495   24.1747   44.5083 H   0  0  0  0  0  0  0  0  0  0  0  0
   54.2585   22.8465   45.4432 H   0  0  0  0  0  0  0  0  0  0  0  0
   55.3597   23.9108   47.1757 H   0  0  0  0  0  0  0  0  0  0  0  0
   56.6622   22.7849   46.6443 H   0  0  0  0  0  0  0  0  0  0  0  0
   58.6849   23.5812   46.1351 H   0  0  0  0  0  0  0  0  0  0  0  0
   57.7882   30.5424   42.8376 H   0  0  0  0  0  0  0  0  0  0  0  0
   57.7914   33.0001   42.4208 H   0  0  0  0  0  0  0  0  0  0  0  0
   58.0720   34.5939   44.3186 H   0  0  0  0  0  0  0  0  0  0  0  0
   58.3574   33.7302   46.6404 H   0  0  0  0  0  0  0  0  0  0  0  0
   58.3526   31.2747   47.0761 H   0  0  0  0  0  0  0  0  0  0  0  0
   55.9010   28.8560   45.4851 H   0  0  0  0  0  0  0  0  0  0  0  0
  1  2  1  0
  2  3  1  0
  3  4  1  0
  4  5  1  0
  3  6  1  0
  6  7  1  0
  7  8  1  0
  8  9  1  0
  9 10  2  0
 10 11  1  0
 11 12  1  0
 12 13  1  0
 13 14  1  0
 14 15  2  0
 15 16  1  0
 16 17  2  0
 17 18  1  0
 18 19  2  0
 13 20  2  0
 20 21  1  0
 21 22  1  0
 22 23  2  0
 22  8  1  0
 21 11  2  0
 19 14  1  0
  1 24  1  0
  1 25  1  0
  1 26  1  0
  2 27  1  0
  2 28  1  0
  4 29  1  0
  4 30  1  0
  5 31  1  0
  5 32  1  0
  5 33  1  0
  6 34  1  0
  6 35  1  0
  7 36  1  0
  7 37  1  0
  9 38  1  0
 15 39  1  0
 16 40  1  0
 17 41  1  0
 18 42  1  0
 19 43  1  0
 20 44  1  0
M  END
>  <UniqueID>  (42) 
40

>  <SMILES>  (42) 
CCN(CC)CCn1cnc2sc(-c3ccccc3)cc2c1=O

>  <Energy>  (42) 
87.64085350309296

>  <Genealogy>  (42) 
CCN(CC)CCn1cnc2sc(-c3ccccc3)cc2c1=O (3D coordinates assigned)
CCN(CC)CCn1cnc2sc(-c3ccccc3)cc2c1=O (optimized conformer: 87.64085350309296 kcal/mol)

>  <smiles>  (42) 
CCN(CC)CCn1cnc2sc(-c3ccccc3)cc2c1=O

>  <score_type>  (42) 
oracle

>  <origin>  (42) 
adg

>  <m_score__min__energy>  (42) 
-6.9199999999999999

>  <m_primary>  (42) 
energy

$$$$
42:0
     RDKit          3D

 31 32  0  0  0  0  0  0  0  0999 V2000
   60.1520   31.1760   47.5160 C   0  0  0  0  0  0  0  0  0  0  0  0
   59.5460   29.8020   47.8500 C   0  0  0  0  0  0  0  0  0  0  0  0
   60.3960   28.6370   47.4960 N   0  0  1  0  0  0  0  0  0  0  0  0
   60.3510   27.6070   48.5130 C   0  0  0  0  0  0  0  0  0  0  0  0
   60.3440   26.4210   48.2140 O   0  0  0  0  0  0  0  0  0  0  0  0
   60.1160   28.0720   46.1510 C   0  0  0  0  0  0  0  0  0  0  0  0
   58.6320   28.1260   45.8060 C   0  0  0  0  0  0  0  0  0  0  0  0
   57.8300   27.0650   46.2600 C   0  0  0  0  0  0  0  0  0  0  0  0
   56.4660   27.0380   45.9710 C   0  0  0  0  0  0  0  0  0  0  0  0
   55.7520   26.0860   46.3820 O   0  0  0  0  0  0  0  0  0  0  0  0
   55.9050   28.0350   45.2460 N   0  0  0  0  0  0  0  0  0  0  0  0
   56.6330   29.0820   44.7780 C   0  0  0  0  0  0  0  0  0  0  0  0
   55.9930   30.0780   44.0310 C   0  0  0  0  0  0  0  0  0  0  0  0
   56.7190   31.1610   43.5370 C   0  0  0  0  0  0  0  0  0  0  0  0
   58.0870   31.2550   43.7850 C   0  0  0  0  0  0  0  0  0  0  0  0
   58.7400   30.2700   44.5310 C   0  0  0  0  0  0  0  0  0  0  0  0
   58.0270   29.1630   45.0430 C   0  0  0  0  0  0  0  0  0  0  0  0
   60.3873   31.7095   48.4487 H   0  0  0  0  0  0  0  0  0  0  0  0
   61.0728   31.0380   46.9302 H   0  0  0  0  0  0  0  0  0  0  0  0
   59.4292   31.7629   46.9302 H   0  0  0  0  0  0  0  0  0  0  0  0
   59.3544   29.7679   48.9327 H   0  0  0  0  0  0  0  0  0  0  0  0
   58.6341   29.7127   47.2414 H   0  0  0  0  0  0  0  0  0  0  0  0
   61.3840   28.9850   47.4930 H   0  0  0  0  0  0  0  0  0  0  0  0
   60.3226   27.8966   49.5738 H   0  0  0  0  0  0  0  0  0  0  0  0
   60.6763   28.6484   45.4001 H   0  0  0  0  0  0  0  0  0  0  0  0
   60.4255   27.0165   46.1549 H   0  0  0  0  0  0  0  0  0  0  0  0
   58.2808   26.2511   46.8467 H   0  0  0  0  0  0  0  0  0  0  0  0
   54.9134   30.0060   43.8330 H   0  0  0  0  0  0  0  0  0  0  0  0
   56.2116   31.9416   42.9512 H   0  0  0  0  0  0  0  0  0  0  0  0
   58.6564   32.1098   43.3912 H   0  0  0  0  0  0  0  0  0  0  0  0
   59.8199   30.3575   44.7214 H   0  0  0  0  0  0  0  0  0  0  0  0
  1  2  1  0
  2  3  1  0
  3  4  1  0
  4  5  2  0
  3  6  1  0
  6  7  1  0
  7  8  2  0
  8  9  1  0
  9 10  2  0
  9 11  1  0
 11 12  1  0
 12 13  2  0
 13 14  1  0
 14 15  2  0
 15 16  1  0
 16 17  2  0
 17  7  1  0
 17 12  1  0
  1 18  1  0
  1 19  1  0
  1 20  1  0
  2 21  1  0
  2 22  1  0
  3 23  1  6
  4 24  1  0
  6 25  1  0
  6 26  1  0
  8 27  1  0
 13 28  1  0
 14 29  1  0
 15 30  1  0
 16 31  1  0
M  CHG  2   3   1  11  -1
M  END
>  <UniqueID>  (43) 
41

>  <SMILES>  (43) 
CC[N@@H+](C=O)Cc1cc(=O)[n-]c2ccccc12

>  <Energy>  (43) 
43.06971177916565

>  <Genealogy>  (43) 
CC[NH+](C=O)Cc1cc(=O)[n-]c2ccccc12 (protonated)
CC[N@@H+](C=O)Cc1cc(=O)[n-]c2ccccc12 (chirality)
CC[N@@H+](C=O)Cc1cc(=O)[n-]c2ccccc12 (3D coordinates assigned)
CC[N@@H+](C=O)Cc1cc(=O)[n-]c2ccccc12 (optimized conformer: 43.06971177916565 kcal/mol)

>  <smiles>  (43) 
CCN(C=O)Cc1cc(=O)[nH]c2ccccc12

>  <score_type>  (43) 
oracle

>  <origin>  (43) 
adg

>  <m_score__min__energy>  (43) 
-7.0700000000000003

>  <m_primary>  (43) 
energy

$$$$
43:0
     RDKit          3D

 36 38  0  0  0  0  0  0  0  0999 V2000
   57.3190   33.8880   44.8860 C   0  0  0  0  0  0  0  0  0  0  0  0
   57.6750   32.5480   45.4420 C   0  0  0  0  0  0  0  0  0  0  0  0
   57.5530   31.4010   44.7490 N   0  0  0  0  0  0  0  0  0  0  0  0
   57.9850   30.4120   45.5180 N   0  0  0  0  0  0  0  0  0  0  0  0
   58.0000   29.0440   45.0800 C   0  0  0  0  0  0  0  0  0  0  0  0
   57.7900   27.9940   45.9880 C   0  0  0  0  0  0  0  0  0  0  0  0
   57.7870   26.6770   45.5270 C   0  0  0  0  0  0  0  0  0  0  0  0
   57.9790   26.4150   44.1710 C   0  0  0  0  0  0  0  0  0  0  0  0
   58.1640   27.4810   43.2900 C   0  0  0  0  0  0  0  0  0  0  0  0
   58.1630   28.7610   43.7540 N   0  0  0  0  0  0  0  0  0  0  0  0
   58.4210   30.9140   46.6980 C   0  0  0  0  0  0  0  0  0  0  0  0
   58.9800   30.1130   47.8370 C   0  0  0  0  0  0  0  0  0  0  0  0
   58.2390   32.2840   46.6780 C   0  0  0  0  0  0  0  0  0  0  0  0
   58.6410   33.4640   47.9740 S   0  0  0  0  0  0  0  0  0  0  0  0
   60.4100   33.3550   47.6870 C   0  0  0  0  0  0  0  0  0  0  0  0
   60.9870   33.9660   46.5660 C   0  0  0  0  0  0  0  0  0  0  0  0
   62.3650   33.8770   46.3500 C   0  0  0  0  0  0  0  0  0  0  0  0
   63.1710   33.1700   47.2470 C   0  0  0  0  0  0  0  0  0  0  0  0
   64.5080   33.0850   47.0330 F   0  0  0  0  0  0  0  0  0  0  0  0
   62.5960   32.5420   48.3580 C   0  0  0  0  0  0  0  0  0  0  0  0
   63.3730   31.8460   49.2240 F   0  0  0  0  0  0  0  0  0  0  0  0
   61.2170   32.6300   48.5750 C   0  0  0  0  0  0  0  0  0  0  0  0
   57.1325   34.5900   45.7121 H   0  0  0  0  0  0  0  0  0  0  0  0
   58.1492   34.2610   44.2682 H   0  0  0  0  0  0  0  0  0  0  0  0
   56.4131   33.7998   44.2682 H   0  0  0  0  0  0  0  0  0  0  0  0
   57.6290   28.2080   47.0549 H   0  0  0  0  0  0  0  0  0  0  0  0
   57.6334   25.8468   46.2322 H   0  0  0  0  0  0  0  0  0  0  0  0
   57.9846   25.3795   43.8000 H   0  0  0  0  0  0  0  0  0  0  0  0
   58.3111   27.2867   42.2173 H   0  0  0  0  0  0  0  0  0  0  0  0
   58.3040   29.5410   43.0730 H   0  0  0  0  0  0  0  0  0  0  0  0
   58.6661   30.5629   48.7905 H   0  0  0  0  0  0  0  0  0  0  0  0
   58.6053   29.0805   47.7778 H   0  0  0  0  0  0  0  0  0  0  0  0
   60.0784   30.1085   47.7778 H   0  0  0  0  0  0  0  0  0  0  0  0
   60.3543   34.5168   45.8545 H   0  0  0  0  0  0  0  0  0  0  0  0
   62.8160   34.3640   45.4728 H   0  0  0  0  0  0  0  0  0  0  0  0
   60.7649   32.1295   49.4440 H   0  0  0  0  0  0  0  0  0  0  0  0
  1  2  1  0
  2  3  2  0
  3  4  1  0
  4  5  1  0
  5  6  2  0
  6  7  1  0
  7  8  2  0
  8  9  1  0
  9 10  2  0
  4 11  1  0
 11 12  1  0
 11 13  2  0
 13 14  1  0
 14 15  1  0
 15 16  2  0
 16 17  1  0
 17 18  2  0
 18 19  1  0
 18 20  1  0
 20 21  1  0
 20 22  2  0
 13  2  1  0
 22 15  1  0
 10  5  1  0
  1 23  1  0
  1 24  1  0
  1 25  1  0
  6 26  1  0
  7 27  1  0
  8 28  1  0
  9 29  1  0
 10 30  1  0
 12 31  1  0
 12 32  1  0
 12 33  1  0
 16 34  1  0
 17 35  1  0
 22 36  1  0
M  CHG  1  10   1
M  END
>  <UniqueID>  (44) 
42

>  <SMILES>  (44) 
Cc1nn(-c2cccc[nH+]2)c(C)c1Sc1ccc(F)c(F)c1

>  <Energy>  (44) 
68.17695890957441

>  <Genealogy>  (44) 
Cc1nn(-c2cccc[nH+]2)c(C)c1Sc1ccc(F)c(F)c1 (protonated)
Cc1nn(-c2cccc[nH+]2)c(C)c1Sc1ccc(F)c(F)c1 (3D coordinates assigned)
Cc1nn(-c2cccc[nH+]2)c(C)c1Sc1ccc(F)c(F)c1 (optimized conformer: 68.17695890957441 kcal/mol)

>  <smiles>  (44) 
Cc1nn(-c2ccccn2)c(C)c1Sc1ccc(F)c(F)c1

>  <score_type>  (44) 
oracle

>  <origin>  (44) 
adg

>  <m_score__min__energy>  (44) 
-6.0199999999999996

>  <m_primary>  (44) 
energy

$$$$
44:0
     RDKit          3D

 30 32  0  0  0  0  0  0  0  0999 V2000
   55.9290   30.4660   44.1200 C   0  0  0  0  0  0  0  0  0  0  0  0
   57.3030   29.8580   44.2680 C   0  0  0  0  0  0  0  0  0  0  0  0
   57.4500   28.5420   43.7960 C   0  0  0  0  0  0  0  0  0  0  0  0
   58.5700   27.7880   44.1200 C   0  0  0  0  0  0  0  0  0  0  0  0
   59.5430   28.3160   44.9570 C   0  0  0  0  0  0  0  0  0  0  0  0
   59.4470   29.6400   45.4110 C   0  0  0  0  0  0  0  0  0  0  0  0
   60.3940   30.1190   46.3160 C   0  0  0  0  0  0  0  0  0  0  0  0
   60.3320   31.3930   46.8010 N   0  0  0  0  0  0  0  0  0  0  0  0
   61.3200   31.7890   47.8200 C   0  0  0  0  0  0  0  0  0  0  0  0
   59.4180   32.2890   46.2910 C   0  0  0  0  0  0  0  0  0  0  0  0
   59.4320   33.6500   46.6840 C   0  0  0  0  0  0  0  0  0  0  0  0
   58.6000   34.5810   46.0690 C   0  0  0  0  0  0  0  0  0  0  0  0
   57.7710   34.1910   45.0270 C   0  0  0  0  0  0  0  0  0  0  0  0
   57.7210   32.8550   44.6350 C   0  0  0  0  0  0  0  0  0  0  0  0
   58.4670   31.8630   45.3130 C   0  0  0  0  0  0  0  0  0  0  0  0
   58.3870   30.4760   44.9800 C   0  0  0  0  0  0  0  0  0  0  0  0
   55.5023   30.6548   45.1162 H   0  0  0  0  0  0  0  0  0  0  0  0
   56.0052   31.4144   43.5680 H   0  0  0  0  0  0  0  0  0  0  0  0
   55.2784   29.7718   43.5680 H   0  0  0  0  0  0  0  0  0  0  0  0
   56.6664   28.1033   43.1608 H   0  0  0  0  0  0  0  0  0  0  0  0
   58.6861   26.7725   43.7134 H   0  0  0  0  0  0  0  0  0  0  0  0
   60.3948   27.6925   45.2664 H   0  0  0  0  0  0  0  0  0  0  0  0
   61.2076   29.4561   46.6456 H   0  0  0  0  0  0  0  0  0  0  0  0
   60.9001   31.6207   48.8227 H   0  0  0  0  0  0  0  0  0  0  0  0
   62.2328   31.1873   47.6990 H   0  0  0  0  0  0  0  0  0  0  0  0
   61.5646   32.8546   47.6990 H   0  0  0  0  0  0  0  0  0  0  0  0
   60.1101   33.9756   47.4866 H   0  0  0  0  0  0  0  0  0  0  0  0
   58.5997   35.6270   46.4094 H   0  0  0  0  0  0  0  0  0  0  0  0
   57.1518   34.9383   44.5092 H   0  0  0  0  0  0  0  0  0  0  0  0
   57.0893   32.5662   43.7820 H   0  0  0  0  0  0  0  0  0  0  0  0
  1  2  1  0
  2  3  2  0
  3  4  1  0
  4  5  2  0
  5  6  1  0
  6  7  2  0
  7  8  1  0
  8  9  1  0
  8 10  2  0
 10 11  1  0
 11 12  2  0
 12 13  1  0
 13 14  2  0
 14 15  1  0
 15 16  2  0
 16  2  1  0
 16  6  1  0
 15 10  1  0
  1 17  1  0
  1 18  1  0
  1 19  1  0
  3 20  1  0
  4 21  1  0
  5 22  1  0
  7 23  1  0
  9 24  1  0
  9 25  1  0
  9 26  1  0
 11 27  1  0
 12 28  1  0
 13 29  1  0
 14 30  1  0
M  CHG  1   8   1
M  END
>  <UniqueID>  (45) 
43

>  <SMILES>  (45) 
Cc1cccc2c[n+](C)c3ccccc3c12

>  <Energy>  (45) 
59.58244731209553

>  <Genealogy>  (45) 
Cc1cccc2c[n+](C)c3ccccc3c12 (3D coordinates assigned)
Cc1cccc2c[n+](C)c3ccccc3c12 (optimized conformer: 59.58244731209553 kcal/mol)

>  <smiles>  (45) 
Cc1cccc2c[n+](C)c3ccccc3c12

>  <score_type>  (45) 
oracle

>  <origin>  (45) 
adg

>  <m_score__min__energy>  (45) 
-5.29

>  <m_primary>  (45) 
energy

$$$$
45:0
     RDKit          3D

 35 37  0  0  0  0  0  0  0  0999 V2000
   55.1940   26.5940   45.9990 O   0  0  0  0  0  0  0  0  0  0  0  0
   56.1700   25.8880   45.6260 C   0  0  0  0  0  0  0  0  0  0  0  0
   57.4120   26.5190   45.2590 N   0  0  0  0  0  0  0  0  0  0  0  0
   57.6640   27.9280   45.3880 C   0  0  0  0  0  0  0  0  0  0  0  0
   57.0910   28.8150   44.4670 C   0  0  0  0  0  0  0  0  0  0  0  0
   57.3390   30.1880   44.5540 C   0  0  0  0  0  0  0  0  0  0  0  0
   58.1740   30.7020   45.5630 C   0  0  0  0  0  0  0  0  0  0  0  0
   58.4300   32.1640   45.6370 C   0  0  0  0  0  0  0  0  0  0  0  0
   57.7940   33.0720   44.7710 C   0  0  0  0  0  0  0  0  0  0  0  0
   58.0710   34.4370   44.8780 C   0  0  0  0  0  0  0  0  0  0  0  0
   58.9790   34.8890   45.8360 C   0  0  0  0  0  0  0  0  0  0  0  0
   59.6030   33.9640   46.6740 C   0  0  0  0  0  0  0  0  0  0  0  0
   59.3190   32.6390   46.5560 N   0  0  0  0  0  0  0  0  0  0  0  0
   58.7770   29.8040   46.4650 C   0  0  0  0  0  0  0  0  0  0  0  0
   58.5280   28.4310   46.3740 C   0  0  0  0  0  0  0  0  0  0  0  0
   56.0070   24.4150   45.5670 C   0  0  0  0  0  0  0  0  0  0  0  0
   55.3720   23.7050   46.6010 C   0  0  0  0  0  0  0  0  0  0  0  0
   55.2350   22.3160   46.5260 C   0  0  0  0  0  0  0  0  0  0  0  0
   55.7340   21.6150   45.4240 C   0  0  0  0  0  0  0  0  0  0  0  0
   55.5420   19.8680   45.3670 Cl  0  0  0  0  0  0  0  0  0  0  0  0
   56.3830   22.3110   44.3910 C   0  0  0  0  0  0  0  0  0  0  0  0
   57.0320   21.4680   42.9920 Cl  0  0  0  0  0  0  0  0  0  0  0  0
   56.5210   23.7020   44.4680 C   0  0  0  0  0  0  0  0  0  0  0  0
   58.1680   25.9430   44.8270 H   0  0  0  0  0  0  0  0  0  0  0  0
   56.4406   28.4277   43.6689 H   0  0  0  0  0  0  0  0  0  0  0  0
   56.8773   30.8725   43.8272 H   0  0  0  0  0  0  0  0  0  0  0  0
   57.0829   32.7093   44.0142 H   0  0  0  0  0  0  0  0  0  0  0  0
   57.5741   35.1542   44.2081 H   0  0  0  0  0  0  0  0  0  0  0  0
   59.2005   35.9624   45.9297 H   0  0  0  0  0  0  0  0  0  0  0  0
   60.3247   34.3064   47.4302 H   0  0  0  0  0  0  0  0  0  0  0  0
   59.4493   30.1858   47.2474 H   0  0  0  0  0  0  0  0  0  0  0  0
   59.0124   27.7401   47.0798 H   0  0  0  0  0  0  0  0  0  0  0  0
   54.9804   24.2462   47.4749 H   0  0  0  0  0  0  0  0  0  0  0  0
   54.7318   21.7714   47.3385 H   0  0  0  0  0  0  0  0  0  0  0  0
   57.0366   24.2433   43.6610 H   0  0  0  0  0  0  0  0  0  0  0  0
  1  2  2  0
  2  3  1  0
  3  4  1  0
  4  5  2  0
  5  6  1  0
  6  7  2  0
  7  8  1  0
  8  9  2  0
  9 10  1  0
 10 11  2  0
 11 12  1  0
 12 13  2  0
  7 14  1  0
 14 15  2  0
  2 16  1  0
 16 17  2  0
 17 18  1  0
 18 19  2  0
 19 20  1  0
 19 21  1  0
 21 22  1  0
 21 23  2  0
 15  4  1  0
 23 16  1  0
 13  8  1  0
  3 24  1  0
  5 25  1  0
  6 26  1  0
  9 27  1  0
 10 28  1  0
 11 29  1  0
 12 30  1  0
 14 31  1  0
 15 32  1  0
 17 33  1  0
 18 34  1  0
 23 35  1  0
M  END
>  <UniqueID>  (46) 
44

>  <SMILES>  (46) 
O=C(Nc1ccc(-c2ccccn2)cc1)c1ccc(Cl)c(Cl)c1

>  <Energy>  (46) 
50.62080706433353

>  <Genealogy>  (46) 
O=C(Nc1ccc(-c2ccccn2)cc1)c1ccc(Cl)c(Cl)c1 (3D coordinates assigned)
O=C(Nc1ccc(-c2ccccn2)cc1)c1ccc(Cl)c(Cl)c1 (optimized conformer: 50.62080706433353 kcal/mol)

>  <smiles>  (46) 
O=C(Nc1ccc(-c2ccccn2)cc1)c1ccc(Cl)c(Cl)c1

>  <score_type>  (46) 
oracle

>  <origin>  (46) 
adg

>  <m_score__min__energy>  (46) 
-7.9000000000000004

>  <m_primary>  (46) 
energy

$$$$
46:0
     RDKit          3D

 34 36  0  0  0  0  0  0  0  0999 V2000
   60.3959   35.4702   46.3120 H   0  0  0  0  0  0  0  0  0  0  0  0
   59.7360   34.5930   46.3830 C   0  0  0  0  0  0  0  0  0  0  0  0
   58.7200   34.5100   45.5110 C   0  0  0  0  0  0  0  0  0  0  0  0
   58.3304   35.4539   45.1021 H   0  0  0  0  0  0  0  0  0  0  0  0
   58.0800   33.2620   45.0530 C   0  0  0  0  0  0  0  0  0  0  0  0
   57.4460   32.4370   45.8550 O   0  0  0  0  0  0  0  0  0  0  0  0
   56.9970   31.4010   45.2080 N   0  0  0  0  0  0  0  0  0  0  0  0
   57.3800   31.5490   43.9250 C   0  0  0  0  0  0  0  0  0  0  0  0
   57.0160   30.6070   42.8280 C   0  0  0  0  0  0  0  0  0  0  0  0
   56.6515   29.6636   43.2607 H   0  0  0  0  0  0  0  0  0  0  0  0
   56.2262   31.0549   42.2070 H   0  0  0  0  0  0  0  0  0  0  0  0
   57.9018   30.4075   42.2070 H   0  0  0  0  0  0  0  0  0  0  0  0
   58.0770   32.7290   43.7780 C   0  0  0  0  0  0  0  0  0  0  0  0
   58.5242   33.1468   42.8639 H   0  0  0  0  0  0  0  0  0  0  0  0
   60.0370   33.5950   47.4330 C   0  0  0  0  0  0  0  0  0  0  0  0
   59.0210   33.0450   48.1530 N   0  0  0  0  0  0  0  0  0  0  0  0
   59.2470   32.1090   49.1080 C   0  0  0  0  0  0  0  0  0  0  0  0
   58.1850   31.5840   49.8500 C   0  0  0  0  0  0  0  0  0  0  0  0
   57.1577   31.9263   49.6561 H   0  0  0  0  0  0  0  0  0  0  0  0
   58.4280   30.6170   50.8460 C   0  0  0  0  0  0  0  0  0  0  0  0
   57.3990   30.0620   51.6210 O   0  0  0  0  0  0  0  0  0  0  0  0
   56.4150   30.8230   52.3140 C   0  0  0  0  0  0  0  0  0  0  0  0
   56.5609   30.7102   53.3984 H   0  0  0  0  0  0  0  0  0  0  0  0
   56.5114   31.8838   52.0395 H   0  0  0  0  0  0  0  0  0  0  0  0
   55.4125   30.4629   52.0395 H   0  0  0  0  0  0  0  0  0  0  0  0
   59.7410   30.1880   51.0790 C   0  0  0  0  0  0  0  0  0  0  0  0
   59.9369   29.4308   51.8525 H   0  0  0  0  0  0  0  0  0  0  0  0
   60.8050   30.7120   50.3390 C   0  0  0  0  0  0  0  0  0  0  0  0
   61.8315   30.3672   50.5326 H   0  0  0  0  0  0  0  0  0  0  0  0
   60.5650   31.6760   49.3510 C   0  0  0  0  0  0  0  0  0  0  0  0
   61.5850   32.2040   48.6170 N   0  0  0  0  0  0  0  0  0  0  0  0
   62.5670   31.8870   48.7870 H   0  0  0  0  0  0  0  0  0  0  0  0
   61.3530   33.1470   47.6630 C   0  0  0  0  0  0  0  0  0  0  0  0
   62.7180   33.8050   46.7640 Cl  0  0  0  0  0  0  0  0  0  0  0  0
  1  2  1  0
  2  3  2  0
  3  4  1  0
  3  5  1  0
  5  6  1  0
  6  7  1  0
  7  8  2  0
  8  9  1  0
  9 10  1  0
  9 11  1  0
  9 12  1  0
  8 13  1  0
 13 14  1  0
  2 15  1  0
 15 16  2  0
 16 17  1  0
 17 18  2  0
 18 19  1  0
 18 20  1  0
 20 21  1  0
 21 22  1  0
 22 23  1  0
 22 24  1  0
 22 25  1  0
 20 26  2  0
 26 27  1  0
 26 28  1  0
 28 29  1  0
 28 30  2  0
 30 31  1  0
 31 32  1  0
 31 33  2  0
 33 34  1  0
 13  5  2  0
 33 15  1  0
 30 17  1  0
M  CHG  1  31   1
M  END
>  <UniqueID>  (47) 
45

>  <SMILES>  (47) 
COc1ccc2[nH+]c(Cl)c(/C=C\c3cc(C)no3)nc2c1

>  <Energy>  (47) 
75.40906611073098

>  <Genealogy>  (47) 
COc1ccc2[nH+]c(Cl)c(C=Cc3cc(C)no3)nc2c1 (protonated)
COc1ccc2[nH+]c(Cl)c(/C=C\c3cc(C)no3)nc2c1 (cis-trans isomerization)
COc1ccc2[nH+]c(Cl)c(/C=C\c3cc(C)no3)nc2c1 (3D coordinates assigned)
COc1ccc2[nH+]c(Cl)c(/C=C\c3cc(C)no3)nc2c1 (optimized conformer: 75.40906611073098 kcal/mol)

>  <smiles>  (47) 
COc1ccc2nc(Cl)c(C=Cc3cc(C)no3)nc2c1

>  <score_type>  (47) 
oracle

>  <origin>  (47) 
adg

>  <m_score__min__energy>  (47) 
-6.6900000000000004

>  <m_primary>  (47) 
energy

$$$$
