0:0
     RDKit          3D

 46 48  0  0  0  0  0  0  0  0999 V2000
   56.7460   29.7820   53.0000 C   0  0  0  0  0  0  0  0  0  0  0  0
   56.9720   29.7170   51.6270 O   0  0  0  0  0  0  0  0  0  0  0  0
   58.0260   30.2900   50.9650 C   0  0  0  0  0  0  0  0  0  0  0  0
   58.9560   29.4990   50.2870 C   0  0  0  0  0  0  0  0  0  0  0  0
   60.0060   30.0930   49.6300 C   0  0  0  0  0  0  0  0  0  0  0  0
   60.1510   31.4770   49.6350 C   0  0  0  0  0  0  0  0  0  0  0  0
   61.2990   32.0040   48.9070 C   0  0  0  0  0  0  0  0  0  0  0  0
   62.3900   32.4950   49.5960 C   0  0  0  0  0  0  0  0  0  0  0  0
   63.4610   32.9840   48.8700 C   0  0  0  0  0  0  0  0  0  0  0  0
   64.5450   33.4710   49.5350 F   0  0  0  0  0  0  0  0  0  0  0  0
   63.4260   32.9760   47.4890 C   0  0  0  0  0  0  0  0  0  0  0  0
   64.5150   33.4720   46.8460 F   0  0  0  0  0  0  0  0  0  0  0  0
   62.3470   32.4900   46.7790 C   0  0  0  0  0  0  0  0  0  0  0  0
   61.2820   32.0040   47.5120 C   0  0  0  0  0  0  0  0  0  0  0  0
   60.1240   31.4820   46.7930 C   0  0  0  0  0  0  0  0  0  0  0  0
   60.1640   30.1520   46.3710 C   0  0  0  0  0  0  0  0  0  0  0  0
   59.0950   29.6130   45.6860 C   0  0  0  0  0  0  0  0  0  0  0  0
   57.9860   30.3810   45.4170 C   0  0  0  0  0  0  0  0  0  0  0  0
   56.5970   29.7870   44.5630 S   0  0  0  0  0  0  0  0  0  0  0  0
   57.0150   29.2920   42.9100 C   0  0  0  0  0  0  0  0  0  0  0  0
   55.5080   30.8190   44.4870 O   0  0  0  0  0  0  0  0  0  0  0  0
   56.0450   28.5450   45.2460 O   0  0  0  0  0  0  0  0  0  0  0  0
   57.9670   31.6980   45.8460 C   0  0  0  0  0  0  0  0  0  0  0  0
   59.0150   32.2770   46.5320 C   0  0  0  0  0  0  0  0  0  0  0  0
   59.2450   32.2780   50.2980 C   0  0  0  0  0  0  0  0  0  0  0  0
   58.1820   31.6600   50.9620 C   0  0  0  0  0  0  0  0  0  0  0  0
   57.2430   32.4240   51.6440 O   0  0  0  0  0  0  0  0  0  0  0  0
   57.7510   33.4290   52.5170 C   0  0  0  0  0  0  0  0  0  0  0  0
   57.6689   29.5166   53.5365 H   0  0  0  0  0  0  0  0  0  0  0  0
   56.4436   30.8035   53.2739 H   0  0  0  0  0  0  0  0  0  0  0  0
   55.9471   29.0772   53.2739 H   0  0  0  0  0  0  0  0  0  0  0  0
   58.8481   28.4043   50.2791 H   0  0  0  0  0  0  0  0  0  0  0  0
   60.7381   29.4697   49.0957 H   0  0  0  0  0  0  0  0  0  0  0  0
   62.4071   32.4973   50.6959 H   0  0  0  0  0  0  0  0  0  0  0  0
   62.3356   32.4897   45.6791 H   0  0  0  0  0  0  0  0  0  0  0  0
   61.0483   29.5336   46.5848 H   0  0  0  0  0  0  0  0  0  0  0  0
   59.1295   28.5650   45.3536 H   0  0  0  0  0  0  0  0  0  0  0  0
   57.7243   28.4520   42.9471 H   0  0  0  0  0  0  0  0  0  0  0  0
   56.1036   28.9792   42.3794 H   0  0  0  0  0  0  0  0  0  0  0  0
   57.4761   30.1381   42.3794 H   0  0  0  0  0  0  0  0  0  0  0  0
   57.0779   32.3088   45.6305 H   0  0  0  0  0  0  0  0  0  0  0  0
   58.9739   33.3264   46.8592 H   0  0  0  0  0  0  0  0  0  0  0  0
   59.3560   33.3724   50.3040 H   0  0  0  0  0  0  0  0  0  0  0  0
   57.5951   33.1205   53.5613 H   0  0  0  0  0  0  0  0  0  0  0  0
   58.8266   33.5660   52.3318 H   0  0  0  0  0  0  0  0  0  0  0  0
   57.2235   34.3763   52.3318 H   0  0  0  0  0  0  0  0  0  0  0  0
  1  2  1  0
  2  3  1  0
  3  4  2  0
  4  5  1  0
  5  6  2  0
  6  7  1  0
  7  8  2  0
  8  9  1  0
  9 10  1  0
  9 11  2  0
 11 12  1  0
 11 13  1  0
 13 14  2  0
 14 15  1  0
 15 16  2  0
 16 17  1  0
 17 18  2  0
 18 19  1  0
 19 20  1  0
 19 21  2  0
 19 22  2  0
 18 23  1  0
 23 24  2  0
  6 25  1  0
 25 26  2  0
 26 27  1  0
 27 28  1  0
 26  3  1  0
 14  7  1  0
 24 15  1  0
  1 29  1  0
  1 30  1  0
  1 31  1  0
  4 32  1  0
  5 33  1  0
  8 34  1  0
 13 35  1  0
 16 36  1  0
 17 37  1  0
 20 38  1  0
 20 39  1  0
 20 40  1  0
 23 41  1  0
 24 42  1  0
 25 43  1  0
 28 44  1  0
 28 45  1  0
 28 46  1  0
M  END
>  <smiles>  (1) 
COc1ccc(-c2cc(F)c(F)cc2-c2ccc(S(C)(=O)=O)cc2)cc1OC

>  <score_type>  (1) 
oracle

>  <origin>  (1) 
adg

>  <m_score__min__energy>  (1) 
-7.8899999999999997

>  <m_primary>  (1) 
energy

$$$$
1:0
     RDKit          3D

 47 51  0  0  0  0  0  0  0  0999 V2000
   57.0300   32.2980   52.1990 C   0  0  0  0  0  0  0  0  0  0  0  0
   56.7650   30.9500   51.6230 C   0  0  0  0  0  0  0  0  0  0  0  0
   57.7750   30.3190   50.8800 N   0  0  0  0  0  0  0  0  0  0  0  0
   59.0460   30.0620   51.4130 C   0  0  0  0  0  0  0  0  0  0  0  0
   60.1380   30.1660   50.3830 C   0  0  0  0  0  0  0  0  0  0  0  0
   59.6310   30.0100   49.0390 N   0  0  0  0  0  0  0  0  0  0  0  0
   59.4010   28.7930   48.5020 N   0  0  0  0  0  0  0  0  0  0  0  0
   58.9510   28.8970   47.2470 C   0  0  0  0  0  0  0  0  0  0  0  0
   58.8980   30.2420   46.9860 C   0  0  0  0  0  0  0  0  0  0  0  0
   58.4970   30.8200   45.8250 C   0  0  0  0  0  0  0  0  0  0  0  0
   58.5170   32.1690   45.7600 N   0  0  0  0  0  0  0  0  0  0  0  0
   58.9270   32.8630   46.8430 C   0  0  0  0  0  0  0  0  0  0  0  0
   58.9280   34.2340   46.7310 C   0  0  0  0  0  0  0  0  0  0  0  0
   59.3410   34.9590   47.8270 C   0  0  0  0  0  0  0  0  0  0  0  0
   59.7480   34.3930   49.0130 C   0  0  0  0  0  0  0  0  0  0  0  0
   59.7440   32.9960   49.1140 C   0  0  0  0  0  0  0  0  0  0  0  0
   59.3330   32.2860   48.0230 C   0  0  0  0  0  0  0  0  0  0  0  0
   59.3220   30.9220   48.1050 C   0  0  0  0  0  0  0  0  0  0  0  0
   58.0910   29.9780   44.7600 N   0  0  0  0  0  0  0  0  0  0  0  0
   57.6550   30.5690   43.5080 C   0  0  0  0  0  0  0  0  0  0  0  0
   58.1250   28.5620   44.9700 C   0  0  0  0  0  0  0  0  0  0  0  0
   57.7410   27.7140   43.9440 C   0  0  0  0  0  0  0  0  0  0  0  0
   57.7950   26.3560   44.1800 C   0  0  0  0  0  0  0  0  0  0  0  0
   58.2070   25.8090   45.3790 C   0  0  0  0  0  0  0  0  0  0  0  0
   58.2530   23.9290   45.6240 Br  0  0  0  0  0  0  0  0  0  0  0  0
   58.5890   26.6510   46.3990 C   0  0  0  0  0  0  0  0  0  0  0  0
   58.5400   28.0020   46.1710 C   0  0  0  0  0  0  0  0  0  0  0  0
   57.0179   32.2363   53.2972 H   0  0  0  0  0  0  0  0  0  0  0  0
   58.0152   32.6533   51.8626 H   0  0  0  0  0  0  0  0  0  0  0  0
   56.2526   32.9998   51.8626 H   0  0  0  0  0  0  0  0  0  0  0  0
   56.5174   30.2834   52.4622 H   0  0  0  0  0  0  0  0  0  0  0  0
   55.9673   31.1287   50.8870 H   0  0  0  0  0  0  0  0  0  0  0  0
   57.4190   29.6390   50.1640 H   0  0  0  0  0  0  0  0  0  0  0  0
   59.2461   30.7898   52.2131 H   0  0  0  0  0  0  0  0  0  0  0  0
   59.0448   29.0300   51.7938 H   0  0  0  0  0  0  0  0  0  0  0  0
   60.6155   31.1531   50.4701 H   0  0  0  0  0  0  0  0  0  0  0  0
   60.8596   29.3571   50.5700 H   0  0  0  0  0  0  0  0  0  0  0  0
   58.6114   34.7319   45.8026 H   0  0  0  0  0  0  0  0  0  0  0  0
   59.3457   36.0562   47.7493 H   0  0  0  0  0  0  0  0  0  0  0  0
   60.0676   35.0200   49.8584 H   0  0  0  0  0  0  0  0  0  0  0  0
   60.0603   32.4899   50.0380 H   0  0  0  0  0  0  0  0  0  0  0  0
   57.0138   31.4381   43.7165 H   0  0  0  0  0  0  0  0  0  0  0  0
   58.5331   30.8916   42.9294 H   0  0  0  0  0  0  0  0  0  0  0  0
   57.0876   29.8252   42.9294 H   0  0  0  0  0  0  0  0  0  0  0  0
   57.4046   28.1100   42.9745 H   0  0  0  0  0  0  0  0  0  0  0  0
   57.4943   25.6736   43.3713 H   0  0  0  0  0  0  0  0  0  0  0  0
   58.9235   26.2518   47.3679 H   0  0  0  0  0  0  0  0  0  0  0  0
  1  2  1  0
  2  3  1  0
  3  4  1  0
  4  5  1  0
  5  6  1  0
  6  7  1  0
  7  8  2  0
  8  9  1  0
  9 10  2  0
 10 11  1  0
 11 12  2  0
 12 13  1  0
 13 14  2  0
 14 15  1  0
 15 16  2  0
 16 17  1  0
 17 18  2  0
 10 19  1  0
 19 20  1  0
 19 21  1  0
 21 22  2  0
 22 23  1  0
 23 24  2  0
 24 25  1  0
 24 26  1  0
 26 27  2  0
 18  6  1  0
 27 21  1  0
 27  8  1  0
 18  9  1  0
 17 12  1  0
  1 28  1  0
  1 29  1  0
  1 30  1  0
  2 31  1  0
  2 32  1  0
  3 33  1  0
  4 34  1  0
  4 35  1  0
  5 36  1  0
  5 37  1  0
 13 38  1  0
 14 39  1  0
 15 40  1  0
 16 41  1  0
 20 42  1  0
 20 43  1  0
 20 44  1  0
 22 45  1  0
 23 46  1  0
 26 47  1  0
M  END
>  <smiles>  (2) 
CCNCCn1nc2c3c(nc4ccccc4c31)N(C)c1ccc(Br)cc1-2

>  <score_type>  (2) 
oracle

>  <origin>  (2) 
adg

>  <m_score__min__energy>  (2) 
-8.2300000000000004

>  <m_primary>  (2) 
energy

$$$$
2:0
     RDKit          3D

 84 87  0  0  0  0  0  0  0  0999 V2000
   63.7580   33.2310   46.6210 C   0  0  0  0  0  0  0  0  0  0  0  0
   63.8250   32.4670   47.8000 O   0  0  0  0  0  0  0  0  0  0  0  0
   62.9270   32.7310   48.8240 C   0  0  0  0  0  0  0  0  0  0  0  0
   62.4010   34.0030   49.0470 C   0  0  0  0  0  0  0  0  0  0  0  0
   61.4920   34.2180   50.0980 C   0  0  0  0  0  0  0  0  0  0  0  0
   61.0910   33.2120   50.9310 C   0  0  0  0  0  0  0  0  0  0  0  0
   60.1230   33.3540   52.0390 C   0  0  0  0  0  0  0  0  0  0  0  0
   59.0230   32.5270   52.0960 N   0  0  0  0  0  0  0  0  0  0  0  0
   57.6970   32.8990   52.0930 C   0  0  0  0  0  0  0  0  0  0  0  0
   56.6000   31.9760   52.4230 C   0  0  0  0  0  0  0  0  0  0  0  0
   56.8590   30.9950   53.3740 O   0  0  0  0  0  0  0  0  0  0  0  0
   56.8130   29.7100   52.9610 C   0  0  0  0  0  0  0  0  0  0  0  0
   58.1550   29.0470   52.9150 C   0  0  0  0  0  0  0  0  0  0  0  0
   59.0210   29.3720   51.9570 O   0  0  0  0  0  0  0  0  0  0  0  0
   58.6060   29.6380   50.6710 C   0  0  0  0  0  0  0  0  0  0  0  0
   59.6380   29.4270   49.6370 C   0  0  0  0  0  0  0  0  0  0  0  0
   59.2730   28.4670   48.7180 O   0  0  0  0  0  0  0  0  0  0  0  0
   60.3810   28.0930   47.9710 C   0  0  0  0  0  0  0  0  0  0  0  0
   60.1550   28.0790   46.4800 C   0  0  0  0  0  0  0  0  0  0  0  0
   59.0550   27.2620   46.1570 N   0  0  0  0  0  0  0  0  0  0  0  0
   58.9590   26.0110   46.8480 C   0  0  0  0  0  0  0  0  0  0  0  0
   57.8120   27.8590   45.8880 C   0  0  0  0  0  0  0  0  0  0  0  0
   57.8220   28.9320   44.8430 C   0  0  0  0  0  0  0  0  0  0  0  0
   56.9500   29.9980   45.2260 O   0  0  0  0  0  0  0  0  0  0  0  0
   57.5220   31.2960   45.1600 C   0  0  0  0  0  0  0  0  0  0  0  0
   57.4430   32.0360   43.9870 C   0  0  0  0  0  0  0  0  0  0  0  0
   57.9750   33.2970   43.8580 C   0  0  0  0  0  0  0  0  0  0  0  0
   58.6160   33.8580   44.9390 C   0  0  0  0  0  0  0  0  0  0  0  0
   59.1670   35.1320   44.8620 C   0  0  0  0  0  0  0  0  0  0  0  0
   59.7830   35.5970   46.0030 C   0  0  0  0  0  0  0  0  0  0  0  0
   59.8590   34.8480   47.1760 C   0  0  0  0  0  0  0  0  0  0  0  0
   59.2920   33.5690   47.2180 C   0  0  0  0  0  0  0  0  0  0  0  0
   58.6880   33.1190   46.0870 C   0  0  0  0  0  0  0  0  0  0  0  0
   58.1640   31.8560   46.2370 C   0  0  0  0  0  0  0  0  0  0  0  0
   58.4480   31.3890   47.6180 C   0  0  0  0  0  0  0  0  0  0  0  0
   59.1890   32.5400   48.2640 C   0  0  0  0  0  0  0  0  0  0  0  0
   61.6220   31.9300   50.7070 C   0  0  0  0  0  0  0  0  0  0  0  0
   61.2340   30.8890   51.5380 O   0  0  0  0  0  0  0  0  0  0  0  0
   62.1640   29.9110   51.9400 C   0  0  0  0  0  0  0  0  0  0  0  0
   62.5020   31.7440   49.6810 C   0  0  0  0  0  0  0  0  0  0  0  0
   63.6646   34.2962   46.8791 H   0  0  0  0  0  0  0  0  0  0  0  0
   64.6732   33.0756   46.0309 H   0  0  0  0  0  0  0  0  0  0  0  0
   62.8838   32.9187   46.0309 H   0  0  0  0  0  0  0  0  0  0  0  0
   62.6980   34.8407   48.3988 H   0  0  0  0  0  0  0  0  0  0  0  0
   61.0903   35.2300   50.2548 H   0  0  0  0  0  0  0  0  0  0  0  0
   60.6837   33.2034   52.9733 H   0  0  0  0  0  0  0  0  0  0  0  0
   59.6859   34.3493   51.8704 H   0  0  0  0  0  0  0  0  0  0  0  0
   59.2350   31.5170   52.2970 H   0  0  0  0  0  0  0  0  0  0  0  0
   57.6155   33.7322   52.8066 H   0  0  0  0  0  0  0  0  0  0  0  0
   57.5217   33.0706   51.0207 H   0  0  0  0  0  0  0  0  0  0  0  0
   55.7585   32.5807   52.7921 H   0  0  0  0  0  0  0  0  0  0  0  0
   56.4045   31.4237   51.4920 H   0  0  0  0  0  0  0  0  0  0  0  0
   56.1696   29.1454   53.6519 H   0  0  0  0  0  0  0  0  0  0  0  0
   56.4202   29.7151   51.9335 H   0  0  0  0  0  0  0  0  0  0  0  0
   58.6480   29.2587   53.8753 H   0  0  0  0  0  0  0  0  0  0  0  0
   57.9133   27.9967   52.6949 H   0  0  0  0  0  0  0  0  0  0  0  0
   57.7527   28.9823   50.4431 H   0  0  0  0  0  0  0  0  0  0  0  0
   58.3482   30.7070   50.6411 H   0  0  0  0  0  0  0  0  0  0  0  0
   59.8070   30.3764   49.1078 H   0  0  0  0  0  0  0  0  0  0  0  0
   60.5513   29.0782   50.1412 H   0  0  0  0  0  0  0  0  0  0  0  0
   61.1960   28.7992   48.1882 H   0  0  0  0  0  0  0  0  0  0  0  0
   60.6188   27.0589   48.2608 H   0  0  0  0  0  0  0  0  0  0  0  0
   59.9586   29.1044   46.1337 H   0  0  0  0  0  0  0  0  0  0  0  0
   61.0532   27.6785   45.9872 H   0  0  0  0  0  0  0  0  0  0  0  0
   58.9727   26.1896   47.9333 H   0  0  0  0  0  0  0  0  0  0  0  0
   58.0198   25.5101   46.5707 H   0  0  0  0  0  0  0  0  0  0  0  0
   59.8108   25.3726   46.5707 H   0  0  0  0  0  0  0  0  0  0  0  0
   57.1221   27.0693   45.5556 H   0  0  0  0  0  0  0  0  0  0  0  0
   57.5065   28.3521   46.8226 H   0  0  0  0  0  0  0  0  0  0  0  0
   58.8448   29.3210   44.7306 H   0  0  0  0  0  0  0  0  0  0  0  0
   57.4759   28.5086   43.8886 H   0  0  0  0  0  0  0  0  0  0  0  0
   56.9307   31.5921   43.1207 H   0  0  0  0  0  0  0  0  0  0  0  0
   57.8900   33.8470   42.9092 H   0  0  0  0  0  0  0  0  0  0  0  0
   59.1141   35.7341   43.9429 H   0  0  0  0  0  0  0  0  0  0  0  0
   60.2333   36.6005   45.9878 H   0  0  0  0  0  0  0  0  0  0  0  0
   60.3617   35.2597   48.0636 H   0  0  0  0  0  0  0  0  0  0  0  0
   57.5126   31.1778   48.1568 H   0  0  0  0  0  0  0  0  0  0  0  0
   59.0312   30.4564   47.6319 H   0  0  0  0  0  0  0  0  0  0  0  0
   58.6271   32.9237   49.1284 H   0  0  0  0  0  0  0  0  0  0  0  0
   60.1772   32.2341   48.6380 H   0  0  0  0  0  0  0  0  0  0  0  0
   62.2021   29.8709   53.0386 H   0  0  0  0  0  0  0  0  0  0  0  0
   61.8573   28.9302   51.5477 H   0  0  0  0  0  0  0  0  0  0  0  0
   63.1590   30.1680   51.5477 H   0  0  0  0  0  0  0  0  0  0  0  0
   62.9004   30.7301   49.5286 H   0  0  0  0  0  0  0  0  0  0  0  0
  1  2  1  0
  2  3  1  0
  3  4  2  0
  4  5  1  0
  5  6  2  0
  6  7  1  0
  7  8  1  0
  8  9  1  0
  9 10  1  0
 10 11  1  0
 11 12  1  0
 12 13  1  0
 13 14  1  0
 14 15  1  0
 15 16  1  0
 16 17  1  0
 17 18  1  0
 18 19  1  0
 19 20  1  0
 20 21  1  0
 20 22  1  0
 22 23  1  0
 23 24  1  0
 24 25  1  0
 25 26  2  0
 26 27  1  0
 27 28  2  0
 28 29  1  0
 29 30  2  0
 30 31  1  0
 31 32  2  0
 32 33  1  0
 33 34  2  0
 34 35  1  0
 35 36  1  0
  6 37  1  0
 37 38  1  0
 38 39  1  0
 37 40  2  0
 40  3  1  0
 34 25  1  0
 33 28  1  0
 36 32  1  0
  1 41  1  0
  1 42  1  0
  1 43  1  0
  4 44  1  0
  5 45  1  0
  7 46  1  0
  7 47  1  0
  8 48  1  0
  9 49  1  0
  9 50  1  0
 10 51  1  0
 10 52  1  0
 12 53  1  0
 12 54  1  0
 13 55  1  0
 13 56  1  0
 15 57  1  0
 15 58  1  0
 16 59  1  0
 16 60  1  0
 18 61  1  0
 18 62  1  0
 19 63  1  0
 19 64  1  0
 21 65  1  0
 21 66  1  0
 21 67  1  0
 22 68  1  0
 22 69  1  0
 23 70  1  0
 23 71  1  0
 26 72  1  0
 27 73  1  0
 29 74  1  0
 30 75  1  0
 31 76  1  0
 35 77  1  0
 35 78  1  0
 36 79  1  0
 36 80  1  0
 39 81  1  0
 39 82  1  0
 39 83  1  0
 40 84  1  0
M  END
>  <smiles>  (3) 
COc1ccc(CNCCOCCOCCOCCN(C)CCOc2ccc3cccc4c3c2CC4)c(OC)c1

>  <score_type>  (3) 
oracle

>  <origin>  (3) 
adg

>  <m_score__min__energy>  (3) 
-8.4700000000000006

>  <m_primary>  (3) 
energy

$$$$
3:0
     RDKit          3D

 52 55  0  0  0  0  0  0  0  0999 V2000
   60.6200   26.5860   46.4810 C   0  0  0  0  0  0  0  0  0  0  0  0
   59.4750   27.0530   47.3440 C   0  0  0  0  0  0  0  0  0  0  0  0
   59.8720   28.0970   48.2210 O   0  0  0  0  0  0  0  0  0  0  0  0
   59.8530   29.4390   47.8070 C   0  0  0  0  0  0  0  0  0  0  0  0
   60.7530   29.9340   46.8830 C   0  0  0  0  0  0  0  0  0  0  0  0
   60.7480   31.2510   46.4660 C   0  0  0  0  0  0  0  0  0  0  0  0
   59.8070   32.1100   46.9920 C   0  0  0  0  0  0  0  0  0  0  0  0
   59.7100   33.4810   46.6340 N   0  0  0  0  0  0  0  0  0  0  0  0
   60.0790   34.5850   47.2740 C   0  0  0  0  0  0  0  0  0  0  0  0
   60.7250   34.5910   48.6160 C   0  0  0  0  0  0  0  0  0  0  0  0
   62.0340   33.8440   48.5760 C   0  0  0  0  0  0  0  0  0  0  0  0
   62.9820   33.8390   47.5840 C   0  0  0  0  0  0  0  0  0  0  0  0
   63.9930   32.9900   48.0450 C   0  0  0  0  0  0  0  0  0  0  0  0
   63.6410   32.5010   49.2940 C   0  0  0  0  0  0  0  0  0  0  0  0
   62.4450   33.0390   49.5880 N   0  0  0  0  0  0  0  0  0  0  0  0
   61.7550   32.7470   50.8410 C   0  0  0  0  0  0  0  0  0  0  0  0
   59.7580   35.6300   46.4890 N   0  0  0  0  0  0  0  0  0  0  0  0
   59.1980   35.2190   45.3740 N   0  0  0  0  0  0  0  0  0  0  0  0
   59.1640   33.8760   45.4550 C   0  0  0  0  0  0  0  0  0  0  0  0
   58.4890   32.8320   44.1710 S   0  0  0  0  0  0  0  0  0  0  0  0
   57.0060   31.9990   44.8400 C   0  0  0  0  0  0  0  0  0  0  0  0
   57.3100   30.5250   44.7860 C   0  0  0  0  0  0  0  0  0  0  0  0
   58.5230   30.1080   44.2320 C   0  0  0  0  0  0  0  0  0  0  0  0
   58.7790   28.7520   44.1930 C   0  0  0  0  0  0  0  0  0  0  0  0
   57.8780   27.8100   44.6840 C   0  0  0  0  0  0  0  0  0  0  0  0
   56.6780   28.2820   45.2290 C   0  0  0  0  0  0  0  0  0  0  0  0
   56.4380   29.6110   45.2610 N   0  0  0  0  0  0  0  0  0  0  0  0
   58.8820   31.6430   47.9280 C   0  0  0  0  0  0  0  0  0  0  0  0
   58.9030   30.3100   48.3380 C   0  0  0  0  0  0  0  0  0  0  0  0
   61.4480   26.2483   47.1216 H   0  0  0  0  0  0  0  0  0  0  0  0
   60.2844   25.7529   45.8459 H   0  0  0  0  0  0  0  0  0  0  0  0
   60.9628   27.4162   45.8459 H   0  0  0  0  0  0  0  0  0  0  0  0
   58.6660   27.4202   46.6954 H   0  0  0  0  0  0  0  0  0  0  0  0
   59.1352   26.2028   47.9536 H   0  0  0  0  0  0  0  0  0  0  0  0
   61.5051   29.2508   46.4617 H   0  0  0  0  0  0  0  0  0  0  0  0
   61.4814   31.6076   45.7278 H   0  0  0  0  0  0  0  0  0  0  0  0
   60.9109   35.6307   48.9235 H   0  0  0  0  0  0  0  0  0  0  0  0
   60.0554   34.0965   49.3351 H   0  0  0  0  0  0  0  0  0  0  0  0
   62.9529   34.3859   46.6300 H   0  0  0  0  0  0  0  0  0  0  0  0
   64.9195   32.7486   47.5034 H   0  0  0  0  0  0  0  0  0  0  0  0
   64.2248   31.8100   49.9199 H   0  0  0  0  0  0  0  0  0  0  0  0
   62.4014   33.0206   51.6879 H   0  0  0  0  0  0  0  0  0  0  0  0
   60.8218   33.3273   50.8896 H   0  0  0  0  0  0  0  0  0  0  0  0
   61.5219   31.6731   50.8896 H   0  0  0  0  0  0  0  0  0  0  0  0
   56.8231   32.3155   45.8775 H   0  0  0  0  0  0  0  0  0  0  0  0
   56.1035   32.2497   44.2632 H   0  0  0  0  0  0  0  0  0  0  0  0
   59.2493   30.8354   43.8403 H   0  0  0  0  0  0  0  0  0  0  0  0
   59.7277   28.4032   43.7590 H   0  0  0  0  0  0  0  0  0  0  0  0
   58.1014   26.7336   44.6449 H   0  0  0  0  0  0  0  0  0  0  0  0
   55.9356   27.5755   45.6285 H   0  0  0  0  0  0  0  0  0  0  0  0
   58.1317   32.3310   48.3448 H   0  0  0  0  0  0  0  0  0  0  0  0
   58.1732   29.9477   49.0770 H   0  0  0  0  0  0  0  0  0  0  0  0
  1  2  1  0
  2  3  1  0
  3  4  1  0
  4  5  2  0
  5  6  1  0
  6  7  2  0
  7  8  1  0
  8  9  1  0
  9 10  1  0
 10 11  1  0
 11 12  2  0
 12 13  1  0
 13 14  2  0
 14 15  1  0
 15 16  1  0
  9 17  2  0
 17 18  1  0
 18 19  2  0
 19 20  1  0
 20 21  1  0
 21 22  1  0
 22 23  2  0
 23 24  1  0
 24 25  2  0
 25 26  1  0
 26 27  2  0
  7 28  1  0
 28 29  2  0
 29  4  1  0
 19  8  1  0
 27 22  1  0
 15 11  1  0
  1 30  1  0
  1 31  1  0
  1 32  1  0
  2 33  1  0
  2 34  1  0
  5 35  1  0
  6 36  1  0
 10 37  1  0
 10 38  1  0
 12 39  1  0
 13 40  1  0
 14 41  1  0
 16 42  1  0
 16 43  1  0
 16 44  1  0
 21 45  1  0
 21 46  1  0
 23 47  1  0
 24 48  1  0
 25 49  1  0
 26 50  1  0
 28 51  1  0
 29 52  1  0
M  END
>  <smiles>  (4) 
CCOc1ccc(-n2c(Cc3cccn3C)nnc2SCc2ccccn2)cc1

>  <score_type>  (4) 
oracle

>  <origin>  (4) 
adg

>  <m_score__min__energy>  (4) 
-7.9199999999999999

>  <m_primary>  (4) 
energy

$$$$
4:0
     RDKit          3D

 19 19  0  0  0  0  0  0  0  0999 V2000
   56.6400   30.0020   42.6640 C   0  0  0  0  0  0  0  0  0  0  0  0
   55.5940   30.0280   43.7450 C   0  0  0  0  0  0  0  0  0  0  0  0
   56.0460   29.7180   44.9990 O   0  0  0  0  0  0  0  0  0  0  0  0
   57.3910   29.5210   45.1190 C   0  0  0  0  0  0  0  0  0  0  0  0
   58.1860   30.6750   45.5530 C   0  0  0  0  0  0  0  0  0  0  0  0
   59.3390   30.7540   46.2300 C   0  0  0  0  0  0  0  0  0  0  0  0
   59.9070   31.9270   46.5330 C   0  0  0  0  0  0  0  0  0  0  0  0
   61.5570   32.2100   47.4970 Br  0  0  0  0  0  0  0  0  0  0  0  0
   59.1900   33.0750   46.0790 C   0  0  0  0  0  0  0  0  0  0  0  0
   59.6370   34.9530   46.2900 Br  0  0  0  0  0  0  0  0  0  0  0  0
   57.7130   32.4150   45.2260 S   0  0  0  0  0  0  0  0  0  0  0  0
   57.6399   29.9771   43.1218 H   0  0  0  0  0  0  0  0  0  0  0  0
   56.5001   29.1071   42.0399 H   0  0  0  0  0  0  0  0  0  0  0  0
   56.5448   30.9028   42.0399 H   0  0  0  0  0  0  0  0  0  0  0  0
   55.1639   31.0399   43.7785 H   0  0  0  0  0  0  0  0  0  0  0  0
   54.8630   29.2492   43.4821 H   0  0  0  0  0  0  0  0  0  0  0  0
   57.5465   28.7141   45.8503 H   0  0  0  0  0  0  0  0  0  0  0  0
   57.7431   29.2910   44.1026 H   0  0  0  0  0  0  0  0  0  0  0  0
   59.8349   29.8247   46.5471 H   0  0  0  0  0  0  0  0  0  0  0  0
  1  2  1  0
  2  3  1  0
  3  4  1  0
  4  5  1  0
  5  6  2  0
  6  7  1  0
  7  8  1  0
  7  9  2  0
  9 10  1  0
  9 11  1  0
 11  5  1  0
  1 12  1  0
  1 13  1  0
  1 14  1  0
  2 15  1  0
  2 16  1  0
  4 17  1  0
  4 18  1  0
  6 19  1  0
M  END
>  <smiles>  (5) 
CCOCc1cc(Br)c(Br)s1

>  <score_type>  (5) 
oracle

>  <origin>  (5) 
adg

>  <m_score__min__energy>  (5) 
-5.29

>  <m_primary>  (5) 
energy

$$$$
5:0
     RDKit          3D

 57 59  0  0  0  0  0  0  0  0999 V2000
   56.8760   30.4530   43.0140 C   0  0  0  0  0  0  0  0  0  0  0  0
   56.3680   30.5940   44.4380 C   0  0  0  0  0  0  0  0  0  0  0  0
   57.3910   31.2960   45.2400 N   0  0  0  0  0  0  0  0  0  0  0  0
   57.8150   32.4300   44.3760 C   0  0  0  0  0  0  0  0  0  0  0  0
   57.4120   33.6750   45.1140 C   0  0  0  0  0  0  0  0  0  0  0  0
   58.5720   30.3920   45.3380 C   0  0  0  0  0  0  0  0  0  0  0  0
   59.1590   30.4900   46.6980 C   0  0  0  0  0  0  0  0  0  0  0  0
   58.8780   31.8010   47.2880 N   0  0  0  0  0  0  0  0  0  0  0  0
   59.7010   32.1200   48.4180 C   0  0  0  0  0  0  0  0  0  0  0  0
   60.9280   32.6940   48.1080 C   0  0  0  0  0  0  0  0  0  0  0  0
   61.2400   32.9750   46.8170 C   0  0  0  0  0  0  0  0  0  0  0  0
   62.4320   33.5490   46.4120 C   0  0  0  0  0  0  0  0  0  0  0  0
   63.3400   33.8410   47.4050 C   0  0  0  0  0  0  0  0  0  0  0  0
   63.0180   33.5500   48.7360 C   0  0  0  0  0  0  0  0  0  0  0  0
   61.8340   32.9850   49.1150 C   0  0  0  0  0  0  0  0  0  0  0  0
   61.5150   32.7040   50.4110 N   0  0  0  0  0  0  0  0  0  0  0  0
   62.4580   33.0240   51.4460 C   0  0  0  0  0  0  0  0  0  0  0  0
   60.3080   32.1410   50.7120 C   0  0  0  0  0  0  0  0  0  0  0  0
   59.9930   31.8590   52.0290 C   0  0  0  0  0  0  0  0  0  0  0  0
   58.7830   31.2960   52.3310 C   0  0  0  0  0  0  0  0  0  0  0  0
   58.4430   31.0020   53.6380 O   0  0  0  0  0  0  0  0  0  0  0  0
   58.2290   32.0320   54.5770 C   0  0  0  0  0  0  0  0  0  0  0  0
   57.8290   30.9870   51.3400 C   0  0  0  0  0  0  0  0  0  0  0  0
   56.7100   30.4670   51.6500 O   0  0  0  0  0  0  0  0  0  0  0  0
   55.5630   30.1180   52.1100 C   0  0  0  0  0  0  0  0  0  0  0  0
   58.1810   31.2850   50.0140 C   0  0  0  0  0  0  0  0  0  0  0  0
   59.3870   31.8440   49.7170 C   0  0  0  0  0  0  0  0  0  0  0  0
   57.9358   30.1588   43.0302 H   0  0  0  0  0  0  0  0  0  0  0  0
   56.2899   29.6836   42.4901 H   0  0  0  0  0  0  0  0  0  0  0  0
   56.7703   31.4144   42.4901 H   0  0  0  0  0  0  0  0  0  0  0  0
   55.4332   31.1738   44.4415 H   0  0  0  0  0  0  0  0  0  0  0  0
   56.1742   29.5995   44.8664 H   0  0  0  0  0  0  0  0  0  0  0  0
   58.9042   32.4099   44.2236 H   0  0  0  0  0  0  0  0  0  0  0  0
   57.3493   32.3788   43.3808 H   0  0  0  0  0  0  0  0  0  0  0  0
   57.4705   33.4942   46.1975 H   0  0  0  0  0  0  0  0  0  0  0  0
   58.0897   34.4978   44.8424 H   0  0  0  0  0  0  0  0  0  0  0  0
   56.3807   33.9446   44.8424 H   0  0  0  0  0  0  0  0  0  0  0  0
   58.2569   29.3553   45.1485 H   0  0  0  0  0  0  0  0  0  0  0  0
   59.3238   30.6890   44.5920 H   0  0  0  0  0  0  0  0  0  0  0  0
   58.7254   29.7060   47.3362 H   0  0  0  0  0  0  0  0  0  0  0  0
   60.2489   30.3609   46.6238 H   0  0  0  0  0  0  0  0  0  0  0  0
   58.1540   32.4430   46.9340 H   0  0  0  0  0  0  0  0  0  0  0  0
   60.4974   32.7306   46.0432 H   0  0  0  0  0  0  0  0  0  0  0  0
   62.6430   33.7607   45.3534 H   0  0  0  0  0  0  0  0  0  0  0  0
   64.3087   34.2983   47.1550 H   0  0  0  0  0  0  0  0  0  0  0  0
   63.7561   33.7885   49.5160 H   0  0  0  0  0  0  0  0  0  0  0  0
   61.9910   32.8655   52.4293 H   0  0  0  0  0  0  0  0  0  0  0  0
   63.3412   32.3753   51.3507 H   0  0  0  0  0  0  0  0  0  0  0  0
   62.7640   34.0763   51.3507 H   0  0  0  0  0  0  0  0  0  0  0  0
   60.7119   32.0863   52.8299 H   0  0  0  0  0  0  0  0  0  0  0  0
   58.3138   31.6237   55.5949 H   0  0  0  0  0  0  0  0  0  0  0  0
   58.9825   32.8206   54.4343 H   0  0  0  0  0  0  0  0  0  0  0  0
   57.2237   32.4552   54.4343 H   0  0  0  0  0  0  0  0  0  0  0  0
   55.5909   30.1265   53.2096 H   0  0  0  0  0  0  0  0  0  0  0  0
   54.7963   30.8235   51.7572 H   0  0  0  0  0  0  0  0  0  0  0  0
   55.3192   29.1050   51.7572 H   0  0  0  0  0  0  0  0  0  0  0  0
   57.4720   31.0637   49.2026 H   0  0  0  0  0  0  0  0  0  0  0  0
  1  2  1  0
  2  3  1  0
  3  4  1  0
  4  5  1  0
  3  6  1  0
  6  7  1  0
  7  8  1  0
  8  9  1  0
  9 10  2  0
 10 11  1  0
 11 12  2  0
 12 13  1  0
 13 14  2  0
 14 15  1  0
 15 16  2  0
 16 17  1  0
 16 18  1  0
 18 19  2  0
 19 20  1  0
 20 21  1  0
 21 22  1  0
 20 23  2  0
 23 24  1  0
 24 25  1  0
 23 26  1  0
 26 27  2  0
 27  9  1  0
 15 10  1  0
 27 18  1  0
  1 28  1  0
  1 29  1  0
  1 30  1  0
  2 31  1  0
  2 32  1  0
  4 33  1  0
  4 34  1  0
  5 35  1  0
  5 36  1  0
  5 37  1  0
  6 38  1  0
  6 39  1  0
  7 40  1  0
  7 41  1  0
  8 42  1  0
 11 43  1  0
 12 44  1  0
 13 45  1  0
 14 46  1  0
 17 47  1  0
 17 48  1  0
 17 49  1  0
 19 50  1  0
 22 51  1  0
 22 52  1  0
 22 53  1  0
 25 54  1  0
 25 55  1  0
 25 56  1  0
 26 57  1  0
M  CHG  1  16   1
M  END
>  <smiles>  (6) 
CCN(CC)CCNc1c2ccccc2[n+](C)c2cc(OC)c(OC)cc12

>  <score_type>  (6) 
oracle

>  <origin>  (6) 
adg

>  <m_score__min__energy>  (6) 
-4.9199999999999999

>  <m_primary>  (6) 
energy

$$$$
6:0
     RDKit          3D

 42 42  0  0  0  0  0  0  0  0999 V2000
   63.1680   33.8360   46.6780 C   0  0  0  0  0  0  0  0  0  0  0  0
   63.3610   32.5580   47.4620 C   0  0  0  0  0  0  0  0  0  0  0  0
   62.0410   32.0480   47.9330 C   0  0  0  0  0  0  0  0  0  0  0  0
   61.0580   31.7020   46.8710 C   0  0  0  0  0  0  0  0  0  0  0  0
   60.0580   30.2490   47.2280 S   0  0  0  0  0  0  0  0  0  0  0  0
   59.7560   29.4040   45.6470 C   0  0  0  0  0  0  0  0  0  0  0  0
   58.4350   28.6650   45.6500 C   0  0  0  0  0  0  0  0  0  0  0  0
   57.4300   29.4250   44.8300 C   0  0  0  0  0  0  0  0  0  0  0  0
   57.9680   30.2670   43.8230 N   0  0  0  0  0  0  0  0  0  0  0  0
   57.2550   31.4510   43.4980 C   0  0  0  0  0  0  0  0  0  0  0  0
   58.1040   32.6910   43.3640 C   0  0  0  0  0  0  0  0  0  0  0  0
   58.3780   33.3000   44.6550 N   0  0  0  0  0  0  0  0  0  0  0  0
   57.7440   32.9060   45.7790 C   0  0  0  0  0  0  0  0  0  0  0  0
   57.9800   33.4560   47.0180 C   0  0  0  0  0  0  0  0  0  0  0  0
   58.9030   34.4670   47.1610 C   0  0  0  0  0  0  0  0  0  0  0  0
   59.5600   34.8810   46.0200 C   0  0  0  0  0  0  0  0  0  0  0  0
   59.2840   34.2930   44.8030 C   0  0  0  0  0  0  0  0  0  0  0  0
   63.0409   34.6778   47.3746 H   0  0  0  0  0  0  0  0  0  0  0  0
   64.0494   34.0142   46.0445 H   0  0  0  0  0  0  0  0  0  0  0  0
   62.2733   33.7460   46.0445 H   0  0  0  0  0  0  0  0  0  0  0  0
   63.8352   31.8029   46.8178 H   0  0  0  0  0  0  0  0  0  0  0  0
   64.0030   32.7600   48.3321 H   0  0  0  0  0  0  0  0  0  0  0  0
   62.2238   31.1424   48.5301 H   0  0  0  0  0  0  0  0  0  0  0  0
   61.5878   32.8761   48.4977 H   0  0  0  0  0  0  0  0  0  0  0  0
   60.3826   32.5595   46.7349 H   0  0  0  0  0  0  0  0  0  0  0  0
   61.6410   31.4676   45.9681 H   0  0  0  0  0  0  0  0  0  0  0  0
   59.7444   30.1514   44.8400 H   0  0  0  0  0  0  0  0  0  0  0  0
   60.5596   28.6689   45.4924 H   0  0  0  0  0  0  0  0  0  0  0  0
   58.5754   27.6624   45.2198 H   0  0  0  0  0  0  0  0  0  0  0  0
   58.0695   28.5744   46.6835 H   0  0  0  0  0  0  0  0  0  0  0  0
   56.7697   28.6933   44.3415 H   0  0  0  0  0  0  0  0  0  0  0  0
   56.9122   30.0929   45.5341 H   0  0  0  0  0  0  0  0  0  0  0  0
   58.1580   29.7280   42.9570 H   0  0  0  0  0  0  0  0  0  0  0  0
   56.7384   31.2862   42.5409 H   0  0  0  0  0  0  0  0  0  0  0  0
   56.5699   31.6373   44.3382 H   0  0  0  0  0  0  0  0  0  0  0  0
   59.0582   32.4195   42.8887 H   0  0  0  0  0  0  0  0  0  0  0  0
   57.5509   33.4195   42.7529 H   0  0  0  0  0  0  0  0  0  0  0  0
   56.9980   32.1014   45.7006 H   0  0  0  0  0  0  0  0  0  0  0  0
   57.4298   33.0869   47.8961 H   0  0  0  0  0  0  0  0  0  0  0  0
   59.1077   34.9243   48.1403 H   0  0  0  0  0  0  0  0  0  0  0  0
   60.3084   35.6848   46.0814 H   0  0  0  0  0  0  0  0  0  0  0  0
   59.8250   34.6477   43.9133 H   0  0  0  0  0  0  0  0  0  0  0  0
  1  2  1  0
  2  3  1  0
  3  4  1  0
  4  5  1  0
  5  6  1  0
  6  7  1  0
  7  8  1  0
  8  9  1  0
  9 10  1  0
 10 11  1  0
 11 12  1  0
 12 13  2  0
 13 14  1  0
 14 15  2  0
 15 16  1  0
 16 17  2  0
 17 12  1  0
  1 18  1  0
  1 19  1  0
  1 20  1  0
  2 21  1  0
  2 22  1  0
  3 23  1  0
  3 24  1  0
  4 25  1  0
  4 26  1  0
  6 27  1  0
  6 28  1  0
  7 29  1  0
  7 30  1  0
  8 31  1  0
  8 32  1  0
  9 33  1  0
 10 34  1  0
 10 35  1  0
 11 36  1  0
 11 37  1  0
 13 38  1  0
 14 39  1  0
 15 40  1  0
 16 41  1  0
 17 42  1  0
M  CHG  1  12   1
M  END
>  <smiles>  (7) 
CCCCSCCCNCC[n+]1ccccc1

>  <score_type>  (7) 
oracle

>  <origin>  (7) 
adg

>  <m_score__min__energy>  (7) 
-3.8199999999999998

>  <m_primary>  (7) 
energy

$$$$
7:0
     RDKit          3D

 43 45  0  0  0  0  0  0  0  0999 V2000
   59.6700   28.7400   48.5170 C   0  0  0  0  0  0  0  0  0  0  0  0
   59.1230   29.3880   47.2630 C   0  0  0  0  0  0  0  0  0  0  0  0
   58.8110   28.4480   46.2440 N   0  0  0  0  0  0  0  0  0  0  0  0
   59.9030   27.8410   45.5790 C   0  0  0  0  0  0  0  0  0  0  0  0
   60.7310   28.8640   44.8460 C   0  0  0  0  0  0  0  0  0  0  0  0
   57.6290   27.6870   46.3870 C   0  0  0  0  0  0  0  0  0  0  0  0
   56.7020   28.0040   45.2010 C   0  0  0  0  0  0  0  0  0  0  0  0
   56.3890   29.4110   45.2420 N   0  0  0  0  0  0  0  0  0  0  0  0
   56.9070   30.3900   44.3680 C   0  0  0  0  0  0  0  0  0  0  0  0
   56.8150   30.3530   43.0020 C   0  0  0  0  0  0  0  0  0  0  0  0
   57.3210   31.3710   42.1980 C   0  0  0  0  0  0  0  0  0  0  0  0
   57.9520   32.4860   42.7510 C   0  0  0  0  0  0  0  0  0  0  0  0
   58.0430   32.5230   44.1190 C   0  0  0  0  0  0  0  0  0  0  0  0
   57.5420   31.5150   44.9100 C   0  0  0  0  0  0  0  0  0  0  0  0
   57.7690   31.8110   46.1460 O   0  0  0  0  0  0  0  0  0  0  0  0
   58.3920   32.9550   46.2730 C   0  0  0  0  0  0  0  0  0  0  0  0
   58.8260   33.6430   47.4060 C   0  0  0  0  0  0  0  0  0  0  0  0
   59.4750   34.8530   47.2840 C   0  0  0  0  0  0  0  0  0  0  0  0
   59.6680   35.3380   46.0030 C   0  0  0  0  0  0  0  0  0  0  0  0
   59.2330   34.6490   44.8760 C   0  0  0  0  0  0  0  0  0  0  0  0
   58.5850   33.4380   44.9970 C   0  0  0  0  0  0  0  0  0  0  0  0
   59.2483   29.2395   49.4017 H   0  0  0  0  0  0  0  0  0  0  0  0
   59.3932   27.6755   48.5303 H   0  0  0  0  0  0  0  0  0  0  0  0
   60.7659   28.8341   48.5303 H   0  0  0  0  0  0  0  0  0  0  0  0
   58.2075   29.9392   47.5238 H   0  0  0  0  0  0  0  0  0  0  0  0
   59.9046   30.0541   46.8686 H   0  0  0  0  0  0  0  0  0  0  0  0
   60.5361   27.3312   46.3202 H   0  0  0  0  0  0  0  0  0  0  0  0
   59.5085   27.1220   44.8460 H   0  0  0  0  0  0  0  0  0  0  0  0
   61.2500   29.5052   45.5736 H   0  0  0  0  0  0  0  0  0  0  0  0
   61.4719   28.3518   44.2146 H   0  0  0  0  0  0  0  0  0  0  0  0
   60.0757   29.4819   44.2146 H   0  0  0  0  0  0  0  0  0  0  0  0
   57.8753   26.6149   46.3900 H   0  0  0  0  0  0  0  0  0  0  0  0
   57.1300   27.9377   47.3347 H   0  0  0  0  0  0  0  0  0  0  0  0
   57.2098   27.7622   44.2556 H   0  0  0  0  0  0  0  0  0  0  0  0
   55.7809   27.4062   45.2663 H   0  0  0  0  0  0  0  0  0  0  0  0
   55.7110   29.7130   45.9980 H   0  0  0  0  0  0  0  0  0  0  0  0
   56.3256   29.4913   42.5246 H   0  0  0  0  0  0  0  0  0  0  0  0
   57.2213   31.2948   41.1052 H   0  0  0  0  0  0  0  0  0  0  0  0
   58.3555   33.2934   42.1223 H   0  0  0  0  0  0  0  0  0  0  0  0
   58.6490   33.2168   48.4045 H   0  0  0  0  0  0  0  0  0  0  0  0
   59.8242   35.4086   48.1668 H   0  0  0  0  0  0  0  0  0  0  0  0
   60.1829   36.3011   45.8713 H   0  0  0  0  0  0  0  0  0  0  0  0
   59.4078   35.0749   43.8770 H   0  0  0  0  0  0  0  0  0  0  0  0
  1  2  1  0
  2  3  1  0
  3  4  1  0
  4  5  1  0
  3  6  1  0
  6  7  1  0
  7  8  1  0
  8  9  1  0
  9 10  2  0
 10 11  1  0
 11 12  2  0
 12 13  1  0
 13 14  2  0
 14 15  1  0
 15 16  1  0
 16 17  2  0
 17 18  1  0
 18 19  2  0
 19 20  1  0
 20 21  2  0
 14  9  1  0
 21 16  1  0
 21 13  1  0
  1 22  1  0
  1 23  1  0
  1 24  1  0
  2 25  1  0
  2 26  1  0
  4 27  1  0
  4 28  1  0
  5 29  1  0
  5 30  1  0
  5 31  1  0
  6 32  1  0
  6 33  1  0
  7 34  1  0
  7 35  1  0
  8 36  1  0
 10 37  1  0
 11 38  1  0
 12 39  1  0
 17 40  1  0
 18 41  1  0
 19 42  1  0
 20 43  1  0
M  END
>  <smiles>  (8) 
CCN(CC)CCNc1cccc2c1oc1ccccc12

>  <score_type>  (8) 
oracle

>  <origin>  (8) 
adg

>  <m_score__min__energy>  (8) 
-7.4100000000000001

>  <m_primary>  (8) 
energy

$$$$
8:0
     RDKit          3D

 39 41  0  0  0  0  0  0  0  0999 V2000
   57.8420   34.7710   44.5020 O   0  0  0  0  0  0  0  0  0  0  0  0
   57.8970   33.6610   45.1090 C   0  0  0  0  0  0  0  0  0  0  0  0
   57.4400   32.4970   44.3820 C   0  0  0  0  0  0  0  0  0  0  0  0
   57.7840   32.4020   43.0390 C   0  0  0  0  0  0  0  0  0  0  0  0
   57.3930   31.3690   42.3000 N   0  0  0  0  0  0  0  0  0  0  0  0
   56.6520   30.3760   42.8170 C   0  0  0  0  0  0  0  0  0  0  0  0
   56.2980   30.4530   44.1610 C   0  0  0  0  0  0  0  0  0  0  0  0
   56.7030   31.5110   44.8970 N   0  0  0  0  0  0  0  0  0  0  0  0
   58.3980   33.6260   46.4490 N   0  0  0  0  0  0  0  0  0  0  0  0
   59.2610   34.6410   46.9530 C   0  0  0  0  0  0  0  0  0  0  0  0
   60.6230   34.2060   47.3200 C   0  0  0  0  0  0  0  0  0  0  0  0
   61.5430   33.8290   46.3500 C   0  0  0  0  0  0  0  0  0  0  0  0
   62.8110   33.4380   46.7350 C   0  0  0  0  0  0  0  0  0  0  0  0
   63.2190   33.4020   48.0400 C   0  0  0  0  0  0  0  0  0  0  0  0
   62.2980   33.7790   49.0120 C   0  0  0  0  0  0  0  0  0  0  0  0
   61.0060   34.1800   48.6580 C   0  0  0  0  0  0  0  0  0  0  0  0
   57.9820   32.5710   47.3450 C   0  0  0  0  0  0  0  0  0  0  0  0
   58.9620   31.4730   47.4240 C   0  0  0  0  0  0  0  0  0  0  0  0
   59.2970   31.0110   48.7130 C   0  0  0  0  0  0  0  0  0  0  0  0
   60.2060   29.9490   48.7890 C   0  0  0  0  0  0  0  0  0  0  0  0
   60.7500   29.3800   47.7140 N   0  0  0  0  0  0  0  0  0  0  0  0
   60.4380   29.8150   46.4550 C   0  0  0  0  0  0  0  0  0  0  0  0
   59.5350   30.8730   46.2970 C   0  0  0  0  0  0  0  0  0  0  0  0
   58.3908   33.1960   42.5794 H   0  0  0  0  0  0  0  0  0  0  0  0
   56.3336   29.5256   42.1961 H   0  0  0  0  0  0  0  0  0  0  0  0
   55.6926   29.6578   44.6207 H   0  0  0  0  0  0  0  0  0  0  0  0
   59.3524   35.4194   46.1812 H   0  0  0  0  0  0  0  0  0  0  0  0
   58.7975   34.9882   47.8882 H   0  0  0  0  0  0  0  0  0  0  0  0
   61.2648   33.8416   45.2858 H   0  0  0  0  0  0  0  0  0  0  0  0
   63.5269   33.1413   45.9543 H   0  0  0  0  0  0  0  0  0  0  0  0
   64.2374   33.0867   48.3108 H   0  0  0  0  0  0  0  0  0  0  0  0
   62.5897   33.7614   50.0725 H   0  0  0  0  0  0  0  0  0  0  0  0
   60.2902   34.4758   49.4392 H   0  0  0  0  0  0  0  0  0  0  0  0
   57.8476   32.9959   48.3507 H   0  0  0  0  0  0  0  0  0  0  0  0
   57.0440   32.1518   46.9521 H   0  0  0  0  0  0  0  0  0  0  0  0
   58.8642   31.4639   49.6172 H   0  0  0  0  0  0  0  0  0  0  0  0
   60.4840   29.5666   49.7822 H   0  0  0  0  0  0  0  0  0  0  0  0
   60.8927   29.3376   45.5745 H   0  0  0  0  0  0  0  0  0  0  0  0
   59.2766   31.2317   45.2898 H   0  0  0  0  0  0  0  0  0  0  0  0
  1  2  2  0
  2  3  1  0
  3  4  2  0
  4  5  1  0
  5  6  2  0
  6  7  1  0
  7  8  2  0
  2  9  1  0
  9 10  1  0
 10 11  1  0
 11 12  2  0
 12 13  1  0
 13 14  2  0
 14 15  1  0
 15 16  2  0
  9 17  1  0
 17 18  1  0
 18 19  2  0
 19 20  1  0
 20 21  2  0
 21 22  1  0
 22 23  2  0
  8  3  1  0
 16 11  1  0
 23 18  1  0
  4 24  1  0
  6 25  1  0
  7 26  1  0
 10 27  1  0
 10 28  1  0
 12 29  1  0
 13 30  1  0
 14 31  1  0
 15 32  1  0
 16 33  1  0
 17 34  1  0
 17 35  1  0
 19 36  1  0
 20 37  1  0
 22 38  1  0
 23 39  1  0
M  END
>  <smiles>  (9) 
O=C(c1cnccn1)N(Cc1ccccc1)Cc1ccncc1

>  <score_type>  (9) 
oracle

>  <origin>  (9) 
adg

>  <m_score__min__energy>  (9) 
-7.0300000000000002

>  <m_primary>  (9) 
energy

$$$$
9:0
     RDKit          3D

 34 35  0  0  0  0  0  0  0  0999 V2000
   55.5190   24.0320   46.1330 C   0  0  0  0  0  0  0  0  0  0  0  0
   54.6790   25.1820   45.6190 C   0  0  0  0  0  0  0  0  0  0  0  0
   55.1540   26.4160   46.0220 O   0  0  0  0  0  0  0  0  0  0  0  0
   56.5130   26.4720   46.2250 C   0  0  0  0  0  0  0  0  0  0  0  0
   57.3170   26.7900   44.9870 C   0  0  0  0  0  0  0  0  0  0  0  0
   57.8520   28.1340   45.0390 N   0  0  0  0  0  0  0  0  0  0  0  0
   56.9310   29.2130   44.9590 C   0  0  0  0  0  0  0  0  0  0  0  0
   55.7050   28.9430   44.8470 O   0  0  0  0  0  0  0  0  0  0  0  0
   57.4050   30.5940   45.0060 C   0  0  0  0  0  0  0  0  0  0  0  0
   57.4000   31.3500   43.8520 C   0  0  0  0  0  0  0  0  0  0  0  0
   57.8390   32.6580   43.8560 C   0  0  0  0  0  0  0  0  0  0  0  0
   58.2850   33.1950   45.0460 C   0  0  0  0  0  0  0  0  0  0  0  0
   58.7330   34.5180   45.0700 C   0  0  0  0  0  0  0  0  0  0  0  0
   59.1760   35.0300   46.2910 C   0  0  0  0  0  0  0  0  0  0  0  0
   59.1760   34.2620   47.4380 C   0  0  0  0  0  0  0  0  0  0  0  0
   58.7340   32.9560   47.4200 C   0  0  0  0  0  0  0  0  0  0  0  0
   58.2930   32.4380   46.2180 C   0  0  0  0  0  0  0  0  0  0  0  0
   57.8500   31.1710   46.1360 N   0  0  0  0  0  0  0  0  0  0  0  0
   55.5148   24.0378   47.2330 H   0  0  0  0  0  0  0  0  0  0  0  0
   55.1010   23.0816   45.7697 H   0  0  0  0  0  0  0  0  0  0  0  0
   56.5515   24.1411   45.7697 H   0  0  0  0  0  0  0  0  0  0  0  0
   54.6743   25.1495   44.5195 H   0  0  0  0  0  0  0  0  0  0  0  0
   53.6678   25.0648   46.0358 H   0  0  0  0  0  0  0  0  0  0  0  0
   56.7167   27.2492   46.9763 H   0  0  0  0  0  0  0  0  0  0  0  0
   56.8229   25.4681   46.5508 H   0  0  0  0  0  0  0  0  0  0  0  0
   58.1496   26.0756   44.9070 H   0  0  0  0  0  0  0  0  0  0  0  0
   56.6538   26.7136   44.1128 H   0  0  0  0  0  0  0  0  0  0  0  0
   58.8820   28.2750   45.1330 H   0  0  0  0  0  0  0  0  0  0  0  0
   57.0402   30.9028   42.9136 H   0  0  0  0  0  0  0  0  0  0  0  0
   57.8335   33.2575   42.9337 H   0  0  0  0  0  0  0  0  0  0  0  0
   58.7366   35.1346   44.1591 H   0  0  0  0  0  0  0  0  0  0  0  0
   59.5332   36.0692   46.3401 H   0  0  0  0  0  0  0  0  0  0  0  0
   59.5344   34.6989   48.3817 H   0  0  0  0  0  0  0  0  0  0  0  0
   58.7327   32.3454   48.3350 H   0  0  0  0  0  0  0  0  0  0  0  0
  1  2  1  0
  2  3  1  0
  3  4  1  0
  4  5  1  0
  5  6  1  0
  6  7  1  0
  7  8  2  0
  7  9  1  0
  9 10  2  0
 10 11  1  0
 11 12  2  0
 12 13  1  0
 13 14  2  0
 14 15  1  0
 15 16  2  0
 16 17  1  0
 17 18  2  0
 18  9  1  0
 17 12  1  0
  1 19  1  0
  1 20  1  0
  1 21  1  0
  2 22  1  0
  2 23  1  0
  4 24  1  0
  4 25  1  0
  5 26  1  0
  5 27  1  0
  6 28  1  0
 10 29  1  0
 11 30  1  0
 13 31  1  0
 14 32  1  0
 15 33  1  0
 16 34  1  0
M  END
>  <smiles>  (10) 
CCOCCNC(=O)c1ccc2ccccc2n1

>  <score_type>  (10) 
oracle

>  <origin>  (10) 
adg

>  <m_score__min__energy>  (10) 
-7.1799999999999997

>  <m_primary>  (10) 
energy

$$$$
10:0
     RDKit          3D

 70 73  0  0  0  0  0  0  0  0999 V2000
   56.7760   30.0640   44.1270 C   0  0  0  0  0  0  0  0  0  0  0  0
   56.9690   29.6900   45.4550 O   0  0  0  0  0  0  0  0  0  0  0  0
   57.6430   28.5880   45.9060 C   0  0  0  0  0  0  0  0  0  0  0  0
   57.0750   27.3490   45.6040 C   0  0  0  0  0  0  0  0  0  0  0  0
   57.6590   26.1690   46.0070 C   0  0  0  0  0  0  0  0  0  0  0  0
   58.8330   26.2750   46.7220 C   0  0  0  0  0  0  0  0  0  0  0  0
   59.4060   27.5170   47.0270 C   0  0  0  0  0  0  0  0  0  0  0  0
   58.8210   28.7090   46.6230 C   0  0  0  0  0  0  0  0  0  0  0  0
   59.4380   29.9290   46.9300 N   0  0  0  0  0  0  0  0  0  0  0  0
   60.8860   30.0540   47.2100 C   0  0  0  0  0  0  0  0  0  0  0  0
   60.9220   30.4220   48.6880 C   0  0  0  0  0  0  0  0  0  0  0  0
   60.1550   31.5780   48.8850 N   0  0  0  0  0  0  0  0  0  0  0  0
   60.5320   32.4570   49.9320 C   0  0  0  0  0  0  0  0  0  0  0  0
   61.1360   33.6700   49.3740 C   0  0  0  0  0  0  0  0  0  0  0  0
   61.8910   34.3630   50.1380 O   0  0  0  0  0  0  0  0  0  0  0  0
   60.9690   34.1650   48.0620 N   0  0  0  0  0  0  0  0  0  0  0  0
   62.0250   33.8220   47.1050 C   0  0  0  0  0  0  0  0  0  0  0  0
   63.0830   32.9880   47.7190 C   0  0  0  0  0  0  0  0  0  0  0  0
   63.2130   31.8130   47.2750 O   0  0  0  0  0  0  0  0  0  0  0  0
   63.8910   33.5240   48.7570 N   0  0  0  0  0  0  0  0  0  0  0  0
   64.9280   32.6880   49.3500 C   0  0  0  0  0  0  0  0  0  0  0  0
   64.2850   31.6450   50.2740 C   0  0  0  0  0  0  0  0  0  0  0  0
   65.3450   31.3620   51.3250 C   0  0  0  0  0  0  0  0  0  0  0  0
   66.4500   32.3620   51.1170 C   0  0  0  0  0  0  0  0  0  0  0  0
   65.7730   33.4480   50.3190 C   0  0  0  0  0  0  0  0  0  0  0  0
   59.8700   34.9700   47.5980 C   0  0  0  0  0  0  0  0  0  0  0  0
   59.1050   34.4150   46.4770 C   0  0  0  0  0  0  0  0  0  0  0  0
   57.7590   34.0680   46.6400 C   0  0  0  0  0  0  0  0  0  0  0  0
   57.0240   33.5340   45.5860 C   0  0  0  0  0  0  0  0  0  0  0  0
   57.5740   33.3210   44.3410 C   0  0  0  0  0  0  0  0  0  0  0  0
   58.8960   33.6600   44.1750 C   0  0  0  0  0  0  0  0  0  0  0  0
   59.6240   34.1890   45.2200 C   0  0  0  0  0  0  0  0  0  0  0  0
   58.8030   31.6080   48.4670 C   0  0  0  0  0  0  0  0  0  0  0  0
   58.7450   31.2200   47.0010 C   0  0  0  0  0  0  0  0  0  0  0  0
   56.2718   31.0410   44.0908 H   0  0  0  0  0  0  0  0  0  0  0  0
   57.7500   30.1350   43.6208 H   0  0  0  0  0  0  0  0  0  0  0  0
   56.1538   29.3113   43.6208 H   0  0  0  0  0  0  0  0  0  0  0  0
   56.1374   27.3146   45.0297 H   0  0  0  0  0  0  0  0  0  0  0  0
   57.2119   25.1921   45.7707 H   0  0  0  0  0  0  0  0  0  0  0  0
   59.3348   25.3575   47.0632 H   0  0  0  0  0  0  0  0  0  0  0  0
   60.3436   27.5480   47.6014 H   0  0  0  0  0  0  0  0  0  0  0  0
   61.4071   29.1026   47.0272 H   0  0  0  0  0  0  0  0  0  0  0  0
   61.3881   30.7929   46.5682 H   0  0  0  0  0  0  0  0  0  0  0  0
   60.5064   29.5966   49.2846 H   0  0  0  0  0  0  0  0  0  0  0  0
   61.9602   30.6047   49.0022 H   0  0  0  0  0  0  0  0  0  0  0  0
   59.6415   32.7295   50.5175 H   0  0  0  0  0  0  0  0  0  0  0  0
   61.2646   31.9538   50.5802 H   0  0  0  0  0  0  0  0  0  0  0  0
   61.5778   33.2674   46.2669 H   0  0  0  0  0  0  0  0  0  0  0  0
   62.4884   34.7586   46.7615 H   0  0  0  0  0  0  0  0  0  0  0  0
   63.7850   34.4950   49.1250 H   0  0  0  0  0  0  0  0  0  0  0  0
   65.4964   32.2826   48.4999 H   0  0  0  0  0  0  0  0  0  0  0  0
   63.3735   32.0477   50.7398 H   0  0  0  0  0  0  0  0  0  0  0  0
   63.9808   30.7374   49.7321 H   0  0  0  0  0  0  0  0  0  0  0  0
   64.9178   31.4754   52.3323 H   0  0  0  0  0  0  0  0  0  0  0  0
   65.7242   30.3336   51.2326 H   0  0  0  0  0  0  0  0  0  0  0  0
   66.8202   32.7488   52.0779 H   0  0  0  0  0  0  0  0  0  0  0  0
   67.3318   31.9380   50.6143 H   0  0  0  0  0  0  0  0  0  0  0  0
   65.1531   34.0848   50.9672 H   0  0  0  0  0  0  0  0  0  0  0  0
   66.4847   34.1279   49.8279 H   0  0  0  0  0  0  0  0  0  0  0  0
   59.1779   35.1153   48.4406 H   0  0  0  0  0  0  0  0  0  0  0  0
   60.3180   35.9022   47.2233 H   0  0  0  0  0  0  0  0  0  0  0  0
   57.2748   34.2197   47.6160 H   0  0  0  0  0  0  0  0  0  0  0  0
   55.9684   33.2732   45.7525 H   0  0  0  0  0  0  0  0  0  0  0  0
   56.9816   32.8983   43.5161 H   0  0  0  0  0  0  0  0  0  0  0  0
   59.3782   33.5076   43.1981 H   0  0  0  0  0  0  0  0  0  0  0  0
   60.6786   34.4451   45.0404 H   0  0  0  0  0  0  0  0  0  0  0  0
   58.2141   30.8955   49.0633 H   0  0  0  0  0  0  0  0  0  0  0  0
   58.3868   32.6165   48.6073 H   0  0  0  0  0  0  0  0  0  0  0  0
   57.7017   31.1191   46.6674 H   0  0  0  0  0  0  0  0  0  0  0  0
   59.2080   31.9773   46.3513 H   0  0  0  0  0  0  0  0  0  0  0  0
  1  2  1  0
  2  3  1  0
  3  4  2  0
  4  5  1  0
  5  6  2  0
  6  7  1  0
  7  8  2  0
  8  9  1  0
  9 10  1  0
 10 11  1  0
 11 12  1  0
 12 13  1  0
 13 14  1  0
 14 15  2  0
 14 16  1  0
 16 17  1  0
 17 18  1  0
 18 19  2  0
 18 20  1  0
 20 21  1  0
 21 22  1  0
 22 23  1  0
 23 24  1  0
 24 25  1  0
 16 26  1  0
 26 27  1  0
 27 28  2  0
 28 29  1  0
 29 30  2  0
 30 31  1  0
 31 32  2  0
 12 33  1  0
 33 34  1  0
  8  3  1  0
 34  9  1  0
 25 21  1  0
 32 27  1  0
  1 35  1  0
  1 36  1  0
  1 37  1  0
  4 38  1  0
  5 39  1  0
  6 40  1  0
  7 41  1  0
 10 42  1  0
 10 43  1  0
 11 44  1  0
 11 45  1  0
 13 46  1  0
 13 47  1  0
 17 48  1  0
 17 49  1  0
 20 50  1  0
 21 51  1  0
 22 52  1  0
 22 53  1  0
 23 54  1  0
 23 55  1  0
 24 56  1  0
 24 57  1  0
 25 58  1  0
 25 59  1  0
 26 60  1  0
 26 61  1  0
 28 62  1  0
 29 63  1  0
 30 64  1  0
 31 65  1  0
 32 66  1  0
 33 67  1  0
 33 68  1  0
 34 69  1  0
 34 70  1  0
M  END
>  <smiles>  (11) 
COc1ccccc1N1CCN(CC(=O)N(CC(=O)NC2CCCC2)Cc2ccccc2)CC1

>  <score_type>  (11) 
oracle

>  <origin>  (11) 
adg

>  <m_score__min__energy>  (11) 
-9.0700000000000003

>  <m_primary>  (11) 
energy

$$$$
11:0
     RDKit          3D

 30 32  0  0  0  0  0  0  0  0999 V2000
   55.2280   29.7310   43.7190 C   0  0  0  0  0  0  0  0  0  0  0  0
   56.3810   30.1450   44.4910 N   0  0  0  0  0  0  0  0  0  0  0  0
   56.6550   31.4040   44.7700 N   0  0  0  0  0  0  0  0  0  0  0  0
   57.7920   31.4900   45.5060 C   0  0  0  0  0  0  0  0  0  0  0  0
   58.3470   32.7540   45.9660 C   0  0  0  0  0  0  0  0  0  0  0  0
   58.7270   33.6970   45.0220 C   0  0  0  0  0  0  0  0  0  0  0  0
   59.2620   34.9200   45.3620 C   0  0  0  0  0  0  0  0  0  0  0  0
   59.4170   35.1990   46.7020 C   0  0  0  0  0  0  0  0  0  0  0  0
   59.0510   34.2890   47.6030 N   0  0  0  0  0  0  0  0  0  0  0  0
   58.5230   33.0810   47.2870 C   0  0  0  0  0  0  0  0  0  0  0  0
   58.2230   30.2350   45.6780 N   0  0  0  0  0  0  0  0  0  0  0  0
   57.3540   29.4040   45.0520 C   0  0  0  0  0  0  0  0  0  0  0  0
   57.3920   27.9480   44.9560 C   0  0  0  0  0  0  0  0  0  0  0  0
   57.7760   27.4020   43.7310 C   0  0  0  0  0  0  0  0  0  0  0  0
   57.8260   26.0140   43.5930 C   0  0  0  0  0  0  0  0  0  0  0  0
   57.4960   25.2030   44.6650 C   0  0  0  0  0  0  0  0  0  0  0  0
   57.5450   23.4470   44.5300 Cl  0  0  0  0  0  0  0  0  0  0  0  0
   57.1100   25.7260   45.8930 C   0  0  0  0  0  0  0  0  0  0  0  0
   57.0730   27.1210   45.9890 C   0  0  0  0  0  0  0  0  0  0  0  0
   54.4157   29.4393   44.4009 H   0  0  0  0  0  0  0  0  0  0  0  0
   54.8927   30.5649   43.0848 H   0  0  0  0  0  0  0  0  0  0  0  0
   55.4997   28.8743   43.0848 H   0  0  0  0  0  0  0  0  0  0  0  0
   58.5954   33.4578   43.9564 H   0  0  0  0  0  0  0  0  0  0  0  0
   59.5550   35.6478   44.5910 H   0  0  0  0  0  0  0  0  0  0  0  0
   59.8384   36.1626   47.0243 H   0  0  0  0  0  0  0  0  0  0  0  0
   58.2394   32.3723   48.0791 H   0  0  0  0  0  0  0  0  0  0  0  0
   58.0357   28.0562   42.8857 H   0  0  0  0  0  0  0  0  0  0  0  0
   58.1269   25.5657   42.6346 H   0  0  0  0  0  0  0  0  0  0  0  0
   56.8479   25.0787   46.7429 H   0  0  0  0  0  0  0  0  0  0  0  0
   56.7714   27.5717   46.9460 H   0  0  0  0  0  0  0  0  0  0  0  0
  1  2  1  0
  2  3  1  0
  3  4  2  0
  4  5  1  0
  5  6  2  0
  6  7  1  0
  7  8  2  0
  8  9  1  0
  9 10  2  0
  4 11  1  0
 11 12  2  0
 12 13  1  0
 13 14  2  0
 14 15  1  0
 15 16  2  0
 16 17  1  0
 16 18  1  0
 18 19  2  0
 12  2  1  0
 19 13  1  0
 10  5  1  0
  1 20  1  0
  1 21  1  0
  1 22  1  0
  6 23  1  0
  7 24  1  0
  8 25  1  0
 10 26  1  0
 14 27  1  0
 15 28  1  0
 18 29  1  0
 19 30  1  0
M  END
>  <smiles>  (12) 
Cn1nc(-c2cccnc2)nc1-c1ccc(Cl)cc1

>  <score_type>  (12) 
oracle

>  <origin>  (12) 
adg

>  <m_score__min__energy>  (12) 
-7

>  <m_primary>  (12) 
energy

$$$$
12:0
     RDKit          3D

 47 50  0  0  0  0  0  0  0  0999 V2000
   56.1080   22.4430   45.0560 C   0  0  0  0  0  0  0  0  0  0  0  0
   56.2780   23.8800   45.2150 N   0  0  0  0  0  0  0  0  0  0  0  0
   55.5760   24.5170   46.1930 C   0  0  0  0  0  0  0  0  0  0  0  0
   54.8050   23.8280   46.9220 O   0  0  0  0  0  0  0  0  0  0  0  0
   55.7080   25.8500   46.3710 N   0  0  0  0  0  0  0  0  0  0  0  0
   56.5430   26.5480   45.5690 C   0  0  0  0  0  0  0  0  0  0  0  0
   56.6690   27.9100   45.7610 C   0  0  0  0  0  0  0  0  0  0  0  0
   57.5210   28.6500   44.9500 C   0  0  0  0  0  0  0  0  0  0  0  0
   57.5780   30.0890   45.2430 C   0  0  0  0  0  0  0  0  0  0  0  0
   56.8400   30.8210   44.5290 O   0  0  0  0  0  0  0  0  0  0  0  0
   58.4140   30.6140   46.2650 N   0  0  0  0  0  0  0  0  0  0  0  0
   59.2700   29.7950   47.0970 C   0  0  0  0  0  0  0  0  0  0  0  0
   60.7010   30.2910   46.9020 C   0  0  0  0  0  0  0  0  0  0  0  0
   60.7170   31.6780   47.3230 N   0  0  0  0  0  0  0  0  0  0  0  0
   61.9490   32.2490   47.7570 C   0  0  0  0  0  0  0  0  0  0  0  0
   62.5310   33.3370   47.1140 C   0  0  0  0  0  0  0  0  0  0  0  0
   63.7250   33.8890   47.5340 C   0  0  0  0  0  0  0  0  0  0  0  0
   64.3940   33.3710   48.6210 C   0  0  0  0  0  0  0  0  0  0  0  0
   63.8420   32.3010   49.2700 C   0  0  0  0  0  0  0  0  0  0  0  0
   62.6450   31.7540   48.8440 C   0  0  0  0  0  0  0  0  0  0  0  0
   59.5470   32.5270   47.3270 C   0  0  0  0  0  0  0  0  0  0  0  0
   58.4160   32.0320   46.4920 C   0  0  0  0  0  0  0  0  0  0  0  0
   58.2660   28.0770   43.9390 C   0  0  0  0  0  0  0  0  0  0  0  0
   58.1280   26.6960   43.7570 C   0  0  0  0  0  0  0  0  0  0  0  0
   57.2770   25.9480   44.5620 C   0  0  0  0  0  0  0  0  0  0  0  0
   57.1230   24.5830   44.4040 C   0  0  0  0  0  0  0  0  0  0  0  0
   57.7780   23.9880   43.4920 O   0  0  0  0  0  0  0  0  0  0  0  0
   56.0519   21.9686   46.0468 H   0  0  0  0  0  0  0  0  0  0  0  0
   55.1799   22.2428   44.5005 H   0  0  0  0  0  0  0  0  0  0  0  0
   56.9638   22.0318   44.5005 H   0  0  0  0  0  0  0  0  0  0  0  0
   55.1500   26.3230   47.1400 H   0  0  0  0  0  0  0  0  0  0  0  0
   56.0950   28.4089   46.5558 H   0  0  0  0  0  0  0  0  0  0  0  0
   58.9772   29.8956   48.1525 H   0  0  0  0  0  0  0  0  0  0  0  0
   59.1840   28.7341   46.8192 H   0  0  0  0  0  0  0  0  0  0  0  0
   61.3953   29.6993   47.5167 H   0  0  0  0  0  0  0  0  0  0  0  0
   61.0175   30.1900   45.8534 H   0  0  0  0  0  0  0  0  0  0  0  0
   62.0225   33.7724   46.2411 H   0  0  0  0  0  0  0  0  0  0  0  0
   64.1460   34.7507   46.9953 H   0  0  0  0  0  0  0  0  0  0  0  0
   65.3464   33.8061   48.9580 H   0  0  0  0  0  0  0  0  0  0  0  0
   64.3564   31.8701   50.1416 H   0  0  0  0  0  0  0  0  0  0  0  0
   62.2317   30.8934   49.3904 H   0  0  0  0  0  0  0  0  0  0  0  0
   59.1930   32.6177   48.3645 H   0  0  0  0  0  0  0  0  0  0  0  0
   59.8584   33.4875   46.8907 H   0  0  0  0  0  0  0  0  0  0  0  0
   57.4754   32.2998   46.9955 H   0  0  0  0  0  0  0  0  0  0  0  0
   58.5281   32.5047   45.5051 H   0  0  0  0  0  0  0  0  0  0  0  0
   58.9364   28.6772   43.3063 H   0  0  0  0  0  0  0  0  0  0  0  0
   58.7023   26.1946   42.9641 H   0  0  0  0  0  0  0  0  0  0  0  0
  1  2  1  0
  2  3  1  0
  3  4  2  0
  3  5  1  0
  5  6  1  0
  6  7  2  0
  7  8  1  0
  8  9  1  0
  9 10  2  0
  9 11  1  0
 11 12  1  0
 12 13  1  0
 13 14  1  0
 14 15  1  0
 15 16  2  0
 16 17  1  0
 17 18  2  0
 18 19  1  0
 19 20  2  0
 14 21  1  0
 21 22  1  0
  8 23  2  0
 23 24  1  0
 24 25  2  0
 25 26  1  0
 26 27  2  0
 26  2  1  0
 25  6  1  0
 22 11  1  0
 20 15  1  0
  1 28  1  0
  1 29  1  0
  1 30  1  0
  5 31  1  0
  7 32  1  0
 12 33  1  0
 12 34  1  0
 13 35  1  0
 13 36  1  0
 16 37  1  0
 17 38  1  0
 18 39  1  0
 19 40  1  0
 20 41  1  0
 21 42  1  0
 21 43  1  0
 22 44  1  0
 22 45  1  0
 23 46  1  0
 24 47  1  0
M  END
>  <smiles>  (13) 
Cn1c(=O)[nH]c2cc(C(=O)N3CCN(c4ccccc4)CC3)ccc2c1=O

>  <score_type>  (13) 
oracle

>  <origin>  (13) 
adg

>  <m_score__min__energy>  (13) 
-8.4700000000000006

>  <m_primary>  (13) 
energy

$$$$
13:0
     RDKit          3D

 47 49  0  0  0  0  0  0  0  0999 V2000
   60.0310   22.5820   45.2240 C   0  0  0  0  0  0  0  0  0  0  0  0
   58.6340   22.0080   45.2590 C   0  0  0  0  0  0  0  0  0  0  0  0
   58.0280   21.9480   43.8710 C   0  0  0  0  0  0  0  0  0  0  0  0
   56.4010   22.6590   43.8630 S   0  0  0  0  0  0  0  0  0  0  0  0
   55.6690   22.0500   45.0320 O   0  0  0  0  0  0  0  0  0  0  0  0
   55.6570   22.2510   42.6260 O   0  0  0  0  0  0  0  0  0  0  0  0
   56.4230   24.3670   44.0750 N   0  0  0  0  0  0  0  0  0  0  0  0
   56.6910   24.6440   45.4660 C   0  0  0  0  0  0  0  0  0  0  0  0
   56.4690   26.1250   45.6860 C   0  0  0  0  0  0  0  0  0  0  0  0
   57.3900   26.8300   44.8210 N   0  0  0  0  0  0  0  0  0  0  0  0
   57.5310   28.2400   44.9810 C   0  0  0  0  0  0  0  0  0  0  0  0
   58.7970   28.7310   45.2670 C   0  0  0  0  0  0  0  0  0  0  0  0
   58.9870   30.0900   45.4320 C   0  0  0  0  0  0  0  0  0  0  0  0
   57.8690   30.9160   45.2970 C   0  0  0  0  0  0  0  0  0  0  0  0
   58.1080   32.3120   45.4740 N   0  0  0  0  0  0  0  0  0  0  0  0
   57.3950   33.2430   44.8010 C   0  0  0  0  0  0  0  0  0  0  0  0
   57.8510   34.4900   45.1770 C   0  0  0  0  0  0  0  0  0  0  0  0
   58.8530   34.2520   46.0920 C   0  0  0  0  0  0  0  0  0  0  0  0
   59.6450   35.2980   46.7770 C   0  0  0  0  0  0  0  0  0  0  0  0
   59.0120   32.9030   46.2730 C   0  0  0  0  0  0  0  0  0  0  0  0
   56.6750   30.3980   45.0210 N   0  0  0  0  0  0  0  0  0  0  0  0
   56.4990   29.0820   44.8640 N   0  0  0  0  0  0  0  0  0  0  0  0
   58.1450   26.1060   43.8210 C   0  0  0  0  0  0  0  0  0  0  0  0
   57.3510   25.0030   43.1810 C   0  0  0  0  0  0  0  0  0  0  0  0
   60.3923   22.7304   46.2523 H   0  0  0  0  0  0  0  0  0  0  0  0
   60.7003   21.8860   44.6971 H   0  0  0  0  0  0  0  0  0  0  0  0
   60.0176   23.5475   44.6971 H   0  0  0  0  0  0  0  0  0  0  0  0
   58.6749   20.9911   45.6763 H   0  0  0  0  0  0  0  0  0  0  0  0
   58.0063   22.6603   45.8839 H   0  0  0  0  0  0  0  0  0  0  0  0
   58.6691   22.5063   43.1730 H   0  0  0  0  0  0  0  0  0  0  0  0
   57.9542   20.8945   43.5634 H   0  0  0  0  0  0  0  0  0  0  0  0
   56.0078   24.0631   46.1030 H   0  0  0  0  0  0  0  0  0  0  0  0
   57.7229   24.3643   45.7249 H   0  0  0  0  0  0  0  0  0  0  0  0
   55.4330   26.3925   45.4310 H   0  0  0  0  0  0  0  0  0  0  0  0
   56.6404   26.3928   46.7390 H   0  0  0  0  0  0  0  0  0  0  0  0
   59.6476   28.0400   45.3622 H   0  0  0  0  0  0  0  0  0  0  0  0
   59.9798   30.5047   45.6607 H   0  0  0  0  0  0  0  0  0  0  0  0
   56.5904   33.0413   44.0785 H   0  0  0  0  0  0  0  0  0  0  0  0
   57.4909   35.4667   44.8216 H   0  0  0  0  0  0  0  0  0  0  0  0
   59.5515   35.1745   47.8660 H   0  0  0  0  0  0  0  0  0  0  0  0
   60.7021   35.2063   46.4870 H   0  0  0  0  0  0  0  0  0  0  0  0
   59.2700   36.2906   46.4870 H   0  0  0  0  0  0  0  0  0  0  0  0
   59.7334   32.4051   46.9376 H   0  0  0  0  0  0  0  0  0  0  0  0
   58.4604   26.8121   43.0387 H   0  0  0  0  0  0  0  0  0  0  0  0
   59.0074   25.6452   44.3250 H   0  0  0  0  0  0  0  0  0  0  0  0
   56.7862   25.4260   42.3371 H   0  0  0  0  0  0  0  0  0  0  0  0
   58.0689   24.2334   42.8611 H   0  0  0  0  0  0  0  0  0  0  0  0
  1  2  1  0
  2  3  1  0
  3  4  1  0
  4  5  2  0
  4  6  2  0
  4  7  1  0
  7  8  1  0
  8  9  1  0
  9 10  1  0
 10 11  1  0
 11 12  2  0
 12 13  1  0
 13 14  2  0
 14 15  1  0
 15 16  1  0
 16 17  2  0
 17 18  1  0
 18 19  1  0
 18 20  2  0
 14 21  1  0
 21 22  2  0
 10 23  1  0
 23 24  1  0
 24  7  1  0
 22 11  1  0
 20 15  1  0
  1 25  1  0
  1 26  1  0
  1 27  1  0
  2 28  1  0
  2 29  1  0
  3 30  1  0
  3 31  1  0
  8 32  1  0
  8 33  1  0
  9 34  1  0
  9 35  1  0
 12 36  1  0
 13 37  1  0
 16 38  1  0
 17 39  1  0
 19 40  1  0
 19 41  1  0
 19 42  1  0
 20 43  1  0
 23 44  1  0
 23 45  1  0
 24 46  1  0
 24 47  1  0
M  END
>  <smiles>  (14) 
CCCS(=O)(=O)N1CCN(c2ccc(-n3ccc(C)c3)nn2)CC1

>  <score_type>  (14) 
oracle

>  <origin>  (14) 
adg

>  <m_score__min__energy>  (14) 
-8.2599999999999998

>  <m_primary>  (14) 
energy

$$$$
14:0
     RDKit          3D

 56 59  0  0  1  0  0  0  0  0999 V2000
   58.5360   31.5410   49.9290 C   0  0  0  0  0  0  0  0  0  0  0  0
   58.9830   30.1970   50.3840 C   0  0  0  0  0  0  0  0  0  0  0  0
   60.0900   29.6060   49.7400 N   0  0  0  0  0  0  0  0  0  0  0  0
   60.3200   28.2140   49.8750 C   0  0  0  0  0  0  0  0  0  0  0  0
   60.2800   27.3870   48.6240 C   0  0  0  0  0  0  0  0  0  0  0  0
   60.4970   28.1860   47.4230 N   0  0  0  0  0  0  0  0  0  0  0  0
   59.3750   28.7050   46.7770 C   0  0  0  0  0  0  0  0  0  0  0  0
   58.3760   27.8070   46.3880 C   0  0  0  0  0  0  0  0  0  0  0  0
   57.2240   28.2610   45.7330 C   0  0  0  0  0  0  0  0  0  0  0  0
   57.0210   29.5910   45.4430 C   0  0  0  0  0  0  0  0  0  0  0  0
   55.8270   29.9760   44.7750 N   0  0  0  0  0  0  0  0  0  0  0  0
   55.6210   29.6950   43.3780 C   0  0  0  0  0  0  0  0  0  0  0  0
   56.6480   30.2550   42.4860 C   0  0  0  0  0  0  0  0  0  0  0  0
   57.1170   31.4400   42.5800 N   0  0  0  0  0  0  0  0  0  0  0  0
   57.6010   32.0760   41.4140 C   0  0  0  0  0  0  0  0  0  0  0  0
   58.0030   30.4760   45.8280 C   0  0  0  0  0  0  0  0  0  0  0  0
   57.7920   31.8110   45.5490 C   0  0  0  0  0  0  0  0  0  0  0  0
   56.6630   32.2960   44.9070 O   0  0  0  0  0  0  0  0  0  0  0  0
   58.7400   32.7460   45.9180 C   0  0  0  0  0  0  0  0  0  0  0  0
   58.5350   34.0960   45.6390 C   0  0  0  0  0  0  0  0  0  0  0  0
   59.4770   35.0220   46.0060 C   0  0  0  0  0  0  0  0  0  0  0  0
   60.6160   34.5880   46.6500 C   0  0  0  0  0  0  0  0  0  0  0  0
   60.8020   33.2610   46.9160 C   0  0  0  0  0  0  0  0  0  0  0  0
   59.8570   32.3040   46.5510 C   0  0  0  0  0  0  0  0  0  0  0  0
   60.0970   30.9650   46.8470 C   0  0  0  0  0  0  0  0  0  0  0  0
   61.2620   30.6720   47.4860 O   0  0  0  0  0  0  0  0  0  0  0  0
   59.1520   30.0280   46.4800 C   0  0  0  0  0  0  0  0  0  0  0  0
   56.4000   27.1780   45.4590 O   0  0  0  0  0  0  0  0  0  0  0  0
   56.8920   26.0720   46.2080 C   0  0  0  0  0  0  0  0  0  0  0  0
   58.2100   26.4490   46.4900 O   0  0  0  0  0  0  0  0  0  0  0  0
   58.3257   32.1732   50.8043 H   0  0  0  0  0  0  0  0  0  0  0  0
   59.3281   32.0052   49.3232 H   0  0  0  0  0  0  0  0  0  0  0  0
   57.6236   31.4383   49.3232 H   0  0  0  0  0  0  0  0  0  0  0  0
   59.2346   30.2818   51.4515 H   0  0  0  0  0  0  0  0  0  0  0  0
   58.1406   29.5337   50.1383 H   0  0  0  0  0  0  0  0  0  0  0  0
   60.9100   30.2060   49.5740 H   0  0  0  0  0  0  0  0  0  0  0  0
   61.3156   28.0854   50.3248 H   0  0  0  0  0  0  0  0  0  0  0  0
   59.4813   27.8463   50.4843 H   0  0  0  0  0  0  0  0  0  0  0  0
   61.0644   26.6181   48.6834 H   0  0  0  0  0  0  0  0  0  0  0  0
   59.2792   26.9364   48.5512 H   0  0  0  0  0  0  0  0  0  0  0  0
   61.4980   28.2880   47.1670 H   0  0  0  0  0  0  0  0  0  0  0  0
   55.0970   30.4670   45.3140 H   0  0  0  0  0  0  0  0  0  0  0  0
   55.6087   28.6031   43.2452 H   0  0  0  0  0  0  0  0  0  0  0  0
   54.6700   30.1725   43.0994 H   0  0  0  0  0  0  0  0  0  0  0  0
   57.0383   29.6106   41.6845 H   0  0  0  0  0  0  0  0  0  0  0  0
   58.2446   32.9217   41.6979 H   0  0  0  0  0  0  0  0  0  0  0  0
   58.1822   31.3567   40.8184 H   0  0  0  0  0  0  0  0  0  0  0  0
   56.7528   32.4445   40.8184 H   0  0  0  0  0  0  0  0  0  0  0  0
   56.5780   32.3290   43.8910 H   0  0  0  0  0  0  0  0  0  0  0  0
   57.6177   34.4184   45.1245 H   0  0  0  0  0  0  0  0  0  0  0  0
   59.3269   36.0903   45.7908 H   0  0  0  0  0  0  0  0  0  0  0  0
   61.3822   35.3170   46.9525 H   0  0  0  0  0  0  0  0  0  0  0  0
   61.7197   32.9402   47.4306 H   0  0  0  0  0  0  0  0  0  0  0  0
   61.4270   29.9450   48.1590 H   0  0  0  0  0  0  0  0  0  0  0  0
   56.3137   25.9315   47.1331 H   0  0  0  0  0  0  0  0  0  0  0  0
   56.8187   25.1152   45.6702 H   0  0  0  0  0  0  0  0  0  0  0  0
  1  2  1  0
  2  3  1  0
  3  4  1  0
  4  5  1  0
  5  6  1  0
  6  7  1  0
  7  8  2  0
  8  9  1  0
  9 10  2  0
 10 11  1  0
 11 12  1  0
 12 13  1  0
 13 14  2  0
 14 15  1  0
 10 16  1  0
 16 17  2  0
 17 18  1  0
 17 19  1  0
 19 20  2  0
 20 21  1  0
 21 22  2  0
 22 23  1  0
 23 24  2  0
 24 25  1  0
 25 26  1  0
 25 27  2  0
  9 28  1  0
 28 29  1  0
 29 30  1  0
 27  7  1  0
 30  8  1  0
 27 16  1  0
 24 19  1  0
  1 31  1  0
  1 32  1  0
  1 33  1  0
  2 34  1  0
  2 35  1  0
  3 36  1  0
  4 37  1  0
  4 38  1  0
  5 39  1  0
  5 40  1  0
  6 41  1  0
 11 42  1  0
 12 43  1  0
 12 44  1  0
 13 45  1  0
 15 46  1  0
 15 47  1  0
 15 48  1  0
 18 49  1  0
 20 50  1  0
 21 51  1  0
 22 52  1  0
 23 53  1  0
 26 54  1  0
 29 55  1  0
 29 56  1  0
M  END
>  <smiles>  (15) 
CCNCCNc1c2c(c(NCC=NC)c3c(O)c4ccccc4c(O)c13)OCO2

>  <score_type>  (15) 
oracle

>  <origin>  (15) 
adg

>  <m_score__min__energy>  (15) 
-5.7800000000000002

>  <m_primary>  (15) 
energy

$$$$
15:0
     RDKit          3D

 46 48  0  0  0  0  0  0  0  0999 V2000
   57.4020   34.2140   44.8530 C   0  0  0  0  0  0  0  0  0  0  0  0
   57.7960   33.0290   44.0000 C   0  0  0  0  0  0  0  0  0  0  0  0
   57.9070   31.8150   44.7630 N   0  0  0  0  0  0  0  0  0  0  0  0
   56.9240   30.8260   44.4880 C   0  0  0  0  0  0  0  0  0  0  0  0
   56.9640   30.5310   42.9870 C   0  0  0  0  0  0  0  0  0  0  0  0
   58.0600   32.1690   46.1580 C   0  0  0  0  0  0  0  0  0  0  0  0
   59.4540   32.2120   46.5970 C   0  0  0  0  0  0  0  0  0  0  0  0
   60.2540   33.3530   46.4420 C   0  0  0  0  0  0  0  0  0  0  0  0
   61.4920   33.0660   46.9650 C   0  0  0  0  0  0  0  0  0  0  0  0
   62.6110   33.8630   47.0500 C   0  0  0  0  0  0  0  0  0  0  0  0
   63.7600   33.3630   47.6290 C   0  0  0  0  0  0  0  0  0  0  0  0
   63.7470   32.0720   48.1050 C   0  0  0  0  0  0  0  0  0  0  0  0
   62.6000   31.2820   48.0070 C   0  0  0  0  0  0  0  0  0  0  0  0
   61.4400   31.7680   47.4300 C   0  0  0  0  0  0  0  0  0  0  0  0
   60.2000   31.2430   47.2070 N   0  0  0  0  0  0  0  0  0  0  0  0
   59.8050   29.9100   47.5630 C   0  0  0  0  0  0  0  0  0  0  0  0
   59.3370   29.0620   46.4640 C   0  0  0  0  0  0  0  0  0  0  0  0
   58.2080   28.2600   46.5450 C   0  0  0  0  0  0  0  0  0  0  0  0
   57.7690   27.4690   45.5040 C   0  0  0  0  0  0  0  0  0  0  0  0
   58.4440   27.4340   44.3020 C   0  0  0  0  0  0  0  0  0  0  0  0
   58.0560   26.6770   43.2510 F   0  0  0  0  0  0  0  0  0  0  0  0
   59.5660   28.2210   44.1960 C   0  0  0  0  0  0  0  0  0  0  0  0
   60.0090   29.0160   45.2430 C   0  0  0  0  0  0  0  0  0  0  0  0
   57.4910   33.9462   45.9162 H   0  0  0  0  0  0  0  0  0  0  0  0
   58.0665   35.0622   44.6316 H   0  0  0  0  0  0  0  0  0  0  0  0
   56.3619   34.4955   44.6316 H   0  0  0  0  0  0  0  0  0  0  0  0
   57.0339   32.8869   43.2196 H   0  0  0  0  0  0  0  0  0  0  0  0
   58.7838   33.2429   43.5658 H   0  0  0  0  0  0  0  0  0  0  0  0
   57.1458   29.9101   45.0554 H   0  0  0  0  0  0  0  0  0  0  0  0
   55.9264   31.1836   44.7827 H   0  0  0  0  0  0  0  0  0  0  0  0
   57.1103   29.4523   42.8291 H   0  0  0  0  0  0  0  0  0  0  0  0
   56.0152   30.8437   42.5265 H   0  0  0  0  0  0  0  0  0  0  0  0
   57.7952   31.0850   42.5265 H   0  0  0  0  0  0  0  0  0  0  0  0
   57.6138   33.1618   46.3167 H   0  0  0  0  0  0  0  0  0  0  0  0
   57.5579   31.3881   46.7480 H   0  0  0  0  0  0  0  0  0  0  0  0
   59.9465   34.3050   45.9848 H   0  0  0  0  0  0  0  0  0  0  0  0
   62.5898   34.8911   46.6593 H   0  0  0  0  0  0  0  0  0  0  0  0
   64.6655   33.9826   47.7081 H   0  0  0  0  0  0  0  0  0  0  0  0
   64.6534   31.6564   48.5694 H   0  0  0  0  0  0  0  0  0  0  0  0
   62.6188   30.2533   48.3960 H   0  0  0  0  0  0  0  0  0  0  0  0
   60.6719   29.4144   48.0244 H   0  0  0  0  0  0  0  0  0  0  0  0
   58.9418   30.0268   48.2347 H   0  0  0  0  0  0  0  0  0  0  0  0
   57.6356   28.2547   47.4843 H   0  0  0  0  0  0  0  0  0  0  0  0
   56.8652   26.8557   45.6347 H   0  0  0  0  0  0  0  0  0  0  0  0
   60.1301   28.2204   43.2517 H   0  0  0  0  0  0  0  0  0  0  0  0
   60.9141   29.6261   45.1065 H   0  0  0  0  0  0  0  0  0  0  0  0
  1  2  1  0
  2  3  1  0
  3  4  1  0
  4  5  1  0
  3  6  1  0
  6  7  1  0
  7  8  2  0
  8  9  1  0
  9 10  2  0
 10 11  1  0
 11 12  2  0
 12 13  1  0
 13 14  2  0
 14 15  1  0
 15 16  1  0
 16 17  1  0
 17 18  2  0
 18 19  1  0
 19 20  2  0
 20 21  1  0
 20 22  1  0
 22 23  2  0
 15  7  1  0
 23 17  1  0
 14  9  1  0
  1 24  1  0
  1 25  1  0
  1 26  1  0
  2 27  1  0
  2 28  1  0
  4 29  1  0
  4 30  1  0
  5 31  1  0
  5 32  1  0
  5 33  1  0
  6 34  1  0
  6 35  1  0
  8 36  1  0
 10 37  1  0
 11 38  1  0
 12 39  1  0
 13 40  1  0
 16 41  1  0
 16 42  1  0
 18 43  1  0
 19 44  1  0
 22 45  1  0
 23 46  1  0
M  END
>  <smiles>  (16) 
CCN(CC)Cc1cc2ccccc2n1Cc1ccc(F)cc1

>  <score_type>  (16) 
oracle

>  <origin>  (16) 
adg

>  <m_score__min__energy>  (16) 
-7

>  <m_primary>  (16) 
energy

$$$$
16:0
     RDKit          3D

 44 46  0  0  1  0  0  0  0  0999 V2000
   53.7370   24.4500   45.5300 C   0  0  0  0  0  0  0  0  0  0  0  0
   55.1450   24.9980   45.6250 C   0  0  0  0  0  0  0  0  0  0  0  0
   55.1510   26.3900   45.9740 O   0  0  0  0  0  0  0  0  0  0  0  0
   56.3580   26.8740   46.3670 N   0  0  0  0  0  0  0  0  0  0  0  0
   57.1510   27.4370   45.5440 C   0  0  0  0  0  0  0  0  0  0  0  0
   57.1720   28.8170   45.1370 C   0  0  0  0  0  0  0  0  0  0  0  0
   56.5600   29.3460   44.0320 C   0  0  0  0  0  0  0  0  0  0  0  0
   56.6300   30.7070   43.7050 C   0  0  0  0  0  0  0  0  0  0  0  0
   57.3450   31.5730   44.5210 C   0  0  0  0  0  0  0  0  0  0  0  0
   57.4560   32.9220   44.2590 C   0  0  0  0  0  0  0  0  0  0  0  0
   58.1980   33.6840   45.1500 C   0  0  0  0  0  0  0  0  0  0  0  0
   58.8120   33.1350   46.2620 C   0  0  0  0  0  0  0  0  0  0  0  0
   58.6800   31.7780   46.4920 C   0  0  0  0  0  0  0  0  0  0  0  0
   59.3280   31.2570   47.6480 N   0  0  0  0  0  0  0  0  0  0  0  0
   58.7880   31.4100   48.9740 C   0  0  0  0  0  0  0  0  0  0  0  0
   59.2080   30.3600   49.9360 C   0  0  0  0  0  0  0  0  0  0  0  0
   60.4700   29.7490   49.6950 N   0  0  0  0  0  0  0  0  0  0  0  0
   60.3930   28.3360   49.4730 C   0  0  0  0  0  0  0  0  0  0  0  0
   61.3040   30.4310   48.7550 C   0  0  0  0  0  0  0  0  0  0  0  0
   60.5760   30.5530   47.4370 C   0  0  0  0  0  0  0  0  0  0  0  0
   57.9470   30.9970   45.6240 C   0  0  0  0  0  0  0  0  0  0  0  0
   57.8610   29.6880   45.9110 N   0  0  0  0  0  0  0  0  0  0  0  0
   53.3353   24.2937   46.5420 H   0  0  0  0  0  0  0  0  0  0  0  0
   53.1005   25.1661   44.9895 H   0  0  0  0  0  0  0  0  0  0  0  0
   53.7521   23.4921   44.9895 H   0  0  0  0  0  0  0  0  0  0  0  0
   55.6952   24.4355   46.3937 H   0  0  0  0  0  0  0  0  0  0  0  0
   55.6220   24.8897   44.6397 H   0  0  0  0  0  0  0  0  0  0  0  0
   57.9136   26.7882   45.0884 H   0  0  0  0  0  0  0  0  0  0  0  0
   55.9895   28.6745   43.3735 H   0  0  0  0  0  0  0  0  0  0  0  0
   56.1212   31.0869   42.8068 H   0  0  0  0  0  0  0  0  0  0  0  0
   56.9759   33.3757   43.3794 H   0  0  0  0  0  0  0  0  0  0  0  0
   58.3019   34.7635   44.9658 H   0  0  0  0  0  0  0  0  0  0  0  0
   59.3939   33.7661   46.9498 H   0  0  0  0  0  0  0  0  0  0  0  0
   59.1126   32.3850   49.3665 H   0  0  0  0  0  0  0  0  0  0  0  0
   57.6954   31.3265   48.8778 H   0  0  0  0  0  0  0  0  0  0  0  0
   59.2431   30.8171   50.9359 H   0  0  0  0  0  0  0  0  0  0  0  0
   58.4679   29.5533   49.8293 H   0  0  0  0  0  0  0  0  0  0  0  0
   60.3645   27.8138   50.4407 H   0  0  0  0  0  0  0  0  0  0  0  0
   59.4808   28.1034   48.9039 H   0  0  0  0  0  0  0  0  0  0  0  0
   61.2745   28.0057   48.9039 H   0  0  0  0  0  0  0  0  0  0  0  0
   61.5433   31.4345   49.1367 H   0  0  0  0  0  0  0  0  0  0  0  0
   62.2354   29.8640   48.6100 H   0  0  0  0  0  0  0  0  0  0  0  0
   61.1983   31.1124   46.7230 H   0  0  0  0  0  0  0  0  0  0  0  0
   60.3721   29.5507   47.0323 H   0  0  0  0  0  0  0  0  0  0  0  0
  1  2  1  0
  2  3  1  0
  3  4  1  0
  4  5  2  0
  5  6  1  0
  6  7  2  0
  7  8  1  0
  8  9  2  0
  9 10  1  0
 10 11  2  0
 11 12  1  0
 12 13  2  0
 13 14  1  0
 14 15  1  0
 15 16  1  0
 16 17  1  0
 17 18  1  0
 17 19  1  0
 19 20  1  0
 13 21  1  0
 21 22  2  0
 22  6  1  0
 21  9  1  0
 20 14  1  0
  1 23  1  0
  1 24  1  0
  1 25  1  0
  2 26  1  0
  2 27  1  0
  5 28  1  0
  7 29  1  0
  8 30  1  0
 10 31  1  0
 11 32  1  0
 12 33  1  0
 15 34  1  0
 15 35  1  0
 16 36  1  0
 16 37  1  0
 18 38  1  0
 18 39  1  0
 18 40  1  0
 19 41  1  0
 19 42  1  0
 20 43  1  0
 20 44  1  0
M  END
>  <smiles>  (17) 
CCON=Cc1ccc2cccc(N3CCN(C)CC3)c2n1

>  <score_type>  (17) 
oracle

>  <origin>  (17) 
adg

>  <m_score__min__energy>  (17) 
-7.5099999999999998

>  <m_primary>  (17) 
energy

$$$$
17:0
     RDKit          3D

 46 46  0  0  0  0  0  0  0  0999 V2000
   60.3640   30.3510   46.3740 C   0  0  0  0  0  0  0  0  0  0  0  0
   59.8950   29.3430   47.4090 C   0  0  0  0  0  0  0  0  0  0  0  0
   58.8940   28.4700   46.7250 C   0  0  0  0  0  0  0  0  0  0  0  0
   59.0930   27.1120   46.6750 C   0  0  0  0  0  0  0  0  0  0  0  0
   58.1410   26.3550   46.0360 C   0  0  0  0  0  0  0  0  0  0  0  0
   57.0200   26.9570   45.4640 C   0  0  0  0  0  0  0  0  0  0  0  0
   56.7980   28.3070   45.4990 C   0  0  0  0  0  0  0  0  0  0  0  0
   55.7660   28.9960   44.9830 O   0  0  0  0  0  0  0  0  0  0  0  0
   55.7050   29.7370   43.8300 C   0  0  0  0  0  0  0  0  0  0  0  0
   56.8070   30.7500   43.7380 C   0  0  0  0  0  0  0  0  0  0  0  0
   56.9740   31.5290   44.8670 O   0  0  0  0  0  0  0  0  0  0  0  0
   57.4820   32.7880   44.4960 C   0  0  0  0  0  0  0  0  0  0  0  0
   57.5990   33.6880   45.6950 C   0  0  0  0  0  0  0  0  0  0  0  0
   58.6630   33.1760   46.5810 N   0  0  0  0  0  0  0  0  0  0  0  0
   58.0830   32.7160   47.7830 C   0  0  0  0  0  0  0  0  0  0  0  0
   59.0910   32.6980   48.9170 C   0  0  0  0  0  0  0  0  0  0  0  0
   59.5820   34.2790   46.6710 C   0  0  0  0  0  0  0  0  0  0  0  0
   59.6130   35.2700   45.5850 C   0  0  0  0  0  0  0  0  0  0  0  0
   57.7880   29.0580   46.1600 C   0  0  0  0  0  0  0  0  0  0  0  0
   60.7753   31.2350   46.8832 H   0  0  0  0  0  0  0  0  0  0  0  0
   61.1425   29.8951   45.7446 H   0  0  0  0  0  0  0  0  0  0  0  0
   59.5138   30.6529   45.7446 H   0  0  0  0  0  0  0  0  0  0  0  0
   60.7438   28.7411   47.7657 H   0  0  0  0  0  0  0  0  0  0  0  0
   59.4547   29.8449   48.2832 H   0  0  0  0  0  0  0  0  0  0  0  0
   59.9809   26.6480   47.1293 H   0  0  0  0  0  0  0  0  0  0  0  0
   58.2639   25.2636   45.9748 H   0  0  0  0  0  0  0  0  0  0  0  0
   56.2801   26.3168   44.9614 H   0  0  0  0  0  0  0  0  0  0  0  0
   55.7791   29.0563   42.9691 H   0  0  0  0  0  0  0  0  0  0  0  0
   54.7498   30.2825   43.8340 H   0  0  0  0  0  0  0  0  0  0  0  0
   57.7491   30.2145   43.5494 H   0  0  0  0  0  0  0  0  0  0  0  0
   56.5284   31.4376   42.9259 H   0  0  0  0  0  0  0  0  0  0  0  0
   58.4763   32.6573   44.0441 H   0  0  0  0  0  0  0  0  0  0  0  0
   56.7922   33.2489   43.7736 H   0  0  0  0  0  0  0  0  0  0  0  0
   57.8513   34.7073   45.3673 H   0  0  0  0  0  0  0  0  0  0  0  0
   56.6425   33.7085   46.2379 H   0  0  0  0  0  0  0  0  0  0  0  0
   57.2506   33.3814   48.0555 H   0  0  0  0  0  0  0  0  0  0  0  0
   57.7267   31.6878   47.6223 H   0  0  0  0  0  0  0  0  0  0  0  0
   58.5596   32.7075   49.8801 H   0  0  0  0  0  0  0  0  0  0  0  0
   59.7060   31.7887   48.8465 H   0  0  0  0  0  0  0  0  0  0  0  0
   59.7381   33.5847   48.8465 H   0  0  0  0  0  0  0  0  0  0  0  0
   59.3437   34.8227   47.5971 H   0  0  0  0  0  0  0  0  0  0  0  0
   60.5723   33.8026   46.6225 H   0  0  0  0  0  0  0  0  0  0  0  0
   59.6447   36.2826   46.0135 H   0  0  0  0  0  0  0  0  0  0  0  0
   60.5065   35.1063   44.9646 H   0  0  0  0  0  0  0  0  0  0  0  0
   58.7110   35.1624   44.9646 H   0  0  0  0  0  0  0  0  0  0  0  0
   57.6727   30.1499   46.2264 H   0  0  0  0  0  0  0  0  0  0  0  0
  1  2  1  0
  2  3  1  0
  3  4  2  0
  4  5  1  0
  5  6  2  0
  6  7  1  0
  7  8  1  0
  8  9  1  0
  9 10  1  0
 10 11  1  0
 11 12  1  0
 12 13  1  0
 13 14  1  0
 14 15  1  0
 15 16  1  0
 14 17  1  0
 17 18  1  0
  7 19  2  0
 19  3  1  0
  1 20  1  0
  1 21  1  0
  1 22  1  0
  2 23  1  0
  2 24  1  0
  4 25  1  0
  5 26  1  0
  6 27  1  0
  9 28  1  0
  9 29  1  0
 10 30  1  0
 10 31  1  0
 12 32  1  0
 12 33  1  0
 13 34  1  0
 13 35  1  0
 15 36  1  0
 15 37  1  0
 16 38  1  0
 16 39  1  0
 16 40  1  0
 17 41  1  0
 17 42  1  0
 18 43  1  0
 18 44  1  0
 18 45  1  0
 19 46  1  0
M  END
>  <smiles>  (18) 
CCc1cccc(OCCOCCN(CC)CC)c1

>  <score_type>  (18) 
oracle

>  <origin>  (18) 
adg

>  <m_score__min__energy>  (18) 
-6.1100000000000003

>  <m_primary>  (18) 
energy

$$$$
18:0
     RDKit          3D

 42 45  0  0  0  0  0  0  0  0999 V2000
   60.7740   32.3860   46.9690 C   0  0  0  0  0  0  0  0  0  0  0  0
   59.4600   32.7250   46.3340 C   0  0  0  0  0  0  0  0  0  0  0  0
   59.0010   34.0170   46.2330 C   0  0  0  0  0  0  0  0  0  0  0  0
   57.7880   34.3320   45.6460 C   0  0  0  0  0  0  0  0  0  0  0  0
   57.0380   33.2730   45.1520 C   0  0  0  0  0  0  0  0  0  0  0  0
   57.5280   31.9670   45.2670 C   0  0  0  0  0  0  0  0  0  0  0  0
   56.9900   30.7890   44.8690 N   0  0  0  0  0  0  0  0  0  0  0  0
   57.8350   29.7890   45.1970 C   0  0  0  0  0  0  0  0  0  0  0  0
   57.7020   28.3640   44.9810 C   0  0  0  0  0  0  0  0  0  0  0  0
   57.1530   27.5000   45.9060 C   0  0  0  0  0  0  0  0  0  0  0  0
   57.0500   26.1460   45.6490 C   0  0  0  0  0  0  0  0  0  0  0  0
   57.4850   25.5860   44.4660 C   0  0  0  0  0  0  0  0  0  0  0  0
   57.3880   24.1990   44.1870 N   0  0  0  0  0  0  0  0  0  0  0  0
   57.9970   23.1810   45.0200 C   0  0  0  0  0  0  0  0  0  0  0  0
   58.5160   22.0460   44.1350 C   0  0  0  0  0  0  0  0  0  0  0  0
   57.4500   21.4820   43.3680 N   0  0  0  0  0  0  0  0  0  0  0  0
   56.2730   22.2920   43.3200 C   0  0  0  0  0  0  0  0  0  0  0  0
   56.6520   23.7470   43.0260 C   0  0  0  0  0  0  0  0  0  0  0  0
   58.0340   26.4420   43.5360 C   0  0  0  0  0  0  0  0  0  0  0  0
   58.1420   27.8140   43.7880 C   0  0  0  0  0  0  0  0  0  0  0  0
   58.9330   30.3780   45.8200 C   0  0  0  0  0  0  0  0  0  0  0  0
   58.7190   31.7200   45.8500 N   0  0  0  0  0  0  0  0  0  0  0  0
   60.6700   32.4128   48.0637 H   0  0  0  0  0  0  0  0  0  0  0  0
   61.0840   31.3785   46.6547 H   0  0  0  0  0  0  0  0  0  0  0  0
   61.5327   33.1178   46.6547 H   0  0  0  0  0  0  0  0  0  0  0  0
   59.6218   34.8317   46.6342 H   0  0  0  0  0  0  0  0  0  0  0  0
   57.4350   35.3713   45.5742 H   0  0  0  0  0  0  0  0  0  0  0  0
   56.0652   33.4592   44.6735 H   0  0  0  0  0  0  0  0  0  0  0  0
   56.7905   27.8963   46.8660 H   0  0  0  0  0  0  0  0  0  0  0  0
   56.6058   25.4925   46.4142 H   0  0  0  0  0  0  0  0  0  0  0  0
   58.8339   23.6196   45.5833 H   0  0  0  0  0  0  0  0  0  0  0  0
   57.2500   22.7863   45.7244 H   0  0  0  0  0  0  0  0  0  0  0  0
   59.2833   22.4408   43.4528 H   0  0  0  0  0  0  0  0  0  0  0  0
   58.9459   21.2627   44.7766 H   0  0  0  0  0  0  0  0  0  0  0  0
   57.7690   21.3360   42.3720 H   0  0  0  0  0  0  0  0  0  0  0  0
   55.6073   21.9212   42.5266 H   0  0  0  0  0  0  0  0  0  0  0  0
   55.7590   22.2412   44.2912 H   0  0  0  0  0  0  0  0  0  0  0  0
   57.2812   23.8056   42.1256 H   0  0  0  0  0  0  0  0  0  0  0  0
   55.7644   24.3692   42.8388 H   0  0  0  0  0  0  0  0  0  0  0  0
   58.3940   26.0392   42.5778 H   0  0  0  0  0  0  0  0  0  0  0  0
   58.5852   28.4691   43.0235 H   0  0  0  0  0  0  0  0  0  0  0  0
   59.8141   29.8520   46.2162 H   0  0  0  0  0  0  0  0  0  0  0  0
  1  2  1  0
  2  3  2  0
  3  4  1  0
  4  5  2  0
  5  6  1  0
  6  7  2  0
  7  8  1  0
  8  9  1  0
  9 10  2  0
 10 11  1  0
 11 12  2  0
 12 13  1  0
 13 14  1  0
 14 15  1  0
 15 16  1  0
 16 17  1  0
 17 18  1  0
 12 19  1  0
 19 20  2  0
  8 21  2  0
 21 22  1  0
 22  2  1  0
 22  6  1  0
 20  9  1  0
 18 13  1  0
  1 23  1  0
  1 24  1  0
  1 25  1  0
  3 26  1  0
  4 27  1  0
  5 28  1  0
 10 29  1  0
 11 30  1  0
 14 31  1  0
 14 32  1  0
 15 33  1  0
 15 34  1  0
 16 35  1  0
 17 36  1  0
 17 37  1  0
 18 38  1  0
 18 39  1  0
 19 40  1  0
 20 41  1  0
 21 42  1  0
M  END
>  <smiles>  (19) 
Cc1cccc2nc(-c3ccc(N4CCNCC4)cc3)cn12

>  <score_type>  (19) 
oracle

>  <origin>  (19) 
adg

>  <m_score__min__energy>  (19) 
-7.5599999999999996

>  <m_primary>  (19) 
energy

$$$$
19:0
     RDKit          3D

 37 39  0  0  0  0  0  0  0  0999 V2000
   57.3920   31.6810   43.1120 C   0  0  0  0  0  0  0  0  0  0  0  0
   58.0170   30.9550   44.2770 C   0  0  0  0  0  0  0  0  0  0  0  0
   58.4970   29.7040   44.1230 N   0  0  0  0  0  0  0  0  0  0  0  0
   59.0400   29.1110   45.2280 C   0  0  0  0  0  0  0  0  0  0  0  0
   59.5180   27.8060   45.0740 C   0  0  0  0  0  0  0  0  0  0  0  0
   60.0410   27.2140   46.1990 C   0  0  0  0  0  0  0  0  0  0  0  0
   60.1010   27.8510   47.4180 C   0  0  0  0  0  0  0  0  0  0  0  0
   59.6220   29.1590   47.5630 C   0  0  0  0  0  0  0  0  0  0  0  0
   59.0980   29.7500   46.4340 C   0  0  0  0  0  0  0  0  0  0  0  0
   58.6150   31.0170   46.6120 N   0  0  0  0  0  0  0  0  0  0  0  0
   58.0820   31.5720   45.4930 C   0  0  0  0  0  0  0  0  0  0  0  0
   57.3500   33.2120   45.6240 S   0  0  0  0  0  0  0  0  0  0  0  0
   58.4900   34.4260   44.8730 C   0  0  0  0  0  0  0  0  0  0  0  0
   59.6490   34.5540   45.7950 C   0  0  0  0  0  0  0  0  0  0  0  0
   59.9860   35.6870   46.2250 O   0  0  0  0  0  0  0  0  0  0  0  0
   60.3300   33.3610   46.1570 N   0  0  0  0  0  0  0  0  0  0  0  0
   61.4260   33.4870   47.0430 C   0  0  0  0  0  0  0  0  0  0  0  0
   62.6900   33.6870   46.5760 C   0  0  0  0  0  0  0  0  0  0  0  0
   63.7030   33.8140   47.5180 C   0  0  0  0  0  0  0  0  0  0  0  0
   63.3940   33.7360   48.8460 C   0  0  0  0  0  0  0  0  0  0  0  0
   62.1220   33.5350   49.3230 C   0  0  0  0  0  0  0  0  0  0  0  0
   61.1080   33.4080   48.4000 C   0  0  0  0  0  0  0  0  0  0  0  0
   59.2850   33.1410   48.9570 Br  0  0  0  0  0  0  0  0  0  0  0  0
   56.7174   32.4646   43.4875 H   0  0  0  0  0  0  0  0  0  0  0  0
   58.1820   32.1399   42.4994 H   0  0  0  0  0  0  0  0  0  0  0  0
   56.8207   30.9680   42.4994 H   0  0  0  0  0  0  0  0  0  0  0  0
   59.4778   27.2827   44.1073 H   0  0  0  0  0  0  0  0  0  0  0  0
   60.4282   26.1873   46.1219 H   0  0  0  0  0  0  0  0  0  0  0  0
   60.5290   27.3279   48.2859 H   0  0  0  0  0  0  0  0  0  0  0  0
   59.6620   29.6867   48.5273 H   0  0  0  0  0  0  0  0  0  0  0  0
   58.8270   34.0702   43.8882 H   0  0  0  0  0  0  0  0  0  0  0  0
   57.9929   35.3963   44.7266 H   0  0  0  0  0  0  0  0  0  0  0  0
   60.0060   32.4520   45.7670 H   0  0  0  0  0  0  0  0  0  0  0  0
   62.8998   33.7455   45.4978 H   0  0  0  0  0  0  0  0  0  0  0  0
   64.7429   33.9757   47.1978 H   0  0  0  0  0  0  0  0  0  0  0  0
   64.2108   33.8401   49.5754 H   0  0  0  0  0  0  0  0  0  0  0  0
   61.9205   33.4775   50.4029 H   0  0  0  0  0  0  0  0  0  0  0  0
  1  2  1  0
  2  3  2  0
  3  4  1  0
  4  5  2  0
  5  6  1  0
  6  7  2  0
  7  8  1  0
  8  9  2  0
  9 10  1  0
 10 11  2  0
 11 12  1  0
 12 13  1  0
 13 14  1  0
 14 15  2  0
 14 16  1  0
 16 17  1  0
 17 18  2  0
 18 19  1  0
 19 20  2  0
 20 21  1  0
 21 22  2  0
 22 23  1  0
 11  2  1  0
 22 17  1  0
  9  4  1  0
  1 24  1  0
  1 25  1  0
  1 26  1  0
  5 27  1  0
  6 28  1  0
  7 29  1  0
  8 30  1  0
 13 31  1  0
 13 32  1  0
 16 33  1  0
 18 34  1  0
 19 35  1  0
 20 36  1  0
 21 37  1  0
M  END
>  <smiles>  (20) 
Cc1nc2ccccc2nc1SCC(=O)Nc1ccccc1Br

>  <score_type>  (20) 
oracle

>  <origin>  (20) 
adg

>  <m_score__min__energy>  (20) 
-8.2400000000000002

>  <m_primary>  (20) 
energy

$$$$
20:0
     RDKit          3D

 65 67  0  0  0  0  0  0  0  0999 V2000
   57.0280   30.7860   51.7430 C   0  0  0  0  0  0  0  0  0  0  0  0
   57.7910   31.5270   51.1340 C   0  0  0  0  0  0  0  0  0  0  0  0
   58.7160   32.3930   50.4050 C   0  0  0  0  0  0  0  0  0  0  0  0
   59.6020   33.1080   51.2920 N   0  0  0  0  0  0  0  0  0  0  0  0
   58.8560   34.1100   52.0670 C   0  0  0  0  0  0  0  0  0  0  0  0
   60.6270   33.8380   50.5900 C   0  0  0  0  0  0  0  0  0  0  0  0
   60.0440   34.2000   49.2750 C   0  0  0  0  0  0  0  0  0  0  0  0
   59.5590   34.4810   48.2130 C   0  0  0  0  0  0  0  0  0  0  0  0
   58.9790   34.8140   46.8910 C   0  0  0  0  0  0  0  0  0  0  0  0
   58.1060   33.6830   46.4580 C   0  0  0  0  0  0  0  0  0  0  0  0
   57.9050   33.5530   44.9870 C   0  0  0  0  0  0  0  0  0  0  0  0
   57.6120   32.1560   44.6760 C   0  0  0  0  0  0  0  0  0  0  0  0
   57.3820   30.9810   44.4300 C   0  0  0  0  0  0  0  0  0  0  0  0
   57.0850   29.5610   44.1140 C   0  0  0  0  0  0  0  0  0  0  0  0
   58.0220   28.6850   44.7830 N   0  0  0  0  0  0  0  0  0  0  0  0
   59.3780   29.1470   44.4990 C   0  0  0  0  0  0  0  0  0  0  0  0
   57.8270   28.7510   46.2050 C   0  0  0  0  0  0  0  0  0  0  0  0
   59.1550   28.7300   46.9140 C   0  0  0  0  0  0  0  0  0  0  0  0
   58.9950   29.4830   48.2440 C   0  0  0  0  0  0  0  0  0  0  0  0
   60.2240   30.2310   48.4830 N   0  0  0  0  0  0  0  0  0  0  0  0
   61.0390   30.0060   49.6370 C   0  0  0  0  0  0  0  0  0  0  0  0
   60.7170   29.1550   50.4820 O   0  0  0  0  0  0  0  0  0  0  0  0
   62.2520   30.8250   49.7590 C   0  0  0  0  0  0  0  0  0  0  0  0
   63.0720   30.6340   50.8730 C   0  0  0  0  0  0  0  0  0  0  0  0
   64.2250   31.4090   50.9940 C   0  0  0  0  0  0  0  0  0  0  0  0
   64.5870   32.3480   50.0710 C   0  0  0  0  0  0  0  0  0  0  0  0
   63.7660   32.5410   48.9550 C   0  0  0  0  0  0  0  0  0  0  0  0
   64.1150   33.4860   48.0090 C   0  0  0  0  0  0  0  0  0  0  0  0
   63.3250   33.7060   46.8870 C   0  0  0  0  0  0  0  0  0  0  0  0
   62.1850   32.9350   46.7720 C   0  0  0  0  0  0  0  0  0  0  0  0
   61.8100   31.9870   47.6940 C   0  0  0  0  0  0  0  0  0  0  0  0
   62.6070   31.7700   48.8210 C   0  0  0  0  0  0  0  0  0  0  0  0
   60.5760   31.2060   47.4980 C   0  0  0  0  0  0  0  0  0  0  0  0
   59.8550   31.4040   46.4780 O   0  0  0  0  0  0  0  0  0  0  0  0
   56.3432   30.1209   52.2896 H   0  0  0  0  0  0  0  0  0  0  0  0
   59.3189   31.7746   49.7238 H   0  0  0  0  0  0  0  0  0  0  0  0
   58.1214   33.1336   49.8500 H   0  0  0  0  0  0  0  0  0  0  0  0
   58.9964   33.9214   53.1416 H   0  0  0  0  0  0  0  0  0  0  0  0
   59.2271   35.1155   51.8197 H   0  0  0  0  0  0  0  0  0  0  0  0
   57.7863   34.0428   51.8197 H   0  0  0  0  0  0  0  0  0  0  0  0
   60.9013   34.7448   51.1491 H   0  0  0  0  0  0  0  0  0  0  0  0
   61.5412   33.2374   50.4736 H   0  0  0  0  0  0  0  0  0  0  0  0
   58.3821   35.7346   46.9690 H   0  0  0  0  0  0  0  0  0  0  0  0
   59.7822   34.9727   46.1563 H   0  0  0  0  0  0  0  0  0  0  0  0
   58.5573   32.7482   46.8221 H   0  0  0  0  0  0  0  0  0  0  0  0
   57.1120   33.8904   46.8810 H   0  0  0  0  0  0  0  0  0  0  0  0
   57.0634   34.1869   44.6709 H   0  0  0  0  0  0  0  0  0  0  0  0
   58.8130   33.8730   44.4549 H   0  0  0  0  0  0  0  0  0  0  0  0
   56.0645   29.3219   44.4479 H   0  0  0  0  0  0  0  0  0  0  0  0
   57.1738   29.4128   43.0276 H   0  0  0  0  0  0  0  0  0  0  0  0
   59.9093   29.3280   45.4450 H   0  0  0  0  0  0  0  0  0  0  0  0
   59.9127   28.3803   43.9191 H   0  0  0  0  0  0  0  0  0  0  0  0
   59.3333   30.0806   43.9191 H   0  0  0  0  0  0  0  0  0  0  0  0
   57.2959   29.6810   46.4560 H   0  0  0  0  0  0  0  0  0  0  0  0
   57.2349   27.8815   46.5266 H   0  0  0  0  0  0  0  0  0  0  0  0
   59.4584   27.6906   47.1076 H   0  0  0  0  0  0  0  0  0  0  0  0
   59.9269   29.2092   46.2939 H   0  0  0  0  0  0  0  0  0  0  0  0
   58.1419   30.1747   48.1822 H   0  0  0  0  0  0  0  0  0  0  0  0
   58.8092   28.7761   49.0660 H   0  0  0  0  0  0  0  0  0  0  0  0
   62.8139   29.8879   51.6390 H   0  0  0  0  0  0  0  0  0  0  0  0
   64.8711   31.2573   51.8712 H   0  0  0  0  0  0  0  0  0  0  0  0
   65.5047   32.9401   50.2023 H   0  0  0  0  0  0  0  0  0  0  0  0
   65.0342   34.0744   48.1465 H   0  0  0  0  0  0  0  0  0  0  0  0
   63.5941   34.4563   46.1289 H   0  0  0  0  0  0  0  0  0  0  0  0
   61.5411   33.0881   45.8934 H   0  0  0  0  0  0  0  0  0  0  0  0
  1  2  3  0
  2  3  1  0
  3  4  1  0
  4  5  1  0
  4  6  1  0
  6  7  1  0
  7  8  3  0
  8  9  1  0
  9 10  1  0
 10 11  1  0
 11 12  1  0
 12 13  3  0
 13 14  1  0
 14 15  1  0
 15 16  1  0
 15 17  1  0
 17 18  1  0
 18 19  1  0
 19 20  1  0
 20 21  1  0
 21 22  2  0
 21 23  1  0
 23 24  1  0
 24 25  2  0
 25 26  1  0
 26 27  2  0
 27 28  1  0
 28 29  2  0
 29 30  1  0
 30 31  2  0
 31 32  1  0
 31 33  1  0
 33 34  2  0
 33 20  1  0
 32 23  2  0
 32 27  1  0
  1 35  1  0
  3 36  1  0
  3 37  1  0
  5 38  1  0
  5 39  1  0
  5 40  1  0
  6 41  1  0
  6 42  1  0
  9 43  1  0
  9 44  1  0
 10 45  1  0
 10 46  1  0
 11 47  1  0
 11 48  1  0
 14 49  1  0
 14 50  1  0
 16 51  1  0
 16 52  1  0
 16 53  1  0
 17 54  1  0
 17 55  1  0
 18 56  1  0
 18 57  1  0
 19 58  1  0
 19 59  1  0
 24 60  1  0
 25 61  1  0
 26 62  1  0
 28 63  1  0
 29 64  1  0
 30 65  1  0
M  END
>  <smiles>  (21) 
C#CCN(C)CC#CCCCC#CCN(C)CCCN1C(=O)c2cccc3cccc(c23)C1=O

>  <score_type>  (21) 
oracle

>  <origin>  (21) 
adg

>  <m_score__min__energy>  (21) 
-7.1500000000000004

>  <m_primary>  (21) 
energy

$$$$
21:0
     RDKit          3D

 53 55  0  0  1  0  0  0  0  0999 V2000
   58.6360   34.2110   46.0400 C   0  0  0  0  0  0  0  0  0  0  0  0
   58.0560   32.8220   46.1630 C   0  0  0  0  0  0  0  0  0  0  0  0
   57.9170   32.2460   44.8070 C   0  0  0  0  0  0  0  0  0  0  0  0
   57.7680   32.9750   43.7000 N   0  0  0  0  0  0  0  0  0  0  0  0
   57.6720   32.1200   42.6560 C   0  0  0  0  0  0  0  0  0  0  0  0
   57.4990   32.3980   41.2190 C   0  0  0  0  0  0  0  0  0  0  0  0
   57.7710   30.8360   43.1940 C   0  0  0  0  0  0  0  0  0  0  0  0
   57.9220   30.9280   44.5270 N   0  0  0  0  0  0  0  0  0  0  0  0
   58.0530   29.8190   45.3840 C   0  0  0  0  0  0  0  0  0  0  0  0
   58.9810   29.8640   46.3880 C   0  0  0  0  0  0  0  0  0  0  0  0
   59.0850   28.7640   47.2090 C   0  0  0  0  0  0  0  0  0  0  0  0
   58.2810   27.6440   47.0320 C   0  0  0  0  0  0  0  0  0  0  0  0
   58.4590   26.6280   47.8830 F   0  0  0  0  0  0  0  0  0  0  0  0
   57.3440   27.5890   46.0250 C   0  0  0  0  0  0  0  0  0  0  0  0
   56.4650   26.4720   45.7630 C   0  0  0  0  0  0  0  0  0  0  0  0
   55.2360   26.6190   46.0220 O   0  0  0  0  0  0  0  0  0  0  0  0
   56.8470   25.2220   45.2420 N   0  0  0  0  0  0  0  0  0  0  0  0
   55.8690   24.1830   45.0240 C   0  0  1  0  0  0  0  0  0  0  0  0
   55.8130   23.7390   43.5820 C   0  0  0  0  0  0  0  0  0  0  0  0
   56.5440   22.4140   43.3590 C   0  0  0  0  0  0  0  0  0  0  0  0
   55.9990   21.3540   44.1470 N   0  0  0  0  0  0  0  0  0  0  0  0
   57.0530   20.5510   44.7850 C   0  0  0  0  0  0  0  0  0  0  0  0
   55.1900   21.8780   45.2600 C   0  0  0  0  0  0  0  0  0  0  0  0
   56.0640   22.9770   45.8790 C   0  0  2  0  0  0  0  0  0  0  0  0
   55.6750   23.2020   47.3220 C   0  0  0  0  0  0  0  0  0  0  0  0
   57.2600   28.7080   45.2140 C   0  0  0  0  0  0  0  0  0  0  0  0
   58.8094   34.6262   47.0438 H   0  0  0  0  0  0  0  0  0  0  0  0
   59.5893   34.1632   45.4933 H   0  0  0  0  0  0  0  0  0  0  0  0
   57.9318   34.8553   45.4933 H   0  0  0  0  0  0  0  0  0  0  0  0
   58.7269   32.1924   46.7659 H   0  0  0  0  0  0  0  0  0  0  0  0
   57.0728   32.8677   46.6542 H   0  0  0  0  0  0  0  0  0  0  0  0
   56.9217   33.3257   41.0919 H   0  0  0  0  0  0  0  0  0  0  0  0
   58.4856   32.5124   40.7463 H   0  0  0  0  0  0  0  0  0  0  0  0
   56.9605   31.5634   40.7463 H   0  0  0  0  0  0  0  0  0  0  0  0
   57.7318   29.8988   42.6195 H   0  0  0  0  0  0  0  0  0  0  0  0
   59.6207   30.7469   46.5339 H   0  0  0  0  0  0  0  0  0  0  0  0
   59.8224   28.7715   48.0252 H   0  0  0  0  0  0  0  0  0  0  0  0
   57.8300   25.0100   45.0010 H   0  0  0  0  0  0  0  0  0  0  0  0
   54.9174   24.6556   45.3086 H   0  0  0  0  0  0  0  0  0  0  0  0
   54.7598   23.6166   43.2892 H   0  0  0  0  0  0  0  0  0  0  0  0
   56.3104   24.5071   42.9716 H   0  0  0  0  0  0  0  0  0  0  0  0
   56.4652   22.1412   42.2963 H   0  0  0  0  0  0  0  0  0  0  0  0
   57.5923   22.5533   43.6617 H   0  0  0  0  0  0  0  0  0  0  0  0
   56.9579   20.6235   45.8785 H   0  0  0  0  0  0  0  0  0  0  0  0
   56.9504   19.5000   44.4769 H   0  0  0  0  0  0  0  0  0  0  0  0
   58.0390   20.9289   44.4769 H   0  0  0  0  0  0  0  0  0  0  0  0
   54.2422   22.2960   44.8899 H   0  0  0  0  0  0  0  0  0  0  0  0
   54.9187   21.0977   45.9863 H   0  0  0  0  0  0  0  0  0  0  0  0
   57.1304   22.7081   45.9035 H   0  0  0  0  0  0  0  0  0  0  0  0
   56.4378   22.7608   47.9804 H   0  0  0  0  0  0  0  0  0  0  0  0
   55.6017   24.2819   47.5179 H   0  0  0  0  0  0  0  0  0  0  0  0
   54.7024   22.7270   47.5179 H   0  0  0  0  0  0  0  0  0  0  0  0
   56.5249   28.7086   44.3957 H   0  0  0  0  0  0  0  0  0  0  0  0
  1  2  1  0
  2  3  1  0
  3  4  2  0
  4  5  1  0
  5  6  1  0
  5  7  2  0
  7  8  1  0
  8  9  1  0
  9 10  2  0
 10 11  1  0
 11 12  2  0
 12 13  1  0
 12 14  1  0
 14 15  1  0
 15 16  2  0
 15 17  1  0
 17 18  1  0
 18 19  1  0
 19 20  1  0
 20 21  1  0
 21 22  1  0
 21 23  1  0
 23 24  1  0
 24 25  1  0
 14 26  2  0
  8  3  1  0
 26  9  1  0
 24 18  1  0
  1 27  1  0
  1 28  1  0
  1 29  1  0
  2 30  1  0
  2 31  1  0
  6 32  1  0
  6 33  1  0
  6 34  1  0
  7 35  1  0
 10 36  1  0
 11 37  1  0
 17 38  1  0
 18 39  1  1
 19 40  1  0
 19 41  1  0
 20 42  1  0
 20 43  1  0
 22 44  1  0
 22 45  1  0
 22 46  1  0
 23 47  1  0
 23 48  1  0
 24 49  1  1
 25 50  1  0
 25 51  1  0
 25 52  1  0
 26 53  1  0
M  END
>  <smiles>  (22) 
CCc1nc(C)cn1-c1ccc(F)c(C(=O)NC2CCN(C)CC2C)c1

>  <score_type>  (22) 
oracle

>  <origin>  (22) 
adg

>  <m_score__min__energy>  (22) 
-8.4600000000000009

>  <m_primary>  (22) 
energy

$$$$
22:0
     RDKit          3D

 49 51  0  0  0  0  0  0  0  0999 V2000
   64.5240   32.0230   49.3890 C   0  0  0  0  0  0  0  0  0  0  0  0
   63.6300   33.0090   48.8790 N   0  0  0  0  0  0  0  0  0  0  0  0
   63.8020   33.3700   47.5120 C   0  0  0  0  0  0  0  0  0  0  0  0
   63.2890   34.0820   49.7530 C   0  0  0  0  0  0  0  0  0  0  0  0
   61.7950   34.2350   49.9490 C   0  0  0  0  0  0  0  0  0  0  0  0
   61.1220   33.5190   48.8750 N   0  0  0  0  0  0  0  0  0  0  0  0
   59.8170   33.9740   48.5340 C   0  0  0  0  0  0  0  0  0  0  0  0
   59.3290   34.9490   49.1730 O   0  0  0  0  0  0  0  0  0  0  0  0
   59.0060   33.3810   47.4860 C   0  0  0  0  0  0  0  0  0  0  0  0
   58.2970   34.1480   46.5970 C   0  0  0  0  0  0  0  0  0  0  0  0
   57.5470   33.5550   45.6040 C   0  0  0  0  0  0  0  0  0  0  0  0
   57.4580   32.1790   45.4350 C   0  0  0  0  0  0  0  0  0  0  0  0
   56.7620   31.5200   44.5180 O   0  0  0  0  0  0  0  0  0  0  0  0
   56.9080   30.8610   43.3410 C   0  0  0  0  0  0  0  0  0  0  0  0
   56.5950   29.4060   43.3870 C   0  0  0  0  0  0  0  0  0  0  0  0
   57.6390   28.5930   43.6150 F   0  0  0  0  0  0  0  0  0  0  0  0
   55.9310   29.0450   42.1950 F   0  0  0  0  0  0  0  0  0  0  0  0
   55.6560   29.2390   44.4180 F   0  0  0  0  0  0  0  0  0  0  0  0
   58.1990   31.4340   46.3660 C   0  0  0  0  0  0  0  0  0  0  0  0
   58.2360   29.9640   46.3160 C   0  0  0  0  0  0  0  0  0  0  0  0
   57.5490   29.0170   46.3700 N   0  0  0  0  0  0  0  0  0  0  0  0
   57.8480   27.7460   46.3070 C   0  0  0  0  0  0  0  0  0  0  0  0
   57.0120   26.6290   46.3760 C   0  0  0  0  0  0  0  0  0  0  0  0
   57.5540   25.3710   46.2890 C   0  0  0  0  0  0  0  0  0  0  0  0
   58.8920   25.0980   46.1350 C   0  0  0  0  0  0  0  0  0  0  0  0
   59.7310   26.2110   46.0660 C   0  0  0  0  0  0  0  0  0  0  0  0
   59.1930   27.4780   46.1530 C   0  0  0  0  0  0  0  0  0  0  0  0
   59.9180   29.1100   46.1120 S   0  0  0  0  0  0  0  0  0  0  0  0
   58.9450   32.0150   47.3550 C   0  0  0  0  0  0  0  0  0  0  0  0
   64.5047   32.0443   50.4886 H   0  0  0  0  0  0  0  0  0  0  0  0
   64.2132   31.0286   49.0360 H   0  0  0  0  0  0  0  0  0  0  0  0
   65.5440   32.2352   49.0360 H   0  0  0  0  0  0  0  0  0  0  0  0
   64.2744   34.3615   47.4513 H   0  0  0  0  0  0  0  0  0  0  0  0
   64.4430   32.6273   47.0145 H   0  0  0  0  0  0  0  0  0  0  0  0
   62.8214   33.3999   47.0145 H   0  0  0  0  0  0  0  0  0  0  0  0
   63.7537   33.8971   50.7327 H   0  0  0  0  0  0  0  0  0  0  0  0
   63.6568   35.0107   49.2922 H   0  0  0  0  0  0  0  0  0  0  0  0
   61.5012   33.8115   50.9207 H   0  0  0  0  0  0  0  0  0  0  0  0
   61.5154   35.2987   49.9314 H   0  0  0  0  0  0  0  0  0  0  0  0
   61.5430   32.7130   48.3650 H   0  0  0  0  0  0  0  0  0  0  0  0
   58.3271   35.2447   46.6770 H   0  0  0  0  0  0  0  0  0  0  0  0
   56.9913   34.2037   44.9109 H   0  0  0  0  0  0  0  0  0  0  0  0
   56.2402   31.3298   42.6032 H   0  0  0  0  0  0  0  0  0  0  0  0
   57.9736   30.9363   43.0787 H   0  0  0  0  0  0  0  0  0  0  0  0
   55.9264   26.7568   46.4992 H   0  0  0  0  0  0  0  0  0  0  0  0
   56.8646   24.5158   46.3470 H   0  0  0  0  0  0  0  0  0  0  0  0
   59.2765   24.0694   46.0703 H   0  0  0  0  0  0  0  0  0  0  0  0
   60.8160   26.0785   45.9428 H   0  0  0  0  0  0  0  0  0  0  0  0
   59.5046   31.3783   48.0561 H   0  0  0  0  0  0  0  0  0  0  0  0
  1  2  1  0
  2  3  1  0
  2  4  1  0
  4  5  1  0
  5  6  1  0
  6  7  1  0
  7  8  2  0
  7  9  1  0
  9 10  2  0
 10 11  1  0
 11 12  2  0
 12 13  1  0
 13 14  1  0
 14 15  1  0
 15 16  1  0
 15 17  1  0
 15 18  1  0
 12 19  1  0
 19 20  1  0
 20 21  2  0
 21 22  1  0
 22 23  2  0
 23 24  1  0
 24 25  2  0
 25 26  1  0
 26 27  2  0
 27 28  1  0
 19 29  2  0
 29  9  1  0
 28 20  1  0
 27 22  1  0
  1 30  1  0
  1 31  1  0
  1 32  1  0
  3 33  1  0
  3 34  1  0
  3 35  1  0
  4 36  1  0
  4 37  1  0
  5 38  1  0
  5 39  1  0
  6 40  1  0
 10 41  1  0
 11 42  1  0
 14 43  1  0
 14 44  1  0
 23 45  1  0
 24 46  1  0
 25 47  1  0
 26 48  1  0
 29 49  1  0
M  END
>  <smiles>  (23) 
CN(C)CCNC(=O)c1ccc(OCC(F)(F)F)c(-c2nc3ccccc3s2)c1

>  <score_type>  (23) 
oracle

>  <origin>  (23) 
adg

>  <m_score__min__energy>  (23) 
-7.3200000000000003

>  <m_primary>  (23) 
energy

$$$$
23:0
     RDKit          3D

 42 45  0  0  0  0  0  0  0  0999 V2000
   57.2630   25.9410   44.8960 O   0  0  0  0  0  0  0  0  0  0  0  0
   56.8910   26.8670   45.6650 C   0  0  0  0  0  0  0  0  0  0  0  0
   55.5330   26.9470   46.0070 O   0  0  0  0  0  0  0  0  0  0  0  0
   57.8080   27.8600   46.2150 C   0  0  0  0  0  0  0  0  0  0  0  0
   58.0860   27.9210   47.5810 C   0  0  0  0  0  0  0  0  0  0  0  0
   58.9680   28.8820   48.0810 C   0  0  0  0  0  0  0  0  0  0  0  0
   59.5480   29.7570   47.1860 C   0  0  0  0  0  0  0  0  0  0  0  0
   60.4610   30.7780   47.5720 N   0  0  0  0  0  0  0  0  0  0  0  0
   61.5470   30.5660   48.3060 N   0  0  0  0  0  0  0  0  0  0  0  0
   62.2030   31.7290   48.5000 C   0  0  0  0  0  0  0  0  0  0  0  0
   63.4380   31.9150   49.2540 C   0  0  0  0  0  0  0  0  0  0  0  0
   63.6740   31.0930   50.3370 C   0  0  0  0  0  0  0  0  0  0  0  0
   64.8430   31.2510   51.0680 C   0  0  0  0  0  0  0  0  0  0  0  0
   65.7290   32.2360   50.6740 C   0  0  0  0  0  0  0  0  0  0  0  0
   65.4760   33.0510   49.5850 C   0  0  0  0  0  0  0  0  0  0  0  0
   64.3090   32.9010   48.8450 C   0  0  0  0  0  0  0  0  0  0  0  0
   61.4550   32.6820   47.8380 C   0  0  0  0  0  0  0  0  0  0  0  0
   60.3510   32.0770   47.2500 C   0  0  0  0  0  0  0  0  0  0  0  0
   59.3300   32.7630   46.4650 C   0  0  0  0  0  0  0  0  0  0  0  0
   59.6980   33.7450   45.5520 C   0  0  0  0  0  0  0  0  0  0  0  0
   58.7470   34.4090   44.7980 C   0  0  0  0  0  0  0  0  0  0  0  0
   57.3880   34.1160   44.9250 C   0  0  0  0  0  0  0  0  0  0  0  0
   57.0180   33.1420   45.8310 C   0  0  0  0  0  0  0  0  0  0  0  0
   57.9830   32.4930   46.5720 C   0  0  0  0  0  0  0  0  0  0  0  0
   59.2630   29.6860   45.8190 C   0  0  0  0  0  0  0  0  0  0  0  0
   58.3940   28.7420   45.3160 C   0  0  0  0  0  0  0  0  0  0  0  0
   55.1450   26.3370   46.7400 H   0  0  0  0  0  0  0  0  0  0  0  0
   57.6076   27.2079   48.2685 H   0  0  0  0  0  0  0  0  0  0  0  0
   59.1933   28.9393   49.1562 H   0  0  0  0  0  0  0  0  0  0  0  0
   62.9431   30.3205   50.6180 H   0  0  0  0  0  0  0  0  0  0  0  0
   65.0583   30.6107   51.9361 H   0  0  0  0  0  0  0  0  0  0  0  0
   66.6607   32.3757   51.2418 H   0  0  0  0  0  0  0  0  0  0  0  0
   66.2050   33.8247   49.3022 H   0  0  0  0  0  0  0  0  0  0  0  0
   64.0915   33.5384   47.9753 H   0  0  0  0  0  0  0  0  0  0  0  0
   61.6957   33.7540   47.7844 H   0  0  0  0  0  0  0  0  0  0  0  0
   60.7613   33.9977   45.4274 H   0  0  0  0  0  0  0  0  0  0  0  0
   59.0678   35.1826   44.0848 H   0  0  0  0  0  0  0  0  0  0  0  0
   56.6352   34.6448   44.3219 H   0  0  0  0  0  0  0  0  0  0  0  0
   55.9565   32.8845   45.9613 H   0  0  0  0  0  0  0  0  0  0  0  0
   57.6609   31.7200   47.2852 H   0  0  0  0  0  0  0  0  0  0  0  0
   59.7421   30.3981   45.1310 H   0  0  0  0  0  0  0  0  0  0  0  0
   58.1721   28.6888   44.2399 H   0  0  0  0  0  0  0  0  0  0  0  0
  1  2  2  0
  2  3  1  0
  2  4  1  0
  4  5  2  0
  5  6  1  0
  6  7  2  0
  7  8  1  0
  8  9  1  0
  9 10  2  0
 10 11  1  0
 11 12  2  0
 12 13  1  0
 13 14  2  0
 14 15  1  0
 15 16  2  0
 10 17  1  0
 17 18  2  0
 18 19  1  0
 19 20  2  0
 20 21  1  0
 21 22  2  0
 22 23  1  0
 23 24  2  0
  7 25  1  0
 25 26  2  0
 26  4  1  0
 18  8  1  0
 24 19  1  0
 16 11  1  0
  3 27  1  0
  5 28  1  0
  6 29  1  0
 12 30  1  0
 13 31  1  0
 14 32  1  0
 15 33  1  0
 16 34  1  0
 17 35  1  0
 20 36  1  0
 21 37  1  0
 22 38  1  0
 23 39  1  0
 24 40  1  0
 25 41  1  0
 26 42  1  0
M  END
>  <smiles>  (24) 
O=C(O)c1ccc(-n2nc(-c3ccccc3)cc2-c2ccccc2)cc1

>  <score_type>  (24) 
oracle

>  <origin>  (24) 
adg

>  <m_score__min__energy>  (24) 
-8.8200000000000003

>  <m_primary>  (24) 
energy

$$$$
24:0
     RDKit          3D

 29 30  0  0  1  0  0  0  0  0999 V2000
   56.6430   30.5040   42.3440 C   0  0  0  0  0  0  0  0  0  0  0  0
   55.8820   29.7100   43.3700 C   0  0  0  0  0  0  0  0  0  0  0  0
   55.9100   30.4090   44.6200 O   0  0  0  0  0  0  0  0  0  0  0  0
   56.6380   31.4710   44.8980 N   0  0  0  0  0  0  0  0  0  0  0  0
   57.7850   31.5450   45.4830 C   0  0  0  0  0  0  0  0  0  0  0  0
   58.3350   32.8340   45.8640 C   0  0  0  0  0  0  0  0  0  0  0  0
   58.7000   33.1120   47.1890 C   0  0  0  0  0  0  0  0  0  0  0  0
   59.3180   34.3050   47.5410 C   0  0  0  0  0  0  0  0  0  0  0  0
   59.6060   35.2710   46.6260 C   0  0  0  0  0  0  0  0  0  0  0  0
   59.2630   35.0310   45.3250 C   0  0  0  0  0  0  0  0  0  0  0  0
   58.6450   33.8380   44.9700 C   0  0  0  0  0  0  0  0  0  0  0  0
   58.4490   30.2510   45.6770 C   0  0  0  0  0  0  0  0  0  0  0  0
   59.4170   29.5930   44.9850 C   0  0  0  0  0  0  0  0  0  0  0  0
   59.7520   28.4230   45.6150 N   0  0  0  0  0  0  0  0  0  0  0  0
   58.9720   28.3850   46.6930 C   0  0  0  0  0  0  0  0  0  0  0  0
   58.2010   29.4420   46.7520 N   0  0  0  0  0  0  0  0  0  0  0  0
   57.3180   31.2083   42.8522 H   0  0  0  0  0  0  0  0  0  0  0  0
   57.2322   29.8207   41.7147 H   0  0  0  0  0  0  0  0  0  0  0  0
   55.9353   31.0637   41.7147 H   0  0  0  0  0  0  0  0  0  0  0  0
   54.8398   29.5860   43.0408 H   0  0  0  0  0  0  0  0  0  0  0  0
   56.3449   28.7193   43.4894 H   0  0  0  0  0  0  0  0  0  0  0  0
   58.4915   32.3659   47.9699 H   0  0  0  0  0  0  0  0  0  0  0  0
   59.5837   34.4751   48.5948 H   0  0  0  0  0  0  0  0  0  0  0  0
   60.0965   36.2098   46.9228 H   0  0  0  0  0  0  0  0  0  0  0  0
   59.4773   35.7863   44.5546 H   0  0  0  0  0  0  0  0  0  0  0  0
   58.3873   33.6849   43.9116 H   0  0  0  0  0  0  0  0  0  0  0  0
   59.8691   29.9507   44.0482 H   0  0  0  0  0  0  0  0  0  0  0  0
   60.4590   27.7190   45.3180 H   0  0  0  0  0  0  0  0  0  0  0  0
   58.9747   27.5735   47.4357 H   0  0  0  0  0  0  0  0  0  0  0  0
  1  2  1  0
  2  3  1  0
  3  4  1  0
  4  5  2  0
  5  6  1  0
  6  7  2  0
  7  8  1  0
  8  9  2  0
  9 10  1  0
 10 11  2  0
  5 12  1  0
 12 13  2  0
 13 14  1  0
 14 15  1  0
 15 16  2  0
 11  6  1  0
 16 12  1  0
  1 17  1  0
  1 18  1  0
  1 19  1  0
  2 20  1  0
  2 21  1  0
  7 22  1  0
  8 23  1  0
  9 24  1  0
 10 25  1  0
 11 26  1  0
 13 27  1  0
 14 28  1  0
 15 29  1  0
M  END
>  <smiles>  (25) 
CCON=C(c1ccccc1)c1c[nH]cn1

>  <score_type>  (25) 
oracle

>  <origin>  (25) 
adg

>  <m_score__min__energy>  (25) 
-6.0099999999999998

>  <m_primary>  (25) 
energy

$$$$
25:0
     RDKit          3D

 40 42  0  0  0  0  0  0  0  0999 V2000
   57.3470   34.2010   44.9440 C   0  0  0  0  0  0  0  0  0  0  0  0
   58.8730   34.1140   44.8410 C   0  0  0  0  0  0  0  0  0  0  0  0
   59.3960   34.9710   45.9730 C   0  0  0  0  0  0  0  0  0  0  0  0
   60.1280   34.1760   47.0200 C   0  0  0  0  0  0  0  0  0  0  0  0
   59.3410   33.0060   47.5320 C   0  0  0  0  0  0  0  0  0  0  0  0
   59.7940   31.7860   46.9300 N   0  0  0  0  0  0  0  0  0  0  0  0
   61.0190   31.2460   47.0450 C   0  0  0  0  0  0  0  0  0  0  0  0
   62.1750   31.7410   47.7870 C   0  0  0  0  0  0  0  0  0  0  0  0
   63.0460   32.6840   47.2870 C   0  0  0  0  0  0  0  0  0  0  0  0
   64.1280   33.1020   48.0640 C   0  0  0  0  0  0  0  0  0  0  0  0
   64.3100   32.5570   49.3390 C   0  0  0  0  0  0  0  0  0  0  0  0
   65.6540   33.0480   50.3570 Cl  0  0  0  0  0  0  0  0  0  0  0  0
   63.4420   31.6110   49.8510 C   0  0  0  0  0  0  0  0  0  0  0  0
   62.3700   31.2050   49.0630 C   0  0  0  0  0  0  0  0  0  0  0  0
   61.0570   30.0930   46.3310 N   0  0  0  0  0  0  0  0  0  0  0  0
   59.8620   29.8790   45.7510 C   0  0  0  0  0  0  0  0  0  0  0  0
   59.3180   28.9040   44.9330 C   0  0  0  0  0  0  0  0  0  0  0  0
   60.1050   27.8610   44.5680 F   0  0  0  0  0  0  0  0  0  0  0  0
   57.9980   28.9860   44.4940 C   0  0  0  0  0  0  0  0  0  0  0  0
   57.2170   30.0570   44.8790 C   0  0  0  0  0  0  0  0  0  0  0  0
   55.9230   30.1910   44.4830 F   0  0  0  0  0  0  0  0  0  0  0  0
   57.7730   31.0200   45.6950 C   0  0  0  0  0  0  0  0  0  0  0  0
   59.0700   30.9650   46.1420 C   0  0  0  0  0  0  0  0  0  0  0  0
   57.0514   34.2179   46.0034 H   0  0  0  0  0  0  0  0  0  0  0  0
   56.9981   35.1205   44.4513 H   0  0  0  0  0  0  0  0  0  0  0  0
   56.8958   33.3271   44.4513 H   0  0  0  0  0  0  0  0  0  0  0  0
   59.2089   33.0731   44.9581 H   0  0  0  0  0  0  0  0  0  0  0  0
   59.2394   34.4570   43.8622 H   0  0  0  0  0  0  0  0  0  0  0  0
   60.0848   35.7206   45.5563 H   0  0  0  0  0  0  0  0  0  0  0  0
   58.5281   35.4387   46.4608 H   0  0  0  0  0  0  0  0  0  0  0  0
   61.0656   33.8021   46.5828 H   0  0  0  0  0  0  0  0  0  0  0  0
   60.3080   34.8469   47.8729 H   0  0  0  0  0  0  0  0  0  0  0  0
   59.4646   32.9376   48.6229 H   0  0  0  0  0  0  0  0  0  0  0  0
   58.2816   33.1539   47.2757 H   0  0  0  0  0  0  0  0  0  0  0  0
   62.8901   33.1046   46.2826 H   0  0  0  0  0  0  0  0  0  0  0  0
   64.8314   33.8537   47.6766 H   0  0  0  0  0  0  0  0  0  0  0  0
   63.5950   31.1901   50.8557 H   0  0  0  0  0  0  0  0  0  0  0  0
   61.6667   30.4524   49.4491 H   0  0  0  0  0  0  0  0  0  0  0  0
   57.5810   28.2021   43.8447 H   0  0  0  0  0  0  0  0  0  0  0  0
   57.1482   31.8717   46.0019 H   0  0  0  0  0  0  0  0  0  0  0  0
  1  2  1  0
  2  3  1  0
  3  4  1  0
  4  5  1  0
  5  6  1  0
  6  7  1  0
  7  8  1  0
  8  9  2  0
  9 10  1  0
 10 11  2  0
 11 12  1  0
 11 13  1  0
 13 14  2  0
  7 15  2  0
 15 16  1  0
 16 17  2  0
 17 18  1  0
 17 19  1  0
 19 20  2  0
 20 21  1  0
 20 22  1  0
 22 23  2  0
 23  6  1  0
 14  8  1  0
 23 16  1  0
  1 24  1  0
  1 25  1  0
  1 26  1  0
  2 27  1  0
  2 28  1  0
  3 29  1  0
  3 30  1  0
  4 31  1  0
  4 32  1  0
  5 33  1  0
  5 34  1  0
  9 35  1  0
 10 36  1  0
 13 37  1  0
 14 38  1  0
 19 39  1  0
 22 40  1  0
M  END
>  <smiles>  (26) 
CCCCCn1c(-c2ccc(Cl)cc2)nc2c(F)cc(F)cc21

>  <score_type>  (26) 
oracle

>  <origin>  (26) 
adg

>  <m_score__min__energy>  (26) 
-6.8799999999999999

>  <m_primary>  (26) 
energy

$$$$
26:0
     RDKit          3D

 35 35  0  0  0  0  0  0  0  0999 V2000
   55.1290   23.6870   44.0910 C   0  0  0  0  0  0  0  0  0  0  0  0
   54.1500   24.1680   45.1710 C   0  0  0  0  0  0  0  0  0  0  0  0
   54.7760   25.0960   46.0230 O   0  0  0  0  0  0  0  0  0  0  0  0
   55.9630   24.8430   46.7080 C   0  0  0  0  0  0  0  0  0  0  0  0
   55.9460   23.9870   47.6270 O   0  0  0  0  0  0  0  0  0  0  0  0
   57.2060   25.5740   46.3500 C   0  0  0  0  0  0  0  0  0  0  0  0
   56.8720   26.4980   45.2710 N   0  0  0  0  0  0  0  0  0  0  0  0
   57.9610   27.1770   44.6620 C   0  0  0  0  0  0  0  0  0  0  0  0
   59.1290   26.9670   45.0580 O   0  0  0  0  0  0  0  0  0  0  0  0
   57.6860   28.1440   43.5430 C   0  0  0  0  0  0  0  0  0  0  0  0
   58.2970   29.4260   43.8130 N   0  0  0  0  0  0  0  0  0  0  0  0
   57.5310   30.3440   44.6030 C   0  0  0  0  0  0  0  0  0  0  0  0
   56.3790   30.0450   45.0400 O   0  0  0  0  0  0  0  0  0  0  0  0
   58.0400   31.6680   44.9450 C   0  0  0  0  0  0  0  0  0  0  0  0
   58.3590   31.8650   46.2910 C   0  0  0  0  0  0  0  0  0  0  0  0
   58.8490   33.0740   46.7360 C   0  0  0  0  0  0  0  0  0  0  0  0
   59.0200   34.1000   45.8100 C   0  0  0  0  0  0  0  0  0  0  0  0
   59.6460   35.6510   46.3720 Cl  0  0  0  0  0  0  0  0  0  0  0  0
   58.7000   33.9030   44.4640 C   0  0  0  0  0  0  0  0  0  0  0  0
   58.2060   32.6780   44.0220 C   0  0  0  0  0  0  0  0  0  0  0  0
   57.7950   32.3840   42.3600 Cl  0  0  0  0  0  0  0  0  0  0  0  0
   56.0178   23.2503   44.5700 H   0  0  0  0  0  0  0  0  0  0  0  0
   54.6394   22.9269   43.4645 H   0  0  0  0  0  0  0  0  0  0  0  0
   55.4315   24.5391   43.4645 H   0  0  0  0  0  0  0  0  0  0  0  0
   53.2844   24.6455   44.6886 H   0  0  0  0  0  0  0  0  0  0  0  0
   53.8220   23.3027   45.7658 H   0  0  0  0  0  0  0  0  0  0  0  0
   57.5784   26.1323   47.2216 H   0  0  0  0  0  0  0  0  0  0  0  0
   57.9917   24.8728   46.0323 H   0  0  0  0  0  0  0  0  0  0  0  0
   55.8770   26.6530   44.9590 H   0  0  0  0  0  0  0  0  0  0  0  0
   58.0965   27.7385   42.6065 H   0  0  0  0  0  0  0  0  0  0  0  0
   56.5983   28.2825   43.4549 H   0  0  0  0  0  0  0  0  0  0  0  0
   59.2450   29.7080   43.4690 H   0  0  0  0  0  0  0  0  0  0  0  0
   58.2168   31.0421   47.0070 H   0  0  0  0  0  0  0  0  0  0  0  0
   59.0989   33.2248   47.7966 H   0  0  0  0  0  0  0  0  0  0  0  0
   58.8398   34.7243   43.7458 H   0  0  0  0  0  0  0  0  0  0  0  0
  1  2  1  0
  2  3  1  0
  3  4  1  0
  4  5  2  0
  4  6  1  0
  6  7  1  0
  7  8  1  0
  8  9  2  0
  8 10  1  0
 10 11  1  0
 11 12  1  0
 12 13  2  0
 12 14  1  0
 14 15  2  0
 15 16  1  0
 16 17  2  0
 17 18  1  0
 17 19  1  0
 19 20  2  0
 20 21  1  0
 20 14  1  0
  1 22  1  0
  1 23  1  0
  1 24  1  0
  2 25  1  0
  2 26  1  0
  6 27  1  0
  6 28  1  0
  7 29  1  0
 10 30  1  0
 10 31  1  0
 11 32  1  0
 15 33  1  0
 16 34  1  0
 19 35  1  0
M  END
>  <smiles>  (27) 
CCOC(=O)CNC(=O)CNC(=O)c1ccc(Cl)cc1Cl

>  <score_type>  (27) 
oracle

>  <origin>  (27) 
adg

>  <m_score__min__energy>  (27) 
-7.0199999999999996

>  <m_primary>  (27) 
energy

$$$$
27:0
     RDKit          3D

 62 65  0  0  0  0  0  0  0  0999 V2000
   63.0860   33.7210   46.8470 C   0  0  0  0  0  0  0  0  0  0  0  0
   62.5870   33.6140   48.2600 C   0  0  0  0  0  0  0  0  0  0  0  0
   63.1100   32.5540   49.0250 N   0  0  0  0  0  0  0  0  0  0  0  0
   64.5020   32.4470   49.2040 C   0  0  0  0  0  0  0  0  0  0  0  0
   62.2510   31.8510   49.9020 C   0  0  0  0  0  0  0  0  0  0  0  0
   61.4720   30.7720   49.1950 C   0  0  0  0  0  0  0  0  0  0  0  0
   61.5200   30.8040   47.7760 N   0  0  0  0  0  0  0  0  0  0  0  0
   60.6400   30.1870   46.8710 C   0  0  0  0  0  0  0  0  0  0  0  0
   60.7730   28.8250   46.5650 C   0  0  0  0  0  0  0  0  0  0  0  0
   59.9450   28.1870   45.6720 C   0  0  0  0  0  0  0  0  0  0  0  0
   58.9220   28.8620   45.0170 C   0  0  0  0  0  0  0  0  0  0  0  0
   58.7810   30.1930   45.3070 C   0  0  0  0  0  0  0  0  0  0  0  0
   59.6170   30.8360   46.2090 C   0  0  0  0  0  0  0  0  0  0  0  0
   57.7250   30.6450   44.5510 C   0  0  0  0  0  0  0  0  0  0  0  0
   57.1020   32.2960   44.5320 S   0  0  0  0  0  0  0  0  0  0  0  0
   58.1110   33.4150   45.5050 C   0  0  0  0  0  0  0  0  0  0  0  0
   58.1200   33.3390   46.8920 C   0  0  0  0  0  0  0  0  0  0  0  0
   58.8770   34.1730   47.6760 C   0  0  0  0  0  0  0  0  0  0  0  0
   59.6610   35.1280   47.0230 C   0  0  0  0  0  0  0  0  0  0  0  0
   59.6690   35.2230   45.6540 C   0  0  0  0  0  0  0  0  0  0  0  0
   58.8940   34.3680   44.8680 C   0  0  0  0  0  0  0  0  0  0  0  0
   57.2700   29.5730   43.8360 C   0  0  0  0  0  0  0  0  0  0  0  0
   56.1180   29.6750   42.8800 C   0  0  0  0  0  0  0  0  0  0  0  0
   58.0010   28.4610   44.1140 N   0  0  0  0  0  0  0  0  0  0  0  0
   57.8240   27.1250   43.5590 C   0  0  0  0  0  0  0  0  0  0  0  0
   57.4950   26.1410   44.6080 C   0  0  0  0  0  0  0  0  0  0  0  0
   56.9720   26.4720   45.8390 C   0  0  0  0  0  0  0  0  0  0  0  0
   56.6600   25.5520   46.8140 C   0  0  0  0  0  0  0  0  0  0  0  0
   56.8750   24.2020   46.5740 C   0  0  0  0  0  0  0  0  0  0  0  0
   57.3950   23.8310   45.3540 C   0  0  0  0  0  0  0  0  0  0  0  0
   57.7040   24.7890   44.3770 C   0  0  0  0  0  0  0  0  0  0  0  0
   64.1615   33.9516   46.8544 H   0  0  0  0  0  0  0  0  0  0  0  0
   62.9192   32.7667   46.3260 H   0  0  0  0  0  0  0  0  0  0  0  0
   62.5426   34.5230   46.3260 H   0  0  0  0  0  0  0  0  0  0  0  0
   62.8343   34.5538   48.7754 H   0  0  0  0  0  0  0  0  0  0  0  0
   61.5086   33.4134   48.1771 H   0  0  0  0  0  0  0  0  0  0  0  0
   64.7331   32.4292   50.2793 H   0  0  0  0  0  0  0  0  0  0  0  0
   64.8615   31.5186   48.7363 H   0  0  0  0  0  0  0  0  0  0  0  0
   64.9992   33.3096   48.7363 H   0  0  0  0  0  0  0  0  0  0  0  0
   62.8566   31.3883   50.6952 H   0  0  0  0  0  0  0  0  0  0  0  0
   61.5298   32.5709   50.3162 H   0  0  0  0  0  0  0  0  0  0  0  0
   61.8671   29.7996   49.5242 H   0  0  0  0  0  0  0  0  0  0  0  0
   60.4183   30.9404   49.4622 H   0  0  0  0  0  0  0  0  0  0  0  0
   62.3170   31.3630   47.3350 H   0  0  0  0  0  0  0  0  0  0  0  0
   61.5685   28.2462   47.0572 H   0  0  0  0  0  0  0  0  0  0  0  0
   60.0959   27.1161   45.4711 H   0  0  0  0  0  0  0  0  0  0  0  0
   59.4580   31.9067   46.4045 H   0  0  0  0  0  0  0  0  0  0  0  0
   57.4943   32.5787   47.3823 H   0  0  0  0  0  0  0  0  0  0  0  0
   58.8671   34.0931   48.7731 H   0  0  0  0  0  0  0  0  0  0  0  0
   60.2821   35.8151   47.6164 H   0  0  0  0  0  0  0  0  0  0  0  0
   60.2961   35.9850   45.1681 H   0  0  0  0  0  0  0  0  0  0  0  0
   58.9036   34.4476   43.7709 H   0  0  0  0  0  0  0  0  0  0  0  0
   55.1783   29.7582   43.4457 H   0  0  0  0  0  0  0  0  0  0  0  0
   56.2448   30.5654   42.2467 H   0  0  0  0  0  0  0  0  0  0  0  0
   56.0864   28.7761   42.2467 H   0  0  0  0  0  0  0  0  0  0  0  0
   57.0066   27.1494   42.8232 H   0  0  0  0  0  0  0  0  0  0  0  0
   58.7692   26.8207   43.0857 H   0  0  0  0  0  0  0  0  0  0  0  0
   56.7930   27.5355   46.0556 H   0  0  0  0  0  0  0  0  0  0  0  0
   56.2433   25.8842   47.7763 H   0  0  0  0  0  0  0  0  0  0  0  0
   56.6362   23.4480   47.3385 H   0  0  0  0  0  0  0  0  0  0  0  0
   57.5709   22.7660   45.1422 H   0  0  0  0  0  0  0  0  0  0  0  0
   58.1188   24.4629   43.4118 H   0  0  0  0  0  0  0  0  0  0  0  0
  1  2  1  0
  2  3  1  0
  3  4  1  0
  3  5  1  0
  5  6  1  0
  6  7  1  0
  7  8  1  0
  8  9  2  0
  9 10  1  0
 10 11  2  0
 11 12  1  0
 12 13  2  0
 12 14  1  0
 14 15  1  0
 15 16  1  0
 16 17  2  0
 17 18  1  0
 18 19  2  0
 19 20  1  0
 20 21  2  0
 14 22  2  0
 22 23  1  0
 22 24  1  0
 24 25  1  0
 25 26  1  0
 26 27  2  0
 27 28  1  0
 28 29  2  0
 29 30  1  0
 30 31  2  0
 13  8  1  0
 21 16  1  0
 31 26  1  0
 24 11  1  0
  1 32  1  0
  1 33  1  0
  1 34  1  0
  2 35  1  0
  2 36  1  0
  4 37  1  0
  4 38  1  0
  4 39  1  0
  5 40  1  0
  5 41  1  0
  6 42  1  0
  6 43  1  0
  7 44  1  0
  9 45  1  0
 10 46  1  0
 13 47  1  0
 17 48  1  0
 18 49  1  0
 19 50  1  0
 20 51  1  0
 21 52  1  0
 23 53  1  0
 23 54  1  0
 23 55  1  0
 25 56  1  0
 25 57  1  0
 27 58  1  0
 28 59  1  0
 29 60  1  0
 30 61  1  0
 31 62  1  0
M  END
>  <smiles>  (28) 
CCN(C)CCNc1ccc2c(c1)c(Sc1ccccc1)c(C)n2Cc1ccccc1

>  <score_type>  (28) 
oracle

>  <origin>  (28) 
adg

>  <m_score__min__energy>  (28) 
-9.1600000000000001

>  <m_primary>  (28) 
energy

$$$$
28:0
     RDKit          3D

 56 58  0  0  0  0  0  0  0  0999 V2000
   63.3630   32.0820   47.4320 C   0  0  0  0  0  0  0  0  0  0  0  0
   63.6380   33.4880   47.9700 C   0  0  0  0  0  0  0  0  0  0  0  0
   62.1580   34.0420   48.8290 S   0  0  0  0  0  0  0  0  0  0  0  0
   60.7750   33.9580   47.7360 C   0  0  0  0  0  0  0  0  0  0  0  0
   60.9610   34.1790   46.3820 C   0  0  0  0  0  0  0  0  0  0  0  0
   59.9320   34.1300   45.4640 C   0  0  0  0  0  0  0  0  0  0  0  0
   58.6410   33.8480   45.9010 C   0  0  0  0  0  0  0  0  0  0  0  0
   57.5210   33.7950   44.9030 C   0  0  0  0  0  0  0  0  0  0  0  0
   56.7420   32.6330   45.2120 N   0  0  0  0  0  0  0  0  0  0  0  0
   57.2420   31.4160   44.6440 C   0  0  0  0  0  0  0  0  0  0  0  0
   58.0100   30.5850   45.6460 C   0  0  0  0  0  0  0  0  0  0  0  0
   58.5180   29.3420   44.9700 C   0  0  0  0  0  0  0  0  0  0  0  0
   57.4870   28.5780   44.3000 N   0  0  0  0  0  0  0  0  0  0  0  0
   58.1580   27.4820   43.6390 C   0  0  0  0  0  0  0  0  0  0  0  0
   57.8010   26.1650   44.1840 C   0  0  0  0  0  0  0  0  0  0  0  0
   57.8910   25.9730   45.5430 C   0  0  0  0  0  0  0  0  0  0  0  0
   57.5730   24.7570   46.1490 C   0  0  0  0  0  0  0  0  0  0  0  0
   57.1490   23.6910   45.3730 C   0  0  0  0  0  0  0  0  0  0  0  0
   57.0620   23.9000   44.0120 C   0  0  0  0  0  0  0  0  0  0  0  0
   57.3780   25.1040   43.4160 C   0  0  0  0  0  0  0  0  0  0  0  0
   56.6940   29.3650   43.3880 C   0  0  0  0  0  0  0  0  0  0  0  0
   56.1330   30.5790   44.0580 C   0  0  0  0  0  0  0  0  0  0  0  0
   58.4280   33.6250   47.2460 C   0  0  0  0  0  0  0  0  0  0  0  0
   59.4800   33.6780   48.1550 C   0  0  0  0  0  0  0  0  0  0  0  0
   59.3030   33.4590   49.5140 O   0  0  0  0  0  0  0  0  0  0  0  0
   58.9300   32.1730   49.9730 C   0  0  0  0  0  0  0  0  0  0  0  0
   63.2271   31.3873   48.2740 H   0  0  0  0  0  0  0  0  0  0  0  0
   62.4507   32.0964   46.8176 H   0  0  0  0  0  0  0  0  0  0  0  0
   64.2135   31.7516   46.8176 H   0  0  0  0  0  0  0  0  0  0  0  0
   64.4887   33.4630   48.6669 H   0  0  0  0  0  0  0  0  0  0  0  0
   63.8863   34.1744   47.1470 H   0  0  0  0  0  0  0  0  0  0  0  0
   61.9756   34.4040   46.0215 H   0  0  0  0  0  0  0  0  0  0  0  0
   60.1300   34.3120   44.3974 H   0  0  0  0  0  0  0  0  0  0  0  0
   56.8997   34.6992   44.9835 H   0  0  0  0  0  0  0  0  0  0  0  0
   57.9114   33.7452   43.8758 H   0  0  0  0  0  0  0  0  0  0  0  0
   55.7490   32.7780   44.9100 H   0  0  0  0  0  0  0  0  0  0  0  0
   57.9306   31.7215   43.8425 H   0  0  0  0  0  0  0  0  0  0  0  0
   58.8595   31.1670   46.0328 H   0  0  0  0  0  0  0  0  0  0  0  0
   57.3494   30.3084   46.4809 H   0  0  0  0  0  0  0  0  0  0  0  0
   59.2715   29.6360   44.2245 H   0  0  0  0  0  0  0  0  0  0  0  0
   58.9342   28.6965   45.7575 H   0  0  0  0  0  0  0  0  0  0  0  0
   57.8906   27.5020   42.5722 H   0  0  0  0  0  0  0  0  0  0  0  0
   59.2377   27.6180   43.7998 H   0  0  0  0  0  0  0  0  0  0  0  0
   58.2259   26.8086   46.1752 H   0  0  0  0  0  0  0  0  0  0  0  0
   57.6588   24.6453   47.2399 H   0  0  0  0  0  0  0  0  0  0  0  0
   56.8928   22.7201   45.8222 H   0  0  0  0  0  0  0  0  0  0  0  0
   56.7257   23.0699   43.3734 H   0  0  0  0  0  0  0  0  0  0  0  0
   57.2916   25.2159   42.3251 H   0  0  0  0  0  0  0  0  0  0  0  0
   57.3266   29.6816   42.5456 H   0  0  0  0  0  0  0  0  0  0  0  0
   55.8555   28.7459   43.0364 H   0  0  0  0  0  0  0  0  0  0  0  0
   55.5790   31.1771   43.3195 H   0  0  0  0  0  0  0  0  0  0  0  0
   55.4602   30.2606   44.8680 H   0  0  0  0  0  0  0  0  0  0  0  0
   57.4122   33.4022   47.6045 H   0  0  0  0  0  0  0  0  0  0  0  0
   58.9271   32.1629   51.0729 H   0  0  0  0  0  0  0  0  0  0  0  0
   57.9239   31.9286   49.6014 H   0  0  0  0  0  0  0  0  0  0  0  0
   59.6491   31.4282   49.6014 H   0  0  0  0  0  0  0  0  0  0  0  0
  1  2  1  0
  2  3  1  0
  3  4  1  0
  4  5  2  0
  5  6  1  0
  6  7  2  0
  7  8  1  0
  8  9  1  0
  9 10  1  0
 10 11  1  0
 11 12  1  0
 12 13  1  0
 13 14  1  0
 14 15  1  0
 15 16  2  0
 16 17  1  0
 17 18  2  0
 18 19  1  0
 19 20  2  0
 13 21  1  0
 21 22  1  0
  7 23  1  0
 23 24  2  0
 24 25  1  0
 25 26  1  0
 24  4  1  0
 22 10  1  0
 20 15  1  0
  1 27  1  0
  1 28  1  0
  1 29  1  0
  2 30  1  0
  2 31  1  0
  5 32  1  0
  6 33  1  0
  8 34  1  0
  8 35  1  0
  9 36  1  0
 10 37  1  0
 11 38  1  0
 11 39  1  0
 12 40  1  0
 12 41  1  0
 14 42  1  0
 14 43  1  0
 16 44  1  0
 17 45  1  0
 18 46  1  0
 19 47  1  0
 20 48  1  0
 21 49  1  0
 21 50  1  0
 22 51  1  0
 22 52  1  0
 23 53  1  0
 26 54  1  0
 26 55  1  0
 26 56  1  0
M  END
>  <smiles>  (29) 
CCSc1ccc(CNC2CCN(Cc3ccccc3)CC2)cc1OC

>  <score_type>  (29) 
oracle

>  <origin>  (29) 
adg

>  <m_score__min__energy>  (29) 
-8.7799999999999994

>  <m_primary>  (29) 
energy

$$$$
29:0
     RDKit          3D

 36 37  0  0  0  0  0  0  0  0999 V2000
   57.3840   32.3480   40.7310 C   0  0  0  0  0  0  0  0  0  0  0  0
   57.4040   32.0240   42.1910 C   0  0  0  0  0  0  0  0  0  0  0  0
   58.4860   32.5600   42.8970 O   0  0  0  0  0  0  0  0  0  0  0  0
   58.4190   33.1110   44.1600 C   0  0  0  0  0  0  0  0  0  0  0  0
   59.1620   34.2110   44.5350 C   0  0  0  0  0  0  0  0  0  0  0  0
   59.0810   34.7470   45.8040 C   0  0  0  0  0  0  0  0  0  0  0  0
   58.2210   34.1360   46.6940 C   0  0  0  0  0  0  0  0  0  0  0  0
   57.4680   33.0340   46.3410 C   0  0  0  0  0  0  0  0  0  0  0  0
   57.5410   32.4790   45.0540 C   0  0  0  0  0  0  0  0  0  0  0  0
   56.8120   31.4260   44.7430 O   0  0  0  0  0  0  0  0  0  0  0  0
   56.8450   29.7940   44.7740 S   0  0  0  0  0  0  0  0  0  0  0  0
   55.4040   29.3450   45.0780 O   0  0  0  0  0  0  0  0  0  0  0  0
   57.2720   29.1710   43.4580 O   0  0  0  0  0  0  0  0  0  0  0  0
   57.9150   29.1450   45.9840 C   0  0  0  0  0  0  0  0  0  0  0  0
   58.8020   29.8980   46.7140 C   0  0  0  0  0  0  0  0  0  0  0  0
   59.6490   29.3830   47.6810 C   0  0  0  0  0  0  0  0  0  0  0  0
   59.6250   28.0370   47.9510 C   0  0  0  0  0  0  0  0  0  0  0  0
   58.7530   27.2630   47.2410 C   0  0  0  0  0  0  0  0  0  0  0  0
   57.8930   27.7760   46.2610 C   0  0  0  0  0  0  0  0  0  0  0  0
   57.0160   26.8250   45.5720 C   0  0  0  0  0  0  0  0  0  0  0  0
   55.6660   27.0620   45.7180 F   0  0  0  0  0  0  0  0  0  0  0  0
   57.1910   25.5560   46.1570 F   0  0  0  0  0  0  0  0  0  0  0  0
   57.3970   26.6260   44.2530 F   0  0  0  0  0  0  0  0  0  0  0  0
   57.3167   33.4379   40.5982 H   0  0  0  0  0  0  0  0  0  0  0  0
   58.3067   31.9775   40.2605 H   0  0  0  0  0  0  0  0  0  0  0  0
   56.5138   31.8669   40.2605 H   0  0  0  0  0  0  0  0  0  0  0  0
   56.4773   32.4109   42.6399 H   0  0  0  0  0  0  0  0  0  0  0  0
   57.4985   30.9305   42.2638 H   0  0  0  0  0  0  0  0  0  0  0  0
   59.8384   34.6742   43.8015 H   0  0  0  0  0  0  0  0  0  0  0  0
   59.6771   35.6248   46.0942 H   0  0  0  0  0  0  0  0  0  0  0  0
   58.1330   34.5387   47.7139 H   0  0  0  0  0  0  0  0  0  0  0  0
   56.7960   32.5810   47.0848 H   0  0  0  0  0  0  0  0  0  0  0  0
   58.8421   30.9796   46.5179 H   0  0  0  0  0  0  0  0  0  0  0  0
   60.3350   30.0465   48.2280 H   0  0  0  0  0  0  0  0  0  0  0  0
   60.2855   27.5976   48.7130 H   0  0  0  0  0  0  0  0  0  0  0  0
   58.7241   26.1831   47.4485 H   0  0  0  0  0  0  0  0  0  0  0  0
  1  2  1  0
  2  3  1  0
  3  4  1  0
  4  5  2  0
  5  6  1  0
  6  7  2  0
  7  8  1  0
  8  9  2  0
  9 10  1  0
 10 11  1  0
 11 12  2  0
 11 13  2  0
 11 14  1  0
 14 15  2  0
 15 16  1  0
 16 17  2  0
 17 18  1  0
 18 19  2  0
 19 20  1  0
 20 21  1  0
 20 22  1  0
 20 23  1  0
  9  4  1  0
 19 14  1  0
  1 24  1  0
  1 25  1  0
  1 26  1  0
  2 27  1  0
  2 28  1  0
  5 29  1  0
  6 30  1  0
  7 31  1  0
  8 32  1  0
 15 33  1  0
 16 34  1  0
 17 35  1  0
 18 36  1  0
M  END
>  <smiles>  (30) 
CCOc1ccccc1OS(=O)(=O)c1ccccc1C(F)(F)F

>  <score_type>  (30) 
oracle

>  <origin>  (30) 
adg

>  <m_score__min__energy>  (30) 
-7.21

>  <m_primary>  (30) 
energy

$$$$
30:0
     RDKit          3D

 50 51  0  0  1  0  0  0  0  0999 V2000
   57.1650   25.5150   46.5830 C   0  0  0  0  0  0  0  0  0  0  0  0
   55.7990   25.8080   45.9530 C   0  0  0  0  0  0  0  0  0  0  0  0
   55.7810   27.1390   45.6310 O   0  0  0  0  0  0  0  0  0  0  0  0
   57.0310   27.6880   45.6730 C   0  0  0  0  0  0  0  0  0  0  0  0
   57.3580   28.4440   44.4450 C   0  0  0  0  0  0  0  0  0  0  0  0
   56.5510   29.7250   44.3090 C   0  0  2  0  0  0  0  0  0  0  0  0
   56.2560   30.0950   42.8630 C   0  0  0  0  0  0  0  0  0  0  0  0
   57.1520   30.7140   44.9180 O   0  0  0  0  0  0  0  0  0  0  0  0
   57.7420   31.6780   45.5260 C   0  0  0  0  0  0  0  0  0  0  0  0
   58.2180   31.5310   46.8410 C   0  0  0  0  0  0  0  0  0  0  0  0
   58.8530   32.5560   47.5030 C   0  0  0  0  0  0  0  0  0  0  0  0
   59.0060   33.7430   46.8270 C   0  0  0  0  0  0  0  0  0  0  0  0
   59.6890   34.8500   47.5350 C   0  0  0  0  0  0  0  0  0  0  0  0
   61.0810   34.5830   47.7170 N   0  0  0  0  0  0  0  0  0  0  0  0
   61.3080   33.8790   48.9410 C   0  0  0  0  0  0  0  0  0  0  0  0
   62.6960   33.3090   49.0700 C   0  0  0  0  0  0  0  0  0  0  0  0
   63.0800   32.5060   47.8490 C   0  0  0  0  0  0  0  0  0  0  0  0
   63.0200   33.4540   46.6740 C   0  0  0  0  0  0  0  0  0  0  0  0
   61.5970   33.9300   46.5600 C   0  0  0  0  0  0  0  0  0  0  0  0
   58.5700   33.9650   45.5420 C   0  0  0  0  0  0  0  0  0  0  0  0
   57.9390   32.9240   44.9030 C   0  0  0  0  0  0  0  0  0  0  0  0
   57.0750   25.5343   47.6791 H   0  0  0  0  0  0  0  0  0  0  0  0
   57.5119   24.5220   46.2610 H   0  0  0  0  0  0  0  0  0  0  0  0
   57.8886   26.2784   46.2610 H   0  0  0  0  0  0  0  0  0  0  0  0
   55.6628   25.1988   45.0473 H   0  0  0  0  0  0  0  0  0  0  0  0
   54.9852   25.5632   46.6515 H   0  0  0  0  0  0  0  0  0  0  0  0
   57.0878   28.3709   46.5335 H   0  0  0  0  0  0  0  0  0  0  0  0
   57.7552   26.8648   45.7620 H   0  0  0  0  0  0  0  0  0  0  0  0
   58.4270   28.7027   44.4658 H   0  0  0  0  0  0  0  0  0  0  0  0
   57.1096   27.8035   43.5859 H   0  0  0  0  0  0  0  0  0  0  0  0
   55.5806   29.5341   44.7905 H   0  0  0  0  0  0  0  0  0  0  0  0
   55.5704   30.9549   42.8371 H   0  0  0  0  0  0  0  0  0  0  0  0
   57.1944   30.3587   42.3532 H   0  0  0  0  0  0  0  0  0  0  0  0
   55.7899   29.2389   42.3532 H   0  0  0  0  0  0  0  0  0  0  0  0
   58.0785   30.5686   47.3551 H   0  0  0  0  0  0  0  0  0  0  0  0
   59.2232   32.4309   48.5312 H   0  0  0  0  0  0  0  0  0  0  0  0
   59.5771   35.7723   46.9461 H   0  0  0  0  0  0  0  0  0  0  0  0
   59.2282   34.9574   48.5280 H   0  0  0  0  0  0  0  0  0  0  0  0
   61.1404   34.5745   49.7766 H   0  0  0  0  0  0  0  0  0  0  0  0
   60.6114   33.0278   48.9531 H   0  0  0  0  0  0  0  0  0  0  0  0
   63.4116   34.1351   49.1942 H   0  0  0  0  0  0  0  0  0  0  0  0
   62.7149   32.6402   49.9431 H   0  0  0  0  0  0  0  0  0  0  0  0
   64.0983   32.1058   47.9625 H   0  0  0  0  0  0  0  0  0  0  0  0
   62.4014   31.6522   47.7056 H   0  0  0  0  0  0  0  0  0  0  0  0
   63.6910   34.3088   46.8445 H   0  0  0  0  0  0  0  0  0  0  0  0
   63.3393   32.9511   45.7492 H   0  0  0  0  0  0  0  0  0  0  0  0
   61.5405   34.6351   45.7176 H   0  0  0  0  0  0  0  0  0  0  0  0
   60.9836   33.0277   46.4197 H   0  0  0  0  0  0  0  0  0  0  0  0
   58.7198   34.9352   45.0458 H   0  0  0  0  0  0  0  0  0  0  0  0
   57.5775   33.0696   43.8743 H   0  0  0  0  0  0  0  0  0  0  0  0
  1  2  1  0
  2  3  1  0
  3  4  1  0
  4  5  1  0
  5  6  1  0
  6  7  1  0
  6  8  1  0
  8  9  1  0
  9 10  2  0
 10 11  1  0
 11 12  2  0
 12 13  1  0
 13 14  1  0
 14 15  1  0
 15 16  1  0
 16 17  1  0
 17 18  1  0
 18 19  1  0
 12 20  1  0
 20 21  2  0
 21  9  1  0
 19 14  1  0
  1 22  1  0
  1 23  1  0
  1 24  1  0
  2 25  1  0
  2 26  1  0
  4 27  1  0
  4 28  1  0
  5 29  1  0
  5 30  1  0
  6 31  1  1
  7 32  1  0
  7 33  1  0
  7 34  1  0
 10 35  1  0
 11 36  1  0
 13 37  1  0
 13 38  1  0
 15 39  1  0
 15 40  1  0
 16 41  1  0
 16 42  1  0
 17 43  1  0
 17 44  1  0
 18 45  1  0
 18 46  1  0
 19 47  1  0
 19 48  1  0
 20 49  1  0
 21 50  1  0
M  END
>  <smiles>  (31) 
CCOCCC(C)Oc1ccc(CN2CCCCC2)cc1

>  <score_type>  (31) 
oracle

>  <origin>  (31) 
adg

>  <m_score__min__energy>  (31) 
-7.4900000000000002

>  <m_primary>  (31) 
energy

$$$$
31:0
     RDKit          3D

 38 40  0  0  0  0  0  0  0  0999 V2000
   56.3070   29.4950   42.8500 C   0  0  0  0  0  0  0  0  0  0  0  0
   56.5390   29.7890   44.2990 C   0  0  0  0  0  0  0  0  0  0  0  0
   56.0720   31.0220   44.7150 O   0  0  0  0  0  0  0  0  0  0  0  0
   57.0290   31.9750   44.4610 C   0  0  0  0  0  0  0  0  0  0  0  0
   57.0200   33.1130   45.4330 C   0  0  0  0  0  0  0  0  0  0  0  0
   58.4030   33.7310   45.4590 C   0  0  0  0  0  0  0  0  0  0  0  0
   59.2410   32.7710   46.1870 N   0  0  0  0  0  0  0  0  0  0  0  0
   60.0950   33.1660   47.2490 C   0  0  0  0  0  0  0  0  0  0  0  0
   59.6740   33.9120   48.3300 C   0  0  0  0  0  0  0  0  0  0  0  0
   60.5160   34.2680   49.3180 N   0  0  0  0  0  0  0  0  0  0  0  0
   61.8110   33.8690   49.2270 C   0  0  0  0  0  0  0  0  0  0  0  0
   62.7030   34.2280   50.2420 C   0  0  0  0  0  0  0  0  0  0  0  0
   64.0360   33.8200   50.1520 C   0  0  0  0  0  0  0  0  0  0  0  0
   64.5020   33.0750   49.0900 C   0  0  0  0  0  0  0  0  0  0  0  0
   63.5940   32.7420   48.1120 C   0  0  0  0  0  0  0  0  0  0  0  0
   62.2690   33.1230   48.1620 C   0  0  0  0  0  0  0  0  0  0  0  0
   61.3830   32.7840   47.1800 N   0  0  0  0  0  0  0  0  0  0  0  0
   59.1280   31.3870   45.7370 C   0  0  0  0  0  0  0  0  0  0  0  0
   58.4150   31.3720   44.4020 C   0  0  0  0  0  0  0  0  0  0  0  0
   55.6281   28.6347   42.7545 H   0  0  0  0  0  0  0  0  0  0  0  0
   55.8561   30.3735   42.3652 H   0  0  0  0  0  0  0  0  0  0  0  0
   57.2662   29.2607   42.3652 H   0  0  0  0  0  0  0  0  0  0  0  0
   56.0344   29.0123   44.8924 H   0  0  0  0  0  0  0  0  0  0  0  0
   57.6291   29.8013   44.4455 H   0  0  0  0  0  0  0  0  0  0  0  0
   56.7640   32.3860   43.4757 H   0  0  0  0  0  0  0  0  0  0  0  0
   56.2827   33.8657   45.1169 H   0  0  0  0  0  0  0  0  0  0  0  0
   56.7489   32.7512   46.4358 H   0  0  0  0  0  0  0  0  0  0  0  0
   58.7806   33.8741   44.4358 H   0  0  0  0  0  0  0  0  0  0  0  0
   58.4015   34.7210   45.9384 H   0  0  0  0  0  0  0  0  0  0  0  0
   58.6209   34.2247   48.3863 H   0  0  0  0  0  0  0  0  0  0  0  0
   62.3596   34.8240   51.1004 H   0  0  0  0  0  0  0  0  0  0  0  0
   64.7351   34.1019   50.9531 H   0  0  0  0  0  0  0  0  0  0  0  0
   65.5542   32.7605   49.0274 H   0  0  0  0  0  0  0  0  0  0  0  0
   63.9389   32.1467   47.2537 H   0  0  0  0  0  0  0  0  0  0  0  0
   60.1313   30.9498   45.6266 H   0  0  0  0  0  0  0  0  0  0  0  0
   58.5621   30.7968   46.4728 H   0  0  0  0  0  0  0  0  0  0  0  0
   59.0148   31.9439   43.6787 H   0  0  0  0  0  0  0  0  0  0  0  0
   58.3016   30.3194   44.1033 H   0  0  0  0  0  0  0  0  0  0  0  0
  1  2  1  0
  2  3  1  0
  3  4  1  0
  4  5  1  0
  5  6  1  0
  6  7  1  0
  7  8  1  0
  8  9  2  0
  9 10  1  0
 10 11  2  0
 11 12  1  0
 12 13  2  0
 13 14  1  0
 14 15  2  0
 15 16  1  0
 16 17  2  0
  7 18  1  0
 18 19  1  0
 19  4  1  0
 17  8  1  0
 16 11  1  0
  1 20  1  0
  1 21  1  0
  1 22  1  0
  2 23  1  0
  2 24  1  0
  4 25  1  0
  5 26  1  0
  5 27  1  0
  6 28  1  0
  6 29  1  0
  9 30  1  0
 12 31  1  0
 13 32  1  0
 14 33  1  0
 15 34  1  0
 18 35  1  0
 18 36  1  0
 19 37  1  0
 19 38  1  0
M  END
>  <smiles>  (32) 
CCOC1CCN(c2cnc3ccccc3n2)CC1

>  <score_type>  (32) 
oracle

>  <origin>  (32) 
adg

>  <m_score__min__energy>  (32) 
-6.7999999999999998

>  <m_primary>  (32) 
energy

$$$$
32:0
     RDKit          3D

 43 46  0  0  0  0  0  0  0  0999 V2000
   55.7020   22.9950   48.0390 C   0  0  0  0  0  0  0  0  0  0  0  0
   56.6870   22.6060   46.9430 C   0  0  0  0  0  0  0  0  0  0  0  0
   57.4920   23.7760   46.6230 N   0  0  0  0  0  0  0  0  0  0  0  0
   57.4160   25.0200   47.1210 C   0  0  0  0  0  0  0  0  0  0  0  0
   58.3950   25.7840   46.5050 C   0  0  0  0  0  0  0  0  0  0  0  0
   58.6430   27.2030   46.7720 C   0  0  0  0  0  0  0  0  0  0  0  0
   59.2670   27.5120   47.9820 C   0  0  0  0  0  0  0  0  0  0  0  0
   59.5210   28.8540   48.2740 C   0  0  0  0  0  0  0  0  0  0  0  0
   59.1410   29.8240   47.3470 C   0  0  0  0  0  0  0  0  0  0  0  0
   58.5240   29.4900   46.1570 C   0  0  0  0  0  0  0  0  0  0  0  0
   58.2730   28.1590   45.8690 C   0  0  0  0  0  0  0  0  0  0  0  0
   58.1480   30.5130   45.2310 N   0  0  0  0  0  0  0  0  0  0  0  0
   58.3970   31.9020   45.5050 C   0  0  0  0  0  0  0  0  0  0  0  0
   58.0180   32.8680   44.5810 C   0  0  0  0  0  0  0  0  0  0  0  0
   57.4160   32.5170   43.4200 F   0  0  0  0  0  0  0  0  0  0  0  0
   58.2760   34.1960   44.8840 C   0  0  0  0  0  0  0  0  0  0  0  0
   58.8940   34.5470   46.0740 C   0  0  0  0  0  0  0  0  0  0  0  0
   59.2630   33.5550   46.9830 C   0  0  0  0  0  0  0  0  0  0  0  0
   59.0140   32.2300   46.6980 C   0  0  0  0  0  0  0  0  0  0  0  0
   59.3900   31.2140   47.6240 N   0  0  0  0  0  0  0  0  0  0  0  0
   59.0800   24.9830   45.6130 C   0  0  0  0  0  0  0  0  0  0  0  0
   58.4900   23.7320   45.7120 C   0  0  0  0  0  0  0  0  0  0  0  0
   58.9170   22.5460   44.9210 C   0  0  0  0  0  0  0  0  0  0  0  0
   60.1270   21.9390   45.4710 N   0  0  0  0  0  0  0  0  0  0  0  0
   56.1587   22.8146   49.0233 H   0  0  0  0  0  0  0  0  0  0  0  0
   55.4481   24.0609   47.9424 H   0  0  0  0  0  0  0  0  0  0  0  0
   54.7883   22.3902   47.9424 H   0  0  0  0  0  0  0  0  0  0  0  0
   57.3365   21.7919   47.2971 H   0  0  0  0  0  0  0  0  0  0  0  0
   56.1464   22.2593   46.0500 H   0  0  0  0  0  0  0  0  0  0  0  0
   56.7037   25.3708   47.8823 H   0  0  0  0  0  0  0  0  0  0  0  0
   59.5516   26.7180   48.6881 H   0  0  0  0  0  0  0  0  0  0  0  0
   60.0110   29.1401   49.2164 H   0  0  0  0  0  0  0  0  0  0  0  0
   57.7825   27.8754   44.9262 H   0  0  0  0  0  0  0  0  0  0  0  0
   57.6780   30.2340   44.3260 H   0  0  0  0  0  0  0  0  0  0  0  0
   57.9864   34.9816   44.1706 H   0  0  0  0  0  0  0  0  0  0  0  0
   59.0930   35.6048   46.3011 H   0  0  0  0  0  0  0  0  0  0  0  0
   59.7533   33.8309   47.9283 H   0  0  0  0  0  0  0  0  0  0  0  0
   59.8600   31.4600   48.5340 H   0  0  0  0  0  0  0  0  0  0  0  0
   59.9168   25.2754   44.9616 H   0  0  0  0  0  0  0  0  0  0  0  0
   58.1080   21.8007   44.9303 H   0  0  0  0  0  0  0  0  0  0  0  0
   59.1346   22.8774   43.8949 H   0  0  0  0  0  0  0  0  0  0  0  0
   60.9960   22.2850   45.0280 H   0  0  0  0  0  0  0  0  0  0  0  0
   60.0810   20.9110   45.5180 H   0  0  0  0  0  0  0  0  0  0  0  0
  1  2  1  0
  2  3  1  0
  3  4  1  0
  4  5  2  0
  5  6  1  0
  6  7  2  0
  7  8  1  0
  8  9  2  0
  9 10  1  0
 10 11  2  0
 10 12  1  0
 12 13  1  0
 13 14  2  0
 14 15  1  0
 14 16  1  0
 16 17  2  0
 17 18  1  0
 18 19  2  0
 19 20  1  0
  5 21  1  0
 21 22  2  0
 22 23  1  0
 23 24  1  0
 22  3  1  0
 11  6  1  0
 19 13  1  0
 20  9  1  0
  1 25  1  0
  1 26  1  0
  1 27  1  0
  2 28  1  0
  2 29  1  0
  4 30  1  0
  7 31  1  0
  8 32  1  0
 11 33  1  0
 12 34  1  0
 16 35  1  0
 17 36  1  0
 18 37  1  0
 20 38  1  0
 21 39  1  0
 23 40  1  0
 23 41  1  0
 24 42  1  0
 24 43  1  0
M  END
>  <smiles>  (33) 
CCn1cc(-c2ccc3c(c2)Nc2c(F)cccc2N3)cc1CN

>  <score_type>  (33) 
oracle

>  <origin>  (33) 
adg

>  <m_score__min__energy>  (33) 
-7.7699999999999996

>  <m_primary>  (33) 
energy

$$$$
33:0
     RDKit          3D

 41 43  0  0  0  0  0  0  0  0999 V2000
   55.4510   25.2170   45.6470 C   0  0  0  0  0  0  0  0  0  0  0  0
   55.4630   26.5690   45.9810 O   0  0  0  0  0  0  0  0  0  0  0  0
   56.7520   27.0230   46.1560 C   0  0  0  0  0  0  0  0  0  0  0  0
   57.2450   27.6740   44.8790 C   0  0  0  0  0  0  0  0  0  0  0  0
   57.1000   29.1030   44.9200 N   0  0  0  0  0  0  0  0  0  0  0  0
   56.0500   29.7740   44.3990 C   0  0  0  0  0  0  0  0  0  0  0  0
   55.0350   29.3430   43.8050 O   0  0  0  0  0  0  0  0  0  0  0  0
   56.2650   31.0470   44.6250 O   0  0  0  0  0  0  0  0  0  0  0  0
   57.3930   31.2210   45.2600 C   0  0  0  0  0  0  0  0  0  0  0  0
   58.0510   32.3450   45.7160 C   0  0  0  0  0  0  0  0  0  0  0  0
   59.2710   32.2360   46.3770 C   0  0  0  0  0  0  0  0  0  0  0  0
   60.0070   33.7260   46.9080 S   0  0  0  0  0  0  0  0  0  0  0  0
   60.2740   34.6380   45.7670 O   0  0  0  0  0  0  0  0  0  0  0  0
   59.0450   34.3770   47.8680 O   0  0  0  0  0  0  0  0  0  0  0  0
   61.4650   33.2920   47.7320 N   0  0  0  0  0  0  0  0  0  0  0  0
   61.7230   34.1720   48.8520 C   0  0  0  0  0  0  0  0  0  0  0  0
   62.9720   33.5980   49.5190 C   0  0  0  0  0  0  0  0  0  0  0  0
   64.0150   33.8290   48.6280 O   0  0  0  0  0  0  0  0  0  0  0  0
   63.9010   33.1620   47.4370 C   0  0  0  0  0  0  0  0  0  0  0  0
   62.5510   33.2340   46.7900 C   0  0  0  0  0  0  0  0  0  0  0  0
   59.8390   30.9990   46.5860 C   0  0  0  0  0  0  0  0  0  0  0  0
   59.1830   29.8680   46.1290 C   0  0  0  0  0  0  0  0  0  0  0  0
   57.9730   29.9790   45.4740 C   0  0  0  0  0  0  0  0  0  0  0  0
   55.4456   24.6123   46.5659 H   0  0  0  0  0  0  0  0  0  0  0  0
   54.5508   24.9934   45.0557 H   0  0  0  0  0  0  0  0  0  0  0  0
   56.3471   24.9774   45.0557 H   0  0  0  0  0  0  0  0  0  0  0  0
   56.7720   27.7596   46.9727 H   0  0  0  0  0  0  0  0  0  0  0  0
   57.4052   26.1741   46.4064 H   0  0  0  0  0  0  0  0  0  0  0  0
   58.3081   27.4275   44.7407 H   0  0  0  0  0  0  0  0  0  0  0  0
   56.6396   27.2920   44.0438 H   0  0  0  0  0  0  0  0  0  0  0  0
   57.6063   33.3382   45.5553 H   0  0  0  0  0  0  0  0  0  0  0  0
   61.9069   35.1990   48.5036 H   0  0  0  0  0  0  0  0  0  0  0  0
   60.8696   34.2249   49.5440 H   0  0  0  0  0  0  0  0  0  0  0  0
   63.1645   34.1070   50.4750 H   0  0  0  0  0  0  0  0  0  0  0  0
   62.8576   32.5267   49.7409 H   0  0  0  0  0  0  0  0  0  0  0  0
   64.6362   33.5868   46.7377 H   0  0  0  0  0  0  0  0  0  0  0  0
   64.0730   32.0998   47.6652 H   0  0  0  0  0  0  0  0  0  0  0  0
   62.5143   34.1353   46.1605 H   0  0  0  0  0  0  0  0  0  0  0  0
   62.4230   32.3111   46.2054 H   0  0  0  0  0  0  0  0  0  0  0  0
   60.8023   30.9102   47.1097 H   0  0  0  0  0  0  0  0  0  0  0  0
   59.6289   28.8753   46.2890 H   0  0  0  0  0  0  0  0  0  0  0  0
  1  2  1  0
  2  3  1  0
  3  4  1  0
  4  5  1  0
  5  6  1  0
  6  7  2  0
  6  8  1  0
  8  9  1  0
  9 10  2  0
 10 11  1  0
 11 12  1  0
 12 13  2  0
 12 14  2  0
 12 15  1  0
 15 16  1  0
 16 17  1  0
 17 18  1  0
 18 19  1  0
 19 20  1  0
 11 21  2  0
 21 22  1  0
 22 23  2  0
 23  5  1  0
 23  9  1  0
 20 15  1  0
  1 24  1  0
  1 25  1  0
  1 26  1  0
  3 27  1  0
  3 28  1  0
  4 29  1  0
  4 30  1  0
 10 31  1  0
 16 32  1  0
 16 33  1  0
 17 34  1  0
 17 35  1  0
 19 36  1  0
 19 37  1  0
 20 38  1  0
 20 39  1  0
 21 40  1  0
 22 41  1  0
M  END
>  <smiles>  (34) 
COCCn1c(=O)oc2cc(S(=O)(=O)N3CCOCC3)ccc21

>  <score_type>  (34) 
oracle

>  <origin>  (34) 
adg

>  <m_score__min__energy>  (34) 
-7.8499999999999996

>  <m_primary>  (34) 
energy

$$$$
34:0
     RDKit          3D

 55 58  0  0  1  0  0  0  0  0999 V2000
   67.6200   33.1910   50.4670 C   0  0  0  0  0  0  0  0  0  0  0  0
   66.3030   32.4920   50.5410 C   0  0  0  0  0  0  0  0  0  0  0  0
   66.1630   31.2600   51.1820 C   0  0  0  0  0  0  0  0  0  0  0  0
   64.9340   30.6160   51.2510 C   0  0  0  0  0  0  0  0  0  0  0  0
   63.8760   31.2150   50.6790 N   0  0  0  0  0  0  0  0  0  0  0  0
   63.9760   32.4050   50.0520 C   0  0  0  0  0  0  0  0  0  0  0  0
   62.8310   32.9860   49.4740 N   0  0  0  0  0  0  0  0  0  0  0  0
   61.4780   32.7880   49.9920 C   0  0  0  0  0  0  0  0  0  0  0  0
   60.6370   33.9040   49.4160 C   0  0  0  0  0  0  0  0  0  0  0  0
   60.5110   33.7280   47.9870 N   0  0  0  0  0  0  0  0  0  0  0  0
   59.7640   34.7940   47.4040 C   0  0  0  0  0  0  0  0  0  0  0  0
   59.1500   34.4840   46.0930 C   0  0  0  0  0  0  0  0  0  0  0  0
   59.2800   35.1800   45.0610 O   0  0  0  0  0  0  0  0  0  0  0  0
   58.3500   33.2830   46.0410 N   0  0  0  0  0  0  0  0  0  0  0  0
   58.2170   32.5820   44.9610 C   0  0  0  0  0  0  0  0  0  0  0  0
   57.7580   33.0710   43.7400 C   0  0  0  0  0  0  0  0  0  0  0  0
   57.7840   31.9780   42.9010 C   0  0  0  0  0  0  0  0  0  0  0  0
   57.3840   31.9870   41.4850 C   0  0  0  0  0  0  0  0  0  0  0  0
   58.2300   30.9010   43.5710 N   0  0  0  0  0  0  0  0  0  0  0  0
   58.4940   31.2730   44.8300 N   0  0  0  0  0  0  0  0  0  0  0  0
   58.9860   30.4850   45.9030 C   0  0  0  0  0  0  0  0  0  0  0  0
   58.2400   29.3900   46.3360 C   0  0  0  0  0  0  0  0  0  0  0  0
   58.7120   28.6020   47.3900 C   0  0  0  0  0  0  0  0  0  0  0  0
   59.9140   28.9380   47.9730 C   0  0  0  0  0  0  0  0  0  0  0  0
   60.6590   30.0120   47.5580 C   0  0  0  0  0  0  0  0  0  0  0  0
   60.1710   30.7880   46.5030 C   0  0  0  0  0  0  0  0  0  0  0  0
   61.7990   33.5980   47.3400 C   0  0  0  0  0  0  0  0  0  0  0  0
   62.9440   33.8330   48.2970 C   0  0  0  0  0  0  0  0  0  0  0  0
   65.1850   33.0920   49.9560 C   0  0  0  0  0  0  0  0  0  0  0  0
   67.9889   33.3868   51.4846 H   0  0  0  0  0  0  0  0  0  0  0  0
   68.3418   32.5573   49.9309 H   0  0  0  0  0  0  0  0  0  0  0  0
   67.4997   34.1440   49.9309 H   0  0  0  0  0  0  0  0  0  0  0  0
   67.0442   30.7892   51.6421 H   0  0  0  0  0  0  0  0  0  0  0  0
   64.8302   29.6455   51.7583 H   0  0  0  0  0  0  0  0  0  0  0  0
   61.0864   31.8113   49.6715 H   0  0  0  0  0  0  0  0  0  0  0  0
   61.4642   32.8031   51.0918 H   0  0  0  0  0  0  0  0  0  0  0  0
   59.6383   33.8850   49.8767 H   0  0  0  0  0  0  0  0  0  0  0  0
   61.1200   34.8701   49.6239 H   0  0  0  0  0  0  0  0  0  0  0  0
   58.9588   35.0679   48.1017 H   0  0  0  0  0  0  0  0  0  0  0  0
   60.4808   35.6085   47.2228 H   0  0  0  0  0  0  0  0  0  0  0  0
   57.4453   34.0979   43.4997 H   0  0  0  0  0  0  0  0  0  0  0  0
   56.2866   32.0117   41.4142 H   0  0  0  0  0  0  0  0  0  0  0  0
   57.8034   32.8759   40.9911 H   0  0  0  0  0  0  0  0  0  0  0  0
   57.7630   31.0801   40.9911 H   0  0  0  0  0  0  0  0  0  0  0  0
   58.3610   29.9150   43.1990 H   0  0  0  0  0  0  0  0  0  0  0  0
   57.2835   29.1468   45.8502 H   0  0  0  0  0  0  0  0  0  0  0  0
   58.1371   27.7341   47.7454 H   0  0  0  0  0  0  0  0  0  0  0  0
   60.2905   28.3216   48.8027 H   0  0  0  0  0  0  0  0  0  0  0  0
   61.6157   30.2563   48.0428 H   0  0  0  0  0  0  0  0  0  0  0  0
   60.7511   31.6544   46.1526 H   0  0  0  0  0  0  0  0  0  0  0  0
   61.8864   32.5829   46.9253 H   0  0  0  0  0  0  0  0  0  0  0  0
   61.8581   34.3598   46.5487 H   0  0  0  0  0  0  0  0  0  0  0  0
   63.8912   33.6096   47.7843 H   0  0  0  0  0  0  0  0  0  0  0  0
   62.9156   34.8837   48.6212 H   0  0  0  0  0  0  0  0  0  0  0  0
   65.2557   34.0625   49.4430 H   0  0  0  0  0  0  0  0  0  0  0  0
  1  2  1  0
  2  3  2  0
  3  4  1  0
  4  5  2  0
  5  6  1  0
  6  7  1  0
  7  8  1  0
  8  9  1  0
  9 10  1  0
 10 11  1  0
 11 12  1  0
 12 13  2  0
 12 14  1  0
 14 15  2  0
 15 16  1  0
 16 17  2  0
 17 18  1  0
 17 19  1  0
 19 20  1  0
 20 21  1  0
 21 22  2  0
 22 23  1  0
 23 24  2  0
 24 25  1  0
 25 26  2  0
 10 27  1  0
 27 28  1  0
  6 29  2  0
 29  2  1  0
 28  7  1  0
 20 15  1  0
 26 21  1  0
  1 30  1  0
  1 31  1  0
  1 32  1  0
  3 33  1  0
  4 34  1  0
  8 35  1  0
  8 36  1  0
  9 37  1  0
  9 38  1  0
 11 39  1  0
 11 40  1  0
 16 41  1  0
 18 42  1  0
 18 43  1  0
 18 44  1  0
 19 45  1  0
 22 46  1  0
 23 47  1  0
 24 48  1  0
 25 49  1  0
 26 50  1  0
 27 51  1  0
 27 52  1  0
 28 53  1  0
 28 54  1  0
 29 55  1  0
M  END
>  <smiles>  (35) 
Cc1ccnc(N2CCN(CC(=O)N=c3cc(C)[nH]n3-c3ccccc3)CC2)c1

>  <score_type>  (35) 
oracle

>  <origin>  (35) 
adg

>  <m_score__min__energy>  (35) 
-8.9100000000000001

>  <m_primary>  (35) 
energy

$$$$
35:0
     RDKit          3D

 40 41  0  0  0  0  0  0  0  0999 V2000
   59.8430   28.2520   44.5070 C   0  0  0  0  0  0  0  0  0  0  0  0
   58.5770   27.4910   44.3260 C   0  0  0  0  0  0  0  0  0  0  0  0
   57.4050   28.1550   44.3380 O   0  0  0  0  0  0  0  0  0  0  0  0
   57.0410   29.0010   43.3620 C   0  0  0  0  0  0  0  0  0  0  0  0
   56.3620   30.2760   43.6870 C   0  0  0  0  0  0  0  0  0  0  0  0
   56.6600   30.9110   44.8580 O   0  0  0  0  0  0  0  0  0  0  0  0
   57.3760   32.0020   45.2020 C   0  0  0  0  0  0  0  0  0  0  0  0
   57.2890   33.2640   44.6660 C   0  0  0  0  0  0  0  0  0  0  0  0
   58.0600   34.3300   45.0730 C   0  0  0  0  0  0  0  0  0  0  0  0
   58.9760   34.1680   46.0670 C   0  0  0  0  0  0  0  0  0  0  0  0
   59.8570   35.2510   46.5820 C   0  0  0  0  0  0  0  0  0  0  0  0
   60.3910   34.9410   47.8890 N   0  0  0  0  0  0  0  0  0  0  0  0
   61.6050   34.1830   48.0220 C   0  0  0  0  0  0  0  0  0  0  0  0
   62.3260   33.8260   46.9130 C   0  0  0  0  0  0  0  0  0  0  0  0
   63.4880   33.0960   47.1170 C   0  0  0  0  0  0  0  0  0  0  0  0
   63.9140   32.7350   48.3900 C   0  0  0  0  0  0  0  0  0  0  0  0
   63.1640   33.1150   49.4440 N   0  0  0  0  0  0  0  0  0  0  0  0
   62.0340   33.8220   49.2830 C   0  0  0  0  0  0  0  0  0  0  0  0
   59.1000   32.9180   46.6360 C   0  0  0  0  0  0  0  0  0  0  0  0
   58.3270   31.8520   46.2260 C   0  0  0  0  0  0  0  0  0  0  0  0
   58.5860   30.1660   47.0880 Br  0  0  0  0  0  0  0  0  0  0  0  0
   60.0468   28.3745   45.5810 H   0  0  0  0  0  0  0  0  0  0  0  0
   60.6717   27.7022   44.0369 H   0  0  0  0  0  0  0  0  0  0  0  0
   59.7463   29.2418   44.0369 H   0  0  0  0  0  0  0  0  0  0  0  0
   58.6461   26.9779   43.3554 H   0  0  0  0  0  0  0  0  0  0  0  0
   58.5253   26.8517   45.2196 H   0  0  0  0  0  0  0  0  0  0  0  0
   57.9580   29.2631   42.8139 H   0  0  0  0  0  0  0  0  0  0  0  0
   56.2648   28.4378   42.8233 H   0  0  0  0  0  0  0  0  0  0  0  0
   56.5922   30.9790   42.8729 H   0  0  0  0  0  0  0  0  0  0  0  0
   55.3077   29.9867   43.8080 H   0  0  0  0  0  0  0  0  0  0  0  0
   56.5580   33.4335   43.8617 H   0  0  0  0  0  0  0  0  0  0  0  0
   57.9357   35.3128   44.5948 H   0  0  0  0  0  0  0  0  0  0  0  0
   60.6932   35.3916   45.8812 H   0  0  0  0  0  0  0  0  0  0  0  0
   59.2530   36.1661   46.6707 H   0  0  0  0  0  0  0  0  0  0  0  0
   59.9020   35.2660   48.7540 H   0  0  0  0  0  0  0  0  0  0  0  0
   61.9968   34.1068   45.9017 H   0  0  0  0  0  0  0  0  0  0  0  0
   64.0893   32.7943   46.2467 H   0  0  0  0  0  0  0  0  0  0  0  0
   64.8377   32.1552   48.5335 H   0  0  0  0  0  0  0  0  0  0  0  0
   61.4449   34.1161   50.1641 H   0  0  0  0  0  0  0  0  0  0  0  0
   59.8360   32.7669   47.4394 H   0  0  0  0  0  0  0  0  0  0  0  0
  1  2  1  0
  2  3  1  0
  3  4  1  0
  4  5  1  0
  5  6  1  0
  6  7  1  0
  7  8  2  0
  8  9  1  0
  9 10  2  0
 10 11  1  0
 11 12  1  0
 12 13  1  0
 13 14  2  0
 14 15  1  0
 15 16  2  0
 16 17  1  0
 17 18  2  0
 10 19  1  0
 19 20  2  0
 20 21  1  0
 20  7  1  0
 18 13  1  0
  1 22  1  0
  1 23  1  0
  1 24  1  0
  2 25  1  0
  2 26  1  0
  4 27  1  0
  4 28  1  0
  5 29  1  0
  5 30  1  0
  8 31  1  0
  9 32  1  0
 11 33  1  0
 11 34  1  0
 12 35  1  0
 14 36  1  0
 15 37  1  0
 16 38  1  0
 18 39  1  0
 19 40  1  0
M  END
>  <smiles>  (36) 
CCOCCOc1ccc(CNc2cccnc2)cc1Br

>  <score_type>  (36) 
oracle

>  <origin>  (36) 
adg

>  <m_score__min__energy>  (36) 
-6.71

>  <m_primary>  (36) 
energy

$$$$
36:0
     RDKit          3D

 78 81  0  0  0  0  0  0  0  0999 V2000
   58.9000   33.5740   51.6080 C   0  0  0  0  0  0  0  0  0  0  0  0
   58.7890   32.3700   50.6750 C   0  0  0  0  0  0  0  0  0  0  0  0
   59.5650   31.2550   51.1900 N   0  0  0  0  0  0  0  0  0  0  0  0
   58.6570   30.1470   51.4980 C   0  0  0  0  0  0  0  0  0  0  0  0
   59.5290   28.9520   51.7440 C   0  0  0  0  0  0  0  0  0  0  0  0
   60.7980   28.9680   51.1050 N   0  0  0  0  0  0  0  0  0  0  0  0
   61.8540   28.7090   52.0430 C   0  0  0  0  0  0  0  0  0  0  0  0
   60.9080   28.2480   49.8910 C   0  0  0  0  0  0  0  0  0  0  0  0
   60.2670   28.9980   48.7620 C   0  0  0  0  0  0  0  0  0  0  0  0
   60.8070   30.1290   48.2090 C   0  0  0  0  0  0  0  0  0  0  0  0
   60.1800   30.7750   47.1620 C   0  0  0  0  0  0  0  0  0  0  0  0
   58.9720   30.3010   46.6260 C   0  0  0  0  0  0  0  0  0  0  0  0
   58.4250   31.0570   45.5310 C   0  0  0  0  0  0  0  0  0  0  0  0
   58.2290   30.3600   44.3310 C   0  0  0  0  0  0  0  0  0  0  0  0
   57.7400   30.9720   43.2000 C   0  0  0  0  0  0  0  0  0  0  0  0
   57.4220   32.3110   43.2030 C   0  0  0  0  0  0  0  0  0  0  0  0
   57.6120   33.0010   44.3770 C   0  0  0  0  0  0  0  0  0  0  0  0
   58.1080   32.3860   45.5340 C   0  0  0  0  0  0  0  0  0  0  0  0
   58.2180   33.2520   46.6980 C   0  0  0  0  0  0  0  0  0  0  0  0
   57.2500   33.3240   47.4960 O   0  0  0  0  0  0  0  0  0  0  0  0
   59.4190   33.9880   46.9010 N   0  0  0  0  0  0  0  0  0  0  0  0
   59.6180   34.8780   48.0370 C   0  0  0  0  0  0  0  0  0  0  0  0
   60.7840   34.4200   48.8360 C   0  0  0  0  0  0  0  0  0  0  0  0
   61.6640   33.6110   48.1340 N   0  0  0  0  0  0  0  0  0  0  0  0
   62.5990   32.8030   48.7820 C   0  0  0  0  0  0  0  0  0  0  0  0
   62.3340   32.4260   50.2050 C   0  0  0  0  0  0  0  0  0  0  0  0
   63.5010   31.7470   50.8590 C   0  0  0  0  0  0  0  0  0  0  0  0
   64.6490   32.6280   50.7790 N   0  0  0  0  0  0  0  0  0  0  0  0
   64.4320   33.9110   51.3780 C   0  0  0  0  0  0  0  0  0  0  0  0
   65.0300   32.7200   49.4060 C   0  0  0  0  0  0  0  0  0  0  0  0
   63.9730   33.3680   48.5540 C   0  0  0  0  0  0  0  0  0  0  0  0
   61.8490   33.8140   46.7350 C   0  0  0  0  0  0  0  0  0  0  0  0
   60.5410   33.8880   45.9820 C   0  0  0  0  0  0  0  0  0  0  0  0
   58.4630   29.1740   47.1990 C   0  0  0  0  0  0  0  0  0  0  0  0
   59.0850   28.5120   48.2560 C   0  0  0  0  0  0  0  0  0  0  0  0
   58.8685   33.2322   52.6531 H   0  0  0  0  0  0  0  0  0  0  0  0
   59.8501   34.0961   51.4215 H   0  0  0  0  0  0  0  0  0  0  0  0
   58.0614   34.2610   51.4215 H   0  0  0  0  0  0  0  0  0  0  0  0
   57.7337   32.0703   50.5946 H   0  0  0  0  0  0  0  0  0  0  0  0
   59.1800   32.6491   49.6854 H   0  0  0  0  0  0  0  0  0  0  0  0
   60.2490   30.9520   50.4570 H   0  0  0  0  0  0  0  0  0  0  0  0
   58.0634   30.3777   52.3949 H   0  0  0  0  0  0  0  0  0  0  0  0
   57.9495   29.9662   50.6753 H   0  0  0  0  0  0  0  0  0  0  0  0
   59.6985   28.8758   52.8282 H   0  0  0  0  0  0  0  0  0  0  0  0
   58.9894   28.0958   51.3131 H   0  0  0  0  0  0  0  0  0  0  0  0
   61.4657   28.8042   53.0678 H   0  0  0  0  0  0  0  0  0  0  0  0
   62.2387   27.6899   51.8899 H   0  0  0  0  0  0  0  0  0  0  0  0
   62.6666   29.4345   51.8899 H   0  0  0  0  0  0  0  0  0  0  0  0
   61.9722   28.0915   49.6607 H   0  0  0  0  0  0  0  0  0  0  0  0
   60.3932   27.2829   50.0078 H   0  0  0  0  0  0  0  0  0  0  0  0
   61.7528   30.5279   48.6043 H   0  0  0  0  0  0  0  0  0  0  0  0
   60.6372   31.6813   46.7383 H   0  0  0  0  0  0  0  0  0  0  0  0
   58.4742   29.2884   44.2922 H   0  0  0  0  0  0  0  0  0  0  0  0
   57.6014   30.3833   42.2812 H   0  0  0  0  0  0  0  0  0  0  0  0
   57.0318   32.8088   42.3030 H   0  0  0  0  0  0  0  0  0  0  0  0
   57.3661   34.0727   44.4089 H   0  0  0  0  0  0  0  0  0  0  0  0
   59.8032   35.8993   47.6729 H   0  0  0  0  0  0  0  0  0  0  0  0
   58.7177   34.8677   48.6689 H   0  0  0  0  0  0  0  0  0  0  0  0
   61.3331   35.3063   49.1865 H   0  0  0  0  0  0  0  0  0  0  0  0
   60.3856   33.8149   49.6637 H   0  0  0  0  0  0  0  0  0  0  0  0
   62.5048   31.8138   48.3102 H   0  0  0  0  0  0  0  0  0  0  0  0
   62.0974   33.3389   50.7712 H   0  0  0  0  0  0  0  0  0  0  0  0
   61.4961   31.7133   50.2058 H   0  0  0  0  0  0  0  0  0  0  0  0
   63.2660   31.5384   51.9132 H   0  0  0  0  0  0  0  0  0  0  0  0
   63.7186   30.7968   50.3493 H   0  0  0  0  0  0  0  0  0  0  0  0
   64.4488   33.8118   52.4734 H   0  0  0  0  0  0  0  0  0  0  0  0
   65.2259   34.6030   51.0603 H   0  0  0  0  0  0  0  0  0  0  0  0
   63.4547   34.3034   51.0603 H   0  0  0  0  0  0  0  0  0  0  0  0
   65.9526   33.3148   49.3356 H   0  0  0  0  0  0  0  0  0  0  0  0
   65.1775   31.6961   49.0321 H   0  0  0  0  0  0  0  0  0  0  0  0
   63.9508   34.4437   48.7826 H   0  0  0  0  0  0  0  0  0  0  0  0
   64.2358   33.1737   47.5037 H   0  0  0  0  0  0  0  0  0  0  0  0
   62.3961   34.7564   46.5848 H   0  0  0  0  0  0  0  0  0  0  0  0
   62.4108   32.9528   46.3442 H   0  0  0  0  0  0  0  0  0  0  0  0
   60.5512   34.7726   45.3283 H   0  0  0  0  0  0  0  0  0  0  0  0
   60.4263   32.9710   45.3853 H   0  0  0  0  0  0  0  0  0  0  0  0
   57.5178   28.7682   46.8093 H   0  0  0  0  0  0  0  0  0  0  0  0
   58.6323   27.6051   48.6832 H   0  0  0  0  0  0  0  0  0  0  0  0
  1  2  1  0
  2  3  1  0
  3  4  1  0
  4  5  1  0
  5  6  1  0
  6  7  1  0
  6  8  1  0
  8  9  1  0
  9 10  2  0
 10 11  1  0
 11 12  2  0
 12 13  1  0
 13 14  2  0
 14 15  1  0
 15 16  2  0
 16 17  1  0
 17 18  2  0
 18 19  1  0
 19 20  2  0
 19 21  1  0
 21 22  1  0
 22 23  1  0
 23 24  1  0
 24 25  1  0
 25 26  1  0
 26 27  1  0
 27 28  1  0
 28 29  1  0
 28 30  1  0
 30 31  1  0
 24 32  1  0
 32 33  1  0
 12 34  1  0
 34 35  2  0
 35  9  1  0
 18 13  1  0
 33 21  1  0
 31 25  1  0
  1 36  1  0
  1 37  1  0
  1 38  1  0
  2 39  1  0
  2 40  1  0
  3 41  1  0
  4 42  1  0
  4 43  1  0
  5 44  1  0
  5 45  1  0
  7 46  1  0
  7 47  1  0
  7 48  1  0
  8 49  1  0
  8 50  1  0
 10 51  1  0
 11 52  1  0
 14 53  1  0
 15 54  1  0
 16 55  1  0
 17 56  1  0
 22 57  1  0
 22 58  1  0
 23 59  1  0
 23 60  1  0
 25 61  1  0
 26 62  1  0
 26 63  1  0
 27 64  1  0
 27 65  1  0
 29 66  1  0
 29 67  1  0
 29 68  1  0
 30 69  1  0
 30 70  1  0
 31 71  1  0
 31 72  1  0
 32 73  1  0
 32 74  1  0
 33 75  1  0
 33 76  1  0
 34 77  1  0
 35 78  1  0
M  END
>  <smiles>  (37) 
CCNCCN(C)Cc1ccc(-c2ccccc2C(=O)N2CCN(C3CCN(C)CC3)CC2)cc1

>  <score_type>  (37) 
oracle

>  <origin>  (37) 
adg

>  <m_score__min__energy>  (37) 
-9.0999999999999996

>  <m_primary>  (37) 
energy

$$$$
37:0
     RDKit          3D

 55 58  0  0  1  0  0  0  0  0999 V2000
   57.4050   33.8350   45.9650 C   0  0  0  0  0  0  0  0  0  0  0  0
   58.4840   33.6890   46.9990 C   0  0  0  0  0  0  0  0  0  0  0  0
   58.3300   32.4770   47.7830 N   0  0  0  0  0  0  0  0  0  0  0  0
   59.6420   32.0540   48.2100 C   0  0  0  0  0  0  0  0  0  0  0  0
   60.2270   31.0070   47.2730 C   0  0  0  0  0  0  0  0  0  0  0  0
   59.2650   29.9960   46.9300 N   0  0  0  0  0  0  0  0  0  0  0  0
   59.1050   28.9850   47.8040 C   0  0  0  0  0  0  0  0  0  0  0  0
   60.0440   28.8740   49.3300 S   0  0  0  0  0  0  0  0  0  0  0  0
   59.1700   29.7510   50.6550 C   0  0  0  0  0  0  0  0  0  0  0  0
   58.2250   28.0110   47.5600 N   0  0  0  0  0  0  0  0  0  0  0  0
   57.4600   28.0020   46.4300 C   0  0  0  0  0  0  0  0  0  0  0  0
   56.6590   27.0890   46.2760 N   0  0  0  0  0  0  0  0  0  0  0  0
   56.6180   25.9520   45.5320 C   0  0  0  0  0  0  0  0  0  0  0  0
   55.5680   25.0160   45.7180 C   0  0  0  0  0  0  0  0  0  0  0  0
   55.4770   23.9150   44.8770 C   0  0  0  0  0  0  0  0  0  0  0  0
   56.3850   23.7110   43.8640 C   0  0  0  0  0  0  0  0  0  0  0  0
   56.2680   22.5110   42.9650 C   0  0  0  0  0  0  0  0  0  0  0  0
   57.3270   21.5070   43.3990 C   0  0  0  0  0  0  0  0  0  0  0  0
   57.4070   24.6230   43.6830 C   0  0  0  0  0  0  0  0  0  0  0  0
   57.5440   25.7420   44.4960 C   0  0  0  0  0  0  0  0  0  0  0  0
   57.5900   29.0100   45.5130 C   0  0  0  0  0  0  0  0  0  0  0  0
   56.8460   29.0330   44.3700 C   0  0  0  0  0  0  0  0  0  0  0  0
   57.0100   30.0880   43.4530 C   0  0  0  0  0  0  0  0  0  0  0  0
   56.4460   30.3970   42.2740 N   0  0  0  0  0  0  0  0  0  0  0  0
   57.0200   31.5410   41.8770 C   0  0  0  0  0  0  0  0  0  0  0  0
   57.9170   31.9270   42.7910 N   0  0  0  0  0  0  0  0  0  0  0  0
   57.9350   31.0320   43.7970 C   0  0  0  0  0  0  0  0  0  0  0  0
   58.6780   31.0140   44.9310 C   0  0  0  0  0  0  0  0  0  0  0  0
   58.5150   29.9910   45.8160 C   0  0  0  0  0  0  0  0  0  0  0  0
   56.4338   33.9664   46.4645 H   0  0  0  0  0  0  0  0  0  0  0  0
   57.6158   34.7128   45.3365 H   0  0  0  0  0  0  0  0  0  0  0  0
   57.3749   32.9327   45.3365 H   0  0  0  0  0  0  0  0  0  0  0  0
   59.4597   33.6615   46.4918 H   0  0  0  0  0  0  0  0  0  0  0  0
   58.4139   34.5465   47.6844 H   0  0  0  0  0  0  0  0  0  0  0  0
   57.8780   31.7450   47.1880 H   0  0  0  0  0  0  0  0  0  0  0  0
   60.3097   32.9279   48.2298 H   0  0  0  0  0  0  0  0  0  0  0  0
   59.5499   31.6064   49.2106 H   0  0  0  0  0  0  0  0  0  0  0  0
   60.5645   31.5037   46.3514 H   0  0  0  0  0  0  0  0  0  0  0  0
   61.0654   30.5176   47.7903 H   0  0  0  0  0  0  0  0  0  0  0  0
   59.5282   29.3916   51.6310 H   0  0  0  0  0  0  0  0  0  0  0  0
   59.3620   30.8307   50.5689 H   0  0  0  0  0  0  0  0  0  0  0  0
   58.0897   29.5627   50.5689 H   0  0  0  0  0  0  0  0  0  0  0  0
   54.8318   25.1615   46.5222 H   0  0  0  0  0  0  0  0  0  0  0  0
   54.6620   23.1909   45.0238 H   0  0  0  0  0  0  0  0  0  0  0  0
   55.2668   22.0658   43.0617 H   0  0  0  0  0  0  0  0  0  0  0  0
   56.4162   22.7993   41.9139 H   0  0  0  0  0  0  0  0  0  0  0  0
   57.3675   21.4686   44.4976 H   0  0  0  0  0  0  0  0  0  0  0  0
   57.0714   20.5117   43.0065 H   0  0  0  0  0  0  0  0  0  0  0  0
   58.3073   21.8153   43.0065 H   0  0  0  0  0  0  0  0  0  0  0  0
   58.1326   24.4589   42.8727 H   0  0  0  0  0  0  0  0  0  0  0  0
   58.3663   26.4537   44.3307 H   0  0  0  0  0  0  0  0  0  0  0  0
   56.1214   28.2309   44.1659 H   0  0  0  0  0  0  0  0  0  0  0  0
   55.7170   29.8620   41.7740 H   0  0  0  0  0  0  0  0  0  0  0  0
   56.7895   32.0785   40.9453 H   0  0  0  0  0  0  0  0  0  0  0  0
   59.4035   31.8155   45.1340 H   0  0  0  0  0  0  0  0  0  0  0  0
  1  2  1  0
  2  3  1  0
  3  4  1  0
  4  5  1  0
  5  6  1  0
  6  7  1  0
  7  8  1  0
  8  9  1  0
  7 10  2  0
 10 11  1  0
 11 12  2  0
 12 13  1  0
 13 14  2  0
 14 15  1  0
 15 16  2  0
 16 17  1  0
 17 18  1  0
 16 19  1  0
 19 20  2  0
 11 21  1  0
 21 22  2  0
 22 23  1  0
 23 24  1  0
 24 25  1  0
 25 26  2  0
 26 27  1  0
 27 28  1  0
 28 29  2  0
 29  6  1  0
 20 13  1  0
 29 21  1  0
 27 23  2  0
  1 30  1  0
  1 31  1  0
  1 32  1  0
  2 33  1  0
  2 34  1  0
  3 35  1  0
  4 36  1  0
  4 37  1  0
  5 38  1  0
  5 39  1  0
  9 40  1  0
  9 41  1  0
  9 42  1  0
 14 43  1  0
 15 44  1  0
 17 45  1  0
 17 46  1  0
 18 47  1  0
 18 48  1  0
 18 49  1  0
 19 50  1  0
 20 51  1  0
 22 52  1  0
 24 53  1  0
 25 54  1  0
 28 55  1  0
M  END
>  <smiles>  (38) 
CCNCCn1c(SC)nc(=Nc2ccc(CC)cc2)c2cc3[nH]cnc3cc21

>  <score_type>  (38) 
oracle

>  <origin>  (38) 
adg

>  <m_score__min__energy>  (38) 
-7.9000000000000004

>  <m_primary>  (38) 
energy

$$$$
39:0
     RDKit          3D

 47 50  0  0  1  0  0  0  0  0999 V2000
   59.6460   33.7890   50.5960 C   0  0  0  0  0  0  0  0  0  0  0  0
   59.8750   34.2920   49.2930 O   0  0  0  0  0  0  0  0  0  0  0  0
   60.9810   33.9360   48.5250 C   0  0  0  0  0  0  0  0  0  0  0  0
   62.0940   33.3200   49.0860 C   0  0  0  0  0  0  0  0  0  0  0  0
   63.1670   32.9840   48.2840 C   0  0  0  0  0  0  0  0  0  0  0  0
   63.1710   33.2450   46.9170 C   0  0  0  0  0  0  0  0  0  0  0  0
   62.0520   33.8560   46.3930 C   0  0  0  0  0  0  0  0  0  0  0  0
   60.9930   34.1910   47.1690 C   0  0  0  0  0  0  0  0  0  0  0  0
   59.8260   34.8490   46.5130 C   0  0  0  0  0  0  0  0  0  0  0  0
   58.7180   34.0870   46.1900 N   0  0  0  0  0  0  0  0  0  0  0  0
   58.5230   32.8680   46.2110 C   0  0  0  0  0  0  0  0  0  0  0  0
   58.7720   32.1860   47.3530 N   0  0  0  0  0  0  0  0  0  0  0  0
   58.6340   30.8590   47.4790 C   0  0  0  0  0  0  0  0  0  0  0  0
   58.9030   30.1750   48.6900 N   0  0  0  0  0  0  0  0  0  0  0  0
   58.5340   30.5480   50.0400 C   0  0  0  0  0  0  0  0  0  0  0  0
   59.8510   30.3400   50.7760 C   0  0  0  0  0  0  0  0  0  0  0  0
   60.4520   29.1740   50.0600 C   0  0  0  0  0  0  0  0  0  0  0  0
   59.6260   28.9250   48.8180 C   0  0  0  0  0  0  0  0  0  0  0  0
   58.2220   30.1780   46.3940 N   0  0  0  0  0  0  0  0  0  0  0  0
   57.9640   30.8220   45.2450 C   0  0  0  0  0  0  0  0  0  0  0  0
   57.5440   30.0630   44.1800 C   0  0  0  0  0  0  0  0  0  0  0  0
   57.2800   30.7490   43.0170 C   0  0  0  0  0  0  0  0  0  0  0  0
   57.4040   32.0920   42.8490 C   0  0  0  0  0  0  0  0  0  0  0  0
   57.8360   32.8650   43.9470 C   0  0  0  0  0  0  0  0  0  0  0  0
   58.1010   32.1950   45.0970 C   0  0  0  0  0  0  0  0  0  0  0  0
   59.9823   34.5276   51.3385 H   0  0  0  0  0  0  0  0  0  0  0  0
   58.5715   33.5964   50.7311 H   0  0  0  0  0  0  0  0  0  0  0  0
   60.2063   32.8521   50.7311 H   0  0  0  0  0  0  0  0  0  0  0  0
   62.1199   33.1012   50.1637 H   0  0  0  0  0  0  0  0  0  0  0  0
   64.0424   32.4968   48.7381 H   0  0  0  0  0  0  0  0  0  0  0  0
   64.0287   32.9758   46.2831 H   0  0  0  0  0  0  0  0  0  0  0  0
   62.0178   34.0775   45.3161 H   0  0  0  0  0  0  0  0  0  0  0  0
   59.4828   35.6450   47.1902 H   0  0  0  0  0  0  0  0  0  0  0  0
   60.2191   35.1680   45.5364 H   0  0  0  0  0  0  0  0  0  0  0  0
   59.0920   32.6970   48.2060 H   0  0  0  0  0  0  0  0  0  0  0  0
   58.2042   31.5961   50.0926 H   0  0  0  0  0  0  0  0  0  0  0  0
   57.6913   29.9736   50.4523 H   0  0  0  0  0  0  0  0  0  0  0  0
   60.4943   31.2286   50.6952 H   0  0  0  0  0  0  0  0  0  0  0  0
   59.7237   30.1689   51.8551 H   0  0  0  0  0  0  0  0  0  0  0  0
   61.4913   29.4008   49.7800 H   0  0  0  0  0  0  0  0  0  0  0  0
   60.4558   28.2839   50.7063 H   0  0  0  0  0  0  0  0  0  0  0  0
   60.2650   28.7399   47.9420 H   0  0  0  0  0  0  0  0  0  0  0  0
   58.9775   28.0389   48.8834 H   0  0  0  0  0  0  0  0  0  0  0  0
   57.4258   28.9718   44.2526 H   0  0  0  0  0  0  0  0  0  0  0  0
   56.9403   30.1617   42.1511 H   0  0  0  0  0  0  0  0  0  0  0  0
   57.1736   32.5637   41.8823 H   0  0  0  0  0  0  0  0  0  0  0  0
   57.9523   33.9564   43.8747 H   0  0  0  0  0  0  0  0  0  0  0  0
  1  2  1  0
  2  3  1  0
  3  4  2  0
  4  5  1  0
  5  6  2  0
  6  7  1  0
  7  8  2  0
  8  9  1  0
  9 10  1  0
 10 11  2  0
 11 12  1  0
 12 13  1  0
 13 14  1  0
 14 15  1  0
 15 16  1  0
 16 17  1  0
 17 18  1  0
 13 19  2  0
 19 20  1  0
 20 21  2  0
 21 22  1  0
 22 23  2  0
 23 24  1  0
 24 25  2  0
  8  3  1  0
 25 11  1  0
 18 14  1  0
 25 20  1  0
  1 26  1  0
  1 27  1  0
  1 28  1  0
  4 29  1  0
  5 30  1  0
  6 31  1  0
  7 32  1  0
  9 33  1  0
  9 34  1  0
 12 35  1  0
 15 36  1  0
 15 37  1  0
 16 38  1  0
 16 39  1  0
 17 40  1  0
 17 41  1  0
 18 42  1  0
 18 43  1  0
 21 44  1  0
 22 45  1  0
 23 46  1  0
 24 47  1  0
M  END
>  <smiles>  (39) 
COc1ccccc1CN=c1[nH]c(N2CCCC2)nc2ccccc12

>  <score_type>  (39) 
oracle

>  <origin>  (39) 
adg

>  <m_score__min__energy>  (39) 
-6.9000000000000004

>  <m_primary>  (39) 
energy

$$$$
41:0
     RDKit          3D

 44 46  0  0  1  0  0  0  0  0999 V2000
   65.5510   32.7140   49.7460 C   0  0  0  0  0  0  0  0  0  0  0  0
   64.2850   33.2180   50.1660 O   0  0  0  0  0  0  0  0  0  0  0  0
   63.3420   33.4420   49.1730 C   0  0  0  0  0  0  0  0  0  0  0  0
   63.7610   33.2570   47.8560 C   0  0  0  0  0  0  0  0  0  0  0  0
   62.9230   33.4470   46.7810 C   0  0  0  0  0  0  0  0  0  0  0  0
   61.6200   33.8380   47.0740 C   0  0  0  0  0  0  0  0  0  0  0  0
   60.7860   34.0270   45.9950 C   0  0  0  0  0  0  0  0  0  0  0  0
   59.4600   34.4200   46.1920 C   0  0  0  0  0  0  0  0  0  0  0  0
   58.6140   34.6070   45.0210 C   0  0  0  0  0  0  0  0  0  0  0  0
   57.4070   34.0760   44.8970 C   0  0  0  0  0  0  0  0  0  0  0  0
   57.0430   32.8150   45.5760 C   0  0  0  0  0  0  0  0  0  0  0  0
   57.2940   31.6320   44.9070 N   0  0  0  0  0  0  0  0  0  0  0  0
   57.5040   31.5810   43.5200 C   0  0  0  0  0  0  0  0  0  0  0  0
   56.6300   30.5020   42.9310 C   0  0  0  0  0  0  0  0  0  0  0  0
   56.2710   29.4160   43.8790 C   0  0  0  0  0  0  0  0  0  0  0  0
   56.9840   29.3230   45.1620 C   0  0  0  0  0  0  0  0  0  0  0  0
   57.8330   30.5050   45.5490 C   0  0  0  0  0  0  0  0  0  0  0  0
   59.0340   34.6070   47.4750 C   0  0  0  0  0  0  0  0  0  0  0  0
   59.8760   34.4180   48.5760 C   0  0  0  0  0  0  0  0  0  0  0  0
   61.1850   34.0270   48.3680 C   0  0  0  0  0  0  0  0  0  0  0  0
   62.0480   33.8300   49.4240 C   0  0  0  0  0  0  0  0  0  0  0  0
   66.1604   32.4714   50.6291 H   0  0  0  0  0  0  0  0  0  0  0  0
   65.4024   31.8064   49.1425 H   0  0  0  0  0  0  0  0  0  0  0  0
   66.0668   33.4753   49.1425 H   0  0  0  0  0  0  0  0  0  0  0  0
   64.8000   32.9477   47.6693 H   0  0  0  0  0  0  0  0  0  0  0  0
   63.2647   33.2979   45.7461 H   0  0  0  0  0  0  0  0  0  0  0  0
   61.1649   33.8681   44.9746 H   0  0  0  0  0  0  0  0  0  0  0  0
   58.9986   35.2228   44.1946 H   0  0  0  0  0  0  0  0  0  0  0  0
   56.6576   34.5858   44.2737 H   0  0  0  0  0  0  0  0  0  0  0  0
   57.5979   32.7803   46.5251 H   0  0  0  0  0  0  0  0  0  0  0  0
   55.9478   32.8551   45.6708 H   0  0  0  0  0  0  0  0  0  0  0  0
   57.2447   32.5515   43.0717 H   0  0  0  0  0  0  0  0  0  0  0  0
   58.5609   31.3584   43.3118 H   0  0  0  0  0  0  0  0  0  0  0  0
   55.6999   30.9691   42.5750 H   0  0  0  0  0  0  0  0  0  0  0  0
   57.2116   30.0335   42.1234 H   0  0  0  0  0  0  0  0  0  0  0  0
   55.2023   29.5323   44.1122 H   0  0  0  0  0  0  0  0  0  0  0  0
   56.5622   28.4971   43.3490 H   0  0  0  0  0  0  0  0  0  0  0  0
   56.2321   29.1793   45.9519 H   0  0  0  0  0  0  0  0  0  0  0  0
   57.6885   28.4868   45.0422 H   0  0  0  0  0  0  0  0  0  0  0  0
   57.8089   30.6452   46.6398 H   0  0  0  0  0  0  0  0  0  0  0  0
   58.8798   30.3485   45.2493 H   0  0  0  0  0  0  0  0  0  0  0  0
   57.9930   34.9169   47.6493 H   0  0  0  0  0  0  0  0  0  0  0  0
   59.4999   34.5790   49.5971 H   0  0  0  0  0  0  0  0  0  0  0  0
   61.7044   33.9819   50.4578 H   0  0  0  0  0  0  0  0  0  0  0  0
  1  2  1  0
  2  3  1  0
  3  4  2  0
  4  5  1  0
  5  6  2  0
  6  7  1  0
  7  8  2  0
  8  9  1  0
  9 10  2  0
 10 11  1  0
 11 12  1  0
 12 13  1  0
 13 14  1  0
 14 15  1  0
 15 16  1  0
 16 17  1  0
  8 18  1  0
 18 19  2  0
 19 20  1  0
 20 21  2  0
 21  3  1  0
 20  6  1  0
 17 12  1  0
  1 22  1  0
  1 23  1  0
  1 24  1  0
  4 25  1  0
  5 26  1  0
  7 27  1  0
  9 28  1  0
 10 29  1  0
 11 30  1  0
 11 31  1  0
 13 32  1  0
 13 33  1  0
 14 34  1  0
 14 35  1  0
 15 36  1  0
 15 37  1  0
 16 38  1  0
 16 39  1  0
 17 40  1  0
 17 41  1  0
 18 42  1  0
 19 43  1  0
 21 44  1  0
M  END
>  <smiles>  (40) 
COc1ccc2cc(C=CCN3CCCCC3)ccc2c1

>  <score_type>  (40) 
oracle

>  <origin>  (40) 
adg

>  <m_score__min__energy>  (40) 
-8.3399999999999999

>  <m_primary>  (40) 
energy

$$$$
42:0
     RDKit          3D

 43 46  0  0  0  0  0  0  0  0999 V2000
   56.6700   30.8090   42.7740 C   0  0  0  0  0  0  0  0  0  0  0  0
   55.9200   29.7220   43.4840 C   0  0  0  0  0  0  0  0  0  0  0  0
   56.2100   29.7400   44.8740 O   0  0  0  0  0  0  0  0  0  0  0  0
   57.5210   29.8560   45.3080 C   0  0  0  0  0  0  0  0  0  0  0  0
   58.4700   29.1430   44.5820 C   0  0  0  0  0  0  0  0  0  0  0  0
   59.8150   29.1780   44.9180 C   0  0  0  0  0  0  0  0  0  0  0  0
   60.1580   29.9550   46.0050 C   0  0  0  0  0  0  0  0  0  0  0  0
   61.4430   30.0410   46.3940 N   0  0  0  0  0  0  0  0  0  0  0  0
   61.8550   30.7630   47.4230 N   0  0  0  0  0  0  0  0  0  0  0  0
   60.9530   31.4670   48.1460 C   0  0  0  0  0  0  0  0  0  0  0  0
   59.6220   31.4070   47.7810 C   0  0  0  0  0  0  0  0  0  0  0  0
   59.1890   30.6490   46.7000 C   0  0  0  0  0  0  0  0  0  0  0  0
   57.8790   30.6090   46.3660 N   0  0  0  0  0  0  0  0  0  0  0  0
   58.5810   32.1510   48.5260 C   0  0  0  0  0  0  0  0  0  0  0  0
   59.2220   33.2690   49.1510 N   0  0  0  0  0  0  0  0  0  0  0  0
   59.5360   34.3350   48.2240 C   0  0  0  0  0  0  0  0  0  0  0  0
   58.9060   34.1500   46.8930 C   0  0  0  0  0  0  0  0  0  0  0  0
   59.7180   34.1500   45.7650 C   0  0  0  0  0  0  0  0  0  0  0  0
   59.1630   33.9800   44.5080 C   0  0  0  0  0  0  0  0  0  0  0  0
   57.8030   33.8110   44.3610 C   0  0  0  0  0  0  0  0  0  0  0  0
   57.0220   33.8150   45.5040 C   0  0  0  0  0  0  0  0  0  0  0  0
   57.5840   33.9820   46.7140 N   0  0  0  0  0  0  0  0  0  0  0  0
   60.3400   32.9410   49.9720 C   0  0  0  0  0  0  0  0  0  0  0  0
   61.4660   32.2530   49.2810 C   0  0  0  0  0  0  0  0  0  0  0  0
   57.1323   31.4790   43.5138 H   0  0  0  0  0  0  0  0  0  0  0  0
   57.4532   30.3626   42.1436 H   0  0  0  0  0  0  0  0  0  0  0  0
   55.9747   31.3828   42.1436 H   0  0  0  0  0  0  0  0  0  0  0  0
   54.8402   29.8731   43.3381 H   0  0  0  0  0  0  0  0  0  0  0  0
   56.2278   28.7504   43.0702 H   0  0  0  0  0  0  0  0  0  0  0  0
   58.1461   28.5380   43.7223 H   0  0  0  0  0  0  0  0  0  0  0  0
   60.5689   28.6156   44.3476 H   0  0  0  0  0  0  0  0  0  0  0  0
   57.8015   32.5024   47.8340 H   0  0  0  0  0  0  0  0  0  0  0  0
   58.1035   31.5054   49.2778 H   0  0  0  0  0  0  0  0  0  0  0  0
   59.1826   35.2856   48.6501 H   0  0  0  0  0  0  0  0  0  0  0  0
   60.6259   34.3317   48.0756 H   0  0  0  0  0  0  0  0  0  0  0  0
   60.8045   34.2854   45.8712 H   0  0  0  0  0  0  0  0  0  0  0  0
   59.8123   33.9798   43.6201 H   0  0  0  0  0  0  0  0  0  0  0  0
   57.3523   33.6771   43.3665 H   0  0  0  0  0  0  0  0  0  0  0  0
   55.9334   33.6805   45.4217 H   0  0  0  0  0  0  0  0  0  0  0  0
   60.7282   33.8751   50.4041 H   0  0  0  0  0  0  0  0  0  0  0  0
   59.9649   32.2272   50.7201 H   0  0  0  0  0  0  0  0  0  0  0  0
   62.1803   33.0036   48.9116 H   0  0  0  0  0  0  0  0  0  0  0  0
   61.9683   31.5789   49.9904 H   0  0  0  0  0  0  0  0  0  0  0  0
  1  2  1  0
  2  3  1  0
  3  4  1  0
  4  5  2  0
  5  6  1  0
  6  7  2  0
  7  8  1  0
  8  9  2  0
  9 10  1  0
 10 11  2  0
 11 12  1  0
 12 13  2  0
 11 14  1  0
 14 15  1  0
 15 16  1  0
 16 17  1  0
 17 18  2  0
 18 19  1  0
 19 20  2  0
 20 21  1  0
 21 22  2  0
 15 23  1  0
 23 24  1  0
 13  4  1  0
 22 17  1  0
 12  7  1  0
 24 10  1  0
  1 25  1  0
  1 26  1  0
  1 27  1  0
  2 28  1  0
  2 29  1  0
  5 30  1  0
  6 31  1  0
 14 32  1  0
 14 33  1  0
 16 34  1  0
 16 35  1  0
 18 36  1  0
 19 37  1  0
 20 38  1  0
 21 39  1  0
 23 40  1  0
 23 41  1  0
 24 42  1  0
 24 43  1  0
M  END
>  <smiles>  (41) 
CCOc1ccc2nnc3c(c2n1)CN(Cc1ccccn1)CC3

>  <score_type>  (41) 
oracle

>  <origin>  (41) 
adg

>  <m_score__min__energy>  (41) 
-7.6600000000000001

>  <m_primary>  (41) 
energy

$$$$
43:0
     RDKit          3D

 47 50  0  0  0  0  0  0  0  0999 V2000
   57.6000   32.0090   45.4060 C   0  0  0  0  0  0  0  0  0  0  0  0
   57.8540   30.5930   45.7040 N   0  0  0  0  0  0  0  0  0  0  0  0
   56.8700   29.7080   45.1320 C   0  0  0  0  0  0  0  0  0  0  0  0
   55.8750   30.1480   44.4880 O   0  0  0  0  0  0  0  0  0  0  0  0
   56.9770   28.3070   45.2660 N   0  0  0  0  0  0  0  0  0  0  0  0
   58.0860   27.8040   45.9870 C   0  0  0  0  0  0  0  0  0  0  0  0
   58.1760   26.4170   46.0820 C   0  0  0  0  0  0  0  0  0  0  0  0
   59.2320   25.8330   46.7470 C   0  0  0  0  0  0  0  0  0  0  0  0
   60.1680   26.6750   47.2960 C   0  0  0  0  0  0  0  0  0  0  0  0
   60.0720   28.0700   47.1970 C   0  0  0  0  0  0  0  0  0  0  0  0
   59.0010   28.6610   46.5240 C   0  0  0  0  0  0  0  0  0  0  0  0
   58.9740   30.1370   46.4870 C   0  0  0  0  0  0  0  0  0  0  0  0
   58.6970   30.5760   47.9070 C   0  0  0  0  0  0  0  0  0  0  0  0
   58.9410   32.0360   48.1850 C   0  0  0  0  0  0  0  0  0  0  0  0
   60.1260   32.5390   47.5960 N   0  0  0  0  0  0  0  0  0  0  0  0
   60.7320   33.6800   48.1550 C   0  0  0  0  0  0  0  0  0  0  0  0
   62.1360   33.3890   48.5290 C   0  0  0  0  0  0  0  0  0  0  0  0
   62.4750   32.9890   49.7860 N   0  0  0  0  0  0  0  0  0  0  0  0
   63.8130   32.7960   49.8630 C   0  0  0  0  0  0  0  0  0  0  0  0
   64.3020   33.0880   48.6120 C   0  0  0  0  0  0  0  0  0  0  0  0
   63.2680   33.4430   47.8290 N   0  0  0  0  0  0  0  0  0  0  0  0
   63.3920   33.8240   46.4510 C   0  0  0  0  0  0  0  0  0  0  0  0
   60.9770   31.4950   47.1200 C   0  0  0  0  0  0  0  0  0  0  0  0
   60.2690   30.7340   46.0370 C   0  0  0  0  0  0  0  0  0  0  0  0
   57.4995   32.5695   46.3472 H   0  0  0  0  0  0  0  0  0  0  0  0
   58.4392   32.4175   44.8239 H   0  0  0  0  0  0  0  0  0  0  0  0
   56.6711   32.1003   44.8239 H   0  0  0  0  0  0  0  0  0  0  0  0
   56.2600   27.6840   44.8460 H   0  0  0  0  0  0  0  0  0  0  0  0
   57.4006   25.7853   45.6241 H   0  0  0  0  0  0  0  0  0  0  0  0
   59.3215   24.7401   46.8344 H   0  0  0  0  0  0  0  0  0  0  0  0
   61.0236   26.2391   47.8326 H   0  0  0  0  0  0  0  0  0  0  0  0
   60.8466   28.7040   47.6531 H   0  0  0  0  0  0  0  0  0  0  0  0
   57.6423   30.3584   48.1311 H   0  0  0  0  0  0  0  0  0  0  0  0
   59.4040   30.0216   48.5418 H   0  0  0  0  0  0  0  0  0  0  0  0
   58.0884   32.6108   47.7943 H   0  0  0  0  0  0  0  0  0  0  0  0
   59.0550   32.1403   49.2741 H   0  0  0  0  0  0  0  0  0  0  0  0
   60.7151   34.4969   47.4185 H   0  0  0  0  0  0  0  0  0  0  0  0
   60.1759   33.9730   49.0577 H   0  0  0  0  0  0  0  0  0  0  0  0
   64.3885   32.4730   50.7430 H   0  0  0  0  0  0  0  0  0  0  0  0
   65.3570   33.0396   48.3045 H   0  0  0  0  0  0  0  0  0  0  0  0
   63.7319   34.8683   46.3885 H   0  0  0  0  0  0  0  0  0  0  0  0
   64.1236   33.1699   45.9541 H   0  0  0  0  0  0  0  0  0  0  0  0
   62.4155   33.7258   45.9541 H   0  0  0  0  0  0  0  0  0  0  0  0
   61.9035   31.9306   46.7177 H   0  0  0  0  0  0  0  0  0  0  0  0
   61.2242   30.8143   47.9480 H   0  0  0  0  0  0  0  0  0  0  0  0
   60.0660   31.4211   45.2023 H   0  0  0  0  0  0  0  0  0  0  0  0
   60.9255   29.9036   45.7381 H   0  0  0  0  0  0  0  0  0  0  0  0
  1  2  1  0
  2  3  1  0
  3  4  2  0
  3  5  1  0
  5  6  1  0
  6  7  2  0
  7  8  1  0
  8  9  2  0
  9 10  1  0
 10 11  2  0
 11 12  1  0
 12 13  1  0
 13 14  1  0
 14 15  1  0
 15 16  1  0
 16 17  1  0
 17 18  2  0
 18 19  1  0
 19 20  2  0
 20 21  1  0
 21 22  1  0
 15 23  1  0
 23 24  1  0
 12  2  1  0
 21 17  1  0
 11  6  1  0
 24 12  1  0
  1 25  1  0
  1 26  1  0
  1 27  1  0
  5 28  1  0
  7 29  1  0
  8 30  1  0
  9 31  1  0
 10 32  1  0
 13 33  1  0
 13 34  1  0
 14 35  1  0
 14 36  1  0
 16 37  1  0
 16 38  1  0
 19 39  1  0
 20 40  1  0
 22 41  1  0
 22 42  1  0
 22 43  1  0
 23 44  1  0
 23 45  1  0
 24 46  1  0
 24 47  1  0
M  END
>  <smiles>  (42) 
CN1C(=O)Nc2ccccc2C12CCN(Cc1nccn1C)CC2

>  <score_type>  (42) 
oracle

>  <origin>  (42) 
adg

>  <m_score__min__energy>  (42) 
-7.7599999999999998

>  <m_primary>  (42) 
energy

$$$$
44:0
     RDKit          3D

 36 36  0  0  0  0  0  0  0  0999 V2000
   57.7910   26.7320   44.7820 C   0  0  0  0  0  0  0  0  0  0  0  0
   57.0930   27.5510   45.8210 C   0  0  0  0  0  0  0  0  0  0  0  0
   56.0570   28.3550   45.2470 O   0  0  0  0  0  0  0  0  0  0  0  0
   56.3220   29.5720   44.6550 C   0  0  0  0  0  0  0  0  0  0  0  0
   55.3970   30.4390   44.5030 O   0  0  0  0  0  0  0  0  0  0  0  0
   57.6900   29.9140   44.1770 C   0  0  0  0  0  0  0  0  0  0  0  0
   58.1640   31.1500   44.7690 N   0  0  0  0  0  0  0  0  0  0  0  0
   58.0410   32.3310   43.9880 C   0  0  0  0  0  0  0  0  0  0  0  0
   57.5300   32.2540   42.8230 O   0  0  0  0  0  0  0  0  0  0  0  0
   58.4990   33.6180   44.5200 C   0  0  0  0  0  0  0  0  0  0  0  0
   58.8880   33.4970   45.9030 N   0  0  0  0  0  0  0  0  0  0  0  0
   57.7850   33.6710   46.8150 C   0  0  0  0  0  0  0  0  0  0  0  0
   60.0270   34.3070   46.2390 C   0  0  0  0  0  0  0  0  0  0  0  0
   61.1760   33.5510   46.6710 C   0  0  0  0  0  0  0  0  0  0  0  0
   62.5160   33.8780   46.6970 C   0  0  0  0  0  0  0  0  0  0  0  0
   63.4100   33.0080   47.1450 C   0  0  0  0  0  0  0  0  0  0  0  0
   62.9700   31.7700   47.5840 C   0  0  0  0  0  0  0  0  0  0  0  0
   61.1230   31.8600   47.3340 S   0  0  0  0  0  0  0  0  0  0  0  0
   58.4294   25.9830   45.2734 H   0  0  0  0  0  0  0  0  0  0  0  0
   57.0449   26.2228   44.1543 H   0  0  0  0  0  0  0  0  0  0  0  0
   58.4120   27.3879   44.1543 H   0  0  0  0  0  0  0  0  0  0  0  0
   56.6495   26.8771   46.5688 H   0  0  0  0  0  0  0  0  0  0  0  0
   57.8316   28.2205   46.2861 H   0  0  0  0  0  0  0  0  0  0  0  0
   58.3780   29.1000   44.4491 H   0  0  0  0  0  0  0  0  0  0  0  0
   57.6525   30.0452   43.0855 H   0  0  0  0  0  0  0  0  0  0  0  0
   58.5810   31.1630   45.7390 H   0  0  0  0  0  0  0  0  0  0  0  0
   59.3625   33.9632   43.9324 H   0  0  0  0  0  0  0  0  0  0  0  0
   57.6719   34.3399   44.4507 H   0  0  0  0  0  0  0  0  0  0  0  0
   58.1525   33.6130   47.8502 H   0  0  0  0  0  0  0  0  0  0  0  0
   57.3204   34.6535   46.6453 H   0  0  0  0  0  0  0  0  0  0  0  0
   57.0405   32.8792   46.6453 H   0  0  0  0  0  0  0  0  0  0  0  0
   60.3107   34.8907   45.3508 H   0  0  0  0  0  0  0  0  0  0  0  0
   59.7274   34.9429   47.0851 H   0  0  0  0  0  0  0  0  0  0  0  0
   62.8445   34.8666   46.3438 H   0  0  0  0  0  0  0  0  0  0  0  0
   64.4796   33.2638   47.1677 H   0  0  0  0  0  0  0  0  0  0  0  0
   63.5654   30.9357   47.9834 H   0  0  0  0  0  0  0  0  0  0  0  0
  1  2  1  0
  2  3  1  0
  3  4  1  0
  4  5  2  0
  4  6  1  0
  6  7  1  0
  7  8  1  0
  8  9  2  0
  8 10  1  0
 10 11  1  0
 11 12  1  0
 11 13  1  0
 13 14  1  0
 14 15  2  0
 15 16  1  0
 16 17  2  0
 17 18  1  0
 18 14  1  0
  1 19  1  0
  1 20  1  0
  1 21  1  0
  2 22  1  0
  2 23  1  0
  6 24  1  0
  6 25  1  0
  7 26  1  0
 10 27  1  0
 10 28  1  0
 12 29  1  0
 12 30  1  0
 12 31  1  0
 13 32  1  0
 13 33  1  0
 15 34  1  0
 16 35  1  0
 17 36  1  0
M  END
>  <smiles>  (43) 
CCOC(=O)CNC(=O)CN(C)Cc1cccs1

>  <score_type>  (43) 
oracle

>  <origin>  (43) 
adg

>  <m_score__min__energy>  (43) 
-6.04

>  <m_primary>  (43) 
energy

$$$$
45:0
     RDKit          3D

 51 56  0  0  1  0  0  0  0  0999 V2000
   59.2650   33.7680   50.6170 C   0  0  0  0  0  0  0  0  0  0  0  0
   60.5180   33.6260   50.1950 C   0  0  0  0  0  0  0  0  0  0  0  0
   61.6400   33.3280   50.9540 O   0  0  0  0  0  0  0  0  0  0  0  0
   62.7580   33.2640   50.1390 C   0  0  0  0  0  0  0  0  0  0  0  0
   62.3940   33.5210   48.8110 C   0  0  0  0  0  0  0  0  0  0  0  0
   63.4300   33.4850   47.8940 C   0  0  0  0  0  0  0  0  0  0  0  0
   63.1760   33.7040   46.6940 O   0  0  0  0  0  0  0  0  0  0  0  0
   64.6790   33.2250   48.2510 O   0  0  0  0  0  0  0  0  0  0  0  0
   65.0190   32.9840   49.5010 C   0  0  0  0  0  0  0  0  0  0  0  0
   66.3410   32.7130   49.8510 C   0  0  0  0  0  0  0  0  0  0  0  0
   66.6730   32.4630   51.1720 C   0  0  0  0  0  0  0  0  0  0  0  0
   65.6910   32.4800   52.1570 C   0  0  0  0  0  0  0  0  0  0  0  0
   64.3850   32.7470   51.8070 C   0  0  0  0  0  0  0  0  0  0  0  0
   64.0640   32.9950   50.4960 C   0  0  0  0  0  0  0  0  0  0  0  0
   60.9450   33.7660   48.7900 C   0  0  1  0  0  0  0  0  0  0  0  0
   60.2090   32.9030   47.8380 C   0  0  0  0  0  0  0  0  0  0  0  0
   60.1880   31.5250   47.8710 C   0  0  0  0  0  0  0  0  0  0  0  0
   59.4320   31.0830   46.8560 N   0  0  0  0  0  0  0  0  0  0  0  0
   59.1710   29.7200   46.5550 C   0  0  0  0  0  0  0  0  0  0  0  0
   59.2350   29.1830   45.2940 C   0  0  0  0  0  0  0  0  0  0  0  0
   58.9550   27.8400   45.1590 C   0  0  0  0  0  0  0  0  0  0  0  0
   58.6200   27.0340   46.2400 C   0  0  0  0  0  0  0  0  0  0  0  0
   58.3400   25.6700   46.0830 O   0  0  0  0  0  0  0  0  0  0  0  0
   59.3800   24.7090   45.9840 C   0  0  0  0  0  0  0  0  0  0  0  0
   58.5590   27.5810   47.5020 C   0  0  0  0  0  0  0  0  0  0  0  0
   58.8340   28.9140   47.6440 C   0  0  0  0  0  0  0  0  0  0  0  0
   58.9380   32.1180   46.1360 C   0  0  0  0  0  0  0  0  0  0  0  0
   58.1130   32.1970   45.0080 C   0  0  0  0  0  0  0  0  0  0  0  0
   57.7770   33.4590   44.4990 C   0  0  0  0  0  0  0  0  0  0  0  0
   58.2600   34.5970   45.1110 C   0  0  0  0  0  0  0  0  0  0  0  0
   59.0800   34.4800   46.2320 C   0  0  0  0  0  0  0  0  0  0  0  0
   59.4280   33.2530   46.7560 C   0  0  0  0  0  0  0  0  0  0  0  0
   58.4666   34.0068   49.8990 H   0  0  0  0  0  0  0  0  0  0  0  0
   59.0269   33.6467   51.6841 H   0  0  0  0  0  0  0  0  0  0  0  0
   67.1219   32.6977   49.0764 H   0  0  0  0  0  0  0  0  0  0  0  0
   67.7175   32.2501   51.4434 H   0  0  0  0  0  0  0  0  0  0  0  0
   65.9546   32.2820   53.2064 H   0  0  0  0  0  0  0  0  0  0  0  0
   63.6005   32.7613   52.5779 H   0  0  0  0  0  0  0  0  0  0  0  0
   60.7081   34.7690   48.4053 H   0  0  0  0  0  0  0  0  0  0  0  0
   60.7056   30.8931   48.6078 H   0  0  0  0  0  0  0  0  0  0  0  0
   59.4998   29.8010   44.4234 H   0  0  0  0  0  0  0  0  0  0  0  0
   58.9985   27.3890   44.1567 H   0  0  0  0  0  0  0  0  0  0  0  0
   59.7018   24.4117   46.9930 H   0  0  0  0  0  0  0  0  0  0  0  0
   59.0125   23.8257   45.4411 H   0  0  0  0  0  0  0  0  0  0  0  0
   60.2316   25.1449   45.4411 H   0  0  0  0  0  0  0  0  0  0  0  0
   58.2962   26.9629   48.3731 H   0  0  0  0  0  0  0  0  0  0  0  0
   58.7881   29.3641   48.6466 H   0  0  0  0  0  0  0  0  0  0  0  0
   57.7341   31.2825   44.5283 H   0  0  0  0  0  0  0  0  0  0  0  0
   57.1296   33.5418   43.6135 H   0  0  0  0  0  0  0  0  0  0  0  0
   57.9997   35.5904   44.7169 H   0  0  0  0  0  0  0  0  0  0  0  0
   59.4607   35.3932   46.7127 H   0  0  0  0  0  0  0  0  0  0  0  0
  1  2  2  0
  2  3  1  0
  3  4  1  0
  4  5  2  0
  5  6  1  0
  6  7  2  0
  6  8  1  0
  8  9  1  0
  9 10  2  0
 10 11  1  0
 11 12  2  0
 12 13  1  0
 13 14  2  0
  5 15  1  0
 15 16  1  0
 16 17  2  0
 17 18  1  0
 18 19  1  0
 19 20  2  0
 20 21  1  0
 21 22  2  0
 22 23  1  0
 23 24  1  0
 22 25  1  0
 25 26  2  0
 18 27  1  0
 27 28  2  0
 28 29  1  0
 29 30  2  0
 30 31  1  0
 31 32  2  0
 15  2  1  0
 32 16  1  0
 14  4  1  0
 26 19  1  0
 32 27  1  0
 14  9  1  0
  1 33  1  0
  1 34  1  0
 10 35  1  0
 11 36  1  0
 12 37  1  0
 13 38  1  0
 15 39  1  6
 17 40  1  0
 20 41  1  0
 21 42  1  0
 24 43  1  0
 24 44  1  0
 24 45  1  0
 25 46  1  0
 26 47  1  0
 28 48  1  0
 29 49  1  0
 30 50  1  0
 31 51  1  0
M  END
>  <smiles>  (44) 
C=C1Oc2c(c(=O)oc3ccccc23)C1c1cn(-c2ccc(OC)cc2)c2ccccc12

>  <score_type>  (44) 
oracle

>  <origin>  (44) 
adg

>  <m_score__min__energy>  (44) 
-9.2300000000000004

>  <m_primary>  (44) 
energy

$$$$
46:0
     RDKit          3D

 43 45  0  0  0  0  0  0  0  0999 V2000
   56.7100   30.8210   42.6200 C   0  0  0  0  0  0  0  0  0  0  0  0
   57.5890   31.9770   43.1030 C   0  0  0  0  0  0  0  0  0  0  0  0
   58.0570   31.7120   44.4460 N   0  0  0  0  0  0  0  0  0  0  0  0
   58.4700   32.8700   45.2040 C   0  0  0  0  0  0  0  0  0  0  0  0
   59.2530   33.8320   44.6040 C   0  0  0  0  0  0  0  0  0  0  0  0
   59.6500   34.9410   45.3210 C   0  0  0  0  0  0  0  0  0  0  0  0
   59.2820   35.1280   46.6590 C   0  0  0  0  0  0  0  0  0  0  0  0
   58.5000   34.1330   47.2060 C   0  0  0  0  0  0  0  0  0  0  0  0
   58.0880   33.0170   46.5160 C   0  0  0  0  0  0  0  0  0  0  0  0
   58.1370   30.1450   45.1420 S   0  0  0  0  0  0  0  0  0  0  0  0
   58.6160   29.1710   44.0860 O   0  0  0  0  0  0  0  0  0  0  0  0
   56.7530   29.7320   45.6240 O   0  0  0  0  0  0  0  0  0  0  0  0
   59.2250   30.0090   46.4750 C   0  0  0  0  0  0  0  0  0  0  0  0
   60.2830   30.8540   46.7180 C   0  0  0  0  0  0  0  0  0  0  0  0
   61.1250   30.7110   47.7770 C   0  0  0  0  0  0  0  0  0  0  0  0
   62.2370   31.6290   48.0040 C   0  0  0  0  0  0  0  0  0  0  0  0
   62.9490   31.6410   49.2300 C   0  0  0  0  0  0  0  0  0  0  0  0
   64.2160   32.9650   48.9660 S   0  0  0  0  0  0  0  0  0  0  0  0
   63.5980   33.2900   47.2730 C   0  0  0  0  0  0  0  0  0  0  0  0
   62.6830   32.5020   47.1500 N   0  0  0  0  0  0  0  0  0  0  0  0
   60.8880   29.6510   48.6410 C   0  0  0  0  0  0  0  0  0  0  0  0
   59.8490   28.7760   48.4490 C   0  0  0  0  0  0  0  0  0  0  0  0
   59.0160   28.9500   47.3680 C   0  0  0  0  0  0  0  0  0  0  0  0
   57.9630   28.0740   47.1600 O   0  0  0  0  0  0  0  0  0  0  0  0
   58.1360   26.8860   46.3860 C   0  0  0  0  0  0  0  0  0  0  0  0
   56.3013   30.2835   43.4884 H   0  0  0  0  0  0  0  0  0  0  0  0
   55.8835   31.2179   42.0122 H   0  0  0  0  0  0  0  0  0  0  0  0
   57.3134   30.1307   42.0122 H   0  0  0  0  0  0  0  0  0  0  0  0
   58.4527   32.0842   42.4303 H   0  0  0  0  0  0  0  0  0  0  0  0
   56.9991   32.9055   43.1017 H   0  0  0  0  0  0  0  0  0  0  0  0
   59.5610   33.7155   43.5544 H   0  0  0  0  0  0  0  0  0  0  0  0
   60.2739   35.7008   44.8275 H   0  0  0  0  0  0  0  0  0  0  0  0
   59.5961   36.0105   47.2356 H   0  0  0  0  0  0  0  0  0  0  0  0
   58.1874   34.2379   48.2554 H   0  0  0  0  0  0  0  0  0  0  0  0
   57.4636   32.2552   47.0057 H   0  0  0  0  0  0  0  0  0  0  0  0
   60.4569   31.6871   46.0211 H   0  0  0  0  0  0  0  0  0  0  0  0
   62.7879   31.0161   50.1208 H   0  0  0  0  0  0  0  0  0  0  0  0
   63.9678   34.0241   46.5420 H   0  0  0  0  0  0  0  0  0  0  0  0
   61.5531   29.5082   49.5055 H   0  0  0  0  0  0  0  0  0  0  0  0
   59.6839   27.9453   49.1509 H   0  0  0  0  0  0  0  0  0  0  0  0
   58.2614   26.0250   47.0590 H   0  0  0  0  0  0  0  0  0  0  0  0
   57.2511   26.7297   45.7515 H   0  0  0  0  0  0  0  0  0  0  0  0
   59.0287   26.9885   45.7515 H   0  0  0  0  0  0  0  0  0  0  0  0
  1  2  1  0
  2  3  1  0
  3  4  1  0
  4  5  2  0
  5  6  1  0
  6  7  2  0
  7  8  1  0
  8  9  2  0
  3 10  1  0
 10 11  2  0
 10 12  2  0
 10 13  1  0
 13 14  2  0
 14 15  1  0
 15 16  1  0
 16 17  2  0
 17 18  1  0
 18 19  1  0
 19 20  2  0
 15 21  2  0
 21 22  1  0
 22 23  2  0
 23 24  1  0
 24 25  1  0
  9  4  1  0
 23 13  1  0
 20 16  1  0
  1 26  1  0
  1 27  1  0
  1 28  1  0
  2 29  1  0
  2 30  1  0
  5 31  1  0
  6 32  1  0
  7 33  1  0
  8 34  1  0
  9 35  1  0
 14 36  1  0
 17 37  1  0
 19 38  1  0
 21 39  1  0
 22 40  1  0
 25 41  1  0
 25 42  1  0
 25 43  1  0
M  END
>  <smiles>  (45) 
CCN(c1ccccc1)S(=O)(=O)c1cc(-c2cscn2)ccc1OC

>  <score_type>  (45) 
oracle

>  <origin>  (45) 
adg

>  <m_score__min__energy>  (45) 
-8.1699999999999999

>  <m_primary>  (45) 
energy

$$$$
