0:0
     RDKit          3D

 28 30  0  0  0  0  0  0  0  0999 V2000
   57.7930   28.4840   45.7600 C   0  0  0  0  0  0  0  0  0  0  0  0
   58.4030   29.8030   45.9320 N   0  0  0  0  0  0  0  0  0  0  0  0
   59.5870   29.8820   46.5430 N   0  0  0  0  0  0  0  0  0  0  0  0
   60.2220   31.0620   46.7470 C   0  0  0  0  0  0  0  0  0  0  0  0
   59.6320   32.2580   46.3130 C   0  0  0  0  0  0  0  0  0  0  0  0
   60.2540   33.5190   46.5060 C   0  0  0  0  0  0  0  0  0  0  0  0
   61.4800   33.6560   47.2430 N   0  0  0  0  0  0  0  0  0  0  0  0
   61.5880   33.8460   48.5730 C   0  0  0  0  0  0  0  0  0  0  0  0
   62.9180   33.8380   48.9370 C   0  0  0  0  0  0  0  0  0  0  0  0
   63.6440   33.6150   47.7820 C   0  0  0  0  0  0  0  0  0  0  0  0
   62.7270   33.4980   46.7570 C   0  0  0  0  0  0  0  0  0  0  0  0
   59.6500   34.6700   45.9780 C   0  0  0  0  0  0  0  0  0  0  0  0
   58.4340   34.5900   45.3030 C   0  0  0  0  0  0  0  0  0  0  0  0
   57.8020   33.3580   45.1360 C   0  0  0  0  0  0  0  0  0  0  0  0
   58.3940   32.1840   45.6340 C   0  0  0  0  0  0  0  0  0  0  0  0
   57.7840   30.9270   45.4590 C   0  0  0  0  0  0  0  0  0  0  0  0
   56.6720   30.8350   44.8660 O   0  0  0  0  0  0  0  0  0  0  0  0
   57.5890   28.0429   46.7468 H   0  0  0  0  0  0  0  0  0  0  0  0
   56.8505   28.5858   45.2019 H   0  0  0  0  0  0  0  0  0  0  0  0
   58.4809   27.8318   45.2019 H   0  0  0  0  0  0  0  0  0  0  0  0
   61.1989   31.0815   47.2523 H   0  0  0  0  0  0  0  0  0  0  0  0
   60.7432   33.9862   49.2634 H   0  0  0  0  0  0  0  0  0  0  0  0
   63.3227   33.9813   49.9498 H   0  0  0  0  0  0  0  0  0  0  0  0
   64.7384   33.5446   47.6965 H   0  0  0  0  0  0  0  0  0  0  0  0
   62.9763   33.3050   45.7031 H   0  0  0  0  0  0  0  0  0  0  0  0
   60.1421   35.6464   46.0984 H   0  0  0  0  0  0  0  0  0  0  0  0
   57.9703   35.5024   44.9000 H   0  0  0  0  0  0  0  0  0  0  0  0
   56.8361   33.3046   44.6124 H   0  0  0  0  0  0  0  0  0  0  0  0
  1  2  1  0
  2  3  1  0
  3  4  2  0
  4  5  1  0
  5  6  2  0
  6  7  1  0
  7  8  1  0
  8  9  2  0
  9 10  1  0
 10 11  2  0
  6 12  1  0
 12 13  2  0
 13 14  1  0
 14 15  2  0
 15 16  1  0
 16 17  2  0
 16  2  1  0
 15  5  1  0
 11  7  1  0
  1 18  1  0
  1 19  1  0
  1 20  1  0
  4 21  1  0
  8 22  1  0
  9 23  1  0
 10 24  1  0
 11 25  1  0
 12 26  1  0
 13 27  1  0
 14 28  1  0
M  END
>  <UniqueID>  (1) 
1

>  <SMILES>  (1) 
Cn1ncc2c(-n3cccc3)cccc2c1=O

>  <Energy>  (1) 
69.21354489941879

>  <Genealogy>  (1) 
Cn1ncc2c(-n3cccc3)cccc2c1=O (3D coordinates assigned)
Cn1ncc2c(-n3cccc3)cccc2c1=O (optimized conformer: 69.21354489941879 kcal/mol)

>  <smiles>  (1) 
Cn1ncc2c(-n3cccc3)cccc2c1=O

>  <score_type>  (1) 
oracle

>  <origin>  (1) 
adg

>  <m_score__min__energy>  (1) 
-6.5599999999999996

>  <m_primary>  (1) 
energy

$$$$
1:0
     RDKit          3D

122121  0  0  0  0  0  0  0  0999 V2000
   63.1980   34.3160   50.7620 C   0  0  0  0  0  0  0  0  0  0  0  0
   61.7900   33.7480   50.9010 C   0  0  0  0  0  0  0  0  0  0  0  0
   61.7340   32.4080   50.3040 N   0  0  0  0  0  0  0  0  0  0  0  0
   61.6470   31.3530   51.3270 C   0  0  0  0  0  0  0  0  0  0  0  0
   60.9280   31.8560   52.5960 C   0  0  0  0  0  0  0  0  0  0  0  0
   59.9200   30.8850   53.1150 N   0  0  1  0  0  0  0  0  0  0  0  0
   58.6250   31.5720   53.3730 C   0  0  0  0  0  0  0  0  0  0  0  0
   58.3690   32.7480   52.4020 C   0  0  0  0  0  0  0  0  0  0  0  0
   57.7680   32.2840   51.0660 C   0  0  0  0  0  0  0  0  0  0  0  0
   58.5990   32.7870   49.8760 C   0  0  0  0  0  0  0  0  0  0  0  0
   59.2030   31.6750   49.1460 N   0  0  0  0  0  0  0  0  0  0  0  0
   59.7350   29.7660   52.1500 C   0  0  0  0  0  0  0  0  0  0  0  0
   60.4000   28.4490   52.6280 C   0  0  0  0  0  0  0  0  0  0  0  0
   61.0270   27.6220   51.4880 C   0  0  0  0  0  0  0  0  0  0  0  0
   61.2740   28.4580   50.2220 C   0  0  0  0  0  0  0  0  0  0  0  0
   60.0650   28.4930   49.2740 C   0  0  0  0  0  0  0  0  0  0  0  0
   60.0160   27.2780   48.3290 C   0  0  0  0  0  0  0  0  0  0  0  0
   59.3780   27.6210   47.0340 N   0  0  0  0  0  0  0  0  0  0  0  0
   59.0750   26.3980   46.2500 C   0  0  0  0  0  0  0  0  0  0  0  0
   57.5690   26.2650   45.9630 C   0  0  0  0  0  0  0  0  0  0  0  0
   57.1830   24.9400   45.2930 C   0  0  0  0  0  0  0  0  0  0  0  0
   57.8720   23.8200   45.9480 N   0  0  0  0  0  0  0  0  0  0  0  0
   59.0730   23.4100   45.2130 C   0  0  0  0  0  0  0  0  0  0  0  0
   58.8610   22.0350   44.5650 C   0  0  0  0  0  0  0  0  0  0  0  0
   57.5970   22.0040   43.6910 C   0  0  0  0  0  0  0  0  0  0  0  0
   56.5430   21.0510   44.2600 C   0  0  0  0  0  0  0  0  0  0  0  0
   55.6090   21.8040   45.1050 N   0  0  0  0  0  0  0  0  0  0  0  0
   54.9880   20.9280   46.1030 C   0  0  0  0  0  0  0  0  0  0  0  0
   54.7650   21.7050   47.4050 C   0  0  0  0  0  0  0  0  0  0  0  0
   56.0120   21.7040   48.2940 C   0  0  0  0  0  0  0  0  0  0  0  0
   57.2260   21.7880   47.4870 N   0  0  0  0  0  0  0  0  0  0  0  0
   60.2310   28.5580   46.2500 C   0  0  0  0  0  0  0  0  0  0  0  0
   59.3830   29.4350   45.3190 C   0  0  0  0  0  0  0  0  0  0  0  0
   58.5800   30.5090   46.0630 C   0  0  0  0  0  0  0  0  0  0  0  0
   59.3140   31.7790   46.0730 N   0  0  0  0  0  0  0  0  0  0  0  0
   58.4120   32.9000   45.7900 C   0  0  0  0  0  0  0  0  0  0  0  0
   59.1850   34.2260   45.8620 C   0  0  0  0  0  0  0  0  0  0  0  0
   59.9510   34.4060   47.1880 C   0  0  0  0  0  0  0  0  0  0  0  0
   60.8960   33.3160   47.4860 N   0  0  0  0  0  0  0  0  0  0  0  0
   62.3020   33.7390   47.3980 C   0  0  0  0  0  0  0  0  0  0  0  0
   63.2130   32.5130   47.4980 C   0  0  0  0  0  0  0  0  0  0  0  0
   62.4680   31.2300   47.1160 C   0  0  0  0  0  0  0  0  0  0  0  0
   61.3970   30.9630   48.0720 N   0  0  0  0  0  0  0  0  0  0  0  0
   63.6243   34.4880   51.7613 H   0  0  0  0  0  0  0  0  0  0  0  0
   63.8288   33.6020   50.2122 H   0  0  0  0  0  0  0  0  0  0  0  0
   63.1568   35.2678   50.2122 H   0  0  0  0  0  0  0  0  0  0  0  0
   61.5253   33.6845   51.9668 H   0  0  0  0  0  0  0  0  0  0  0  0
   61.0791   34.4074   50.3816 H   0  0  0  0  0  0  0  0  0  0  0  0
   60.8630   32.3590   49.7210 H   0  0  0  0  0  0  0  0  0  0  0  0
   61.0890   30.4996   50.9142 H   0  0  0  0  0  0  0  0  0  0  0  0
   62.6689   31.0547   51.6039 H   0  0  0  0  0  0  0  0  0  0  0  0
   61.6802   32.0334   53.3788 H   0  0  0  0  0  0  0  0  0  0  0  0
   60.3913   32.7781   52.3282 H   0  0  0  0  0  0  0  0  0  0  0  0
   60.2600   30.4870   54.0150 H   0  0  0  0  0  0  0  0  0  0  0  0
   57.8107   30.8408   53.2624 H   0  0  0  0  0  0  0  0  0  0  0  0
   58.6655   31.9852   54.3916 H   0  0  0  0  0  0  0  0  0  0  0  0
   57.6713   33.4532   52.8773 H   0  0  0  0  0  0  0  0  0  0  0  0
   59.3378   33.2227   52.1872 H   0  0  0  0  0  0  0  0  0  0  0  0
   57.7434   31.1844   51.0467 H   0  0  0  0  0  0  0  0  0  0  0  0
   56.7523   32.6973   50.9798 H   0  0  0  0  0  0  0  0  0  0  0  0
   57.9450   33.3507   49.1944 H   0  0  0  0  0  0  0  0  0  0  0  0
   59.4046   33.4298   50.2605 H   0  0  0  0  0  0  0  0  0  0  0  0
   60.0030   31.2990   49.7060 H   0  0  0  0  0  0  0  0  0  0  0  0
   59.5860   32.0310   48.2390 H   0  0  0  0  0  0  0  0  0  0  0  0
   58.6573   29.5888   52.0186 H   0  0  0  0  0  0  0  0  0  0  0  0
   60.2167   30.0582   51.2053 H   0  0  0  0  0  0  0  0  0  0  0  0
   61.1910   28.7014   53.3496 H   0  0  0  0  0  0  0  0  0  0  0  0
   59.6063   27.8316   53.0740 H   0  0  0  0  0  0  0  0  0  0  0  0
   61.9881   27.2147   51.8349 H   0  0  0  0  0  0  0  0  0  0  0  0
   60.3192   26.8214   51.2273 H   0  0  0  0  0  0  0  0  0  0  0  0
   61.5110   29.4887   50.5244 H   0  0  0  0  0  0  0  0  0  0  0  0
   62.1041   27.9863   49.6757 H   0  0  0  0  0  0  0  0  0  0  0  0
   59.1451   28.5072   49.8770 H   0  0  0  0  0  0  0  0  0  0  0  0
   60.1568   29.3951   48.6512 H   0  0  0  0  0  0  0  0  0  0  0  0
   61.0424   26.9302   48.1406 H   0  0  0  0  0  0  0  0  0  0  0  0
   59.4176   26.4905   48.8104 H   0  0  0  0  0  0  0  0  0  0  0  0
   59.6175   26.4437   45.2942 H   0  0  0  0  0  0  0  0  0  0  0  0
   59.3901   25.5251   46.8405 H   0  0  0  0  0  0  0  0  0  0  0  0
   57.0257   26.3432   46.9163 H   0  0  0  0  0  0  0  0  0  0  0  0
   57.3035   27.0692   45.2610 H   0  0  0  0  0  0  0  0  0  0  0  0
   56.0956   24.7951   45.3743 H   0  0  0  0  0  0  0  0  0  0  0  0
   57.4795   24.9737   44.2343 H   0  0  0  0  0  0  0  0  0  0  0  0
   57.2170   23.0050   45.9560 H   0  0  0  0  0  0  0  0  0  0  0  0
   59.2885   24.1508   44.4289 H   0  0  0  0  0  0  0  0  0  0  0  0
   59.9169   23.3467   45.9157 H   0  0  0  0  0  0  0  0  0  0  0  0
   59.7333   21.7988   43.9378 H   0  0  0  0  0  0  0  0  0  0  0  0
   58.7390   21.2938   45.3685 H   0  0  0  0  0  0  0  0  0  0  0  0
   57.1723   23.0175   43.6411 H   0  0  0  0  0  0  0  0  0  0  0  0
   57.8793   21.6471   42.6895 H   0  0  0  0  0  0  0  0  0  0  0  0
   55.9912   20.5789   43.4338 H   0  0  0  0  0  0  0  0  0  0  0  0
   57.0374   20.2740   44.8615 H   0  0  0  0  0  0  0  0  0  0  0  0
   56.1580   22.5370   45.6170 H   0  0  0  0  0  0  0  0  0  0  0  0
   54.0210   20.5676   45.7221 H   0  0  0  0  0  0  0  0  0  0  0  0
   55.6503   20.0718   46.2986 H   0  0  0  0  0  0  0  0  0  0  0  0
   54.5057   22.7451   47.1580 H   0  0  0  0  0  0  0  0  0  0  0  0
   53.9520   21.2133   47.9593 H   0  0  0  0  0  0  0  0  0  0  0  0
   55.9707   22.5679   48.9737 H   0  0  0  0  0  0  0  0  0  0  0  0
   56.0347   20.7655   48.8673 H   0  0  0  0  0  0  0  0  0  0  0  0
   56.9350   21.8990   46.4890 H   0  0  0  0  0  0  0  0  0  0  0  0
   57.7280   22.6680   47.7430 H   0  0  0  0  0  0  0  0  0  0  0  0
   60.7858   29.2051   46.9454 H   0  0  0  0  0  0  0  0  0  0  0  0
   60.9237   27.9655   45.6343 H   0  0  0  0  0  0  0  0  0  0  0  0
   60.0528   29.9333   44.6027 H   0  0  0  0  0  0  0  0  0  0  0  0
   58.6591   28.7747   44.8190 H   0  0  0  0  0  0  0  0  0  0  0  0
   57.6129   30.6530   45.5590 H   0  0  0  0  0  0  0  0  0  0  0  0
   58.4196   30.1807   47.1005 H   0  0  0  0  0  0  0  0  0  0  0  0
   59.6930   31.9090   47.0400 H   0  0  0  0  0  0  0  0  0  0  0  0
   57.9867   32.7803   44.7826 H   0  0  0  0  0  0  0  0  0  0  0  0
   57.6041   32.9114   46.5365 H   0  0  0  0  0  0  0  0  0  0  0  0
   59.9075   34.2560   45.0331 H   0  0  0  0  0  0  0  0  0  0  0  0
   58.4484   35.0402   45.7946 H   0  0  0  0  0  0  0  0  0  0  0  0
   60.5153   35.3488   47.1364 H   0  0  0  0  0  0  0  0  0  0  0  0
   59.2004   34.4056   47.9921 H   0  0  0  0  0  0  0  0  0  0  0  0
   60.7040   32.9190   48.4340 H   0  0  0  0  0  0  0  0  0  0  0  0
   62.4728   34.2448   46.4363 H   0  0  0  0  0  0  0  0  0  0  0  0
   62.5281   34.4310   48.2226 H   0  0  0  0  0  0  0  0  0  0  0  0
   64.0679   32.6461   46.8187 H   0  0  0  0  0  0  0  0  0  0  0  0
   63.5530   32.4186   48.5399 H   0  0  0  0  0  0  0  0  0  0  0  0
   62.0367   31.3463   46.1108 H   0  0  0  0  0  0  0  0  0  0  0  0
   63.1759   30.3881   47.1268 H   0  0  0  0  0  0  0  0  0  0  0  0
   61.4300   31.6980   48.8170 H   0  0  0  0  0  0  0  0  0  0  0  0
   60.4880   31.1010   47.5730 H   0  0  0  0  0  0  0  0  0  0  0  0
  1  2  1  0
  2  3  1  0
  3  4  1  0
  4  5  1  0
  5  6  1  0
  6  7  1  0
  7  8  1  0
  8  9  1  0
  9 10  1  0
 10 11  1  0
  6 12  1  0
 12 13  1  0
 13 14  1  0
 14 15  1  0
 15 16  1  0
 16 17  1  0
 17 18  1  0
 18 19  1  0
 19 20  1  0
 20 21  1  0
 21 22  1  0
 22 23  1  0
 23 24  1  0
 24 25  1  0
 25 26  1  0
 26 27  1  0
 27 28  1  0
 28 29  1  0
 29 30  1  0
 30 31  1  0
 18 32  1  0
 32 33  1  0
 33 34  1  0
 34 35  1  0
 35 36  1  0
 36 37  1  0
 37 38  1  0
 38 39  1  0
 39 40  1  0
 40 41  1  0
 41 42  1  0
 42 43  1  0
  1 44  1  0
  1 45  1  0
  1 46  1  0
  2 47  1  0
  2 48  1  0
  3 49  1  0
  4 50  1  0
  4 51  1  0
  5 52  1  0
  5 53  1  0
  6 54  1  1
  7 55  1  0
  7 56  1  0
  8 57  1  0
  8 58  1  0
  9 59  1  0
  9 60  1  0
 10 61  1  0
 10 62  1  0
 11 63  1  0
 11 64  1  0
 12 65  1  0
 12 66  1  0
 13 67  1  0
 13 68  1  0
 14 69  1  0
 14 70  1  0
 15 71  1  0
 15 72  1  0
 16 73  1  0
 16 74  1  0
 17 75  1  0
 17 76  1  0
 19 77  1  0
 19 78  1  0
 20 79  1  0
 20 80  1  0
 21 81  1  0
 21 82  1  0
 22 83  1  0
 23 84  1  0
 23 85  1  0
 24 86  1  0
 24 87  1  0
 25 88  1  0
 25 89  1  0
 26 90  1  0
 26 91  1  0
 27 92  1  0
 28 93  1  0
 28 94  1  0
 29 95  1  0
 29 96  1  0
 30 97  1  0
 30 98  1  0
 31 99  1  0
 31100  1  0
 32101  1  0
 32102  1  0
 33103  1  0
 33104  1  0
 34105  1  0
 34106  1  0
 35107  1  0
 36108  1  0
 36109  1  0
 37110  1  0
 37111  1  0
 38112  1  0
 38113  1  0
 39114  1  0
 40115  1  0
 40116  1  0
 41117  1  0
 41118  1  0
 42119  1  0
 42120  1  0
 43121  1  0
 43122  1  0
M  CHG  1   6   1
M  END
>  <UniqueID>  (2) 
2

>  <SMILES>  (2) 
CCNCC[N@@H+](CCCCN)CCCCCCN(CCCNCCCCNCCCN)CCCNCCCNCCCN

>  <Energy>  (2) 
67.65179592226103

>  <Genealogy>  (2) 
CCNCC[NH+](CCCCN)CCCCCCN(CCCNCCCCNCCCN)CCCNCCCNCCCN (protonated)
CCNCC[N@@H+](CCCCN)CCCCCCN(CCCNCCCCNCCCN)CCCNCCCNCCCN (chirality)
CCNCC[N@@H+](CCCCN)CCCCCCN(CCCNCCCCNCCCN)CCCNCCCNCCCN (3D coordinates assigned)
CCNCC[N@@H+](CCCCN)CCCCCCN(CCCNCCCCNCCCN)CCCNCCCNCCCN (optimized conformer: 67.65179592226103 kcal/mol)

>  <smiles>  (2) 
CCNCC[N+](CCCCN)CCCCCCN(CCCNCCCCNCCCN)CCCNCCCNCCCN

>  <score_type>  (2) 
oracle

>  <origin>  (2) 
adg

>  <m_score__min__energy>  (2) 
-1.6100000000000001

>  <m_primary>  (2) 
energy

$$$$
2:0
     RDKit          3D

 50 52  0  0  0  0  0  0  0  0999 V2000
   63.3660   33.8130   46.7380 C   0  0  0  0  0  0  0  0  0  0  0  0
   63.0260   32.3780   47.1320 C   0  0  0  0  0  0  0  0  0  0  0  0
   63.0370   32.2180   48.6050 N   0  0  0  0  0  0  0  0  0  0  0  0
   63.5140   33.4630   49.2360 C   0  0  0  0  0  0  0  0  0  0  0  0
   61.6820   31.8680   49.0950 C   0  0  0  0  0  0  0  0  0  0  0  0
   61.0800   30.6400   48.3820 C   0  0  0  0  0  0  0  0  0  0  0  0
   59.6520   30.7640   48.0640 N   0  0  0  0  0  0  0  0  0  0  0  0
   59.1080   31.0640   46.7650 C   0  0  0  0  0  0  0  0  0  0  0  0
   58.9580   32.4030   46.3730 C   0  0  0  0  0  0  0  0  0  0  0  0
   58.4070   32.7080   45.1150 C   0  0  0  0  0  0  0  0  0  0  0  0
   58.1090   31.7050   44.2160 N   0  0  0  0  0  0  0  0  0  0  0  0
   57.7810   32.0550   42.8190 C   0  0  0  0  0  0  0  0  0  0  0  0
   58.1570   30.3820   44.6180 C   0  0  0  0  0  0  0  0  0  0  0  0
   57.6430   29.3360   43.8110 C   0  0  0  0  0  0  0  0  0  0  0  0
   57.7780   28.0010   44.1900 C   0  0  0  0  0  0  0  0  0  0  0  0
   58.4200   27.6750   45.3790 C   0  0  0  0  0  0  0  0  0  0  0  0
   58.8880   28.6810   46.2190 C   0  0  0  0  0  0  0  0  0  0  0  0
   58.7190   30.0400   45.8800 C   0  0  0  0  0  0  0  0  0  0  0  0
   58.0660   34.1720   44.8760 C   0  0  0  0  0  0  0  0  0  0  0  0
   59.2650   35.0750   45.2100 C   0  0  0  0  0  0  0  0  0  0  0  0
   60.0090   34.6720   46.5080 C   0  0  0  0  0  0  0  0  0  0  0  0
   59.3130   33.5520   47.2950 C   0  0  0  0  0  0  0  0  0  0  0  0
   63.5094   34.4182   47.6453 H   0  0  0  0  0  0  0  0  0  0  0  0
   64.2908   33.8204   46.1424 H   0  0  0  0  0  0  0  0  0  0  0  0
   62.5429   34.2345   46.1424 H   0  0  0  0  0  0  0  0  0  0  0  0
   62.0256   32.1269   46.7498 H   0  0  0  0  0  0  0  0  0  0  0  0
   63.7820   31.7060   46.6996 H   0  0  0  0  0  0  0  0  0  0  0  0
   63.4738   33.3582   50.3303 H   0  0  0  0  0  0  0  0  0  0  0  0
   64.5506   33.6583   48.9242 H   0  0  0  0  0  0  0  0  0  0  0  0
   62.8732   34.3010   48.9242 H   0  0  0  0  0  0  0  0  0  0  0  0
   61.7439   31.6522   50.1719 H   0  0  0  0  0  0  0  0  0  0  0  0
   61.0252   32.7248   48.8841 H   0  0  0  0  0  0  0  0  0  0  0  0
   61.6297   30.4840   47.4420 H   0  0  0  0  0  0  0  0  0  0  0  0
   61.1745   29.7942   49.0789 H   0  0  0  0  0  0  0  0  0  0  0  0
   58.9740   30.6440   48.8500 H   0  0  0  0  0  0  0  0  0  0  0  0
   57.0288   32.8576   42.8090 H   0  0  0  0  0  0  0  0  0  0  0  0
   58.6903   32.3982   42.3038 H   0  0  0  0  0  0  0  0  0  0  0  0
   57.3796   31.1699   42.3038 H   0  0  0  0  0  0  0  0  0  0  0  0
   57.1290   29.5817   42.8700 H   0  0  0  0  0  0  0  0  0  0  0  0
   57.3757   27.2043   43.5469 H   0  0  0  0  0  0  0  0  0  0  0  0
   58.5584   26.6196   45.6565 H   0  0  0  0  0  0  0  0  0  0  0  0
   59.3953   28.4136   47.1577 H   0  0  0  0  0  0  0  0  0  0  0  0
   57.7937   34.3107   43.8193 H   0  0  0  0  0  0  0  0  0  0  0  0
   57.2246   34.4485   45.5284 H   0  0  0  0  0  0  0  0  0  0  0  0
   59.9776   35.0289   44.3733 H   0  0  0  0  0  0  0  0  0  0  0  0
   58.8681   36.0884   45.3697 H   0  0  0  0  0  0  0  0  0  0  0  0
   61.0192   34.3307   46.2378 H   0  0  0  0  0  0  0  0  0  0  0  0
   60.0261   35.5593   47.1579 H   0  0  0  0  0  0  0  0  0  0  0  0
   59.9885   33.1889   48.0836 H   0  0  0  0  0  0  0  0  0  0  0  0
   58.3902   33.9496   47.7425 H   0  0  0  0  0  0  0  0  0  0  0  0
  1  2  1  0
  2  3  1  0
  3  4  1  0
  3  5  1  0
  5  6  1  0
  6  7  1  0
  7  8  1  0
  8  9  2  0
  9 10  1  0
 10 11  2  0
 11 12  1  0
 11 13  1  0
 13 14  2  0
 14 15  1  0
 15 16  2  0
 16 17  1  0
 17 18  2  0
 10 19  1  0
 19 20  1  0
 20 21  1  0
 21 22  1  0
 18  8  1  0
 22  9  1  0
 18 13  1  0
  1 23  1  0
  1 24  1  0
  1 25  1  0
  2 26  1  0
  2 27  1  0
  4 28  1  0
  4 29  1  0
  4 30  1  0
  5 31  1  0
  5 32  1  0
  6 33  1  0
  6 34  1  0
  7 35  1  0
 12 36  1  0
 12 37  1  0
 12 38  1  0
 14 39  1  0
 15 40  1  0
 16 41  1  0
 17 42  1  0
 19 43  1  0
 19 44  1  0
 20 45  1  0
 20 46  1  0
 21 47  1  0
 21 48  1  0
 22 49  1  0
 22 50  1  0
M  CHG  1  11   1
M  END
>  <UniqueID>  (3) 
3

>  <SMILES>  (3) 
CCN(C)CCNc1c2c([n+](C)c3ccccc13)CCCC2

>  <Energy>  (3) 
75.71840732397803

>  <Genealogy>  (3) 
CCN(C)CCNc1c2c([n+](C)c3ccccc13)CCCC2 (3D coordinates assigned)
CCN(C)CCNc1c2c([n+](C)c3ccccc13)CCCC2 (nonaromatic ring conformer: 75.71840732397803 kcal/mol)

>  <smiles>  (3) 
CCN(C)CCNc1c2c([n+](C)c3ccccc13)CCCC2

>  <score_type>  (3) 
oracle

>  <origin>  (3) 
adg

>  <m_score__min__energy>  (3) 
-5.8200000000000003

>  <m_primary>  (3) 
energy

$$$$
3:0
     RDKit          3D

 54 56  0  0  0  0  0  0  0  0999 V2000
   61.9140   34.2060   49.4490 C   0  0  0  0  0  0  0  0  0  0  0  0
   61.9710   32.6850   49.3200 C   0  0  0  0  0  0  0  0  0  0  0  0
   62.9470   32.2440   48.2930 N   0  0  0  0  0  0  0  0  0  0  0  0
   63.7690   33.3720   47.7850 C   0  0  0  0  0  0  0  0  0  0  0  0
   63.3290   33.7650   46.3740 C   0  0  0  0  0  0  0  0  0  0  0  0
   62.2160   31.5850   47.1860 C   0  0  0  0  0  0  0  0  0  0  0  0
   60.8850   31.1530   47.6190 N   0  0  0  0  0  0  0  0  0  0  0  0
   59.7460   31.2500   46.7470 C   0  0  0  0  0  0  0  0  0  0  0  0
   59.4210   32.4840   46.1620 C   0  0  0  0  0  0  0  0  0  0  0  0
   59.9620   33.6910   46.6560 C   0  0  0  0  0  0  0  0  0  0  0  0
   59.6170   34.9120   46.0830 C   0  0  0  0  0  0  0  0  0  0  0  0
   58.7200   34.9550   45.0220 C   0  0  0  0  0  0  0  0  0  0  0  0
   58.1810   33.7750   44.5110 C   0  0  0  0  0  0  0  0  0  0  0  0
   58.5420   32.5140   45.0500 C   0  0  0  0  0  0  0  0  0  0  0  0
   58.0690   31.3320   44.5160 N   0  0  0  0  0  0  0  0  0  0  0  0
   57.4590   31.3210   43.1690 C   0  0  0  0  0  0  0  0  0  0  0  0
   58.1660   30.1610   45.2460 C   0  0  0  0  0  0  0  0  0  0  0  0
   57.4430   29.0010   44.8760 C   0  0  0  0  0  0  0  0  0  0  0  0
   57.5310   27.8290   45.6180 C   0  0  0  0  0  0  0  0  0  0  0  0
   58.2870   27.7940   46.7800 C   0  0  0  0  0  0  0  0  0  0  0  0
   58.9890   28.9260   47.2140 C   0  0  0  0  0  0  0  0  0  0  0  0
   59.5620   28.9080   48.5370 N   0  0  0  0  0  0  0  0  0  0  0  0
   58.9050   29.6710   49.6000 C   0  0  0  0  0  0  0  0  0  0  0  0
   60.4360   27.8030   48.9380 C   0  0  0  0  0  0  0  0  0  0  0  0
   58.9850   30.1070   46.4110 C   0  0  0  0  0  0  0  0  0  0  0  0
   61.9036   34.4836   50.5134 H   0  0  0  0  0  0  0  0  0  0  0  0
   62.7962   34.6485   48.9633 H   0  0  0  0  0  0  0  0  0  0  0  0
   61.0012   34.5812   48.9633 H   0  0  0  0  0  0  0  0  0  0  0  0
   62.2619   32.2581   50.2911 H   0  0  0  0  0  0  0  0  0  0  0  0
   60.9750   32.3356   49.0103 H   0  0  0  0  0  0  0  0  0  0  0  0
   63.6502   34.2364   48.4548 H   0  0  0  0  0  0  0  0  0  0  0  0
   64.8226   33.0574   47.7536 H   0  0  0  0  0  0  0  0  0  0  0  0
   62.5099   34.4966   46.4358 H   0  0  0  0  0  0  0  0  0  0  0  0
   64.1786   34.2104   45.8357 H   0  0  0  0  0  0  0  0  0  0  0  0
   62.9820   32.8707   45.8357 H   0  0  0  0  0  0  0  0  0  0  0  0
   62.1102   32.2946   46.3522 H   0  0  0  0  0  0  0  0  0  0  0  0
   62.7857   30.6992   46.8685 H   0  0  0  0  0  0  0  0  0  0  0  0
   60.7530   30.8420   48.6070 H   0  0  0  0  0  0  0  0  0  0  0  0
   60.6637   33.6663   47.5028 H   0  0  0  0  0  0  0  0  0  0  0  0
   60.0548   35.8438   46.4704 H   0  0  0  0  0  0  0  0  0  0  0  0
   58.4345   35.9229   44.5842 H   0  0  0  0  0  0  0  0  0  0  0  0
   57.4650   33.8229   43.6773 H   0  0  0  0  0  0  0  0  0  0  0  0
   56.3632   31.3012   43.2629 H   0  0  0  0  0  0  0  0  0  0  0  0
   57.7638   32.2248   42.6210 H   0  0  0  0  0  0  0  0  0  0  0  0
   57.7962   30.4288   42.6210 H   0  0  0  0  0  0  0  0  0  0  0  0
   56.7994   29.0280   43.9843 H   0  0  0  0  0  0  0  0  0  0  0  0
   56.9993   26.9264   45.2824 H   0  0  0  0  0  0  0  0  0  0  0  0
   58.3361   26.8658   47.3683 H   0  0  0  0  0  0  0  0  0  0  0  0
   59.2318   29.2915   50.5794 H   0  0  0  0  0  0  0  0  0  0  0  0
   59.1754   30.7334   49.5096 H   0  0  0  0  0  0  0  0  0  0  0  0
   57.8142   29.5613   49.5096 H   0  0  0  0  0  0  0  0  0  0  0  0
   60.4786   27.7491   50.0358 H   0  0  0  0  0  0  0  0  0  0  0  0
   60.0384   26.8579   48.5396 H   0  0  0  0  0  0  0  0  0  0  0  0
   61.4473   27.9722   48.5396 H   0  0  0  0  0  0  0  0  0  0  0  0
  1  2  1  0
  2  3  1  0
  3  4  1  0
  4  5  1  0
  3  6  1  0
  6  7  1  0
  7  8  1  0
  8  9  2  0
  9 10  1  0
 10 11  2  0
 11 12  1  0
 12 13  2  0
 13 14  1  0
 14 15  2  0
 15 16  1  0
 15 17  1  0
 17 18  2  0
 18 19  1  0
 19 20  2  0
 20 21  1  0
 21 22  1  0
 22 23  1  0
 22 24  1  0
 21 25  2  0
 25  8  1  0
 14  9  1  0
 25 17  1  0
  1 26  1  0
  1 27  1  0
  1 28  1  0
  2 29  1  0
  2 30  1  0
  4 31  1  0
  4 32  1  0
  5 33  1  0
  5 34  1  0
  5 35  1  0
  6 36  1  0
  6 37  1  0
  7 38  1  0
 10 39  1  0
 11 40  1  0
 12 41  1  0
 13 42  1  0
 16 43  1  0
 16 44  1  0
 16 45  1  0
 18 46  1  0
 19 47  1  0
 20 48  1  0
 23 49  1  0
 23 50  1  0
 23 51  1  0
 24 52  1  0
 24 53  1  0
 24 54  1  0
M  CHG  1  15   1
M  END
>  <UniqueID>  (4) 
4

>  <SMILES>  (4) 
CCN(CC)CNc1c2ccccc2[n+](C)c2cccc(N(C)C)c12

>  <Energy>  (4) 
89.10689745576084

>  <Genealogy>  (4) 
CCN(CC)CNc1c2ccccc2[n+](C)c2cccc(N(C)C)c12 (3D coordinates assigned)
CCN(CC)CNc1c2ccccc2[n+](C)c2cccc(N(C)C)c12 (optimized conformer: 89.10689745576084 kcal/mol)

>  <smiles>  (4) 
CCN(CC)CNc1c2ccccc2[n+](C)c2cccc(N(C)C)c12

>  <score_type>  (4) 
oracle

>  <origin>  (4) 
adg

>  <m_score__min__energy>  (4) 
-5.4400000000000004

>  <m_primary>  (4) 
energy

$$$$
4:0
     RDKit          3D

 44 46  0  0  0  0  0  0  0  0999 V2000
   58.1420   26.9410   43.5280 C   0  0  0  0  0  0  0  0  0  0  0  0
   57.4100   26.5130   44.7890 C   0  0  0  0  0  0  0  0  0  0  0  0
   56.6070   27.5890   45.2620 O   0  0  0  0  0  0  0  0  0  0  0  0
   57.0820   28.9000   45.3860 C   0  0  0  0  0  0  0  0  0  0  0  0
   57.9550   29.3610   46.3720 C   0  0  0  0  0  0  0  0  0  0  0  0
   58.1450   30.6940   46.0770 C   0  0  0  0  0  0  0  0  0  0  0  0
   58.9260   31.6540   46.7170 C   0  0  0  0  0  0  0  0  0  0  0  0
   58.9380   32.9610   46.1860 C   0  0  0  0  0  0  0  0  0  0  0  0
   59.8970   34.2230   46.9630 S   0  0  0  0  0  0  0  0  0  0  0  0
   60.1920   35.3080   45.9640 O   0  0  0  0  0  0  0  0  0  0  0  0
   59.0990   34.8260   48.0850 O   0  0  0  0  0  0  0  0  0  0  0  0
   61.3980   33.5900   47.5960 N   0  0  0  0  0  0  0  0  0  0  0  0
   61.6900   34.1950   48.9130 C   0  0  0  0  0  0  0  0  0  0  0  0
   63.1310   33.8990   49.3890 C   0  0  0  0  0  0  0  0  0  0  0  0
   63.7710   32.7600   48.5890 C   0  0  0  0  0  0  0  0  0  0  0  0
   63.7590   33.0690   47.0820 C   0  0  0  0  0  0  0  0  0  0  0  0
   62.4960   33.8360   46.6470 C   0  0  0  0  0  0  0  0  0  0  0  0
   58.1770   33.2610   45.0310 C   0  0  0  0  0  0  0  0  0  0  0  0
   57.3990   32.2700   44.4060 C   0  0  0  0  0  0  0  0  0  0  0  0
   57.4030   30.9890   44.9610 C   0  0  0  0  0  0  0  0  0  0  0  0
   56.7410   29.8950   44.5330 N   0  0  0  0  0  0  0  0  0  0  0  0
   55.8830   29.7890   43.3560 C   0  0  0  0  0  0  0  0  0  0  0  0
   59.0616   27.4787   43.8024 H   0  0  0  0  0  0  0  0  0  0  0  0
   58.4005   26.0517   42.9344 H   0  0  0  0  0  0  0  0  0  0  0  0
   57.4938   27.6024   42.9344 H   0  0  0  0  0  0  0  0  0  0  0  0
   56.7683   25.6482   44.5645 H   0  0  0  0  0  0  0  0  0  0  0  0
   58.1428   26.2363   45.5613 H   0  0  0  0  0  0  0  0  0  0  0  0
   58.3945   28.7875   47.2014 H   0  0  0  0  0  0  0  0  0  0  0  0
   59.5159   31.4003   47.6101 H   0  0  0  0  0  0  0  0  0  0  0  0
   61.5590   35.2846   48.8384 H   0  0  0  0  0  0  0  0  0  0  0  0
   60.9970   33.7559   49.6458 H   0  0  0  0  0  0  0  0  0  0  0  0
   63.7402   34.8066   49.2662 H   0  0  0  0  0  0  0  0  0  0  0  0
   63.0866   33.5929   50.4446 H   0  0  0  0  0  0  0  0  0  0  0  0
   64.8115   32.6280   48.9207 H   0  0  0  0  0  0  0  0  0  0  0  0
   63.1913   31.8414   48.7626 H   0  0  0  0  0  0  0  0  0  0  0  0
   64.6424   33.6780   46.8398 H   0  0  0  0  0  0  0  0  0  0  0  0
   63.7692   32.1096   46.5441 H   0  0  0  0  0  0  0  0  0  0  0  0
   62.7171   34.9132   46.6188 H   0  0  0  0  0  0  0  0  0  0  0  0
   62.1916   33.4881   45.6489 H   0  0  0  0  0  0  0  0  0  0  0  0
   58.1942   34.2803   44.6177 H   0  0  0  0  0  0  0  0  0  0  0  0
   56.8059   32.4972   43.5079 H   0  0  0  0  0  0  0  0  0  0  0  0
   54.8380   29.6599   43.6744 H   0  0  0  0  0  0  0  0  0  0  0  0
   55.9722   30.7050   42.7535 H   0  0  0  0  0  0  0  0  0  0  0  0
   56.1925   28.9223   42.7535 H   0  0  0  0  0  0  0  0  0  0  0  0
  1  2  1  0
  2  3  1  0
  3  4  1  0
  4  5  2  0
  5  6  1  0
  6  7  2  0
  7  8  1  0
  8  9  1  0
  9 10  2  0
  9 11  2  0
  9 12  1  0
 12 13  1  0
 13 14  1  0
 14 15  1  0
 15 16  1  0
 16 17  1  0
  8 18  2  0
 18 19  1  0
 19 20  2  0
 20 21  1  0
 21 22  1  0
 21  4  1  0
 20  6  1  0
 17 12  1  0
  1 23  1  0
  1 24  1  0
  1 25  1  0
  2 26  1  0
  2 27  1  0
  5 28  1  0
  7 29  1  0
 13 30  1  0
 13 31  1  0
 14 32  1  0
 14 33  1  0
 15 34  1  0
 15 35  1  0
 16 36  1  0
 16 37  1  0
 17 38  1  0
 17 39  1  0
 18 40  1  0
 19 41  1  0
 22 42  1  0
 22 43  1  0
 22 44  1  0
M  END
>  <UniqueID>  (5) 
5

>  <SMILES>  (5) 
CCOc1cc2cc(S(=O)(=O)N3CCCCC3)ccc2n1C

>  <Energy>  (5) 
75.5998658862093

>  <Genealogy>  (5) 
CCOc1cc2cc(S(=O)(=O)N3CCCCC3)ccc2n1C (3D coordinates assigned)
CCOc1cc2cc(S(=O)(=O)N3CCCCC3)ccc2n1C (nonaromatic ring conformer: 75.5998658862093 kcal/mol)

>  <smiles>  (5) 
CCOc1cc2cc(S(=O)(=O)N3CCCCC3)ccc2n1C

>  <score_type>  (5) 
oracle

>  <origin>  (5) 
adg

>  <m_score__min__energy>  (5) 
-7.9400000000000004

>  <m_primary>  (5) 
energy

$$$$
5:0
     RDKit          3D

 62 65  0  0  0  0  0  0  0  0999 V2000
   58.9580   34.5130   47.1540 C   0  0  0  0  0  0  0  0  0  0  0  0
   60.0120   34.6840   46.0580 C   0  0  0  0  0  0  0  0  0  0  0  0
   61.1110   33.7070   46.1700 N   0  0  0  0  0  0  0  0  0  0  0  0
   61.8800   33.8370   47.4270 C   0  0  0  0  0  0  0  0  0  0  0  0
   63.3840   33.5980   47.2050 C   0  0  0  0  0  0  0  0  0  0  0  0
   63.7770   32.2630   47.6540 N   0  0  0  0  0  0  0  0  0  0  0  0
   63.6240   31.8540   49.0200 C   0  0  0  0  0  0  0  0  0  0  0  0
   64.5720   32.1960   50.0130 C   0  0  0  0  0  0  0  0  0  0  0  0
   65.6340   33.0740   49.7200 C   0  0  0  0  0  0  0  0  0  0  0  0
   66.5570   33.4250   50.7020 C   0  0  0  0  0  0  0  0  0  0  0  0
   66.4290   32.9270   51.9930 C   0  0  0  0  0  0  0  0  0  0  0  0
   65.3770   32.0700   52.3180 C   0  0  0  0  0  0  0  0  0  0  0  0
   64.4310   31.6720   51.3420 C   0  0  0  0  0  0  0  0  0  0  0  0
   63.3820   30.8180   51.6530 N   0  0  0  0  0  0  0  0  0  0  0  0
   63.2770   30.1830   52.9800 C   0  0  0  0  0  0  0  0  0  0  0  0
   62.4260   30.5900   50.6980 C   0  0  0  0  0  0  0  0  0  0  0  0
   61.2820   29.8770   50.8520 N   0  0  0  0  0  0  0  0  0  0  0  0
   60.6780   29.9170   49.6480 C   0  0  0  0  0  0  0  0  0  0  0  0
   59.4650   29.3310   49.3070 C   0  0  0  0  0  0  0  0  0  0  0  0
   58.9920   29.4970   47.9950 C   0  0  0  0  0  0  0  0  0  0  0  0
   59.7250   30.2540   47.0350 C   0  0  0  0  0  0  0  0  0  0  0  0
   59.2180   30.4290   45.6830 N   0  0  0  0  0  0  0  0  0  0  0  0
   58.5160   31.6640   45.2900 C   0  0  0  0  0  0  0  0  0  0  0  0
   57.8470   31.5040   43.9260 C   0  0  0  0  0  0  0  0  0  0  0  0
   59.3950   29.3810   44.6630 C   0  0  0  0  0  0  0  0  0  0  0  0
   60.6990   28.6160   44.8810 C   0  0  0  0  0  0  0  0  0  0  0  0
   60.9570   30.8360   47.4280 C   0  0  0  0  0  0  0  0  0  0  0  0
   61.4070   30.6440   48.7360 C   0  0  0  0  0  0  0  0  0  0  0  0
   62.5320   31.0860   49.4140 C   0  0  0  0  0  0  0  0  0  0  0  0
   59.4387   34.5910   48.1403 H   0  0  0  0  0  0  0  0  0  0  0  0
   58.1950   35.2991   47.0548 H   0  0  0  0  0  0  0  0  0  0  0  0
   58.4826   33.5260   47.0548 H   0  0  0  0  0  0  0  0  0  0  0  0
   59.5262   34.5570   45.0793 H   0  0  0  0  0  0  0  0  0  0  0  0
   60.4469   35.6884   46.1681 H   0  0  0  0  0  0  0  0  0  0  0  0
   60.7350   32.7380   46.0430 H   0  0  0  0  0  0  0  0  0  0  0  0
   61.7630   33.8830   45.3690 H   0  0  0  0  0  0  0  0  0  0  0  0
   61.7362   34.8508   47.8290 H   0  0  0  0  0  0  0  0  0  0  0  0
   61.5136   33.0762   48.1319 H   0  0  0  0  0  0  0  0  0  0  0  0
   63.6091   33.6971   46.1328 H   0  0  0  0  0  0  0  0  0  0  0  0
   63.9458   34.3422   47.7885 H   0  0  0  0  0  0  0  0  0  0  0  0
   64.1780   31.5860   46.9670 H   0  0  0  0  0  0  0  0  0  0  0  0
   65.7352   33.4865   48.7053 H   0  0  0  0  0  0  0  0  0  0  0  0
   67.3905   34.0990   50.4548 H   0  0  0  0  0  0  0  0  0  0  0  0
   67.1614   33.2101   52.7633 H   0  0  0  0  0  0  0  0  0  0  0  0
   65.2808   31.6976   53.3486 H   0  0  0  0  0  0  0  0  0  0  0  0
   63.4031   30.9458   53.7625 H   0  0  0  0  0  0  0  0  0  0  0  0
   62.2887   29.7113   53.0836 H   0  0  0  0  0  0  0  0  0  0  0  0
   64.0609   29.4183   53.0836 H   0  0  0  0  0  0  0  0  0  0  0  0
   60.9030   29.4120   51.7050 H   0  0  0  0  0  0  0  0  0  0  0  0
   58.8904   28.7523   50.0452 H   0  0  0  0  0  0  0  0  0  0  0  0
   58.0379   29.0341   47.7027 H   0  0  0  0  0  0  0  0  0  0  0  0
   57.7477   31.8958   46.0423 H   0  0  0  0  0  0  0  0  0  0  0  0
   59.2515   32.4794   45.2257 H   0  0  0  0  0  0  0  0  0  0  0  0
   56.7858   31.2502   44.0656 H   0  0  0  0  0  0  0  0  0  0  0  0
   57.9278   32.4468   43.3651 H   0  0  0  0  0  0  0  0  0  0  0  0
   58.3456   30.6998   43.3651 H   0  0  0  0  0  0  0  0  0  0  0  0
   58.5516   28.6772   44.7209 H   0  0  0  0  0  0  0  0  0  0  0  0
   59.4320   29.8595   43.6732 H   0  0  0  0  0  0  0  0  0  0  0  0
   60.8844   28.5073   45.9598 H   0  0  0  0  0  0  0  0  0  0  0  0
   60.6214   27.6202   44.4201 H   0  0  0  0  0  0  0  0  0  0  0  0
   61.5303   29.1696   44.4201 H   0  0  0  0  0  0  0  0  0  0  0  0
   61.5483   31.4287   46.7145 H   0  0  0  0  0  0  0  0  0  0  0  0
  1  2  1  0
  2  3  1  0
  3  4  1  0
  4  5  1  0
  5  6  1  0
  6  7  1  0
  7  8  2  0
  8  9  1  0
  9 10  2  0
 10 11  1  0
 11 12  2  0
 12 13  1  0
 13 14  2  0
 14 15  1  0
 14 16  1  0
 16 17  1  0
 17 18  1  0
 18 19  2  0
 19 20  1  0
 20 21  2  0
 21 22  1  0
 22 23  1  0
 23 24  1  0
 22 25  1  0
 25 26  1  0
 21 27  1  0
 27 28  2  0
 28 29  1  0
 29  7  1  0
 13  8  1  0
 29 16  2  0
 28 18  1  0
  1 30  1  0
  1 31  1  0
  1 32  1  0
  2 33  1  0
  2 34  1  0
  3 35  1  0
  3 36  1  0
  4 37  1  0
  4 38  1  0
  5 39  1  0
  5 40  1  0
  6 41  1  0
  9 42  1  0
 10 43  1  0
 11 44  1  0
 12 45  1  0
 15 46  1  0
 15 47  1  0
 15 48  1  0
 17 49  1  0
 19 50  1  0
 20 51  1  0
 23 52  1  0
 23 53  1  0
 24 54  1  0
 24 55  1  0
 24 56  1  0
 25 57  1  0
 25 58  1  0
 26 59  1  0
 26 60  1  0
 26 61  1  0
 27 62  1  0
M  CHG  2   3   1  14   1
M  END
>  <UniqueID>  (6) 
6

>  <SMILES>  (6) 
CC[NH2+]CCNc1c2ccccc2[n+](C)c2[nH]c3ccc(N(CC)CC)cc3c12

>  <Energy>  (6) 
117.76270833673784

>  <Genealogy>  (6) 
CC[NH2+]CCNc1c2ccccc2[n+](C)c2[nH]c3ccc(N(CC)CC)cc3c12 (protonated)
CC[NH2+]CCNc1c2ccccc2[n+](C)c2[nH]c3ccc(N(CC)CC)cc3c12 (3D coordinates assigned)
CC[NH2+]CCNc1c2ccccc2[n+](C)c2[nH]c3ccc(N(CC)CC)cc3c12 (optimized conformer: 117.76270833673784 kcal/mol)

>  <smiles>  (6) 
CCNCCNc1c2ccccc2[n+](C)c2[nH]c3ccc(N(CC)CC)cc3c12

>  <score_type>  (6) 
oracle

>  <origin>  (6) 
adg

>  <m_score__min__energy>  (6) 
-4.6500000000000004

>  <m_primary>  (6) 
energy

$$$$
6:0
     RDKit          3D

 74 78  0  0  0  0  0  0  0  0999 V2000
   57.6776   24.3595   47.1235 H   0  0  0  0  0  0  0  0  0  0  0  0
   58.1000   25.3560   46.9270 C   0  0  0  0  0  0  0  0  0  0  0  0
   58.8950   25.9520   47.8620 N   0  0  0  0  0  0  0  0  0  0  0  0
   59.4380   27.1700   47.6110 C   0  0  0  0  0  0  0  0  0  0  0  0
   59.1660   27.8520   46.4440 C   0  0  0  0  0  0  0  0  0  0  0  0
   58.3480   27.2830   45.4640 C   0  0  0  0  0  0  0  0  0  0  0  0
   58.1277   27.8174   44.5281 H   0  0  0  0  0  0  0  0  0  0  0  0
   57.8170   26.0090   45.7120 C   0  0  0  0  0  0  0  0  0  0  0  0
   57.1808   25.5209   44.9590 H   0  0  0  0  0  0  0  0  0  0  0  0
   59.7950   29.1730   46.5420 C   0  0  0  0  0  0  0  0  0  0  0  0
   59.9020   30.0640   45.6060 N   0  0  0  0  0  0  0  0  0  0  0  0
   59.4020   31.3380   45.7360 O   0  0  0  0  0  0  0  0  0  0  0  0
   58.2180   31.7180   45.0510 C   0  0  0  0  0  0  0  0  0  0  0  0
   58.4651   31.9676   44.0086 H   0  0  0  0  0  0  0  0  0  0  0  0
   57.5035   30.8821   45.0769 H   0  0  0  0  0  0  0  0  0  0  0  0
   57.5820   32.9460   45.7320 C   0  0  0  0  0  0  0  0  0  0  0  0
   56.4965   32.7748   45.7810 H   0  0  0  0  0  0  0  0  0  0  0  0
   58.0860   33.1070   47.1960 C   0  0  0  0  0  0  0  0  0  0  0  0
   57.2103   33.1984   47.8555 H   0  0  0  0  0  0  0  0  0  0  0  0
   58.6954   32.2198   47.4228 H   0  0  0  0  0  0  0  0  0  0  0  0
   58.9880   34.3360   47.4150 C   0  0  0  0  0  0  0  0  0  0  0  0
   58.3585   35.2352   47.4871 H   0  0  0  0  0  0  0  0  0  0  0  0
   59.5598   34.1883   48.3430 H   0  0  0  0  0  0  0  0  0  0  0  0
   59.9760   34.5090   46.2580 C   0  0  0  0  0  0  0  0  0  0  0  0
   60.6025   35.3909   46.4572 H   0  0  0  0  0  0  0  0  0  0  0  0
   60.5803   33.5922   46.1927 H   0  0  0  0  0  0  0  0  0  0  0  0
   59.2650   34.7020   44.9020 C   0  0  0  0  0  0  0  0  0  0  0  0
   59.2869   35.7719   44.6475 H   0  0  0  0  0  0  0  0  0  0  0  0
   59.8019   34.0848   44.1665 H   0  0  0  0  0  0  0  0  0  0  0  0
   57.7970   34.2310   44.9000 C   0  0  0  0  0  0  0  0  0  0  0  0
   57.1700   35.0313   45.3200 H   0  0  0  0  0  0  0  0  0  0  0  0
   57.5224   34.0031   43.8595 H   0  0  0  0  0  0  0  0  0  0  0  0
   60.4320   29.2400   47.8720 C   0  0  0  0  0  0  0  0  0  0  0  0
   61.1320   30.2830   48.4960 C   0  0  0  0  0  0  0  0  0  0  0  0
   61.2500   31.5740   47.8460 N   0  0  0  0  0  0  0  0  0  0  0  0
   60.4610   31.7030   47.1740 H   0  0  0  0  0  0  0  0  0  0  0  0
   61.1370   32.3570   48.5270 H   0  0  0  0  0  0  0  0  0  0  0  0
   62.5420   31.6780   47.1480 C   0  0  0  0  0  0  0  0  0  0  0  0
   62.3704   31.6244   46.0628 H   0  0  0  0  0  0  0  0  0  0  0  0
   63.1866   30.8494   47.4763 H   0  0  0  0  0  0  0  0  0  0  0  0
   63.2400   33.0050   47.4820 C   0  0  0  0  0  0  0  0  0  0  0  0
   62.7891   33.8127   46.8868 H   0  0  0  0  0  0  0  0  0  0  0  0
   64.3106   32.9173   47.2453 H   0  0  0  0  0  0  0  0  0  0  0  0
   63.0870   33.3140   48.9210 N   0  0  0  0  0  0  0  0  0  0  0  0
   62.1600   34.4480   49.1600 C   0  0  0  0  0  0  0  0  0  0  0  0
   61.8123   34.8202   48.1850 H   0  0  0  0  0  0  0  0  0  0  0  0
   62.7242   35.2019   49.7286 H   0  0  0  0  0  0  0  0  0  0  0  0
   60.9290   34.0900   50.0050 C   0  0  0  0  0  0  0  0  0  0  0  0
   61.1831   34.1639   51.0727 H   0  0  0  0  0  0  0  0  0  0  0  0
   60.1102   34.7872   49.7738 H   0  0  0  0  0  0  0  0  0  0  0  0
   60.6118   33.0624   49.7738 H   0  0  0  0  0  0  0  0  0  0  0  0
   64.4000   33.4630   49.5930 C   0  0  0  0  0  0  0  0  0  0  0  0
   64.9245   32.4964   49.5701 H   0  0  0  0  0  0  0  0  0  0  0  0
   64.9743   34.2343   49.0589 H   0  0  0  0  0  0  0  0  0  0  0  0
   64.2410   33.9060   51.0450 C   0  0  0  0  0  0  0  0  0  0  0  0
   64.5361   33.0839   51.7136 H   0  0  0  0  0  0  0  0  0  0  0  0
   64.8815   34.7801   51.2339 H   0  0  0  0  0  0  0  0  0  0  0  0
   63.1908   34.1733   51.2339 H   0  0  0  0  0  0  0  0  0  0  0  0
   61.7010   30.0130   49.7740 C   0  0  0  0  0  0  0  0  0  0  0  0
   62.4840   30.9760   50.4530 C   0  0  0  0  0  0  0  0  0  0  0  0
   62.7058   31.9365   49.9649 H   0  0  0  0  0  0  0  0  0  0  0  0
   62.9780   30.7250   51.7310 C   0  0  0  0  0  0  0  0  0  0  0  0
   63.5926   31.4826   52.2391 H   0  0  0  0  0  0  0  0  0  0  0  0
   62.6980   29.5230   52.3660 C   0  0  0  0  0  0  0  0  0  0  0  0
   63.0606   29.3469   53.3895 H   0  0  0  0  0  0  0  0  0  0  0  0
   61.9600   28.5390   51.7130 C   0  0  0  0  0  0  0  0  0  0  0  0
   61.7411   27.5942   52.2321 H   0  0  0  0  0  0  0  0  0  0  0  0
   61.4860   28.7330   50.3920 C   0  0  0  0  0  0  0  0  0  0  0  0
   60.8250   27.7240   49.7080 N   0  0  0  0  0  0  0  0  0  0  0  0
   60.7460   26.3490   50.2390 C   0  0  0  0  0  0  0  0  0  0  0  0
   60.7478   26.3799   51.3386 H   0  0  0  0  0  0  0  0  0  0  0  0
   59.8190   25.8727   49.8871 H   0  0  0  0  0  0  0  0  0  0  0  0
   61.6123   25.7697   49.8871 H   0  0  0  0  0  0  0  0  0  0  0  0
   60.2580   28.0170   48.4970 C   0  0  0  0  0  0  0  0  0  0  0  0
  1  2  1  0
  2  3  2  0
  3  4  1  0
  4  5  2  0
  5  6  1  0
  6  7  1  0
  6  8  2  0
  8  9  1  0
  5 10  1  0
 10 11  2  0
 11 12  1  0
 12 13  1  0
 13 14  1  0
 13 15  1  0
 13 16  1  0
 16 17  1  0
 16 18  1  0
 18 19  1  0
 18 20  1  0
 18 21  1  0
 21 22  1  0
 21 23  1  0
 21 24  1  0
 24 25  1  0
 24 26  1  0
 24 27  1  0
 27 28  1  0
 27 29  1  0
 27 30  1  0
 30 31  1  0
 30 32  1  0
 10 33  1  0
 33 34  2  0
 34 35  1  0
 35 36  1  0
 35 37  1  0
 35 38  1  0
 38 39  1  0
 38 40  1  0
 38 41  1  0
 41 42  1  0
 41 43  1  0
 41 44  1  0
 44 45  1  0
 45 46  1  0
 45 47  1  0
 45 48  1  0
 48 49  1  0
 48 50  1  0
 48 51  1  0
 44 52  1  0
 52 53  1  0
 52 54  1  0
 52 55  1  0
 55 56  1  0
 55 57  1  0
 55 58  1  0
 34 59  1  0
 59 60  2  0
 60 61  1  0
 60 62  1  0
 62 63  1  0
 62 64  2  0
 64 65  1  0
 64 66  1  0
 66 67  1  0
 66 68  2  0
 68 69  1  0
 69 70  1  0
 70 71  1  0
 70 72  1  0
 70 73  1  0
 69 74  2  0
  8  2  1  0
 30 16  1  0
 74 33  1  0
 74  4  1  0
 68 59  1  0
M  CHG  2  35   1  69   1
M  END
>  <UniqueID>  (7) 
7

>  <SMILES>  (7) 
CCN(CC)CC[NH2+]c1c2c([n+](C)c3ccccc13)-c1ncccc1/C2=N\OCC1CCCCC1

>  <Energy>  (7) 
126.74285554966424

>  <Genealogy>  (7) 
CCN(CC)CC[NH2+]c1c2c([n+](C)c3ccccc13)-c1ncccc1C2=NOCC1CCCCC1 (protonated)
CCN(CC)CC[NH2+]c1c2c([n+](C)c3ccccc13)-c1ncccc1/C2=N\OCC1CCCCC1 (cis-trans isomerization)
CCN(CC)CC[NH2+]c1c2c([n+](C)c3ccccc13)-c1ncccc1/C2=N\OCC1CCCCC1 (3D coordinates assigned)
CCN(CC)CC[NH2+]c1c2c([n+](C)c3ccccc13)-c1ncccc1/C2=N\OCC1CCCCC1 (nonaromatic ring conformer: 126.74285554966424 kcal/mol)

>  <smiles>  (7) 
CCN(CC)CCNc1c2c([n+](C)c3ccccc13)-c1ncccc1C2=NOCC1CCCCC1

>  <score_type>  (7) 
oracle

>  <origin>  (7) 
adg

>  <m_score__min__energy>  (7) 
-5.1399999999999997

>  <m_primary>  (7) 
energy

$$$$
7:0
     RDKit          3D

 48 51  0  0  0  0  0  0  0  0999 V2000
   57.0290   34.1940   44.8880 C   0  0  0  0  0  0  0  0  0  0  0  0
   57.6690   32.9930   45.4250 N   0  0  0  0  0  0  0  0  0  0  0  0
   58.5120   32.9020   46.4910 C   0  0  0  0  0  0  0  0  0  0  0  0
   59.0120   34.0840   47.2780 C   0  0  0  0  0  0  0  0  0  0  0  0
   60.4250   33.8550   47.7620 C   0  0  0  0  0  0  0  0  0  0  0  0
   61.4680   33.8410   46.8180 C   0  0  0  0  0  0  0  0  0  0  0  0
   62.7880   33.6440   47.2210 C   0  0  0  0  0  0  0  0  0  0  0  0
   63.0850   33.4520   48.5690 C   0  0  0  0  0  0  0  0  0  0  0  0
   62.0620   33.4480   49.5190 C   0  0  0  0  0  0  0  0  0  0  0  0
   60.7200   33.6450   49.1360 C   0  0  0  0  0  0  0  0  0  0  0  0
   59.6530   33.5940   50.1120 N   0  0  0  0  0  0  0  0  0  0  0  0
   58.7610   32.4520   50.3630 C   0  0  0  0  0  0  0  0  0  0  0  0
   59.4710   31.1070   50.0890 C   0  0  0  0  0  0  0  0  0  0  0  0
   58.9730   29.9940   51.0270 C   0  0  0  0  0  0  0  0  0  0  0  0
   57.5240   30.0970   51.2440 N   0  0  0  0  0  0  0  0  0  0  0  0
   57.1420   31.3260   51.9700 C   0  0  0  0  0  0  0  0  0  0  0  0
   58.1110   32.5110   51.7560 C   0  0  0  0  0  0  0  0  0  0  0  0
   58.9030   31.6270   46.7580 N   0  0  0  0  0  0  0  0  0  0  0  0
   58.2410   30.9050   45.8370 C   0  0  0  0  0  0  0  0  0  0  0  0
   58.2600   29.5220   45.6740 C   0  0  0  0  0  0  0  0  0  0  0  0
   57.4670   28.9730   44.6490 C   0  0  0  0  0  0  0  0  0  0  0  0
   56.6820   29.8110   43.8240 C   0  0  0  0  0  0  0  0  0  0  0  0
   56.6850   31.2050   44.0160 C   0  0  0  0  0  0  0  0  0  0  0  0
   57.4880   31.7170   45.0380 C   0  0  0  0  0  0  0  0  0  0  0  0
   56.6896   34.8309   45.7181 H   0  0  0  0  0  0  0  0  0  0  0  0
   57.7507   34.7494   44.2711 H   0  0  0  0  0  0  0  0  0  0  0  0
   56.1655   33.9046   44.2711 H   0  0  0  0  0  0  0  0  0  0  0  0
   58.9920   34.9774   46.6366 H   0  0  0  0  0  0  0  0  0  0  0  0
   58.3604   34.2227   48.1533 H   0  0  0  0  0  0  0  0  0  0  0  0
   61.2399   33.9869   45.7519 H   0  0  0  0  0  0  0  0  0  0  0  0
   63.5958   33.6401   46.4743 H   0  0  0  0  0  0  0  0  0  0  0  0
   64.1280   33.3032   48.8852 H   0  0  0  0  0  0  0  0  0  0  0  0
   62.3064   33.2891   50.5797 H   0  0  0  0  0  0  0  0  0  0  0  0
   59.5660   34.3870   50.7850 H   0  0  0  0  0  0  0  0  0  0  0  0
   57.9315   32.5235   49.6442 H   0  0  0  0  0  0  0  0  0  0  0  0
   59.2773   30.8081   49.0483 H   0  0  0  0  0  0  0  0  0  0  0  0
   60.5473   31.2471   50.2675 H   0  0  0  0  0  0  0  0  0  0  0  0
   59.2007   29.0162   50.5775 H   0  0  0  0  0  0  0  0  0  0  0  0
   59.4808   30.1002   51.9970 H   0  0  0  0  0  0  0  0  0  0  0  0
   57.0450   30.0890   50.3120 H   0  0  0  0  0  0  0  0  0  0  0  0
   56.1416   31.6317   51.6297 H   0  0  0  0  0  0  0  0  0  0  0  0
   57.1694   31.0829   53.0425 H   0  0  0  0  0  0  0  0  0  0  0  0
   57.5521   33.4536   51.8518 H   0  0  0  0  0  0  0  0  0  0  0  0
   58.9056   32.4532   52.5144 H   0  0  0  0  0  0  0  0  0  0  0  0
   58.8736   28.8809   46.3239 H   0  0  0  0  0  0  0  0  0  0  0  0
   57.4579   27.8848   44.4887 H   0  0  0  0  0  0  0  0  0  0  0  0
   56.0650   29.3704   43.0270 H   0  0  0  0  0  0  0  0  0  0  0  0
   56.0765   31.8682   43.3836 H   0  0  0  0  0  0  0  0  0  0  0  0
  1  2  1  0
  2  3  1  0
  3  4  1  0
  4  5  1  0
  5  6  2  0
  6  7  1  0
  7  8  2  0
  8  9  1  0
  9 10  2  0
 10 11  1  0
 11 12  1  0
 12 13  1  0
 13 14  1  0
 14 15  1  0
 15 16  1  0
 16 17  1  0
  3 18  2  0
 18 19  1  0
 19 20  2  0
 20 21  1  0
 21 22  2  0
 22 23  1  0
 23 24  2  0
 24  2  1  0
 10  5  1  0
 17 12  1  0
 24 19  1  0
  1 25  1  0
  1 26  1  0
  1 27  1  0
  4 28  1  0
  4 29  1  0
  6 30  1  0
  7 31  1  0
  8 32  1  0
  9 33  1  0
 11 34  1  0
 12 35  1  0
 13 36  1  0
 13 37  1  0
 14 38  1  0
 14 39  1  0
 15 40  1  0
 16 41  1  0
 16 42  1  0
 17 43  1  0
 17 44  1  0
 20 45  1  0
 21 46  1  0
 22 47  1  0
 23 48  1  0
M  END
>  <UniqueID>  (8) 
8

>  <SMILES>  (8) 
Cn1c(Cc2ccccc2NC2CCNCC2)nc2ccccc21

>  <Energy>  (8) 
97.84940105199999

>  <Genealogy>  (8) 
Cn1c(Cc2ccccc2NC2CCNCC2)nc2ccccc21 (3D coordinates assigned)
Cn1c(Cc2ccccc2NC2CCNCC2)nc2ccccc21 (nonaromatic ring conformer: 97.84940105199999 kcal/mol)

>  <smiles>  (8) 
Cn1c(Cc2ccccc2NC2CCNCC2)nc2ccccc21

>  <score_type>  (8) 
oracle

>  <origin>  (8) 
adg

>  <m_score__min__energy>  (8) 
-8.25

>  <m_primary>  (8) 
energy

$$$$
8:0
     RDKit          3D

 59 62  0  0  0  0  0  0  0  0999 V2000
   63.6340   31.9570   47.4840 C   0  0  0  0  0  0  0  0  0  0  0  0
   64.1080   33.3620   47.8620 C   0  0  0  0  0  0  0  0  0  0  0  0
   64.1290   33.5800   49.3950 C   0  0  2  0  0  0  0  0  0  0  0  0
   64.9500   32.4900   50.1340 C   0  0  0  0  0  0  0  0  0  0  0  0
   64.5210   32.2900   51.5460 N   0  0  0  0  0  0  0  0  0  0  0  0
   65.6000   31.7010   52.3690 C   0  0  0  0  0  0  0  0  0  0  0  0
   66.7890   31.2740   51.5050 C   0  0  0  0  0  0  0  0  0  0  0  0
   64.0350   33.5490   52.1500 C   0  0  0  0  0  0  0  0  0  0  0  0
   62.7310   33.9690   51.4570 C   0  0  0  0  0  0  0  0  0  0  0  0
   62.7910   33.6970   50.0150 N   0  0  0  0  0  0  0  0  0  0  0  0
   61.5460   33.5600   49.3030 C   0  0  0  0  0  0  0  0  0  0  0  0
   60.5140   32.8790   49.8650 N   0  0  0  0  0  0  0  0  0  0  0  0
   59.3490   32.6810   49.1970 C   0  0  0  0  0  0  0  0  0  0  0  0
   58.4120   32.0570   49.7620 O   0  0  0  0  0  0  0  0  0  0  0  0
   59.1980   33.1680   47.8900 C   0  0  0  0  0  0  0  0  0  0  0  0
   60.2720   33.8920   47.3300 C   0  0  0  0  0  0  0  0  0  0  0  0
   61.4180   34.0460   48.0400 N   0  0  0  0  0  0  0  0  0  0  0  0
   60.2160   34.4370   45.9250 C   0  0  0  0  0  0  0  0  0  0  0  0
   58.7770   34.5790   45.4340 C   0  0  0  0  0  0  0  0  0  0  0  0
   58.0530   33.3370   45.7160 N   0  0  0  0  0  0  0  0  0  0  0  0
   57.5500   32.4960   44.6520 C   0  0  0  0  0  0  0  0  0  0  0  0
   57.8340   32.7890   43.3530 N   0  0  0  0  0  0  0  0  0  0  0  0
   57.3920   32.0050   42.3340 C   0  0  0  0  0  0  0  0  0  0  0  0
   57.7680   32.3390   40.9260 C   0  0  0  0  0  0  0  0  0  0  0  0
   56.6490   30.8540   42.6210 C   0  0  0  0  0  0  0  0  0  0  0  0
   56.3520   30.5660   43.9560 C   0  0  0  0  0  0  0  0  0  0  0  0
   55.5610   29.3410   44.3100 C   0  0  0  0  0  0  0  0  0  0  0  0
   56.8140   31.3870   44.9380 N   0  0  0  0  0  0  0  0  0  0  0  0
   57.9050   32.9550   47.1270 C   0  0  0  0  0  0  0  0  0  0  0  0
   63.4385   31.3776   48.3984 H   0  0  0  0  0  0  0  0  0  0  0  0
   62.7103   32.0288   46.8910 H   0  0  0  0  0  0  0  0  0  0  0  0
   64.4124   31.4546   46.8910 H   0  0  0  0  0  0  0  0  0  0  0  0
   65.1247   33.5104   47.4692 H   0  0  0  0  0  0  0  0  0  0  0  0
   63.4014   34.0848   47.4279 H   0  0  0  0  0  0  0  0  0  0  0  0
   64.6251   34.5544   49.5157 H   0  0  0  0  0  0  0  0  0  0  0  0
   64.8330   31.5384   49.5948 H   0  0  0  0  0  0  0  0  0  0  0  0
   65.9970   32.8268   50.1547 H   0  0  0  0  0  0  0  0  0  0  0  0
   65.9396   32.4476   53.1020 H   0  0  0  0  0  0  0  0  0  0  0  0
   65.2021   30.8099   52.8766 H   0  0  0  0  0  0  0  0  0  0  0  0
   67.6248   30.9738   52.1541 H   0  0  0  0  0  0  0  0  0  0  0  0
   66.4948   30.4254   50.8700 H   0  0  0  0  0  0  0  0  0  0  0  0
   67.1019   32.1159   50.8700 H   0  0  0  0  0  0  0  0  0  0  0  0
   63.8485   33.3946   53.2230 H   0  0  0  0  0  0  0  0  0  0  0  0
   64.7921   34.3369   52.0232 H   0  0  0  0  0  0  0  0  0  0  0  0
   61.8934   33.4062   51.8948 H   0  0  0  0  0  0  0  0  0  0  0  0
   62.5876   35.0496   51.6045 H   0  0  0  0  0  0  0  0  0  0  0  0
   60.6988   35.4252   45.9059 H   0  0  0  0  0  0  0  0  0  0  0  0
   60.7379   33.7318   45.2614 H   0  0  0  0  0  0  0  0  0  0  0  0
   58.2902   35.4164   45.9554 H   0  0  0  0  0  0  0  0  0  0  0  0
   58.7709   34.7756   44.3517 H   0  0  0  0  0  0  0  0  0  0  0  0
   58.5904   33.0695   40.9296 H   0  0  0  0  0  0  0  0  0  0  0  0
   58.0916   31.4251   40.4063 H   0  0  0  0  0  0  0  0  0  0  0  0
   56.8987   32.7681   40.4063 H   0  0  0  0  0  0  0  0  0  0  0  0
   56.3063   30.1905   41.8133 H   0  0  0  0  0  0  0  0  0  0  0  0
   55.5004   29.2472   45.4043 H   0  0  0  0  0  0  0  0  0  0  0  0
   54.5468   29.4261   43.8926 H   0  0  0  0  0  0  0  0  0  0  0  0
   56.0559   28.4517   43.8926 H   0  0  0  0  0  0  0  0  0  0  0  0
   57.1136   33.5675   47.5837 H   0  0  0  0  0  0  0  0  0  0  0  0
   57.6441   31.8874   47.1739 H   0  0  0  0  0  0  0  0  0  0  0  0
  1  2  1  0
  2  3  1  0
  3  4  1  0
  4  5  1  0
  5  6  1  0
  6  7  1  0
  5  8  1  0
  8  9  1  0
  9 10  1  0
 10 11  1  0
 11 12  2  0
 12 13  1  0
 13 14  2  0
 13 15  1  0
 15 16  2  0
 16 17  1  0
 16 18  1  0
 18 19  1  0
 19 20  1  0
 20 21  1  0
 21 22  2  0
 22 23  1  0
 23 24  1  0
 23 25  2  0
 25 26  1  0
 26 27  1  0
 26 28  2  0
 20 29  1  0
 10  3  1  0
 17 11  1  0
 28 21  1  0
 29 15  1  0
  1 30  1  0
  1 31  1  0
  1 32  1  0
  2 33  1  0
  2 34  1  0
  3 35  1  6
  4 36  1  0
  4 37  1  0
  6 38  1  0
  6 39  1  0
  7 40  1  0
  7 41  1  0
  7 42  1  0
  8 43  1  0
  8 44  1  0
  9 45  1  0
  9 46  1  0
 18 47  1  0
 18 48  1  0
 19 49  1  0
 19 50  1  0
 24 51  1  0
 24 52  1  0
 24 53  1  0
 25 54  1  0
 27 55  1  0
 27 56  1  0
 27 57  1  0
 29 58  1  0
 29 59  1  0
M  CHG  1  17  -1
M  END
>  <UniqueID>  (9) 
9

>  <SMILES>  (9) 
CC[C@@H]1CN(CC)CCN1c1nc(=O)c2c([n-]1)CCN(c1nc(C)cc(C)n1)C2

>  <Energy>  (9) 
72.71320000095997

>  <Genealogy>  (9) 
CCC1CN(CC)CCN1c1nc(=O)c2c([n-]1)CCN(c1nc(C)cc(C)n1)C2 (protonated)
CC[C@@H]1CN(CC)CCN1c1nc(=O)c2c([n-]1)CCN(c1nc(C)cc(C)n1)C2 (chirality)
CC[C@@H]1CN(CC)CCN1c1nc(=O)c2c([n-]1)CCN(c1nc(C)cc(C)n1)C2 (3D coordinates assigned)
CC[C@@H]1CN(CC)CCN1c1nc(=O)c2c([n-]1)CCN(c1nc(C)cc(C)n1)C2 (nonaromatic ring conformer: 72.71320000095997 kcal/mol)

>  <smiles>  (9) 
CCC1CN(CC)CCN1c1nc(=O)c2c([nH]1)CCN(c1nc(C)cc(C)n1)C2

>  <score_type>  (9) 
oracle

>  <origin>  (9) 
adg

>  <m_score__min__energy>  (9) 
-9.6199999999999992

>  <m_primary>  (9) 
energy

$$$$
9:0
     RDKit          3D

 86 90  0  0  0  0  0  0  0  0999 V2000
   63.4650   32.7740   47.4220 C   0  0  0  0  0  0  0  0  0  0  0  0
   62.4360   33.8420   47.0100 C   0  0  0  0  0  0  0  0  0  0  0  0
   61.1270   33.7830   47.7270 N   0  0  0  0  0  0  0  0  0  0  0  0
   61.2080   34.2190   49.1490 C   0  0  0  0  0  0  0  0  0  0  0  0
   59.9900   33.8000   49.9820 C   0  0  0  0  0  0  0  0  0  0  0  0
   60.0120   34.3950   46.9520 C   0  0  0  0  0  0  0  0  0  0  0  0
   59.0740   33.3910   46.2560 C   0  0  0  0  0  0  0  0  0  0  0  0
   59.7630   32.1240   45.9990 N   0  0  0  0  0  0  0  0  0  0  0  0
   59.0580   30.8780   45.9050 C   0  0  0  0  0  0  0  0  0  0  0  0
   58.1940   30.5890   44.8220 C   0  0  0  0  0  0  0  0  0  0  0  0
   57.8760   31.5780   43.8710 C   0  0  0  0  0  0  0  0  0  0  0  0
   57.0640   31.2810   42.7790 C   0  0  0  0  0  0  0  0  0  0  0  0
   56.5530   29.9980   42.6160 C   0  0  0  0  0  0  0  0  0  0  0  0
   56.8210   29.0060   43.5600 C   0  0  0  0  0  0  0  0  0  0  0  0
   57.6160   29.2800   44.7000 C   0  0  0  0  0  0  0  0  0  0  0  0
   57.8420   28.3180   45.6760 N   0  0  0  0  0  0  0  0  0  0  0  0
   57.1870   26.9980   45.6120 C   0  0  0  0  0  0  0  0  0  0  0  0
   58.6890   28.6260   46.7090 C   0  0  0  0  0  0  0  0  0  0  0  0
   59.0860   27.7940   47.7050 N   0  0  0  0  0  0  0  0  0  0  0  0
   59.8940   28.5390   48.4850 C   0  0  0  0  0  0  0  0  0  0  0  0
   60.5370   28.1260   49.6490 C   0  0  0  0  0  0  0  0  0  0  0  0
   61.3210   29.0640   50.3410 C   0  0  0  0  0  0  0  0  0  0  0  0
   61.4420   30.3990   49.8670 C   0  0  0  0  0  0  0  0  0  0  0  0
   62.1880   31.3770   50.5430 O   0  0  0  0  0  0  0  0  0  0  0  0
   62.6480   31.2880   51.8930 C   0  0  0  0  0  0  0  0  0  0  0  0
   64.1970   31.3540   51.9750 C   0  0  0  0  0  0  0  0  0  0  0  0
   64.8290   32.6610   51.5890 N   0  0  0  0  0  0  0  0  0  0  0  0
   63.7780   33.6830   51.3340 C   0  0  0  0  0  0  0  0  0  0  0  0
   65.6610   33.1240   52.7500 C   0  0  0  0  0  0  0  0  0  0  0  0
   66.8500   34.0050   52.3160 C   0  0  0  0  0  0  0  0  0  0  0  0
   67.8150   33.2600   51.4480 N   0  0  0  0  0  0  0  0  0  0  0  0
   68.8840   32.6650   52.2890 C   0  0  0  0  0  0  0  0  0  0  0  0
   68.4540   34.2140   50.5080 C   0  0  0  0  0  0  0  0  0  0  0  0
   67.1420   32.1670   50.6780 C   0  0  0  0  0  0  0  0  0  0  0  0
   65.6710   32.5000   50.3540 C   0  0  0  0  0  0  0  0  0  0  0  0
   60.7890   30.7780   48.6780 C   0  0  0  0  0  0  0  0  0  0  0  0
   60.0260   29.8220   48.0030 C   0  0  0  0  0  0  0  0  0  0  0  0
   59.2620   29.8750   46.8480 C   0  0  0  0  0  0  0  0  0  0  0  0
   63.5175   32.7195   48.5194 H   0  0  0  0  0  0  0  0  0  0  0  0
   63.1596   31.7965   47.0205 H   0  0  0  0  0  0  0  0  0  0  0  0
   64.4532   33.0428   47.0205 H   0  0  0  0  0  0  0  0  0  0  0  0
   62.8804   34.8308   47.1964 H   0  0  0  0  0  0  0  0  0  0  0  0
   62.2094   33.6508   45.9507 H   0  0  0  0  0  0  0  0  0  0  0  0
   60.8900   32.7620   47.7610 H   0  0  0  0  0  0  0  0  0  0  0  0
   62.1083   33.7757   49.5994 H   0  0  0  0  0  0  0  0  0  0  0  0
   61.2420   35.3185   49.1514 H   0  0  0  0  0  0  0  0  0  0  0  0
   60.2314   33.8830   51.0520 H   0  0  0  0  0  0  0  0  0  0  0  0
   59.1404   34.4575   49.7457 H   0  0  0  0  0  0  0  0  0  0  0  0
   59.7247   32.7589   49.7457 H   0  0  0  0  0  0  0  0  0  0  0  0
   59.4092   35.0022   47.6433 H   0  0  0  0  0  0  0  0  0  0  0  0
   60.4821   34.9829   46.1499 H   0  0  0  0  0  0  0  0  0  0  0  0
   58.2039   33.2032   46.9023 H   0  0  0  0  0  0  0  0  0  0  0  0
   58.7531   33.8180   45.2944 H   0  0  0  0  0  0  0  0  0  0  0  0
   60.7990   32.1240   45.8660 H   0  0  0  0  0  0  0  0  0  0  0  0
   58.2734   32.5965   43.9920 H   0  0  0  0  0  0  0  0  0  0  0  0
   56.8263   32.0636   42.0434 H   0  0  0  0  0  0  0  0  0  0  0  0
   55.9338   29.7637   41.7376 H   0  0  0  0  0  0  0  0  0  0  0  0
   56.4088   27.9962   43.4168 H   0  0  0  0  0  0  0  0  0  0  0  0
   57.0042   26.6295   46.6322 H   0  0  0  0  0  0  0  0  0  0  0  0
   56.2296   27.0892   45.0780 H   0  0  0  0  0  0  0  0  0  0  0  0
   57.8387   26.2908   45.0780 H   0  0  0  0  0  0  0  0  0  0  0  0
   58.8580   26.7870   47.8590 H   0  0  0  0  0  0  0  0  0  0  0  0
   60.4339   27.0943   50.0163 H   0  0  0  0  0  0  0  0  0  0  0  0
   61.8467   28.7626   51.2590 H   0  0  0  0  0  0  0  0  0  0  0  0
   62.2242   32.1230   52.4702 H   0  0  0  0  0  0  0  0  0  0  0  0
   62.3228   30.3209   52.3040 H   0  0  0  0  0  0  0  0  0  0  0  0
   64.4872   31.1351   53.0132 H   0  0  0  0  0  0  0  0  0  0  0  0
   64.5611   30.6232   51.2378 H   0  0  0  0  0  0  0  0  0  0  0  0
   63.3916   34.0587   52.2929 H   0  0  0  0  0  0  0  0  0  0  0  0
   64.2089   34.5168   50.7603 H   0  0  0  0  0  0  0  0  0  0  0  0
   62.9566   33.2290   50.7603 H   0  0  0  0  0  0  0  0  0  0  0  0
   65.0222   33.7055   53.4310 H   0  0  0  0  0  0  0  0  0  0  0  0
   66.0719   32.2300   53.2419 H   0  0  0  0  0  0  0  0  0  0  0  0
   66.4648   34.8703   51.7567 H   0  0  0  0  0  0  0  0  0  0  0  0
   67.3854   34.3224   53.2230 H   0  0  0  0  0  0  0  0  0  0  0  0
   68.6347   32.8038   53.3514 H   0  0  0  0  0  0  0  0  0  0  0  0
   68.9679   31.5904   52.0694 H   0  0  0  0  0  0  0  0  0  0  0  0
   69.8415   33.1600   52.0694 H   0  0  0  0  0  0  0  0  0  0  0  0
   68.9775   34.9955   51.0782 H   0  0  0  0  0  0  0  0  0  0  0  0
   69.1753   33.6770   49.8745 H   0  0  0  0  0  0  0  0  0  0  0  0
   67.6829   34.6766   49.8745 H   0  0  0  0  0  0  0  0  0  0  0  0
   67.6859   32.0123   49.7345 H   0  0  0  0  0  0  0  0  0  0  0  0
   67.1527   31.2604   51.3009 H   0  0  0  0  0  0  0  0  0  0  0  0
   65.6402   33.4389   49.7818 H   0  0  0  0  0  0  0  0  0  0  0  0
   65.2585   31.6593   49.7769 H   0  0  0  0  0  0  0  0  0  0  0  0
   60.8778   31.8034   48.2897 H   0  0  0  0  0  0  0  0  0  0  0  0
  1  2  1  0
  2  3  1  0
  3  4  1  0
  4  5  1  0
  3  6  1  0
  6  7  1  0
  7  8  1  0
  8  9  1  0
  9 10  2  0
 10 11  1  0
 11 12  2  0
 12 13  1  0
 13 14  2  0
 14 15  1  0
 15 16  2  0
 16 17  1  0
 16 18  1  0
 18 19  1  0
 19 20  1  0
 20 21  2  0
 21 22  1  0
 22 23  2  0
 23 24  1  0
 24 25  1  0
 25 26  1  0
 26 27  1  0
 27 28  1  0
 27 29  1  0
 29 30  1  0
 30 31  1  0
 31 32  1  0
 31 33  1  0
 31 34  1  0
 34 35  1  0
 23 36  1  0
 36 37  2  0
 37 38  1  0
 38  9  1  0
 15 10  1  0
 38 18  2  0
 37 20  1  0
 35 27  1  0
  1 39  1  0
  1 40  1  0
  1 41  1  0
  2 42  1  0
  2 43  1  0
  3 44  1  0
  4 45  1  0
  4 46  1  0
  5 47  1  0
  5 48  1  0
  5 49  1  0
  6 50  1  0
  6 51  1  0
  7 52  1  0
  7 53  1  0
  8 54  1  0
 11 55  1  0
 12 56  1  0
 13 57  1  0
 14 58  1  0
 17 59  1  0
 17 60  1  0
 17 61  1  0
 19 62  1  0
 21 63  1  0
 22 64  1  0
 25 65  1  0
 25 66  1  0
 26 67  1  0
 26 68  1  0
 28 69  1  0
 28 70  1  0
 28 71  1  0
 29 72  1  0
 29 73  1  0
 30 74  1  0
 30 75  1  0
 32 76  1  0
 32 77  1  0
 32 78  1  0
 33 79  1  0
 33 80  1  0
 33 81  1  0
 34 82  1  0
 34 83  1  0
 35 84  1  0
 35 85  1  0
 36 86  1  0
M  CHG  4   3   1  16   1  27   1  31   1
M  END
>  <UniqueID>  (10) 
10

>  <SMILES>  (10) 
CC[NH+](CC)CCNc1c2ccccc2[n+](C)c2[nH]c3ccc(OCC[N+]4(C)CC[N+](C)(C)CC4)cc3c12

>  <Energy>  (10) 
180.39334573188816

>  <Genealogy>  (10) 
CC[NH+](CC)CCNc1c2ccccc2[n+](C)c2[nH]c3ccc(OCC[N+]4(C)CC[N+](C)(C)CC4)cc3c12 (protonated)
CC[NH+](CC)CCNc1c2ccccc2[n+](C)c2[nH]c3ccc(OCC[N+]4(C)CC[N+](C)(C)CC4)cc3c12 (3D coordinates assigned)
CC[NH+](CC)CCNc1c2ccccc2[n+](C)c2[nH]c3ccc(OCC[N+]4(C)CC[N+](C)(C)CC4)cc3c12 (nonaromatic ring conformer: 180.39334573188816 kcal/mol)

>  <smiles>  (10) 
CCN(CC)CCNc1c2ccccc2[n+](C)c2[nH]c3ccc(OCC[N+]4(C)CC[N+](C)(C)CC4)cc3c12

>  <score_type>  (10) 
oracle

>  <origin>  (10) 
adg

>  <m_score__min__energy>  (10) 
-3.29

>  <m_primary>  (10) 
energy

$$$$
10:0
     RDKit          3D

 66 70  0  0  0  0  0  0  0  0999 V2000
   58.5450   32.3130   49.5420 C   0  0  0  0  0  0  0  0  0  0  0  0
   59.6970   32.6910   50.4820 C   0  0  0  0  0  0  0  0  0  0  0  0
   60.7550   31.6480   50.5260 N   0  0  0  0  0  0  0  0  0  0  0  0
   62.0640   32.2270   50.9700 C   0  0  0  0  0  0  0  0  0  0  0  0
   63.1800   31.1760   50.9720 C   0  0  0  0  0  0  0  0  0  0  0  0
   60.9160   30.9940   49.2010 C   0  0  0  0  0  0  0  0  0  0  0  0
   61.5610   31.9080   48.1300 C   0  0  0  0  0  0  0  0  0  0  0  0
   61.4200   31.3440   46.7820 N   0  0  0  0  0  0  0  0  0  0  0  0
   60.1280   31.0600   46.2200 C   0  0  0  0  0  0  0  0  0  0  0  0
   59.7660   29.7330   45.9250 C   0  0  0  0  0  0  0  0  0  0  0  0
   58.4520   29.4570   45.4750 C   0  0  0  0  0  0  0  0  0  0  0  0
   57.6350   30.4890   45.0660 N   0  0  0  0  0  0  0  0  0  0  0  0
   56.5260   30.2350   44.1270 C   0  0  0  0  0  0  0  0  0  0  0  0
   57.9390   31.7890   45.4160 C   0  0  0  0  0  0  0  0  0  0  0  0
   57.0140   32.8440   45.2190 C   0  0  0  0  0  0  0  0  0  0  0  0
   57.3590   34.1670   45.5030 C   0  0  0  0  0  0  0  0  0  0  0  0
   58.6260   34.4670   45.9910 C   0  0  0  0  0  0  0  0  0  0  0  0
   59.5460   33.4460   46.2250 C   0  0  0  0  0  0  0  0  0  0  0  0
   59.2070   32.0980   45.9780 C   0  0  0  0  0  0  0  0  0  0  0  0
   58.0180   28.0270   45.5250 C   0  0  0  0  0  0  0  0  0  0  0  0
   56.7480   27.5440   45.4670 N   0  0  0  0  0  0  0  0  0  0  0  0
   56.8300   26.2400   45.8010 C   0  0  0  0  0  0  0  0  0  0  0  0
   55.7720   25.3400   45.9500 C   0  0  0  0  0  0  0  0  0  0  0  0
   54.4670   25.7450   45.6340 O   0  0  0  0  0  0  0  0  0  0  0  0
   53.4200   24.8500   45.2710 C   0  0  0  0  0  0  0  0  0  0  0  0
   56.0830   24.0400   46.4200 C   0  0  0  0  0  0  0  0  0  0  0  0
   57.4130   23.6940   46.7430 C   0  0  0  0  0  0  0  0  0  0  0  0
   58.4500   24.6310   46.5960 C   0  0  0  0  0  0  0  0  0  0  0  0
   58.1220   25.8920   46.1050 C   0  0  0  0  0  0  0  0  0  0  0  0
   58.8880   27.0240   45.9330 C   0  0  0  0  0  0  0  0  0  0  0  0
   60.2550   27.2890   46.4750 C   0  0  0  0  0  0  0  0  0  0  0  0
   60.8010   28.6090   45.9200 C   0  0  0  0  0  0  0  0  0  0  0  0
   57.6659   32.0245   50.1370 H   0  0  0  0  0  0  0  0  0  0  0  0
   58.2915   33.1751   48.9075 H   0  0  0  0  0  0  0  0  0  0  0  0
   58.8516   31.4683   48.9075 H   0  0  0  0  0  0  0  0  0  0  0  0
   60.1438   33.6335   50.1326 H   0  0  0  0  0  0  0  0  0  0  0  0
   59.2836   32.7938   51.4962 H   0  0  0  0  0  0  0  0  0  0  0  0
   60.4470   30.9040   51.1980 H   0  0  0  0  0  0  0  0  0  0  0  0
   62.3434   33.0417   50.2857 H   0  0  0  0  0  0  0  0  0  0  0  0
   61.9424   32.5985   51.9982 H   0  0  0  0  0  0  0  0  0  0  0  0
   63.4459   30.9255   52.0096 H   0  0  0  0  0  0  0  0  0  0  0  0
   62.8317   30.2703   50.4539 H   0  0  0  0  0  0  0  0  0  0  0  0
   64.0632   31.5780   50.4539 H   0  0  0  0  0  0  0  0  0  0  0  0
   61.5515   30.1051   49.3274 H   0  0  0  0  0  0  0  0  0  0  0  0
   59.9072   30.7411   48.8426 H   0  0  0  0  0  0  0  0  0  0  0  0
   61.0704   32.8921   48.1583 H   0  0  0  0  0  0  0  0  0  0  0  0
   62.6340   31.9972   48.3550 H   0  0  0  0  0  0  0  0  0  0  0  0
   62.2650   30.9680   46.2980 H   0  0  0  0  0  0  0  0  0  0  0  0
   55.6069   30.0245   44.6935 H   0  0  0  0  0  0  0  0  0  0  0  0
   56.3716   31.1210   43.4937 H   0  0  0  0  0  0  0  0  0  0  0  0
   56.7726   29.3701   43.4937 H   0  0  0  0  0  0  0  0  0  0  0  0
   56.0080   32.6173   44.8362 H   0  0  0  0  0  0  0  0  0  0  0  0
   56.6278   34.9726   45.3405 H   0  0  0  0  0  0  0  0  0  0  0  0
   58.9030   35.5122   46.1929 H   0  0  0  0  0  0  0  0  0  0  0  0
   60.5476   33.6936   46.6065 H   0  0  0  0  0  0  0  0  0  0  0  0
   55.8570   28.0660   45.3280 H   0  0  0  0  0  0  0  0  0  0  0  0
   52.9496   24.4479   46.1804 H   0  0  0  0  0  0  0  0  0  0  0  0
   52.6673   25.3882   44.6761 H   0  0  0  0  0  0  0  0  0  0  0  0
   53.8345   24.0228   44.6761 H   0  0  0  0  0  0  0  0  0  0  0  0
   55.2820   23.2947   46.5341 H   0  0  0  0  0  0  0  0  0  0  0  0
   57.6394   22.6830   47.1127 H   0  0  0  0  0  0  0  0  0  0  0  0
   59.4870   24.3765   46.8602 H   0  0  0  0  0  0  0  0  0  0  0  0
   60.2047   27.3499   47.5722 H   0  0  0  0  0  0  0  0  0  0  0  0
   60.9244   26.4700   46.1731 H   0  0  0  0  0  0  0  0  0  0  0  0
   61.6586   28.9196   46.5348 H   0  0  0  0  0  0  0  0  0  0  0  0
   61.0887   28.4316   44.8732 H   0  0  0  0  0  0  0  0  0  0  0  0
  1  2  1  0
  2  3  1  0
  3  4  1  0
  4  5  1  0
  3  6  1  0
  6  7  1  0
  7  8  1  0
  8  9  1  0
  9 10  2  0
 10 11  1  0
 11 12  2  0
 12 13  1  0
 12 14  1  0
 14 15  2  0
 15 16  1  0
 16 17  2  0
 17 18  1  0
 18 19  2  0
 11 20  1  0
 20 21  1  0
 21 22  1  0
 22 23  2  0
 23 24  1  0
 24 25  1  0
 23 26  1  0
 26 27  2  0
 27 28  1  0
 28 29  2  0
 29 30  1  0
 30 31  1  0
 31 32  1  0
 19  9  1  0
 30 20  2  0
 32 10  1  0
 19 14  1  0
 29 22  1  0
  1 33  1  0
  1 34  1  0
  1 35  1  0
  2 36  1  0
  2 37  1  0
  3 38  1  0
  4 39  1  0
  4 40  1  0
  5 41  1  0
  5 42  1  0
  5 43  1  0
  6 44  1  0
  6 45  1  0
  7 46  1  0
  7 47  1  0
  8 48  1  0
 13 49  1  0
 13 50  1  0
 13 51  1  0
 15 52  1  0
 16 53  1  0
 17 54  1  0
 18 55  1  0
 21 56  1  0
 25 57  1  0
 25 58  1  0
 25 59  1  0
 26 60  1  0
 27 61  1  0
 28 62  1  0
 31 63  1  0
 31 64  1  0
 32 65  1  0
 32 66  1  0
M  CHG  2   3   1  12   1
M  END
>  <UniqueID>  (11) 
11

>  <SMILES>  (11) 
CC[NH+](CC)CCNc1c2c([n+](C)c3ccccc13)-c1[nH]c3c(OC)cccc3c1CC2

>  <Energy>  (11) 
141.7329229398868

>  <Genealogy>  (11) 
CC[NH+](CC)CCNc1c2c([n+](C)c3ccccc13)-c1[nH]c3c(OC)cccc3c1CC2 (protonated)
CC[NH+](CC)CCNc1c2c([n+](C)c3ccccc13)-c1[nH]c3c(OC)cccc3c1CC2 (3D coordinates assigned)
CC[NH+](CC)CCNc1c2c([n+](C)c3ccccc13)-c1[nH]c3c(OC)cccc3c1CC2 (nonaromatic ring conformer: 141.7329229398868 kcal/mol)

>  <smiles>  (11) 
CCN(CC)CCNc1c2c([n+](C)c3ccccc13)-c1[nH]c3c(OC)cccc3c1CC2

>  <score_type>  (11) 
oracle

>  <origin>  (11) 
adg

>  <m_score__min__energy>  (11) 
-5.2699999999999996

>  <m_primary>  (11) 
energy

$$$$
11:0
     RDKit          3D

 52 54  0  0  0  0  0  0  0  0999 V2000
   63.3590   33.7960   46.7430 C   0  0  0  0  0  0  0  0  0  0  0  0
   62.7280   33.2400   47.9540 N   0  0  0  0  0  0  0  0  0  0  0  0
   63.0210   34.1150   49.1000 C   0  0  0  0  0  0  0  0  0  0  0  0
   63.2110   31.8670   48.2210 C   0  0  0  0  0  0  0  0  0  0  0  0
   62.0880   30.8440   47.9930 C   0  0  0  0  0  0  0  0  0  0  0  0
   60.7780   31.4120   48.3560 N   0  0  0  0  0  0  0  0  0  0  0  0
   59.9050   31.4680   47.1940 C   0  0  0  0  0  0  0  0  0  0  0  0
   59.4820   32.7150   46.6560 C   0  0  0  0  0  0  0  0  0  0  0  0
   58.6620   32.7270   45.4930 C   0  0  0  0  0  0  0  0  0  0  0  0
   58.1690   31.5450   44.9800 N   0  0  0  0  0  0  0  0  0  0  0  0
   57.1100   31.5660   43.9500 C   0  0  0  0  0  0  0  0  0  0  0  0
   58.6820   30.3400   45.4020 C   0  0  0  0  0  0  0  0  0  0  0  0
   59.5290   30.2740   46.5250 C   0  0  0  0  0  0  0  0  0  0  0  0
   59.9220   28.8860   47.0150 C   0  0  0  0  0  0  0  0  0  0  0  0
   60.3950   27.9820   45.8640 C   0  0  0  0  0  0  0  0  0  0  0  0
   59.6180   28.1750   44.5470 C   0  0  0  0  0  0  0  0  0  0  0  0
   58.3540   29.0290   44.7010 C   0  0  0  0  0  0  0  0  0  0  0  0
   58.2960   34.0510   44.8340 C   0  0  0  0  0  0  0  0  0  0  0  0
   59.2650   35.1740   45.1800 C   0  0  0  0  0  0  0  0  0  0  0  0
   59.3590   35.2960   46.6890 C   0  0  0  0  0  0  0  0  0  0  0  0
   59.9520   34.0220   47.2950 C   0  0  0  0  0  0  0  0  0  0  0  0
   64.1550   34.4974   47.0334 H   0  0  0  0  0  0  0  0  0  0  0  0
   63.7901   32.9788   46.1460 H   0  0  0  0  0  0  0  0  0  0  0  0
   62.6026   34.3266   46.1460 H   0  0  0  0  0  0  0  0  0  0  0  0
   62.8375   33.5671   50.0360 H   0  0  0  0  0  0  0  0  0  0  0  0
   64.0739   34.4309   49.0604 H   0  0  0  0  0  0  0  0  0  0  0  0
   62.3706   35.0012   49.0604 H   0  0  0  0  0  0  0  0  0  0  0  0
   64.0487   31.6407   47.5449 H   0  0  0  0  0  0  0  0  0  0  0  0
   63.5397   31.8046   49.2689 H   0  0  0  0  0  0  0  0  0  0  0  0
   62.0738   30.5553   46.9317 H   0  0  0  0  0  0  0  0  0  0  0  0
   62.2784   29.9658   48.6274 H   0  0  0  0  0  0  0  0  0  0  0  0
   60.3290   30.8600   49.1210 H   0  0  0  0  0  0  0  0  0  0  0  0
   60.9230   32.3520   48.7800 H   0  0  0  0  0  0  0  0  0  0  0  0
   56.1243   31.5855   44.4379 H   0  0  0  0  0  0  0  0  0  0  0  0
   57.2264   32.4620   43.3226 H   0  0  0  0  0  0  0  0  0  0  0  0
   57.1908   30.6661   43.3226 H   0  0  0  0  0  0  0  0  0  0  0  0
   60.7372   28.9852   47.7468 H   0  0  0  0  0  0  0  0  0  0  0  0
   59.0343   28.4217   47.4693 H   0  0  0  0  0  0  0  0  0  0  0  0
   61.4569   28.1954   45.6722 H   0  0  0  0  0  0  0  0  0  0  0  0
   60.2192   26.9446   46.1849 H   0  0  0  0  0  0  0  0  0  0  0  0
   60.2822   28.6646   43.8196 H   0  0  0  0  0  0  0  0  0  0  0  0
   59.2955   27.1778   44.2130 H   0  0  0  0  0  0  0  0  0  0  0  0
   57.9384   29.2443   43.7055 H   0  0  0  0  0  0  0  0  0  0  0  0
   57.6203   28.4750   45.3050 H   0  0  0  0  0  0  0  0  0  0  0  0
   58.2958   33.9116   43.7429 H   0  0  0  0  0  0  0  0  0  0  0  0
   57.3045   34.3435   45.2099 H   0  0  0  0  0  0  0  0  0  0  0  0
   60.2580   34.9453   44.7657 H   0  0  0  0  0  0  0  0  0  0  0  0
   58.9052   36.1212   44.7517 H   0  0  0  0  0  0  0  0  0  0  0  0
   60.0025   36.1511   46.9434 H   0  0  0  0  0  0  0  0  0  0  0  0
   58.3486   35.4464   47.0969 H   0  0  0  0  0  0  0  0  0  0  0  0
   61.0461   34.0752   47.1947 H   0  0  0  0  0  0  0  0  0  0  0  0
   59.6063   33.9920   48.3388 H   0  0  0  0  0  0  0  0  0  0  0  0
  1  2  1  0
  2  3  1  0
  2  4  1  0
  4  5  1  0
  5  6  1  0
  6  7  1  0
  7  8  2  0
  8  9  1  0
  9 10  2  0
 10 11  1  0
 10 12  1  0
 12 13  2  0
 13 14  1  0
 14 15  1  0
 15 16  1  0
 16 17  1  0
  9 18  1  0
 18 19  1  0
 19 20  1  0
 20 21  1  0
 13  7  1  0
 21  8  1  0
 17 12  1  0
  1 22  1  0
  1 23  1  0
  1 24  1  0
  3 25  1  0
  3 26  1  0
  3 27  1  0
  4 28  1  0
  4 29  1  0
  5 30  1  0
  5 31  1  0
  6 32  1  0
  6 33  1  0
 11 34  1  0
 11 35  1  0
 11 36  1  0
 14 37  1  0
 14 38  1  0
 15 39  1  0
 15 40  1  0
 16 41  1  0
 16 42  1  0
 17 43  1  0
 17 44  1  0
 18 45  1  0
 18 46  1  0
 19 47  1  0
 19 48  1  0
 20 49  1  0
 20 50  1  0
 21 51  1  0
 21 52  1  0
M  CHG  2   6   1  10   1
M  END
>  <UniqueID>  (12) 
12

>  <SMILES>  (12) 
CN(C)CC[NH2+]c1c2c([n+](C)c3c1CCCC3)CCCC2

>  <Energy>  (12) 
71.28797196055191

>  <Genealogy>  (12) 
CN(C)CC[NH2+]c1c2c([n+](C)c3c1CCCC3)CCCC2 (protonated)
CN(C)CC[NH2+]c1c2c([n+](C)c3c1CCCC3)CCCC2 (3D coordinates assigned)
CN(C)CC[NH2+]c1c2c([n+](C)c3c1CCCC3)CCCC2 (nonaromatic ring conformer: 71.28797196055191 kcal/mol)

>  <smiles>  (12) 
CN(C)CCNc1c2c([n+](C)c3c1CCCC3)CCCC2

>  <score_type>  (12) 
oracle

>  <origin>  (12) 
adg

>  <m_score__min__energy>  (12) 
-4.0700000000000003

>  <m_primary>  (12) 
energy

$$$$
12:0
     RDKit          3D

 65 67  0  0  0  0  0  0  0  0999 V2000
   62.2040   33.5180   49.2110 C   0  0  0  0  0  0  0  0  0  0  0  0
   62.1980   32.6870   47.9970 N   0  0  0  0  0  0  0  0  0  0  0  0
   63.3020   33.0530   47.0950 C   0  0  0  0  0  0  0  0  0  0  0  0
   62.1490   31.2370   48.2890 C   0  0  0  0  0  0  0  0  0  0  0  0
   61.6170   30.8920   49.6950 C   0  0  0  0  0  0  0  0  0  0  0  0
   61.0830   29.4570   49.7420 C   0  0  0  0  0  0  0  0  0  0  0  0
   59.6450   29.4320   49.4670 N   0  0  0  0  0  0  0  0  0  0  0  0
   59.0690   29.3510   48.1480 C   0  0  0  0  0  0  0  0  0  0  0  0
   58.8950   28.0910   47.5570 C   0  0  0  0  0  0  0  0  0  0  0  0
   58.6180   27.9740   46.2040 C   0  0  0  0  0  0  0  0  0  0  0  0
   58.5190   29.1080   45.4120 C   0  0  0  0  0  0  0  0  0  0  0  0
   58.6140   30.4060   45.9700 C   0  0  0  0  0  0  0  0  0  0  0  0
   58.8550   30.5300   47.3690 C   0  0  0  0  0  0  0  0  0  0  0  0
   58.8500   31.8240   47.9520 C   0  0  0  0  0  0  0  0  0  0  0  0
   58.4390   31.9550   49.3360 N   0  0  0  0  0  0  0  0  0  0  0  0
   58.9950   32.8940   50.3190 C   0  0  0  0  0  0  0  0  0  0  0  0
   58.5230   32.5490   51.7380 C   0  0  0  0  0  0  0  0  0  0  0  0
   58.6650   31.0490   52.0330 C   0  0  0  0  0  0  0  0  0  0  0  0
   57.4510   30.3090   51.6220 N   0  0  0  0  0  0  0  0  0  0  0  0
   56.2860   31.2080   51.6480 C   0  0  0  0  0  0  0  0  0  0  0  0
   57.1990   29.1580   52.5090 C   0  0  0  0  0  0  0  0  0  0  0  0
   58.9640   32.9520   47.0950 C   0  0  0  0  0  0  0  0  0  0  0  0
   59.1980   34.2590   47.5810 C   0  0  0  0  0  0  0  0  0  0  0  0
   59.3540   35.3370   46.7130 C   0  0  0  0  0  0  0  0  0  0  0  0
   59.2930   35.1430   45.3420 C   0  0  0  0  0  0  0  0  0  0  0  0
   59.0420   33.8740   44.8300 C   0  0  0  0  0  0  0  0  0  0  0  0
   58.8310   32.7660   45.6890 C   0  0  0  0  0  0  0  0  0  0  0  0
   58.4820   31.5310   45.1840 N   0  0  0  0  0  0  0  0  0  0  0  0
   57.9520   31.4190   43.8050 C   0  0  0  0  0  0  0  0  0  0  0  0
   62.1993   32.8693   50.0994 H   0  0  0  0  0  0  0  0  0  0  0  0
   63.1067   34.1465   49.2207 H   0  0  0  0  0  0  0  0  0  0  0  0
   61.3105   34.1595   49.2207 H   0  0  0  0  0  0  0  0  0  0  0  0
   64.1803   33.3442   47.6898 H   0  0  0  0  0  0  0  0  0  0  0  0
   63.5580   32.1917   46.4605 H   0  0  0  0  0  0  0  0  0  0  0  0
   62.9928   33.8967   46.4605 H   0  0  0  0  0  0  0  0  0  0  0  0
   61.4951   30.7575   47.5457 H   0  0  0  0  0  0  0  0  0  0  0  0
   63.1853   30.8709   48.2449 H   0  0  0  0  0  0  0  0  0  0  0  0
   62.4338   30.9961   50.4244 H   0  0  0  0  0  0  0  0  0  0  0  0
   60.7942   31.5807   49.9376 H   0  0  0  0  0  0  0  0  0  0  0  0
   61.6059   28.8519   48.9867 H   0  0  0  0  0  0  0  0  0  0  0  0
   61.2586   29.0464   50.7473 H   0  0  0  0  0  0  0  0  0  0  0  0
   58.9980   29.5660   50.2760 H   0  0  0  0  0  0  0  0  0  0  0  0
   58.9794   27.1847   48.1747 H   0  0  0  0  0  0  0  0  0  0  0  0
   58.4763   26.9789   45.7572 H   0  0  0  0  0  0  0  0  0  0  0  0
   58.3636   28.9970   44.3287 H   0  0  0  0  0  0  0  0  0  0  0  0
   57.7530   31.2470   49.6830 H   0  0  0  0  0  0  0  0  0  0  0  0
   60.0933   32.8437   50.2831 H   0  0  0  0  0  0  0  0  0  0  0  0
   58.6471   33.9076   50.0709 H   0  0  0  0  0  0  0  0  0  0  0  0
   59.1280   33.1139   52.4625 H   0  0  0  0  0  0  0  0  0  0  0  0
   57.4592   32.8162   51.8207 H   0  0  0  0  0  0  0  0  0  0  0  0
   59.5307   30.6544   51.4808 H   0  0  0  0  0  0  0  0  0  0  0  0
   58.8052   30.9172   53.1160 H   0  0  0  0  0  0  0  0  0  0  0  0
   56.0103   31.4208   52.6914 H   0  0  0  0  0  0  0  0  0  0  0  0
   56.5372   32.1486   51.1360 H   0  0  0  0  0  0  0  0  0  0  0  0
   55.4398   30.7265   51.1360 H   0  0  0  0  0  0  0  0  0  0  0  0
   57.2698   29.4811   53.5581 H   0  0  0  0  0  0  0  0  0  0  0  0
   56.1923   28.7593   52.3152 H   0  0  0  0  0  0  0  0  0  0  0  0
   57.9470   28.3751   52.3152 H   0  0  0  0  0  0  0  0  0  0  0  0
   59.2580   34.4278   48.6663 H   0  0  0  0  0  0  0  0  0  0  0  0
   59.5262   36.3456   47.1169 H   0  0  0  0  0  0  0  0  0  0  0  0
   59.4430   35.9921   44.6590 H   0  0  0  0  0  0  0  0  0  0  0  0
   59.0067   33.7278   43.7403 H   0  0  0  0  0  0  0  0  0  0  0  0
   56.8764   31.1917   43.8429 H   0  0  0  0  0  0  0  0  0  0  0  0
   58.1074   32.3698   43.2741 H   0  0  0  0  0  0  0  0  0  0  0  0
   58.4787   30.6123   43.2741 H   0  0  0  0  0  0  0  0  0  0  0  0
  1  2  1  0
  2  3  1  0
  2  4  1  0
  4  5  1  0
  5  6  1  0
  6  7  1  0
  7  8  1  0
  8  9  2  0
  9 10  1  0
 10 11  2  0
 11 12  1  0
 12 13  2  0
 13 14  1  0
 14 15  1  0
 15 16  1  0
 16 17  1  0
 17 18  1  0
 18 19  1  0
 19 20  1  0
 19 21  1  0
 14 22  2  0
 22 23  1  0
 23 24  2  0
 24 25  1  0
 25 26  2  0
 26 27  1  0
 27 28  2  0
 28 29  1  0
 13  8  1  0
 27 22  1  0
 28 12  1  0
  1 30  1  0
  1 31  1  0
  1 32  1  0
  3 33  1  0
  3 34  1  0
  3 35  1  0
  4 36  1  0
  4 37  1  0
  5 38  1  0
  5 39  1  0
  6 40  1  0
  6 41  1  0
  7 42  1  0
  9 43  1  0
 10 44  1  0
 11 45  1  0
 15 46  1  0
 16 47  1  0
 16 48  1  0
 17 49  1  0
 17 50  1  0
 18 51  1  0
 18 52  1  0
 20 53  1  0
 20 54  1  0
 20 55  1  0
 21 56  1  0
 21 57  1  0
 21 58  1  0
 23 59  1  0
 24 60  1  0
 25 61  1  0
 26 62  1  0
 29 63  1  0
 29 64  1  0
 29 65  1  0
M  CHG  1  28   1
M  END
>  <UniqueID>  (13) 
13

>  <SMILES>  (13) 
CN(C)CCCNc1cccc2c1c(NCCCN(C)C)c1ccccc1[n+]2C

>  <Energy>  (13) 
101.57574077949081

>  <Genealogy>  (13) 
CN(C)CCCNc1cccc2c1c(NCCCN(C)C)c1ccccc1[n+]2C (3D coordinates assigned)
CN(C)CCCNc1cccc2c1c(NCCCN(C)C)c1ccccc1[n+]2C (optimized conformer: 101.57574077949081 kcal/mol)

>  <smiles>  (13) 
CN(C)CCCNc1cccc2c1c(NCCCN(C)C)c1ccccc1[n+]2C

>  <score_type>  (13) 
oracle

>  <origin>  (13) 
adg

>  <m_score__min__energy>  (13) 
-5.29

>  <m_primary>  (13) 
energy

$$$$
13:0
     RDKit          3D

 48 51  0  0  0  0  0  0  0  0999 V2000
   58.5800   31.4720   50.1270 C   0  0  0  0  0  0  0  0  0  0  0  0
   59.3070   30.2040   49.8110 C   0  0  0  0  0  0  0  0  0  0  0  0
   59.8430   29.3900   50.7410 N   0  0  0  0  0  0  0  0  0  0  0  0
   60.4320   28.3800   50.1240 N   0  0  0  0  0  0  0  0  0  0  0  0
   61.0690   27.2580   50.8020 C   0  0  0  0  0  0  0  0  0  0  0  0
   60.2750   28.5120   48.7930 C   0  0  0  0  0  0  0  0  0  0  0  0
   59.5590   29.6750   48.5500 C   0  0  0  0  0  0  0  0  0  0  0  0
   59.1960   30.2590   47.2400 C   0  0  0  0  0  0  0  0  0  0  0  0
   58.3040   29.5920   46.4580 N   0  0  0  0  0  0  0  0  0  0  0  0
   57.8820   30.0880   45.2670 C   0  0  0  0  0  0  0  0  0  0  0  0
   56.9620   29.3830   44.4850 C   0  0  0  0  0  0  0  0  0  0  0  0
   56.5340   29.9160   43.2640 C   0  0  0  0  0  0  0  0  0  0  0  0
   57.0240   31.1520   42.8260 C   0  0  0  0  0  0  0  0  0  0  0  0
   57.9440   31.8610   43.6060 C   0  0  0  0  0  0  0  0  0  0  0  0
   58.3740   31.3300   44.8280 C   0  0  0  0  0  0  0  0  0  0  0  0
   59.2740   31.9960   45.5930 N   0  0  0  0  0  0  0  0  0  0  0  0
   59.7100   31.4980   46.7830 C   0  0  0  0  0  0  0  0  0  0  0  0
   60.7180   32.2190   47.5090 N   0  0  0  0  0  0  0  0  0  0  0  0
   62.0070   31.5620   47.7940 C   0  0  0  0  0  0  0  0  0  0  0  0
   63.1970   32.2850   47.1360 C   0  0  0  0  0  0  0  0  0  0  0  0
   63.3010   33.7880   47.4410 C   0  0  0  0  0  0  0  0  0  0  0  0
   62.7820   34.1860   48.8340 C   0  0  0  0  0  0  0  0  0  0  0  0
   61.2470   34.1780   49.0100 C   0  0  0  0  0  0  0  0  0  0  0  0
   60.4730   33.6470   47.7910 C   0  0  0  0  0  0  0  0  0  0  0  0
   58.5107   31.5928   51.2182 H   0  0  0  0  0  0  0  0  0  0  0  0
   59.1264   32.3247   49.6976 H   0  0  0  0  0  0  0  0  0  0  0  0
   57.5681   31.4312   49.6976 H   0  0  0  0  0  0  0  0  0  0  0  0
   59.8060   29.5200   51.7770 H   0  0  0  0  0  0  0  0  0  0  0  0
   60.9911   27.3953   51.8906 H   0  0  0  0  0  0  0  0  0  0  0  0
   60.5673   26.3225   50.5135 H   0  0  0  0  0  0  0  0  0  0  0  0
   62.1294   27.2094   50.5135 H   0  0  0  0  0  0  0  0  0  0  0  0
   60.6507   27.8160   48.0285 H   0  0  0  0  0  0  0  0  0  0  0  0
   56.5757   28.4121   44.8286 H   0  0  0  0  0  0  0  0  0  0  0  0
   55.8109   29.3625   42.6470 H   0  0  0  0  0  0  0  0  0  0  0  0
   56.6846   31.5671   41.8655 H   0  0  0  0  0  0  0  0  0  0  0  0
   58.3281   32.8321   43.2604 H   0  0  0  0  0  0  0  0  0  0  0  0
   62.1619   31.5471   48.8829 H   0  0  0  0  0  0  0  0  0  0  0  0
   61.9626   30.5450   47.3772 H   0  0  0  0  0  0  0  0  0  0  0  0
   64.1224   31.8026   47.4837 H   0  0  0  0  0  0  0  0  0  0  0  0
   63.0399   32.2045   46.0503 H   0  0  0  0  0  0  0  0  0  0  0  0
   64.3585   34.0821   47.3698 H   0  0  0  0  0  0  0  0  0  0  0  0
   62.6649   34.3044   46.7071 H   0  0  0  0  0  0  0  0  0  0  0  0
   63.2088   33.4843   49.5658 H   0  0  0  0  0  0  0  0  0  0  0  0
   63.0929   35.2310   48.9800 H   0  0  0  0  0  0  0  0  0  0  0  0
   61.0028   33.5449   49.8757 H   0  0  0  0  0  0  0  0  0  0  0  0
   60.9400   35.2254   49.1464 H   0  0  0  0  0  0  0  0  0  0  0  0
   59.3974   33.7851   47.9754 H   0  0  0  0  0  0  0  0  0  0  0  0
   60.8245   34.2126   46.9155 H   0  0  0  0  0  0  0  0  0  0  0  0
  1  2  1  0
  2  3  2  0
  3  4  1  0
  4  5  1  0
  4  6  1  0
  6  7  2  0
  7  8  1  0
  8  9  2  0
  9 10  1  0
 10 11  2  0
 11 12  1  0
 12 13  2  0
 13 14  1  0
 14 15  2  0
 15 16  1  0
 16 17  2  0
 17 18  1  0
 18 19  1  0
 19 20  1  0
 20 21  1  0
 21 22  1  0
 22 23  1  0
 23 24  1  0
  7  2  1  0
 17  8  1  0
 24 18  1  0
 15 10  1  0
  1 25  1  0
  1 26  1  0
  1 27  1  0
  3 28  1  0
  5 29  1  0
  5 30  1  0
  5 31  1  0
  6 32  1  0
 11 33  1  0
 12 34  1  0
 13 35  1  0
 14 36  1  0
 19 37  1  0
 19 38  1  0
 20 39  1  0
 20 40  1  0
 21 41  1  0
 21 42  1  0
 22 43  1  0
 22 44  1  0
 23 45  1  0
 23 46  1  0
 24 47  1  0
 24 48  1  0
M  CHG  1   3   1
M  END
>  <UniqueID>  (14) 
14

>  <SMILES>  (14) 
Cc1[nH+]n(C)cc1-c1nc2ccccc2nc1N1CCCCCC1

>  <Energy>  (14) 
95.25947163691667

>  <Genealogy>  (14) 
Cc1[nH+]n(C)cc1-c1nc2ccccc2nc1N1CCCCCC1 (protonated)
Cc1[nH+]n(C)cc1-c1nc2ccccc2nc1N1CCCCCC1 (3D coordinates assigned)
Cc1[nH+]n(C)cc1-c1nc2ccccc2nc1N1CCCCCC1 (nonaromatic ring conformer: 95.25947163691667 kcal/mol)

>  <smiles>  (14) 
Cc1nn(C)cc1-c1nc2ccccc2nc1N1CCCCCC1

>  <score_type>  (14) 
oracle

>  <origin>  (14) 
adg

>  <m_score__min__energy>  (14) 
-4.3300000000000001

>  <m_primary>  (14) 
energy

$$$$
14:0
     RDKit          3D

 78 82  0  0  0  0  0  0  0  0999 V2000
   63.3070   33.6960   50.2120 C   0  0  0  0  0  0  0  0  0  0  0  0
   63.0290   32.4300   49.5100 N   0  0  0  0  0  0  0  0  0  0  0  0
   63.4900   31.2910   50.3230 C   0  0  0  0  0  0  0  0  0  0  0  0
   63.6680   32.4330   48.1770 C   0  0  0  0  0  0  0  0  0  0  0  0
   62.8210   31.6920   47.1270 C   0  0  0  0  0  0  0  0  0  0  0  0
   61.5840   31.1340   47.6910 N   0  0  0  0  0  0  0  0  0  0  0  0
   60.3240   31.1500   46.9800 C   0  0  0  0  0  0  0  0  0  0  0  0
   59.8910   29.9880   46.3180 C   0  0  0  0  0  0  0  0  0  0  0  0
   60.3610   28.7200   46.7210 C   0  0  0  0  0  0  0  0  0  0  0  0
   60.0200   27.5760   46.0040 C   0  0  0  0  0  0  0  0  0  0  0  0
   59.2000   27.6760   44.8880 C   0  0  0  0  0  0  0  0  0  0  0  0
   58.6810   28.9130   44.5020 C   0  0  0  0  0  0  0  0  0  0  0  0
   58.9810   30.0920   45.2340 C   0  0  0  0  0  0  0  0  0  0  0  0
   58.4560   31.3240   44.8860 N   0  0  0  0  0  0  0  0  0  0  0  0
   57.3640   31.4030   43.8910 C   0  0  0  0  0  0  0  0  0  0  0  0
   58.9110   32.4730   45.5030 C   0  0  0  0  0  0  0  0  0  0  0  0
   58.6460   33.7570   44.9670 C   0  0  0  0  0  0  0  0  0  0  0  0
   59.0630   34.9060   45.6230 C   0  0  0  0  0  0  0  0  0  0  0  0
   59.6780   34.8170   46.8660 C   0  0  0  0  0  0  0  0  0  0  0  0
   59.9630   33.5690   47.4230 C   0  0  0  0  0  0  0  0  0  0  0  0
   60.3350   33.5230   48.8080 N   0  0  0  0  0  0  0  0  0  0  0  0
   59.6400   34.3660   49.7890 C   0  0  0  0  0  0  0  0  0  0  0  0
   59.7450   33.8180   51.2210 C   0  0  0  0  0  0  0  0  0  0  0  0
   58.4340   33.2140   51.7310 C   0  0  0  0  0  0  0  0  0  0  0  0
   58.1490   32.0010   51.0390 O   0  0  0  0  0  0  0  0  0  0  0  0
   58.8870   30.8050   51.1100 C   0  0  0  0  0  0  0  0  0  0  0  0
   59.8300   30.4510   50.1240 C   0  0  0  0  0  0  0  0  0  0  0  0
   60.5550   29.2660   50.2320 C   0  0  0  0  0  0  0  0  0  0  0  0
   60.3550   28.4190   51.3200 C   0  0  0  0  0  0  0  0  0  0  0  0
   59.4170   28.7480   52.2980 C   0  0  0  0  0  0  0  0  0  0  0  0
   58.6640   29.9310   52.1990 C   0  0  0  0  0  0  0  0  0  0  0  0
   57.7120   30.2890   53.3250 C   0  0  0  0  0  0  0  0  0  0  0  0
   56.3000   30.0760   52.9590 N   0  0  0  0  0  0  0  0  0  0  0  0
   55.6600   28.9220   53.3340 C   0  0  0  0  0  0  0  0  0  0  0  0
   54.3230   28.7070   52.9910 C   0  0  0  0  0  0  0  0  0  0  0  0
   53.6420   29.6710   52.2500 C   0  0  0  0  0  0  0  0  0  0  0  0
   54.3020   30.8360   51.8570 C   0  0  0  0  0  0  0  0  0  0  0  0
   55.6410   31.0210   52.2160 C   0  0  0  0  0  0  0  0  0  0  0  0
   59.7150   32.3890   46.6710 C   0  0  0  0  0  0  0  0  0  0  0  0
   63.2702   33.5285   51.2986 H   0  0  0  0  0  0  0  0  0  0  0  0
   64.3064   34.0595   49.9307 H   0  0  0  0  0  0  0  0  0  0  0  0
   62.5519   34.4448   49.9307 H   0  0  0  0  0  0  0  0  0  0  0  0
   63.3900   31.5380   51.3902 H   0  0  0  0  0  0  0  0  0  0  0  0
   62.8795   30.4053   50.0929 H   0  0  0  0  0  0  0  0  0  0  0  0
   64.5446   31.0793   50.0929 H   0  0  0  0  0  0  0  0  0  0  0  0
   63.8045   33.4748   47.8515 H   0  0  0  0  0  0  0  0  0  0  0  0
   64.6329   31.9118   48.2628 H   0  0  0  0  0  0  0  0  0  0  0  0
   62.5560   32.3979   46.3260 H   0  0  0  0  0  0  0  0  0  0  0  0
   63.4217   30.8531   46.7458 H   0  0  0  0  0  0  0  0  0  0  0  0
   61.6190   30.9160   48.7050 H   0  0  0  0  0  0  0  0  0  0  0  0
   61.0030   28.6344   47.6101 H   0  0  0  0  0  0  0  0  0  0  0  0
   60.4000   26.5938   46.3215 H   0  0  0  0  0  0  0  0  0  0  0  0
   58.9580   26.7753   44.3047 H   0  0  0  0  0  0  0  0  0  0  0  0
   58.0299   28.9753   43.6176 H   0  0  0  0  0  0  0  0  0  0  0  0
   56.3977   31.4729   44.4119 H   0  0  0  0  0  0  0  0  0  0  0  0
   57.5060   32.2932   43.2606 H   0  0  0  0  0  0  0  0  0  0  0  0
   57.3764   30.5016   43.2606 H   0  0  0  0  0  0  0  0  0  0  0  0
   58.1009   33.8445   44.0155 H   0  0  0  0  0  0  0  0  0  0  0  0
   58.9064   35.8905   45.1579 H   0  0  0  0  0  0  0  0  0  0  0  0
   59.9414   35.7340   47.4135 H   0  0  0  0  0  0  0  0  0  0  0  0
   61.3160   33.2280   49.0260 H   0  0  0  0  0  0  0  0  0  0  0  0
   60.0823   35.3729   49.7641 H   0  0  0  0  0  0  0  0  0  0  0  0
   58.5743   34.3834   49.5169 H   0  0  0  0  0  0  0  0  0  0  0  0
   60.5208   33.0384   51.2414 H   0  0  0  0  0  0  0  0  0  0  0  0
   59.9937   34.6642   51.8784 H   0  0  0  0  0  0  0  0  0  0  0  0
   58.5243   33.0057   52.8073 H   0  0  0  0  0  0  0  0  0  0  0  0
   57.6167   33.9287   51.5541 H   0  0  0  0  0  0  0  0  0  0  0  0
   59.9948   31.1152   49.2628 H   0  0  0  0  0  0  0  0  0  0  0  0
   61.2873   28.9985   49.4560 H   0  0  0  0  0  0  0  0  0  0  0  0
   60.9375   27.4900   51.4076 H   0  0  0  0  0  0  0  0  0  0  0  0
   59.2648   28.0755   53.1551 H   0  0  0  0  0  0  0  0  0  0  0  0
   57.9482   29.6640   54.1989 H   0  0  0  0  0  0  0  0  0  0  0  0
   57.8425   31.3586   53.5460 H   0  0  0  0  0  0  0  0  0  0  0  0
   56.2045   28.1592   53.9099 H   0  0  0  0  0  0  0  0  0  0  0  0
   53.8119   27.7843   53.3032 H   0  0  0  0  0  0  0  0  0  0  0  0
   52.5883   29.5142   51.9760 H   0  0  0  0  0  0  0  0  0  0  0  0
   53.7739   31.6019   51.2701 H   0  0  0  0  0  0  0  0  0  0  0  0
   56.1697   31.9322   51.8996 H   0  0  0  0  0  0  0  0  0  0  0  0
  1  2  1  0
  2  3  1  0
  2  4  1  0
  4  5  1  0
  5  6  1  0
  6  7  1  0
  7  8  2  0
  8  9  1  0
  9 10  2  0
 10 11  1  0
 11 12  2  0
 12 13  1  0
 13 14  2  0
 14 15  1  0
 14 16  1  0
 16 17  2  0
 17 18  1  0
 18 19  2  0
 19 20  1  0
 20 21  1  0
 21 22  1  0
 22 23  1  0
 23 24  1  0
 24 25  1  0
 25 26  1  0
 26 27  2  0
 27 28  1  0
 28 29  2  0
 29 30  1  0
 30 31  2  0
 31 32  1  0
 32 33  1  0
 33 34  2  0
 34 35  1  0
 35 36  2  0
 36 37  1  0
 37 38  2  0
 20 39  2  0
 39  7  1  0
 13  8  1  0
 39 16  1  0
 31 26  1  0
 38 33  1  0
  1 40  1  0
  1 41  1  0
  1 42  1  0
  3 43  1  0
  3 44  1  0
  3 45  1  0
  4 46  1  0
  4 47  1  0
  5 48  1  0
  5 49  1  0
  6 50  1  0
  9 51  1  0
 10 52  1  0
 11 53  1  0
 12 54  1  0
 15 55  1  0
 15 56  1  0
 15 57  1  0
 17 58  1  0
 18 59  1  0
 19 60  1  0
 21 61  1  0
 22 62  1  0
 22 63  1  0
 23 64  1  0
 23 65  1  0
 24 66  1  0
 24 67  1  0
 27 68  1  0
 28 69  1  0
 29 70  1  0
 30 71  1  0
 32 72  1  0
 32 73  1  0
 34 74  1  0
 35 75  1  0
 36 76  1  0
 37 77  1  0
 38 78  1  0
M  CHG  2  14   1  33   1
M  END
>  <UniqueID>  (15) 
15

>  <SMILES>  (15) 
CN(C)CCNc1c2ccccc2[n+](C)c2cccc(NCCCOc3ccccc3C[n+]3ccccc3)c12

>  <Energy>  (15) 
121.51010940708152

>  <Genealogy>  (15) 
CN(C)CCNc1c2ccccc2[n+](C)c2cccc(NCCCOc3ccccc3C[n+]3ccccc3)c12 (3D coordinates assigned)
CN(C)CCNc1c2ccccc2[n+](C)c2cccc(NCCCOc3ccccc3C[n+]3ccccc3)c12 (optimized conformer: 121.51010940708152 kcal/mol)

>  <smiles>  (15) 
CN(C)CCNc1c2ccccc2[n+](C)c2cccc(NCCCOc3ccccc3C[n+]3ccccc3)c12

>  <score_type>  (15) 
oracle

>  <origin>  (15) 
adg

>  <m_score__min__energy>  (15) 
-5.79

>  <m_primary>  (15) 
energy

$$$$
15:0
     RDKit          3D

 81 84  0  0  0  0  0  0  0  0999 V2000
   61.2740   28.4220   51.5950 C   0  0  0  0  0  0  0  0  0  0  0  0
   60.7710   28.1860   50.1620 C   0  0  0  0  0  0  0  0  0  0  0  0
   60.0530   29.3450   49.5830 N   0  0  0  0  0  0  0  0  0  0  0  0
   59.2590   30.0790   50.5910 C   0  0  0  0  0  0  0  0  0  0  0  0
   58.5590   31.2820   49.9660 C   0  0  0  0  0  0  0  0  0  0  0  0
   59.2830   28.9930   48.3650 C   0  0  0  0  0  0  0  0  0  0  0  0
   60.2320   28.5870   47.2330 C   0  0  0  0  0  0  0  0  0  0  0  0
   60.6980   29.7570   46.4850 N   0  0  0  0  0  0  0  0  0  0  0  0
   59.7870   30.8080   46.1240 C   0  0  0  0  0  0  0  0  0  0  0  0
   58.7290   30.5160   45.2450 C   0  0  0  0  0  0  0  0  0  0  0  0
   58.6130   29.2380   44.6580 C   0  0  0  0  0  0  0  0  0  0  0  0
   57.5300   28.9220   43.8430 C   0  0  0  0  0  0  0  0  0  0  0  0
   56.5400   29.8680   43.6070 C   0  0  0  0  0  0  0  0  0  0  0  0
   56.6490   31.1470   44.1500 C   0  0  0  0  0  0  0  0  0  0  0  0
   57.7680   31.5130   44.9440 C   0  0  0  0  0  0  0  0  0  0  0  0
   57.9250   32.7940   45.4310 N   0  0  0  0  0  0  0  0  0  0  0  0
   57.0930   33.8940   44.8870 C   0  0  0  0  0  0  0  0  0  0  0  0
   58.8810   33.0610   46.3940 C   0  0  0  0  0  0  0  0  0  0  0  0
   58.8810   34.2880   47.1010 C   0  0  0  0  0  0  0  0  0  0  0  0
   59.8790   34.5930   48.0140 C   0  0  0  0  0  0  0  0  0  0  0  0
   60.9030   33.6940   48.2580 C   0  0  0  0  0  0  0  0  0  0  0  0
   60.9270   32.4400   47.6220 C   0  0  0  0  0  0  0  0  0  0  0  0
   61.9770   31.5360   47.8690 O   0  0  0  0  0  0  0  0  0  0  0  0
   63.3480   31.7130   47.5070 C   0  0  0  0  0  0  0  0  0  0  0  0
   63.9350   32.9510   48.2270 C   0  0  0  0  0  0  0  0  0  0  0  0
   64.2460   32.7630   49.6820 N   0  0  0  0  0  0  0  0  0  0  0  0
   65.7220   32.7270   49.8710 C   0  0  0  0  0  0  0  0  0  0  0  0
   63.6940   31.4340   50.1150 C   0  0  0  0  0  0  0  0  0  0  0  0
   62.2770   31.5470   50.7110 C   0  0  0  0  0  0  0  0  0  0  0  0
   62.2550   32.3850   51.9520 N   0  0  0  0  0  0  0  0  0  0  0  0
   60.9170   33.0150   52.0800 C   0  0  0  0  0  0  0  0  0  0  0  0
   62.4660   31.5230   53.1400 C   0  0  0  0  0  0  0  0  0  0  0  0
   63.3100   33.4490   51.9270 C   0  0  0  0  0  0  0  0  0  0  0  0
   63.6600   33.8830   50.4910 C   0  0  0  0  0  0  0  0  0  0  0  0
   59.8800   32.0930   46.7150 C   0  0  0  0  0  0  0  0  0  0  0  0
   60.5186   28.0676   52.3118 H   0  0  0  0  0  0  0  0  0  0  0  0
   62.2132   27.8706   51.7494 H   0  0  0  0  0  0  0  0  0  0  0  0
   61.4502   29.4968   51.7494 H   0  0  0  0  0  0  0  0  0  0  0  0
   61.6373   27.9600   49.5230 H   0  0  0  0  0  0  0  0  0  0  0  0
   60.0531   27.3537   50.2070 H   0  0  0  0  0  0  0  0  0  0  0  0
   58.5021   29.4026   51.0148 H   0  0  0  0  0  0  0  0  0  0  0  0
   59.9383   30.4388   51.3778 H   0  0  0  0  0  0  0  0  0  0  0  0
   58.1771   31.9383   50.7619 H   0  0  0  0  0  0  0  0  0  0  0  0
   59.2739   31.8392   49.3428 H   0  0  0  0  0  0  0  0  0  0  0  0
   57.7213   30.9358   49.3428 H   0  0  0  0  0  0  0  0  0  0  0  0
   58.6093   28.1536   48.5919 H   0  0  0  0  0  0  0  0  0  0  0  0
   58.7000   29.8693   48.0453 H   0  0  0  0  0  0  0  0  0  0  0  0
   61.1008   28.0669   47.6627 H   0  0  0  0  0  0  0  0  0  0  0  0
   59.6867   27.9273   46.5421 H   0  0  0  0  0  0  0  0  0  0  0  0
   61.7230   29.9470   46.4160 H   0  0  0  0  0  0  0  0  0  0  0  0
   59.3888   28.4815   44.8471 H   0  0  0  0  0  0  0  0  0  0  0  0
   57.4578   27.9240   43.3860 H   0  0  0  0  0  0  0  0  0  0  0  0
   55.6677   29.6067   42.9898 H   0  0  0  0  0  0  0  0  0  0  0  0
   55.8554   31.8848   43.9605 H   0  0  0  0  0  0  0  0  0  0  0  0
   56.6577   34.4695   45.7172 H   0  0  0  0  0  0  0  0  0  0  0  0
   57.7183   34.5561   44.2701 H   0  0  0  0  0  0  0  0  0  0  0  0
   56.2857   33.4725   44.2701 H   0  0  0  0  0  0  0  0  0  0  0  0
   58.0735   35.0133   46.9224 H   0  0  0  0  0  0  0  0  0  0  0  0
   59.8569   35.5548   48.5474 H   0  0  0  0  0  0  0  0  0  0  0  0
   61.7076   33.9638   48.9578 H   0  0  0  0  0  0  0  0  0  0  0  0
   63.9190   30.8189   47.7977 H   0  0  0  0  0  0  0  0  0  0  0  0
   63.4156   31.8644   46.4196 H   0  0  0  0  0  0  0  0  0  0  0  0
   64.8671   33.2312   47.7144 H   0  0  0  0  0  0  0  0  0  0  0  0
   63.1550   33.7253   48.1819 H   0  0  0  0  0  0  0  0  0  0  0  0
   65.9539   32.7213   50.9463 H   0  0  0  0  0  0  0  0  0  0  0  0
   66.1295   31.8186   49.4032 H   0  0  0  0  0  0  0  0  0  0  0  0
   66.1733   33.6144   49.4032 H   0  0  0  0  0  0  0  0  0  0  0  0
   63.6567   30.7664   49.2415 H   0  0  0  0  0  0  0  0  0  0  0  0
   64.3552   31.0381   50.8999 H   0  0  0  0  0  0  0  0  0  0  0  0
   61.6124   32.0033   49.9626 H   0  0  0  0  0  0  0  0  0  0  0  0
   61.9395   30.5349   50.9787 H   0  0  0  0  0  0  0  0  0  0  0  0
   60.6674   33.1325   53.1448 H   0  0  0  0  0  0  0  0  0  0  0  0
   60.9286   34.0022   51.5950 H   0  0  0  0  0  0  0  0  0  0  0  0
   60.1634   32.3771   51.5950 H   0  0  0  0  0  0  0  0  0  0  0  0
   62.3206   32.1169   54.0544 H   0  0  0  0  0  0  0  0  0  0  0  0
   61.7446   30.6928   53.1234 H   0  0  0  0  0  0  0  0  0  0  0  0
   63.4893   31.1199   53.1234 H   0  0  0  0  0  0  0  0  0  0  0  0
   62.9441   34.3247   52.4832 H   0  0  0  0  0  0  0  0  0  0  0  0
   64.2194   33.0357   52.3876 H   0  0  0  0  0  0  0  0  0  0  0  0
   62.7435   34.2352   49.9950 H   0  0  0  0  0  0  0  0  0  0  0  0
   64.4148   34.6805   50.5561 H   0  0  0  0  0  0  0  0  0  0  0  0
  1  2  1  0
  2  3  1  0
  3  4  1  0
  4  5  1  0
  3  6  1  0
  6  7  1  0
  7  8  1  0
  8  9  1  0
  9 10  2  0
 10 11  1  0
 11 12  2  0
 12 13  1  0
 13 14  2  0
 14 15  1  0
 15 16  2  0
 16 17  1  0
 16 18  1  0
 18 19  2  0
 19 20  1  0
 20 21  2  0
 21 22  1  0
 22 23  1  0
 23 24  1  0
 24 25  1  0
 25 26  1  0
 26 27  1  0
 26 28  1  0
 28 29  1  0
 29 30  1  0
 30 31  1  0
 30 32  1  0
 30 33  1  0
 33 34  1  0
 22 35  2  0
 35  9  1  0
 15 10  1  0
 35 18  1  0
 34 26  1  0
  1 36  1  0
  1 37  1  0
  1 38  1  0
  2 39  1  0
  2 40  1  0
  4 41  1  0
  4 42  1  0
  5 43  1  0
  5 44  1  0
  5 45  1  0
  6 46  1  0
  6 47  1  0
  7 48  1  0
  7 49  1  0
  8 50  1  0
 11 51  1  0
 12 52  1  0
 13 53  1  0
 14 54  1  0
 17 55  1  0
 17 56  1  0
 17 57  1  0
 19 58  1  0
 20 59  1  0
 21 60  1  0
 24 61  1  0
 24 62  1  0
 25 63  1  0
 25 64  1  0
 27 65  1  0
 27 66  1  0
 27 67  1  0
 28 68  1  0
 28 69  1  0
 29 70  1  0
 29 71  1  0
 31 72  1  0
 31 73  1  0
 31 74  1  0
 32 75  1  0
 32 76  1  0
 32 77  1  0
 33 78  1  0
 33 79  1  0
 34 80  1  0
 34 81  1  0
M  CHG  3  16   1  26   1  30   1
M  END
>  <UniqueID>  (16) 
16

>  <SMILES>  (16) 
CCN(CC)CCNc1c2ccccc2[n+](C)c2cccc(OCC[N+]3(C)CC[N+](C)(C)CC3)c12

>  <Energy>  (16) 
137.12155883827342

>  <Genealogy>  (16) 
CCN(CC)CCNc1c2ccccc2[n+](C)c2cccc(OCC[N+]3(C)CC[N+](C)(C)CC3)c12 (3D coordinates assigned)
CCN(CC)CCNc1c2ccccc2[n+](C)c2cccc(OCC[N+]3(C)CC[N+](C)(C)CC3)c12 (nonaromatic ring conformer: 137.12155883827342 kcal/mol)

>  <smiles>  (16) 
CCN(CC)CCNc1c2ccccc2[n+](C)c2cccc(OCC[N+]3(C)CC[N+](C)(C)CC3)c12

>  <score_type>  (16) 
oracle

>  <origin>  (16) 
adg

>  <m_score__min__energy>  (16) 
-3.71

>  <m_primary>  (16) 
energy

$$$$
16:0
     RDKit          3D

 57 59  0  0  0  0  0  0  0  0999 V2000
   55.5980   23.4310   43.5780 C   0  0  0  0  0  0  0  0  0  0  0  0
   56.9790   24.0520   43.3330 C   0  0  0  0  0  0  0  0  0  0  0  0
   57.1430   25.3420   44.0320 N   0  0  0  0  0  0  0  0  0  0  0  0
   57.2980   25.1980   45.4960 C   0  0  0  0  0  0  0  0  0  0  0  0
   56.1150   25.7880   46.2760 C   0  0  0  0  0  0  0  0  0  0  0  0
   55.6360   26.9500   45.6280 O   0  0  0  0  0  0  0  0  0  0  0  0
   56.6600   27.9220   45.5300 C   0  0  0  0  0  0  0  0  0  0  0  0
   56.1350   29.2130   44.8710 C   0  0  0  0  0  0  0  0  0  0  0  0
   56.8560   29.5200   43.5550 C   0  0  0  0  0  0  0  0  0  0  0  0
   58.2430   29.9080   43.8070 N   0  0  0  0  0  0  0  0  0  0  0  0
   58.6320   30.3960   45.1010 C   0  0  0  0  0  0  0  0  0  0  0  0
   59.2940   29.5480   46.0040 C   0  0  0  0  0  0  0  0  0  0  0  0
   59.6730   28.2390   45.6330 C   0  0  0  0  0  0  0  0  0  0  0  0
   60.3260   27.4040   46.5380 C   0  0  0  0  0  0  0  0  0  0  0  0
   60.6180   27.8600   47.8200 C   0  0  0  0  0  0  0  0  0  0  0  0
   60.2560   29.1520   48.2050 C   0  0  0  0  0  0  0  0  0  0  0  0
   59.5790   30.0180   47.3110 C   0  0  0  0  0  0  0  0  0  0  0  0
   59.1990   31.2900   47.6870 N   0  0  0  0  0  0  0  0  0  0  0  0
   59.0120   31.5770   49.1250 C   0  0  0  0  0  0  0  0  0  0  0  0
   58.8160   32.2110   46.7280 C   0  0  0  0  0  0  0  0  0  0  0  0
   58.8100   33.6260   46.9570 C   0  0  0  0  0  0  0  0  0  0  0  0
   59.5850   34.2930   48.0680 C   0  0  0  0  0  0  0  0  0  0  0  0
   58.1800   34.4740   46.0330 C   0  0  0  0  0  0  0  0  0  0  0  0
   57.6600   33.9740   44.8460 C   0  0  0  0  0  0  0  0  0  0  0  0
   57.8070   32.6290   44.5350 C   0  0  0  0  0  0  0  0  0  0  0  0
   58.4170   31.7430   45.4450 C   0  0  0  0  0  0  0  0  0  0  0  0
   55.4190   23.3505   44.6603 H   0  0  0  0  0  0  0  0  0  0  0  0
   54.8240   24.0677   43.1247 H   0  0  0  0  0  0  0  0  0  0  0  0
   55.5607   22.4294   43.1247 H   0  0  0  0  0  0  0  0  0  0  0  0
   57.7498   23.3542   43.6920 H   0  0  0  0  0  0  0  0  0  0  0  0
   57.0786   24.2381   42.2534 H   0  0  0  0  0  0  0  0  0  0  0  0
   56.3180   25.9510   43.8110 H   0  0  0  0  0  0  0  0  0  0  0  0
   57.9830   25.8370   43.6490 H   0  0  0  0  0  0  0  0  0  0  0  0
   57.3809   24.1281   45.7379 H   0  0  0  0  0  0  0  0  0  0  0  0
   58.2012   25.7521   45.7914 H   0  0  0  0  0  0  0  0  0  0  0  0
   55.3075   25.0430   46.3306 H   0  0  0  0  0  0  0  0  0  0  0  0
   56.4491   26.0533   47.2899 H   0  0  0  0  0  0  0  0  0  0  0  0
   57.0299   28.1578   46.5388 H   0  0  0  0  0  0  0  0  0  0  0  0
   57.4707   27.5154   44.9075 H   0  0  0  0  0  0  0  0  0  0  0  0
   55.0602   29.0964   44.6682 H   0  0  0  0  0  0  0  0  0  0  0  0
   56.3213   30.0475   45.5630 H   0  0  0  0  0  0  0  0  0  0  0  0
   56.8414   28.6240   42.9171 H   0  0  0  0  0  0  0  0  0  0  0  0
   56.3402   30.3522   43.0536 H   0  0  0  0  0  0  0  0  0  0  0  0
   58.8900   30.0640   43.0010 H   0  0  0  0  0  0  0  0  0  0  0  0
   59.4505   27.8747   44.6192 H   0  0  0  0  0  0  0  0  0  0  0  0
   60.6106   26.3844   46.2389 H   0  0  0  0  0  0  0  0  0  0  0  0
   61.1356   27.2004   48.5320 H   0  0  0  0  0  0  0  0  0  0  0  0
   60.5002   29.5033   49.2184 H   0  0  0  0  0  0  0  0  0  0  0  0
   59.5164   30.8029   49.7220 H   0  0  0  0  0  0  0  0  0  0  0  0
   59.4427   32.5611   49.3615 H   0  0  0  0  0  0  0  0  0  0  0  0
   57.9377   31.5805   49.3615 H   0  0  0  0  0  0  0  0  0  0  0  0
   59.1948   33.9572   49.0401 H   0  0  0  0  0  0  0  0  0  0  0  0
   60.6483   34.0231   47.9866 H   0  0  0  0  0  0  0  0  0  0  0  0
   59.4765   35.3846   47.9866 H   0  0  0  0  0  0  0  0  0  0  0  0
   58.0969   35.5488   46.2517 H   0  0  0  0  0  0  0  0  0  0  0  0
   57.1314   34.6441   44.1520 H   0  0  0  0  0  0  0  0  0  0  0  0
   57.4434   32.2511   43.5680 H   0  0  0  0  0  0  0  0  0  0  0  0
  1  2  1  0
  2  3  1  0
  3  4  1  0
  4  5  1  0
  5  6  1  0
  6  7  1  0
  7  8  1  0
  8  9  1  0
  9 10  1  0
 10 11  1  0
 11 12  2  0
 12 13  1  0
 13 14  2  0
 14 15  1  0
 15 16  2  0
 16 17  1  0
 17 18  2  0
 18 19  1  0
 18 20  1  0
 20 21  2  0
 21 22  1  0
 21 23  1  0
 23 24  2  0
 24 25  1  0
 25 26  2  0
 26 11  1  0
 17 12  1  0
 26 20  1  0
  1 27  1  0
  1 28  1  0
  1 29  1  0
  2 30  1  0
  2 31  1  0
  3 32  1  0
  3 33  1  0
  4 34  1  0
  4 35  1  0
  5 36  1  0
  5 37  1  0
  7 38  1  0
  7 39  1  0
  8 40  1  0
  8 41  1  0
  9 42  1  0
  9 43  1  0
 10 44  1  0
 13 45  1  0
 14 46  1  0
 15 47  1  0
 16 48  1  0
 19 49  1  0
 19 50  1  0
 19 51  1  0
 22 52  1  0
 22 53  1  0
 22 54  1  0
 23 55  1  0
 24 56  1  0
 25 57  1  0
M  CHG  2   3   1  18   1
M  END
>  <UniqueID>  (17) 
17

>  <SMILES>  (17) 
CC[NH2+]CCOCCCNc1c2ccccc2[n+](C)c2c(C)cccc12

>  <Energy>  (17) 
93.01113506855187

>  <Genealogy>  (17) 
CC[NH2+]CCOCCCNc1c2ccccc2[n+](C)c2c(C)cccc12 (protonated)
CC[NH2+]CCOCCCNc1c2ccccc2[n+](C)c2c(C)cccc12 (3D coordinates assigned)
CC[NH2+]CCOCCCNc1c2ccccc2[n+](C)c2c(C)cccc12 (optimized conformer: 93.01113506855187 kcal/mol)

>  <smiles>  (17) 
CCNCCOCCCNc1c2ccccc2[n+](C)c2c(C)cccc12

>  <score_type>  (17) 
oracle

>  <origin>  (17) 
adg

>  <m_score__min__energy>  (17) 
-4.5800000000000001

>  <m_primary>  (17) 
energy

$$$$
17:0
     RDKit          3D

 56 60  0  0  0  0  0  0  0  0999 V2000
   57.0710   32.3630   41.2620 C   0  0  0  0  0  0  0  0  0  0  0  0
   57.3950   31.9850   42.6310 N   0  0  0  0  0  0  0  0  0  0  0  0
   57.7550   32.8290   43.6150 C   0  0  0  0  0  0  0  0  0  0  0  0
   58.0730   32.0800   44.7320 C   0  0  0  0  0  0  0  0  0  0  0  0
   58.6350   32.6100   45.9930 C   0  0  0  0  0  0  0  0  0  0  0  0
   59.5420   33.6720   45.9630 C   0  0  0  0  0  0  0  0  0  0  0  0
   60.0850   34.1670   47.1460 C   0  0  0  0  0  0  0  0  0  0  0  0
   59.7520   33.6060   48.3930 C   0  0  0  0  0  0  0  0  0  0  0  0
   58.8140   32.5320   48.4360 C   0  0  0  0  0  0  0  0  0  0  0  0
   58.2990   32.0320   47.2250 C   0  0  0  0  0  0  0  0  0  0  0  0
   58.3920   31.7990   49.6970 C   0  0  0  0  0  0  0  0  0  0  0  0
   58.4430   32.6240   50.9800 C   0  0  0  0  0  0  0  0  0  0  0  0
   59.8650   32.7390   51.5550 C   0  0  0  0  0  0  0  0  0  0  0  0
   60.8760   33.2690   50.6130 N   0  0  0  0  0  0  0  0  0  0  0  0
   61.7950   32.2590   50.0510 C   0  0  0  0  0  0  0  0  0  0  0  0
   62.5470   32.8380   48.8880 C   0  0  0  0  0  0  0  0  0  0  0  0
   63.2860   34.0000   48.8940 C   0  0  0  0  0  0  0  0  0  0  0  0
   63.7630   34.2310   47.6530 N   0  0  0  0  0  0  0  0  0  0  0  0
   63.3020   33.1980   46.9160 C   0  0  0  0  0  0  0  0  0  0  0  0
   62.5680   32.3310   47.6410 N   0  0  0  0  0  0  0  0  0  0  0  0
   61.8540   31.1620   47.1390 C   0  0  0  0  0  0  0  0  0  0  0  0
   60.3720   34.2420   49.6270 C   0  0  0  0  0  0  0  0  0  0  0  0
   57.8730   30.7570   44.3390 C   0  0  0  0  0  0  0  0  0  0  0  0
   58.0090   29.5320   45.1490 C   0  0  0  0  0  0  0  0  0  0  0  0
   59.2050   29.2200   45.8180 C   0  0  0  0  0  0  0  0  0  0  0  0
   59.2790   28.0570   46.5850 C   0  0  0  0  0  0  0  0  0  0  0  0
   58.1620   27.2260   46.6970 C   0  0  0  0  0  0  0  0  0  0  0  0
   56.9820   27.5790   46.0430 C   0  0  0  0  0  0  0  0  0  0  0  0
   56.9290   28.7150   45.2950 N   0  0  0  0  0  0  0  0  0  0  0  0
   57.4770   30.7320   43.0500 N   0  0  0  0  0  0  0  0  0  0  0  0
   56.3552   33.1981   41.2719 H   0  0  0  0  0  0  0  0  0  0  0  0
   57.9885   32.6727   40.7402 H   0  0  0  0  0  0  0  0  0  0  0  0
   56.6247   31.5036   40.7402 H   0  0  0  0  0  0  0  0  0  0  0  0
   57.7902   33.9261   43.5428 H   0  0  0  0  0  0  0  0  0  0  0  0
   59.8288   34.1196   45.0000 H   0  0  0  0  0  0  0  0  0  0  0  0
   60.7875   35.0125   47.1050 H   0  0  0  0  0  0  0  0  0  0  0  0
   57.6178   31.1686   47.2460 H   0  0  0  0  0  0  0  0  0  0  0  0
   57.3578   31.4512   49.5577 H   0  0  0  0  0  0  0  0  0  0  0  0
   59.1175   30.9832   49.8314 H   0  0  0  0  0  0  0  0  0  0  0  0
   58.0680   33.6352   50.7634 H   0  0  0  0  0  0  0  0  0  0  0  0
   57.8217   32.1119   51.7295 H   0  0  0  0  0  0  0  0  0  0  0  0
   59.8278   33.4071   52.4281 H   0  0  0  0  0  0  0  0  0  0  0  0
   60.1813   31.7153   51.8039 H   0  0  0  0  0  0  0  0  0  0  0  0
   62.5092   31.9451   50.8265 H   0  0  0  0  0  0  0  0  0  0  0  0
   61.2115   31.3921   49.7075 H   0  0  0  0  0  0  0  0  0  0  0  0
   63.4601   34.6392   49.7721 H   0  0  0  0  0  0  0  0  0  0  0  0
   63.5035   33.0773   45.8414 H   0  0  0  0  0  0  0  0  0  0  0  0
   61.4885   30.5636   47.9866 H   0  0  0  0  0  0  0  0  0  0  0  0
   61.0011   31.4886   46.5260 H   0  0  0  0  0  0  0  0  0  0  0  0
   62.5340   30.5523   46.5260 H   0  0  0  0  0  0  0  0  0  0  0  0
   59.6088   34.8658   50.1153 H   0  0  0  0  0  0  0  0  0  0  0  0
   61.2389   34.8254   49.2833 H   0  0  0  0  0  0  0  0  0  0  0  0
   60.0757   29.8874   45.7375 H   0  0  0  0  0  0  0  0  0  0  0  0
   60.2149   27.7951   47.1003 H   0  0  0  0  0  0  0  0  0  0  0  0
   58.2125   26.3036   47.2942 H   0  0  0  0  0  0  0  0  0  0  0  0
   56.0923   26.9382   46.1318 H   0  0  0  0  0  0  0  0  0  0  0  0
  1  2  1  0
  2  3  1  0
  3  4  2  0
  4  5  1  0
  5  6  2  0
  6  7  1  0
  7  8  2  0
  8  9  1  0
  9 10  2  0
  9 11  1  0
 11 12  1  0
 12 13  1  0
 13 14  1  0
 14 15  1  0
 15 16  1  0
 16 17  2  0
 17 18  1  0
 18 19  2  0
 19 20  1  0
 20 21  1  0
 14 22  1  0
  4 23  1  0
 23 24  1  0
 24 25  2  0
 25 26  1  0
 26 27  2  0
 27 28  1  0
 28 29  2  0
 23 30  2  0
 30  2  1  0
 10  5  1  0
 20 16  1  0
 29 24  1  0
 22  8  1  0
  1 31  1  0
  1 32  1  0
  1 33  1  0
  3 34  1  0
  6 35  1  0
  7 36  1  0
 10 37  1  0
 11 38  1  0
 11 39  1  0
 12 40  1  0
 12 41  1  0
 13 42  1  0
 13 43  1  0
 15 44  1  0
 15 45  1  0
 17 46  1  0
 19 47  1  0
 21 48  1  0
 21 49  1  0
 21 50  1  0
 22 51  1  0
 22 52  1  0
 25 53  1  0
 26 54  1  0
 27 55  1  0
 28 56  1  0
M  END
>  <UniqueID>  (18) 
18

>  <SMILES>  (18) 
Cn1cc(-c2ccc3c(c2)CCCN(Cc2cncn2C)C3)c(-c2ccccn2)n1

>  <Energy>  (18) 
141.2834849462905

>  <Genealogy>  (18) 
Cn1cc(-c2ccc3c(c2)CCCN(Cc2cncn2C)C3)c(-c2ccccn2)n1 (3D coordinates assigned)
Cn1cc(-c2ccc3c(c2)CCCN(Cc2cncn2C)C3)c(-c2ccccn2)n1 (nonaromatic ring conformer: 141.2834849462905 kcal/mol)

>  <smiles>  (18) 
Cn1cc(-c2ccc3c(c2)CCCN(Cc2cncn2C)C3)c(-c2ccccn2)n1

>  <score_type>  (18) 
oracle

>  <origin>  (18) 
adg

>  <m_score__min__energy>  (18) 
-7.3300000000000001

>  <m_primary>  (18) 
energy

$$$$
18:0
     RDKit          3D

 48 50  0  0  0  0  0  0  0  0999 V2000
   56.9050   27.5990   45.6380 C   0  0  0  0  0  0  0  0  0  0  0  0
   55.9970   28.5980   45.2290 O   0  0  0  0  0  0  0  0  0  0  0  0
   56.5420   29.3540   44.1650 C   0  0  0  0  0  0  0  0  0  0  0  0
   57.3830   30.4790   44.6910 C   0  0  0  0  0  0  0  0  0  0  0  0
   57.8280   30.5440   45.9630 N   0  0  0  0  0  0  0  0  0  0  0  0
   58.5070   31.6770   46.0580 N   0  0  0  0  0  0  0  0  0  0  0  0
   58.4760   32.2860   44.8610 C   0  0  0  0  0  0  0  0  0  0  0  0
   59.2870   33.8530   44.5170 S   0  0  0  0  0  0  0  0  0  0  0  0
   58.4500   34.7650   45.8660 C   0  0  0  0  0  0  0  0  0  0  0  0
   59.4070   35.1390   47.0060 C   0  0  0  0  0  0  0  0  0  0  0  0
   59.5840   34.0200   48.0470 C   0  0  0  0  0  0  0  0  0  0  0  0
   60.7160   33.1290   47.7160 N   0  0  0  0  0  0  0  0  0  0  0  0
   61.2400   32.4660   48.9400 C   0  0  0  0  0  0  0  0  0  0  0  0
   62.5970   31.7370   48.7010 C   0  0  2  0  0  0  0  0  0  0  0  0
   63.7730   32.6280   49.1210 C   0  0  0  0  0  0  0  0  0  0  0  0
   64.0860   33.4780   47.8880 C   0  0  0  0  0  0  0  0  0  0  0  0
   63.0880   33.0120   46.8180 C   0  0  1  0  0  0  0  0  0  0  0  0
   62.8230   31.5660   47.2070 C   0  0  0  0  0  0  0  0  0  0  0  0
   61.7580   33.8210   46.9080 C   0  0  0  0  0  0  0  0  0  0  0  0
   57.7600   31.5630   43.9770 N   0  0  0  0  0  0  0  0  0  0  0  0
   57.4530   31.8680   42.5800 C   0  0  0  0  0  0  0  0  0  0  0  0
   56.9388   27.5618   46.7369 H   0  0  0  0  0  0  0  0  0  0  0  0
   56.5775   26.6240   45.2480 H   0  0  0  0  0  0  0  0  0  0  0  0
   57.9068   27.8321   45.2480 H   0  0  0  0  0  0  0  0  0  0  0  0
   57.1657   28.6990   43.5389 H   0  0  0  0  0  0  0  0  0  0  0  0
   55.7172   29.7760   43.5720 H   0  0  0  0  0  0  0  0  0  0  0  0
   58.9860   32.0130   46.9220 H   0  0  0  0  0  0  0  0  0  0  0  0
   58.0171   35.6876   45.4521 H   0  0  0  0  0  0  0  0  0  0  0  0
   57.6748   34.1058   46.2837 H   0  0  0  0  0  0  0  0  0  0  0  0
   60.3912   35.3713   46.5730 H   0  0  0  0  0  0  0  0  0  0  0  0
   58.9684   36.0020   47.5283 H   0  0  0  0  0  0  0  0  0  0  0  0
   59.7673   34.4763   49.0310 H   0  0  0  0  0  0  0  0  0  0  0  0
   58.6658   33.4142   48.0537 H   0  0  0  0  0  0  0  0  0  0  0  0
   61.3841   33.2296   49.7185 H   0  0  0  0  0  0  0  0  0  0  0  0
   60.5056   31.7055   49.2437 H   0  0  0  0  0  0  0  0  0  0  0  0
   62.5518   30.7918   49.2618 H   0  0  0  0  0  0  0  0  0  0  0  0
   63.4895   33.2677   49.9697 H   0  0  0  0  0  0  0  0  0  0  0  0
   64.6421   32.0382   49.4477 H   0  0  0  0  0  0  0  0  0  0  0  0
   63.9445   34.5462   48.1091 H   0  0  0  0  0  0  0  0  0  0  0  0
   65.1289   33.3591   47.5590 H   0  0  0  0  0  0  0  0  0  0  0  0
   63.4701   33.1423   45.7948 H   0  0  0  0  0  0  0  0  0  0  0  0
   61.9326   31.1632   46.7021 H   0  0  0  0  0  0  0  0  0  0  0  0
   63.6194   30.8576   46.9350 H   0  0  0  0  0  0  0  0  0  0  0  0
   61.9705   34.7966   47.3696 H   0  0  0  0  0  0  0  0  0  0  0  0
   61.3666   33.9302   45.8858 H   0  0  0  0  0  0  0  0  0  0  0  0
   56.6733   32.6427   42.5366 H   0  0  0  0  0  0  0  0  0  0  0  0
   58.3604   32.2325   42.0763 H   0  0  0  0  0  0  0  0  0  0  0  0
   57.0944   30.9582   42.0763 H   0  0  0  0  0  0  0  0  0  0  0  0
  1  2  1  0
  2  3  1  0
  3  4  1  0
  4  5  2  0
  5  6  1  0
  6  7  2  0
  7  8  1  0
  8  9  1  0
  9 10  1  0
 10 11  1  0
 11 12  1  0
 12 13  1  0
 13 14  1  0
 14 15  1  0
 15 16  1  0
 16 17  1  0
 17 18  1  0
 17 19  1  0
  7 20  1  0
 20 21  1  0
 20  4  1  0
 19 12  1  0
 18 14  1  0
  1 22  1  0
  1 23  1  0
  1 24  1  0
  3 25  1  0
  3 26  1  0
  6 27  1  0
  9 28  1  0
  9 29  1  0
 10 30  1  0
 10 31  1  0
 11 32  1  0
 11 33  1  0
 13 34  1  0
 13 35  1  0
 14 36  1  1
 15 37  1  0
 15 38  1  0
 16 39  1  0
 16 40  1  0
 17 41  1  6
 18 42  1  0
 18 43  1  0
 19 44  1  0
 19 45  1  0
 21 46  1  0
 21 47  1  0
 21 48  1  0
M  CHG  1   6   1
M  END
>  <UniqueID>  (19) 
19

>  <SMILES>  (19) 
COCc1n[nH+]c(SCCCN2C[C@@H]3CC[C@@H](C3)C2)n1C

>  <Energy>  (19) 
96.43531062306522

>  <Genealogy>  (19) 
COCc1n[nH+]c(SCCCN2CC3CCC(C3)C2)n1C (protonated)
COCc1n[nH+]c(SCCCN2C[C@@H]3CC[C@@H](C3)C2)n1C (chirality)
COCc1n[nH+]c(SCCCN2C[C@@H]3CC[C@@H](C3)C2)n1C (3D coordinates assigned)
COCc1n[nH+]c(SCCCN2C[C@@H]3CC[C@@H](C3)C2)n1C (nonaromatic ring conformer: 96.43531062306522 kcal/mol)

>  <smiles>  (19) 
COCc1nnc(SCCCN2CC3CCC(C3)C2)n1C

>  <score_type>  (19) 
oracle

>  <origin>  (19) 
adg

>  <m_score__min__energy>  (19) 
-6.0700000000000003

>  <m_primary>  (19) 
energy

$$$$
19:0
     RDKit          3D

 81 86  0  0  0  0  0  0  0  0999 V2000
   61.2047   25.2988   45.9273 H   0  0  0  0  0  0  0  0  0  0  0  0
   60.4290   25.9430   46.3670 C   0  0  0  0  0  0  0  0  0  0  0  0
   59.0970   25.8080   45.9640 C   0  0  0  0  0  0  0  0  0  0  0  0
   58.8268   25.0659   45.1983 H   0  0  0  0  0  0  0  0  0  0  0  0
   58.1080   26.6160   46.5340 C   0  0  0  0  0  0  0  0  0  0  0  0
   56.2850   26.4140   46.0000 Br  0  0  0  0  0  0  0  0  0  0  0  0
   58.4530   27.5710   47.4980 C   0  0  0  0  0  0  0  0  0  0  0  0
   57.6706   28.1905   47.9607 H   0  0  0  0  0  0  0  0  0  0  0  0
   59.7910   27.7400   47.8750 C   0  0  0  0  0  0  0  0  0  0  0  0
   60.1220   28.6940   48.8940 N   0  0  0  0  0  0  0  0  0  0  0  0
   59.5030   29.7940   49.2490 C   0  0  0  0  0  0  0  0  0  0  0  0
   59.2870   30.7770   48.2500 C   0  0  0  0  0  0  0  0  0  0  0  0
   59.8720   30.6830   46.9680 C   0  0  0  0  0  0  0  0  0  0  0  0
   60.5494   29.8474   46.7380 H   0  0  0  0  0  0  0  0  0  0  0  0
   59.5980   31.6420   45.9890 C   0  0  0  0  0  0  0  0  0  0  0  0
   60.0676   31.5625   44.9975 H   0  0  0  0  0  0  0  0  0  0  0  0
   58.7300   32.7010   46.2650 C   0  0  0  0  0  0  0  0  0  0  0  0
   58.3580   34.0060   44.9220 Br  0  0  0  0  0  0  0  0  0  0  0  0
   58.1330   32.8030   47.5250 C   0  0  0  0  0  0  0  0  0  0  0  0
   57.4453   33.6343   47.7397 H   0  0  0  0  0  0  0  0  0  0  0  0
   58.4070   31.8510   48.5150 C   0  0  0  0  0  0  0  0  0  0  0  0
   57.8060   31.9580   49.7240 N   0  0  0  0  0  0  0  0  0  0  0  0
   58.0640   31.0970   50.7390 C   0  0  0  0  0  0  0  0  0  0  0  0
   57.4480   31.3080   51.9760 C   0  0  0  0  0  0  0  0  0  0  0  0
   56.6904   32.0988   52.0792 H   0  0  0  0  0  0  0  0  0  0  0  0
   57.7870   30.5200   53.0890 C   0  0  0  0  0  0  0  0  0  0  0  0
   57.1530   30.6810   54.3320 O   0  0  0  0  0  0  0  0  0  0  0  0
   55.8760   30.1450   54.6660 C   0  0  0  0  0  0  0  0  0  0  0  0
   55.7715   30.1012   55.7601 H   0  0  0  0  0  0  0  0  0  0  0  0
   55.0876   30.7881   54.2479 H   0  0  0  0  0  0  0  0  0  0  0  0
   55.7828   29.1318   54.2479 H   0  0  0  0  0  0  0  0  0  0  0  0
   58.8030   29.5530   52.9640 C   0  0  0  0  0  0  0  0  0  0  0  0
   59.2040   28.7590   54.1010 N   0  0  0  0  0  0  0  0  0  0  0  0
   59.1260   27.7440   53.8680 H   0  0  0  0  0  0  0  0  0  0  0  0
   58.5600   28.9380   54.9070 H   0  0  0  0  0  0  0  0  0  0  0  0
   60.5810   29.1040   54.4960 C   0  0  0  0  0  0  0  0  0  0  0  0
   61.2771   28.4031   54.0121 H   0  0  0  0  0  0  0  0  0  0  0  0
   60.6513   29.0353   55.5916 H   0  0  0  0  0  0  0  0  0  0  0  0
   60.9490   30.5400   54.0800 C   0  0  0  0  0  0  0  0  0  0  0  0
   60.9297   31.1850   54.9708 H   0  0  0  0  0  0  0  0  0  0  0  0
   60.2168   30.8781   53.3319 H   0  0  0  0  0  0  0  0  0  0  0  0
   62.3560   30.6090   53.4420 C   0  0  0  0  0  0  0  0  0  0  0  0
   62.8632   29.6479   53.6124 H   0  0  0  0  0  0  0  0  0  0  0  0
   62.8852   31.4493   53.9151 H   0  0  0  0  0  0  0  0  0  0  0  0
   62.3310   30.8740   51.9860 N   0  0  0  0  0  0  0  0  0  0  0  0
   62.9480   32.1690   51.6230 C   0  0  0  0  0  0  0  0  0  0  0  0
   63.0944   32.7699   52.5327 H   0  0  0  0  0  0  0  0  0  0  0  0
   63.9172   31.9822   51.1375 H   0  0  0  0  0  0  0  0  0  0  0  0
   62.0470   32.9260   50.6600 C   0  0  0  0  0  0  0  0  0  0  0  0
   60.8360   33.4390   51.1840 C   0  0  0  0  0  0  0  0  0  0  0  0
   60.5420   33.2300   52.5420 O   0  0  0  0  0  0  0  0  0  0  0  0
   59.4280   33.7900   53.2310 C   0  0  0  0  0  0  0  0  0  0  0  0
   59.5894   33.7088   54.3161 H   0  0  0  0  0  0  0  0  0  0  0  0
   59.3206   34.8492   52.9545 H   0  0  0  0  0  0  0  0  0  0  0  0
   58.5138   33.2443   52.9545 H   0  0  0  0  0  0  0  0  0  0  0  0
   59.9510   34.1380   50.3480 C   0  0  0  0  0  0  0  0  0  0  0  0
   59.0157   34.5416   50.7631 H   0  0  0  0  0  0  0  0  0  0  0  0
   60.2420   34.3260   49.0040 C   0  0  0  0  0  0  0  0  0  0  0  0
   59.5394   34.8822   48.3660 H   0  0  0  0  0  0  0  0  0  0  0  0
   61.4210   33.8140   48.4550 C   0  0  0  0  0  0  0  0  0  0  0  0
   61.6840   34.0050   47.0890 C   0  0  0  0  0  0  0  0  0  0  0  0
   60.9676   34.5612   46.4665 H   0  0  0  0  0  0  0  0  0  0  0  0
   62.8470   33.4940   46.5180 C   0  0  0  0  0  0  0  0  0  0  0  0
   63.0487   33.6500   45.4480 H   0  0  0  0  0  0  0  0  0  0  0  0
   63.7540   32.7860   47.3010 C   0  0  0  0  0  0  0  0  0  0  0  0
   64.6689   32.3802   46.8447 H   0  0  0  0  0  0  0  0  0  0  0  0
   63.5110   32.5870   48.6620 C   0  0  0  0  0  0  0  0  0  0  0  0
   64.2371   32.0238   49.2667 H   0  0  0  0  0  0  0  0  0  0  0  0
   62.3420   33.1010   49.2730 C   0  0  0  0  0  0  0  0  0  0  0  0
   62.8230   29.7340   51.1760 C   0  0  0  0  0  0  0  0  0  0  0  0
   62.8428   30.0216   50.1144 H   0  0  0  0  0  0  0  0  0  0  0  0
   62.1518   28.8734   51.3137 H   0  0  0  0  0  0  0  0  0  0  0  0
   64.2300   29.3530   51.6240 C   0  0  0  0  0  0  0  0  0  0  0  0
   64.2742   29.3410   52.7230 H   0  0  0  0  0  0  0  0  0  0  0  0
   64.4806   28.3547   51.2361 H   0  0  0  0  0  0  0  0  0  0  0  0
   64.9501   30.0885   51.2361 H   0  0  0  0  0  0  0  0  0  0  0  0
   59.4010   29.3310   51.7110 C   0  0  0  0  0  0  0  0  0  0  0  0
   60.2155   28.5967   51.6258 H   0  0  0  0  0  0  0  0  0  0  0  0
   58.9780   30.0310   50.5590 C   0  0  0  0  0  0  0  0  0  0  0  0
   60.7750   26.8970   47.3290 C   0  0  0  0  0  0  0  0  0  0  0  0
   61.8202   26.9883   47.6596 H   0  0  0  0  0  0  0  0  0  0  0  0
  1  2  1  0
  2  3  2  0
  3  4  1  0
  3  5  1  0
  5  6  1  0
  5  7  2  0
  7  8  1  0
  7  9  1  0
  9 10  1  0
 10 11  2  0
 11 12  1  0
 12 13  2  0
 13 14  1  0
 13 15  1  0
 15 16  1  0
 15 17  2  0
 17 18  1  0
 17 19  1  0
 19 20  1  0
 19 21  2  0
 21 22  1  0
 22 23  1  0
 23 24  2  0
 24 25  1  0
 24 26  1  0
 26 27  1  0
 27 28  1  0
 28 29  1  0
 28 30  1  0
 28 31  1  0
 26 32  2  0
 32 33  1  0
 33 34  1  0
 33 35  1  0
 33 36  1  0
 36 37  1  0
 36 38  1  0
 36 39  1  0
 39 40  1  0
 39 41  1  0
 39 42  1  0
 42 43  1  0
 42 44  1  0
 42 45  1  0
 45 46  1  0
 46 47  1  0
 46 48  1  0
 46 49  1  0
 49 50  2  0
 50 51  1  0
 51 52  1  0
 52 53  1  0
 52 54  1  0
 52 55  1  0
 50 56  1  0
 56 57  1  0
 56 58  2  0
 58 59  1  0
 58 60  1  0
 60 61  2  0
 61 62  1  0
 61 63  1  0
 63 64  1  0
 63 65  2  0
 65 66  1  0
 65 67  1  0
 67 68  1  0
 67 69  2  0
 45 70  1  0
 70 71  1  0
 70 72  1  0
 70 73  1  0
 73 74  1  0
 73 75  1  0
 73 76  1  0
 32 77  1  0
 77 78  1  0
 77 79  2  0
  9 80  2  0
 80 81  1  0
 80  2  1  0
 79 11  1  0
 21 12  1  0
 79 23  1  0
 69 49  1  0
 69 60  1  0
M  CHG  2  22  -1  33   1
M  END
>  <UniqueID>  (20) 
20

>  <SMILES>  (20) 
CCN(CCC[NH2+]c1cc2/c(=N\c3cccc(Br)c3)c3ccc(Br)cc3[n-]c2cc1OC)Cc1c(OC)ccc2ccccc12

>  <Energy>  (20) 
124.01600773589752

>  <Genealogy>  (20) 
CCN(CCC[NH2+]c1cc2c(=Nc3cccc(Br)c3)c3ccc(Br)cc3[n-]c2cc1OC)Cc1c(OC)ccc2ccccc12 (protonated)
CCN(CCC[NH2+]c1cc2/c(=N\c3cccc(Br)c3)c3ccc(Br)cc3[n-]c2cc1OC)Cc1c(OC)ccc2ccccc12 (cis-trans isomerization)
CCN(CCC[NH2+]c1cc2/c(=N\c3cccc(Br)c3)c3ccc(Br)cc3[n-]c2cc1OC)Cc1c(OC)ccc2ccccc12 (3D coordinates assigned)
CCN(CCC[NH2+]c1cc2/c(=N\c3cccc(Br)c3)c3ccc(Br)cc3[n-]c2cc1OC)Cc1c(OC)ccc2ccccc12 (optimized conformer: 124.01600773589752 kcal/mol)

>  <smiles>  (20) 
CCN(CCCNc1cc2c(=Nc3cccc(Br)c3)c3ccc(Br)cc3[nH]c2cc1OC)Cc1c(OC)ccc2ccccc12

>  <score_type>  (20) 
oracle

>  <origin>  (20) 
adg

>  <m_score__min__energy>  (20) 
-9.2599999999999998

>  <m_primary>  (20) 
energy

$$$$
20:0
     RDKit          3D

 39 39  0  0  0  0  0  0  0  0999 V2000
   57.5354   33.5563   42.7118 H   0  0  0  0  0  0  0  0  0  0  0  0
   57.9500   32.8530   43.4490 C   0  0  0  0  0  0  0  0  0  0  0  0
   58.0450   31.5910   43.1490 N   0  0  0  0  0  0  0  0  0  0  0  0
   57.0230   30.8270   42.6050 O   0  0  0  0  0  0  0  0  0  0  0  0
   56.1600   29.9930   43.3760 C   0  0  0  0  0  0  0  0  0  0  0  0
   55.5633   30.6141   44.0602 H   0  0  0  0  0  0  0  0  0  0  0  0
   55.4861   29.4394   42.7056 H   0  0  0  0  0  0  0  0  0  0  0  0
   57.0050   29.0040   44.1870 C   0  0  0  0  0  0  0  0  0  0  0  0
   56.6865   29.0481   45.2390 H   0  0  0  0  0  0  0  0  0  0  0  0
   56.8499   28.0028   43.7585 H   0  0  0  0  0  0  0  0  0  0  0  0
   58.4470   29.3020   44.1170 N   0  0  0  0  0  0  0  0  0  0  0  0
   58.6640   30.1550   44.6840 H   0  0  0  0  0  0  0  0  0  0  0  0
   58.6820   29.5070   43.1170 H   0  0  0  0  0  0  0  0  0  0  0  0
   59.2730   28.1720   44.5750 C   0  0  0  0  0  0  0  0  0  0  0  0
   58.7991   27.7125   45.4549 H   0  0  0  0  0  0  0  0  0  0  0  0
   59.3538   27.4408   43.7572 H   0  0  0  0  0  0  0  0  0  0  0  0
   60.6770   28.6420   44.9510 C   0  0  0  0  0  0  0  0  0  0  0  0
   60.7719   28.6738   46.0464 H   0  0  0  0  0  0  0  0  0  0  0  0
   61.4201   27.9436   44.5387 H   0  0  0  0  0  0  0  0  0  0  0  0
   60.8499   29.6470   44.5387 H   0  0  0  0  0  0  0  0  0  0  0  0
   58.3920   33.3550   44.7680 C   0  0  0  0  0  0  0  0  0  0  0  0
   59.1150   34.5560   44.8810 C   0  0  0  0  0  0  0  0  0  0  0  0
   59.3568   35.1343   43.9770 H   0  0  0  0  0  0  0  0  0  0  0  0
   59.5290   35.0210   46.1330 C   0  0  0  0  0  0  0  0  0  0  0  0
   60.0947   35.9615   46.2065 H   0  0  0  0  0  0  0  0  0  0  0  0
   59.2270   34.2940   47.3000 C   0  0  0  0  0  0  0  0  0  0  0  0
   59.6380   34.7460   48.6040 N   0  0  0  0  0  0  0  0  0  0  0  0
   59.1350   35.5630   49.0220 H   0  0  0  0  0  0  0  0  0  0  0  0
   60.7210   34.1200   49.3660 C   0  0  0  0  0  0  0  0  0  0  0  0
   60.3567   33.1772   49.8000 H   0  0  0  0  0  0  0  0  0  0  0  0
   61.0369   34.8137   50.1591 H   0  0  0  0  0  0  0  0  0  0  0  0
   61.9220   33.8260   48.4720 C   0  0  0  0  0  0  0  0  0  0  0  0
   62.8008   33.6109   49.0976 H   0  0  0  0  0  0  0  0  0  0  0  0
   61.7019   32.9552   47.8369 H   0  0  0  0  0  0  0  0  0  0  0  0
   62.1291   34.7000   47.8369 H   0  0  0  0  0  0  0  0  0  0  0  0
   58.5050   33.0960   47.1840 C   0  0  0  0  0  0  0  0  0  0  0  0
   58.2626   32.5181   48.0880 H   0  0  0  0  0  0  0  0  0  0  0  0
   58.0900   32.6280   45.9330 C   0  0  0  0  0  0  0  0  0  0  0  0
   57.3950   31.4660   45.8640 F   0  0  0  0  0  0  0  0  0  0  0  0
  1  2  1  0
  2  3  2  0
  3  4  1  0
  4  5  1  0
  5  6  1  0
  5  7  1  0
  5  8  1  0
  8  9  1  0
  8 10  1  0
  8 11  1  0
 11 12  1  0
 11 13  1  0
 11 14  1  0
 14 15  1  0
 14 16  1  0
 14 17  1  0
 17 18  1  0
 17 19  1  0
 17 20  1  0
  2 21  1  0
 21 22  2  0
 22 23  1  0
 22 24  1  0
 24 25  1  0
 24 26  2  0
 26 27  1  0
 27 28  1  0
 27 29  1  0
 29 30  1  0
 29 31  1  0
 29 32  1  0
 32 33  1  0
 32 34  1  0
 32 35  1  0
 26 36  1  0
 36 37  1  0
 36 38  2  0
 38 39  1  0
 38 21  1  0
M  CHG  1  11   1
M  END
>  <UniqueID>  (21) 
21

>  <SMILES>  (21) 
CCNc1ccc(/C=N/OCC[NH2+]CC)c(F)c1

>  <Energy>  (21) 
29.8146369374576

>  <Genealogy>  (21) 
CCNc1ccc(C=NOCC[NH2+]CC)c(F)c1 (protonated)
CCNc1ccc(/C=N/OCC[NH2+]CC)c(F)c1 (cis-trans isomerization)
CCNc1ccc(/C=N/OCC[NH2+]CC)c(F)c1 (3D coordinates assigned)
CCNc1ccc(/C=N/OCC[NH2+]CC)c(F)c1 (optimized conformer: 29.8146369374576 kcal/mol)

>  <smiles>  (21) 
CCNCCON=Cc1ccc(NCC)cc1F

>  <score_type>  (21) 
oracle

>  <origin>  (21) 
adg

>  <m_score__min__energy>  (21) 
-3.9900000000000002

>  <m_primary>  (21) 
energy

$$$$
21:0
     RDKit          3D

 45 47  0  0  0  0  0  0  0  0999 V2000
   60.2618   34.2802   49.3266 H   0  0  0  0  0  0  0  0  0  0  0  0
   60.5650   33.5860   48.5290 C   0  0  0  0  0  0  0  0  0  0  0  0
   59.6330   33.2350   47.6200 C   0  0  0  0  0  0  0  0  0  0  0  0
   59.5510   31.8790   47.0140 C   0  0  0  0  0  0  0  0  0  0  0  0
   60.1120   30.8970   47.5730 O   0  0  0  0  0  0  0  0  0  0  0  0
   58.7650   31.6740   45.7700 C   0  0  0  0  0  0  0  0  0  0  0  0
   58.8980   30.5220   45.0790 C   0  0  0  0  0  0  0  0  0  0  0  0
   59.4999   30.5451   44.1586 H   0  0  0  0  0  0  0  0  0  0  0  0
   58.2940   29.2350   45.4700 C   0  0  0  0  0  0  0  0  0  0  0  0
   56.9610   28.9620   45.1430 C   0  0  0  0  0  0  0  0  0  0  0  0
   56.3798   29.6893   44.5571 H   0  0  0  0  0  0  0  0  0  0  0  0
   56.3820   27.7990   45.5480 N   0  0  0  0  0  0  0  0  0  0  0  0
   57.0610   26.8830   46.2870 C   0  0  0  0  0  0  0  0  0  0  0  0
   56.5673   25.9484   46.5918 H   0  0  0  0  0  0  0  0  0  0  0  0
   58.3840   27.1260   46.6600 C   0  0  0  0  0  0  0  0  0  0  0  0
   58.9360   26.3900   47.2630 H   0  0  0  0  0  0  0  0  0  0  0  0
   58.9990   28.3140   46.2590 C   0  0  0  0  0  0  0  0  0  0  0  0
   60.0349   28.5272   46.5615 H   0  0  0  0  0  0  0  0  0  0  0  0
   57.7180   32.7140   45.4120 C   0  0  0  0  0  0  0  0  0  0  0  0
   56.7881   32.4789   45.9505 H   0  0  0  0  0  0  0  0  0  0  0  0
   57.5723   32.6814   44.3222 H   0  0  0  0  0  0  0  0  0  0  0  0
   58.1570   34.1420   45.7840 C   0  0  2  0  0  0  0  0  0  0  0  0
   57.2975   34.8108   45.6295 H   0  0  0  0  0  0  0  0  0  0  0  0
   59.2830   34.6430   44.8660 C   0  0  0  0  0  0  0  0  0  0  0  0
   60.1177   35.0144   45.4787 H   0  0  0  0  0  0  0  0  0  0  0  0
   59.6338   33.8160   44.2311 H   0  0  0  0  0  0  0  0  0  0  0  0
   58.9035   35.4572   44.2311 H   0  0  0  0  0  0  0  0  0  0  0  0
   58.5500   34.2260   47.2700 C   0  0  0  0  0  0  0  0  0  0  0  0
   57.6628   34.0160   47.8854 H   0  0  0  0  0  0  0  0  0  0  0  0
   58.9359   35.2374   47.4650 H   0  0  0  0  0  0  0  0  0  0  0  0
   61.9600   33.1090   48.5340 C   0  0  0  0  0  0  0  0  0  0  0  0
   62.6370   32.5990   49.6250 C   0  0  0  0  0  0  0  0  0  0  0  0
   62.2052   32.4029   50.6175 H   0  0  0  0  0  0  0  0  0  0  0  0
   63.9180   32.3830   49.2640 N   0  0  0  0  0  0  0  0  0  0  0  0
   64.9870   31.9250   50.1420 C   0  0  0  0  0  0  0  0  0  0  0  0
   64.6816   32.0558   51.1906 H   0  0  0  0  0  0  0  0  0  0  0  0
   65.1895   30.8611   49.9491 H   0  0  0  0  0  0  0  0  0  0  0  0
   65.8969   32.5123   49.9491 H   0  0  0  0  0  0  0  0  0  0  0  0
   64.0960   32.7770   48.0140 N   0  0  0  0  0  0  0  0  0  0  0  0
   65.0100   32.7640   47.5080 H   0  0  0  0  0  0  0  0  0  0  0  0
   62.9240   33.2400   47.5400 C   0  0  0  0  0  0  0  0  0  0  0  0
   62.7530   33.8400   46.1800 C   0  0  0  0  0  0  0  0  0  0  0  0
   62.4527   34.8936   46.2792 H   0  0  0  0  0  0  0  0  0  0  0  0
   63.7040   33.7799   45.6305 H   0  0  0  0  0  0  0  0  0  0  0  0
   61.9765   33.2876   45.6305 H   0  0  0  0  0  0  0  0  0  0  0  0
  1  2  1  0
  2  3  2  3
  3  4  1  0
  4  5  2  0
  4  6  1  0
  6  7  2  0
  7  8  1  0
  7  9  1  0
  9 10  2  0
 10 11  1  0
 10 12  1  0
 12 13  2  0
 13 14  1  0
 13 15  1  0
 15 16  1  0
 15 17  2  0
 17 18  1  0
  6 19  1  0
 19 20  1  0
 19 21  1  0
 19 22  1  0
 22 23  1  1
 22 24  1  0
 24 25  1  0
 24 26  1  0
 24 27  1  0
 22 28  1  0
 28 29  1  0
 28 30  1  0
  2 31  1  0
 31 32  2  0
 32 33  1  0
 32 34  1  0
 34 35  1  0
 35 36  1  0
 35 37  1  0
 35 38  1  0
 34 39  1  0
 39 40  1  0
 39 41  2  0
 41 42  1  0
 42 43  1  0
 42 44  1  0
 42 45  1  0
 28  3  1  0
 41 31  1  0
 17  9  1  0
M  CHG  1  39   1
M  END
>  <UniqueID>  (22) 
22

>  <SMILES>  (22) 
Cc1[nH+]n(C)cc1C=C1C[C@@H](C)C/C(=C\c2cccnc2)C1=O

>  <Energy>  (22) 
90.70401154787764

>  <Genealogy>  (22) 
Cc1[nH+]n(C)cc1C=C1CC(C)CC(=Cc2cccnc2)C1=O (protonated)
Cc1[nH+]n(C)cc1C=C1C[C@@H](C)CC(=Cc2cccnc2)C1=O (chirality)
Cc1[nH+]n(C)cc1C=C1C[C@@H](C)C/C(=C\c2cccnc2)C1=O (cis-trans isomerization)
Cc1[nH+]n(C)cc1C=C1C[C@@H](C)C/C(=C\c2cccnc2)C1=O (3D coordinates assigned)
Cc1[nH+]n(C)cc1C=C1C[C@@H](C)C/C(=C\c2cccnc2)C1=O (nonaromatic ring conformer: 90.70401154787764 kcal/mol)

>  <smiles>  (22) 
Cc1nn(C)cc1C=C1CC(C)CC(=Cc2cccnc2)C1=O

>  <score_type>  (22) 
oracle

>  <origin>  (22) 
adg

>  <m_score__min__energy>  (22) 
-7.6799999999999997

>  <m_primary>  (22) 
energy

$$$$
22:0
     RDKit          3D

 89 93  0  0  0  0  0  0  0  0999 V2000
   59.3100   31.7660   54.1010 C   0  0  0  0  0  0  0  0  0  0  0  0
   60.1020   32.6920   53.1820 C   0  0  0  0  0  0  0  0  0  0  0  0
   59.1850   33.5930   52.4470 N   0  0  0  0  0  0  0  0  0  0  0  0
   58.8830   34.7900   53.2570 C   0  0  0  0  0  0  0  0  0  0  0  0
   57.9410   32.8850   52.0680 C   0  0  0  0  0  0  0  0  0  0  0  0
   58.0740   32.1860   50.6960 C   0  0  0  0  0  0  0  0  0  0  0  0
   59.4130   32.3530   50.0910 N   0  0  0  0  0  0  0  0  0  0  0  0
   59.4270   31.9450   48.6880 C   0  0  0  0  0  0  0  0  0  0  0  0
   59.3210   32.9230   47.6460 C   0  0  0  0  0  0  0  0  0  0  0  0
   59.3380   34.3270   47.8910 C   0  0  0  0  0  0  0  0  0  0  0  0
   59.3000   35.2500   46.8500 C   0  0  0  0  0  0  0  0  0  0  0  0
   59.2580   34.8170   45.5370 C   0  0  0  0  0  0  0  0  0  0  0  0
   59.2090   33.4580   45.2580 C   0  0  0  0  0  0  0  0  0  0  0  0
   59.1910   32.4900   46.2960 C   0  0  0  0  0  0  0  0  0  0  0  0
   59.0500   31.1540   46.0050 N   0  0  0  0  0  0  0  0  0  0  0  0
   58.5220   30.7440   44.6820 C   0  0  0  0  0  0  0  0  0  0  0  0
   59.3670   30.1990   46.9450 C   0  0  0  0  0  0  0  0  0  0  0  0
   59.5390   28.8500   46.5530 C   0  0  0  0  0  0  0  0  0  0  0  0
   59.7650   27.8500   47.4790 C   0  0  0  0  0  0  0  0  0  0  0  0
   59.8560   28.1580   48.8210 C   0  0  0  0  0  0  0  0  0  0  0  0
   59.7630   29.4870   49.2690 C   0  0  0  0  0  0  0  0  0  0  0  0
   59.9290   29.7500   50.6380 O   0  0  0  0  0  0  0  0  0  0  0  0
   60.0120   28.7950   51.6990 C   0  0  0  0  0  0  0  0  0  0  0  0
   61.1140   29.2140   52.6980 C   0  0  0  0  0  0  0  0  0  0  0  0
   62.1260   28.1610   53.0480 N   0  0  2  0  0  0  0  0  0  0  0  0
   61.4190   26.8960   53.3810 C   0  0  0  0  0  0  0  0  0  0  0  0
   62.8870   28.5890   54.2580 C   0  0  0  0  0  0  0  0  0  0  0  0
   63.8400   29.7800   53.9940 C   0  0  0  0  0  0  0  0  0  0  0  0
   64.7870   29.5480   52.8630 N   0  0  1  0  0  0  0  0  0  0  0  0
   65.4190   30.8470   52.5090 C   0  0  0  0  0  0  0  0  0  0  0  0
   65.8550   28.5470   53.2070 C   0  0  0  0  0  0  0  0  0  0  0  0
   66.5390   27.8990   52.0140 C   0  0  0  0  0  0  0  0  0  0  0  0
   67.4850   28.6170   51.2590 C   0  0  0  0  0  0  0  0  0  0  0  0
   68.0970   28.0290   50.1490 C   0  0  0  0  0  0  0  0  0  0  0  0
   67.7660   26.7250   49.7760 C   0  0  0  0  0  0  0  0  0  0  0  0
   66.8160   26.0090   50.5060 C   0  0  0  0  0  0  0  0  0  0  0  0
   66.1980   26.5940   51.6160 C   0  0  0  0  0  0  0  0  0  0  0  0
   64.0310   29.0800   51.6620 C   0  0  0  0  0  0  0  0  0  0  0  0
   63.0980   27.8860   51.9530 C   0  0  0  0  0  0  0  0  0  0  0  0
   59.5300   30.5530   48.3230 C   0  0  0  0  0  0  0  0  0  0  0  0
   59.5256   32.0181   55.1498 H   0  0  0  0  0  0  0  0  0  0  0  0
   58.2342   31.8900   53.9078 H   0  0  0  0  0  0  0  0  0  0  0  0
   59.5993   30.7225   53.9078 H   0  0  0  0  0  0  0  0  0  0  0  0
   60.7968   33.2947   53.7853 H   0  0  0  0  0  0  0  0  0  0  0  0
   60.6629   32.0834   52.4575 H   0  0  0  0  0  0  0  0  0  0  0  0
   58.9472   34.5356   54.3253 H   0  0  0  0  0  0  0  0  0  0  0  0
   59.6093   35.5828   53.0246 H   0  0  0  0  0  0  0  0  0  0  0  0
   57.8676   35.1434   53.0246 H   0  0  0  0  0  0  0  0  0  0  0  0
   57.7151   32.1276   52.8331 H   0  0  0  0  0  0  0  0  0  0  0  0
   57.1329   33.6279   51.9965 H   0  0  0  0  0  0  0  0  0  0  0  0
   57.8811   31.1113   50.8297 H   0  0  0  0  0  0  0  0  0  0  0  0
   57.3450   32.6521   50.0167 H   0  0  0  0  0  0  0  0  0  0  0  0
   59.7410   33.3190   50.2570 H   0  0  0  0  0  0  0  0  0  0  0  0
   60.1420   31.8350   50.6210 H   0  0  0  0  0  0  0  0  0  0  0  0
   59.3822   34.6900   48.9284 H   0  0  0  0  0  0  0  0  0  0  0  0
   59.3034   36.3273   47.0721 H   0  0  0  0  0  0  0  0  0  0  0  0
   59.2634   35.5483   44.7153 H   0  0  0  0  0  0  0  0  0  0  0  0
   59.1836   33.1242   44.2102 H   0  0  0  0  0  0  0  0  0  0  0  0
   57.6603   30.0749   44.8225 H   0  0  0  0  0  0  0  0  0  0  0  0
   58.2061   31.6358   44.1209 H   0  0  0  0  0  0  0  0  0  0  0  0
   59.3078   30.2170   44.1209 H   0  0  0  0  0  0  0  0  0  0  0  0
   59.4916   28.5914   45.4849 H   0  0  0  0  0  0  0  0  0  0  0  0
   59.8725   26.8071   47.1462 H   0  0  0  0  0  0  0  0  0  0  0  0
   60.0038   27.3499   49.5525 H   0  0  0  0  0  0  0  0  0  0  0  0
   59.0454   28.7455   52.2217 H   0  0  0  0  0  0  0  0  0  0  0  0
   60.2588   27.8083   51.2800 H   0  0  0  0  0  0  0  0  0  0  0  0
   61.6545   30.0677   52.2631 H   0  0  0  0  0  0  0  0  0  0  0  0
   60.5890   29.4419   53.6374 H   0  0  0  0  0  0  0  0  0  0  0  0
   61.3580   26.7868   54.4739 H   0  0  0  0  0  0  0  0  0  0  0  0
   60.4040   26.9209   52.9577 H   0  0  0  0  0  0  0  0  0  0  0  0
   61.9720   26.0445   52.9577 H   0  0  0  0  0  0  0  0  0  0  0  0
   62.1678   28.8836   55.0364 H   0  0  0  0  0  0  0  0  0  0  0  0
   63.5095   27.7371   54.5689 H   0  0  0  0  0  0  0  0  0  0  0  0
   63.2322   30.6671   53.7624 H   0  0  0  0  0  0  0  0  0  0  0  0
   64.4474   29.9146   54.9012 H   0  0  0  0  0  0  0  0  0  0  0  0
   65.6828   31.3892   53.4290 H   0  0  0  0  0  0  0  0  0  0  0  0
   66.3284   30.6633   51.9181 H   0  0  0  0  0  0  0  0  0  0  0  0
   64.7132   31.4492   51.9181 H   0  0  0  0  0  0  0  0  0  0  0  0
   66.6238   29.0601   53.8034 H   0  0  0  0  0  0  0  0  0  0  0  0
   65.3501   27.7342   53.7497 H   0  0  0  0  0  0  0  0  0  0  0  0
   67.7442   29.6472   51.5444 H   0  0  0  0  0  0  0  0  0  0  0  0
   68.8407   28.5944   49.5682 H   0  0  0  0  0  0  0  0  0  0  0  0
   68.2543   26.2615   48.9061 H   0  0  0  0  0  0  0  0  0  0  0  0
   66.5530   24.9833   50.2080 H   0  0  0  0  0  0  0  0  0  0  0  0
   65.4410   26.0302   52.1808 H   0  0  0  0  0  0  0  0  0  0  0  0
   63.4218   29.9152   51.2860 H   0  0  0  0  0  0  0  0  0  0  0  0
   64.7721   28.7409   50.9232 H   0  0  0  0  0  0  0  0  0  0  0  0
   62.5367   27.6483   51.0373 H   0  0  0  0  0  0  0  0  0  0  0  0
   63.7297   27.0457   52.2767 H   0  0  0  0  0  0  0  0  0  0  0  0
  1  2  1  0
  2  3  1  0
  3  4  1  0
  3  5  1  0
  5  6  1  0
  6  7  1  0
  7  8  1  0
  8  9  2  0
  9 10  1  0
 10 11  2  0
 11 12  1  0
 12 13  2  0
 13 14  1  0
 14 15  2  0
 15 16  1  0
 15 17  1  0
 17 18  2  0
 18 19  1  0
 19 20  2  0
 20 21  1  0
 21 22  1  0
 22 23  1  0
 23 24  1  0
 25 24  1  6
 25 26  1  0
 25 27  1  0
 27 28  1  0
 28 29  1  0
 29 30  1  6
 29 31  1  0
 31 32  1  0
 32 33  2  0
 33 34  1  0
 34 35  2  0
 35 36  1  0
 36 37  2  0
 29 38  1  0
 38 39  1  0
 21 40  2  0
 40  8  1  0
 14  9  1  0
 40 17  1  0
 39 25  1  0
 37 32  1  0
  1 41  1  0
  1 42  1  0
  1 43  1  0
  2 44  1  0
  2 45  1  0
  4 46  1  0
  4 47  1  0
  4 48  1  0
  5 49  1  0
  5 50  1  0
  6 51  1  0
  6 52  1  0
  7 53  1  0
  7 54  1  0
 10 55  1  0
 11 56  1  0
 12 57  1  0
 13 58  1  0
 16 59  1  0
 16 60  1  0
 16 61  1  0
 18 62  1  0
 19 63  1  0
 20 64  1  0
 23 65  1  0
 23 66  1  0
 24 67  1  0
 24 68  1  0
 26 69  1  0
 26 70  1  0
 26 71  1  0
 27 72  1  0
 27 73  1  0
 28 74  1  0
 28 75  1  0
 30 76  1  0
 30 77  1  0
 30 78  1  0
 31 79  1  0
 31 80  1  0
 33 81  1  0
 34 82  1  0
 35 83  1  0
 36 84  1  0
 37 85  1  0
 38 86  1  0
 38 87  1  0
 39 88  1  0
 39 89  1  0
M  CHG  4   7   1  15   1  25   1  29   1
M  END
>  <UniqueID>  (23) 
23

>  <SMILES>  (23) 
CCN(C)CC[NH2+]c1c2ccccc2[n+](C)c2cccc(OCC[N+]3(C)CC[N+](C)(Cc4ccccc4)CC3)c12

>  <Energy>  (23) 
156.411135199126

>  <Genealogy>  (23) 
CCN(C)CC[NH2+]c1c2ccccc2[n+](C)c2cccc(OCC[N+]3(C)CC[N+](C)(Cc4ccccc4)CC3)c12 (protonated)
CCN(C)CC[NH2+]c1c2ccccc2[n+](C)c2cccc(OCC[N+]3(C)CC[N+](C)(Cc4ccccc4)CC3)c12 (3D coordinates assigned)
CCN(C)CC[NH2+]c1c2ccccc2[n+](C)c2cccc(OCC[N+]3(C)CC[N+](C)(Cc4ccccc4)CC3)c12 (nonaromatic ring conformer: 156.411135199126 kcal/mol)

>  <smiles>  (23) 
CCN(C)CCNc1c2ccccc2[n+](C)c2cccc(OCC[N+]3(C)CC[N+](C)(Cc4ccccc4)CC3)c12

>  <score_type>  (23) 
oracle

>  <origin>  (23) 
adg

>  <m_score__min__energy>  (23) 
-3.3100000000000001

>  <m_primary>  (23) 
energy

$$$$
23:0
     RDKit          3D

 56 59  0  0  0  0  0  0  0  0999 V2000
   57.0220   30.9660   42.5620 C   0  0  0  0  0  0  0  0  0  0  0  0
   56.5080   29.7980   43.4090 C   0  0  0  0  0  0  0  0  0  0  0  0
   57.3550   28.5960   43.2790 N   0  0  0  0  0  0  0  0  0  0  0  0
   57.8340   28.0810   44.5760 C   0  0  0  0  0  0  0  0  0  0  0  0
   58.9130   28.9850   45.1960 C   0  0  0  0  0  0  0  0  0  0  0  0
   58.3130   29.9500   46.1170 N   0  0  0  0  0  0  0  0  0  0  0  0
   59.0900   30.9970   46.7220 C   0  0  0  0  0  0  0  0  0  0  0  0
   59.0560   32.2950   46.1890 C   0  0  0  0  0  0  0  0  0  0  0  0
   58.3690   32.5750   44.9910 C   0  0  0  0  0  0  0  0  0  0  0  0
   58.3100   33.8750   44.4930 C   0  0  0  0  0  0  0  0  0  0  0  0
   58.9340   34.9140   45.1790 C   0  0  0  0  0  0  0  0  0  0  0  0
   59.6150   34.6600   46.3680 C   0  0  0  0  0  0  0  0  0  0  0  0
   59.6860   33.3490   46.9000 C   0  0  0  0  0  0  0  0  0  0  0  0
   60.3360   33.0870   48.0860 N   0  0  0  0  0  0  0  0  0  0  0  0
   60.5270   34.1790   49.0610 C   0  0  0  0  0  0  0  0  0  0  0  0
   60.6350   31.7850   48.4400 C   0  0  0  0  0  0  0  0  0  0  0  0
   59.9090   30.7300   47.8360 C   0  0  0  0  0  0  0  0  0  0  0  0
   60.0340   29.4360   48.3550 C   0  0  0  0  0  0  0  0  0  0  0  0
   60.7990   29.2140   49.4960 C   0  0  0  0  0  0  0  0  0  0  0  0
   60.8030   27.9520   50.1120 C   0  0  0  0  0  0  0  0  0  0  0  0
   61.5440   27.7400   51.2740 C   0  0  0  0  0  0  0  0  0  0  0  0
   62.2780   28.7850   51.8330 C   0  0  0  0  0  0  0  0  0  0  0  0
   62.2970   30.0400   51.2180 C   0  0  0  0  0  0  0  0  0  0  0  0
   61.5840   30.2680   50.0170 C   0  0  0  0  0  0  0  0  0  0  0  0
   61.6310   31.4790   49.3550 N   0  0  0  0  0  0  0  0  0  0  0  0
   62.8810   32.2900   49.4210 C   0  0  0  0  0  0  0  0  0  0  0  0
   63.5230   32.4800   48.0410 C   0  0  0  0  0  0  0  0  0  0  0  0
   57.3761   31.7706   43.2233 H   0  0  0  0  0  0  0  0  0  0  0  0
   57.8516   30.6214   41.9272 H   0  0  0  0  0  0  0  0  0  0  0  0
   56.2075   31.3449   41.9272 H   0  0  0  0  0  0  0  0  0  0  0  0
   56.4919   30.1068   44.4646 H   0  0  0  0  0  0  0  0  0  0  0  0
   55.5006   29.5401   43.0503 H   0  0  0  0  0  0  0  0  0  0  0  0
   58.1820   28.8140   42.6740 H   0  0  0  0  0  0  0  0  0  0  0  0
   56.8120   27.8490   42.7830 H   0  0  0  0  0  0  0  0  0  0  0  0
   56.9822   28.0191   45.2692 H   0  0  0  0  0  0  0  0  0  0  0  0
   58.2810   27.0910   44.4026 H   0  0  0  0  0  0  0  0  0  0  0  0
   59.6340   28.3618   45.7453 H   0  0  0  0  0  0  0  0  0  0  0  0
   59.4200   29.5345   44.3892 H   0  0  0  0  0  0  0  0  0  0  0  0
   57.3030   29.8600   46.3690 H   0  0  0  0  0  0  0  0  0  0  0  0
   57.8744   31.7592   44.4435 H   0  0  0  0  0  0  0  0  0  0  0  0
   57.7700   34.0808   43.5570 H   0  0  0  0  0  0  0  0  0  0  0  0
   58.8892   35.9385   44.7810 H   0  0  0  0  0  0  0  0  0  0  0  0
   60.1041   35.4888   46.9007 H   0  0  0  0  0  0  0  0  0  0  0  0
   60.4564   33.7755   50.0819 H   0  0  0  0  0  0  0  0  0  0  0  0
   61.5182   34.6328   48.9138 H   0  0  0  0  0  0  0  0  0  0  0  0
   59.7487   34.9423   48.9138 H   0  0  0  0  0  0  0  0  0  0  0  0
   59.5272   28.5941   47.8606 H   0  0  0  0  0  0  0  0  0  0  0  0
   60.2194   27.1277   49.6762 H   0  0  0  0  0  0  0  0  0  0  0  0
   61.5494   26.7481   51.7496 H   0  0  0  0  0  0  0  0  0  0  0  0
   62.8444   28.6213   52.7617 H   0  0  0  0  0  0  0  0  0  0  0  0
   62.8727   30.8597   51.6726 H   0  0  0  0  0  0  0  0  0  0  0  0
   62.6400   33.2787   49.8385 H   0  0  0  0  0  0  0  0  0  0  0  0
   63.5996   31.7511   50.0560 H   0  0  0  0  0  0  0  0  0  0  0  0
   64.5712   32.7902   48.1638 H   0  0  0  0  0  0  0  0  0  0  0  0
   63.4840   31.5318   47.4848 H   0  0  0  0  0  0  0  0  0  0  0  0
   62.9742   33.2542   47.4848 H   0  0  0  0  0  0  0  0  0  0  0  0
  1  2  1  0
  2  3  1  0
  3  4  1  0
  4  5  1  0
  5  6  1  0
  6  7  1  0
  7  8  2  0
  8  9  1  0
  9 10  2  0
 10 11  1  0
 11 12  2  0
 12 13  1  0
 13 14  2  0
 14 15  1  0
 14 16  1  0
 16 17  2  0
 17 18  1  0
 18 19  2  0
 19 20  1  0
 20 21  2  0
 21 22  1  0
 22 23  2  0
 23 24  1  0
 24 25  2  0
 25 26  1  0
 26 27  1  0
 17  7  1  0
 24 19  1  0
 13  8  1  0
 25 16  1  0
  1 28  1  0
  1 29  1  0
  1 30  1  0
  2 31  1  0
  2 32  1  0
  3 33  1  0
  3 34  1  0
  4 35  1  0
  4 36  1  0
  5 37  1  0
  5 38  1  0
  6 39  1  0
  9 40  1  0
 10 41  1  0
 11 42  1  0
 12 43  1  0
 15 44  1  0
 15 45  1  0
 15 46  1  0
 18 47  1  0
 20 48  1  0
 21 49  1  0
 22 50  1  0
 23 51  1  0
 26 52  1  0
 26 53  1  0
 27 54  1  0
 27 55  1  0
 27 56  1  0
M  CHG  3   3   1  14   1  25   1
M  END
>  <UniqueID>  (24) 
24

>  <SMILES>  (24) 
CC[NH2+]CCNc1c2ccccc2[n+](C)c2c1cc1ccccc1[n+]2CC

>  <Energy>  (24) 
106.28011385627718

>  <Genealogy>  (24) 
CC[NH2+]CCNc1c2ccccc2[n+](C)c2c1cc1ccccc1[n+]2CC (protonated)
CC[NH2+]CCNc1c2ccccc2[n+](C)c2c1cc1ccccc1[n+]2CC (3D coordinates assigned)
CC[NH2+]CCNc1c2ccccc2[n+](C)c2c1cc1ccccc1[n+]2CC (optimized conformer: 106.28011385627718 kcal/mol)

>  <smiles>  (24) 
CCNCCNc1c2ccccc2[n+](C)c2c1cc1ccccc1[n+]2CC

>  <score_type>  (24) 
oracle

>  <origin>  (24) 
adg

>  <m_score__min__energy>  (24) 
-3.8900000000000001

>  <m_primary>  (24) 
energy

$$$$
24:0
     RDKit          3D

 59 64  0  0  0  0  0  0  0  0999 V2000
   54.3610   30.4240   53.1090 C   0  0  0  0  0  0  0  0  0  0  0  0
   55.7090   29.8770   53.0230 N   0  0  0  0  0  0  0  0  0  0  0  0
   56.5250   30.0890   51.9910 N   0  0  0  0  0  0  0  0  0  0  0  0
   57.6720   29.4730   52.3320 C   0  0  0  0  0  0  0  0  0  0  0  0
   58.8600   29.3860   51.6150 C   0  0  0  0  0  0  0  0  0  0  0  0
   59.9360   28.6830   52.2080 C   0  0  0  0  0  0  0  0  0  0  0  0
   61.2580   28.5870   51.4940 C   0  0  0  0  0  0  0  0  0  0  0  0
   61.1710   29.2430   50.1890 N   0  0  0  0  0  0  0  0  0  0  0  0
   61.7600   30.3970   49.9130 N   0  0  0  0  0  0  0  0  0  0  0  0
   61.4230   30.7550   48.6520 C   0  0  0  0  0  0  0  0  0  0  0  0
   62.0330   31.9120   47.9770 C   0  0  0  0  0  0  0  0  0  0  0  0
   61.2320   32.9470   47.4650 C   0  0  0  0  0  0  0  0  0  0  0  0
   61.8180   34.0250   46.7950 C   0  0  0  0  0  0  0  0  0  0  0  0
   63.2040   34.0670   46.6130 C   0  0  0  0  0  0  0  0  0  0  0  0
   63.7710   35.1110   45.9610 F   0  0  0  0  0  0  0  0  0  0  0  0
   64.0030   33.0260   47.0950 C   0  0  0  0  0  0  0  0  0  0  0  0
   63.4190   31.9470   47.7680 C   0  0  0  0  0  0  0  0  0  0  0  0
   60.5630   29.7910   48.1230 C   0  0  0  0  0  0  0  0  0  0  0  0
   59.8360   29.6700   46.9230 C   0  0  0  0  0  0  0  0  0  0  0  0
   59.1020   28.4720   46.6990 C   0  0  0  0  0  0  0  0  0  0  0  0
   59.0190   27.4990   47.7460 C   0  0  0  0  0  0  0  0  0  0  0  0
   58.2890   26.3660   47.6260 F   0  0  0  0  0  0  0  0  0  0  0  0
   59.6810   27.7060   48.9660 C   0  0  0  0  0  0  0  0  0  0  0  0
   60.4500   28.8550   49.1190 C   0  0  0  0  0  0  0  0  0  0  0  0
   58.4680   28.3270   45.3130 C   0  0  1  0  0  0  0  0  0  0  0  0
   57.6580   27.0330   45.0710 C   0  0  0  0  0  0  0  0  0  0  0  0
   56.2670   27.1270   45.6230 C   0  0  0  0  0  0  0  0  0  0  0  0
   55.5200   28.0860   45.3000 O   0  0  0  0  0  0  0  0  0  0  0  0
   55.7860   26.1350   46.4690 O   0  0  0  0  0  0  0  0  0  0  0  0
   57.6240   29.5870   44.9880 C   0  0  0  0  0  0  0  0  0  0  0  0
   58.2680   30.9200   45.4390 C   0  0  0  0  0  0  0  0  0  0  0  0
   59.7230   30.7830   45.9100 C   0  0  0  0  0  0  0  0  0  0  0  0
   59.7770   28.1050   53.5020 C   0  0  0  0  0  0  0  0  0  0  0  0
   60.8020   27.4360   54.0860 F   0  0  0  0  0  0  0  0  0  0  0  0
   58.5540   28.2210   54.1930 C   0  0  0  0  0  0  0  0  0  0  0  0
   57.5290   28.9150   53.5640 C   0  0  0  0  0  0  0  0  0  0  0  0
   56.2880   29.1800   53.9940 N   0  0  0  0  0  0  0  0  0  0  0  0
   54.0785   30.5386   54.1659 H   0  0  0  0  0  0  0  0  0  0  0  0
   54.3312   31.4054   52.6130 H   0  0  0  0  0  0  0  0  0  0  0  0
   53.6558   29.7409   52.6130 H   0  0  0  0  0  0  0  0  0  0  0  0
   58.9603   29.8474   50.6215 H   0  0  0  0  0  0  0  0  0  0  0  0
   62.0347   29.0790   52.0979 H   0  0  0  0  0  0  0  0  0  0  0  0
   61.5137   27.5270   51.3489 H   0  0  0  0  0  0  0  0  0  0  0  0
   60.1400   32.9088   47.5919 H   0  0  0  0  0  0  0  0  0  0  0  0
   61.1884   34.8410   46.4106 H   0  0  0  0  0  0  0  0  0  0  0  0
   65.0923   33.0551   46.9450 H   0  0  0  0  0  0  0  0  0  0  0  0
   64.0495   31.1234   48.1343 H   0  0  0  0  0  0  0  0  0  0  0  0
   59.5937   26.9754   49.7837 H   0  0  0  0  0  0  0  0  0  0  0  0
   59.3139   28.2366   44.6157 H   0  0  0  0  0  0  0  0  0  0  0  0
   57.5982   26.8492   43.9881 H   0  0  0  0  0  0  0  0  0  0  0  0
   58.1726   26.2095   45.5877 H   0  0  0  0  0  0  0  0  0  0  0  0
   57.4728   29.6287   43.8992 H   0  0  0  0  0  0  0  0  0  0  0  0
   56.6822   29.4876   45.5475 H   0  0  0  0  0  0  0  0  0  0  0  0
   58.2434   31.6203   44.5911 H   0  0  0  0  0  0  0  0  0  0  0  0
   57.6868   31.2784   46.3014 H   0  0  0  0  0  0  0  0  0  0  0  0
   60.3654   30.5559   45.0464 H   0  0  0  0  0  0  0  0  0  0  0  0
   60.0421   31.7275   46.3748 H   0  0  0  0  0  0  0  0  0  0  0  0
   58.4170   27.7792   55.1910 H   0  0  0  0  0  0  0  0  0  0  0  0
   55.8520   28.9130   54.9060 H   0  0  0  0  0  0  0  0  0  0  0  0
  1  2  1  0
  2  3  1  0
  3  4  2  0
  4  5  1  0
  5  6  2  0
  6  7  1  0
  7  8  1  0
  8  9  1  0
  9 10  2  0
 10 11  1  0
 11 12  2  0
 12 13  1  0
 13 14  2  0
 14 15  1  0
 14 16  1  0
 16 17  2  0
 10 18  1  0
 18 19  2  0
 19 20  1  0
 20 21  2  0
 21 22  1  0
 21 23  1  0
 23 24  2  0
 20 25  1  0
 25 26  1  0
 26 27  1  0
 27 28  2  0
 27 29  1  0
 25 30  1  0
 30 31  1  0
 31 32  1  0
  6 33  1  0
 33 34  1  0
 33 35  2  0
 35 36  1  0
 36 37  2  0
 37  2  1  0
 36  4  1  0
 24  8  1  0
 17 11  1  0
 24 18  1  0
 32 19  1  0
  1 38  1  0
  1 39  1  0
  1 40  1  0
  5 41  1  0
  7 42  1  0
  7 43  1  0
 12 44  1  0
 13 45  1  0
 16 46  1  0
 17 47  1  0
 23 48  1  0
 25 49  1  6
 26 50  1  0
 26 51  1  0
 30 52  1  0
 30 53  1  0
 31 54  1  0
 31 55  1  0
 32 56  1  0
 32 57  1  0
 35 58  1  0
 37 59  1  0
M  CHG  2  29  -1  37   1
M  END
>  <UniqueID>  (25) 
25

>  <SMILES>  (25) 
Cn1nc2cc(Cn3nc(-c4ccc(F)cc4)c4c5c(c(F)cc43)[C@@H](CC(=O)[O-])CCC5)c(F)cc2[nH+]1

>  <Energy>  (25) 
164.40110973788603

>  <Genealogy>  (25) 
Cn1nc2cc(Cn3nc(-c4ccc(F)cc4)c4c5c(c(F)cc43)C(CC(=O)[O-])CCC5)c(F)cc2[nH+]1 (protonated)
Cn1nc2cc(Cn3nc(-c4ccc(F)cc4)c4c5c(c(F)cc43)[C@@H](CC(=O)[O-])CCC5)c(F)cc2[nH+]1 (chirality)
Cn1nc2cc(Cn3nc(-c4ccc(F)cc4)c4c5c(c(F)cc43)[C@@H](CC(=O)[O-])CCC5)c(F)cc2[nH+]1 (3D coordinates assigned)
Cn1nc2cc(Cn3nc(-c4ccc(F)cc4)c4c5c(c(F)cc43)[C@@H](CC(=O)[O-])CCC5)c(F)cc2[nH+]1 (nonaromatic ring conformer: 164.40110973788603 kcal/mol)

>  <smiles>  (25) 
Cn1nc2cc(F)c(Cn3nc(-c4ccc(F)cc4)c4c5c(c(F)cc43)C(CC(=O)O)CCC5)cc2n1

>  <score_type>  (25) 
oracle

>  <origin>  (25) 
adg

>  <m_score__min__energy>  (25) 
-10.6

>  <m_primary>  (25) 
energy

$$$$
25:0
     RDKit          3D

 45 48  0  0  0  0  0  0  0  0999 V2000
   58.1240   27.0790   42.9510 C   0  0  0  0  0  0  0  0  0  0  0  0
   58.1100   27.4990   44.3500 N   0  0  0  0  0  0  0  0  0  0  0  0
   58.4290   26.7200   45.4020 C   0  0  0  0  0  0  0  0  0  0  0  0
   58.2440   27.4190   46.5780 C   0  0  0  0  0  0  0  0  0  0  0  0
   57.7840   28.6720   46.2270 C   0  0  0  0  0  0  0  0  0  0  0  0
   57.7110   28.6910   44.8470 C   0  0  0  0  0  0  0  0  0  0  0  0
   57.1820   29.8460   44.0320 C   0  0  0  0  0  0  0  0  0  0  0  0
   56.7360   30.9620   44.8780 N   0  0  0  0  0  0  0  0  0  0  0  0
   57.3070   32.2490   44.4460 C   0  0  0  0  0  0  0  0  0  0  0  0
   58.2920   32.8180   45.4960 C   0  0  1  0  0  0  0  0  0  0  0  0
   59.0600   34.0440   44.9230 C   0  0  0  0  0  0  0  0  0  0  0  0
   60.0650   34.5780   45.9690 C   0  0  2  0  0  0  0  0  0  0  0  0
   61.0790   33.4690   46.3210 C   0  0  0  0  0  0  0  0  0  0  0  0
   60.3320   32.2520   46.9080 C   0  0  1  0  0  0  0  0  0  0  0  0
   59.5730   32.6780   48.1830 C   0  0  0  0  0  0  0  0  0  0  0  0
   58.5570   33.7860   47.8330 C   0  0  1  0  0  0  0  0  0  0  0  0
   59.3050   35.0030   47.2440 C   0  0  0  0  0  0  0  0  0  0  0  0
   57.5470   33.2520   46.7930 C   0  0  0  0  0  0  0  0  0  0  0  0
   59.3260   31.7160   45.8680 C   0  0  0  0  0  0  0  0  0  0  0  0
   58.1606   25.9809   42.8982 H   0  0  0  0  0  0  0  0  0  0  0  0
   57.2133   27.4400   42.4507 H   0  0  0  0  0  0  0  0  0  0  0  0
   59.0086   27.4998   42.4507 H   0  0  0  0  0  0  0  0  0  0  0  0
   58.7842   25.6811   45.3339 H   0  0  0  0  0  0  0  0  0  0  0  0
   58.4277   27.0489   47.5975 H   0  0  0  0  0  0  0  0  0  0  0  0
   57.5262   29.4939   46.9111 H   0  0  0  0  0  0  0  0  0  0  0  0
   57.9798   30.2038   43.3646 H   0  0  0  0  0  0  0  0  0  0  0  0
   56.3138   29.4870   43.4599 H   0  0  0  0  0  0  0  0  0  0  0  0
   57.0320   30.7730   45.8630 H   0  0  0  0  0  0  0  0  0  0  0  0
   57.8434   32.1008   43.4972 H   0  0  0  0  0  0  0  0  0  0  0  0
   56.4826   32.9669   44.3239 H   0  0  0  0  0  0  0  0  0  0  0  0
   58.3415   34.8378   44.6706 H   0  0  0  0  0  0  0  0  0  0  0  0
   59.6091   33.7353   44.0212 H   0  0  0  0  0  0  0  0  0  0  0  0
   60.5989   35.4456   45.5541 H   0  0  0  0  0  0  0  0  0  0  0  0
   61.7964   33.8507   47.0623 H   0  0  0  0  0  0  0  0  0  0  0  0
   61.6170   33.1637   45.4114 H   0  0  0  0  0  0  0  0  0  0  0  0
   61.0573   31.4640   47.1590 H   0  0  0  0  0  0  0  0  0  0  0  0
   60.2894   33.0591   48.9257 H   0  0  0  0  0  0  0  0  0  0  0  0
   59.0396   31.8103   48.5985 H   0  0  0  0  0  0  0  0  0  0  0  0
   58.0195   34.0895   48.7435 H   0  0  0  0  0  0  0  0  0  0  0  0
   60.0209   35.3866   47.9859 H   0  0  0  0  0  0  0  0  0  0  0  0
   58.5791   35.7897   46.9908 H   0  0  0  0  0  0  0  0  0  0  0  0
   56.8233   34.0437   46.5491 H   0  0  0  0  0  0  0  0  0  0  0  0
   57.0225   32.3819   47.2148 H   0  0  0  0  0  0  0  0  0  0  0  0
   59.8698   31.4086   44.9626 H   0  0  0  0  0  0  0  0  0  0  0  0
   58.7919   30.8559   46.2982 H   0  0  0  0  0  0  0  0  0  0  0  0
  1  2  1  0
  2  3  1  0
  3  4  2  0
  4  5  1  0
  5  6  2  0
  6  7  1  0
  7  8  1  0
  8  9  1  0
 10  9  1  6
 10 11  1  0
 11 12  1  0
 12 13  1  0
 13 14  1  0
 14 15  1  0
 15 16  1  0
 16 17  1  0
 16 18  1  0
 14 19  1  0
  6  2  1  0
 18 10  1  0
 19 10  1  0
 17 12  1  0
  1 20  1  0
  1 21  1  0
  1 22  1  0
  3 23  1  0
  4 24  1  0
  5 25  1  0
  7 26  1  0
  7 27  1  0
  8 28  1  0
  9 29  1  0
  9 30  1  0
 11 31  1  0
 11 32  1  0
 12 33  1  6
 13 34  1  0
 13 35  1  0
 14 36  1  1
 15 37  1  0
 15 38  1  0
 16 39  1  1
 17 40  1  0
 17 41  1  0
 18 42  1  0
 18 43  1  0
 19 44  1  0
 19 45  1  0
M  END
>  <UniqueID>  (26) 
26

>  <SMILES>  (26) 
Cn1cccc1CNCC12CC3CC(CC(C3)C1)C2

>  <Energy>  (26) 
67.72789796099833

>  <Genealogy>  (26) 
Cn1cccc1CNCC12CC3CC(CC(C3)C1)C2 (3D coordinates assigned)
Cn1cccc1CNCC12CC3CC(CC(C3)C1)C2 (nonaromatic ring conformer: 67.72789796099833 kcal/mol)

>  <smiles>  (26) 
Cn1cccc1CNCC12CC3CC(CC(C3)C1)C2

>  <score_type>  (26) 
oracle

>  <origin>  (26) 
adg

>  <m_score__min__energy>  (26) 
-7.54

>  <m_primary>  (26) 
energy

$$$$
26:0
     RDKit          3D

 58 60  0  0  0  0  0  0  0  0999 V2000
   59.5450   34.9330   46.4650 C   0  0  0  0  0  0  0  0  0  0  0  0
   59.4610   33.9850   45.2580 C   0  0  0  0  0  0  0  0  0  0  0  0
   58.4030   32.9520   45.3630 N   0  0  0  0  0  0  0  0  0  0  0  0
   57.0590   33.4370   45.7450 C   0  0  0  0  0  0  0  0  0  0  0  0
   56.6570   34.6380   44.8880 C   0  0  0  0  0  0  0  0  0  0  0  0
   58.4310   31.8910   44.3240 C   0  0  0  0  0  0  0  0  0  0  0  0
   57.5170   30.6880   44.6040 C   0  0  0  0  0  0  0  0  0  0  0  0
   57.4770   30.4380   45.9940 O   0  0  0  0  0  0  0  0  0  0  0  0
   58.4620   29.5000   46.3760 C   0  0  0  0  0  0  0  0  0  0  0  0
   59.5330   30.1420   47.2740 C   0  0  0  0  0  0  0  0  0  0  0  0
   59.4550   31.6180   47.3110 N   0  0  0  0  0  0  0  0  0  0  0  0
   60.1410   32.1860   48.4610 C   0  0  0  0  0  0  0  0  0  0  0  0
   59.4800   32.2970   49.6970 C   0  0  0  0  0  0  0  0  0  0  0  0
   60.1400   32.7240   50.8210 C   0  0  0  0  0  0  0  0  0  0  0  0
   61.4700   33.0680   50.8010 N   0  0  0  0  0  0  0  0  0  0  0  0
   62.1570   33.4400   52.0520 C   0  0  0  0  0  0  0  0  0  0  0  0
   62.1520   33.0560   49.5950 C   0  0  0  0  0  0  0  0  0  0  0  0
   63.5060   33.4680   49.5090 C   0  0  0  0  0  0  0  0  0  0  0  0
   64.1810   33.4760   48.2910 C   0  0  0  0  0  0  0  0  0  0  0  0
   63.5300   33.0820   47.1280 C   0  0  0  0  0  0  0  0  0  0  0  0
   62.2020   32.6660   47.1730 C   0  0  0  0  0  0  0  0  0  0  0  0
   61.4930   32.6290   48.3960 C   0  0  0  0  0  0  0  0  0  0  0  0
   59.2440   32.7290   52.0140 C   0  0  0  0  0  0  0  0  0  0  0  0
   57.8660   32.3320   51.4670 C   0  0  0  0  0  0  0  0  0  0  0  0
   58.0550   31.9680   49.9890 C   0  0  0  0  0  0  0  0  0  0  0  0
   59.4932   34.3479   47.3951 H   0  0  0  0  0  0  0  0  0  0  0  0
   60.4956   35.4855   46.4319 H   0  0  0  0  0  0  0  0  0  0  0  0
   58.7063   35.6440   46.4319 H   0  0  0  0  0  0  0  0  0  0  0  0
   59.2646   34.5885   44.3596 H   0  0  0  0  0  0  0  0  0  0  0  0
   60.4202   33.4484   45.2130 H   0  0  0  0  0  0  0  0  0  0  0  0
   56.3279   32.6281   45.5996 H   0  0  0  0  0  0  0  0  0  0  0  0
   57.0799   33.7455   46.8006 H   0  0  0  0  0  0  0  0  0  0  0  0
   56.3761   35.4771   45.5414 H   0  0  0  0  0  0  0  0  0  0  0  0
   57.5046   34.9355   44.2530 H   0  0  0  0  0  0  0  0  0  0  0  0
   55.8012   34.3653   44.2530 H   0  0  0  0  0  0  0  0  0  0  0  0
   58.1220   32.3400   43.3685 H   0  0  0  0  0  0  0  0  0  0  0  0
   59.4593   31.5006   44.3089 H   0  0  0  0  0  0  0  0  0  0  0  0
   56.5017   30.9072   44.2419 H   0  0  0  0  0  0  0  0  0  0  0  0
   57.9094   29.8016   44.0840 H   0  0  0  0  0  0  0  0  0  0  0  0
   57.9794   28.6789   46.9263 H   0  0  0  0  0  0  0  0  0  0  0  0
   58.9536   29.1255   45.4660 H   0  0  0  0  0  0  0  0  0  0  0  0
   59.4058   29.7596   48.2975 H   0  0  0  0  0  0  0  0  0  0  0  0
   60.5139   29.8774   46.8524 H   0  0  0  0  0  0  0  0  0  0  0  0
   58.4500   31.9020   47.2810 H   0  0  0  0  0  0  0  0  0  0  0  0
   59.8700   32.0110   46.4350 H   0  0  0  0  0  0  0  0  0  0  0  0
   61.5543   33.1136   52.9123 H   0  0  0  0  0  0  0  0  0  0  0  0
   63.1422   32.9521   52.0883 H   0  0  0  0  0  0  0  0  0  0  0  0
   62.2869   34.5317   52.0883 H   0  0  0  0  0  0  0  0  0  0  0  0
   64.0326   33.7870   50.4206 H   0  0  0  0  0  0  0  0  0  0  0  0
   65.2328   33.7952   48.2492 H   0  0  0  0  0  0  0  0  0  0  0  0
   64.0663   33.0989   46.1677 H   0  0  0  0  0  0  0  0  0  0  0  0
   61.6973   32.3619   46.2442 H   0  0  0  0  0  0  0  0  0  0  0  0
   59.5894   31.9999   52.7618 H   0  0  0  0  0  0  0  0  0  0  0  0
   59.2263   33.7068   52.5175 H   0  0  0  0  0  0  0  0  0  0  0  0
   57.4750   31.4663   52.0217 H   0  0  0  0  0  0  0  0  0  0  0  0
   57.1480   33.1579   51.5780 H   0  0  0  0  0  0  0  0  0  0  0  0
   57.8628   30.8973   49.8256 H   0  0  0  0  0  0  0  0  0  0  0  0
   57.3595   32.5132   49.3340 H   0  0  0  0  0  0  0  0  0  0  0  0
  1  2  1  0
  2  3  1  0
  3  4  1  0
  4  5  1  0
  3  6  1  0
  6  7  1  0
  7  8  1  0
  8  9  1  0
  9 10  1  0
 10 11  1  0
 11 12  1  0
 12 13  2  0
 13 14  1  0
 14 15  2  0
 15 16  1  0
 15 17  1  0
 17 18  2  0
 18 19  1  0
 19 20  2  0
 20 21  1  0
 21 22  2  0
 14 23  1  0
 23 24  1  0
 24 25  1  0
 22 12  1  0
 25 13  1  0
 22 17  1  0
  1 26  1  0
  1 27  1  0
  1 28  1  0
  2 29  1  0
  2 30  1  0
  4 31  1  0
  4 32  1  0
  5 33  1  0
  5 34  1  0
  5 35  1  0
  6 36  1  0
  6 37  1  0
  7 38  1  0
  7 39  1  0
  9 40  1  0
  9 41  1  0
 10 42  1  0
 10 43  1  0
 11 44  1  0
 11 45  1  0
 16 46  1  0
 16 47  1  0
 16 48  1  0
 18 49  1  0
 19 50  1  0
 20 51  1  0
 21 52  1  0
 23 53  1  0
 23 54  1  0
 24 55  1  0
 24 56  1  0
 25 57  1  0
 25 58  1  0
M  CHG  2  11   1  15   1
M  END
>  <UniqueID>  (27) 
27

>  <SMILES>  (27) 
CCN(CC)CCOCC[NH2+]c1c2c([n+](C)c3ccccc13)CCC2

>  <Energy>  (27) 
82.66181313301331

>  <Genealogy>  (27) 
CCN(CC)CCOCC[NH2+]c1c2c([n+](C)c3ccccc13)CCC2 (protonated)
CCN(CC)CCOCC[NH2+]c1c2c([n+](C)c3ccccc13)CCC2 (3D coordinates assigned)
CCN(CC)CCOCC[NH2+]c1c2c([n+](C)c3ccccc13)CCC2 (nonaromatic ring conformer: 82.66181313301331 kcal/mol)

>  <smiles>  (27) 
CCN(CC)CCOCCNc1c2c([n+](C)c3ccccc13)CCC2

>  <score_type>  (27) 
oracle

>  <origin>  (27) 
adg

>  <m_score__min__energy>  (27) 
-3.4300000000000002

>  <m_primary>  (27) 
energy

$$$$
27:0
     RDKit          3D

 72 75  0  0  0  0  0  0  0  0999 V2000
   61.2810   27.8620   51.3320 C   0  0  0  0  0  0  0  0  0  0  0  0
   60.8970   29.3350   51.2110 C   0  0  0  0  0  0  0  0  0  0  0  0
   61.1500   29.8350   49.8510 N   0  0  0  0  0  0  0  0  0  0  0  0
   62.3380   30.6550   49.5940 C   0  0  0  0  0  0  0  0  0  0  0  0
   60.2760   29.4800   48.7550 C   0  0  0  0  0  0  0  0  0  0  0  0
   58.9860   28.9950   48.9920 C   0  0  0  0  0  0  0  0  0  0  0  0
   58.1690   28.6380   47.9270 C   0  0  0  0  0  0  0  0  0  0  0  0
   58.6320   28.7660   46.6070 C   0  0  0  0  0  0  0  0  0  0  0  0
   57.6840   28.3660   45.4860 C   0  0  0  0  0  0  0  0  0  0  0  0
   56.7450   29.4420   45.1330 N   0  0  0  0  0  0  0  0  0  0  0  0
   57.1240   30.1250   43.8890 C   0  0  0  0  0  0  0  0  0  0  0  0
   57.2160   31.6380   44.1260 C   0  0  0  0  0  0  0  0  0  0  0  0
   57.2650   31.9540   45.5070 O   0  0  0  0  0  0  0  0  0  0  0  0
   57.2530   33.3550   45.7320 C   0  0  0  0  0  0  0  0  0  0  0  0
   57.9610   33.6640   47.0560 C   0  0  0  0  0  0  0  0  0  0  0  0
   58.5640   32.4540   47.6350 N   0  0  0  0  0  0  0  0  0  0  0  0
   59.5930   32.8150   48.6000 C   0  0  0  0  0  0  0  0  0  0  0  0
   59.3050   32.8140   49.9910 C   0  0  0  0  0  0  0  0  0  0  0  0
   58.0620   32.3530   50.4940 C   0  0  0  0  0  0  0  0  0  0  0  0
   57.7540   32.4480   51.8480 C   0  0  0  0  0  0  0  0  0  0  0  0
   58.6670   33.0000   52.7330 C   0  0  0  0  0  0  0  0  0  0  0  0
   59.9140   33.4170   52.2770 C   0  0  0  0  0  0  0  0  0  0  0  0
   60.2850   33.2820   50.9120 C   0  0  0  0  0  0  0  0  0  0  0  0
   61.5560   33.5990   50.4780 N   0  0  0  0  0  0  0  0  0  0  0  0
   62.6420   33.7960   51.4670 C   0  0  0  0  0  0  0  0  0  0  0  0
   61.8340   33.6740   49.1270 C   0  0  0  0  0  0  0  0  0  0  0  0
   63.0580   34.2190   48.6540 C   0  0  0  0  0  0  0  0  0  0  0  0
   63.3820   34.1980   47.3010 C   0  0  0  0  0  0  0  0  0  0  0  0
   62.5040   33.6430   46.3840 C   0  0  0  0  0  0  0  0  0  0  0  0
   61.2700   33.1560   46.8060 C   0  0  0  0  0  0  0  0  0  0  0  0
   60.8870   33.2120   48.1700 C   0  0  0  0  0  0  0  0  0  0  0  0
   59.9070   29.2390   46.3760 N   0  0  0  0  0  0  0  0  0  0  0  0
   60.4570   29.3340   45.0150 C   0  0  0  0  0  0  0  0  0  0  0  0
   60.7130   29.5950   47.4260 C   0  0  0  0  0  0  0  0  0  0  0  0
   61.3525   27.5878   52.3949 H   0  0  0  0  0  0  0  0  0  0  0  0
   60.5145   27.2420   50.8441 H   0  0  0  0  0  0  0  0  0  0  0  0
   62.2527   27.6951   50.8441 H   0  0  0  0  0  0  0  0  0  0  0  0
   59.8277   29.4483   51.4429 H   0  0  0  0  0  0  0  0  0  0  0  0
   61.5079   29.9159   51.9176 H   0  0  0  0  0  0  0  0  0  0  0  0
   62.7847   30.9633   50.5508 H   0  0  0  0  0  0  0  0  0  0  0  0
   63.0705   30.0693   49.0192 H   0  0  0  0  0  0  0  0  0  0  0  0
   62.0501   31.5476   49.0192 H   0  0  0  0  0  0  0  0  0  0  0  0
   58.6176   28.8960   50.0238 H   0  0  0  0  0  0  0  0  0  0  0  0
   57.1561   28.2538   48.1178 H   0  0  0  0  0  0  0  0  0  0  0  0
   58.2778   28.1097   44.5962 H   0  0  0  0  0  0  0  0  0  0  0  0
   57.0927   27.5078   45.8379 H   0  0  0  0  0  0  0  0  0  0  0  0
   56.6990   30.1450   45.9080 H   0  0  0  0  0  0  0  0  0  0  0  0
   58.1010   29.7495   43.5508 H   0  0  0  0  0  0  0  0  0  0  0  0
   56.3611   29.9262   43.1219 H   0  0  0  0  0  0  0  0  0  0  0  0
   58.1268   32.0193   43.6413 H   0  0  0  0  0  0  0  0  0  0  0  0
   56.3156   32.1054   43.7008 H   0  0  0  0  0  0  0  0  0  0  0  0
   57.7761   33.8634   44.9087 H   0  0  0  0  0  0  0  0  0  0  0  0
   56.2132   33.7106   45.7796 H   0  0  0  0  0  0  0  0  0  0  0  0
   58.7518   34.4067   46.8745 H   0  0  0  0  0  0  0  0  0  0  0  0
   57.2160   34.0539   47.7652 H   0  0  0  0  0  0  0  0  0  0  0  0
   57.8270   31.8510   48.0610 H   0  0  0  0  0  0  0  0  0  0  0  0
   58.9610   31.8400   46.8890 H   0  0  0  0  0  0  0  0  0  0  0  0
   57.3286   31.9128   49.8023 H   0  0  0  0  0  0  0  0  0  0  0  0
   56.7836   32.0841   52.2167 H   0  0  0  0  0  0  0  0  0  0  0  0
   58.4058   33.1085   53.7960 H   0  0  0  0  0  0  0  0  0  0  0  0
   60.6270   33.8602   52.9878 H   0  0  0  0  0  0  0  0  0  0  0  0
   62.2297   33.7212   52.4841 H   0  0  0  0  0  0  0  0  0  0  0  0
   63.4115   33.0228   51.3255 H   0  0  0  0  0  0  0  0  0  0  0  0
   63.0909   34.7902   51.3255 H   0  0  0  0  0  0  0  0  0  0  0  0
   63.7626   34.6659   49.3708 H   0  0  0  0  0  0  0  0  0  0  0  0
   64.3371   34.6229   46.9587 H   0  0  0  0  0  0  0  0  0  0  0  0
   62.7824   33.5871   45.3213 H   0  0  0  0  0  0  0  0  0  0  0  0
   60.5801   32.7202   46.0684 H   0  0  0  0  0  0  0  0  0  0  0  0
   61.5396   29.5210   45.0693 H   0  0  0  0  0  0  0  0  0  0  0  0
   60.2742   28.3910   44.4790 H   0  0  0  0  0  0  0  0  0  0  0  0
   59.9685   30.1611   44.4790 H   0  0  0  0  0  0  0  0  0  0  0  0
   61.7236   29.9789   47.2229 H   0  0  0  0  0  0  0  0  0  0  0  0
  1  2  1  0
  2  3  1  0
  3  4  1  0
  3  5  1  0
  5  6  2  0
  6  7  1  0
  7  8  2  0
  8  9  1  0
  9 10  1  0
 10 11  1  0
 11 12  1  0
 12 13  1  0
 13 14  1  0
 14 15  1  0
 15 16  1  0
 16 17  1  0
 17 18  1  0
 18 19  2  0
 19 20  1  0
 20 21  2  0
 21 22  1  0
 22 23  2  0
 23 24  1  0
 24 25  1  0
 24 26  2  0
 26 27  1  0
 27 28  2  0
 28 29  1  0
 29 30  2  0
 30 31  1  0
  8 32  1  0
 32 33  1  0
 32 34  2  0
 34  5  1  0
 31 17  2  0
 23 18  1  0
 31 26  1  0
  1 35  1  0
  1 36  1  0
  1 37  1  0
  2 38  1  0
  2 39  1  0
  4 40  1  0
  4 41  1  0
  4 42  1  0
  6 43  1  0
  7 44  1  0
  9 45  1  0
  9 46  1  0
 10 47  1  0
 11 48  1  0
 11 49  1  0
 12 50  1  0
 12 51  1  0
 14 52  1  0
 14 53  1  0
 15 54  1  0
 15 55  1  0
 16 56  1  0
 16 57  1  0
 19 58  1  0
 20 59  1  0
 21 60  1  0
 22 61  1  0
 25 62  1  0
 25 63  1  0
 25 64  1  0
 27 65  1  0
 28 66  1  0
 29 67  1  0
 30 68  1  0
 33 69  1  0
 33 70  1  0
 33 71  1  0
 34 72  1  0
M  CHG  3  16   1  24   1  32   1
M  END
>  <UniqueID>  (28) 
28

>  <SMILES>  (28) 
CCN(C)c1ccc(CNCCOCC[NH2+]c2c3ccccc3[n+](C)c3ccccc23)[n+](C)c1

>  <Energy>  (28) 
104.60982366091051

>  <Genealogy>  (28) 
CCN(C)c1ccc(CNCCOCC[NH2+]c2c3ccccc3[n+](C)c3ccccc23)[n+](C)c1 (protonated)
CCN(C)c1ccc(CNCCOCC[NH2+]c2c3ccccc3[n+](C)c3ccccc23)[n+](C)c1 (3D coordinates assigned)
CCN(C)c1ccc(CNCCOCC[NH2+]c2c3ccccc3[n+](C)c3ccccc23)[n+](C)c1 (optimized conformer: 104.60982366091051 kcal/mol)

>  <smiles>  (28) 
CCN(C)c1ccc(CNCCOCCNc2c3ccccc3[n+](C)c3ccccc23)[n+](C)c1

>  <score_type>  (28) 
oracle

>  <origin>  (28) 
adg

>  <m_score__min__energy>  (28) 
-4.1399999999999997

>  <m_primary>  (28) 
energy

$$$$
28:0
     RDKit          3D

 52 54  0  0  0  0  0  0  0  0999 V2000
   63.3880   33.5110   46.7840 C   0  0  0  0  0  0  0  0  0  0  0  0
   62.6100   33.0580   48.0140 C   0  0  0  0  0  0  0  0  0  0  0  0
   62.0790   34.2230   48.7390 N   0  0  0  0  0  0  0  0  0  0  0  0
   62.4970   34.2590   50.1520 C   0  0  0  0  0  0  0  0  0  0  0  0
   61.5090   33.5270   51.0660 C   0  0  0  0  0  0  0  0  0  0  0  0
   60.1860   33.8200   50.6630 O   0  0  0  0  0  0  0  0  0  0  0  0
   59.2980   32.7990   51.0830 C   0  0  0  0  0  0  0  0  0  0  0  0
   58.9120   31.8540   49.9260 C   0  0  0  0  0  0  0  0  0  0  0  0
   59.5830   32.2190   48.6730 N   0  0  0  0  0  0  0  0  0  0  0  0
   59.4450   31.4210   47.4840 C   0  0  0  0  0  0  0  0  0  0  0  0
   59.5550   30.0220   47.5810 C   0  0  0  0  0  0  0  0  0  0  0  0
   60.0790   29.4230   48.7460 C   0  0  0  0  0  0  0  0  0  0  0  0
   60.1240   28.0390   48.8780 C   0  0  0  0  0  0  0  0  0  0  0  0
   59.6380   27.2280   47.8600 C   0  0  0  0  0  0  0  0  0  0  0  0
   59.1330   27.7970   46.6910 C   0  0  0  0  0  0  0  0  0  0  0  0
   59.1170   29.2040   46.5070 C   0  0  0  0  0  0  0  0  0  0  0  0
   58.6490   29.7810   45.3420 N   0  0  0  0  0  0  0  0  0  0  0  0
   58.3910   28.9380   44.1530 C   0  0  0  0  0  0  0  0  0  0  0  0
   58.4570   31.1480   45.2720 C   0  0  0  0  0  0  0  0  0  0  0  0
   57.7040   31.7330   44.2230 C   0  0  0  0  0  0  0  0  0  0  0  0
   57.5660   33.1120   44.1190 C   0  0  0  0  0  0  0  0  0  0  0  0
   58.2060   33.9480   45.0220 C   0  0  0  0  0  0  0  0  0  0  0  0
   58.9430   33.4150   46.0860 C   0  0  0  0  0  0  0  0  0  0  0  0
   59.7200   34.3170   46.8860 N   0  0  0  0  0  0  0  0  0  0  0  0
   60.6510   34.9600   46.3570 O   0  0  0  0  0  0  0  0  0  0  0  0
   59.2550   34.7160   48.1180 O   0  0  0  0  0  0  0  0  0  0  0  0
   58.9780   32.0040   46.2830 C   0  0  0  0  0  0  0  0  0  0  0  0
   64.2984   34.0411   47.1007 H   0  0  0  0  0  0  0  0  0  0  0  0
   63.6655   32.6333   46.1819 H   0  0  0  0  0  0  0  0  0  0  0  0
   62.7616   34.1856   46.1819 H   0  0  0  0  0  0  0  0  0  0  0  0
   61.7750   32.4150   47.6989 H   0  0  0  0  0  0  0  0  0  0  0  0
   63.2850   32.4994   48.6791 H   0  0  0  0  0  0  0  0  0  0  0  0
   61.0340   34.2190   48.6790 H   0  0  0  0  0  0  0  0  0  0  0  0
   63.4837   33.7812   50.2419 H   0  0  0  0  0  0  0  0  0  0  0  0
   62.5324   35.3123   50.4672 H   0  0  0  0  0  0  0  0  0  0  0  0
   61.6811   32.4427   50.9978 H   0  0  0  0  0  0  0  0  0  0  0  0
   61.6570   33.8580   52.1045 H   0  0  0  0  0  0  0  0  0  0  0  0
   59.7836   32.2101   51.8751 H   0  0  0  0  0  0  0  0  0  0  0  0
   58.3787   33.2790   51.4496 H   0  0  0  0  0  0  0  0  0  0  0  0
   59.1976   30.8266   50.1959 H   0  0  0  0  0  0  0  0  0  0  0  0
   57.8266   31.9358   49.7673 H   0  0  0  0  0  0  0  0  0  0  0  0
   60.3890   32.8810   48.7280 H   0  0  0  0  0  0  0  0  0  0  0  0
   60.4568   30.0586   49.5604 H   0  0  0  0  0  0  0  0  0  0  0  0
   60.5444   27.5867   49.7883 H   0  0  0  0  0  0  0  0  0  0  0  0
   59.6515   26.1342   47.9763 H   0  0  0  0  0  0  0  0  0  0  0  0
   58.7403   27.1437   45.8979 H   0  0  0  0  0  0  0  0  0  0  0  0
   58.0833   27.9326   44.4762 H   0  0  0  0  0  0  0  0  0  0  0  0
   57.5902   29.3903   43.5496 H   0  0  0  0  0  0  0  0  0  0  0  0
   59.3078   28.8646   43.5496 H   0  0  0  0  0  0  0  0  0  0  0  0
   57.2204   31.0840   43.4781 H   0  0  0  0  0  0  0  0  0  0  0  0
   56.9471   33.5420   43.3177 H   0  0  0  0  0  0  0  0  0  0  0  0
   58.1338   35.0389   44.9010 H   0  0  0  0  0  0  0  0  0  0  0  0
  1  2  1  0
  2  3  1  0
  3  4  1  0
  4  5  1  0
  5  6  1  0
  6  7  1  0
  7  8  1  0
  8  9  1  0
  9 10  1  0
 10 11  2  0
 11 12  1  0
 12 13  2  0
 13 14  1  0
 14 15  2  0
 15 16  1  0
 16 17  2  0
 17 18  1  0
 17 19  1  0
 19 20  2  0
 20 21  1  0
 21 22  2  0
 22 23  1  0
 23 24  1  0
 24 25  2  0
 24 26  1  0
 23 27  2  0
 27 10  1  0
 16 11  1  0
 27 19  1  0
  1 28  1  0
  1 29  1  0
  1 30  1  0
  2 31  1  0
  2 32  1  0
  3 33  1  0
  4 34  1  0
  4 35  1  0
  5 36  1  0
  5 37  1  0
  7 38  1  0
  7 39  1  0
  8 40  1  0
  8 41  1  0
  9 42  1  0
 12 43  1  0
 13 44  1  0
 14 45  1  0
 15 46  1  0
 18 47  1  0
 18 48  1  0
 18 49  1  0
 20 50  1  0
 21 51  1  0
 22 52  1  0
M  CHG  3  17   1  24   1  26  -1
M  END
>  <UniqueID>  (29) 
29

>  <SMILES>  (29) 
CCNCCOCCNc1c2ccccc2[n+](C)c2cccc([N+](=O)[O-])c12

>  <Energy>  (29) 
88.44307164759464

>  <Genealogy>  (29) 
CCNCCOCCNc1c2ccccc2[n+](C)c2cccc([N+](=O)[O-])c12 (3D coordinates assigned)
CCNCCOCCNc1c2ccccc2[n+](C)c2cccc([N+](=O)[O-])c12 (optimized conformer: 88.44307164759464 kcal/mol)

>  <smiles>  (29) 
CCNCCOCCNc1c2ccccc2[n+](C)c2cccc([N+](=O)[O-])c12

>  <score_type>  (29) 
oracle

>  <origin>  (29) 
adg

>  <m_score__min__energy>  (29) 
-6.8099999999999996

>  <m_primary>  (29) 
energy

$$$$
